
 OpenBabel03252505573D

 31 32  0  0  0  0  0  0  0  0999 V2000
   45.6370   33.3080   47.3790 O   0  0  0  0  0  0  0  0  0  0  0  0
   44.7590   35.2240   44.5220 C   0  0  0  0  0  0  0  0  0  0  0  0
   45.1920   34.4370   43.4370 C   0  0  0  0  0  0  0  0  0  0  0  0
   45.7970   33.2210   43.7610 C   0  0  0  0  0  0  0  0  0  0  0  0
   45.9300   32.8790   45.0520 N   0  0  0  0  0  0  0  0  0  0  0  0
   45.5030   33.6590   46.0490 C   0  0  0  0  0  0  0  0  0  0  0  0
   44.9210   34.8230   45.7890 N   0  0  0  0  0  0  0  0  0  0  0  0
   44.2810   36.1840   44.2800 H   0  0  0  0  0  0  0  0  0  0  0  0
   44.9900   34.9300   42.0520 C   0  0  0  0  0  0  0  0  0  0  0  0
   44.3350   36.1490   42.2190 F   0  0  0  0  0  0  0  0  0  0  0  0
   44.1150   34.0430   41.4410 F   0  0  0  0  0  0  0  0  0  0  0  0
   46.1770   35.0700   41.4410 F   0  0  0  0  0  0  0  0  0  0  0  0
   46.2530   32.3070   42.7540 C   0  0  0  0  0  3  0  0  0  0  0  0
   47.5390   32.2940   42.3620 C   0  0  0  0  0  3  0  0  0  0  0  0
   48.5620   33.2210   42.9440 C   0  0  0  0  0  2  0  0  0  0  0  0
   48.3440   34.2900   42.7200 H   0  0  0  0  0  0  0  0  0  0  0  0
   45.0390   32.1320   47.8840 C   0  0  0  0  0  0  0  0  0  0  0  0
   44.7820   32.3460   48.9420 H   0  0  0  0  0  0  0  0  0  0  0  0
   44.1000   31.8590   47.3750 H   0  0  0  0  0  0  0  0  0  0  0  0
   46.0620   31.0700   47.8720 C   0  0  0  0  0  0  0  0  0  0  0  0
   46.0480   29.8010   47.3180 C   0  0  0  0  0  0  0  0  0  0  0  0
   47.1520   29.0310   47.4610 C   0  0  0  0  0  0  0  0  0  0  0  0
   48.2400   29.4330   48.1030 N   0  0  0  0  0  0  0  0  0  0  0  0
   48.2520   30.6650   48.6390 C   0  0  0  0  0  0  0  0  0  0  0  0
   47.1720   31.5070   48.5380 N   0  0  0  0  0  0  0  0  0  0  0  0
   45.1280   29.5970   46.8330 H   0  0  0  0  0  0  0  0  0  0  0  0
   47.1030   28.0470   47.0150 H   0  0  0  0  0  0  0  0  0  0  0  0
   49.5090   31.0450   49.3450 C   0  0  0  0  0  0  0  0  0  0  0  0
   49.6720   32.4010   49.3850 F   0  0  0  0  0  0  0  0  0  0  0  0
   50.6060   30.4650   48.6920 F   0  0  0  0  0  0  0  0  0  0  0  0
   49.5150   30.5830   50.6540 F   0  0  0  0  0  0  0  0  0  0  0  0
  1 17  1  0  0  0  0
  2  7  1  0  0  0  0
  3  4  1  0  0  0  0
  3  2  2  0  0  0  0
  4  5  2  0  0  0  0
  5  6  1  0  0  0  0
  6  1  1  0  0  0  0
  7  6  2  0  0  0  0
  8  2  1  0  0  0  0
  9 10  1  0  0  0  0
  9  3  1  0  0  0  0
 11  9  1  0  0  0  0
 12  9  1  0  0  0  0
 13  4  1  0  0  0  0
 14 13  2  0  0  0  0
 14 15  1  0  0  0  0
 16 15  1  0  0  0  0
 17 18  1  0  0  0  0
 19 17  1  0  0  0  0
 20 17  1  0  0  0  0
 20 25  1  0  0  0  0
 21 22  1  0  0  0  0
 21 20  2  0  0  0  0
 22 23  2  0  0  0  0
 23 24  1  0  0  0  0
 24 28  1  0  0  0  0
 25 24  2  0  0  0  0
 26 21  1  0  0  0  0
 27 22  1  0  0  0  0
 28 29  1  0  0  0  0
 28 31  1  0  0  0  0
 30 28  1  0  0  0  0
M  END
>  <minimizedAffinity>
-5.2682333

>  <minimizedRMSD>
1.02143025

$$$$
