
 OpenBabel03252501543D

 16 16  0  0  0  0  0  0  0  0999 V2000
   44.5300   35.5080   45.1300 C   0  0  0  0  0  0  0  0  0  0  0  0
   45.2890   35.3600   43.9760 C   0  0  0  0  0  0  0  0  0  0  0  0
   46.2160   34.3300   43.9240 C   0  0  0  0  0  0  0  0  0  0  0  0
   46.3550   33.5020   44.9920 N   0  0  0  0  0  0  0  0  0  0  0  0
   45.5910   33.6790   46.1050 C   0  0  0  0  0  0  0  0  0  0  0  0
   44.6860   34.6750   46.1720 N   0  0  0  0  0  0  0  0  0  0  0  0
   43.7800   36.2580   45.3030 H   0  0  0  0  0  0  0  0  0  0  0  0
   45.8350   32.9360   46.8450 H   0  0  0  0  0  0  0  0  0  0  0  0
   45.0620   36.3120   42.8740 C   0  0  0  0  0  0  0  0  0  0  0  0
   44.5160   35.8440   42.0310 H   0  0  0  0  0  0  0  0  0  0  0  0
   46.0730   36.5930   42.4580 H   0  0  0  0  0  0  0  0  0  0  0  0
   44.6200   37.2350   43.2580 H   0  0  0  0  0  0  0  0  0  0  0  0
   47.0260   34.1520   42.7260 C   0  0  0  0  0  3  0  0  0  0  0  0
   48.3220   34.4100   42.7650 C   0  0  0  0  0  3  0  0  0  0  0  0
   49.1500   34.2270   41.5330 C   0  0  0  0  0  2  0  0  0  0  0  0
   50.1020   34.8020   41.6080 H   0  0  0  0  0  0  0  0  0  0  0  0
  1  7  1  0  0  0  0
  1  6  1  0  0  0  0
  2  1  2  0  0  0  0
  3  2  1  0  0  0  0
  3  4  2  0  0  0  0
  4  5  1  0  0  0  0
  5  6  2  0  0  0  0
  5  8  1  0  0  0  0
  9 12  1  0  0  0  0
  9  2  1  0  0  0  0
 10  9  1  0  0  0  0
 11  9  1  0  0  0  0
 13 14  2  0  0  0  0
 13  3  1  0  0  0  0
 15 16  1  0  0  0  0
 15 14  1  0  0  0  0
M  END
>  <minimizedAffinity>
-3.55566049

>  <minimizedRMSD>
2.3142786

$$$$
