
 OpenBabel03252508213D

 29 30  0  0  0  0  0  0  0  0999 V2000
   44.5310   33.7880   41.1250 C   0  0  0  0  0  0  0  0  0  0  0  0
   44.0190   34.5400   41.7960 H   0  0  0  0  0  0  0  0  0  0  0  0
   44.3530   32.8120   41.5830 H   0  0  0  0  0  0  0  0  0  0  0  0
   45.9300   34.2250   41.0610 C   0  0  0  0  0  0  0  0  0  0  0  0
   46.7960   33.9140   40.0460 C   0  0  0  0  0  0  0  0  0  0  0  0
   48.1250   34.3070   39.9450 C   0  0  0  0  0  0  0  0  0  0  0  0
   48.5700   35.0960   41.0120 C   0  0  0  0  0  0  0  0  0  0  0  0
   47.7240   35.4270   42.0510 C   0  0  0  0  0  0  0  0  0  0  0  0
   46.4240   35.0110   42.0950 C   0  0  0  0  0  0  0  0  0  0  0  0
   46.4350   33.3030   39.2270 H   0  0  0  0  0  0  0  0  0  0  0  0
   48.7670   34.0480   39.1440 H   0  0  0  0  0  0  0  0  0  0  0  0
   49.6100   35.4250   40.9700 H   0  0  0  0  0  0  0  0  0  0  0  0
   48.1950   36.0420   42.8120 H   0  0  0  0  0  0  0  0  0  0  0  0
   45.5750   35.3920   43.2180 C   0  0  0  0  0  3  0  0  0  0  0  0
   45.5350   34.7720   44.3850 C   0  0  0  0  0  3  0  0  0  0  0  0
   44.6490   35.2030   45.4960 C   0  0  0  0  0  2  0  0  0  0  0  0
   43.8120   34.4760   45.6080 H   0  0  0  0  0  0  0  0  0  0  0  0
   43.8330   33.9480   39.7760 C   0  0  0  0  0  0  0  0  0  0  0  0
   44.4810   34.6460   39.2030 H   0  0  0  0  0  0  0  0  0  0  0  0
   43.7130   32.9800   39.2840 H   0  0  0  0  0  0  0  0  0  0  0  0
   41.0050   35.7640   41.4810 C   0  0  0  0  0  0  0  0  0  0  0  0
   42.2440   35.1040   41.2920 C   0  0  0  0  0  0  0  0  0  0  0  0
   42.5530   34.6380   40.0050 C   0  0  0  0  0  0  0  0  0  0  0  0
   41.6220   34.8560   39.0110 N   0  0  0  0  0  0  0  0  0  0  0  0
   40.4740   35.4830   39.2460 C   0  0  0  0  0  0  0  0  0  0  0  0
   40.1450   35.9440   40.4730 N   0  0  0  0  0  0  0  0  0  0  0  0
   40.8280   36.1000   42.4990 H   0  0  0  0  0  0  0  0  0  0  0  0
   42.9200   34.9760   42.1390 H   0  0  0  0  0  0  0  0  0  0  0  0
   39.8230   35.5960   38.3870 H   0  0  0  0  0  0  0  0  0  0  0  0
  1  3  1  0  0  0  0
  1  2  1  0  0  0  0
  4  1  1  0  0  0  0
  4  9  1  0  0  0  0
  5  4  2  0  0  0  0
  6  5  1  0  0  0  0
  6  7  2  0  0  0  0
  7  8  1  0  0  0  0
  8  9  2  0  0  0  0
  8 13  1  0  0  0  0
  9 14  1  0  0  0  0
 10  5  1  0  0  0  0
 11  6  1  0  0  0  0
 12  7  1  0  0  0  0
 14 15  2  0  0  0  0
 15 16  1  0  0  0  0
 16 17  1  0  0  0  0
 18 23  1  0  0  0  0
 18  1  1  0  0  0  0
 19 18  1  0  0  0  0
 20 18  1  0  0  0  0
 21 27  1  0  0  0  0
 22 21  1  0  0  0  0
 22 28  1  0  0  0  0
 23 22  2  0  0  0  0
 24 25  2  0  0  0  0
 24 23  1  0  0  0  0
 25 26  1  0  0  0  0
 26 21  2  0  0  0  0
 29 25  1  0  0  0  0
M  END
>  <minimizedAffinity>
-5.29030752

>  <minimizedRMSD>
1.52995729

$$$$
