
 OpenBabel03252501563D

 16 16  0  0  0  0  0  0  0  0999 V2000
   36.5410   27.8940   41.8780 C   0  0  0  0  0  0  0  0  0  0  0  0
   36.2090   29.0510   41.1850 C   0  0  0  0  0  0  0  0  0  0  0  0
   37.0040   30.1740   41.3560 C   0  0  0  0  0  0  0  0  0  0  0  0
   38.0750   30.1120   42.1890 N   0  0  0  0  0  0  0  0  0  0  0  0
   38.3690   28.9590   42.8510 C   0  0  0  0  0  0  0  0  0  0  0  0
   37.6070   27.8600   42.6950 N   0  0  0  0  0  0  0  0  0  0  0  0
   36.0150   26.9580   41.8370 H   0  0  0  0  0  0  0  0  0  0  0  0
   39.2450   29.0930   43.4610 H   0  0  0  0  0  0  0  0  0  0  0  0
   35.0250   29.0130   40.3060 C   0  0  0  0  0  0  0  0  0  0  0  0
   35.3080   28.9950   39.2350 H   0  0  0  0  0  0  0  0  0  0  0  0
   34.4660   29.9830   40.4530 H   0  0  0  0  0  0  0  0  0  0  0  0
   34.3470   28.2170   40.6220 H   0  0  0  0  0  0  0  0  0  0  0  0
   36.6770   31.4010   40.6420 C   0  0  0  0  0  3  0  0  0  0  0  0
   37.6460   32.2220   40.2700 C   0  0  0  0  0  3  0  0  0  0  0  0
   37.3080   33.4800   39.5370 C   0  0  0  0  0  2  0  0  0  0  0  0
   38.1430   34.2160   39.6080 H   0  0  0  0  0  0  0  0  0  0  0  0
  1  6  1  0  0  0  0
  2  3  1  0  0  0  0
  2  1  2  0  0  0  0
  3  4  2  0  0  0  0
  4  5  1  0  0  0  0
  5  8  1  0  0  0  0
  6  5  2  0  0  0  0
  7  1  1  0  0  0  0
  9 11  1  0  0  0  0
  9 12  1  0  0  0  0
  9  2  1  0  0  0  0
 10  9  1  0  0  0  0
 13  3  1  0  0  0  0
 14 13  2  0  0  0  0
 15 16  1  0  0  0  0
 15 14  1  0  0  0  0
M  END
>  <minimizedAffinity>
-3.65911126

$$$$

 OpenBabel03252501563D

 16 16  0  0  0  0  0  0  0  0999 V2000
   39.0820   24.6430   42.6540 C   0  0  0  0  0  0  0  0  0  0  0  0
   37.9320   25.3240   42.2730 C   0  0  0  0  0  0  0  0  0  0  0  0
   37.8100   26.6600   42.6240 C   0  0  0  0  0  0  0  0  0  0  0  0
   38.8080   27.2600   43.3230 N   0  0  0  0  0  0  0  0  0  0  0  0
   39.9200   26.5580   43.6780 C   0  0  0  0  0  0  0  0  0  0  0  0
   40.0540   25.2600   43.3440 N   0  0  0  0  0  0  0  0  0  0  0  0
   39.3040   23.6120   42.4480 H   0  0  0  0  0  0  0  0  0  0  0  0
   40.6000   27.1900   44.2230 H   0  0  0  0  0  0  0  0  0  0  0  0
   36.9080   24.5800   41.5160 C   0  0  0  0  0  0  0  0  0  0  0  0
   36.8900   24.8750   40.4480 H   0  0  0  0  0  0  0  0  0  0  0  0
   35.9010   24.8810   41.9270 H   0  0  0  0  0  0  0  0  0  0  0  0
   37.0080   23.5080   41.7020 H   0  0  0  0  0  0  0  0  0  0  0  0
   36.6150   27.3980   42.2370 C   0  0  0  0  0  3  0  0  0  0  0  0
   36.6600   28.2290   41.2080 C   0  0  0  0  0  3  0  0  0  0  0  0
   35.4310   28.9840   40.8140 C   0  0  0  0  0  2  0  0  0  0  0  0
   35.6960   29.8740   40.1960 H   0  0  0  0  0  0  0  0  0  0  0  0
  1  6  1  0  0  0  0
  2  3  1  0  0  0  0
  2  1  2  0  0  0  0
  3  4  2  0  0  0  0
  4  5  1  0  0  0  0
  5  8  1  0  0  0  0
  6  5  2  0  0  0  0
  7  1  1  0  0  0  0
  9 12  1  0  0  0  0
  9 11  1  0  0  0  0
  9  2  1  0  0  0  0
 10  9  1  0  0  0  0
 13  3  1  0  0  0  0
 14 13  2  0  0  0  0
 15 14  1  0  0  0  0
 16 15  1  0  0  0  0
M  END
>  <minimizedAffinity>
-3.52081275

$$$$

 OpenBabel03252501563D

 16 16  0  0  0  0  0  0  0  0999 V2000
   37.2450   30.6290   41.4700 C   0  0  0  0  0  0  0  0  0  0  0  0
   37.4790   29.3950   42.0630 C   0  0  0  0  0  0  0  0  0  0  0  0
   36.6620   28.3300   41.7130 C   0  0  0  0  0  0  0  0  0  0  0  0
   35.6670   28.5220   40.8080 N   0  0  0  0  0  0  0  0  0  0  0  0
   35.4710   29.7470   40.2480 C   0  0  0  0  0  0  0  0  0  0  0  0
   36.2550   30.7910   40.5770 N   0  0  0  0  0  0  0  0  0  0  0  0
   37.7990   31.5320   41.6480 H   0  0  0  0  0  0  0  0  0  0  0  0
   34.6450   29.7130   39.5580 H   0  0  0  0  0  0  0  0  0  0  0  0
   38.5840   29.2930   43.0340 C   0  0  0  0  0  0  0  0  0  0  0  0
   39.4510   28.7470   42.6140 H   0  0  0  0  0  0  0  0  0  0  0  0
   38.2190   28.6620   43.8950 H   0  0  0  0  0  0  0  0  0  0  0  0
   38.8110   30.2780   43.4500 H   0  0  0  0  0  0  0  0  0  0  0  0
   36.8840   27.0250   42.3200 C   0  0  0  0  0  3  0  0  0  0  0  0
   37.1090   25.9720   41.5510 C   0  0  0  0  0  3  0  0  0  0  0  0
   37.3370   24.6340   42.1780 C   0  0  0  0  0  2  0  0  0  0  0  0
   37.1570   23.8170   41.4410 H   0  0  0  0  0  0  0  0  0  0  0  0
  1  7  1  0  0  0  0
  1  2  1  0  0  0  0
  2  9  1  0  0  0  0
  3  2  2  0  0  0  0
  3 13  1  0  0  0  0
  4  3  1  0  0  0  0
  5  6  1  0  0  0  0
  5  4  2  0  0  0  0
  6  1  2  0  0  0  0
  8  5  1  0  0  0  0
  9 12  1  0  0  0  0
  9 11  1  0  0  0  0
 10  9  1  0  0  0  0
 14 15  1  0  0  0  0
 14 13  2  0  0  0  0
 16 15  1  0  0  0  0
M  END
>  <minimizedAffinity>
-3.51827383

$$$$

 OpenBabel03252501563D

 16 16  0  0  0  0  0  0  0  0999 V2000
   37.3740   30.5000   41.1660 C   0  0  0  0  0  0  0  0  0  0  0  0
   36.8110   29.2510   41.3950 C   0  0  0  0  0  0  0  0  0  0  0  0
   37.4900   28.3620   42.2150 C   0  0  0  0  0  0  0  0  0  0  0  0
   38.6750   28.7340   42.7640 N   0  0  0  0  0  0  0  0  0  0  0  0
   39.1940   29.9680   42.5160 C   0  0  0  0  0  0  0  0  0  0  0  0
   38.5470   30.8430   41.7230 N   0  0  0  0  0  0  0  0  0  0  0  0
   36.9560   31.2800   40.5560 H   0  0  0  0  0  0  0  0  0  0  0  0
   40.1320   30.0880   43.0320 H   0  0  0  0  0  0  0  0  0  0  0  0
   35.5210   28.9460   40.7500 C   0  0  0  0  0  0  0  0  0  0  0  0
   34.6850   28.9540   41.4770 H   0  0  0  0  0  0  0  0  0  0  0  0
   35.5780   27.8850   40.3680 H   0  0  0  0  0  0  0  0  0  0  0  0
   35.3800   29.5810   39.8720 H   0  0  0  0  0  0  0  0  0  0  0  0
   36.9230   27.0450   42.4720 C   0  0  0  0  0  3  0  0  0  0  0  0
   37.4440   25.9790   41.8860 C   0  0  0  0  0  3  0  0  0  0  0  0
   36.8600   24.6300   42.1520 C   0  0  0  0  0  2  0  0  0  0  0  0
   37.1470   23.9100   41.3500 H   0  0  0  0  0  0  0  0  0  0  0  0
  1  2  2  0  0  0  0
  1  6  1  0  0  0  0
  2  3  1  0  0  0  0
  3 13  1  0  0  0  0
  3  4  2  0  0  0  0
  5  4  1  0  0  0  0
  5  8  1  0  0  0  0
  6  5  2  0  0  0  0
  7  1  1  0  0  0  0
  9  2  1  0  0  0  0
  9 10  1  0  0  0  0
 11  9  1  0  0  0  0
 12  9  1  0  0  0  0
 14 15  1  0  0  0  0
 14 13  2  0  0  0  0
 16 15  1  0  0  0  0
M  END
>  <minimizedAffinity>
-3.45928407

$$$$

 OpenBabel03252501563D

 16 16  0  0  0  0  0  0  0  0999 V2000
   39.2660   29.0970   43.0250 C   0  0  0  0  0  0  0  0  0  0  0  0
   38.8140   27.7840   43.0120 C   0  0  0  0  0  0  0  0  0  0  0  0
   37.6120   27.5070   42.3770 C   0  0  0  0  0  0  0  0  0  0  0  0
   36.9190   28.5170   41.7910 N   0  0  0  0  0  0  0  0  0  0  0  0
   37.3960   29.7910   41.8250 C   0  0  0  0  0  0  0  0  0  0  0  0
   38.5610   30.0770   42.4370 N   0  0  0  0  0  0  0  0  0  0  0  0
   40.1750   29.4490   43.4780 H   0  0  0  0  0  0  0  0  0  0  0  0
   36.7210   30.4550   41.3130 H   0  0  0  0  0  0  0  0  0  0  0  0
   39.6410   26.7610   43.6780 C   0  0  0  0  0  0  0  0  0  0  0  0
   40.1600   26.1110   42.9460 H   0  0  0  0  0  0  0  0  0  0  0  0
   38.9430   26.0780   44.2440 H   0  0  0  0  0  0  0  0  0  0  0  0
   40.2870   27.2280   44.4260 H   0  0  0  0  0  0  0  0  0  0  0  0
   37.1140   26.1380   42.3490 C   0  0  0  0  0  3  0  0  0  0  0  0
   37.1310   25.4550   41.2150 C   0  0  0  0  0  3  0  0  0  0  0  0
   36.6190   24.0510   41.1900 C   0  0  0  0  0  2  0  0  0  0  0  0
   36.3660   23.7420   40.1490 H   0  0  0  0  0  0  0  0  0  0  0  0
  1  7  1  0  0  0  0
  2  1  1  0  0  0  0
  2  9  1  0  0  0  0
  3  2  2  0  0  0  0
  4  5  2  0  0  0  0
  4  3  1  0  0  0  0
  5  6  1  0  0  0  0
  6  1  2  0  0  0  0
  8  5  1  0  0  0  0
  9 11  1  0  0  0  0
  9 12  1  0  0  0  0
 10  9  1  0  0  0  0
 13  3  1  0  0  0  0
 14 13  2  0  0  0  0
 15 14  1  0  0  0  0
 16 15  1  0  0  0  0
M  END
>  <minimizedAffinity>
-3.44973779

$$$$

 OpenBabel03252501563D

 16 16  0  0  0  0  0  0  0  0999 V2000
   39.4620   25.5870   43.0740 C   0  0  0  0  0  0  0  0  0  0  0  0
   38.6890   26.7230   42.8690 C   0  0  0  0  0  0  0  0  0  0  0  0
   37.4340   26.5720   42.2980 C   0  0  0  0  0  0  0  0  0  0  0  0
   37.0000   25.3300   41.9600 N   0  0  0  0  0  0  0  0  0  0  0  0
   37.7870   24.2410   42.1780 C   0  0  0  0  0  0  0  0  0  0  0  0
   39.0080   24.3710   42.7320 N   0  0  0  0  0  0  0  0  0  0  0  0
   40.4460   25.5610   43.5050 H   0  0  0  0  0  0  0  0  0  0  0  0
   37.2840   23.3470   41.8510 H   0  0  0  0  0  0  0  0  0  0  0  0
   39.2540   28.0250   43.2700 C   0  0  0  0  0  0  0  0  0  0  0  0
   38.7730   28.4160   44.1880 H   0  0  0  0  0  0  0  0  0  0  0  0
   39.0000   28.7670   42.4580 H   0  0  0  0  0  0  0  0  0  0  0  0
   40.3450   27.9670   43.3050 H   0  0  0  0  0  0  0  0  0  0  0  0
   36.6030   27.7470   42.0700 C   0  0  0  0  0  3  0  0  0  0  0  0
   36.3110   28.1150   40.8330 C   0  0  0  0  0  3  0  0  0  0  0  0
   35.4570   29.3200   40.6040 C   0  0  0  0  0  2  0  0  0  0  0  0
   35.5900   29.7070   39.5660 H   0  0  0  0  0  0  0  0  0  0  0  0
  1  7  1  0  0  0  0
  2  1  1  0  0  0  0
  2  9  1  0  0  0  0
  3  2  2  0  0  0  0
  4  5  2  0  0  0  0
  4  3  1  0  0  0  0
  5  6  1  0  0  0  0
  6  1  2  0  0  0  0
  8  5  1  0  0  0  0
  9 12  1  0  0  0  0
  9 10  1  0  0  0  0
 11  9  1  0  0  0  0
 13  3  1  0  0  0  0
 14 13  2  0  0  0  0
 15 14  1  0  0  0  0
 16 15  1  0  0  0  0
M  END
>  <minimizedAffinity>
-3.43488479

$$$$

 OpenBabel03252501563D

 16 16  0  0  0  0  0  0  0  0999 V2000
   38.3290   28.7620   43.2920 C   0  0  0  0  0  0  0  0  0  0  0  0
   38.5610   29.8130   42.4150 C   0  0  0  0  0  0  0  0  0  0  0  0
   37.7110   29.9660   41.3300 C   0  0  0  0  0  0  0  0  0  0  0  0
   36.6840   29.0930   41.1580 N   0  0  0  0  0  0  0  0  0  0  0  0
   36.4890   28.0760   42.0420 C   0  0  0  0  0  0  0  0  0  0  0  0
   37.3060   27.9130   43.1000 N   0  0  0  0  0  0  0  0  0  0  0  0
   38.9070   28.5290   44.1680 H   0  0  0  0  0  0  0  0  0  0  0  0
   35.6350   27.4880   41.7500 H   0  0  0  0  0  0  0  0  0  0  0  0
   39.7030   30.7040   42.6900 C   0  0  0  0  0  0  0  0  0  0  0  0
   39.3730   31.6910   43.0700 H   0  0  0  0  0  0  0  0  0  0  0  0
   40.2110   30.9150   41.7050 H   0  0  0  0  0  0  0  0  0  0  0  0
   40.4410   30.1890   43.3120 H   0  0  0  0  0  0  0  0  0  0  0  0
   37.9310   31.0600   40.3930 C   0  0  0  0  0  3  0  0  0  0  0  0
   37.0580   32.0520   40.3240 C   0  0  0  0  0  3  0  0  0  0  0  0
   37.2880   33.1720   39.3620 C   0  0  0  0  0  2  0  0  0  0  0  0
   36.3380   33.7210   39.1590 H   0  0  0  0  0  0  0  0  0  0  0  0
  1  7  1  0  0  0  0
  2  9  1  0  0  0  0
  2  1  2  0  0  0  0
  3  2  1  0  0  0  0
  4  3  2  0  0  0  0
  4  5  1  0  0  0  0
  5  6  2  0  0  0  0
  6  1  1  0  0  0  0
  8  5  1  0  0  0  0
  9 10  1  0  0  0  0
  9 12  1  0  0  0  0
 11  9  1  0  0  0  0
 13  3  1  0  0  0  0
 14 13  2  0  0  0  0
 15 14  1  0  0  0  0
 16 15  1  0  0  0  0
M  END
>  <minimizedAffinity>
-3.40794873

$$$$

 OpenBabel03252501563D

 16 16  0  0  0  0  0  0  0  0999 V2000
   39.0300   27.1640   43.5380 C   0  0  0  0  0  0  0  0  0  0  0  0
   37.9140   26.6200   42.9160 C   0  0  0  0  0  0  0  0  0  0  0  0
   37.9920   25.3190   42.4420 C   0  0  0  0  0  0  0  0  0  0  0  0
   39.1460   24.6200   42.5970 N   0  0  0  0  0  0  0  0  0  0  0  0
   40.2190   25.1890   43.2140 C   0  0  0  0  0  0  0  0  0  0  0  0
   40.1590   26.4510   43.6800 N   0  0  0  0  0  0  0  0  0  0  0  0
   39.1060   28.1540   43.9490 H   0  0  0  0  0  0  0  0  0  0  0  0
   41.0400   24.4930   43.2480 H   0  0  0  0  0  0  0  0  0  0  0  0
   36.7100   27.4620   42.7970 C   0  0  0  0  0  0  0  0  0  0  0  0
   35.9130   27.1430   43.4970 H   0  0  0  0  0  0  0  0  0  0  0  0
   36.2850   27.2990   41.7640 H   0  0  0  0  0  0  0  0  0  0  0  0
   36.9830   28.5190   42.8530 H   0  0  0  0  0  0  0  0  0  0  0  0
   36.8360   24.7230   41.7850 C   0  0  0  0  0  3  0  0  0  0  0  0
   36.9750   24.1570   40.5970 C   0  0  0  0  0  3  0  0  0  0  0  0
   35.7870   23.5470   39.9260 C   0  0  0  0  0  2  0  0  0  0  0  0
   35.9630   23.4400   38.8300 H   0  0  0  0  0  0  0  0  0  0  0  0
  1  6  1  0  0  0  0
  1  7  1  0  0  0  0
  2  1  2  0  0  0  0
  3  4  2  0  0  0  0
  3  2  1  0  0  0  0
  4  5  1  0  0  0  0
  5  8  1  0  0  0  0
  5  6  2  0  0  0  0
  9 12  1  0  0  0  0
  9  2  1  0  0  0  0
  9 10  1  0  0  0  0
 11  9  1  0  0  0  0
 13  3  1  0  0  0  0
 14 13  2  0  0  0  0
 15 14  1  0  0  0  0
 16 15  1  0  0  0  0
M  END
>  <minimizedAffinity>
-3.38715148

$$$$

 OpenBabel03252501563D

 16 16  0  0  0  0  0  0  0  0999 V2000
   37.3270   29.5730   42.3500 C   0  0  0  0  0  0  0  0  0  0  0  0
   37.6210   28.3230   42.8790 C   0  0  0  0  0  0  0  0  0  0  0  0
   38.9440   27.9070   42.8920 C   0  0  0  0  0  0  0  0  0  0  0  0
   39.9060   28.7260   42.3910 N   0  0  0  0  0  0  0  0  0  0  0  0
   39.5770   29.9450   41.8820 C   0  0  0  0  0  0  0  0  0  0  0  0
   38.2970   30.3640   41.8620 N   0  0  0  0  0  0  0  0  0  0  0  0
   36.3510   30.0160   42.2790 H   0  0  0  0  0  0  0  0  0  0  0  0
   40.4600   30.4530   41.5330 H   0  0  0  0  0  0  0  0  0  0  0  0
   36.5040   27.5110   43.3960 C   0  0  0  0  0  0  0  0  0  0  0  0
   36.4990   27.4760   44.5030 H   0  0  0  0  0  0  0  0  0  0  0  0
   36.6790   26.4470   43.0630 H   0  0  0  0  0  0  0  0  0  0  0  0
   35.5650   27.8270   42.9350 H   0  0  0  0  0  0  0  0  0  0  0  0
   39.2820   26.6000   43.4400 C   0  0  0  0  0  3  0  0  0  0  0  0
   39.4710   25.5750   42.6260 C   0  0  0  0  0  3  0  0  0  0  0  0
   39.8170   24.2360   43.1920 C   0  0  0  0  0  2  0  0  0  0  0  0
   39.5970   23.4270   42.4570 H   0  0  0  0  0  0  0  0  0  0  0  0
  1  2  1  0  0  0  0
  2  3  2  0  0  0  0
  2  9  1  0  0  0  0
  3 13  1  0  0  0  0
  4  3  1  0  0  0  0
  5  4  2  0  0  0  0
  6  5  1  0  0  0  0
  6  1  2  0  0  0  0
  7  1  1  0  0  0  0
  8  5  1  0  0  0  0
  9 10  1  0  0  0  0
 11  9  1  0  0  0  0
 12  9  1  0  0  0  0
 14 15  1  0  0  0  0
 14 13  2  0  0  0  0
 16 15  1  0  0  0  0
M  END
>  <minimizedAffinity>
-3.352566

$$$$
