
 OpenBabel03242511413D

 29 30  0  0  0  0  0  0  0  0999 V2000
   46.9360   32.9310   46.2940 C   0  0  0  0  0  0  0  0  0  0  0  0
   46.8830   33.9620   46.6620 H   0  0  0  0  0  0  0  0  0  0  0  0
   48.0250   32.6290   46.2700 H   0  0  0  0  0  0  0  0  0  0  0  0
   46.3000   32.0460   47.2660 C   0  0  0  0  0  0  0  0  0  0  0  0
   45.2090   32.2750   48.0890 C   0  0  0  0  0  0  0  0  0  0  0  0
   44.6550   31.3500   48.9360 C   0  0  0  0  0  0  0  0  0  0  0  0
   45.2270   30.1080   48.9650 C   0  0  0  0  0  0  0  0  0  0  0  0
   46.3220   29.8540   48.1510 C   0  0  0  0  0  0  0  0  0  0  0  0
   46.8630   30.8190   47.3030 C   0  0  0  0  0  0  0  0  0  0  0  0
   44.8370   33.2930   47.9820 H   0  0  0  0  0  0  0  0  0  0  0  0
   43.8140   31.7420   49.4870 H   0  0  0  0  0  0  0  0  0  0  0  0
   44.6910   29.4630   49.6780 H   0  0  0  0  0  0  0  0  0  0  0  0
   46.5650   28.8100   48.3740 H   0  0  0  0  0  0  0  0  0  0  0  0
   48.0520   30.1620   46.7820 C   0  0  0  0  0  3  0  0  0  0  0  0
   48.3540   29.6160   45.6250 C   0  0  0  0  0  3  0  0  0  0  0  0
   49.5480   28.9650   45.1290 C   0  0  0  0  0  2  0  0  0  0  0  0
   50.3200   28.9760   45.9480 H   0  0  0  0  0  0  0  0  0  0  0  0
   46.4300   32.7400   44.9050 C   0  0  0  0  0  0  0  0  0  0  0  0
   45.5150   32.1200   44.9270 H   0  0  0  0  0  0  0  0  0  0  0  0
   47.2100   32.4550   44.1790 H   0  0  0  0  0  0  0  0  0  0  0  0
   44.5180   35.9020   44.7330 C   0  0  0  0  0  0  0  0  0  0  0  0
   44.8910   36.4030   43.4610 C   0  0  0  0  0  0  0  0  0  0  0  0
   45.7850   35.6450   42.7310 C   0  0  0  0  0  0  0  0  0  0  0  0
   46.2470   34.5010   43.2420 N   0  0  0  0  0  0  0  0  0  0  0  0
   45.8560   34.0670   44.4700 C   0  0  0  0  0  0  0  0  0  0  0  0
   45.0100   34.7460   45.2080 N   0  0  0  0  0  0  0  0  0  0  0  0
   43.8050   36.5370   45.2810 H   0  0  0  0  0  0  0  0  0  0  0  0
   44.4880   37.3430   43.0840 H   0  0  0  0  0  0  0  0  0  0  0  0
   46.1150   35.9680   41.7500 H   0  0  0  0  0  0  0  0  0  0  0  0
  1  2  1  0  0  0  0
  1  4  1  0  0  0  0
  3  1  1  0  0  0  0
  4  9  2  0  0  0  0
  4  5  1  0  0  0  0
  5  6  2  0  0  0  0
  6  7  1  0  0  0  0
  6 11  1  0  0  0  0
  7 12  1  0  0  0  0
  8 13  1  0  0  0  0
  8  7  2  0  0  0  0
  9  8  1  0  0  0  0
 10  5  1  0  0  0  0
 14  9  1  0  0  0  0
 15 14  2  0  0  0  0
 16 15  1  0  0  0  0
 16 17  1  0  0  0  0
 18 19  1  0  0  0  0
 18  1  1  0  0  0  0
 20 18  1  0  0  0  0
 21 26  1  0  0  0  0
 21 27  1  0  0  0  0
 22 21  2  0  0  0  0
 23 24  2  0  0  0  0
 23 22  1  0  0  0  0
 24 25  1  0  0  0  0
 25 18  1  0  0  0  0
 25 26  2  0  0  0  0
 28 22  1  0  0  0  0
 29 23  1  0  0  0  0
M  END
>  <minimizedAffinity>
-4.56513453

>  <minimizedRMSD>
1.36196673

$$$$
