
 OpenBabel03242517533D

 33 34  0  0  0  0  0  0  0  0999 V2000
   45.2080   34.2930   43.8490 C   0  0  0  0  0  0  0  0  0  0  0  0
   46.1630   34.8970   42.9980 C   0  0  0  0  0  0  0  0  0  0  0  0
   47.4720   34.4560   43.0170 C   0  0  0  0  0  0  0  0  0  0  0  0
   47.7200   33.4600   43.8740 N   0  0  0  0  0  0  0  0  0  0  0  0
   46.8430   32.8890   44.6710 C   0  0  0  0  0  0  0  0  0  0  0  0
   45.5730   33.3110   44.6590 N   0  0  0  0  0  0  0  0  0  0  0  0
   44.1890   34.6800   43.7940 H   0  0  0  0  0  0  0  0  0  0  0  0
   45.9190   35.7090   42.3110 H   0  0  0  0  0  0  0  0  0  0  0  0
   48.5530   35.0040   42.1800 C   0  0  0  0  0  0  0  0  0  0  0  0
   48.7950   36.0490   42.4580 H   0  0  0  0  0  0  0  0  0  0  0  0
   49.4570   34.4170   42.3090 H   0  0  0  0  0  0  0  0  0  0  0  0
   48.2080   34.9110   40.6940 C   0  0  0  0  0  0  0  0  0  0  0  0
   48.7990   35.6650   40.1340 H   0  0  0  0  0  0  0  0  0  0  0  0
   47.1370   35.1590   40.6130 H   0  0  0  0  0  0  0  0  0  0  0  0
   48.4510   33.5340   40.1900 C   0  0  0  0  0  3  0  0  0  0  0  0
   49.1300   32.4020   40.3070 C   0  0  0  0  0  3  0  0  0  0  0  0
   49.0390   31.1520   39.5040 C   0  0  0  0  0  2  0  0  0  0  0  0
   48.7270   30.3140   40.1510 H   0  0  0  0  0  0  0  0  0  0  0  0
   47.1600   31.8570   45.5400 O   0  0  0  0  0  0  0  0  0  0  0  0
   45.6480   30.4320   46.9050 C   0  0  0  0  0  0  0  0  0  0  0  0
   46.4440   31.5140   46.6720 C   0  0  0  0  0  0  0  0  0  0  0  0
   46.5800   32.4320   47.7070 C   0  0  0  0  0  0  0  0  0  0  0  0
   45.9490   32.2830   48.9310 C   0  0  0  0  0  0  0  0  0  0  0  0
   45.1450   31.1690   49.1320 C   0  0  0  0  0  0  0  0  0  0  0  0
   45.0030   30.2470   48.1060 C   0  0  0  0  0  0  0  0  0  0  0  0
   47.1780   33.3230   47.6480 H   0  0  0  0  0  0  0  0  0  0  0  0
   46.0500   32.9930   49.7400 H   0  0  0  0  0  0  0  0  0  0  0  0
   44.6190   30.9790   50.0570 H   0  0  0  0  0  0  0  0  0  0  0  0
   44.4080   29.3520   48.1550 H   0  0  0  0  0  0  0  0  0  0  0  0
   45.5260   29.3240   45.5600 S   0  0  0  0  0  0  0  0  0  0  0  0
   44.7310   29.9250   44.4210 O   0  0  0  0  0  0  0  0  0  0  0  0
   44.7120   28.1270   46.0290 O   0  0  0  0  0  0  0  0  0  0  0  0
   46.7370   28.8770   45.1600 H   0  0  0  0  0  0  0  0  0  0  0  0
  1  6  1  0  0  0  0
  2  3  1  0  0  0  0
  2  1  2  0  0  0  0
  3  4  2  0  0  0  0
  4  5  1  0  0  0  0
  5 19  1  0  0  0  0
  6  5  2  0  0  0  0
  7  1  1  0  0  0  0
  8  2  1  0  0  0  0
  9 11  1  0  0  0  0
  9 10  1  0  0  0  0
  9  3  1  0  0  0  0
 12  9  1  0  0  0  0
 13 12  1  0  0  0  0
 14 12  1  0  0  0  0
 15 16  2  0  0  0  0
 15 12  1  0  0  0  0
 17 18  1  0  0  0  0
 17 16  1  0  0  0  0
 19 21  1  0  0  0  0
 20 25  1  0  0  0  0
 21 20  2  0  0  0  0
 21 22  1  0  0  0  0
 22 23  2  0  0  0  0
 23 24  1  0  0  0  0
 23 27  1  0  0  0  0
 24 28  1  0  0  0  0
 25 29  1  0  0  0  0
 25 24  2  0  0  0  0
 26 22  1  0  0  0  0
 30 32  2  0  0  0  0
 30 20  1  0  0  0  0
 31 30  2  0  0  0  0
 33 30  1  0  0  0  0
M  END
>  <minimizedAffinity>
-4.87817049

>  <minimizedRMSD>
0.395168692

$$$$
