
 OpenBabel03252501453D

 18 18  0  0  0  0  0  0  0  0999 V2000
   44.5940   35.8220   42.9610 C   0  0  0  0  0  0  0  0  0  0  0  0
   44.0940   34.9290   41.9920 C   0  0  0  0  0  0  0  0  0  0  0  0
   44.1800   33.5720   42.2490 C   0  0  0  0  0  0  0  0  0  0  0  0
   44.7360   33.1460   43.4110 N   0  0  0  0  0  0  0  0  0  0  0  0
   45.2080   34.0400   44.3230 C   0  0  0  0  0  0  0  0  0  0  0  0
   45.1350   35.3460   44.0940 N   0  0  0  0  0  0  0  0  0  0  0  0
   44.4930   36.8640   42.6930 H   0  0  0  0  0  0  0  0  0  0  0  0
   43.8140   32.8520   41.5430 H   0  0  0  0  0  0  0  0  0  0  0  0
   43.4990   35.4240   40.7460 C   0  0  0  0  0  3  0  0  0  0  0  0
   42.7980   34.6620   39.9090 C   0  0  0  0  0  3  0  0  0  0  0  0
   42.2230   35.2650   38.6490 C   0  0  0  0  0  0  0  0  0  0  0  0
   42.9880   35.3910   37.8820 H   0  0  0  0  0  0  0  0  0  0  0  0
   41.4970   34.5190   38.2670 H   0  0  0  0  0  0  0  0  0  0  0  0
   41.6620   36.1860   38.8790 H   0  0  0  0  0  0  0  0  0  0  0  0
   45.8130   33.6280   45.5850 C   0  0  0  0  0  3  0  0  0  0  0  0
   46.7920   32.7480   45.7090 C   0  0  0  0  0  3  0  0  0  0  0  0
   47.3910   32.0720   44.5520 C   0  0  0  0  0  2  0  0  0  0  0  0
   48.1880   31.3720   44.8790 H   0  0  0  0  0  0  0  0  0  0  0  0
  1  6  1  0  0  0  0
  2  3  1  0  0  0  0
  2  1  2  0  0  0  0
  3  4  2  0  0  0  0
  4  5  1  0  0  0  0
  5 15  1  0  0  0  0
  6  5  2  0  0  0  0
  7  1  1  0  0  0  0
  8  3  1  0  0  0  0
  9  2  1  0  0  0  0
 10  9  2  0  0  0  0
 11 14  1  0  0  0  0
 11 10  1  0  0  0  0
 12 11  1  0  0  0  0
 13 11  1  0  0  0  0
 15 16  2  0  0  0  0
 17 18  1  0  0  0  0
 17 16  1  0  0  0  0
M  END
>  <minimizedAffinity>
-3.63749409

>  <minimizedRMSD>
1.41070294

$$$$
