
 OpenBabel03252505063D

 38 40  0  0  1  0  0  0  0  0999 V2000
   44.5760   35.5880   44.6130 C   0  0  0  0  0  0  0  0  0  0  0  0
   45.2350   35.5990   43.3610 C   0  0  0  0  0  0  0  0  0  0  0  0
   46.3200   34.6870   43.1840 C   0  0  0  0  0  0  0  0  0  0  0  0
   46.6650   33.8660   44.2060 N   0  0  0  0  0  0  0  0  0  0  0  0
   46.0080   33.8950   45.3760 C   0  0  0  0  0  0  0  0  0  0  0  0
   44.9620   34.7490   45.5950 N   0  0  0  0  0  0  0  0  0  0  0  0
   43.7540   36.2640   44.7790 H   0  0  0  0  0  0  0  0  0  0  0  0
   44.9230   36.2740   42.5730 H   0  0  0  0  0  0  0  0  0  0  0  0
   46.4350   32.9710   46.4620 C   0  0  2  0  0  0  0  0  0  0  0  0
   46.9660   31.7490   45.7660 C   0  0  0  0  0  0  0  0  0  0  0  0
   46.1040   30.5560   45.7780 C   0  0  0  0  0  0  0  0  0  0  0  0
   45.8100   30.2910   47.2560 C   0  0  0  0  0  0  0  0  0  0  0  0
   45.0150   31.3520   47.8680 C   0  0  0  0  0  0  0  0  0  0  0  0
   45.3790   32.7320   47.4190 C   0  0  0  0  0  0  0  0  0  0  0  0
   47.2750   33.5000   46.9700 H   0  0  0  0  0  0  0  0  0  0  0  0
   47.9270   31.4720   46.2640 H   0  0  0  0  0  0  0  0  0  0  0  0
   47.2650   31.9570   44.7110 H   0  0  0  0  0  0  0  0  0  0  0  0
   46.6810   29.6940   45.4380 H   0  0  0  0  0  0  0  0  0  0  0  0
   45.1870   30.6210   45.1730 H   0  0  0  0  0  0  0  0  0  0  0  0
   46.7530   30.0430   47.7430 H   0  0  0  0  0  0  0  0  0  0  0  0
   45.1480   29.3950   47.2400 H   0  0  0  0  0  0  0  0  0  0  0  0
   44.2230   31.3440   48.5720 H   0  0  0  0  0  0  0  0  0  0  0  0
   44.6810   33.8750   47.9320 N   0  0  0  0  0  0  0  0  0  0  0  0
   43.6670   33.9930   47.7090 H   0  0  0  0  0  0  0  0  0  0  0  0
   45.2400   34.5200   48.4990 H   0  0  0  0  0  0  0  0  0  0  0  0
   47.0130   34.6750   41.9040 C   0  0  0  0  0  0  0  0  0  0  0  0
   48.1560   35.3990   41.7790 C   0  0  0  0  0  0  0  0  0  0  0  0
   48.7870   35.3540   40.5240 C   0  0  0  0  0  0  0  0  0  0  0  0
   48.1850   34.5850   39.5540 C   0  0  0  0  0  0  0  0  0  0  0  0
   47.0380   33.8580   39.6800 C   0  0  0  0  0  0  0  0  0  0  0  0
   46.4660   33.9360   40.9190 N   0  0  0  0  0  0  0  0  0  0  0  0
   48.6100   35.9980   42.5580 H   0  0  0  0  0  0  0  0  0  0  0  0
   49.6980   35.9050   40.3510 H   0  0  0  0  0  0  0  0  0  0  0  0
   48.6940   34.5700   38.5940 H   0  0  0  0  0  0  0  0  0  0  0  0
   46.4220   33.0600   38.6610 C   0  0  0  0  0  3  0  0  0  0  0  0
   47.1370   32.2540   37.8970 C   0  0  0  0  0  3  0  0  0  0  0  0
   46.6060   31.3990   36.8310 C   0  0  0  0  0  2  0  0  0  0  0  0
   45.6920   31.8360   36.3340 H   0  0  0  0  0  0  0  0  0  0  0  0
  1  7  1  0  0  0  0
  1  6  1  0  0  0  0
  2  1  2  0  0  0  0
  3  2  1  0  0  0  0
  3  4  2  0  0  0  0
  4  5  1  0  0  0  0
  5  6  2  0  0  0  0
  5  9  1  0  0  0  0
  8  2  1  0  0  0  0
  9 15  1  1  0  0  0
  9 14  1  0  0  0  0
 10 11  1  0  0  0  0
 10 16  1  0  0  0  0
 10  9  1  0  0  0  0
 11 12  1  0  0  0  0
 12 20  1  0  0  0  0
 12 13  1  0  0  0  0
 13 22  1  0  0  0  0
 14 13  2  0  0  0  0
 14 23  1  0  0  0  0
 17 10  1  0  0  0  0
 18 11  1  0  0  0  0
 19 11  1  0  0  0  0
 21 12  1  0  0  0  0
 23 25  1  0  0  0  0
 24 23  1  0  0  0  0
 26  3  1  0  0  0  0
 27 26  1  0  0  0  0
 27 32  1  0  0  0  0
 28 27  2  0  0  0  0
 29 30  2  0  0  0  0
 29 28  1  0  0  0  0
 30 31  1  0  0  0  0
 31 26  2  0  0  0  0
 33 28  1  0  0  0  0
 34 29  1  0  0  0  0
 35 30  1  0  0  0  0
 36 35  2  0  0  0  0
 37 36  1  0  0  0  0
 38 37  1  0  0  0  0
M  END
>  <minimizedAffinity>
-6.88389874

>  <minimizedRMSD>
0.0338244289

$$$$
