
 OpenBabel03252505563D

 31 32  0  0  0  0  0  0  0  0999 V2000
   45.6370   33.3070   47.3800 O   0  0  0  0  0  0  0  0  0  0  0  0
   44.7600   35.2240   44.5230 C   0  0  0  0  0  0  0  0  0  0  0  0
   45.1930   34.4370   43.4380 C   0  0  0  0  0  0  0  0  0  0  0  0
   45.7970   33.2210   43.7610 C   0  0  0  0  0  0  0  0  0  0  0  0
   45.9300   32.8780   45.0530 N   0  0  0  0  0  0  0  0  0  0  0  0
   45.5030   33.6580   46.0500 C   0  0  0  0  0  0  0  0  0  0  0  0
   44.9210   34.8230   45.7900 N   0  0  0  0  0  0  0  0  0  0  0  0
   44.2830   36.1840   44.2810 H   0  0  0  0  0  0  0  0  0  0  0  0
   44.9910   34.9300   42.0530 C   0  0  0  0  0  0  0  0  0  0  0  0
   44.3360   36.1490   42.2200 F   0  0  0  0  0  0  0  0  0  0  0  0
   44.1170   34.0430   41.4420 F   0  0  0  0  0  0  0  0  0  0  0  0
   46.1780   35.0700   41.4430 F   0  0  0  0  0  0  0  0  0  0  0  0
   46.2540   32.3070   42.7550 C   0  0  0  0  0  3  0  0  0  0  0  0
   47.5400   32.2940   42.3630 C   0  0  0  0  0  3  0  0  0  0  0  0
   48.5630   33.2220   42.9450 C   0  0  0  0  0  2  0  0  0  0  0  0
   48.3440   34.2900   42.7200 H   0  0  0  0  0  0  0  0  0  0  0  0
   45.0390   32.1310   47.8850 C   0  0  0  0  0  0  0  0  0  0  0  0
   44.7820   32.3450   48.9420 H   0  0  0  0  0  0  0  0  0  0  0  0
   44.1000   31.8580   47.3750 H   0  0  0  0  0  0  0  0  0  0  0  0
   46.0630   31.0700   47.8720 C   0  0  0  0  0  0  0  0  0  0  0  0
   46.0500   29.8000   47.3170 C   0  0  0  0  0  0  0  0  0  0  0  0
   47.1540   29.0310   47.4600 C   0  0  0  0  0  0  0  0  0  0  0  0
   48.2410   29.4330   48.1030 N   0  0  0  0  0  0  0  0  0  0  0  0
   48.2530   30.6650   48.6400 C   0  0  0  0  0  0  0  0  0  0  0  0
   47.1730   31.5070   48.5390 N   0  0  0  0  0  0  0  0  0  0  0  0
   45.1300   29.5970   46.8320 H   0  0  0  0  0  0  0  0  0  0  0  0
   47.1060   28.0480   47.0130 H   0  0  0  0  0  0  0  0  0  0  0  0
   49.5100   31.0450   49.3460 C   0  0  0  0  0  0  0  0  0  0  0  0
   49.6730   32.4010   49.3850 F   0  0  0  0  0  0  0  0  0  0  0  0
   50.6070   30.4650   48.6940 F   0  0  0  0  0  0  0  0  0  0  0  0
   49.5150   30.5840   50.6550 F   0  0  0  0  0  0  0  0  0  0  0  0
  1 17  1  0  0  0  0
  2  7  1  0  0  0  0
  3  4  1  0  0  0  0
  3  2  2  0  0  0  0
  4  5  2  0  0  0  0
  5  6  1  0  0  0  0
  6  1  1  0  0  0  0
  7  6  2  0  0  0  0
  8  2  1  0  0  0  0
  9 10  1  0  0  0  0
  9  3  1  0  0  0  0
 11  9  1  0  0  0  0
 12  9  1  0  0  0  0
 13  4  1  0  0  0  0
 14 13  2  0  0  0  0
 14 15  1  0  0  0  0
 16 15  1  0  0  0  0
 17 18  1  0  0  0  0
 19 17  1  0  0  0  0
 20 17  1  0  0  0  0
 20 25  1  0  0  0  0
 21 22  1  0  0  0  0
 21 20  2  0  0  0  0
 22 23  2  0  0  0  0
 23 24  1  0  0  0  0
 24 28  1  0  0  0  0
 25 24  2  0  0  0  0
 26 21  1  0  0  0  0
 27 22  1  0  0  0  0
 28 29  1  0  0  0  0
 28 31  1  0  0  0  0
 30 28  1  0  0  0  0
M  END
>  <minimizedAffinity>
-5.26856232

>  <minimizedRMSD>
1.02025485

$$$$
