
 OpenBabel03242520513D

 17 17  0  0  0  0  0  0  0  0999 V2000
   44.4640   35.9360   44.6980 C   0  0  0  0  0  0  0  0  0  0  0  0
   45.1950   35.9960   43.5070 C   0  0  0  0  0  0  0  0  0  0  0  0
   46.1740   35.0450   43.2660 C   0  0  0  0  0  0  0  0  0  0  0  0
   46.3690   34.0980   44.2130 N   0  0  0  0  0  0  0  0  0  0  0  0
   45.6580   34.0570   45.3480 C   0  0  0  0  0  0  0  0  0  0  0  0
   44.7100   34.9710   45.5900 N   0  0  0  0  0  0  0  0  0  0  0  0
   43.7180   36.7370   44.7810 H   0  0  0  0  0  0  0  0  0  0  0  0
   45.0460   36.7420   42.7550 H   0  0  0  0  0  0  0  0  0  0  0  0
   45.9250   32.9950   46.3340 C   0  0  0  0  0  0  0  0  0  0  0  0
   45.2880   32.9480   47.4730 C   0  0  0  0  0  0  0  0  0  0  0  0
   45.5260   31.8980   48.4930 C   0  0  0  0  0  0  0  0  0  0  0  0
   46.5020   32.0750   49.0260 H   0  0  0  0  0  0  0  0  0  0  0  0
   46.9740   34.9720   42.1450 O   0  0  0  0  0  0  0  0  0  0  0  0
   46.4760   34.2150   41.0410 C   0  0  0  0  0  0  0  0  0  0  0  0
   45.1930   34.6490   40.7360 F   0  0  0  0  0  0  0  0  0  0  0  0
   47.3130   34.4770   39.9480 F   0  0  0  0  0  0  0  0  0  0  0  0
   46.5110   32.8500   41.3050 F   0  0  0  0  0  0  0  0  0  0  0  0
  1  7  1  0  0  0  0
  1  6  1  0  0  0  0
  2  1  2  0  0  0  0
  3  2  1  0  0  0  0
  3  4  2  0  0  0  0
  4  5  1  0  0  0  0
  5  6  2  0  0  0  0
  5  9  1  0  0  0  0
  8  2  1  0  0  0  0
  9 10  2  0  0  0  0
 10 11  1  0  0  0  0
 11 12  1  0  0  0  0
 13  3  1  0  0  0  0
 14 17  1  0  0  0  0
 14 13  1  0  0  0  0
 15 14  1  0  0  0  0
 16 14  1  0  0  0  0
M  END
>  <minimizedAffinity>
-4.45870113

>  <minimizedRMSD>
0.646199703

$$$$
