
 OpenBabel03252505573D

 31 32  0  0  0  0  0  0  0  0999 V2000
   45.5400   33.2040   47.4880 O   0  0  0  0  0  0  0  0  0  0  0  0
   44.7290   35.2880   44.7310 C   0  0  0  0  0  0  0  0  0  0  0  0
   45.1500   34.5490   43.6090 C   0  0  0  0  0  0  0  0  0  0  0  0
   45.7220   33.3040   43.8710 C   0  0  0  0  0  0  0  0  0  0  0  0
   45.8390   32.8910   45.1440 N   0  0  0  0  0  0  0  0  0  0  0  0
   45.4240   33.6270   46.1780 C   0  0  0  0  0  0  0  0  0  0  0  0
   44.8720   34.8180   45.9770 N   0  0  0  0  0  0  0  0  0  0  0  0
   44.2750   36.2710   44.5380 H   0  0  0  0  0  0  0  0  0  0  0  0
   44.9690   35.1190   42.2510 C   0  0  0  0  0  0  0  0  0  0  0  0
   44.4040   36.3720   42.4830 F   0  0  0  0  0  0  0  0  0  0  0  0
   44.0270   34.3250   41.6120 F   0  0  0  0  0  0  0  0  0  0  0  0
   46.1560   35.2030   41.6310 F   0  0  0  0  0  0  0  0  0  0  0  0
   46.1640   32.4330   42.8210 C   0  0  0  0  0  3  0  0  0  0  0  0
   47.4500   32.4160   42.4290 C   0  0  0  0  0  3  0  0  0  0  0  0
   48.4890   33.2950   43.0580 C   0  0  0  0  0  2  0  0  0  0  0  0
   48.2900   34.3760   42.8870 H   0  0  0  0  0  0  0  0  0  0  0  0
   44.9540   31.9910   47.9150 C   0  0  0  0  0  0  0  0  0  0  0  0
   44.6610   32.1460   48.9740 H   0  0  0  0  0  0  0  0  0  0  0  0
   44.0380   31.7250   47.3640 H   0  0  0  0  0  0  0  0  0  0  0  0
   46.0020   30.9540   47.8810 C   0  0  0  0  0  0  0  0  0  0  0  0
   46.0110   29.6900   47.3130 C   0  0  0  0  0  0  0  0  0  0  0  0
   47.1340   28.9450   47.4370 C   0  0  0  0  0  0  0  0  0  0  0  0
   48.2190   29.3650   48.0720 N   0  0  0  0  0  0  0  0  0  0  0  0
   48.2080   30.5910   48.6210 C   0  0  0  0  0  0  0  0  0  0  0  0
   47.1080   31.4090   48.5400 N   0  0  0  0  0  0  0  0  0  0  0  0
   45.0900   29.4700   46.8360 H   0  0  0  0  0  0  0  0  0  0  0  0
   47.1030   27.9650   46.9810 H   0  0  0  0  0  0  0  0  0  0  0  0
   49.4640   30.9920   49.3180 C   0  0  0  0  0  0  0  0  0  0  0  0
   49.6110   32.3500   49.3450 F   0  0  0  0  0  0  0  0  0  0  0  0
   50.5650   30.4190   48.6670 F   0  0  0  0  0  0  0  0  0  0  0  0
   49.4810   30.5430   50.6320 F   0  0  0  0  0  0  0  0  0  0  0  0
  1 17  1  0  0  0  0
  2  7  1  0  0  0  0
  3  4  1  0  0  0  0
  3  2  2  0  0  0  0
  4  5  2  0  0  0  0
  5  6  1  0  0  0  0
  6  1  1  0  0  0  0
  7  6  2  0  0  0  0
  8  2  1  0  0  0  0
  9 10  1  0  0  0  0
  9  3  1  0  0  0  0
 11  9  1  0  0  0  0
 12  9  1  0  0  0  0
 13  4  1  0  0  0  0
 14 13  2  0  0  0  0
 14 15  1  0  0  0  0
 16 15  1  0  0  0  0
 17 18  1  0  0  0  0
 19 17  1  0  0  0  0
 20 17  1  0  0  0  0
 20 25  1  0  0  0  0
 21 22  1  0  0  0  0
 21 20  2  0  0  0  0
 22 23  2  0  0  0  0
 23 24  1  0  0  0  0
 24 28  1  0  0  0  0
 25 24  2  0  0  0  0
 26 21  1  0  0  0  0
 27 22  1  0  0  0  0
 28 29  1  0  0  0  0
 28 31  1  0  0  0  0
 30 28  1  0  0  0  0
M  END
>  <minimizedAffinity>
-5.29719973

>  <minimizedRMSD>
0.966135919

$$$$
