
 OpenBabel03242520523D

 17 17  0  0  0  0  0  0  0  0999 V2000
   39.8540   25.2260   43.3150 C   0  0  0  0  0  0  0  0  0  0  0  0
   39.6090   26.5540   43.6790 C   0  0  0  0  0  0  0  0  0  0  0  0
   38.4010   27.1380   43.3300 C   0  0  0  0  0  0  0  0  0  0  0  0
   37.5140   26.3760   42.6490 N   0  0  0  0  0  0  0  0  0  0  0  0
   37.7680   25.1040   42.3100 C   0  0  0  0  0  0  0  0  0  0  0  0
   38.9320   24.5320   42.6410 N   0  0  0  0  0  0  0  0  0  0  0  0
   40.8400   24.8700   43.6410 H   0  0  0  0  0  0  0  0  0  0  0  0
   40.3060   27.1620   44.2170 H   0  0  0  0  0  0  0  0  0  0  0  0
   36.7540   24.3350   41.5680 C   0  0  0  0  0  3  0  0  0  0  0  0
   36.6570   24.4120   40.2680 C   0  0  0  0  0  3  0  0  0  0  0  0
   35.6520   23.6560   39.4830 C   0  0  0  0  0  2  0  0  0  0  0  0
   34.6290   24.1110   39.6030 H   0  0  0  0  0  0  0  0  0  0  0  0
   38.0140   28.4310   43.6160 O   0  0  0  0  0  0  0  0  0  0  0  0
   38.2530   29.4160   42.6090 C   0  0  0  0  0  0  0  0  0  0  0  0
   37.0470   30.0070   42.2590 F   0  0  0  0  0  0  0  0  0  0  0  0
   39.0870   30.3910   43.1740 F   0  0  0  0  0  0  0  0  0  0  0  0
   38.9000   28.8690   41.5070 F   0  0  0  0  0  0  0  0  0  0  0  0
  1  7  1  0  0  0  0
  1  2  1  0  0  0  0
  2  8  1  0  0  0  0
  3 13  1  0  0  0  0
  3  2  2  0  0  0  0
  4  3  1  0  0  0  0
  5  6  1  0  0  0  0
  5  4  2  0  0  0  0
  6  1  2  0  0  0  0
  9  5  1  0  0  0  0
 10  9  2  0  0  0  0
 11 12  1  0  0  0  0
 11 10  1  0  0  0  0
 14 16  1  0  0  0  0
 14 13  1  0  0  0  0
 15 14  1  0  0  0  0
 17 14  1  0  0  0  0
M  END
>  <minimizedAffinity>
-4.16109133

$$$$

 OpenBabel03242520523D

 17 17  0  0  0  0  0  0  0  0999 V2000
   37.5900   27.9660   43.6350 C   0  0  0  0  0  0  0  0  0  0  0  0
   37.8760   29.2220   43.0880 C   0  0  0  0  0  0  0  0  0  0  0  0
   37.8340   29.3850   41.7120 C   0  0  0  0  0  0  0  0  0  0  0  0
   37.5110   28.3030   40.9650 N   0  0  0  0  0  0  0  0  0  0  0  0
   37.2400   27.1080   41.5080 C   0  0  0  0  0  0  0  0  0  0  0  0
   37.2790   26.9400   42.8360 N   0  0  0  0  0  0  0  0  0  0  0  0
   37.6540   27.9530   44.7300 H   0  0  0  0  0  0  0  0  0  0  0  0
   38.1310   30.0810   43.6720 H   0  0  0  0  0  0  0  0  0  0  0  0
   36.8960   25.9750   40.6330 C   0  0  0  0  0  3  0  0  0  0  0  0
   36.8780   24.7490   41.0820 C   0  0  0  0  0  3  0  0  0  0  0  0
   36.5390   23.5790   40.2350 C   0  0  0  0  0  2  0  0  0  0  0  0
   37.3900   23.3300   39.5410 H   0  0  0  0  0  0  0  0  0  0  0  0
   38.0890   30.5550   41.0280 O   0  0  0  0  0  0  0  0  0  0  0  0
   36.9590   31.3230   40.6120 C   0  0  0  0  0  0  0  0  0  0  0  0
   37.3100   32.6660   40.5790 F   0  0  0  0  0  0  0  0  0  0  0  0
   36.6320   30.9090   39.3130 F   0  0  0  0  0  0  0  0  0  0  0  0
   35.8610   31.0960   41.4350 F   0  0  0  0  0  0  0  0  0  0  0  0
  1  7  1  0  0  0  0
  2  1  1  0  0  0  0
  2  8  1  0  0  0  0
  3  2  2  0  0  0  0
  4  5  2  0  0  0  0
  4  3  1  0  0  0  0
  5  6  1  0  0  0  0
  6  1  2  0  0  0  0
  9 10  2  0  0  0  0
  9  5  1  0  0  0  0
 11 10  1  0  0  0  0
 12 11  1  0  0  0  0
 13  3  1  0  0  0  0
 14 13  1  0  0  0  0
 14 17  1  0  0  0  0
 15 14  1  0  0  0  0
 16 14  1  0  0  0  0
M  END
>  <minimizedAffinity>
-4.13689947

$$$$

 OpenBabel03242520523D

 17 17  0  0  0  0  0  0  0  0999 V2000
   35.5250   29.2340   40.8080 C   0  0  0  0  0  0  0  0  0  0  0  0
   35.9470   30.5080   40.4140 C   0  0  0  0  0  0  0  0  0  0  0  0
   37.1240   31.0220   40.9370 C   0  0  0  0  0  0  0  0  0  0  0  0
   37.8080   30.2480   41.8110 N   0  0  0  0  0  0  0  0  0  0  0  0
   37.3860   29.0290   42.1760 C   0  0  0  0  0  0  0  0  0  0  0  0
   36.2510   28.5240   41.6770 N   0  0  0  0  0  0  0  0  0  0  0  0
   34.5830   28.9310   40.3330 H   0  0  0  0  0  0  0  0  0  0  0  0
   35.4110   31.1250   39.7230 H   0  0  0  0  0  0  0  0  0  0  0  0
   38.1830   28.2420   43.1330 C   0  0  0  0  0  3  0  0  0  0  0  0
   38.8790   27.2060   42.7500 C   0  0  0  0  0  3  0  0  0  0  0  0
   39.6940   26.3860   43.6800 C   0  0  0  0  0  2  0  0  0  0  0  0
   39.0350   25.7300   44.3140 H   0  0  0  0  0  0  0  0  0  0  0  0
   37.6680   32.2560   40.6470 O   0  0  0  0  0  0  0  0  0  0  0  0
   38.1550   32.4530   39.3180 C   0  0  0  0  0  0  0  0  0  0  0  0
   39.1480   33.4230   39.3390 F   0  0  0  0  0  0  0  0  0  0  0  0
   38.7160   31.2390   38.8990 F   0  0  0  0  0  0  0  0  0  0  0  0
   37.1250   32.7860   38.4450 F   0  0  0  0  0  0  0  0  0  0  0  0
  1  6  1  0  0  0  0
  2  1  2  0  0  0  0
  2  3  1  0  0  0  0
  3  4  2  0  0  0  0
  4  5  1  0  0  0  0
  5  9  1  0  0  0  0
  6  5  2  0  0  0  0
  7  1  1  0  0  0  0
  8  2  1  0  0  0  0
 10  9  2  0  0  0  0
 10 11  1  0  0  0  0
 11 12  1  0  0  0  0
 13  3  1  0  0  0  0
 14 15  1  0  0  0  0
 14 13  1  0  0  0  0
 16 14  1  0  0  0  0
 17 14  1  0  0  0  0
M  END
>  <minimizedAffinity>
-4.07029486

$$$$

 OpenBabel03242520523D

 17 17  0  0  0  0  0  0  0  0999 V2000
   39.2280   29.9420   42.6630 C   0  0  0  0  0  0  0  0  0  0  0  0
   38.5840   30.8460   41.8120 C   0  0  0  0  0  0  0  0  0  0  0  0
   37.3960   30.4720   41.2040 C   0  0  0  0  0  0  0  0  0  0  0  0
   36.9200   29.2350   41.4740 N   0  0  0  0  0  0  0  0  0  0  0  0
   37.5520   28.3830   42.2940 C   0  0  0  0  0  0  0  0  0  0  0  0
   38.7000   28.7340   42.8860 N   0  0  0  0  0  0  0  0  0  0  0  0
   40.1580   30.3430   43.0870 H   0  0  0  0  0  0  0  0  0  0  0  0
   38.9550   31.8250   41.5940 H   0  0  0  0  0  0  0  0  0  0  0  0
   36.9730   27.0510   42.5420 C   0  0  0  0  0  3  0  0  0  0  0  0
   37.3530   26.0060   41.8580 C   0  0  0  0  0  3  0  0  0  0  0  0
   36.7970   24.6480   42.0750 C   0  0  0  0  0  2  0  0  0  0  0  0
   35.7580   24.5700   41.6480 H   0  0  0  0  0  0  0  0  0  0  0  0
   36.6480   31.2490   40.3440 O   0  0  0  0  0  0  0  0  0  0  0  0
   36.9080   31.1040   38.9470 C   0  0  0  0  0  0  0  0  0  0  0  0
   36.9820   32.3620   38.3670 F   0  0  0  0  0  0  0  0  0  0  0  0
   38.1540   30.4740   38.8210 F   0  0  0  0  0  0  0  0  0  0  0  0
   35.9490   30.3060   38.3320 F   0  0  0  0  0  0  0  0  0  0  0  0
  1  6  1  0  0  0  0
  1  7  1  0  0  0  0
  2  1  2  0  0  0  0
  3  4  2  0  0  0  0
  3  2  1  0  0  0  0
  4  5  1  0  0  0  0
  5  9  1  0  0  0  0
  5  6  2  0  0  0  0
  8  2  1  0  0  0  0
 10 11  1  0  0  0  0
 10  9  2  0  0  0  0
 12 11  1  0  0  0  0
 13  3  1  0  0  0  0
 14 13  1  0  0  0  0
 15 14  1  0  0  0  0
 16 14  1  0  0  0  0
 17 14  1  0  0  0  0
M  END
>  <minimizedAffinity>
-4.01838255

$$$$

 OpenBabel03242520523D

 17 17  0  0  0  0  0  0  0  0999 V2000
   39.4710   28.5250   43.0300 C   0  0  0  0  0  0  0  0  0  0  0  0
   38.8250   27.2920   43.1680 C   0  0  0  0  0  0  0  0  0  0  0  0
   37.5550   27.1320   42.6370 C   0  0  0  0  0  0  0  0  0  0  0  0
   37.0050   28.1950   42.0050 N   0  0  0  0  0  0  0  0  0  0  0  0
   37.6410   29.3690   41.8830 C   0  0  0  0  0  0  0  0  0  0  0  0
   38.8680   29.5340   42.3920 N   0  0  0  0  0  0  0  0  0  0  0  0
   40.4690   28.5370   43.4880 H   0  0  0  0  0  0  0  0  0  0  0  0
   39.2540   26.4480   43.6660 H   0  0  0  0  0  0  0  0  0  0  0  0
   36.9800   30.4830   41.1800 C   0  0  0  0  0  3  0  0  0  0  0  0
   37.6650   31.3590   40.4980 C   0  0  0  0  0  3  0  0  0  0  0  0
   37.0410   32.4950   39.7770 C   0  0  0  0  0  2  0  0  0  0  0  0
   36.7110   33.2920   40.5010 H   0  0  0  0  0  0  0  0  0  0  0  0
   36.7930   25.9840   42.6910 O   0  0  0  0  0  0  0  0  0  0  0  0
   37.2450   24.8690   41.9210 C   0  0  0  0  0  0  0  0  0  0  0  0
   38.1000   24.0980   42.6960 F   0  0  0  0  0  0  0  0  0  0  0  0
   36.1150   24.1050   41.5980 F   0  0  0  0  0  0  0  0  0  0  0  0
   37.8490   25.2820   40.7380 F   0  0  0  0  0  0  0  0  0  0  0  0
  1  2  1  0  0  0  0
  1  7  1  0  0  0  0
  2  8  1  0  0  0  0
  3 13  1  0  0  0  0
  3  2  2  0  0  0  0
  4  3  1  0  0  0  0
  5  4  2  0  0  0  0
  5  6  1  0  0  0  0
  6  1  2  0  0  0  0
  9  5  1  0  0  0  0
 10  9  2  0  0  0  0
 11 10  1  0  0  0  0
 11 12  1  0  0  0  0
 14 13  1  0  0  0  0
 14 15  1  0  0  0  0
 16 14  1  0  0  0  0
 17 14  1  0  0  0  0
M  END
>  <minimizedAffinity>
-3.99803233

$$$$

 OpenBabel03242520523D

 17 17  0  0  0  0  0  0  0  0999 V2000
   38.0730   28.8010   43.3520 C   0  0  0  0  0  0  0  0  0  0  0  0
   38.2880   27.4220   43.4410 C   0  0  0  0  0  0  0  0  0  0  0  0
   37.6360   26.5780   42.5550 C   0  0  0  0  0  0  0  0  0  0  0  0
   36.8180   27.1470   41.6390 N   0  0  0  0  0  0  0  0  0  0  0  0
   36.6260   28.4710   41.5690 C   0  0  0  0  0  0  0  0  0  0  0  0
   37.2500   29.2950   42.4210 N   0  0  0  0  0  0  0  0  0  0  0  0
   38.6380   29.3700   44.1010 H   0  0  0  0  0  0  0  0  0  0  0  0
   38.9330   26.9660   44.1620 H   0  0  0  0  0  0  0  0  0  0  0  0
   35.7210   29.0200   40.5450 C   0  0  0  0  0  3  0  0  0  0  0  0
   35.5120   28.3980   39.4170 C   0  0  0  0  0  3  0  0  0  0  0  0
   34.6100   28.9150   38.3590 C   0  0  0  0  0  2  0  0  0  0  0  0
   35.0880   29.7770   37.8150 H   0  0  0  0  0  0  0  0  0  0  0  0
   37.7450   25.2030   42.5180 O   0  0  0  0  0  0  0  0  0  0  0  0
   39.0150   24.6630   42.1490 C   0  0  0  0  0  0  0  0  0  0  0  0
   39.7430   24.3910   43.2990 F   0  0  0  0  0  0  0  0  0  0  0  0
   38.7720   23.4590   41.4730 F   0  0  0  0  0  0  0  0  0  0  0  0
   39.7000   25.5170   41.2930 F   0  0  0  0  0  0  0  0  0  0  0  0
  1  2  1  0  0  0  0
  1  7  1  0  0  0  0
  2  8  1  0  0  0  0
  3  2  2  0  0  0  0
  4  3  1  0  0  0  0
  5  4  2  0  0  0  0
  5  6  1  0  0  0  0
  6  1  2  0  0  0  0
  9  5  1  0  0  0  0
 10  9  2  0  0  0  0
 11 10  1  0  0  0  0
 12 11  1  0  0  0  0
 13  3  1  0  0  0  0
 14 13  1  0  0  0  0
 14 15  1  0  0  0  0
 16 14  1  0  0  0  0
 17 14  1  0  0  0  0
M  END
>  <minimizedAffinity>
-3.9968183

$$$$

 OpenBabel03242520523D

 17 17  0  0  0  0  0  0  0  0999 V2000
   35.5870   28.1600   38.5440 C   0  0  0  0  0  0  0  0  0  0  0  0
   36.2500   27.4510   39.5510 C   0  0  0  0  0  0  0  0  0  0  0  0
   37.1430   28.1210   40.3730 C   0  0  0  0  0  0  0  0  0  0  0  0
   37.3240   29.4430   40.1490 N   0  0  0  0  0  0  0  0  0  0  0  0
   36.6790   30.1050   39.1790 C   0  0  0  0  0  0  0  0  0  0  0  0
   35.8150   29.4670   38.3790 N   0  0  0  0  0  0  0  0  0  0  0  0
   34.9070   27.5300   37.9560 H   0  0  0  0  0  0  0  0  0  0  0  0
   36.1110   26.4060   39.7330 H   0  0  0  0  0  0  0  0  0  0  0  0
   36.9270   31.5450   38.9940 C   0  0  0  0  0  3  0  0  0  0  0  0
   37.3590   32.2930   39.9730 C   0  0  0  0  0  3  0  0  0  0  0  0
   37.6200   33.7460   39.8310 C   0  0  0  0  0  2  0  0  0  0  0  0
   36.6540   34.3220   39.7950 H   0  0  0  0  0  0  0  0  0  0  0  0
   37.8690   27.5630   41.4050 O   0  0  0  0  0  0  0  0  0  0  0  0
   37.1480   27.2020   42.5830 C   0  0  0  0  0  0  0  0  0  0  0  0
   36.9230   25.8320   42.5760 F   0  0  0  0  0  0  0  0  0  0  0  0
   37.9620   27.5200   43.6800 F   0  0  0  0  0  0  0  0  0  0  0  0
   35.9630   27.9210   42.6930 F   0  0  0  0  0  0  0  0  0  0  0  0
  1  2  1  0  0  0  0
  2  8  1  0  0  0  0
  2  3  2  0  0  0  0
  3 13  1  0  0  0  0
  4  3  1  0  0  0  0
  5  4  2  0  0  0  0
  6  1  2  0  0  0  0
  6  5  1  0  0  0  0
  7  1  1  0  0  0  0
  9  5  1  0  0  0  0
  9 10  2  0  0  0  0
 11 10  1  0  0  0  0
 12 11  1  0  0  0  0
 13 14  1  0  0  0  0
 14 17  1  0  0  0  0
 14 16  1  0  0  0  0
 15 14  1  0  0  0  0
M  END
>  <minimizedAffinity>
-3.92796493

$$$$

 OpenBabel03242520523D

 17 17  0  0  0  0  0  0  0  0999 V2000
   36.3210   29.8120   41.0400 C   0  0  0  0  0  0  0  0  0  0  0  0
   36.0300   28.5220   41.4960 C   0  0  0  0  0  0  0  0  0  0  0  0
   36.9240   27.8880   42.3460 C   0  0  0  0  0  0  0  0  0  0  0  0
   38.0430   28.5670   42.6920 N   0  0  0  0  0  0  0  0  0  0  0  0
   38.3030   29.8030   42.2450 C   0  0  0  0  0  0  0  0  0  0  0  0
   37.4470   30.4230   41.4230 N   0  0  0  0  0  0  0  0  0  0  0  0
   35.5460   30.2130   40.3750 H   0  0  0  0  0  0  0  0  0  0  0  0
   35.1480   27.9800   41.2260 H   0  0  0  0  0  0  0  0  0  0  0  0
   39.5420   30.4810   42.6640 C   0  0  0  0  0  3  0  0  0  0  0  0
   40.7110   29.9250   42.5000 C   0  0  0  0  0  3  0  0  0  0  0  0
   41.9820   30.5710   42.9080 C   0  0  0  0  0  2  0  0  0  0  0  0
   42.1050   30.5370   44.0260 H   0  0  0  0  0  0  0  0  0  0  0  0
   36.7790   26.6230   42.8770 O   0  0  0  0  0  0  0  0  0  0  0  0
   37.4030   25.5490   42.1730 C   0  0  0  0  0  0  0  0  0  0  0  0
   38.5570   25.1740   42.8480 F   0  0  0  0  0  0  0  0  0  0  0  0
   36.5050   24.4720   42.1800 F   0  0  0  0  0  0  0  0  0  0  0  0
   37.6650   25.8930   40.8510 F   0  0  0  0  0  0  0  0  0  0  0  0
  1  6  2  0  0  0  0
  1  2  1  0  0  0  0
  2  3  2  0  0  0  0
  3  4  1  0  0  0  0
  3 13  1  0  0  0  0
  5  9  1  0  0  0  0
  5  4  2  0  0  0  0
  6  5  1  0  0  0  0
  7  1  1  0  0  0  0
  8  2  1  0  0  0  0
 10  9  2  0  0  0  0
 10 11  1  0  0  0  0
 11 12  1  0  0  0  0
 14 16  1  0  0  0  0
 14 15  1  0  0  0  0
 14 13  1  0  0  0  0
 17 14  1  0  0  0  0
M  END
>  <minimizedAffinity>
-3.92604303

$$$$

 OpenBabel03242520523D

 17 17  0  0  0  0  0  0  0  0999 V2000
   37.1060   28.8980   41.9530 C   0  0  0  0  0  0  0  0  0  0  0  0
   37.6710   30.1720   41.8320 C   0  0  0  0  0  0  0  0  0  0  0  0
   37.1240   31.0700   40.9280 C   0  0  0  0  0  0  0  0  0  0  0  0
   36.0580   30.6550   40.2040 N   0  0  0  0  0  0  0  0  0  0  0  0
   35.5320   29.4300   40.3350 C   0  0  0  0  0  0  0  0  0  0  0  0
   36.0530   28.5550   41.2050 N   0  0  0  0  0  0  0  0  0  0  0  0
   37.6190   28.2730   42.6960 H   0  0  0  0  0  0  0  0  0  0  0  0
   38.5120   30.5060   42.4010 H   0  0  0  0  0  0  0  0  0  0  0  0
   34.3710   29.0470   39.5130 C   0  0  0  0  0  3  0  0  0  0  0  0
   34.4450   28.9970   38.2110 C   0  0  0  0  0  3  0  0  0  0  0  0
   33.3010   28.6180   37.3460 C   0  0  0  0  0  2  0  0  0  0  0  0
   32.5520   29.4560   37.2880 H   0  0  0  0  0  0  0  0  0  0  0  0
   37.5670   32.3560   40.6960 O   0  0  0  0  0  0  0  0  0  0  0  0
   38.1170   32.6290   39.4070 C   0  0  0  0  0  0  0  0  0  0  0  0
   37.0950   33.0180   38.5510 F   0  0  0  0  0  0  0  0  0  0  0  0
   39.0110   33.6980   39.5570 F   0  0  0  0  0  0  0  0  0  0  0  0
   38.8180   31.5360   38.9120 F   0  0  0  0  0  0  0  0  0  0  0  0
  1  7  1  0  0  0  0
  2  1  1  0  0  0  0
  2  8  1  0  0  0  0
  3  2  2  0  0  0  0
  4  5  2  0  0  0  0
  4  3  1  0  0  0  0
  5  6  1  0  0  0  0
  6  1  2  0  0  0  0
  9  5  1  0  0  0  0
 10  9  2  0  0  0  0
 11 10  1  0  0  0  0
 12 11  1  0  0  0  0
 13  3  1  0  0  0  0
 14 16  1  0  0  0  0
 14 13  1  0  0  0  0
 15 14  1  0  0  0  0
 17 14  1  0  0  0  0
M  END
>  <minimizedAffinity>
-3.82363462

$$$$
