
 OpenBabel03252503093D

 22 23  0  0  0  0  0  0  0  0999 V2000
   45.0480   36.1260   43.5250 C   0  0  0  0  0  0  0  0  0  0  0  0
   45.7010   34.9500   43.1030 C   0  0  0  0  0  0  0  0  0  0  0  0
   45.7800   33.9470   44.0610 C   0  0  0  0  0  0  0  0  0  0  0  0
   45.2690   34.0880   45.3030 N   0  0  0  0  0  0  0  0  0  0  0  0
   44.6470   35.2490   45.6610 C   0  0  0  0  0  0  0  0  0  0  0  0
   44.5410   36.2600   44.7670 N   0  0  0  0  0  0  0  0  0  0  0  0
   44.9340   36.9650   42.8590 H   0  0  0  0  0  0  0  0  0  0  0  0
   44.2550   35.3280   46.6500 H   0  0  0  0  0  0  0  0  0  0  0  0
   46.4070   32.7490   43.7270 C   0  0  0  0  0  0  0  0  0  0  0  0
   47.7070   32.2940   43.7700 C   0  0  0  0  0  0  0  0  0  0  0  0
   48.0690   31.0820   43.3800 C   0  0  0  0  0  0  0  0  0  0  0  0
   47.0620   30.2620   42.9140 C   0  0  0  0  0  0  0  0  0  0  0  0
   45.5510   31.3260   43.0640 S   0  0  0  0  0  0  0  0  0  0  0  0
   48.5860   32.8010   44.1390 H   0  0  0  0  0  0  0  0  0  0  0  0
   48.9450   30.4940   43.3030 H   0  0  0  0  0  0  0  0  0  0  0  0
   46.8590   29.2890   42.5220 H   0  0  0  0  0  0  0  0  0  0  0  0
   46.2060   34.8480   41.7860 C   0  0  0  0  0  0  0  0  0  0  0  0
   47.4660   35.0300   41.6750 O   0  0  0  0  0  0  0  0  0  0  0  0
   44.9640   34.5530   41.0190 C   0  0  0  0  0  3  0  0  0  0  0  0
   44.4050   33.6780   40.2120 C   0  0  0  0  0  3  0  0  0  0  0  0
   43.0300   34.0020   39.7660 C   0  0  0  0  0  2  0  0  0  0  0  0
   42.2960   33.2270   40.0900 H   0  0  0  0  0  0  0  0  0  0  0  0
  1  6  1  0  0  0  0
  2  1  2  0  0  0  0
  2  3  1  0  0  0  0
  3  4  2  0  0  0  0
  4  5  1  0  0  0  0
  5  8  1  0  0  0  0
  6  5  2  0  0  0  0
  7  1  1  0  0  0  0
  9 10  2  0  0  0  0
  9  3  1  0  0  0  0
 10 14  1  0  0  0  0
 11 10  1  0  0  0  0
 12 13  1  0  0  0  0
 12 11  2  0  0  0  0
 13  9  1  0  0  0  0
 15 11  1  0  0  0  0
 16 12  1  0  0  0  0
 17  2  1  0  0  0  0
 18 17  2  0  0  0  0
 19 17  1  0  0  0  0
 20 19  2  0  0  0  0
 21 22  1  0  0  0  0
 21 20  1  0  0  0  0
M  END
>  <minimizedAffinity>
-3.96679354

>  <minimizedRMSD>
1.27948999

$$$$
