
 OpenBabel03242510293D

 29 30  0  0  1  0  0  0  0  0999 V2000
   47.7050   33.6980   40.4810 C   0  0  1  0  0  0  0  0  0  0  0  0
   48.3120   34.9350   41.0740 C   0  0  0  0  0  0  0  0  0  0  0  0
   47.8000   34.9550   42.5160 C   0  0  0  0  0  0  0  0  0  0  0  0
   46.3290   35.3410   42.4150 C   0  0  0  0  0  0  0  0  0  0  0  0
   45.5470   34.3830   41.5910 C   0  0  0  0  0  0  0  0  0  0  0  0
   46.1990   33.8450   40.3780 C   0  0  2  0  0  0  0  0  0  0  0  0
   47.8970   32.8590   41.1740 H   0  0  0  0  0  0  0  0  0  0  0  0
   49.3990   34.9430   40.9990 H   0  0  0  0  0  0  0  0  0  0  0  0
   47.8790   35.8670   40.6100 H   0  0  0  0  0  0  0  0  0  0  0  0
   48.3340   35.6560   43.1520 H   0  0  0  0  0  0  0  0  0  0  0  0
   47.8050   33.8990   42.9030 H   0  0  0  0  0  0  0  0  0  0  0  0
   46.3100   36.3450   41.9110 H   0  0  0  0  0  0  0  0  0  0  0  0
   45.9120   35.3770   43.4280 H   0  0  0  0  0  0  0  0  0  0  0  0
   45.1960   33.5630   42.2520 H   0  0  0  0  0  0  0  0  0  0  0  0
   44.6220   34.9170   41.2690 H   0  0  0  0  0  0  0  0  0  0  0  0
   46.0000   34.4260   39.4570 H   0  0  0  0  0  0  0  0  0  0  0  0
   48.5940   33.7480   36.7980 C   0  0  0  0  0  0  0  0  0  0  0  0
   48.0280   34.1770   38.0060 C   0  0  0  0  0  0  0  0  0  0  0  0
   48.2430   33.3780   39.1460 C   0  0  0  0  0  0  0  0  0  0  0  0
   48.9870   32.2550   38.9710 N   0  0  0  0  0  0  0  0  0  0  0  0
   49.5160   31.8700   37.8080 C   0  0  0  0  0  0  0  0  0  0  0  0
   49.3230   32.6130   36.7160 N   0  0  0  0  0  0  0  0  0  0  0  0
   48.4210   34.3680   35.9380 H   0  0  0  0  0  0  0  0  0  0  0  0
   47.4470   35.0590   38.1270 H   0  0  0  0  0  0  0  0  0  0  0  0
   50.0830   30.9430   37.8530 H   0  0  0  0  0  0  0  0  0  0  0  0
   45.6630   32.4730   40.1500 C   0  0  0  0  0  3  0  0  0  0  0  0
   44.8110   32.1150   39.1990 C   0  0  0  0  0  3  0  0  0  0  0  0
   44.3400   33.1550   38.2710 C   0  0  0  0  0  2  0  0  0  0  0  0
   43.4970   32.7030   37.6820 H   0  0  0  0  0  0  0  0  0  0  0  0
  1  2  1  0  0  0  0
  1  7  1  1  0  0  0
  2  3  1  0  0  0  0
  3 11  1  0  0  0  0
  3 10  1  0  0  0  0
  4  3  1  0  0  0  0
  4 13  1  0  0  0  0
  5 14  1  0  0  0  0
  5  4  1  0  0  0  0
  6 16  1  6  0  0  0
  6  1  1  0  0  0  0
  6  5  1  0  0  0  0
  8  2  1  0  0  0  0
  9  2  1  0  0  0  0
 12  4  1  0  0  0  0
 15  5  1  0  0  0  0
 17 18  1  0  0  0  0
 18 24  1  0  0  0  0
 18 19  2  0  0  0  0
 19  1  1  0  0  0  0
 20 19  1  0  0  0  0
 21 25  1  0  0  0  0
 21 20  2  0  0  0  0
 22 17  2  0  0  0  0
 22 21  1  0  0  0  0
 23 17  1  0  0  0  0
 26  6  1  0  0  0  0
 27 26  2  0  0  0  0
 28 27  1  0  0  0  0
 29 28  1  0  0  0  0
M  END
>  <minimizedAffinity>
-3.8226862

>  <minimizedRMSD>
6.26877499

$$$$
