
 OpenBabel03252503093D

 22 23  0  0  0  0  0  0  0  0999 V2000
   44.8930   36.0110   43.4250 C   0  0  0  0  0  0  0  0  0  0  0  0
   45.5190   34.8180   43.0100 C   0  0  0  0  0  0  0  0  0  0  0  0
   45.7070   33.8750   44.0130 C   0  0  0  0  0  0  0  0  0  0  0  0
   45.3170   34.0860   45.2890 N   0  0  0  0  0  0  0  0  0  0  0  0
   44.7150   35.2600   45.6380 C   0  0  0  0  0  0  0  0  0  0  0  0
   44.5080   36.2140   44.7010 N   0  0  0  0  0  0  0  0  0  0  0  0
   44.7010   36.8070   42.7250 H   0  0  0  0  0  0  0  0  0  0  0  0
   44.4210   35.3940   46.6540 H   0  0  0  0  0  0  0  0  0  0  0  0
   46.3170   32.6650   43.6910 C   0  0  0  0  0  0  0  0  0  0  0  0
   47.6200   32.2190   43.6560 C   0  0  0  0  0  0  0  0  0  0  0  0
   47.9610   30.9900   43.2970 C   0  0  0  0  0  0  0  0  0  0  0  0
   46.9280   30.1440   42.9510 C   0  0  0  0  0  0  0  0  0  0  0  0
   45.4250   31.2070   43.1650 S   0  0  0  0  0  0  0  0  0  0  0  0
   48.5200   32.7470   43.9300 H   0  0  0  0  0  0  0  0  0  0  0  0
   48.8330   30.4040   43.1820 H   0  0  0  0  0  0  0  0  0  0  0  0
   46.7040   29.1530   42.6220 H   0  0  0  0  0  0  0  0  0  0  0  0
   45.8950   34.6410   41.6580 C   0  0  0  0  0  0  0  0  0  0  0  0
   47.1330   34.8420   41.4110 O   0  0  0  0  0  0  0  0  0  0  0  0
   44.5920   34.2730   41.0390 C   0  0  0  0  0  3  0  0  0  0  0  0
   43.5400   34.7670   40.4230 C   0  0  0  0  0  3  0  0  0  0  0  0
   42.5030   33.7840   40.0320 C   0  0  0  0  0  2  0  0  0  0  0  0
   42.3530   33.7580   38.9270 H   0  0  0  0  0  0  0  0  0  0  0  0
  1  6  1  0  0  0  0
  2  1  2  0  0  0  0
  2  3  1  0  0  0  0
  3  4  2  0  0  0  0
  4  5  1  0  0  0  0
  5  8  1  0  0  0  0
  6  5  2  0  0  0  0
  7  1  1  0  0  0  0
  9  3  1  0  0  0  0
 10  9  2  0  0  0  0
 10 14  1  0  0  0  0
 11 10  1  0  0  0  0
 12 13  1  0  0  0  0
 12 11  2  0  0  0  0
 13  9  1  0  0  0  0
 15 11  1  0  0  0  0
 16 12  1  0  0  0  0
 17  2  1  0  0  0  0
 18 17  2  0  0  0  0
 19 17  1  0  0  0  0
 20 19  2  0  0  0  0
 21 20  1  0  0  0  0
 22 21  1  0  0  0  0
M  END
>  <minimizedAffinity>
-3.99176407

>  <minimizedRMSD>
1.36957419

$$$$
