
 OpenBabel03252508223D

 29 30  0  0  0  0  0  0  0  0999 V2000
   36.9460   27.3520   42.8900 C   0  0  0  0  0  0  0  0  0  0  0  0
   36.4250   27.2100   43.8830 H   0  0  0  0  0  0  0  0  0  0  0  0
   36.2280   27.0370   42.1300 H   0  0  0  0  0  0  0  0  0  0  0  0
   38.1750   26.5550   42.9870 C   0  0  0  0  0  0  0  0  0  0  0  0
   39.3380   26.9880   43.5660 C   0  0  0  0  0  0  0  0  0  0  0  0
   40.5210   26.2680   43.6800 C   0  0  0  0  0  0  0  0  0  0  0  0
   40.4620   24.9820   43.1320 C   0  0  0  0  0  0  0  0  0  0  0  0
   39.3050   24.5150   42.5410 C   0  0  0  0  0  0  0  0  0  0  0  0
   38.1710   25.2700   42.4590 C   0  0  0  0  0  0  0  0  0  0  0  0
   39.3670   27.9870   43.9860 H   0  0  0  0  0  0  0  0  0  0  0  0
   41.4040   26.6340   44.1350 H   0  0  0  0  0  0  0  0  0  0  0  0
   41.3730   24.3830   43.2000 H   0  0  0  0  0  0  0  0  0  0  0  0
   39.3950   23.5030   42.1560 H   0  0  0  0  0  0  0  0  0  0  0  0
   36.9770   24.7250   41.8230 C   0  0  0  0  0  3  0  0  0  0  0  0
   36.9190   24.2620   40.5860 C   0  0  0  0  0  3  0  0  0  0  0  0
   35.6740   23.7170   39.9870 C   0  0  0  0  0  2  0  0  0  0  0  0
   35.2740   24.4380   39.2380 H   0  0  0  0  0  0  0  0  0  0  0  0
   37.2530   28.8470   42.8350 C   0  0  0  0  0  0  0  0  0  0  0  0
   36.5630   29.3060   43.5750 H   0  0  0  0  0  0  0  0  0  0  0  0
   38.3040   29.0360   43.0620 H   0  0  0  0  0  0  0  0  0  0  0  0
   35.8280   28.9880   39.3490 C   0  0  0  0  0  0  0  0  0  0  0  0
   36.1990   28.4800   40.6190 C   0  0  0  0  0  0  0  0  0  0  0  0
   36.8540   29.3450   41.5080 C   0  0  0  0  0  0  0  0  0  0  0  0
   37.0920   30.6340   41.0800 N   0  0  0  0  0  0  0  0  0  0  0  0
   36.7210   31.0560   39.8760 C   0  0  0  0  0  0  0  0  0  0  0  0
   36.0880   30.2500   38.9950 N   0  0  0  0  0  0  0  0  0  0  0  0
   35.3250   28.2680   38.7090 H   0  0  0  0  0  0  0  0  0  0  0  0
   35.9700   27.4430   40.8710 H   0  0  0  0  0  0  0  0  0  0  0  0
   36.9610   32.0890   39.6520 H   0  0  0  0  0  0  0  0  0  0  0  0
  1  4  1  0  0  0  0
  1  2  1  0  0  0  0
  3  1  1  0  0  0  0
  4  5  1  0  0  0  0
  5  6  2  0  0  0  0
  5 10  1  0  0  0  0
  6 11  1  0  0  0  0
  7 12  1  0  0  0  0
  7  6  1  0  0  0  0
  8  7  2  0  0  0  0
  9  8  1  0  0  0  0
  9  4  2  0  0  0  0
 13  8  1  0  0  0  0
 14  9  1  0  0  0  0
 15 14  2  0  0  0  0
 16 15  1  0  0  0  0
 17 16  1  0  0  0  0
 18  1  1  0  0  0  0
 18 20  1  0  0  0  0
 18 19  1  0  0  0  0
 21 22  1  0  0  0  0
 22 28  1  0  0  0  0
 22 23  2  0  0  0  0
 23 18  1  0  0  0  0
 24 23  1  0  0  0  0
 25 24  2  0  0  0  0
 26 21  2  0  0  0  0
 26 25  1  0  0  0  0
 27 21  1  0  0  0  0
 29 25  1  0  0  0  0
M  END
>  <minimizedAffinity>
-4.92617178

$$$$

 OpenBabel03252508223D

 29 30  0  0  0  0  0  0  0  0999 V2000
   35.8970   28.2080   40.2290 C   0  0  0  0  0  0  0  0  0  0  0  0
   34.9390   27.6540   40.4560 H   0  0  0  0  0  0  0  0  0  0  0  0
   36.2800   27.7740   39.3030 H   0  0  0  0  0  0  0  0  0  0  0  0
   36.7340   28.0270   41.4210 C   0  0  0  0  0  0  0  0  0  0  0  0
   37.0080   29.0100   42.3350 C   0  0  0  0  0  0  0  0  0  0  0  0
   37.7920   28.8810   43.4740 C   0  0  0  0  0  0  0  0  0  0  0  0
   38.3310   27.6030   43.6570 C   0  0  0  0  0  0  0  0  0  0  0  0
   38.0760   26.5900   42.7540 C   0  0  0  0  0  0  0  0  0  0  0  0
   37.2950   26.7770   41.6490 C   0  0  0  0  0  0  0  0  0  0  0  0
   36.5830   29.9940   42.1790 H   0  0  0  0  0  0  0  0  0  0  0  0
   37.9830   29.6640   44.1620 H   0  0  0  0  0  0  0  0  0  0  0  0
   38.9550   27.4610   44.5410 H   0  0  0  0  0  0  0  0  0  0  0  0
   38.5540   25.6500   43.0120 H   0  0  0  0  0  0  0  0  0  0  0  0
   37.0580   25.6700   40.7290 C   0  0  0  0  0  3  0  0  0  0  0  0
   36.6590   24.4600   41.0830 C   0  0  0  0  0  3  0  0  0  0  0  0
   36.4330   23.3680   40.1020 C   0  0  0  0  0  2  0  0  0  0  0  0
   37.2500   22.6150   40.1890 H   0  0  0  0  0  0  0  0  0  0  0  0
   35.4630   29.6630   40.0680 C   0  0  0  0  0  0  0  0  0  0  0  0
   34.4220   29.6080   39.6820 H   0  0  0  0  0  0  0  0  0  0  0  0
   35.5340   30.1970   41.0170 H   0  0  0  0  0  0  0  0  0  0  0  0
   37.7710   32.0110   38.2330 C   0  0  0  0  0  0  0  0  0  0  0  0
   36.9900   31.4510   39.2750 C   0  0  0  0  0  0  0  0  0  0  0  0
   36.2830   30.2690   39.0060 C   0  0  0  0  0  0  0  0  0  0  0  0
   36.4000   29.7340   37.7400 N   0  0  0  0  0  0  0  0  0  0  0  0
   37.1490   30.3030   36.8010 C   0  0  0  0  0  0  0  0  0  0  0  0
   37.8420   31.4410   37.0260 N   0  0  0  0  0  0  0  0  0  0  0  0
   38.2920   32.9240   38.5070 H   0  0  0  0  0  0  0  0  0  0  0  0
   36.9570   31.9450   40.2470 H   0  0  0  0  0  0  0  0  0  0  0  0
   37.1630   29.7910   35.8460 H   0  0  0  0  0  0  0  0  0  0  0  0
  1  2  1  0  0  0  0
  1  4  1  0  0  0  0
  3  1  1  0  0  0  0
  4  9  2  0  0  0  0
  4  5  1  0  0  0  0
  5  6  2  0  0  0  0
  6  7  1  0  0  0  0
  6 11  1  0  0  0  0
  7 12  1  0  0  0  0
  8 13  1  0  0  0  0
  8  7  2  0  0  0  0
  9  8  1  0  0  0  0
 10  5  1  0  0  0  0
 14 15  2  0  0  0  0
 14  9  1  0  0  0  0
 16 17  1  0  0  0  0
 16 15  1  0  0  0  0
 18  1  1  0  0  0  0
 18 20  1  0  0  0  0
 19 18  1  0  0  0  0
 21 27  1  0  0  0  0
 21 22  1  0  0  0  0
 22 28  1  0  0  0  0
 23 22  2  0  0  0  0
 23 18  1  0  0  0  0
 24 23  1  0  0  0  0
 25 26  1  0  0  0  0
 25 24  2  0  0  0  0
 26 21  2  0  0  0  0
 29 25  1  0  0  0  0
M  END
>  <minimizedAffinity>
-4.88878822

$$$$

 OpenBabel03252508223D

 29 30  0  0  0  0  0  0  0  0999 V2000
   37.7180   28.1080   43.2190 C   0  0  0  0  0  0  0  0  0  0  0  0
   38.7270   28.6070   43.1250 H   0  0  0  0  0  0  0  0  0  0  0  0
   37.3880   28.2950   44.2430 H   0  0  0  0  0  0  0  0  0  0  0  0
   37.9510   26.7040   42.8630 C   0  0  0  0  0  0  0  0  0  0  0  0
   37.0110   25.8750   42.3110 C   0  0  0  0  0  0  0  0  0  0  0  0
   37.1900   24.5430   41.9590 C   0  0  0  0  0  0  0  0  0  0  0  0
   38.4750   24.0510   42.2140 C   0  0  0  0  0  0  0  0  0  0  0  0
   39.4470   24.8600   42.7680 C   0  0  0  0  0  0  0  0  0  0  0  0
   39.2110   26.1650   43.0950 C   0  0  0  0  0  0  0  0  0  0  0  0
   36.0200   26.2710   42.1200 H   0  0  0  0  0  0  0  0  0  0  0  0
   36.4390   23.9290   41.5330 H   0  0  0  0  0  0  0  0  0  0  0  0
   38.6560   23.0080   41.9510 H   0  0  0  0  0  0  0  0  0  0  0  0
   40.3970   24.3560   42.9140 H   0  0  0  0  0  0  0  0  0  0  0  0
   40.2760   26.9740   43.6790 C   0  0  0  0  0  3  0  0  0  0  0  0
   41.2810   27.5060   43.0060 C   0  0  0  0  0  3  0  0  0  0  0  0
   42.3400   28.3220   43.6510 C   0  0  0  0  0  2  0  0  0  0  0  0
   43.2890   27.7380   43.6910 H   0  0  0  0  0  0  0  0  0  0  0  0
   36.8500   28.8110   42.1780 C   0  0  0  0  0  0  0  0  0  0  0  0
   36.8320   28.1190   41.3090 H   0  0  0  0  0  0  0  0  0  0  0  0
   35.8550   29.0170   42.5760 H   0  0  0  0  0  0  0  0  0  0  0  0
   39.5490   31.3950   41.6820 C   0  0  0  0  0  0  0  0  0  0  0  0
   38.8960   30.2140   42.1150 C   0  0  0  0  0  0  0  0  0  0  0  0
   37.5560   30.0280   41.7430 C   0  0  0  0  0  0  0  0  0  0  0  0
   36.9670   31.0140   40.9800 N   0  0  0  0  0  0  0  0  0  0  0  0
   37.6290   32.1030   40.6030 C   0  0  0  0  0  0  0  0  0  0  0  0
   38.9200   32.3130   40.9420 N   0  0  0  0  0  0  0  0  0  0  0  0
   40.5840   31.4770   42.0040 H   0  0  0  0  0  0  0  0  0  0  0  0
   39.4430   29.4870   42.7180 H   0  0  0  0  0  0  0  0  0  0  0  0
   37.0620   32.8070   40.0050 H   0  0  0  0  0  0  0  0  0  0  0  0
  1  3  1  0  0  0  0
  2  1  1  0  0  0  0
  4  9  1  0  0  0  0
  4  1  1  0  0  0  0
  5  4  2  0  0  0  0
  6  7  2  0  0  0  0
  6  5  1  0  0  0  0
  7  8  1  0  0  0  0
  8 13  1  0  0  0  0
  8  9  2  0  0  0  0
  9 14  1  0  0  0  0
 10  5  1  0  0  0  0
 11  6  1  0  0  0  0
 12  7  1  0  0  0  0
 15 16  1  0  0  0  0
 15 14  2  0  0  0  0
 16 17  1  0  0  0  0
 18 20  1  0  0  0  0
 18  1  1  0  0  0  0
 19 18  1  0  0  0  0
 21 27  1  0  0  0  0
 21 22  1  0  0  0  0
 22 28  1  0  0  0  0
 23 22  2  0  0  0  0
 23 18  1  0  0  0  0
 24 23  1  0  0  0  0
 25 26  1  0  0  0  0
 25 24  2  0  0  0  0
 26 21  2  0  0  0  0
 29 25  1  0  0  0  0
M  END
>  <minimizedAffinity>
-4.88027668

$$$$

 OpenBabel03252508223D

 29 30  0  0  0  0  0  0  0  0999 V2000
   36.3700   27.8870   42.0790 C   0  0  0  0  0  0  0  0  0  0  0  0
   36.8150   28.8540   42.4570 H   0  0  0  0  0  0  0  0  0  0  0  0
   35.4240   27.7680   42.6110 H   0  0  0  0  0  0  0  0  0  0  0  0
   37.3920   26.8670   42.3440 C   0  0  0  0  0  0  0  0  0  0  0  0
   37.2270   25.5260   42.1210 C   0  0  0  0  0  0  0  0  0  0  0  0
   38.1660   24.5290   42.3570 C   0  0  0  0  0  0  0  0  0  0  0  0
   39.3800   24.9970   42.8710 C   0  0  0  0  0  0  0  0  0  0  0  0
   39.5790   26.3430   43.1070 C   0  0  0  0  0  0  0  0  0  0  0  0
   38.6160   27.2780   42.8560 C   0  0  0  0  0  0  0  0  0  0  0  0
   36.2810   25.1790   41.7220 H   0  0  0  0  0  0  0  0  0  0  0  0
   38.0050   23.4980   42.1720 H   0  0  0  0  0  0  0  0  0  0  0  0
   40.1450   24.2440   43.0710 H   0  0  0  0  0  0  0  0  0  0  0  0
   40.5630   26.5710   43.5070 H   0  0  0  0  0  0  0  0  0  0  0  0
   38.8810   28.6870   43.1240 C   0  0  0  0  0  3  0  0  0  0  0  0
   39.7190   29.4460   42.4390 C   0  0  0  0  0  3  0  0  0  0  0  0
   39.9520   30.8780   42.7550 C   0  0  0  0  0  2  0  0  0  0  0  0
   40.9580   30.9980   43.2200 H   0  0  0  0  0  0  0  0  0  0  0  0
   36.1850   28.1150   40.5810 C   0  0  0  0  0  0  0  0  0  0  0  0
   36.7720   27.3070   40.0960 H   0  0  0  0  0  0  0  0  0  0  0  0
   35.1270   28.0910   40.3120 H   0  0  0  0  0  0  0  0  0  0  0  0
   37.0520   31.7820   40.4950 C   0  0  0  0  0  0  0  0  0  0  0  0
   36.4070   30.5720   40.8520 C   0  0  0  0  0  0  0  0  0  0  0  0
   36.8360   29.3890   40.2310 C   0  0  0  0  0  0  0  0  0  0  0  0
   37.8580   29.4900   39.3110 N   0  0  0  0  0  0  0  0  0  0  0  0
   38.4270   30.6540   39.0150 C   0  0  0  0  0  0  0  0  0  0  0  0
   38.0400   31.8110   39.5940 N   0  0  0  0  0  0  0  0  0  0  0  0
   36.6740   32.6600   41.0110 H   0  0  0  0  0  0  0  0  0  0  0  0
   35.6050   30.5880   41.5910 H   0  0  0  0  0  0  0  0  0  0  0  0
   39.2210   30.6080   38.2790 H   0  0  0  0  0  0  0  0  0  0  0  0
  1  4  1  0  0  0  0
  1  2  1  0  0  0  0
  1  3  1  0  0  0  0
  4  9  1  0  0  0  0
  5  4  2  0  0  0  0
  5  6  1  0  0  0  0
  6  7  2  0  0  0  0
  7 12  1  0  0  0  0
  7  8  1  0  0  0  0
  8 13  1  0  0  0  0
  9  8  2  0  0  0  0
  9 14  1  0  0  0  0
 10  5  1  0  0  0  0
 11  6  1  0  0  0  0
 15 16  1  0  0  0  0
 15 14  2  0  0  0  0
 16 17  1  0  0  0  0
 18  1  1  0  0  0  0
 19 18  1  0  0  0  0
 20 18  1  0  0  0  0
 21 22  1  0  0  0  0
 21 27  1  0  0  0  0
 22 28  1  0  0  0  0
 23 18  1  0  0  0  0
 23 22  2  0  0  0  0
 24 23  1  0  0  0  0
 25 24  2  0  0  0  0
 25 26  1  0  0  0  0
 26 21  2  0  0  0  0
 29 25  1  0  0  0  0
M  END
>  <minimizedAffinity>
-4.77186871

$$$$

 OpenBabel03252508223D

 29 30  0  0  0  0  0  0  0  0999 V2000
   38.4340   29.5450   43.0110 C   0  0  0  0  0  0  0  0  0  0  0  0
   38.8080   29.7410   44.0600 H   0  0  0  0  0  0  0  0  0  0  0  0
   37.4500   30.0130   42.9540 H   0  0  0  0  0  0  0  0  0  0  0  0
   38.4640   28.0850   42.8640 C   0  0  0  0  0  0  0  0  0  0  0  0
   39.4700   27.2770   43.3230 C   0  0  0  0  0  0  0  0  0  0  0  0
   39.5370   25.8940   43.2060 C   0  0  0  0  0  0  0  0  0  0  0  0
   38.4440   25.3230   42.5450 C   0  0  0  0  0  0  0  0  0  0  0  0
   37.4130   26.1080   42.0700 C   0  0  0  0  0  0  0  0  0  0  0  0
   37.4020   27.4650   42.2150 C   0  0  0  0  0  0  0  0  0  0  0  0
   40.3100   27.7360   43.8330 H   0  0  0  0  0  0  0  0  0  0  0  0
   40.3320   25.2990   43.5740 H   0  0  0  0  0  0  0  0  0  0  0  0
   38.4590   24.2370   42.4320 H   0  0  0  0  0  0  0  0  0  0  0  0
   36.6280   25.5400   41.5780 H   0  0  0  0  0  0  0  0  0  0  0  0
   36.2860   28.2460   41.6930 C   0  0  0  0  0  3  0  0  0  0  0  0
   35.9670   28.3540   40.4150 C   0  0  0  0  0  3  0  0  0  0  0  0
   34.8170   29.1630   39.9360 C   0  0  0  0  0  2  0  0  0  0  0  0
   35.1930   30.0870   39.4390 H   0  0  0  0  0  0  0  0  0  0  0  0
   39.4670   30.2180   42.1100 C   0  0  0  0  0  0  0  0  0  0  0  0
   39.7920   31.1180   42.6740 H   0  0  0  0  0  0  0  0  0  0  0  0
   40.2900   29.5370   41.8870 H   0  0  0  0  0  0  0  0  0  0  0  0
   38.4470   30.6440   38.5060 C   0  0  0  0  0  0  0  0  0  0  0  0
   39.1310   30.1650   39.6520 C   0  0  0  0  0  0  0  0  0  0  0  0
   38.7740   30.6950   40.9010 C   0  0  0  0  0  0  0  0  0  0  0  0
   37.7790   31.6490   40.9250 N   0  0  0  0  0  0  0  0  0  0  0  0
   37.1710   32.0600   39.8170 C   0  0  0  0  0  0  0  0  0  0  0  0
   37.4890   31.5710   38.5980 N   0  0  0  0  0  0  0  0  0  0  0  0
   38.7710   30.1930   37.5720 H   0  0  0  0  0  0  0  0  0  0  0  0
   39.9070   29.4070   39.5370 H   0  0  0  0  0  0  0  0  0  0  0  0
   36.4040   32.8130   39.9610 H   0  0  0  0  0  0  0  0  0  0  0  0
  1  2  1  0  0  0  0
  3  1  1  0  0  0  0
  4  1  1  0  0  0  0
  4  5  1  0  0  0  0
  5 10  1  0  0  0  0
  6  5  2  0  0  0  0
  6 11  1  0  0  0  0
  7  6  1  0  0  0  0
  8  9  1  0  0  0  0
  8  7  2  0  0  0  0
  9  4  2  0  0  0  0
 12  7  1  0  0  0  0
 13  8  1  0  0  0  0
 14  9  1  0  0  0  0
 15 14  2  0  0  0  0
 16 15  1  0  0  0  0
 17 16  1  0  0  0  0
 18 19  1  0  0  0  0
 18  1  1  0  0  0  0
 20 18  1  0  0  0  0
 21 26  2  0  0  0  0
 21 22  1  0  0  0  0
 22 23  2  0  0  0  0
 23 24  1  0  0  0  0
 23 18  1  0  0  0  0
 25 29  1  0  0  0  0
 25 24  2  0  0  0  0
 26 25  1  0  0  0  0
 27 21  1  0  0  0  0
 28 22  1  0  0  0  0
M  END
>  <minimizedAffinity>
-4.7079525

$$$$

 OpenBabel03252508223D

 29 30  0  0  0  0  0  0  0  0999 V2000
   36.8460   28.2050   42.5190 C   0  0  0  0  0  0  0  0  0  0  0  0
   36.6930   27.6020   41.5760 H   0  0  0  0  0  0  0  0  0  0  0  0
   35.8500   28.3660   42.9350 H   0  0  0  0  0  0  0  0  0  0  0  0
   37.5690   29.4080   42.0900 C   0  0  0  0  0  0  0  0  0  0  0  0
   38.7800   29.8070   42.5900 C   0  0  0  0  0  0  0  0  0  0  0  0
   39.4970   30.9350   42.2120 C   0  0  0  0  0  0  0  0  0  0  0  0
   38.8760   31.7030   41.2210 C   0  0  0  0  0  0  0  0  0  0  0  0
   37.6550   31.3280   40.6950 C   0  0  0  0  0  0  0  0  0  0  0  0
   36.9960   30.2060   41.1080 C   0  0  0  0  0  0  0  0  0  0  0  0
   39.2480   29.2020   43.3570 H   0  0  0  0  0  0  0  0  0  0  0  0
   40.4340   31.2150   42.6210 H   0  0  0  0  0  0  0  0  0  0  0  0
   39.4080   32.5990   40.8960 H   0  0  0  0  0  0  0  0  0  0  0  0
   37.2850   32.0100   39.9350 H   0  0  0  0  0  0  0  0  0  0  0  0
   35.7080   29.8590   40.5170 C   0  0  0  0  0  3  0  0  0  0  0  0
   35.5430   29.3000   39.3300 C   0  0  0  0  0  3  0  0  0  0  0  0
   34.2070   28.9670   38.7750 C   0  0  0  0  0  2  0  0  0  0  0  0
   33.9550   29.6800   37.9560 H   0  0  0  0  0  0  0  0  0  0  0  0
   37.7200   27.3130   43.3990 C   0  0  0  0  0  0  0  0  0  0  0  0
   38.6570   27.8920   43.5480 H   0  0  0  0  0  0  0  0  0  0  0  0
   37.2140   27.0770   44.3370 H   0  0  0  0  0  0  0  0  0  0  0  0
   37.4300   24.0850   41.4740 C   0  0  0  0  0  0  0  0  0  0  0  0
   37.0590   25.2310   42.2210 C   0  0  0  0  0  0  0  0  0  0  0  0
   38.0740   26.1130   42.6220 C   0  0  0  0  0  0  0  0  0  0  0  0
   39.3670   25.8000   42.2600 N   0  0  0  0  0  0  0  0  0  0  0  0
   39.6570   24.7090   41.5570 C   0  0  0  0  0  0  0  0  0  0  0  0
   38.7050   23.8390   41.1550 N   0  0  0  0  0  0  0  0  0  0  0  0
   36.5980   23.4450   41.1950 H   0  0  0  0  0  0  0  0  0  0  0  0
   36.0080   25.3990   42.4620 H   0  0  0  0  0  0  0  0  0  0  0  0
   40.7080   24.5690   41.3320 H   0  0  0  0  0  0  0  0  0  0  0  0
  1  3  1  0  0  0  0
  1 18  1  0  0  0  0
  2  1  1  0  0  0  0
  4  1  1  0  0  0  0
  4  5  1  0  0  0  0
  5 10  1  0  0  0  0
  6  5  2  0  0  0  0
  6 11  1  0  0  0  0
  7  6  1  0  0  0  0
  8  9  1  0  0  0  0
  8  7  2  0  0  0  0
  9  4  2  0  0  0  0
 12  7  1  0  0  0  0
 13  8  1  0  0  0  0
 14  9  1  0  0  0  0
 15 14  2  0  0  0  0
 16 15  1  0  0  0  0
 17 16  1  0  0  0  0
 18 19  1  0  0  0  0
 18 20  1  0  0  0  0
 21 22  1  0  0  0  0
 22 28  1  0  0  0  0
 22 23  2  0  0  0  0
 23 18  1  0  0  0  0
 24 23  1  0  0  0  0
 25 24  2  0  0  0  0
 26 21  2  0  0  0  0
 26 25  1  0  0  0  0
 27 21  1  0  0  0  0
 29 25  1  0  0  0  0
M  END
>  <minimizedAffinity>
-4.67694712

$$$$

 OpenBabel03252508223D

 29 30  0  0  0  0  0  0  0  0999 V2000
   36.4820   30.3060   41.4250 C   0  0  0  0  0  0  0  0  0  0  0  0
   37.3030   30.9200   40.9490 H   0  0  0  0  0  0  0  0  0  0  0  0
   35.9360   30.9920   42.0750 H   0  0  0  0  0  0  0  0  0  0  0  0
   37.1750   29.1980   42.0940 C   0  0  0  0  0  0  0  0  0  0  0  0
   36.6050   27.9850   42.3800 C   0  0  0  0  0  0  0  0  0  0  0  0
   37.2230   26.9120   43.0100 C   0  0  0  0  0  0  0  0  0  0  0  0
   38.5570   27.1460   43.3630 C   0  0  0  0  0  0  0  0  0  0  0  0
   39.1610   28.3570   43.0880 C   0  0  0  0  0  0  0  0  0  0  0  0
   38.5010   29.3770   42.4660 C   0  0  0  0  0  0  0  0  0  0  0  0
   35.5720   27.8200   42.1000 H   0  0  0  0  0  0  0  0  0  0  0  0
   36.7520   25.9860   43.2160 H   0  0  0  0  0  0  0  0  0  0  0  0
   39.0780   26.3260   43.8610 H   0  0  0  0  0  0  0  0  0  0  0  0
   40.1960   28.4070   43.4150 H   0  0  0  0  0  0  0  0  0  0  0  0
   39.1900   30.6360   42.2010 C   0  0  0  0  0  3  0  0  0  0  0  0
   40.0970   30.8200   41.2570 C   0  0  0  0  0  3  0  0  0  0  0  0
   40.7690   32.1250   41.0290 C   0  0  0  0  0  2  0  0  0  0  0  0
   41.8250   32.0660   41.3810 H   0  0  0  0  0  0  0  0  0  0  0  0
   35.6470   29.8120   40.2460 C   0  0  0  0  0  0  0  0  0  0  0  0
   35.7350   28.7050   40.2800 H   0  0  0  0  0  0  0  0  0  0  0  0
   34.6150   30.1580   40.3290 H   0  0  0  0  0  0  0  0  0  0  0  0
   37.7110   31.8210   37.8150 C   0  0  0  0  0  0  0  0  0  0  0  0
   37.0920   31.4170   39.0240 C   0  0  0  0  0  0  0  0  0  0  0  0
   36.3030   30.2570   39.0050 C   0  0  0  0  0  0  0  0  0  0  0  0
   36.1850   29.5900   37.8040 N   0  0  0  0  0  0  0  0  0  0  0  0
   36.7890   30.0160   36.6990 C   0  0  0  0  0  0  0  0  0  0  0  0
   37.5560   31.1280   36.6820 N   0  0  0  0  0  0  0  0  0  0  0  0
   38.3070   32.7260   37.8980 H   0  0  0  0  0  0  0  0  0  0  0  0
   37.2430   32.0090   39.9290 H   0  0  0  0  0  0  0  0  0  0  0  0
   36.6230   29.4090   35.8170 H   0  0  0  0  0  0  0  0  0  0  0  0
  1  3  1  0  0  0  0
  1  4  1  0  0  0  0
  2  1  1  0  0  0  0
  4  5  2  0  0  0  0
  4  9  1  0  0  0  0
  5  6  1  0  0  0  0
  6 11  1  0  0  0  0
  6  7  2  0  0  0  0
  7 12  1  0  0  0  0
  8  7  1  0  0  0  0
  8 13  1  0  0  0  0
  9  8  2  0  0  0  0
 10  5  1  0  0  0  0
 14  9  1  0  0  0  0
 15 14  2  0  0  0  0
 16 15  1  0  0  0  0
 16 17  1  0  0  0  0
 18 19  1  0  0  0  0
 18 20  1  0  0  0  0
 18  1  1  0  0  0  0
 21 27  1  0  0  0  0
 21 22  1  0  0  0  0
 22 28  1  0  0  0  0
 23 22  2  0  0  0  0
 23 18  1  0  0  0  0
 24 23  1  0  0  0  0
 25 24  2  0  0  0  0
 26 25  1  0  0  0  0
 26 21  2  0  0  0  0
 29 25  1  0  0  0  0
M  END
>  <minimizedAffinity>
-4.6747694

$$$$

 OpenBabel03252508223D

 29 30  0  0  0  0  0  0  0  0999 V2000
   37.7180   28.8440   43.2420 C   0  0  0  0  0  0  0  0  0  0  0  0
   37.0660   29.3010   44.0440 H   0  0  0  0  0  0  0  0  0  0  0  0
   38.7330   28.8490   43.6440 H   0  0  0  0  0  0  0  0  0  0  0  0
   37.4920   29.6700   42.0500 C   0  0  0  0  0  0  0  0  0  0  0  0
   36.4110   29.5530   41.2170 C   0  0  0  0  0  0  0  0  0  0  0  0
   36.1590   30.3140   40.0820 C   0  0  0  0  0  0  0  0  0  0  0  0
   37.1360   31.2780   39.8100 C   0  0  0  0  0  0  0  0  0  0  0  0
   38.2370   31.4220   40.6300 C   0  0  0  0  0  0  0  0  0  0  0  0
   38.4320   30.6430   41.7340 C   0  0  0  0  0  0  0  0  0  0  0  0
   35.6630   28.8020   41.4410 H   0  0  0  0  0  0  0  0  0  0  0  0
   35.3100   30.1970   39.4580 H   0  0  0  0  0  0  0  0  0  0  0  0
   36.9740   31.8960   38.9250 H   0  0  0  0  0  0  0  0  0  0  0  0
   38.9170   32.2050   40.3060 H   0  0  0  0  0  0  0  0  0  0  0  0
   39.6150   30.8400   42.5650 C   0  0  0  0  0  3  0  0  0  0  0  0
   40.8550   30.9220   42.1140 C   0  0  0  0  0  3  0  0  0  0  0  0
   42.0250   31.1230   43.0050 C   0  0  0  0  0  2  0  0  0  0  0  0
   42.6090   30.1760   43.0730 H   0  0  0  0  0  0  0  0  0  0  0  0
   37.1580   27.4350   43.0580 C   0  0  0  0  0  0  0  0  0  0  0  0
   36.6510   27.2030   44.0190 H   0  0  0  0  0  0  0  0  0  0  0  0
   36.4830   27.3940   42.2010 H   0  0  0  0  0  0  0  0  0  0  0  0
   40.5370   25.8350   43.5420 C   0  0  0  0  0  0  0  0  0  0  0  0
   39.4600   26.7470   43.6800 C   0  0  0  0  0  0  0  0  0  0  0  0
   38.2950   26.5060   42.9360 C   0  0  0  0  0  0  0  0  0  0  0  0
   38.2810   25.3950   42.1200 N   0  0  0  0  0  0  0  0  0  0  0  0
   39.3220   24.5730   42.0310 C   0  0  0  0  0  0  0  0  0  0  0  0
   40.4590   24.7750   42.7320 N   0  0  0  0  0  0  0  0  0  0  0  0
   41.4080   26.0790   44.1440 H   0  0  0  0  0  0  0  0  0  0  0  0
   39.5610   27.6010   44.3510 H   0  0  0  0  0  0  0  0  0  0  0  0
   39.1930   23.7330   41.3580 H   0  0  0  0  0  0  0  0  0  0  0  0
  1  3  1  0  0  0  0
  1  2  1  0  0  0  0
  4  1  1  0  0  0  0
  5 10  1  0  0  0  0
  5  4  2  0  0  0  0
  6  5  1  0  0  0  0
  7  6  2  0  0  0  0
  7  8  1  0  0  0  0
  8  9  2  0  0  0  0
  9  4  1  0  0  0  0
  9 14  1  0  0  0  0
 11  6  1  0  0  0  0
 12  7  1  0  0  0  0
 13  8  1  0  0  0  0
 15 14  2  0  0  0  0
 15 16  1  0  0  0  0
 16 17  1  0  0  0  0
 18  1  1  0  0  0  0
 18 19  1  0  0  0  0
 20 18  1  0  0  0  0
 21 22  1  0  0  0  0
 21 27  1  0  0  0  0
 22 28  1  0  0  0  0
 23 18  1  0  0  0  0
 23 22  2  0  0  0  0
 24 23  1  0  0  0  0
 25 24  2  0  0  0  0
 25 26  1  0  0  0  0
 26 21  2  0  0  0  0
 29 25  1  0  0  0  0
M  END
>  <minimizedAffinity>
-4.64798832

$$$$

 OpenBabel03252508223D

 29 30  0  0  0  0  0  0  0  0999 V2000
   36.9150   29.3510   39.9610 C   0  0  0  0  0  0  0  0  0  0  0  0
   36.2930   30.2660   40.1880 H   0  0  0  0  0  0  0  0  0  0  0  0
   36.3520   28.7850   39.2160 H   0  0  0  0  0  0  0  0  0  0  0  0
   37.1100   28.6920   41.2590 C   0  0  0  0  0  0  0  0  0  0  0  0
   37.4260   29.3440   42.4210 C   0  0  0  0  0  0  0  0  0  0  0  0
   37.6180   28.7610   43.6680 C   0  0  0  0  0  0  0  0  0  0  0  0
   37.4620   27.3710   43.6790 C   0  0  0  0  0  0  0  0  0  0  0  0
   37.1440   26.6830   42.5250 C   0  0  0  0  0  0  0  0  0  0  0  0
   36.9670   27.3120   41.3260 C   0  0  0  0  0  0  0  0  0  0  0  0
   37.5430   30.4210   42.3950 H   0  0  0  0  0  0  0  0  0  0  0  0
   37.8620   29.2970   44.5490 H   0  0  0  0  0  0  0  0  0  0  0  0
   37.6060   26.8750   44.6410 H   0  0  0  0  0  0  0  0  0  0  0  0
   37.0530   25.6110   42.6720 H   0  0  0  0  0  0  0  0  0  0  0  0
   36.6310   26.5350   40.1380 C   0  0  0  0  0  3  0  0  0  0  0  0
   36.8430   25.2380   39.9950 C   0  0  0  0  0  3  0  0  0  0  0  0
   36.4810   24.4940   38.7610 C   0  0  0  0  0  2  0  0  0  0  0  0
   37.4070   24.2330   38.1990 H   0  0  0  0  0  0  0  0  0  0  0  0
   38.2270   29.9100   39.4160 C   0  0  0  0  0  0  0  0  0  0  0  0
   39.0160   29.4480   40.0480 H   0  0  0  0  0  0  0  0  0  0  0  0
   38.3400   29.6730   38.3560 H   0  0  0  0  0  0  0  0  0  0  0  0
   37.2610   33.5530   39.4810 C   0  0  0  0  0  0  0  0  0  0  0  0
   37.2090   32.1630   39.2050 C   0  0  0  0  0  0  0  0  0  0  0  0
   38.2530   31.3570   39.6870 C   0  0  0  0  0  0  0  0  0  0  0  0
   39.2590   31.9780   40.3960 N   0  0  0  0  0  0  0  0  0  0  0  0
   39.2550   33.2870   40.6240 C   0  0  0  0  0  0  0  0  0  0  0  0
   38.2670   34.0930   40.1770 N   0  0  0  0  0  0  0  0  0  0  0  0
   36.4240   34.1190   39.0820 H   0  0  0  0  0  0  0  0  0  0  0  0
   36.3720   31.7590   38.6350 H   0  0  0  0  0  0  0  0  0  0  0  0
   40.0990   33.6610   41.1940 H   0  0  0  0  0  0  0  0  0  0  0  0
  1  2  1  0  0  0  0
  1  4  1  0  0  0  0
  3  1  1  0  0  0  0
  4  9  2  0  0  0  0
  4  5  1  0  0  0  0
  5  6  2  0  0  0  0
  6  7  1  0  0  0  0
  6 11  1  0  0  0  0
  7 12  1  0  0  0  0
  8 13  1  0  0  0  0
  8  7  2  0  0  0  0
  9  8  1  0  0  0  0
 10  5  1  0  0  0  0
 14  9  1  0  0  0  0
 15 14  2  0  0  0  0
 16 15  1  0  0  0  0
 17 16  1  0  0  0  0
 18 23  1  0  0  0  0
 18  1  1  0  0  0  0
 18 19  1  0  0  0  0
 20 18  1  0  0  0  0
 21 26  1  0  0  0  0
 22 21  2  0  0  0  0
 22 23  1  0  0  0  0
 23 24  2  0  0  0  0
 24 25  1  0  0  0  0
 25 29  1  0  0  0  0
 26 25  2  0  0  0  0
 27 21  1  0  0  0  0
 28 22  1  0  0  0  0
M  END
>  <minimizedAffinity>
-4.63573074

$$$$
