
 OpenBabel03242511553D

 29 30  0  0  1  0  0  0  0  0999 V2000
   37.3680   29.8740   41.9680 C   0  0  2  0  0  0  0  0  0  0  0  0
   38.4910   29.6140   42.8920 C   0  0  0  0  0  0  0  0  0  0  0  0
   38.9800   28.2070   42.8710 C   0  0  0  0  0  0  0  0  0  0  0  0
   37.8850   27.1870   43.1070 C   0  0  0  0  0  0  0  0  0  0  0  0
   36.5890   27.5310   42.4180 C   0  0  0  0  0  0  0  0  0  0  0  0
   36.7900   28.6040   41.3680 C   0  0  1  0  0  0  0  0  0  0  0  0
   36.4820   30.3680   42.4620 H   0  0  0  0  0  0  0  0  0  0  0  0
   39.3440   30.2860   42.7840 H   0  0  0  0  0  0  0  0  0  0  0  0
   38.0960   29.7890   43.9360 H   0  0  0  0  0  0  0  0  0  0  0  0
   39.6090   27.9030   42.0420 H   0  0  0  0  0  0  0  0  0  0  0  0
   39.6480   28.1040   43.7800 H   0  0  0  0  0  0  0  0  0  0  0  0
   38.2710   26.2190   42.7260 H   0  0  0  0  0  0  0  0  0  0  0  0
   37.7120   27.0250   44.2090 H   0  0  0  0  0  0  0  0  0  0  0  0
   35.8590   27.8590   43.1620 H   0  0  0  0  0  0  0  0  0  0  0  0
   36.1950   26.6490   41.8970 H   0  0  0  0  0  0  0  0  0  0  0  0
   37.4200   28.2030   40.5600 H   0  0  0  0  0  0  0  0  0  0  0  0
   37.7560   30.7540   40.8480 C   0  0  0  0  0  0  0  0  0  0  0  0
   38.7720   30.2700   40.0000 C   0  0  0  0  0  0  0  0  0  0  0  0
   39.1930   31.0390   38.9180 C   0  0  0  0  0  0  0  0  0  0  0  0
   38.5850   32.2420   38.7380 N   0  0  0  0  0  0  0  0  0  0  0  0
   37.6080   32.6850   39.5700 C   0  0  0  0  0  0  0  0  0  0  0  0
   37.1950   31.9430   40.6220 N   0  0  0  0  0  0  0  0  0  0  0  0
   39.3040   29.3330   40.0700 H   0  0  0  0  0  0  0  0  0  0  0  0
   39.9660   30.7360   38.2250 H   0  0  0  0  0  0  0  0  0  0  0  0
   37.2160   33.6600   39.3060 H   0  0  0  0  0  0  0  0  0  0  0  0
   35.4390   28.9250   40.8410 C   0  0  0  0  0  3  0  0  0  0  0  0
   35.0920   28.9130   39.5620 C   0  0  0  0  0  3  0  0  0  0  0  0
   35.8420   28.6080   38.3180 C   0  0  0  0  0  2  0  0  0  0  0  0
   35.3490   27.8240   37.7060 H   0  0  0  0  0  0  0  0  0  0  0  0
  1  7  1  1  0  0  0
  1  2  1  0  0  0  0
  2  9  1  0  0  0  0
  3  2  1  0  0  0  0
  3  4  1  0  0  0  0
  3 11  1  0  0  0  0
  4 13  1  0  0  0  0
  5  4  1  0  0  0  0
  5 14  1  0  0  0  0
  6 16  1  6  0  0  0
  6  1  1  0  0  0  0
  6  5  1  0  0  0  0
  8  2  1  0  0  0  0
 10  3  1  0  0  0  0
 12  4  1  0  0  0  0
 15  5  1  0  0  0  0
 17  1  1  0  0  0  0
 18 23  1  0  0  0  0
 18 17  2  0  0  0  0
 19 18  1  0  0  0  0
 20 19  2  0  0  0  0
 20 21  1  0  0  0  0
 21 22  2  0  0  0  0
 22 17  1  0  0  0  0
 24 19  1  0  0  0  0
 25 21  1  0  0  0  0
 26  6  1  0  0  0  0
 27 26  2  0  0  0  0
 28 27  1  0  0  0  0
 29 28  1  0  0  0  0
M  END
>  <minimizedAffinity>
-4.57985783

$$$$

 OpenBabel03242511553D

 29 30  0  0  1  0  0  0  0  0999 V2000
   36.1690   29.6710   40.1850 C   0  0  2  0  0  0  0  0  0  0  0  0
   34.7810   29.2430   39.9150 C   0  0  0  0  0  0  0  0  0  0  0  0
   34.6120   28.5070   38.6300 C   0  0  0  0  0  0  0  0  0  0  0  0
   35.1530   29.2600   37.4320 C   0  0  0  0  0  0  0  0  0  0  0  0
   36.4490   29.9760   37.7110 C   0  0  0  0  0  0  0  0  0  0  0  0
   37.0880   29.4830   38.9910 C   0  0  1  0  0  0  0  0  0  0  0  0
   36.2630   30.7680   40.4300 H   0  0  0  0  0  0  0  0  0  0  0  0
   34.3080   28.6710   40.7140 H   0  0  0  0  0  0  0  0  0  0  0  0
   34.1670   30.1880   39.8130 H   0  0  0  0  0  0  0  0  0  0  0  0
   34.9250   27.4690   38.5980 H   0  0  0  0  0  0  0  0  0  0  0  0
   33.4960   28.4690   38.4460 H   0  0  0  0  0  0  0  0  0  0  0  0
   35.3010   28.5080   36.6290 H   0  0  0  0  0  0  0  0  0  0  0  0
   34.3870   29.9800   37.0250 H   0  0  0  0  0  0  0  0  0  0  0  0
   36.2640   31.0520   37.7670 H   0  0  0  0  0  0  0  0  0  0  0  0
   37.1680   29.7810   36.9030 H   0  0  0  0  0  0  0  0  0  0  0  0
   37.3910   28.4330   38.8620 H   0  0  0  0  0  0  0  0  0  0  0  0
   36.7670   28.9430   41.3220 C   0  0  0  0  0  0  0  0  0  0  0  0
   36.8050   27.5390   41.2110 C   0  0  0  0  0  0  0  0  0  0  0  0
   37.3570   26.7800   42.2390 C   0  0  0  0  0  0  0  0  0  0  0  0
   37.8390   27.4540   43.3190 N   0  0  0  0  0  0  0  0  0  0  0  0
   37.7900   28.8080   43.4000 C   0  0  0  0  0  0  0  0  0  0  0  0
   37.2550   29.5500   42.4050 N   0  0  0  0  0  0  0  0  0  0  0  0
   36.4480   26.9290   40.3960 H   0  0  0  0  0  0  0  0  0  0  0  0
   37.4220   25.7000   42.2270 H   0  0  0  0  0  0  0  0  0  0  0  0
   38.2090   29.2070   44.3160 H   0  0  0  0  0  0  0  0  0  0  0  0
   38.2900   30.3290   39.2070 C   0  0  0  0  0  3  0  0  0  0  0  0
   38.2890   31.6480   39.3240 C   0  0  0  0  0  3  0  0  0  0  0  0
   37.2040   32.6610   39.2870 C   0  0  0  0  0  2  0  0  0  0  0  0
   37.1980   33.3110   40.1870 H   0  0  0  0  0  0  0  0  0  0  0  0
  1  7  1  1  0  0  0
  1 17  1  0  0  0  0
  2  1  1  0  0  0  0
  2  8  1  0  0  0  0
  3  2  1  0  0  0  0
  4  5  1  0  0  0  0
  4  3  1  0  0  0  0
  5 14  1  0  0  0  0
  5  6  1  0  0  0  0
  6 16  1  6  0  0  0
  6 26  1  0  0  0  0
  6  1  1  0  0  0  0
  9  2  1  0  0  0  0
 10  3  1  0  0  0  0
 11  3  1  0  0  0  0
 12  4  1  0  0  0  0
 13  4  1  0  0  0  0
 15  5  1  0  0  0  0
 17 22  1  0  0  0  0
 18 17  2  0  0  0  0
 18 19  1  0  0  0  0
 19 20  2  0  0  0  0
 20 21  1  0  0  0  0
 21 25  1  0  0  0  0
 22 21  2  0  0  0  0
 23 18  1  0  0  0  0
 24 19  1  0  0  0  0
 26 27  2  0  0  0  0
 28 27  1  0  0  0  0
 28 29  1  0  0  0  0
M  END
>  <minimizedAffinity>
-4.55170965

$$$$

 OpenBabel03242511553D

 29 30  0  0  1  0  0  0  0  0999 V2000
   37.5530   28.2890   42.3640 C   0  0  2  0  0  0  0  0  0  0  0  0
   38.5790   29.3200   42.6220 C   0  0  0  0  0  0  0  0  0  0  0  0
   39.9790   28.8140   42.5390 C   0  0  0  0  0  0  0  0  0  0  0  0
   40.2360   27.6110   43.4230 C   0  0  0  0  0  0  0  0  0  0  0  0
   39.0930   26.6280   43.4410 C   0  0  0  0  0  0  0  0  0  0  0  0
   38.1260   26.8840   42.3050 C   0  0  1  0  0  0  0  0  0  0  0  0
   36.7640   28.2270   43.1680 H   0  0  0  0  0  0  0  0  0  0  0  0
   38.4930   30.2220   42.0140 H   0  0  0  0  0  0  0  0  0  0  0  0
   38.4350   29.6580   43.6910 H   0  0  0  0  0  0  0  0  0  0  0  0
   40.4020   28.6580   41.5530 H   0  0  0  0  0  0  0  0  0  0  0  0
   40.6220   29.6280   42.9930 H   0  0  0  0  0  0  0  0  0  0  0  0
   41.1500   27.1220   43.0280 H   0  0  0  0  0  0  0  0  0  0  0  0
   40.4990   27.9270   44.4720 H   0  0  0  0  0  0  0  0  0  0  0  0
   38.5770   26.6910   44.4030 H   0  0  0  0  0  0  0  0  0  0  0  0
   39.4740   25.6070   43.3080 H   0  0  0  0  0  0  0  0  0  0  0  0
   38.6310   26.6820   41.3490 H   0  0  0  0  0  0  0  0  0  0  0  0
   36.8300   28.5240   41.0980 C   0  0  0  0  0  0  0  0  0  0  0  0
   37.5570   28.2910   39.9140 C   0  0  0  0  0  0  0  0  0  0  0  0
   36.9450   28.4860   38.6790 C   0  0  0  0  0  0  0  0  0  0  0  0
   35.6490   28.9010   38.6850 N   0  0  0  0  0  0  0  0  0  0  0  0
   34.9720   29.1180   39.8410 C   0  0  0  0  0  0  0  0  0  0  0  0
   35.5600   28.9300   41.0440 N   0  0  0  0  0  0  0  0  0  0  0  0
   38.5800   27.9630   39.8190 H   0  0  0  0  0  0  0  0  0  0  0  0
   37.4370   28.3290   37.7280 H   0  0  0  0  0  0  0  0  0  0  0  0
   33.9490   29.4460   39.6950 H   0  0  0  0  0  0  0  0  0  0  0  0
   37.0040   25.9290   42.4930 C   0  0  0  0  0  3  0  0  0  0  0  0
   36.9790   24.6800   42.0520 C   0  0  0  0  0  3  0  0  0  0  0  0
   37.9550   23.8610   41.2900 C   0  0  0  0  0  2  0  0  0  0  0  0
   38.1970   22.9050   41.8000 H   0  0  0  0  0  0  0  0  0  0  0  0
  1  2  1  0  0  0  0
  1  7  1  1  0  0  0
  2  9  1  0  0  0  0
  3  2  1  0  0  0  0
  3 11  1  0  0  0  0
  3  4  1  0  0  0  0
  4  5  1  0  0  0  0
  4 13  1  0  0  0  0
  5 14  1  0  0  0  0
  6 16  1  6  0  0  0
  6  1  1  0  0  0  0
  6 26  1  0  0  0  0
  6  5  1  0  0  0  0
  8  2  1  0  0  0  0
 10  3  1  0  0  0  0
 12  4  1  0  0  0  0
 15  5  1  0  0  0  0
 17  1  1  0  0  0  0
 18 17  2  0  0  0  0
 19 20  2  0  0  0  0
 19 18  1  0  0  0  0
 20 21  1  0  0  0  0
 21 22  2  0  0  0  0
 22 17  1  0  0  0  0
 23 18  1  0  0  0  0
 24 19  1  0  0  0  0
 25 21  1  0  0  0  0
 27 26  2  0  0  0  0
 28 29  1  0  0  0  0
 28 27  1  0  0  0  0
M  END
>  <minimizedAffinity>
-4.52722645

$$$$

 OpenBabel03242511553D

 29 30  0  0  1  0  0  0  0  0999 V2000
   37.9690   27.2290   40.9420 C   0  0  2  0  0  0  0  0  0  0  0  0
   37.6870   26.5000   39.6880 C   0  0  0  0  0  0  0  0  0  0  0  0
   36.5740   25.5150   39.7970 C   0  0  0  0  0  0  0  0  0  0  0  0
   36.7590   24.5240   40.9280 C   0  0  0  0  0  0  0  0  0  0  0  0
   37.3240   25.1450   42.1800 C   0  0  0  0  0  0  0  0  0  0  0  0
   37.2310   26.6550   42.1380 C   0  0  1  0  0  0  0  0  0  0  0  0
   39.0540   27.1940   41.2500 H   0  0  0  0  0  0  0  0  0  0  0  0
   37.5170   27.1300   38.8140 H   0  0  0  0  0  0  0  0  0  0  0  0
   38.6130   25.8960   39.4520 H   0  0  0  0  0  0  0  0  0  0  0  0
   35.5590   25.8970   39.7880 H   0  0  0  0  0  0  0  0  0  0  0  0
   36.6410   24.8780   38.8630 H   0  0  0  0  0  0  0  0  0  0  0  0
   35.7560   24.0970   41.1370 H   0  0  0  0  0  0  0  0  0  0  0  0
   37.3910   23.6500   40.6040 H   0  0  0  0  0  0  0  0  0  0  0  0
   38.3630   24.8310   42.3030 H   0  0  0  0  0  0  0  0  0  0  0  0
   36.7470   24.8170   43.0550 H   0  0  0  0  0  0  0  0  0  0  0  0
   36.1710   26.9520   42.1530 H   0  0  0  0  0  0  0  0  0  0  0  0
   37.6150   28.6590   40.8490 C   0  0  0  0  0  0  0  0  0  0  0  0
   36.2400   28.9560   40.7660 C   0  0  0  0  0  0  0  0  0  0  0  0
   35.8240   30.2820   40.6800 C   0  0  0  0  0  0  0  0  0  0  0  0
   36.7920   31.2380   40.6790 N   0  0  0  0  0  0  0  0  0  0  0  0
   38.1110   30.9250   40.7600 C   0  0  0  0  0  0  0  0  0  0  0  0
   38.5210   29.6390   40.8440 N   0  0  0  0  0  0  0  0  0  0  0  0
   35.4120   28.2640   40.7610 H   0  0  0  0  0  0  0  0  0  0  0  0
   34.7890   30.5880   40.6130 H   0  0  0  0  0  0  0  0  0  0  0  0
   38.7670   31.7860   40.7480 H   0  0  0  0  0  0  0  0  0  0  0  0
   37.9070   27.1460   43.3660 C   0  0  0  0  0  3  0  0  0  0  0  0
   39.1770   26.9350   43.6800 C   0  0  0  0  0  3  0  0  0  0  0  0
   40.2750   26.2090   42.9940 C   0  0  0  0  0  2  0  0  0  0  0  0
   41.1760   26.8410   42.8460 H   0  0  0  0  0  0  0  0  0  0  0  0
  1  7  1  1  0  0  0
  1  6  1  0  0  0  0
  2  3  1  0  0  0  0
  2  1  1  0  0  0  0
  3  4  1  0  0  0  0
  4 12  1  0  0  0  0
  4  5  1  0  0  0  0
  5 14  1  0  0  0  0
  5 15  1  0  0  0  0
  6 16  1  6  0  0  0
  6  5  1  0  0  0  0
  6 26  1  0  0  0  0
  8  2  1  0  0  0  0
  9  2  1  0  0  0  0
 10  3  1  0  0  0  0
 11  3  1  0  0  0  0
 13  4  1  0  0  0  0
 17  1  1  0  0  0  0
 18 17  2  0  0  0  0
 19 18  1  0  0  0  0
 20 19  2  0  0  0  0
 20 21  1  0  0  0  0
 21 22  2  0  0  0  0
 22 17  1  0  0  0  0
 23 18  1  0  0  0  0
 24 19  1  0  0  0  0
 25 21  1  0  0  0  0
 26 27  2  0  0  0  0
 28 27  1  0  0  0  0
 29 28  1  0  0  0  0
M  END
>  <minimizedAffinity>
-4.46805859

$$$$

 OpenBabel03242511553D

 29 30  0  0  1  0  0  0  0  0999 V2000
   37.3260   29.8960   39.0040 C   0  0  2  0  0  0  0  0  0  0  0  0
   37.7030   29.7850   37.5810 C   0  0  0  0  0  0  0  0  0  0  0  0
   36.5490   29.8530   36.6400 C   0  0  0  0  0  0  0  0  0  0  0  0
   35.4590   28.8490   36.9550 C   0  0  0  0  0  0  0  0  0  0  0  0
   35.2030   28.6870   38.4320 C   0  0  0  0  0  0  0  0  0  0  0  0
   35.8260   29.8150   39.2270 C   0  0  1  0  0  0  0  0  0  0  0  0
   37.7400   29.0660   39.6470 H   0  0  0  0  0  0  0  0  0  0  0  0
   38.4710   30.4850   37.2490 H   0  0  0  0  0  0  0  0  0  0  0  0
   38.1520   28.7560   37.4460 H   0  0  0  0  0  0  0  0  0  0  0  0
   36.1200   30.8280   36.4370 H   0  0  0  0  0  0  0  0  0  0  0  0
   36.9530   29.5110   35.6390 H   0  0  0  0  0  0  0  0  0  0  0  0
   34.5410   29.2140   36.4490 H   0  0  0  0  0  0  0  0  0  0  0  0
   35.6790   27.8490   36.4830 H   0  0  0  0  0  0  0  0  0  0  0  0
   35.5980   27.7240   38.7640 H   0  0  0  0  0  0  0  0  0  0  0  0
   34.1240   28.7180   38.6310 H   0  0  0  0  0  0  0  0  0  0  0  0
   35.3180   30.7580   38.9730 H   0  0  0  0  0  0  0  0  0  0  0  0
   37.7940   31.1580   39.6110 C   0  0  0  0  0  0  0  0  0  0  0  0
   37.1600   32.3350   39.1670 C   0  0  0  0  0  0  0  0  0  0  0  0
   37.5420   33.5660   39.6930 C   0  0  0  0  0  0  0  0  0  0  0  0
   38.5310   33.5620   40.6280 N   0  0  0  0  0  0  0  0  0  0  0  0
   39.1270   32.4130   41.0380 C   0  0  0  0  0  0  0  0  0  0  0  0
   38.7590   31.2140   40.5300 N   0  0  0  0  0  0  0  0  0  0  0  0
   36.3720   32.4270   38.4350 H   0  0  0  0  0  0  0  0  0  0  0  0
   37.1030   34.5110   39.4030 H   0  0  0  0  0  0  0  0  0  0  0  0
   39.8970   32.5610   41.7850 H   0  0  0  0  0  0  0  0  0  0  0  0
   35.5960   29.4900   40.6570 C   0  0  0  0  0  3  0  0  0  0  0  0
   36.0520   28.4140   41.2820 C   0  0  0  0  0  3  0  0  0  0  0  0
   36.8720   27.2610   40.8330 C   0  0  0  0  0  2  0  0  0  0  0  0
   37.7760   27.1130   41.4600 H   0  0  0  0  0  0  0  0  0  0  0  0
  1  6  1  0  0  0  0
  1 17  1  0  0  0  0
  1  7  1  1  0  0  0
  2  1  1  0  0  0  0
  3  4  1  0  0  0  0
  3  2  1  0  0  0  0
  4  5  1  0  0  0  0
  5 15  1  0  0  0  0
  5 14  1  0  0  0  0
  5  6  1  0  0  0  0
  6 16  1  6  0  0  0
  6 26  1  0  0  0  0
  8  2  1  0  0  0  0
  9  2  1  0  0  0  0
 10  3  1  0  0  0  0
 11  3  1  0  0  0  0
 12  4  1  0  0  0  0
 13  4  1  0  0  0  0
 17 22  1  0  0  0  0
 18 17  2  0  0  0  0
 18 19  1  0  0  0  0
 19 20  2  0  0  0  0
 20 21  1  0  0  0  0
 21 25  1  0  0  0  0
 22 21  2  0  0  0  0
 23 18  1  0  0  0  0
 24 19  1  0  0  0  0
 26 27  2  0  0  0  0
 28 27  1  0  0  0  0
 28 29  1  0  0  0  0
M  END
>  <minimizedAffinity>
-4.37222195

$$$$

 OpenBabel03242511553D

 29 30  0  0  1  0  0  0  0  0999 V2000
   37.7010   27.7330   40.7140 C   0  0  2  0  0  0  0  0  0  0  0  0
   39.0920   27.7040   41.2100 C   0  0  0  0  0  0  0  0  0  0  0  0
   39.2420   28.1630   42.6200 C   0  0  0  0  0  0  0  0  0  0  0  0
   38.6420   29.5320   42.8720 C   0  0  0  0  0  0  0  0  0  0  0  0
   37.3340   29.7520   42.1560 C   0  0  0  0  0  0  0  0  0  0  0  0
   36.7500   28.4480   41.6580 C   0  0  1  0  0  0  0  0  0  0  0  0
   37.5810   28.2860   39.7380 H   0  0  0  0  0  0  0  0  0  0  0  0
   39.6060   26.7480   41.0940 H   0  0  0  0  0  0  0  0  0  0  0  0
   39.6740   28.4410   40.5810 H   0  0  0  0  0  0  0  0  0  0  0  0
   38.9590   27.4750   43.4080 H   0  0  0  0  0  0  0  0  0  0  0  0
   40.3530   28.3210   42.7710 H   0  0  0  0  0  0  0  0  0  0  0  0
   38.4910   29.6100   43.9690 H   0  0  0  0  0  0  0  0  0  0  0  0
   39.3730   30.3490   42.6140 H   0  0  0  0  0  0  0  0  0  0  0  0
   37.4890   30.4430   41.3230 H   0  0  0  0  0  0  0  0  0  0  0  0
   36.5970   30.1860   42.8450 H   0  0  0  0  0  0  0  0  0  0  0  0
   36.4750   27.8230   42.5210 H   0  0  0  0  0  0  0  0  0  0  0  0
   37.1600   26.3780   40.4850 C   0  0  0  0  0  0  0  0  0  0  0  0
   37.1700   25.5080   41.5940 C   0  0  0  0  0  0  0  0  0  0  0  0
   36.6740   24.2150   41.4610 C   0  0  0  0  0  0  0  0  0  0  0  0
   36.1970   23.8550   40.2400 N   0  0  0  0  0  0  0  0  0  0  0  0
   36.1990   24.7120   39.1870 C   0  0  0  0  0  0  0  0  0  0  0  0
   36.6790   25.9700   39.3100 N   0  0  0  0  0  0  0  0  0  0  0  0
   37.5270   25.7120   42.5920 H   0  0  0  0  0  0  0  0  0  0  0  0
   36.6490   23.4910   42.2650 H   0  0  0  0  0  0  0  0  0  0  0  0
   35.7890   24.2900   38.2770 H   0  0  0  0  0  0  0  0  0  0  0  0
   35.5310   28.8060   40.8890 C   0  0  0  0  0  3  0  0  0  0  0  0
   35.4980   29.6040   39.8310 C   0  0  0  0  0  3  0  0  0  0  0  0
   36.5520   30.3550   39.1030 C   0  0  0  0  0  2  0  0  0  0  0  0
   36.5650   30.1240   38.0180 H   0  0  0  0  0  0  0  0  0  0  0  0
  1  7  1  6  0  0  0
  1  2  1  0  0  0  0
  1  6  1  0  0  0  0
  2  3  1  0  0  0  0
  3 11  1  0  0  0  0
  3  4  1  0  0  0  0
  3 10  1  0  0  0  0
  4 12  1  0  0  0  0
  5 15  1  0  0  0  0
  5  4  1  0  0  0  0
  6  5  1  0  0  0  0
  6 16  1  1  0  0  0
  8  2  1  0  0  0  0
  9  2  1  0  0  0  0
 13  4  1  0  0  0  0
 14  5  1  0  0  0  0
 17  1  1  0  0  0  0
 17 18  1  0  0  0  0
 18 23  1  0  0  0  0
 19 18  2  0  0  0  0
 19 24  1  0  0  0  0
 20 19  1  0  0  0  0
 21 22  1  0  0  0  0
 21 20  2  0  0  0  0
 22 17  2  0  0  0  0
 25 21  1  0  0  0  0
 26  6  1  0  0  0  0
 27 26  2  0  0  0  0
 28 27  1  0  0  0  0
 29 28  1  0  0  0  0
M  END
>  <minimizedAffinity>
-4.27915001

$$$$

 OpenBabel03242511553D

 29 30  0  0  1  0  0  0  0  0999 V2000
   37.5050   26.9420   42.5320 C   0  0  2  0  0  0  0  0  0  0  0  0
   38.4040   27.3960   43.6120 C   0  0  0  0  0  0  0  0  0  0  0  0
   39.7850   26.8420   43.5250 C   0  0  0  0  0  0  0  0  0  0  0  0
   39.8210   25.3300   43.4380 C   0  0  0  0  0  0  0  0  0  0  0  0
   38.7360   24.7560   42.5640 C   0  0  0  0  0  0  0  0  0  0  0  0
   38.1030   25.8230   41.6970 C   0  0  1  0  0  0  0  0  0  0  0  0
   36.5310   26.5120   42.9050 H   0  0  0  0  0  0  0  0  0  0  0  0
   38.4640   28.4780   43.7410 H   0  0  0  0  0  0  0  0  0  0  0  0
   37.9720   26.9980   44.5790 H   0  0  0  0  0  0  0  0  0  0  0  0
   40.4590   27.2800   42.7980 H   0  0  0  0  0  0  0  0  0  0  0  0
   40.2660   27.0690   44.5250 H   0  0  0  0  0  0  0  0  0  0  0  0
   40.8170   25.0640   43.0300 H   0  0  0  0  0  0  0  0  0  0  0  0
   39.7870   24.8640   44.4640 H   0  0  0  0  0  0  0  0  0  0  0  0
   37.9800   24.2770   43.1920 H   0  0  0  0  0  0  0  0  0  0  0  0
   39.1600   24.0060   41.8830 H   0  0  0  0  0  0  0  0  0  0  0  0
   38.8500   26.1940   40.9790 H   0  0  0  0  0  0  0  0  0  0  0  0
   37.1430   28.0360   41.6080 C   0  0  0  0  0  0  0  0  0  0  0  0
   38.2030   28.6180   40.8870 C   0  0  0  0  0  0  0  0  0  0  0  0
   37.9440   29.6540   39.9930 C   0  0  0  0  0  0  0  0  0  0  0  0
   36.6500   30.0540   39.8650 N   0  0  0  0  0  0  0  0  0  0  0  0
   35.6460   29.4760   40.5730 C   0  0  0  0  0  0  0  0  0  0  0  0
   35.8920   28.4700   41.4430 N   0  0  0  0  0  0  0  0  0  0  0  0
   39.2510   28.3630   40.9270 H   0  0  0  0  0  0  0  0  0  0  0  0
   38.7040   30.1500   39.4050 H   0  0  0  0  0  0  0  0  0  0  0  0
   34.6690   29.8960   40.3710 H   0  0  0  0  0  0  0  0  0  0  0  0
   36.9920   25.1590   40.9670 C   0  0  0  0  0  3  0  0  0  0  0  0
   36.8240   25.1660   39.6530 C   0  0  0  0  0  3  0  0  0  0  0  0
   37.5990   25.7760   38.5430 C   0  0  0  0  0  2  0  0  0  0  0  0
   37.8860   25.0340   37.7690 H   0  0  0  0  0  0  0  0  0  0  0  0
  1  7  1  1  0  0  0
  1  2  1  0  0  0  0
  2  8  1  0  0  0  0
  2  9  1  0  0  0  0
  3  2  1  0  0  0  0
  3 11  1  0  0  0  0
  4  3  1  0  0  0  0
  4 13  1  0  0  0  0
  5 14  1  0  0  0  0
  5  4  1  0  0  0  0
  6 16  1  6  0  0  0
  6  1  1  0  0  0  0
  6  5  1  0  0  0  0
 10  3  1  0  0  0  0
 12  4  1  0  0  0  0
 15  5  1  0  0  0  0
 17  1  1  0  0  0  0
 18 23  1  0  0  0  0
 18 17  2  0  0  0  0
 19 18  1  0  0  0  0
 20 19  2  0  0  0  0
 20 21  1  0  0  0  0
 21 22  2  0  0  0  0
 22 17  1  0  0  0  0
 24 19  1  0  0  0  0
 25 21  1  0  0  0  0
 26  6  1  0  0  0  0
 27 26  2  0  0  0  0
 28 27  1  0  0  0  0
 29 28  1  0  0  0  0
M  END
>  <minimizedAffinity>
-4.27180815

$$$$

 OpenBabel03242511553D

 29 30  0  0  1  0  0  0  0  0999 V2000
   38.8720   29.1350   42.5710 C   0  0  2  0  0  0  0  0  0  0  0  0
   40.1770   29.8260   42.5590 C   0  0  0  0  0  0  0  0  0  0  0  0
   41.3440   28.9160   42.3820 C   0  0  0  0  0  0  0  0  0  0  0  0
   41.3790   27.7840   43.3890 C   0  0  0  0  0  0  0  0  0  0  0  0
   40.0200   27.2000   43.6790 C   0  0  0  0  0  0  0  0  0  0  0  0
   39.0030   27.6240   42.6420 C   0  0  1  0  0  0  0  0  0  0  0  0
   38.2320   29.3940   43.4640 H   0  0  0  0  0  0  0  0  0  0  0  0
   40.2600   30.6490   41.8460 H   0  0  0  0  0  0  0  0  0  0  0  0
   40.3030   30.2950   43.5800 H   0  0  0  0  0  0  0  0  0  0  0  0
   41.5460   28.5420   41.3850 H   0  0  0  0  0  0  0  0  0  0  0  0
   42.2550   29.5370   42.6390 H   0  0  0  0  0  0  0  0  0  0  0  0
   42.0420   27.0040   42.9610 H   0  0  0  0  0  0  0  0  0  0  0  0
   41.8800   28.1060   44.3460 H   0  0  0  0  0  0  0  0  0  0  0  0
   39.6980   27.5100   44.6770 H   0  0  0  0  0  0  0  0  0  0  0  0
   40.0680   26.1030   43.6450 H   0  0  0  0  0  0  0  0  0  0  0  0
   39.2750   27.1860   41.6700 H   0  0  0  0  0  0  0  0  0  0  0  0
   38.0590   29.4520   41.3790 C   0  0  0  0  0  0  0  0  0  0  0  0
   36.9360   30.2750   41.5930 C   0  0  0  0  0  0  0  0  0  0  0  0
   36.1210   30.6230   40.5200 C   0  0  0  0  0  0  0  0  0  0  0  0
   36.4630   30.1360   39.2960 N   0  0  0  0  0  0  0  0  0  0  0  0
   37.5510   29.3440   39.1180 C   0  0  0  0  0  0  0  0  0  0  0  0
   38.3470   29.0030   40.1570 N   0  0  0  0  0  0  0  0  0  0  0  0
   36.5950   30.7020   42.5240 H   0  0  0  0  0  0  0  0  0  0  0  0
   35.2430   31.2490   40.6050 H   0  0  0  0  0  0  0  0  0  0  0  0
   37.7010   29.0310   38.0920 H   0  0  0  0  0  0  0  0  0  0  0  0
   37.6980   27.0760   43.0920 C   0  0  0  0  0  3  0  0  0  0  0  0
   36.9650   26.1960   42.4270 C   0  0  0  0  0  3  0  0  0  0  0  0
   37.1540   25.5060   41.1260 C   0  0  0  0  0  2  0  0  0  0  0  0
   37.0840   24.4010   41.2170 H   0  0  0  0  0  0  0  0  0  0  0  0
  1  6  1  0  0  0  0
  1  7  1  1  0  0  0
  2  1  1  0  0  0  0
  2  9  1  0  0  0  0
  3  2  1  0  0  0  0
  3 11  1  0  0  0  0
  3  4  1  0  0  0  0
  4  5  1  0  0  0  0
  4 13  1  0  0  0  0
  5 14  1  0  0  0  0
  6 16  1  6  0  0  0
  6 26  1  0  0  0  0
  6  5  1  0  0  0  0
  8  2  1  0  0  0  0
 10  3  1  0  0  0  0
 12  4  1  0  0  0  0
 15  5  1  0  0  0  0
 17 18  1  0  0  0  0
 17  1  1  0  0  0  0
 18 23  1  0  0  0  0
 19 24  1  0  0  0  0
 19 18  2  0  0  0  0
 20 19  1  0  0  0  0
 21 20  2  0  0  0  0
 21 22  1  0  0  0  0
 22 17  2  0  0  0  0
 25 21  1  0  0  0  0
 27 26  2  0  0  0  0
 28 29  1  0  0  0  0
 28 27  1  0  0  0  0
M  END
>  <minimizedAffinity>
-4.23214388

$$$$

 OpenBabel03242511553D

 29 30  0  0  1  0  0  0  0  0999 V2000
   38.6310   27.4590   42.7920 C   0  0  2  0  0  0  0  0  0  0  0  0
   39.6250   26.4140   43.1080 C   0  0  0  0  0  0  0  0  0  0  0  0
   39.4940   25.1820   42.2790 C   0  0  0  0  0  0  0  0  0  0  0  0
   38.1020   24.5840   42.3100 C   0  0  0  0  0  0  0  0  0  0  0  0
   37.0060   25.6180   42.2790 C   0  0  0  0  0  0  0  0  0  0  0  0
   37.5370   26.9720   41.8590 C   0  0  1  0  0  0  0  0  0  0  0  0
   38.0700   27.8370   43.6950 H   0  0  0  0  0  0  0  0  0  0  0  0
   40.6660   26.7420   43.0900 H   0  0  0  0  0  0  0  0  0  0  0  0
   39.4260   26.0920   44.1740 H   0  0  0  0  0  0  0  0  0  0  0  0
   39.8700   25.2140   41.2630 H   0  0  0  0  0  0  0  0  0  0  0  0
   40.1360   24.4020   42.7910 H   0  0  0  0  0  0  0  0  0  0  0  0
   38.0250   23.9240   41.4210 H   0  0  0  0  0  0  0  0  0  0  0  0
   37.9720   23.9020   43.1980 H   0  0  0  0  0  0  0  0  0  0  0  0
   36.5390   25.6810   43.2650 H   0  0  0  0  0  0  0  0  0  0  0  0
   36.2430   25.3350   41.5420 H   0  0  0  0  0  0  0  0  0  0  0  0
   37.8770   26.9180   40.8130 H   0  0  0  0  0  0  0  0  0  0  0  0
   39.2480   28.6470   42.1670 C   0  0  0  0  0  0  0  0  0  0  0  0
   39.2200   29.8340   42.9250 C   0  0  0  0  0  0  0  0  0  0  0  0
   39.7830   30.9970   42.4070 C   0  0  0  0  0  0  0  0  0  0  0  0
   40.3420   30.9190   41.1690 N   0  0  0  0  0  0  0  0  0  0  0  0
   40.3550   29.7620   40.4590 C   0  0  0  0  0  0  0  0  0  0  0  0
   39.8090   28.6290   40.9570 N   0  0  0  0  0  0  0  0  0  0  0  0
   38.8010   29.9820   43.9080 H   0  0  0  0  0  0  0  0  0  0  0  0
   39.8000   31.9450   42.9280 H   0  0  0  0  0  0  0  0  0  0  0  0
   40.8310   29.8480   39.4900 H   0  0  0  0  0  0  0  0  0  0  0  0
   36.3950   27.9160   41.9670 C   0  0  0  0  0  3  0  0  0  0  0  0
   35.8680   28.6020   40.9630 C   0  0  0  0  0  3  0  0  0  0  0  0
   36.1880   28.6730   39.5150 C   0  0  0  0  0  2  0  0  0  0  0  0
   35.3060   28.4620   38.8740 H   0  0  0  0  0  0  0  0  0  0  0  0
  1  2  1  0  0  0  0
  1  7  1  1  0  0  0
  2  9  1  0  0  0  0
  3  4  1  0  0  0  0
  3 11  1  0  0  0  0
  3  2  1  0  0  0  0
  4 13  1  0  0  0  0
  5  4  1  0  0  0  0
  5 14  1  0  0  0  0
  6 16  1  6  0  0  0
  6 26  1  0  0  0  0
  6  5  1  0  0  0  0
  6  1  1  0  0  0  0
  8  2  1  0  0  0  0
 10  3  1  0  0  0  0
 12  4  1  0  0  0  0
 15  5  1  0  0  0  0
 17  1  1  0  0  0  0
 17 18  1  0  0  0  0
 18 23  1  0  0  0  0
 19 18  2  0  0  0  0
 19 24  1  0  0  0  0
 20 19  1  0  0  0  0
 21 22  1  0  0  0  0
 21 20  2  0  0  0  0
 22 17  2  0  0  0  0
 25 21  1  0  0  0  0
 27 26  2  0  0  0  0
 28 27  1  0  0  0  0
 29 28  1  0  0  0  0
M  END
>  <minimizedAffinity>
-4.2102108

$$$$
