
 OpenBabel03252508213D

 29 30  0  0  0  0  0  0  0  0999 V2000
   44.4150   33.8410   41.1220 C   0  0  0  0  0  0  0  0  0  0  0  0
   43.9240   34.6480   41.7420 H   0  0  0  0  0  0  0  0  0  0  0  0
   44.2070   32.9020   41.6370 H   0  0  0  0  0  0  0  0  0  0  0  0
   45.8280   34.2320   41.0380 C   0  0  0  0  0  0  0  0  0  0  0  0
   46.6690   33.8890   40.0140 C   0  0  0  0  0  0  0  0  0  0  0  0
   48.0090   34.2370   39.8950 C   0  0  0  0  0  0  0  0  0  0  0  0
   48.4940   35.0140   40.9540 C   0  0  0  0  0  0  0  0  0  0  0  0
   47.6720   35.3770   42.0020 C   0  0  0  0  0  0  0  0  0  0  0  0
   46.3600   35.0040   42.0640 C   0  0  0  0  0  0  0  0  0  0  0  0
   46.2780   33.2870   39.2020 H   0  0  0  0  0  0  0  0  0  0  0  0
   48.6330   33.9550   39.0870 H   0  0  0  0  0  0  0  0  0  0  0  0
   49.5440   35.3080   40.8980 H   0  0  0  0  0  0  0  0  0  0  0  0
   48.1730   35.9780   42.7550 H   0  0  0  0  0  0  0  0  0  0  0  0
   45.5380   35.4160   43.1960 C   0  0  0  0  0  3  0  0  0  0  0  0
   45.4880   34.7970   44.3630 C   0  0  0  0  0  3  0  0  0  0  0  0
   44.6320   35.2620   45.4840 C   0  0  0  0  0  2  0  0  0  0  0  0
   43.7700   34.5660   45.6060 H   0  0  0  0  0  0  0  0  0  0  0  0
   43.7280   33.9390   39.7620 C   0  0  0  0  0  0  0  0  0  0  0  0
   44.3530   34.6480   39.1780 H   0  0  0  0  0  0  0  0  0  0  0  0
   43.6530   32.9560   39.2930 H   0  0  0  0  0  0  0  0  0  0  0  0
   40.9220   35.9470   41.2790 C   0  0  0  0  0  0  0  0  0  0  0  0
   42.1930   35.3400   41.1180 C   0  0  0  0  0  0  0  0  0  0  0  0
   42.4180   34.5820   39.9580 C   0  0  0  0  0  0  0  0  0  0  0  0
   41.3810   34.4800   39.0560 N   0  0  0  0  0  0  0  0  0  0  0  0
   40.2080   35.0720   39.2600 C   0  0  0  0  0  0  0  0  0  0  0  0
   39.9580   35.8090   40.3640 N   0  0  0  0  0  0  0  0  0  0  0  0
   40.8140   36.5200   42.1960 H   0  0  0  0  0  0  0  0  0  0  0  0
   42.9550   35.4760   41.8860 H   0  0  0  0  0  0  0  0  0  0  0  0
   39.4710   34.9210   38.4800 H   0  0  0  0  0  0  0  0  0  0  0  0
  1  3  1  0  0  0  0
  1  2  1  0  0  0  0
  4  1  1  0  0  0  0
  4  9  1  0  0  0  0
  5  4  2  0  0  0  0
  6  5  1  0  0  0  0
  6  7  2  0  0  0  0
  7  8  1  0  0  0  0
  8  9  2  0  0  0  0
  8 13  1  0  0  0  0
  9 14  1  0  0  0  0
 10  5  1  0  0  0  0
 11  6  1  0  0  0  0
 12  7  1  0  0  0  0
 14 15  2  0  0  0  0
 15 16  1  0  0  0  0
 16 17  1  0  0  0  0
 18 23  1  0  0  0  0
 18  1  1  0  0  0  0
 19 18  1  0  0  0  0
 20 18  1  0  0  0  0
 21 27  1  0  0  0  0
 22 21  1  0  0  0  0
 22 28  1  0  0  0  0
 23 22  2  0  0  0  0
 24 25  2  0  0  0  0
 24 23  1  0  0  0  0
 25 26  1  0  0  0  0
 26 21  2  0  0  0  0
 29 25  1  0  0  0  0
M  END
>  <minimizedAffinity>
-5.30462551

>  <minimizedRMSD>
1.46579432

$$$$
