
 OpenBabel03242521403D

 16 16  0  0  0  0  0  0  0  0999 V2000
   37.8610   32.4560   40.3700 C   0  0  0  0  0  0  0  0  0  0  0  0
   37.0920   31.3320   40.6780 C   0  0  0  0  0  0  0  0  0  0  0  0
   37.6810   30.3610   41.5020 C   0  0  0  0  0  0  0  0  0  0  0  0
   38.9400   30.5710   41.9400 N   0  0  0  0  0  0  0  0  0  0  0  0
   39.6480   31.6750   41.6160 C   0  0  0  0  0  0  0  0  0  0  0  0
   39.0980   32.6250   40.8220 N   0  0  0  0  0  0  0  0  0  0  0  0
   36.0790   31.1790   40.3170 H   0  0  0  0  0  0  0  0  0  0  0  0
   40.6530   31.7760   42.0050 H   0  0  0  0  0  0  0  0  0  0  0  0
   37.2170   33.4890   39.4870 C   0  0  0  0  0  0  0  0  0  0  0  0
   36.1660   33.6810   39.7540 H   0  0  0  0  0  0  0  0  0  0  0  0
   37.7840   34.4470   39.5900 H   0  0  0  0  0  0  0  0  0  0  0  0
   37.3130   33.2000   38.4130 H   0  0  0  0  0  0  0  0  0  0  0  0
   36.9700   29.1480   41.8880 C   0  0  0  0  0  3  0  0  0  0  0  0
   37.2730   28.5360   43.0230 C   0  0  0  0  0  3  0  0  0  0  0  0
   36.5590   27.3030   43.4320 C   0  0  0  0  0  2  0  0  0  0  0  0
   37.0620   26.8470   44.3040 H   0  0  0  0  0  0  0  0  0  0  0  0
  1  2  2  0  0  0  0
  1  6  1  0  0  0  0
  2  3  1  0  0  0  0
  3 13  1  0  0  0  0
  3  4  2  0  0  0  0
  5  4  1  0  0  0  0
  5  8  1  0  0  0  0
  6  5  2  0  0  0  0
  7  2  1  0  0  0  0
  9 11  1  0  0  0  0
  9 10  1  0  0  0  0
  9  1  1  0  0  0  0
 12  9  1  0  0  0  0
 13 14  2  0  0  0  0
 14 15  1  0  0  0  0
 15 16  1  0  0  0  0
M  END
>  <minimizedAffinity>
-3.60524344

$$$$

 OpenBabel03242521403D

 16 16  0  0  0  0  0  0  0  0999 V2000
   37.4360   28.4890   42.7850 C   0  0  0  0  0  0  0  0  0  0  0  0
   36.8350   29.3840   41.8970 C   0  0  0  0  0  0  0  0  0  0  0  0
   37.6360   30.4230   41.3970 C   0  0  0  0  0  0  0  0  0  0  0  0
   38.9220   30.4910   41.8020 N   0  0  0  0  0  0  0  0  0  0  0  0
   39.4610   29.6020   42.6630 C   0  0  0  0  0  0  0  0  0  0  0  0
   38.7060   28.5920   43.1580 N   0  0  0  0  0  0  0  0  0  0  0  0
   35.7980   29.3150   41.5820 H   0  0  0  0  0  0  0  0  0  0  0  0
   40.5000   29.7190   42.9440 H   0  0  0  0  0  0  0  0  0  0  0  0
   36.5660   27.3810   43.3120 C   0  0  0  0  0  0  0  0  0  0  0  0
   35.9280   26.9360   42.5330 H   0  0  0  0  0  0  0  0  0  0  0  0
   37.2260   26.5790   43.7250 H   0  0  0  0  0  0  0  0  0  0  0  0
   35.9570   27.7400   44.1760 H   0  0  0  0  0  0  0  0  0  0  0  0
   37.1140   31.4140   40.4650 C   0  0  0  0  0  3  0  0  0  0  0  0
   37.7110   32.5910   40.3460 C   0  0  0  0  0  3  0  0  0  0  0  0
   37.1940   33.6090   39.4020 C   0  0  0  0  0  2  0  0  0  0  0  0
   37.7070   34.5740   39.5680 H   0  0  0  0  0  0  0  0  0  0  0  0
  1  6  1  0  0  0  0
  1  9  1  0  0  0  0
  2  1  2  0  0  0  0
  3  4  2  0  0  0  0
  3  2  1  0  0  0  0
  4  5  1  0  0  0  0
  5  8  1  0  0  0  0
  5  6  2  0  0  0  0
  7  2  1  0  0  0  0
  9 11  1  0  0  0  0
  9 12  1  0  0  0  0
 10  9  1  0  0  0  0
 13  3  1  0  0  0  0
 14 13  2  0  0  0  0
 15 16  1  0  0  0  0
 15 14  1  0  0  0  0
M  END
>  <minimizedAffinity>
-3.56622934

$$$$

 OpenBabel03242521403D

 16 16  0  0  0  0  0  0  0  0999 V2000
   37.2660   28.9510   42.1430 C   0  0  0  0  0  0  0  0  0  0  0  0
   37.6640   30.2280   41.7430 C   0  0  0  0  0  0  0  0  0  0  0  0
   36.8810   30.8660   40.7670 C   0  0  0  0  0  0  0  0  0  0  0  0
   35.8050   30.2120   40.2830 N   0  0  0  0  0  0  0  0  0  0  0  0
   35.4560   28.9760   40.7010 C   0  0  0  0  0  0  0  0  0  0  0  0
   36.1980   28.3420   41.6410 N   0  0  0  0  0  0  0  0  0  0  0  0
   38.5340   30.7400   42.1430 H   0  0  0  0  0  0  0  0  0  0  0  0
   34.5790   28.5120   40.2670 H   0  0  0  0  0  0  0  0  0  0  0  0
   38.1130   28.2800   43.1890 C   0  0  0  0  0  0  0  0  0  0  0  0
   38.4170   28.9670   43.9940 H   0  0  0  0  0  0  0  0  0  0  0  0
   37.5220   27.4470   43.6440 H   0  0  0  0  0  0  0  0  0  0  0  0
   39.0010   27.7930   42.7190 H   0  0  0  0  0  0  0  0  0  0  0  0
   37.2040   32.1990   40.2750 C   0  0  0  0  0  3  0  0  0  0  0  0
   38.3300   32.7890   40.6510 C   0  0  0  0  0  3  0  0  0  0  0  0
   38.6740   34.1440   40.1600 C   0  0  0  0  0  2  0  0  0  0  0  0
   39.5490   34.5350   40.7110 H   0  0  0  0  0  0  0  0  0  0  0  0
  1  9  1  0  0  0  0
  2  1  1  0  0  0  0
  2  7  1  0  0  0  0
  3  2  2  0  0  0  0
  4  5  2  0  0  0  0
  4  3  1  0  0  0  0
  5  6  1  0  0  0  0
  6  1  2  0  0  0  0
  8  5  1  0  0  0  0
  9 11  1  0  0  0  0
  9 10  1  0  0  0  0
 12  9  1  0  0  0  0
 13 14  2  0  0  0  0
 13  3  1  0  0  0  0
 15 14  1  0  0  0  0
 15 16  1  0  0  0  0
M  END
>  <minimizedAffinity>
-3.51568151

$$$$

 OpenBabel03242521403D

 16 16  0  0  0  0  0  0  0  0999 V2000
   37.3450   30.3050   41.3210 C   0  0  0  0  0  0  0  0  0  0  0  0
   36.8080   29.0350   41.5430 C   0  0  0  0  0  0  0  0  0  0  0  0
   37.5410   28.1660   42.3670 C   0  0  0  0  0  0  0  0  0  0  0  0
   38.7060   28.6080   42.8870 N   0  0  0  0  0  0  0  0  0  0  0  0
   39.1870   29.8470   42.6450 C   0  0  0  0  0  0  0  0  0  0  0  0
   38.4950   30.7010   41.8520 N   0  0  0  0  0  0  0  0  0  0  0  0
   35.8690   28.6950   41.1160 H   0  0  0  0  0  0  0  0  0  0  0  0
   40.1290   30.1320   43.0960 H   0  0  0  0  0  0  0  0  0  0  0  0
   36.5490   31.2250   40.4360 C   0  0  0  0  0  0  0  0  0  0  0  0
   35.4690   31.1850   40.6470 H   0  0  0  0  0  0  0  0  0  0  0  0
   36.9000   32.2720   40.6060 H   0  0  0  0  0  0  0  0  0  0  0  0
   36.7580   31.0110   39.3610 H   0  0  0  0  0  0  0  0  0  0  0  0
   37.0760   26.8180   42.6670 C   0  0  0  0  0  3  0  0  0  0  0  0
   37.2740   25.8400   41.7950 C   0  0  0  0  0  3  0  0  0  0  0  0
   36.8080   24.4630   42.0840 C   0  0  0  0  0  2  0  0  0  0  0  0
   36.9030   23.8350   41.1800 H   0  0  0  0  0  0  0  0  0  0  0  0
  1  2  2  0  0  0  0
  1  6  1  0  0  0  0
  2  3  1  0  0  0  0
  3 13  1  0  0  0  0
  3  4  2  0  0  0  0
  5  4  1  0  0  0  0
  5  8  1  0  0  0  0
  6  5  2  0  0  0  0
  7  2  1  0  0  0  0
  9 11  1  0  0  0  0
  9 10  1  0  0  0  0
  9  1  1  0  0  0  0
 12  9  1  0  0  0  0
 14 15  1  0  0  0  0
 14 13  2  0  0  0  0
 16 15  1  0  0  0  0
M  END
>  <minimizedAffinity>
-3.49200177

$$$$

 OpenBabel03242521403D

 16 16  0  0  0  0  0  0  0  0999 V2000
   38.2150   27.1170   43.3040 C   0  0  0  0  0  0  0  0  0  0  0  0
   37.3390   26.3090   42.5760 C   0  0  0  0  0  0  0  0  0  0  0  0
   37.7860   25.0210   42.2420 C   0  0  0  0  0  0  0  0  0  0  0  0
   39.0210   24.6490   42.6390 N   0  0  0  0  0  0  0  0  0  0  0  0
   39.8350   25.4650   43.3430 C   0  0  0  0  0  0  0  0  0  0  0  0
   39.4230   26.7130   43.6760 N   0  0  0  0  0  0  0  0  0  0  0  0
   36.3480   26.6240   42.2640 H   0  0  0  0  0  0  0  0  0  0  0  0
   40.8130   25.0990   43.6280 H   0  0  0  0  0  0  0  0  0  0  0  0
   37.7220   28.4940   43.6560 C   0  0  0  0  0  0  0  0  0  0  0  0
   36.6720   28.4970   43.9870 H   0  0  0  0  0  0  0  0  0  0  0  0
   38.3530   28.8950   44.4880 H   0  0  0  0  0  0  0  0  0  0  0  0
   37.8770   29.1950   42.8010 H   0  0  0  0  0  0  0  0  0  0  0  0
   36.9560   24.0930   41.4850 C   0  0  0  0  0  3  0  0  0  0  0  0
   36.4360   24.4640   40.3240 C   0  0  0  0  0  3  0  0  0  0  0  0
   35.5900   23.5330   39.5410 C   0  0  0  0  0  2  0  0  0  0  0  0
   35.1120   24.0710   38.7030 H   0  0  0  0  0  0  0  0  0  0  0  0
  1  9  1  0  0  0  0
  1  6  1  0  0  0  0
  2  1  2  0  0  0  0
  3  2  1  0  0  0  0
  3  4  2  0  0  0  0
  4  5  1  0  0  0  0
  5  8  1  0  0  0  0
  5  6  2  0  0  0  0
  7  2  1  0  0  0  0
  9 10  1  0  0  0  0
  9 11  1  0  0  0  0
 12  9  1  0  0  0  0
 13  3  1  0  0  0  0
 14 13  2  0  0  0  0
 15 14  1  0  0  0  0
 16 15  1  0  0  0  0
M  END
>  <minimizedAffinity>
-3.46739078

$$$$

 OpenBabel03242521403D

 16 16  0  0  0  0  0  0  0  0999 V2000
   38.4270   29.6580   42.4950 C   0  0  0  0  0  0  0  0  0  0  0  0
   37.4120   29.8720   41.5600 C   0  0  0  0  0  0  0  0  0  0  0  0
   36.3830   28.9190   41.5030 C   0  0  0  0  0  0  0  0  0  0  0  0
   36.4390   27.8670   42.3460 N   0  0  0  0  0  0  0  0  0  0  0  0
   37.4410   27.6990   43.2360 C   0  0  0  0  0  0  0  0  0  0  0  0
   38.4450   28.6070   43.3070 N   0  0  0  0  0  0  0  0  0  0  0  0
   37.3830   30.7250   40.8890 H   0  0  0  0  0  0  0  0  0  0  0  0
   37.4200   26.8300   43.8810 H   0  0  0  0  0  0  0  0  0  0  0  0
   39.5230   30.6860   42.5460 C   0  0  0  0  0  0  0  0  0  0  0  0
   39.1410   31.7170   42.4740 H   0  0  0  0  0  0  0  0  0  0  0  0
   40.0640   30.5810   43.5180 H   0  0  0  0  0  0  0  0  0  0  0  0
   40.2860   30.4840   41.7560 H   0  0  0  0  0  0  0  0  0  0  0  0
   35.2740   29.0430   40.5660 C   0  0  0  0  0  3  0  0  0  0  0  0
   35.4410   28.7100   39.2950 C   0  0  0  0  0  3  0  0  0  0  0  0
   34.3230   28.8290   38.3290 C   0  0  0  0  0  2  0  0  0  0  0  0
   34.6960   28.6770   37.3000 H   0  0  0  0  0  0  0  0  0  0  0  0
  1  9  1  0  0  0  0
  1  6  1  0  0  0  0
  2  1  2  0  0  0  0
  3  2  1  0  0  0  0
  3  4  2  0  0  0  0
  4  5  1  0  0  0  0
  5  6  2  0  0  0  0
  5  8  1  0  0  0  0
  7  2  1  0  0  0  0
  9 11  1  0  0  0  0
 10  9  1  0  0  0  0
 12  9  1  0  0  0  0
 13  3  1  0  0  0  0
 14 13  2  0  0  0  0
 15 14  1  0  0  0  0
 16 15  1  0  0  0  0
M  END
>  <minimizedAffinity>
-3.45189357

$$$$

 OpenBabel03242521403D

 16 16  0  0  0  0  0  0  0  0999 V2000
   37.0270   31.9070   39.3110 C   0  0  0  0  0  0  0  0  0  0  0  0
   36.6360   31.1330   40.4050 C   0  0  0  0  0  0  0  0  0  0  0  0
   36.4050   29.7680   40.1720 C   0  0  0  0  0  0  0  0  0  0  0  0
   36.5740   29.2950   38.9190 N   0  0  0  0  0  0  0  0  0  0  0  0
   36.9550   30.0820   37.8890 C   0  0  0  0  0  0  0  0  0  0  0  0
   37.1820   31.4030   38.0920 N   0  0  0  0  0  0  0  0  0  0  0  0
   36.5040   31.5300   41.4070 H   0  0  0  0  0  0  0  0  0  0  0  0
   37.0700   29.6330   36.9110 H   0  0  0  0  0  0  0  0  0  0  0  0
   37.2710   33.3680   39.5750 C   0  0  0  0  0  0  0  0  0  0  0  0
   37.8200   33.5430   40.5130 H   0  0  0  0  0  0  0  0  0  0  0  0
   37.8770   33.7840   38.7320 H   0  0  0  0  0  0  0  0  0  0  0  0
   36.3090   33.9340   39.5580 H   0  0  0  0  0  0  0  0  0  0  0  0
   35.9930   28.8660   41.2400 C   0  0  0  0  0  3  0  0  0  0  0  0
   36.9030   28.3140   42.0280 C   0  0  0  0  0  3  0  0  0  0  0  0
   36.5020   27.3950   43.1200 C   0  0  0  0  0  2  0  0  0  0  0  0
   37.3950   26.9050   43.5480 H   0  0  0  0  0  0  0  0  0  0  0  0
  1  9  1  0  0  0  0
  1  2  1  0  0  0  0
  2  7  1  0  0  0  0
  3  2  2  0  0  0  0
  3 13  1  0  0  0  0
  4  3  1  0  0  0  0
  5  6  1  0  0  0  0
  5  4  2  0  0  0  0
  6  1  2  0  0  0  0
  8  5  1  0  0  0  0
  9 10  1  0  0  0  0
 11  9  1  0  0  0  0
 12  9  1  0  0  0  0
 13 14  2  0  0  0  0
 14 15  1  0  0  0  0
 15 16  1  0  0  0  0
M  END
>  <minimizedAffinity>
-3.44552207

$$$$

 OpenBabel03242521403D

 16 16  0  0  0  0  0  0  0  0999 V2000
   38.5190   30.1620   42.1420 C   0  0  0  0  0  0  0  0  0  0  0  0
   38.3410   28.8390   42.5520 C   0  0  0  0  0  0  0  0  0  0  0  0
   37.1570   28.2000   42.1530 C   0  0  0  0  0  0  0  0  0  0  0  0
   36.2740   28.8970   41.4080 N   0  0  0  0  0  0  0  0  0  0  0  0
   36.4870   30.1770   41.0340 C   0  0  0  0  0  0  0  0  0  0  0  0
   37.6240   30.8130   41.4080 N   0  0  0  0  0  0  0  0  0  0  0  0
   39.0630   28.2930   43.1520 H   0  0  0  0  0  0  0  0  0  0  0  0
   35.7340   30.6730   40.4360 H   0  0  0  0  0  0  0  0  0  0  0  0
   39.7930   30.8350   42.5760 C   0  0  0  0  0  0  0  0  0  0  0  0
   40.6720   30.1770   42.4850 H   0  0  0  0  0  0  0  0  0  0  0  0
   39.9580   31.7320   41.9300 H   0  0  0  0  0  0  0  0  0  0  0  0
   39.6920   31.2300   43.6150 H   0  0  0  0  0  0  0  0  0  0  0  0
   36.8670   26.8200   42.5230 C   0  0  0  0  0  3  0  0  0  0  0  0
   37.2670   25.8280   41.7430 C   0  0  0  0  0  3  0  0  0  0  0  0
   36.9820   24.4190   42.1040 C   0  0  0  0  0  2  0  0  0  0  0  0
   37.2340   23.7540   41.2580 H   0  0  0  0  0  0  0  0  0  0  0  0
  1  2  1  0  0  0  0
  1  9  1  0  0  0  0
  2  7  1  0  0  0  0
  3 13  1  0  0  0  0
  3  2  2  0  0  0  0
  4  3  1  0  0  0  0
  5  4  2  0  0  0  0
  5  6  1  0  0  0  0
  6  1  2  0  0  0  0
  8  5  1  0  0  0  0
  9 12  1  0  0  0  0
 10  9  1  0  0  0  0
 11  9  1  0  0  0  0
 14 15  1  0  0  0  0
 14 13  2  0  0  0  0
 16 15  1  0  0  0  0
M  END
>  <minimizedAffinity>
-3.44136024

$$$$

 OpenBabel03242521403D

 16 16  0  0  0  0  0  0  0  0999 V2000
   38.1290   27.0410   42.4600 C   0  0  0  0  0  0  0  0  0  0  0  0
   37.0290   27.2520   41.6250 C   0  0  0  0  0  0  0  0  0  0  0  0
   36.5540   28.5680   41.5140 C   0  0  0  0  0  0  0  0  0  0  0  0
   37.1830   29.5360   42.2140 N   0  0  0  0  0  0  0  0  0  0  0  0
   38.2450   29.2860   43.0100 C   0  0  0  0  0  0  0  0  0  0  0  0
   38.7200   28.0220   43.1310 N   0  0  0  0  0  0  0  0  0  0  0  0
   36.5350   26.4610   41.0700 H   0  0  0  0  0  0  0  0  0  0  0  0
   38.6990   30.1130   43.5410 H   0  0  0  0  0  0  0  0  0  0  0  0
   38.6270   25.6260   42.5690 C   0  0  0  0  0  0  0  0  0  0  0  0
   38.6500   25.1080   41.5970 H   0  0  0  0  0  0  0  0  0  0  0  0
   39.6670   25.6460   42.9790 H   0  0  0  0  0  0  0  0  0  0  0  0
   38.0240   25.0550   43.3150 H   0  0  0  0  0  0  0  0  0  0  0  0
   35.4130   28.9040   40.6720 C   0  0  0  0  0  3  0  0  0  0  0  0
   35.4180   28.5750   39.3890 C   0  0  0  0  0  3  0  0  0  0  0  0
   34.2660   28.9070   38.5180 C   0  0  0  0  0  2  0  0  0  0  0  0
   34.5240   28.7140   37.4610 H   0  0  0  0  0  0  0  0  0  0  0  0
  1  9  1  0  0  0  0
  1  6  1  0  0  0  0
  2  1  2  0  0  0  0
  3  2  1  0  0  0  0
  3  4  2  0  0  0  0
  4  5  1  0  0  0  0
  5  6  2  0  0  0  0
  5  8  1  0  0  0  0
  7  2  1  0  0  0  0
  9 11  1  0  0  0  0
  9 12  1  0  0  0  0
 10  9  1  0  0  0  0
 13  3  1  0  0  0  0
 14 13  2  0  0  0  0
 15 14  1  0  0  0  0
 16 15  1  0  0  0  0
M  END
>  <minimizedAffinity>
-3.37821817

$$$$
