
 OpenBabel03252501463D

 18 18  0  0  0  0  0  0  0  0999 V2000
   37.9940   29.2030   41.8710 C   0  0  0  0  0  0  0  0  0  0  0  0
   36.8690   28.3730   41.6960 C   0  0  0  0  0  0  0  0  0  0  0  0
   35.7810   28.8860   41.0120 C   0  0  0  0  0  0  0  0  0  0  0  0
   35.8270   30.1550   40.5360 N   0  0  0  0  0  0  0  0  0  0  0  0
   36.9330   30.9270   40.7260 C   0  0  0  0  0  0  0  0  0  0  0  0
   37.9880   30.4530   41.3800 N   0  0  0  0  0  0  0  0  0  0  0  0
   38.8040   28.7370   42.4140 H   0  0  0  0  0  0  0  0  0  0  0  0
   34.9000   28.2930   40.8530 H   0  0  0  0  0  0  0  0  0  0  0  0
   36.8520   27.0050   42.2240 C   0  0  0  0  0  3  0  0  0  0  0  0
   37.1440   25.9280   41.4960 C   0  0  0  0  0  3  0  0  0  0  0  0
   37.0990   24.5590   42.1310 C   0  0  0  0  0  0  0  0  0  0  0  0
   36.0750   24.2010   42.2360 H   0  0  0  0  0  0  0  0  0  0  0  0
   37.6100   23.8830   41.4150 H   0  0  0  0  0  0  0  0  0  0  0  0
   37.6780   24.5460   43.0690 H   0  0  0  0  0  0  0  0  0  0  0  0
   37.0280   32.2960   40.2320 C   0  0  0  0  0  3  0  0  0  0  0  0
   37.3160   32.6390   38.9890 C   0  0  0  0  0  3  0  0  0  0  0  0
   37.5790   31.6460   37.9410 C   0  0  0  0  0  2  0  0  0  0  0  0
   37.8070   32.1460   36.9780 H   0  0  0  0  0  0  0  0  0  0  0  0
  1  7  1  0  0  0  0
  2  1  1  0  0  0  0
  2  9  1  0  0  0  0
  3  2  2  0  0  0  0
  4  5  2  0  0  0  0
  4  3  1  0  0  0  0
  5  6  1  0  0  0  0
  6  1  2  0  0  0  0
  8  3  1  0  0  0  0
 10 11  1  0  0  0  0
 10  9  2  0  0  0  0
 11 12  1  0  0  0  0
 11 14  1  0  0  0  0
 13 11  1  0  0  0  0
 15  5  1  0  0  0  0
 16 15  2  0  0  0  0
 17 16  1  0  0  0  0
 18 17  1  0  0  0  0
M  END
>  <minimizedAffinity>
-4.10488129

$$$$

 OpenBabel03252501463D

 18 18  0  0  0  0  0  0  0  0999 V2000
   37.7500   29.0010   39.2890 C   0  0  0  0  0  0  0  0  0  0  0  0
   36.9730   28.5100   40.3590 C   0  0  0  0  0  0  0  0  0  0  0  0
   36.2250   29.4140   41.0910 C   0  0  0  0  0  0  0  0  0  0  0  0
   36.2590   30.7300   40.7640 N   0  0  0  0  0  0  0  0  0  0  0  0
   37.0220   31.1670   39.7240 C   0  0  0  0  0  0  0  0  0  0  0  0
   37.7480   30.3140   39.0090 N   0  0  0  0  0  0  0  0  0  0  0  0
   38.3070   28.2390   38.7640 H   0  0  0  0  0  0  0  0  0  0  0  0
   35.6180   29.0890   41.9140 H   0  0  0  0  0  0  0  0  0  0  0  0
   36.9590   27.0800   40.6850 C   0  0  0  0  0  3  0  0  0  0  0  0
   37.0790   26.6030   41.9230 C   0  0  0  0  0  3  0  0  0  0  0  0
   37.0510   25.1110   42.1580 C   0  0  0  0  0  0  0  0  0  0  0  0
   38.0030   24.6490   41.8960 H   0  0  0  0  0  0  0  0  0  0  0  0
   36.9170   24.9860   43.2520 H   0  0  0  0  0  0  0  0  0  0  0  0
   36.1790   24.6550   41.6620 H   0  0  0  0  0  0  0  0  0  0  0  0
   37.0900   32.5710   39.3370 C   0  0  0  0  0  3  0  0  0  0  0  0
   37.9110   33.4660   39.8570 C   0  0  0  0  0  3  0  0  0  0  0  0
   38.8730   33.1290   40.9120 C   0  0  0  0  0  2  0  0  0  0  0  0
   39.4560   34.0250   41.2090 H   0  0  0  0  0  0  0  0  0  0  0  0
  1  2  1  0  0  0  0
  2  9  1  0  0  0  0
  2  3  2  0  0  0  0
  3  8  1  0  0  0  0
  4  3  1  0  0  0  0
  5  4  2  0  0  0  0
  6  1  2  0  0  0  0
  6  5  1  0  0  0  0
  7  1  1  0  0  0  0
  9 10  2  0  0  0  0
 10 11  1  0  0  0  0
 11 13  1  0  0  0  0
 12 11  1  0  0  0  0
 14 11  1  0  0  0  0
 15  5  1  0  0  0  0
 15 16  2  0  0  0  0
 16 17  1  0  0  0  0
 17 18  1  0  0  0  0
M  END
>  <minimizedAffinity>
-3.76056623

$$$$

 OpenBabel03252501463D

 18 18  0  0  0  0  0  0  0  0999 V2000
   37.9890   28.1530   40.7620 C   0  0  0  0  0  0  0  0  0  0  0  0
   36.7170   28.2920   41.3520 C   0  0  0  0  0  0  0  0  0  0  0  0
   36.5920   28.0210   42.7030 C   0  0  0  0  0  0  0  0  0  0  0  0
   37.6820   27.6350   43.4120 N   0  0  0  0  0  0  0  0  0  0  0  0
   38.8960   27.5120   42.8050 C   0  0  0  0  0  0  0  0  0  0  0  0
   39.0360   27.7670   41.5090 N   0  0  0  0  0  0  0  0  0  0  0  0
   38.0120   28.3800   39.7060 H   0  0  0  0  0  0  0  0  0  0  0  0
   35.6440   28.1120   43.1990 H   0  0  0  0  0  0  0  0  0  0  0  0
   35.5590   28.7110   40.5570 C   0  0  0  0  0  3  0  0  0  0  0  0
   35.4230   28.4560   39.2570 C   0  0  0  0  0  3  0  0  0  0  0  0
   34.1910   28.9300   38.5240 C   0  0  0  0  0  0  0  0  0  0  0  0
   34.2440   29.9950   38.3010 H   0  0  0  0  0  0  0  0  0  0  0  0
   34.1980   28.3920   37.5530 H   0  0  0  0  0  0  0  0  0  0  0  0
   33.2780   28.6280   39.0620 H   0  0  0  0  0  0  0  0  0  0  0  0
   40.0950   27.1010   43.5270 C   0  0  0  0  0  3  0  0  0  0  0  0
   40.5010   25.8530   43.6790 C   0  0  0  0  0  3  0  0  0  0  0  0
   39.7640   24.7130   43.1200 C   0  0  0  0  0  2  0  0  0  0  0  0
   40.2720   23.7590   43.3700 H   0  0  0  0  0  0  0  0  0  0  0  0
  1  2  2  0  0  0  0
  1  6  1  0  0  0  0
  2  3  1  0  0  0  0
  3  8  1  0  0  0  0
  3  4  2  0  0  0  0
  5  4  1  0  0  0  0
  5 15  1  0  0  0  0
  6  5  2  0  0  0  0
  7  1  1  0  0  0  0
  9  2  1  0  0  0  0
 10  9  2  0  0  0  0
 11 14  1  0  0  0  0
 11 10  1  0  0  0  0
 12 11  1  0  0  0  0
 13 11  1  0  0  0  0
 15 16  2  0  0  0  0
 17 18  1  0  0  0  0
 17 16  1  0  0  0  0
M  END
>  <minimizedAffinity>
-3.75293064

$$$$

 OpenBabel03252501463D

 18 18  0  0  0  0  0  0  0  0999 V2000
   38.7620   29.2150   41.5850 C   0  0  0  0  0  0  0  0  0  0  0  0
   37.6900   30.0440   41.1960 C   0  0  0  0  0  0  0  0  0  0  0  0
   36.4100   29.5230   41.2500 C   0  0  0  0  0  0  0  0  0  0  0  0
   36.2250   28.2460   41.6700 N   0  0  0  0  0  0  0  0  0  0  0  0
   37.2860   27.4760   42.0380 C   0  0  0  0  0  0  0  0  0  0  0  0
   38.5230   27.9580   41.9920 N   0  0  0  0  0  0  0  0  0  0  0  0
   39.7310   29.6880   41.5160 H   0  0  0  0  0  0  0  0  0  0  0  0
   35.5600   30.1130   40.9640 H   0  0  0  0  0  0  0  0  0  0  0  0
   37.9250   31.4200   40.7460 C   0  0  0  0  0  3  0  0  0  0  0  0
   37.0760   32.1030   39.9800 C   0  0  0  0  0  3  0  0  0  0  0  0
   37.4080   33.5180   39.5700 C   0  0  0  0  0  0  0  0  0  0  0  0
   38.1400   33.5370   38.7630 H   0  0  0  0  0  0  0  0  0  0  0  0
   36.4650   33.9390   39.1660 H   0  0  0  0  0  0  0  0  0  0  0  0
   37.6910   34.1210   40.4480 H   0  0  0  0  0  0  0  0  0  0  0  0
   37.1350   26.1000   42.4960 C   0  0  0  0  0  3  0  0  0  0  0  0
   37.0290   25.0430   41.7100 C   0  0  0  0  0  3  0  0  0  0  0  0
   37.0530   25.1470   40.2460 C   0  0  0  0  0  2  0  0  0  0  0  0
   36.9420   24.1460   39.7820 H   0  0  0  0  0  0  0  0  0  0  0  0
  1  6  1  0  0  0  0
  2  3  1  0  0  0  0
  2  1  2  0  0  0  0
  3  4  2  0  0  0  0
  4  5  1  0  0  0  0
  5 15  1  0  0  0  0
  6  5  2  0  0  0  0
  7  1  1  0  0  0  0
  8  3  1  0  0  0  0
  9  2  1  0  0  0  0
 10  9  2  0  0  0  0
 11 10  1  0  0  0  0
 11 14  1  0  0  0  0
 12 11  1  0  0  0  0
 13 11  1  0  0  0  0
 16 15  2  0  0  0  0
 17 16  1  0  0  0  0
 18 17  1  0  0  0  0
M  END
>  <minimizedAffinity>
-3.72244501

$$$$

 OpenBabel03252501463D

 18 18  0  0  0  0  0  0  0  0999 V2000
   37.6810   28.8620   39.2530 C   0  0  0  0  0  0  0  0  0  0  0  0
   36.7000   29.8270   38.9490 C   0  0  0  0  0  0  0  0  0  0  0  0
   36.1860   30.5840   39.9860 C   0  0  0  0  0  0  0  0  0  0  0  0
   36.6340   30.3790   41.2500 N   0  0  0  0  0  0  0  0  0  0  0  0
   37.5830   29.4360   41.5050 C   0  0  0  0  0  0  0  0  0  0  0  0
   38.0880   28.6990   40.5220 N   0  0  0  0  0  0  0  0  0  0  0  0
   38.0350   28.3090   38.3950 H   0  0  0  0  0  0  0  0  0  0  0  0
   35.4370   31.3320   39.8060 H   0  0  0  0  0  0  0  0  0  0  0  0
   36.2380   30.0240   37.5710 C   0  0  0  0  0  3  0  0  0  0  0  0
   36.8200   29.4680   36.5100 C   0  0  0  0  0  3  0  0  0  0  0  0
   36.2680   29.7310   35.1290 C   0  0  0  0  0  0  0  0  0  0  0  0
   36.5590   30.7150   34.7630 H   0  0  0  0  0  0  0  0  0  0  0  0
   36.7510   28.9820   34.4680 H   0  0  0  0  0  0  0  0  0  0  0  0
   35.1820   29.5440   35.1020 H   0  0  0  0  0  0  0  0  0  0  0  0
   38.0940   29.1800   42.8470 C   0  0  0  0  0  3  0  0  0  0  0  0
   37.6250   28.2690   43.6800 C   0  0  0  0  0  3  0  0  0  0  0  0
   36.5030   27.3900   43.3300 C   0  0  0  0  0  2  0  0  0  0  0  0
   36.2650   26.7070   44.1720 H   0  0  0  0  0  0  0  0  0  0  0  0
  1  6  1  0  0  0  0
  2  1  2  0  0  0  0
  2  3  1  0  0  0  0
  3  4  2  0  0  0  0
  4  5  1  0  0  0  0
  5 15  1  0  0  0  0
  6  5  2  0  0  0  0
  7  1  1  0  0  0  0
  8  3  1  0  0  0  0
  9  2  1  0  0  0  0
 10  9  2  0  0  0  0
 11 10  1  0  0  0  0
 12 11  1  0  0  0  0
 13 11  1  0  0  0  0
 14 11  1  0  0  0  0
 15 16  2  0  0  0  0
 17 16  1  0  0  0  0
 17 18  1  0  0  0  0
M  END
>  <minimizedAffinity>
-3.69496799

$$$$

 OpenBabel03252501463D

 18 18  0  0  0  0  0  0  0  0999 V2000
   36.9760   28.2410   40.3720 C   0  0  0  0  0  0  0  0  0  0  0  0
   37.2040   29.1960   41.3840 C   0  0  0  0  0  0  0  0  0  0  0  0
   37.3490   28.7470   42.6840 C   0  0  0  0  0  0  0  0  0  0  0  0
   37.2690   27.4190   42.9460 N   0  0  0  0  0  0  0  0  0  0  0  0
   37.0470   26.5260   41.9410 C   0  0  0  0  0  0  0  0  0  0  0  0
   36.9050   26.9370   40.6870 N   0  0  0  0  0  0  0  0  0  0  0  0
   36.8730   28.6630   39.3830 H   0  0  0  0  0  0  0  0  0  0  0  0
   37.5240   29.4350   43.4890 H   0  0  0  0  0  0  0  0  0  0  0  0
   37.2850   30.6250   41.0660 C   0  0  0  0  0  3  0  0  0  0  0  0
   37.0240   31.1310   39.8610 C   0  0  0  0  0  3  0  0  0  0  0  0
   37.1350   32.6190   39.6330 C   0  0  0  0  0  0  0  0  0  0  0  0
   38.1740   32.9310   39.5300 H   0  0  0  0  0  0  0  0  0  0  0  0
   36.6400   32.8080   38.6580 H   0  0  0  0  0  0  0  0  0  0  0  0
   36.5730   33.1740   40.4020 H   0  0  0  0  0  0  0  0  0  0  0  0
   36.9540   25.0890   42.1760 C   0  0  0  0  0  3  0  0  0  0  0  0
   37.9770   24.2540   42.2010 C   0  0  0  0  0  3  0  0  0  0  0  0
   39.3600   24.6980   41.9900 C   0  0  0  0  0  2  0  0  0  0  0  0
   40.0590   23.8380   42.0450 H   0  0  0  0  0  0  0  0  0  0  0  0
  1  6  2  0  0  0  0
  1  2  1  0  0  0  0
  2  3  2  0  0  0  0
  3  4  1  0  0  0  0
  3  8  1  0  0  0  0
  5 15  1  0  0  0  0
  5  4  2  0  0  0  0
  6  5  1  0  0  0  0
  7  1  1  0  0  0  0
  9  2  1  0  0  0  0
 10  9  2  0  0  0  0
 11 10  1  0  0  0  0
 11 14  1  0  0  0  0
 12 11  1  0  0  0  0
 13 11  1  0  0  0  0
 15 16  2  0  0  0  0
 17 18  1  0  0  0  0
 17 16  1  0  0  0  0
M  END
>  <minimizedAffinity>
-3.67903924

$$$$

 OpenBabel03252501463D

 18 18  0  0  0  0  0  0  0  0999 V2000
   37.0830   28.3000   39.2630 C   0  0  0  0  0  0  0  0  0  0  0  0
   36.1190   29.2940   38.9990 C   0  0  0  0  0  0  0  0  0  0  0  0
   35.8260   30.2010   40.0010 C   0  0  0  0  0  0  0  0  0  0  0  0
   36.4660   30.1100   41.1940 N   0  0  0  0  0  0  0  0  0  0  0  0
   37.3910   29.1350   41.4110 C   0  0  0  0  0  0  0  0  0  0  0  0
   37.6860   28.2540   40.4620 N   0  0  0  0  0  0  0  0  0  0  0  0
   37.2590   27.6280   38.4360 H   0  0  0  0  0  0  0  0  0  0  0  0
   35.0990   30.9770   39.8490 H   0  0  0  0  0  0  0  0  0  0  0  0
   35.4460   29.3650   37.6980 C   0  0  0  0  0  3  0  0  0  0  0  0
   34.2320   28.8680   37.4660 C   0  0  0  0  0  3  0  0  0  0  0  0
   33.6220   28.9910   36.0900 C   0  0  0  0  0  0  0  0  0  0  0  0
   34.0450   28.2610   35.3990 H   0  0  0  0  0  0  0  0  0  0  0  0
   32.5500   28.7370   36.2170 H   0  0  0  0  0  0  0  0  0  0  0  0
   33.6760   30.0320   35.7320 H   0  0  0  0  0  0  0  0  0  0  0  0
   38.1040   28.9980   42.6770 C   0  0  0  0  0  3  0  0  0  0  0  0
   37.7330   28.2210   43.6790 C   0  0  0  0  0  3  0  0  0  0  0  0
   36.5270   27.3870   43.6220 C   0  0  0  0  0  2  0  0  0  0  0  0
   36.3980   26.8220   44.5680 H   0  0  0  0  0  0  0  0  0  0  0  0
  1  6  1  0  0  0  0
  2  1  2  0  0  0  0
  2  3  1  0  0  0  0
  3  4  2  0  0  0  0
  4  5  1  0  0  0  0
  5 15  1  0  0  0  0
  6  5  2  0  0  0  0
  7  1  1  0  0  0  0
  8  3  1  0  0  0  0
  9  2  1  0  0  0  0
 10  9  2  0  0  0  0
 11 13  1  0  0  0  0
 11 10  1  0  0  0  0
 12 11  1  0  0  0  0
 14 11  1  0  0  0  0
 15 16  2  0  0  0  0
 17 16  1  0  0  0  0
 17 18  1  0  0  0  0
M  END
>  <minimizedAffinity>
-3.66542768

$$$$

 OpenBabel03252501463D

 18 18  0  0  0  0  0  0  0  0999 V2000
   38.8550   29.3630   40.4550 C   0  0  0  0  0  0  0  0  0  0  0  0
   38.1250   28.9500   41.5880 C   0  0  0  0  0  0  0  0  0  0  0  0
   37.0040   29.6790   41.9430 C   0  0  0  0  0  0  0  0  0  0  0  0
   36.6450   30.7570   41.2010 N   0  0  0  0  0  0  0  0  0  0  0  0
   37.3760   31.1250   40.1130 C   0  0  0  0  0  0  0  0  0  0  0  0
   38.4550   30.4380   39.7560 N   0  0  0  0  0  0  0  0  0  0  0  0
   39.7160   28.7470   40.2380 H   0  0  0  0  0  0  0  0  0  0  0  0
   36.4150   29.4050   42.7970 H   0  0  0  0  0  0  0  0  0  0  0  0
   38.5410   27.7800   42.3680 C   0  0  0  0  0  3  0  0  0  0  0  0
   39.7620   27.6290   42.8790 C   0  0  0  0  0  3  0  0  0  0  0  0
   40.0950   26.3860   43.6700 C   0  0  0  0  0  0  0  0  0  0  0  0
   40.2710   25.5320   43.0160 H   0  0  0  0  0  0  0  0  0  0  0  0
   41.0530   26.6080   44.1820 H   0  0  0  0  0  0  0  0  0  0  0  0
   39.3370   26.2060   44.4490 H   0  0  0  0  0  0  0  0  0  0  0  0
   37.0280   32.2750   39.2860 C   0  0  0  0  0  3  0  0  0  0  0  0
   37.5200   33.4930   39.4300 C   0  0  0  0  0  3  0  0  0  0  0  0
   38.5010   33.8260   40.4690 C   0  0  0  0  0  2  0  0  0  0  0  0
   38.7740   34.9000   40.4180 H   0  0  0  0  0  0  0  0  0  0  0  0
  1  2  1  0  0  0  0
  2  3  2  0  0  0  0
  2  9  1  0  0  0  0
  3  8  1  0  0  0  0
  4  3  1  0  0  0  0
  5  4  2  0  0  0  0
  6  5  1  0  0  0  0
  6  1  2  0  0  0  0
  7  1  1  0  0  0  0
  9 10  2  0  0  0  0
 10 11  1  0  0  0  0
 11 13  1  0  0  0  0
 11 14  1  0  0  0  0
 12 11  1  0  0  0  0
 15 16  2  0  0  0  0
 15  5  1  0  0  0  0
 16 17  1  0  0  0  0
 18 17  1  0  0  0  0
M  END
>  <minimizedAffinity>
-3.63565922

$$$$

 OpenBabel03252501463D

 18 18  0  0  0  0  0  0  0  0999 V2000
   38.6570   30.4540   40.1990 C   0  0  0  0  0  0  0  0  0  0  0  0
   37.4270   30.9930   39.7730 C   0  0  0  0  0  0  0  0  0  0  0  0
   36.3240   30.8300   40.5920 C   0  0  0  0  0  0  0  0  0  0  0  0
   36.4550   30.1650   41.7660 N   0  0  0  0  0  0  0  0  0  0  0  0
   37.6610   29.6570   42.1440 C   0  0  0  0  0  0  0  0  0  0  0  0
   38.7310   29.8020   41.3710 N   0  0  0  0  0  0  0  0  0  0  0  0
   39.4720   30.6180   39.5100 H   0  0  0  0  0  0  0  0  0  0  0  0
   35.3650   31.2230   40.3110 H   0  0  0  0  0  0  0  0  0  0  0  0
   37.3190   31.7080   38.4970 C   0  0  0  0  0  3  0  0  0  0  0  0
   37.6490   31.1760   37.3210 C   0  0  0  0  0  3  0  0  0  0  0  0
   37.5020   31.9930   36.0600 C   0  0  0  0  0  0  0  0  0  0  0  0
   38.3140   32.7130   35.9540 H   0  0  0  0  0  0  0  0  0  0  0  0
   37.5960   31.2690   35.2250 H   0  0  0  0  0  0  0  0  0  0  0  0
   36.4960   32.4390   36.0000 H   0  0  0  0  0  0  0  0  0  0  0  0
   37.8500   28.9340   43.3970 C   0  0  0  0  0  3  0  0  0  0  0  0
   37.5900   27.6520   43.5830 C   0  0  0  0  0  3  0  0  0  0  0  0
   37.0680   26.7930   42.5140 C   0  0  0  0  0  2  0  0  0  0  0  0
   36.9140   25.7590   42.8850 H   0  0  0  0  0  0  0  0  0  0  0  0
  1  6  1  0  0  0  0
  2  1  2  0  0  0  0
  2  3  1  0  0  0  0
  3  4  2  0  0  0  0
  4  5  1  0  0  0  0
  5 15  1  0  0  0  0
  6  5  2  0  0  0  0
  7  1  1  0  0  0  0
  8  3  1  0  0  0  0
  9  2  1  0  0  0  0
 10  9  2  0  0  0  0
 11 10  1  0  0  0  0
 12 11  1  0  0  0  0
 13 11  1  0  0  0  0
 14 11  1  0  0  0  0
 15 16  2  0  0  0  0
 17 18  1  0  0  0  0
 17 16  1  0  0  0  0
M  END
>  <minimizedAffinity>
-3.60194349

$$$$
