
 OpenBabel03252506493D

 24 25  0  0  0  0  0  0  0  0999 V2000
   43.5760   33.9340   40.3320 S   0  0  0  0  0  0  0  0  0  0  0  0
   41.5600   31.6580   41.3270 Cl  0  0  0  0  0  0  0  0  0  0  0  0
   40.8970   33.1350   40.6490 C   0  0  0  0  0  0  0  0  0  0  0  0
   41.8180   34.0590   40.2460 C   0  0  0  0  0  0  0  0  0  0  0  0
   41.3360   35.2470   39.7020 C   0  0  0  0  0  0  0  0  0  0  0  0
   39.9660   35.4490   39.5880 C   0  0  0  0  0  0  0  0  0  0  0  0
   39.0400   34.5170   39.9950 C   0  0  0  0  0  0  0  0  0  0  0  0
   39.5290   33.3270   40.5400 C   0  0  0  0  0  0  0  0  0  0  0  0
   38.4490   32.0700   41.0920 Cl  0  0  0  0  0  0  0  0  0  0  0  0
   41.9830   36.0390   39.3540 H   0  0  0  0  0  0  0  0  0  0  0  0
   39.5830   36.3810   39.1610 H   0  0  0  0  0  0  0  0  0  0  0  0
   37.9690   34.6830   39.9030 H   0  0  0  0  0  0  0  0  0  0  0  0
   44.2360   34.3030   41.9570 C   0  0  0  0  0  0  0  0  0  0  0  0
   44.7020   33.1870   42.6640 C   0  0  0  0  0  0  0  0  0  0  0  0
   45.2340   33.4000   43.9480 C   0  0  0  0  0  0  0  0  0  0  0  0
   45.2660   34.6730   44.4360 N   0  0  0  0  0  0  0  0  0  0  0  0
   44.8040   35.7090   43.7130 C   0  0  0  0  0  0  0  0  0  0  0  0
   44.2820   35.5480   42.4670 N   0  0  0  0  0  0  0  0  0  0  0  0
   44.6700   32.1820   42.2670 H   0  0  0  0  0  0  0  0  0  0  0  0
   45.6130   32.5970   44.5580 H   0  0  0  0  0  0  0  0  0  0  0  0
   44.8620   37.0520   44.2800 C   0  0  0  0  0  3  0  0  0  0  0  0
   45.3330   38.0490   43.5450 C   0  0  0  0  0  3  0  0  0  0  0  0
   45.4640   39.4600   43.9550 C   0  0  0  0  0  2  0  0  0  0  0  0
   44.8350   40.1190   43.2900 H   0  0  0  0  0  0  0  0  0  0  0  0
  1 13  1  0  0  0  0
  3  2  1  0  0  0  0
  4  1  1  0  0  0  0
  4  3  2  0  0  0  0
  5  4  1  0  0  0  0
  6  5  2  0  0  0  0
  6  7  1  0  0  0  0
  7  8  2  0  0  0  0
  8  3  1  0  0  0  0
  8  9  1  0  0  0  0
 10  5  1  0  0  0  0
 11  6  1  0  0  0  0
 12  7  1  0  0  0  0
 13 18  2  0  0  0  0
 13 14  1  0  0  0  0
 14 15  2  0  0  0  0
 15 16  1  0  0  0  0
 15 20  1  0  0  0  0
 17 21  1  0  0  0  0
 17 16  2  0  0  0  0
 18 17  1  0  0  0  0
 19 14  1  0  0  0  0
 22 23  1  0  0  0  0
 22 21  2  0  0  0  0
 24 23  1  0  0  0  0
M  END
>  <minimizedAffinity>
-4.72679663

>  <minimizedRMSD>
1.19255805

$$$$
