
 OpenBabel03252501543D

 16 16  0  0  0  0  0  0  0  0999 V2000
   44.3840   35.8300   44.4560 C   0  0  0  0  0  0  0  0  0  0  0  0
   44.7070   35.2960   43.2150 C   0  0  0  0  0  0  0  0  0  0  0  0
   45.4220   34.1080   43.1740 C   0  0  0  0  0  0  0  0  0  0  0  0
   45.7840   33.5070   44.3370 N   0  0  0  0  0  0  0  0  0  0  0  0
   45.4470   34.0610   45.5340 C   0  0  0  0  0  0  0  0  0  0  0  0
   44.7520   35.2140   45.5910 N   0  0  0  0  0  0  0  0  0  0  0  0
   43.8360   36.7370   44.6310 H   0  0  0  0  0  0  0  0  0  0  0  0
   45.8130   33.4520   46.3430 H   0  0  0  0  0  0  0  0  0  0  0  0
   44.2680   36.0270   42.0120 C   0  0  0  0  0  0  0  0  0  0  0  0
   43.4250   35.5190   41.5060 H   0  0  0  0  0  0  0  0  0  0  0  0
   45.1210   36.0030   41.2730 H   0  0  0  0  0  0  0  0  0  0  0  0
   44.1000   37.0800   42.2530 H   0  0  0  0  0  0  0  0  0  0  0  0
   45.7750   33.5260   41.8860 C   0  0  0  0  0  3  0  0  0  0  0  0
   46.7850   34.0260   41.1940 C   0  0  0  0  0  3  0  0  0  0  0  0
   47.1440   33.4250   39.8720 C   0  0  0  0  0  2  0  0  0  0  0  0
   47.7450   34.1410   39.2630 H   0  0  0  0  0  0  0  0  0  0  0  0
  1  7  1  0  0  0  0
  1  6  1  0  0  0  0
  2  1  2  0  0  0  0
  3  2  1  0  0  0  0
  3  4  2  0  0  0  0
  4  5  1  0  0  0  0
  5  6  2  0  0  0  0
  5  8  1  0  0  0  0
  9 12  1  0  0  0  0
  9  2  1  0  0  0  0
 10  9  1  0  0  0  0
 11  9  1  0  0  0  0
 13  3  1  0  0  0  0
 14 13  2  0  0  0  0
 15 14  1  0  0  0  0
 16 15  1  0  0  0  0
M  END
>  <minimizedAffinity>
-3.21090984

>  <minimizedRMSD>
0.444329321

$$$$
