
 OpenBabel03252506253D

 40 43  0  0  0  0  0  0  0  0999 V2000
   46.0050   29.9370   48.2480 C   0  0  0  0  0  0  0  0  0  0  0  0
   45.4610   30.8980   48.3450 H   0  0  0  0  0  0  0  0  0  0  0  0
   46.1950   29.6290   49.3110 H   0  0  0  0  0  0  0  0  0  0  0  0
   45.0210   27.5790   47.9660 C   0  0  0  0  0  0  0  0  0  0  0  0
   45.1600   28.9030   47.6520 C   0  0  0  0  0  0  0  0  0  0  0  0
   44.3760   29.3640   46.5910 C   0  0  0  0  0  0  0  0  0  0  0  0
   43.5220   28.5310   45.9120 C   0  0  0  0  0  0  0  0  0  0  0  0
   42.6650   28.6900   44.8750 N   0  0  0  0  0  0  0  0  0  0  0  0
   42.0450   27.5420   44.5780 C   0  0  0  0  0  0  0  0  0  0  0  0
   42.4900   26.5690   45.4350 C   0  0  0  0  0  0  0  0  0  0  0  0
   43.4040   27.2170   46.2470 C   0  0  0  0  0  0  0  0  0  0  0  0
   44.1720   26.7400   47.2950 C   0  0  0  0  0  0  0  0  0  0  0  0
   45.6640   27.3210   48.7930 H   0  0  0  0  0  0  0  0  0  0  0  0
   44.3810   30.3780   46.2320 H   0  0  0  0  0  0  0  0  0  0  0  0
   42.5180   29.5980   44.3820 H   0  0  0  0  0  0  0  0  0  0  0  0
   41.3110   27.3730   43.7990 H   0  0  0  0  0  0  0  0  0  0  0  0
   42.2240   25.5260   45.5050 H   0  0  0  0  0  0  0  0  0  0  0  0
   44.0790   25.3420   47.6900 C   0  0  0  0  0  3  0  0  0  0  0  0
   44.8780   24.3340   47.4730 C   0  0  0  0  0  3  0  0  0  0  0  0
   46.1530   24.1120   46.7900 C   0  0  0  0  0  2  0  0  0  0  0  0
   46.0410   24.2830   45.7030 H   0  0  0  0  0  0  0  0  0  0  0  0
   47.3140   30.1840   47.6230 C   0  0  0  0  0  0  0  0  0  0  0  0
   47.9080   30.8120   48.3270 H   0  0  0  0  0  0  0  0  0  0  0  0
   47.9130   29.2930   47.4170 H   0  0  0  0  0  0  0  0  0  0  0  0
   46.5590   32.6470   45.1540 C   0  0  0  0  0  0  0  0  0  0  0  0
   47.2880   31.7150   44.4080 C   0  0  0  0  0  0  0  0  0  0  0  0
   47.6600   30.6860   45.2240 C   0  0  0  0  0  0  0  0  0  0  0  0
   47.1700   30.9890   46.4240 N   0  0  0  0  0  0  0  0  0  0  0  0
   46.5100   32.1560   46.3930 N   0  0  0  0  0  0  0  0  0  0  0  0
   47.5070   31.8270   43.3400 H   0  0  0  0  0  0  0  0  0  0  0  0
   48.2330   29.8330   44.8950 H   0  0  0  0  0  0  0  0  0  0  0  0
   44.5700   35.6920   44.8480 C   0  0  0  0  0  0  0  0  0  0  0  0
   44.9350   36.1960   43.6090 C   0  0  0  0  0  0  0  0  0  0  0  0
   45.8820   35.4750   42.8660 C   0  0  0  0  0  0  0  0  0  0  0  0
   46.3680   34.3350   43.4210 N   0  0  0  0  0  0  0  0  0  0  0  0
   45.9990   33.8780   44.6110 C   0  0  0  0  0  0  0  0  0  0  0  0
   45.0970   34.5610   45.3230 N   0  0  0  0  0  0  0  0  0  0  0  0
   43.8470   36.1690   45.5040 H   0  0  0  0  0  0  0  0  0  0  0  0
   44.5000   37.0990   43.2540 H   0  0  0  0  0  0  0  0  0  0  0  0
   46.1980   35.8320   41.8910 H   0  0  0  0  0  0  0  0  0  0  0  0
  1  2  1  0  0  0  0
  1  3  1  0  0  0  0
  4 13  1  0  0  0  0
  5  4  1  0  0  0  0
  5  1  1  0  0  0  0
  6  5  2  0  0  0  0
  7 11  2  0  0  0  0
  7  6  1  0  0  0  0
  8  7  1  0  0  0  0
  9  8  1  0  0  0  0
  9 10  2  0  0  0  0
 10 17  1  0  0  0  0
 10 11  1  0  0  0  0
 11 12  1  0  0  0  0
 12 18  1  0  0  0  0
 12  4  2  0  0  0  0
 14  6  1  0  0  0  0
 15  8  1  0  0  0  0
 16  9  1  0  0  0  0
 19 18  2  0  0  0  0
 20 19  1  0  0  0  0
 21 20  1  0  0  0  0
 22  1  1  0  0  0  0
 22 23  1  0  0  0  0
 24 22  1  0  0  0  0
 25 29  2  0  0  0  0
 26 25  1  0  0  0  0
 26 27  2  0  0  0  0
 27 28  1  0  0  0  0
 28 22  1  0  0  0  0
 29 28  1  0  0  0  0
 30 26  1  0  0  0  0
 31 27  1  0  0  0  0
 32 37  1  0  0  0  0
 32 38  1  0  0  0  0
 33 32  2  0  0  0  0
 34 35  2  0  0  0  0
 34 33  1  0  0  0  0
 35 36  1  0  0  0  0
 36 25  1  0  0  0  0
 36 37  2  0  0  0  0
 39 33  1  0  0  0  0
 40 34  1  0  0  0  0
M  END
>  <minimizedAffinity>
-5.35791779

>  <minimizedRMSD>
0.794623077

$$$$
