
 OpenBabel03242513503D

 26 27  0  0  1  0  0  0  0  0999 V2000
   45.0550   34.3210   41.4180 C   0  0  2  0  0  0  0  0  0  0  0  0
   44.0590   33.3270   40.9110 C   0  0  0  0  0  0  0  0  0  0  0  0
   44.5360   33.1710   39.4780 C   0  0  0  0  0  0  0  0  0  0  0  0
   46.0200   33.4020   39.5290 C   0  0  0  0  0  0  0  0  0  0  0  0
   46.3600   33.6400   41.0010 C   0  0  1  0  0  0  0  0  0  0  0  0
   44.9840   35.2830   40.9070 H   0  0  0  0  0  0  0  0  0  0  0  0
   43.0460   33.7760   40.8600 H   0  0  0  0  0  0  0  0  0  0  0  0
   44.0610   32.4050   41.4900 H   0  0  0  0  0  0  0  0  0  0  0  0
   44.3730   32.1060   39.2180 H   0  0  0  0  0  0  0  0  0  0  0  0
   44.0120   33.8440   38.7830 H   0  0  0  0  0  0  0  0  0  0  0  0
   46.2120   34.3700   39.0010 H   0  0  0  0  0  0  0  0  0  0  0  0
   46.6110   32.5910   39.1090 H   0  0  0  0  0  0  0  0  0  0  0  0
   46.4680   32.7160   41.5780 H   0  0  0  0  0  0  0  0  0  0  0  0
   44.5390   35.8680   44.8270 C   0  0  0  0  0  0  0  0  0  0  0  0
   44.5520   35.7460   43.4430 C   0  0  0  0  0  0  0  0  0  0  0  0
   45.0010   34.5580   42.8760 C   0  0  0  0  0  0  0  0  0  0  0  0
   45.4130   33.5460   43.7220 N   0  0  0  0  0  0  0  0  0  0  0  0
   45.3800   33.7150   45.0590 C   0  0  0  0  0  0  0  0  0  0  0  0
   44.9490   34.8580   45.6100 N   0  0  0  0  0  0  0  0  0  0  0  0
   44.1800   36.8140   45.2080 H   0  0  0  0  0  0  0  0  0  0  0  0
   44.2340   36.5260   42.7650 H   0  0  0  0  0  0  0  0  0  0  0  0
   45.7290   32.8530   45.6480 H   0  0  0  0  0  0  0  0  0  0  0  0
   47.4620   34.5880   41.1890 C   0  0  0  0  0  0  0  0  0  0  0  0
   48.5450   35.2720   40.8530 C   0  0  0  0  0  0  0  0  0  0  0  0
   49.3700   36.2730   41.6080 C   0  0  0  0  0  0  0  0  0  0  0  0
   48.8710   36.4440   42.6070 H   0  0  0  0  0  0  0  0  0  0  0  0
  1  6  1  6  0  0  0
  1 16  1  0  0  0  0
  2  1  1  0  0  0  0
  2  8  1  0  0  0  0
  3  4  1  0  0  0  0
  3  2  1  0  0  0  0
  4  5  1  0  0  0  0
  5 23  1  0  0  0  0
  5  1  1  0  0  0  0
  5 13  1  1  0  0  0
  7  2  1  0  0  0  0
  9  3  1  0  0  0  0
 10  3  1  0  0  0  0
 11  4  1  0  0  0  0
 12  4  1  0  0  0  0
 14 20  1  0  0  0  0
 14 19  1  0  0  0  0
 15 14  2  0  0  0  0
 16 15  1  0  0  0  0
 16 17  2  0  0  0  0
 17 18  1  0  0  0  0
 18 19  2  0  0  0  0
 18 22  1  0  0  0  0
 21 15  1  0  0  0  0
 24 23  1  0  0  0  0
 24 25  1  0  0  0  0
 25 26  1  0  0  0  0
M  END
>  <minimizedAffinity>
-4.61387491

>  <minimizedRMSD>
2.34832072

$$$$
