
 OpenBabel03252504003D

 29 31  0  0  0  0  0  0  0  0999 V2000
   46.0690   31.7170   45.1190 C   0  0  0  0  0  0  0  0  0  0  0  0
   45.8000   33.0160   45.5250 C   0  0  0  0  0  0  0  0  0  0  0  0
   45.5060   33.2980   46.8550 C   0  0  0  0  0  0  0  0  0  0  0  0
   45.4910   32.2450   47.7480 C   0  0  0  0  0  0  0  0  0  0  0  0
   45.2480   32.1880   49.0700 N   0  0  0  0  0  0  0  0  0  0  0  0
   45.3470   30.9280   49.5250 C   0  0  0  0  0  0  0  0  0  0  0  0
   45.6700   30.1090   48.4590 C   0  0  0  0  0  0  0  0  0  0  0  0
   45.7590   30.9290   47.3530 C   0  0  0  0  0  0  0  0  0  0  0  0
   46.0450   30.6860   46.0350 C   0  0  0  0  0  0  0  0  0  0  0  0
   46.3010   31.4590   44.0900 H   0  0  0  0  0  0  0  0  0  0  0  0
   45.2990   34.3130   47.1640 H   0  0  0  0  0  0  0  0  0  0  0  0
   45.0120   32.9710   49.7080 H   0  0  0  0  0  0  0  0  0  0  0  0
   45.2300   30.4690   50.4930 H   0  0  0  0  0  0  0  0  0  0  0  0
   45.8360   29.0520   48.4010 H   0  0  0  0  0  0  0  0  0  0  0  0
   46.2540   29.6710   45.7260 H   0  0  0  0  0  0  0  0  0  0  0  0
   46.9000   34.9980   42.6550 C   0  0  0  0  0  0  0  0  0  0  0  0
   45.9530   36.0230   42.5740 C   0  0  0  0  0  0  0  0  0  0  0  0
   44.9320   36.0260   43.5160 C   0  0  0  0  0  0  0  0  0  0  0  0
   44.9020   35.0470   44.4590 N   0  0  0  0  0  0  0  0  0  0  0  0
   45.8400   34.0700   44.5040 C   0  0  0  0  0  0  0  0  0  0  0  0
   46.8400   34.0420   43.6040 N   0  0  0  0  0  0  0  0  0  0  0  0
   46.0180   36.7830   41.8030 H   0  0  0  0  0  0  0  0  0  0  0  0
   44.1890   36.8120   43.4700 H   0  0  0  0  0  0  0  0  0  0  0  0
   47.9450   35.0300   41.6580 C   0  0  0  0  0  0  0  0  0  0  0  0
   48.8940   35.8730   41.6300 O   0  0  0  0  0  0  0  0  0  0  0  0
   47.9600   34.0400   40.5820 C   0  0  0  0  0  3  0  0  0  0  0  0
   46.8950   33.8840   39.8200 C   0  0  0  0  0  3  0  0  0  0  0  0
   46.8170   32.9080   38.7070 C   0  0  0  0  0  2  0  0  0  0  0  0
   47.7060   32.2510   38.7620 H   0  0  0  0  0  0  0  0  0  0  0  0
  1  2  2  0  0  0  0
  1  9  1  0  0  0  0
  2  3  1  0  0  0  0
  3 11  1  0  0  0  0
  3  4  2  0  0  0  0
  4  5  1  0  0  0  0
  5  6  1  0  0  0  0
  5 12  1  0  0  0  0
  6 13  1  0  0  0  0
  7  6  2  0  0  0  0
  8  4  1  0  0  0  0
  8  7  1  0  0  0  0
  9  8  2  0  0  0  0
 10  1  1  0  0  0  0
 14  7  1  0  0  0  0
 15  9  1  0  0  0  0
 16 21  1  0  0  0  0
 17 16  2  0  0  0  0
 17 18  1  0  0  0  0
 18 19  2  0  0  0  0
 19 20  1  0  0  0  0
 20  2  1  0  0  0  0
 21 20  2  0  0  0  0
 22 17  1  0  0  0  0
 23 18  1  0  0  0  0
 24 16  1  0  0  0  0
 25 24  2  0  0  0  0
 26 24  1  0  0  0  0
 27 26  2  0  0  0  0
 28 29  1  0  0  0  0
 28 27  1  0  0  0  0
M  END
>  <minimizedAffinity>
-5.6085515

>  <minimizedRMSD>
0.132923514

$$$$
