
 OpenBabel03252505573D

 31 32  0  0  0  0  0  0  0  0999 V2000
   45.6370   33.3080   47.3790 O   0  0  0  0  0  0  0  0  0  0  0  0
   44.7590   35.2240   44.5220 C   0  0  0  0  0  0  0  0  0  0  0  0
   45.1920   34.4370   43.4380 C   0  0  0  0  0  0  0  0  0  0  0  0
   45.7970   33.2220   43.7610 C   0  0  0  0  0  0  0  0  0  0  0  0
   45.9300   32.8790   45.0530 N   0  0  0  0  0  0  0  0  0  0  0  0
   45.5030   33.6590   46.0490 C   0  0  0  0  0  0  0  0  0  0  0  0
   44.9210   34.8240   45.7900 N   0  0  0  0  0  0  0  0  0  0  0  0
   44.2810   36.1840   44.2800 H   0  0  0  0  0  0  0  0  0  0  0  0
   44.9900   34.9290   42.0520 C   0  0  0  0  0  0  0  0  0  0  0  0
   44.3350   36.1490   42.2190 F   0  0  0  0  0  0  0  0  0  0  0  0
   44.1160   34.0420   41.4420 F   0  0  0  0  0  0  0  0  0  0  0  0
   46.1770   35.0700   41.4420 F   0  0  0  0  0  0  0  0  0  0  0  0
   46.2540   32.3070   42.7550 C   0  0  0  0  0  3  0  0  0  0  0  0
   47.5400   32.2940   42.3620 C   0  0  0  0  0  3  0  0  0  0  0  0
   48.5630   33.2230   42.9440 C   0  0  0  0  0  2  0  0  0  0  0  0
   48.3440   34.2900   42.7210 H   0  0  0  0  0  0  0  0  0  0  0  0
   45.0380   32.1330   47.8850 C   0  0  0  0  0  0  0  0  0  0  0  0
   44.7820   32.3470   48.9420 H   0  0  0  0  0  0  0  0  0  0  0  0
   44.0990   31.8610   47.3760 H   0  0  0  0  0  0  0  0  0  0  0  0
   46.0610   31.0710   47.8710 C   0  0  0  0  0  0  0  0  0  0  0  0
   46.0470   29.8010   47.3170 C   0  0  0  0  0  0  0  0  0  0  0  0
   47.1500   29.0310   47.4590 C   0  0  0  0  0  0  0  0  0  0  0  0
   48.2380   29.4320   48.1020 N   0  0  0  0  0  0  0  0  0  0  0  0
   48.2510   30.6640   48.6390 C   0  0  0  0  0  0  0  0  0  0  0  0
   47.1720   31.5070   48.5380 N   0  0  0  0  0  0  0  0  0  0  0  0
   45.1260   29.5990   46.8320 H   0  0  0  0  0  0  0  0  0  0  0  0
   47.1010   28.0480   47.0130 H   0  0  0  0  0  0  0  0  0  0  0  0
   49.5080   31.0430   49.3450 C   0  0  0  0  0  0  0  0  0  0  0  0
   49.6730   32.3990   49.3840 F   0  0  0  0  0  0  0  0  0  0  0  0
   50.6050   30.4610   48.6930 F   0  0  0  0  0  0  0  0  0  0  0  0
   49.5130   30.5820   50.6550 F   0  0  0  0  0  0  0  0  0  0  0  0
  1 17  1  0  0  0  0
  2  7  1  0  0  0  0
  3  4  1  0  0  0  0
  3  2  2  0  0  0  0
  4  5  2  0  0  0  0
  5  6  1  0  0  0  0
  6  1  1  0  0  0  0
  7  6  2  0  0  0  0
  8  2  1  0  0  0  0
  9 10  1  0  0  0  0
  9  3  1  0  0  0  0
 11  9  1  0  0  0  0
 12  9  1  0  0  0  0
 13  4  1  0  0  0  0
 14 13  2  0  0  0  0
 14 15  1  0  0  0  0
 16 15  1  0  0  0  0
 17 18  1  0  0  0  0
 19 17  1  0  0  0  0
 20 17  1  0  0  0  0
 20 25  1  0  0  0  0
 21 22  1  0  0  0  0
 21 20  2  0  0  0  0
 22 23  2  0  0  0  0
 23 24  1  0  0  0  0
 24 28  1  0  0  0  0
 25 24  2  0  0  0  0
 26 21  1  0  0  0  0
 27 22  1  0  0  0  0
 28 29  1  0  0  0  0
 28 31  1  0  0  0  0
 30 28  1  0  0  0  0
M  END
>  <minimizedAffinity>
-5.26837587

>  <minimizedRMSD>
1.02457988

$$$$
