
 OpenBabel03252506273D

 40 43  0  0  0  0  0  0  0  0999 V2000
   36.8180   29.9420   41.8020 C   0  0  0  0  0  0  0  0  0  0  0  0
   36.1260   30.3040   42.5890 H   0  0  0  0  0  0  0  0  0  0  0  0
   37.6520   30.6930   41.8130 H   0  0  0  0  0  0  0  0  0  0  0  0
   36.9000   27.3850   42.0460 C   0  0  0  0  0  0  0  0  0  0  0  0
   37.4040   28.6520   42.1590 C   0  0  0  0  0  0  0  0  0  0  0  0
   38.6880   28.7510   42.7030 C   0  0  0  0  0  0  0  0  0  0  0  0
   39.3910   27.6400   43.0960 C   0  0  0  0  0  0  0  0  0  0  0  0
   40.6150   27.4340   43.6390 N   0  0  0  0  0  0  0  0  0  0  0  0
   40.8420   26.1310   43.8420 C   0  0  0  0  0  0  0  0  0  0  0  0
   39.7440   25.4240   43.4270 C   0  0  0  0  0  0  0  0  0  0  0  0
   38.8640   26.3910   42.9710 C   0  0  0  0  0  0  0  0  0  0  0  0
   37.5940   26.2700   42.4350 C   0  0  0  0  0  0  0  0  0  0  0  0
   35.9110   27.4120   41.6190 H   0  0  0  0  0  0  0  0  0  0  0  0
   39.2100   29.6790   42.8530 H   0  0  0  0  0  0  0  0  0  0  0  0
   41.2840   28.2030   43.8650 H   0  0  0  0  0  0  0  0  0  0  0  0
   41.7320   25.6750   44.2610 H   0  0  0  0  0  0  0  0  0  0  0  0
   39.5540   24.3630   43.4310 H   0  0  0  0  0  0  0  0  0  0  0  0
   36.9900   24.9540   42.2810 C   0  0  0  0  0  3  0  0  0  0  0  0
   36.6780   24.2720   41.2140 C   0  0  0  0  0  3  0  0  0  0  0  0
   36.7660   24.4600   39.7650 C   0  0  0  0  0  2  0  0  0  0  0  0
   36.1160   25.2950   39.4460 H   0  0  0  0  0  0  0  0  0  0  0  0
   36.1540   30.0440   40.4920 C   0  0  0  0  0  0  0  0  0  0  0  0
   35.9660   29.0070   40.1300 H   0  0  0  0  0  0  0  0  0  0  0  0
   35.1880   30.5550   40.4930 H   0  0  0  0  0  0  0  0  0  0  0  0
   38.7200   31.7710   38.7110 C   0  0  0  0  0  0  0  0  0  0  0  0
   37.9650   31.2320   37.6640 C   0  0  0  0  0  0  0  0  0  0  0  0
   36.9200   30.5260   38.1880 C   0  0  0  0  0  0  0  0  0  0  0  0
   37.0430   30.6360   39.5080 N   0  0  0  0  0  0  0  0  0  0  0  0
   38.1120   31.3770   39.8320 N   0  0  0  0  0  0  0  0  0  0  0  0
   38.2040   31.3740   36.6050 H   0  0  0  0  0  0  0  0  0  0  0  0
   36.1840   30.0100   37.5930 H   0  0  0  0  0  0  0  0  0  0  0  0
   41.2740   34.3210   39.2590 C   0  0  0  0  0  0  0  0  0  0  0  0
   42.1550   34.1300   38.2060 C   0  0  0  0  0  0  0  0  0  0  0  0
   41.8650   33.1070   37.2910 C   0  0  0  0  0  0  0  0  0  0  0  0
   40.7380   32.3800   37.5100 N   0  0  0  0  0  0  0  0  0  0  0  0
   39.9140   32.5860   38.5300 C   0  0  0  0  0  0  0  0  0  0  0  0
   40.1860   33.5600   39.4030 N   0  0  0  0  0  0  0  0  0  0  0  0
   41.4020   35.0820   40.0230 H   0  0  0  0  0  0  0  0  0  0  0  0
   43.0140   34.7490   38.1140 H   0  0  0  0  0  0  0  0  0  0  0  0
   42.5270   32.9210   36.4510 H   0  0  0  0  0  0  0  0  0  0  0  0
  1  3  1  0  0  0  0
  1  5  1  0  0  0  0
  1  2  1  0  0  0  0
  4  5  2  0  0  0  0
  4 12  1  0  0  0  0
  5  6  1  0  0  0  0
  6 14  1  0  0  0  0
  6  7  2  0  0  0  0
  7  8  1  0  0  0  0
  8  9  1  0  0  0  0
  8 15  1  0  0  0  0
  9 16  1  0  0  0  0
 10 17  1  0  0  0  0
 10  9  2  0  0  0  0
 11  7  1  0  0  0  0
 11 10  1  0  0  0  0
 12 11  2  0  0  0  0
 13  4  1  0  0  0  0
 18 12  1  0  0  0  0
 19 18  2  0  0  0  0
 20 19  1  0  0  0  0
 21 20  1  0  0  0  0
 22 24  1  0  0  0  0
 22  1  1  0  0  0  0
 23 22  1  0  0  0  0
 25 29  2  0  0  0  0
 26 27  2  0  0  0  0
 26 25  1  0  0  0  0
 27 28  1  0  0  0  0
 28 29  1  0  0  0  0
 28 22  1  0  0  0  0
 30 26  1  0  0  0  0
 31 27  1  0  0  0  0
 32 37  1  0  0  0  0
 32 38  1  0  0  0  0
 33 32  2  0  0  0  0
 34 35  2  0  0  0  0
 34 33  1  0  0  0  0
 35 36  1  0  0  0  0
 36 25  1  0  0  0  0
 36 37  2  0  0  0  0
 39 33  1  0  0  0  0
 40 34  1  0  0  0  0
M  END
>  <minimizedAffinity>
-6.24268055

$$$$

 OpenBabel03252506273D

 40 43  0  0  0  0  0  0  0  0999 V2000
   35.7620   27.8840   38.2060 C   0  0  0  0  0  0  0  0  0  0  0  0
   36.4890   27.8520   37.3680 H   0  0  0  0  0  0  0  0  0  0  0  0
   34.8930   27.2830   37.8280 H   0  0  0  0  0  0  0  0  0  0  0  0
   36.4220   27.6190   40.6750 C   0  0  0  0  0  0  0  0  0  0  0  0
   36.2770   27.1900   39.3840 C   0  0  0  0  0  0  0  0  0  0  0  0
   36.6820   25.8770   39.1300 C   0  0  0  0  0  0  0  0  0  0  0  0
   37.1910   25.0760   40.1210 C   0  0  0  0  0  0  0  0  0  0  0  0
   37.6510   23.8020   40.1690 N   0  0  0  0  0  0  0  0  0  0  0  0
   38.0480   23.4770   41.4050 C   0  0  0  0  0  0  0  0  0  0  0  0
   37.8550   24.5570   42.2260 C   0  0  0  0  0  0  0  0  0  0  0  0
   37.3230   25.5300   41.3970 C   0  0  0  0  0  0  0  0  0  0  0  0
   36.9290   26.8270   41.6710 C   0  0  0  0  0  0  0  0  0  0  0  0
   36.0840   28.6390   40.7710 H   0  0  0  0  0  0  0  0  0  0  0  0
   36.6280   25.4050   38.1640 H   0  0  0  0  0  0  0  0  0  0  0  0
   37.6860   23.1680   39.3400 H   0  0  0  0  0  0  0  0  0  0  0  0
   38.4580   22.5300   41.7370 H   0  0  0  0  0  0  0  0  0  0  0  0
   38.0530   24.6780   43.2790 H   0  0  0  0  0  0  0  0  0  0  0  0
   37.0510   27.3570   43.0220 C   0  0  0  0  0  3  0  0  0  0  0  0
   37.7420   28.3570   43.4920 C   0  0  0  0  0  3  0  0  0  0  0  0
   38.6610   29.3640   42.9570 C   0  0  0  0  0  2  0  0  0  0  0  0
   39.5800   28.8810   42.5770 H   0  0  0  0  0  0  0  0  0  0  0  0
   35.2930   29.2670   38.3850 C   0  0  0  0  0  0  0  0  0  0  0  0
   34.5580   29.4790   37.5750 H   0  0  0  0  0  0  0  0  0  0  0  0
   34.7840   29.4720   39.3310 H   0  0  0  0  0  0  0  0  0  0  0  0
   37.8310   31.7640   38.6290 C   0  0  0  0  0  0  0  0  0  0  0  0
   37.9580   31.3630   37.2940 C   0  0  0  0  0  0  0  0  0  0  0  0
   37.0360   30.3900   37.0330 C   0  0  0  0  0  0  0  0  0  0  0  0
   36.3760   30.2110   38.1750 N   0  0  0  0  0  0  0  0  0  0  0  0
   36.8410   31.0260   39.1330 N   0  0  0  0  0  0  0  0  0  0  0  0
   38.6910   31.7850   36.5990 H   0  0  0  0  0  0  0  0  0  0  0  0
   36.9230   29.9090   36.0740 H   0  0  0  0  0  0  0  0  0  0  0  0
   38.7960   34.7130   40.5510 C   0  0  0  0  0  0  0  0  0  0  0  0
   40.1790   34.7220   40.4600 C   0  0  0  0  0  0  0  0  0  0  0  0
   40.7900   33.6960   39.7240 C   0  0  0  0  0  0  0  0  0  0  0  0
   39.9750   32.7710   39.1560 N   0  0  0  0  0  0  0  0  0  0  0  0
   38.6520   32.7880   39.2620 C   0  0  0  0  0  0  0  0  0  0  0  0
   38.0660   33.7630   39.9610 N   0  0  0  0  0  0  0  0  0  0  0  0
   38.2220   35.4580   41.0940 H   0  0  0  0  0  0  0  0  0  0  0  0
   40.7370   35.4890   40.9390 H   0  0  0  0  0  0  0  0  0  0  0  0
   41.8710   33.6630   39.6260 H   0  0  0  0  0  0  0  0  0  0  0  0
  1 22  1  0  0  0  0
  1  5  1  0  0  0  0
  2  1  1  0  0  0  0
  3  1  1  0  0  0  0
  4 13  1  0  0  0  0
  4 12  1  0  0  0  0
  5  4  2  0  0  0  0
  6  5  1  0  0  0  0
  6  7  2  0  0  0  0
  7  8  1  0  0  0  0
  7 11  1  0  0  0  0
  8  9  1  0  0  0  0
  9 16  1  0  0  0  0
  9 10  2  0  0  0  0
 10 17  1  0  0  0  0
 11 12  2  0  0  0  0
 11 10  1  0  0  0  0
 12 18  1  0  0  0  0
 14  6  1  0  0  0  0
 15  8  1  0  0  0  0
 18 19  2  0  0  0  0
 20 19  1  0  0  0  0
 21 20  1  0  0  0  0
 22 24  1  0  0  0  0
 23 22  1  0  0  0  0
 25 29  2  0  0  0  0
 25 36  1  0  0  0  0
 26 25  1  0  0  0  0
 27 26  2  0  0  0  0
 27 28  1  0  0  0  0
 28 22  1  0  0  0  0
 28 29  1  0  0  0  0
 30 26  1  0  0  0  0
 31 27  1  0  0  0  0
 32 38  1  0  0  0  0
 33 32  1  0  0  0  0
 33 39  1  0  0  0  0
 34 33  2  0  0  0  0
 35 36  2  0  0  0  0
 35 34  1  0  0  0  0
 36 37  1  0  0  0  0
 37 32  2  0  0  0  0
 40 34  1  0  0  0  0
M  END
>  <minimizedAffinity>
-6.1289115

$$$$

 OpenBabel03252506273D

 40 43  0  0  0  0  0  0  0  0999 V2000
   34.9220   29.0780   38.8450 C   0  0  0  0  0  0  0  0  0  0  0  0
   33.9740   28.5450   38.6280 H   0  0  0  0  0  0  0  0  0  0  0  0
   34.5880   30.0280   39.3400 H   0  0  0  0  0  0  0  0  0  0  0  0
   36.3400   27.1300   39.7400 C   0  0  0  0  0  0  0  0  0  0  0  0
   35.7300   28.3510   39.8230 C   0  0  0  0  0  0  0  0  0  0  0  0
   35.8920   29.0330   41.0330 C   0  0  0  0  0  0  0  0  0  0  0  0
   36.6210   28.5000   42.0670 C   0  0  0  0  0  0  0  0  0  0  0  0
   36.9400   28.9170   43.3160 N   0  0  0  0  0  0  0  0  0  0  0  0
   37.6950   28.0120   43.9500 C   0  0  0  0  0  0  0  0  0  0  0  0
   37.8970   26.9460   43.1130 C   0  0  0  0  0  0  0  0  0  0  0  0
   37.2170   27.2820   41.9550 C   0  0  0  0  0  0  0  0  0  0  0  0
   37.0690   26.5910   40.7660 C   0  0  0  0  0  0  0  0  0  0  0  0
   36.1570   26.6850   38.7750 H   0  0  0  0  0  0  0  0  0  0  0  0
   35.4700   30.0000   41.2420 H   0  0  0  0  0  0  0  0  0  0  0  0
   36.6300   29.8290   43.7180 H   0  0  0  0  0  0  0  0  0  0  0  0
   38.0950   28.0770   44.9550 H   0  0  0  0  0  0  0  0  0  0  0  0
   38.4480   26.0320   43.2670 H   0  0  0  0  0  0  0  0  0  0  0  0
   37.6900   25.2840   40.6010 C   0  0  0  0  0  3  0  0  0  0  0  0
   38.9290   24.9440   40.3780 C   0  0  0  0  0  3  0  0  0  0  0  0
   40.2080   25.6350   40.1980 C   0  0  0  0  0  2  0  0  0  0  0  0
   40.1880   26.2450   39.2760 H   0  0  0  0  0  0  0  0  0  0  0  0
   35.5690   29.4500   37.5770 C   0  0  0  0  0  0  0  0  0  0  0  0
   35.7850   28.5080   37.0220 H   0  0  0  0  0  0  0  0  0  0  0  0
   34.9710   30.0760   36.9090 H   0  0  0  0  0  0  0  0  0  0  0  0
   38.3320   31.4880   38.5490 C   0  0  0  0  0  0  0  0  0  0  0  0
   38.9740   30.4580   37.8520 C   0  0  0  0  0  0  0  0  0  0  0  0
   38.0350   29.5740   37.4030 C   0  0  0  0  0  0  0  0  0  0  0  0
   36.8660   30.0560   37.8170 N   0  0  0  0  0  0  0  0  0  0  0  0
   37.0310   31.1980   38.5000 N   0  0  0  0  0  0  0  0  0  0  0  0
   40.0580   30.4030   37.7090 H   0  0  0  0  0  0  0  0  0  0  0  0
   38.2660   28.6870   36.8340 H   0  0  0  0  0  0  0  0  0  0  0  0
   40.9770   33.8140   39.5080 C   0  0  0  0  0  0  0  0  0  0  0  0
   40.3280   34.7230   40.3290 C   0  0  0  0  0  0  0  0  0  0  0  0
   38.9570   34.5320   40.5570 C   0  0  0  0  0  0  0  0  0  0  0  0
   38.3710   33.4670   39.9520 N   0  0  0  0  0  0  0  0  0  0  0  0
   39.0190   32.6130   39.1700 C   0  0  0  0  0  0  0  0  0  0  0  0
   40.3250   32.7910   38.9500 N   0  0  0  0  0  0  0  0  0  0  0  0
   42.0340   33.8670   39.2650 H   0  0  0  0  0  0  0  0  0  0  0  0
   40.8700   35.5290   40.7600 H   0  0  0  0  0  0  0  0  0  0  0  0
   38.4080   35.2200   41.1920 H   0  0  0  0  0  0  0  0  0  0  0  0
  1  3  1  0  0  0  0
  1  5  1  0  0  0  0
  2  1  1  0  0  0  0
  4  5  2  0  0  0  0
  4 12  1  0  0  0  0
  5  6  1  0  0  0  0
  6 14  1  0  0  0  0
  6  7  2  0  0  0  0
  7  8  1  0  0  0  0
  8 15  1  0  0  0  0
  8  9  1  0  0  0  0
  9 16  1  0  0  0  0
 10 17  1  0  0  0  0
 10  9  2  0  0  0  0
 11  7  1  0  0  0  0
 11 10  1  0  0  0  0
 12 11  2  0  0  0  0
 13  4  1  0  0  0  0
 18 12  1  0  0  0  0
 19 18  2  0  0  0  0
 20 19  1  0  0  0  0
 21 20  1  0  0  0  0
 22 28  1  0  0  0  0
 22  1  1  0  0  0  0
 23 22  1  0  0  0  0
 24 22  1  0  0  0  0
 25 36  1  0  0  0  0
 26 25  1  0  0  0  0
 27 28  1  0  0  0  0
 27 26  2  0  0  0  0
 28 29  1  0  0  0  0
 29 25  2  0  0  0  0
 30 26  1  0  0  0  0
 31 27  1  0  0  0  0
 32 33  1  0  0  0  0
 33 34  2  0  0  0  0
 33 39  1  0  0  0  0
 34 40  1  0  0  0  0
 35 34  1  0  0  0  0
 36 35  2  0  0  0  0
 37 36  1  0  0  0  0
 37 32  2  0  0  0  0
 38 32  1  0  0  0  0
M  END
>  <minimizedAffinity>
-6.0944171

$$$$

 OpenBabel03252506273D

 40 43  0  0  0  0  0  0  0  0999 V2000
   35.5970   29.1140   38.8980 C   0  0  0  0  0  0  0  0  0  0  0  0
   34.6440   28.8120   38.4180 H   0  0  0  0  0  0  0  0  0  0  0  0
   35.3090   29.9920   39.5350 H   0  0  0  0  0  0  0  0  0  0  0  0
   36.4650   28.1480   41.1160 C   0  0  0  0  0  0  0  0  0  0  0  0
   36.0920   28.0780   39.8010 C   0  0  0  0  0  0  0  0  0  0  0  0
   36.1940   26.8170   39.2060 C   0  0  0  0  0  0  0  0  0  0  0  0
   36.6410   25.7250   39.9060 C   0  0  0  0  0  0  0  0  0  0  0  0
   36.8390   24.4190   39.6020 N   0  0  0  0  0  0  0  0  0  0  0  0
   37.2990   23.7400   40.6590 C   0  0  0  0  0  0  0  0  0  0  0  0
   37.4210   24.6040   41.7160 C   0  0  0  0  0  0  0  0  0  0  0  0
   37.0050   25.8250   41.2130 C   0  0  0  0  0  0  0  0  0  0  0  0
   36.9120   27.0640   41.8220 C   0  0  0  0  0  0  0  0  0  0  0  0
   36.3520   29.1560   41.4830 H   0  0  0  0  0  0  0  0  0  0  0  0
   35.9380   26.6110   38.1810 H   0  0  0  0  0  0  0  0  0  0  0  0
   36.6520   24.0100   38.6600 H   0  0  0  0  0  0  0  0  0  0  0  0
   37.5460   22.6860   40.7080 H   0  0  0  0  0  0  0  0  0  0  0  0
   37.7570   24.4290   42.7260 H   0  0  0  0  0  0  0  0  0  0  0  0
   37.2890   27.2190   43.2200 C   0  0  0  0  0  3  0  0  0  0  0  0
   38.4470   27.4420   43.7770 C   0  0  0  0  0  3  0  0  0  0  0  0
   39.8280   27.6310   43.3270 C   0  0  0  0  0  2  0  0  0  0  0  0
   40.2090   26.7060   42.8570 H   0  0  0  0  0  0  0  0  0  0  0  0
   36.5220   29.6090   37.8650 C   0  0  0  0  0  0  0  0  0  0  0  0
   37.2610   28.8000   37.6610 H   0  0  0  0  0  0  0  0  0  0  0  0
   36.0640   29.8640   36.9060 H   0  0  0  0  0  0  0  0  0  0  0  0
   38.9740   32.1100   38.5530 C   0  0  0  0  0  0  0  0  0  0  0  0
   37.9720   32.4380   39.4740 C   0  0  0  0  0  0  0  0  0  0  0  0
   36.9390   31.5550   39.3380 C   0  0  0  0  0  0  0  0  0  0  0  0
   37.3070   30.7240   38.3670 N   0  0  0  0  0  0  0  0  0  0  0  0
   38.5190   31.0450   37.8920 N   0  0  0  0  0  0  0  0  0  0  0  0
   38.0400   33.2750   40.1760 H   0  0  0  0  0  0  0  0  0  0  0  0
   36.0390   31.5860   39.9320 H   0  0  0  0  0  0  0  0  0  0  0  0
   41.6700   34.4940   39.1620 C   0  0  0  0  0  0  0  0  0  0  0  0
   42.5850   34.2120   38.1590 C   0  0  0  0  0  0  0  0  0  0  0  0
   42.2680   33.1850   37.2580 C   0  0  0  0  0  0  0  0  0  0  0  0
   41.0850   32.5440   37.4390 N   0  0  0  0  0  0  0  0  0  0  0  0
   40.2290   32.8360   38.4100 C   0  0  0  0  0  0  0  0  0  0  0  0
   40.5260   33.8140   39.2710 N   0  0  0  0  0  0  0  0  0  0  0  0
   41.8140   35.2670   39.9110 H   0  0  0  0  0  0  0  0  0  0  0  0
   43.4890   34.7680   38.0950 H   0  0  0  0  0  0  0  0  0  0  0  0
   42.9550   32.9300   36.4570 H   0  0  0  0  0  0  0  0  0  0  0  0
  1  3  1  0  0  0  0
  1  5  1  0  0  0  0
  2  1  1  0  0  0  0
  4 13  1  0  0  0  0
  4 12  1  0  0  0  0
  5  4  2  0  0  0  0
  6  5  1  0  0  0  0
  6  7  2  0  0  0  0
  7 11  1  0  0  0  0
  8  7  1  0  0  0  0
  8  9  1  0  0  0  0
  9 16  1  0  0  0  0
  9 10  2  0  0  0  0
 10 17  1  0  0  0  0
 11 10  1  0  0  0  0
 11 12  2  0  0  0  0
 12 18  1  0  0  0  0
 14  6  1  0  0  0  0
 15  8  1  0  0  0  0
 18 19  2  0  0  0  0
 20 19  1  0  0  0  0
 21 20  1  0  0  0  0
 22 28  1  0  0  0  0
 22  1  1  0  0  0  0
 23 22  1  0  0  0  0
 24 22  1  0  0  0  0
 25 26  1  0  0  0  0
 26 30  1  0  0  0  0
 27 26  2  0  0  0  0
 27 31  1  0  0  0  0
 28 27  1  0  0  0  0
 29 28  1  0  0  0  0
 29 25  2  0  0  0  0
 32 37  1  0  0  0  0
 32 38  1  0  0  0  0
 33 32  2  0  0  0  0
 34 35  2  0  0  0  0
 34 33  1  0  0  0  0
 35 36  1  0  0  0  0
 36 25  1  0  0  0  0
 36 37  2  0  0  0  0
 39 33  1  0  0  0  0
 40 34  1  0  0  0  0
M  END
>  <minimizedAffinity>
-5.9268465

$$$$

 OpenBabel03252506273D

 40 43  0  0  0  0  0  0  0  0999 V2000
   37.6950   33.5410   39.7430 C   0  0  0  0  0  0  0  0  0  0  0  0
   37.8280   34.1320   38.8140 H   0  0  0  0  0  0  0  0  0  0  0  0
   36.8880   34.0910   40.2960 H   0  0  0  0  0  0  0  0  0  0  0  0
   36.6080   31.2760   40.2850 C   0  0  0  0  0  0  0  0  0  0  0  0
   37.1780   32.2050   39.4570 C   0  0  0  0  0  0  0  0  0  0  0  0
   37.2950   31.8340   38.1150 C   0  0  0  0  0  0  0  0  0  0  0  0
   36.8610   30.6120   37.6650 C   0  0  0  0  0  0  0  0  0  0  0  0
   36.8430   29.9970   36.4580 N   0  0  0  0  0  0  0  0  0  0  0  0
   36.2990   28.7770   36.5440 C   0  0  0  0  0  0  0  0  0  0  0  0
   35.9340   28.5500   37.8450 C   0  0  0  0  0  0  0  0  0  0  0  0
   36.2970   29.7080   38.5120 C   0  0  0  0  0  0  0  0  0  0  0  0
   36.1720   30.0550   39.8450 C   0  0  0  0  0  0  0  0  0  0  0  0
   36.5630   31.6530   41.2940 H   0  0  0  0  0  0  0  0  0  0  0  0
   37.7220   32.4600   37.3500 H   0  0  0  0  0  0  0  0  0  0  0  0
   37.2110   30.4310   35.5830 H   0  0  0  0  0  0  0  0  0  0  0  0
   36.1560   28.0620   35.7420 H   0  0  0  0  0  0  0  0  0  0  0  0
   35.4690   27.6900   38.3000 H   0  0  0  0  0  0  0  0  0  0  0  0
   35.5750   29.1200   40.7880 C   0  0  0  0  0  3  0  0  0  0  0  0
   36.1050   28.1720   41.5100 C   0  0  0  0  0  3  0  0  0  0  0  0
   37.4430   27.6140   41.7210 C   0  0  0  0  0  2  0  0  0  0  0  0
   37.8130   27.1430   40.7920 H   0  0  0  0  0  0  0  0  0  0  0  0
   38.9210   33.6340   40.5530 C   0  0  0  0  0  0  0  0  0  0  0  0
   38.9130   34.6260   41.0600 H   0  0  0  0  0  0  0  0  0  0  0  0
   39.0240   32.8810   41.3390 H   0  0  0  0  0  0  0  0  0  0  0  0
   41.6680   32.8960   38.3980 C   0  0  0  0  0  0  0  0  0  0  0  0
   41.8270   34.2720   38.5950 C   0  0  0  0  0  0  0  0  0  0  0  0
   40.8330   34.7200   39.4180 C   0  0  0  0  0  0  0  0  0  0  0  0
   40.0990   33.6480   39.7050 N   0  0  0  0  0  0  0  0  0  0  0  0
   40.5880   32.5550   39.1030 N   0  0  0  0  0  0  0  0  0  0  0  0
   42.6330   34.8630   38.1460 H   0  0  0  0  0  0  0  0  0  0  0  0
   40.7270   35.7480   39.7290 H   0  0  0  0  0  0  0  0  0  0  0  0
   42.8270   30.2740   36.1390 C   0  0  0  0  0  0  0  0  0  0  0  0
   44.1860   30.5240   36.0210 C   0  0  0  0  0  0  0  0  0  0  0  0
   44.7120   31.6120   36.7320 C   0  0  0  0  0  0  0  0  0  0  0  0
   43.8450   32.3390   37.4830 N   0  0  0  0  0  0  0  0  0  0  0  0
   42.5480   32.0760   37.5750 C   0  0  0  0  0  0  0  0  0  0  0  0
   42.0420   31.0400   36.9000 N   0  0  0  0  0  0  0  0  0  0  0  0
   42.3170   29.4590   35.6330 H   0  0  0  0  0  0  0  0  0  0  0  0
   44.7880   29.8980   35.4070 H   0  0  0  0  0  0  0  0  0  0  0  0
   45.7700   31.8450   36.6690 H   0  0  0  0  0  0  0  0  0  0  0  0
  1  3  1  0  0  0  0
  1 22  1  0  0  0  0
  2  1  1  0  0  0  0
  4 13  1  0  0  0  0
  5  1  1  0  0  0  0
  5  4  2  0  0  0  0
  6  5  1  0  0  0  0
  7  6  2  0  0  0  0
  7 11  1  0  0  0  0
  8  9  1  0  0  0  0
  8  7  1  0  0  0  0
  9 10  2  0  0  0  0
 10 17  1  0  0  0  0
 10 11  1  0  0  0  0
 11 12  2  0  0  0  0
 12  4  1  0  0  0  0
 12 18  1  0  0  0  0
 14  6  1  0  0  0  0
 15  8  1  0  0  0  0
 16  9  1  0  0  0  0
 18 19  2  0  0  0  0
 19 20  1  0  0  0  0
 21 20  1  0  0  0  0
 22 23  1  0  0  0  0
 22 24  1  0  0  0  0
 25 26  1  0  0  0  0
 25 29  2  0  0  0  0
 26 27  2  0  0  0  0
 27 28  1  0  0  0  0
 27 31  1  0  0  0  0
 28 22  1  0  0  0  0
 29 28  1  0  0  0  0
 30 26  1  0  0  0  0
 32 37  1  0  0  0  0
 33 32  2  0  0  0  0
 33 34  1  0  0  0  0
 34 35  2  0  0  0  0
 35 36  1  0  0  0  0
 36 25  1  0  0  0  0
 37 36  2  0  0  0  0
 38 32  1  0  0  0  0
 39 33  1  0  0  0  0
 40 34  1  0  0  0  0
M  END
>  <minimizedAffinity>
-5.92075872

$$$$

 OpenBabel03252506273D

 40 43  0  0  0  0  0  0  0  0999 V2000
   37.6890   33.3920   39.9000 C   0  0  0  0  0  0  0  0  0  0  0  0
   37.7900   33.8480   38.8940 H   0  0  0  0  0  0  0  0  0  0  0  0
   36.8460   33.9640   40.3700 H   0  0  0  0  0  0  0  0  0  0  0  0
   36.9020   31.2430   38.7300 C   0  0  0  0  0  0  0  0  0  0  0  0
   37.2590   31.9980   39.8140 C   0  0  0  0  0  0  0  0  0  0  0  0
   37.2110   31.3490   41.0510 C   0  0  0  0  0  0  0  0  0  0  0  0
   36.8290   30.0350   41.1600 C   0  0  0  0  0  0  0  0  0  0  0  0
   36.6930   29.1690   42.1940 N   0  0  0  0  0  0  0  0  0  0  0  0
   36.2810   27.9690   41.7680 C   0  0  0  0  0  0  0  0  0  0  0  0
   36.1320   28.0130   40.4070 C   0  0  0  0  0  0  0  0  0  0  0  0
   36.4800   29.3080   40.0640 C   0  0  0  0  0  0  0  0  0  0  0  0
   36.5200   29.9320   38.8300 C   0  0  0  0  0  0  0  0  0  0  0  0
   36.9700   31.8290   37.8280 H   0  0  0  0  0  0  0  0  0  0  0  0
   37.4630   31.8150   41.9880 H   0  0  0  0  0  0  0  0  0  0  0  0
   36.8860   29.4210   43.1880 H   0  0  0  0  0  0  0  0  0  0  0  0
   36.0880   27.0880   42.3700 H   0  0  0  0  0  0  0  0  0  0  0  0
   35.8190   27.2490   39.7130 H   0  0  0  0  0  0  0  0  0  0  0  0
   36.1550   29.1950   37.6280 C   0  0  0  0  0  3  0  0  0  0  0  0
   34.9890   28.8620   37.1460 C   0  0  0  0  0  3  0  0  0  0  0  0
   33.5870   29.0420   37.5270 C   0  0  0  0  0  2  0  0  0  0  0  0
   33.3730   28.5040   38.4690 H   0  0  0  0  0  0  0  0  0  0  0  0
   38.9010   33.6790   40.6830 C   0  0  0  0  0  0  0  0  0  0  0  0
   38.8230   34.7290   41.0490 H   0  0  0  0  0  0  0  0  0  0  0  0
   39.0520   33.0510   41.5650 H   0  0  0  0  0  0  0  0  0  0  0  0
   41.6670   32.8480   38.5860 C   0  0  0  0  0  0  0  0  0  0  0  0
   41.7950   34.2380   38.6830 C   0  0  0  0  0  0  0  0  0  0  0  0
   40.7900   34.7220   39.4710 C   0  0  0  0  0  0  0  0  0  0  0  0
   40.0800   33.6580   39.8360 N   0  0  0  0  0  0  0  0  0  0  0  0
   40.5940   32.5350   39.3150 N   0  0  0  0  0  0  0  0  0  0  0  0
   42.5880   34.8120   38.1910 H   0  0  0  0  0  0  0  0  0  0  0  0
   40.6610   35.7670   39.7060 H   0  0  0  0  0  0  0  0  0  0  0  0
   42.8950   30.5110   36.0660 C   0  0  0  0  0  0  0  0  0  0  0  0
   44.2390   30.3720   36.3790 C   0  0  0  0  0  0  0  0  0  0  0  0
   44.7300   31.0950   37.4760 C   0  0  0  0  0  0  0  0  0  0  0  0
   43.8470   31.8770   38.1490 N   0  0  0  0  0  0  0  0  0  0  0  0
   42.5650   31.9900   37.8240 C   0  0  0  0  0  0  0  0  0  0  0  0
   42.0920   31.3030   36.7800 N   0  0  0  0  0  0  0  0  0  0  0  0
   42.4120   29.9980   35.2390 H   0  0  0  0  0  0  0  0  0  0  0  0
   44.8570   29.7350   35.7930 H   0  0  0  0  0  0  0  0  0  0  0  0
   45.7750   31.0180   37.7570 H   0  0  0  0  0  0  0  0  0  0  0  0
  1  3  1  0  0  0  0
  1 22  1  0  0  0  0
  2  1  1  0  0  0  0
  4 12  2  0  0  0  0
  4  5  1  0  0  0  0
  5  1  1  0  0  0  0
  5  6  2  0  0  0  0
  6  7  1  0  0  0  0
  6 14  1  0  0  0  0
  7  8  1  0  0  0  0
  8 15  1  0  0  0  0
  9  8  1  0  0  0  0
  9 16  1  0  0  0  0
 10  9  2  0  0  0  0
 11 10  1  0  0  0  0
 11  7  2  0  0  0  0
 12 11  1  0  0  0  0
 13  4  1  0  0  0  0
 17 10  1  0  0  0  0
 18 12  1  0  0  0  0
 19 20  1  0  0  0  0
 19 18  2  0  0  0  0
 20 21  1  0  0  0  0
 22 23  1  0  0  0  0
 22 24  1  0  0  0  0
 25 26  1  0  0  0  0
 25 29  2  0  0  0  0
 26 27  2  0  0  0  0
 27 31  1  0  0  0  0
 27 28  1  0  0  0  0
 28 22  1  0  0  0  0
 29 28  1  0  0  0  0
 30 26  1  0  0  0  0
 32 33  2  0  0  0  0
 32 37  1  0  0  0  0
 33 34  1  0  0  0  0
 34 40  1  0  0  0  0
 34 35  2  0  0  0  0
 36 35  1  0  0  0  0
 36 25  1  0  0  0  0
 37 36  2  0  0  0  0
 38 32  1  0  0  0  0
 39 33  1  0  0  0  0
M  END
>  <minimizedAffinity>
-5.80918455

$$$$

 OpenBabel03252506273D

 40 43  0  0  0  0  0  0  0  0999 V2000
   36.3050   28.0560   41.9910 C   0  0  0  0  0  0  0  0  0  0  0  0
   35.2340   28.0980   42.2760 H   0  0  0  0  0  0  0  0  0  0  0  0
   36.4320   27.0210   41.5780 H   0  0  0  0  0  0  0  0  0  0  0  0
   36.8840   28.7530   39.5870 C   0  0  0  0  0  0  0  0  0  0  0  0
   36.6060   28.9860   40.9050 C   0  0  0  0  0  0  0  0  0  0  0  0
   36.6040   30.3270   41.2990 C   0  0  0  0  0  0  0  0  0  0  0  0
   36.8660   31.3390   40.4100 C   0  0  0  0  0  0  0  0  0  0  0  0
   36.9310   32.6900   40.5010 N   0  0  0  0  0  0  0  0  0  0  0  0
   37.2290   33.2410   39.3180 C   0  0  0  0  0  0  0  0  0  0  0  0
   37.3710   32.2420   38.3920 C   0  0  0  0  0  0  0  0  0  0  0  0
   37.1390   31.0770   39.1030 C   0  0  0  0  0  0  0  0  0  0  0  0
   37.1470   29.7550   38.6920 C   0  0  0  0  0  0  0  0  0  0  0  0
   36.8630   27.6940   39.3810 H   0  0  0  0  0  0  0  0  0  0  0  0
   36.4030   30.6620   42.3020 H   0  0  0  0  0  0  0  0  0  0  0  0
   36.7690   33.2170   41.3870 H   0  0  0  0  0  0  0  0  0  0  0  0
   37.3460   34.2950   39.0950 H   0  0  0  0  0  0  0  0  0  0  0  0
   37.6070   32.2920   37.3410 H   0  0  0  0  0  0  0  0  0  0  0  0
   37.4340   29.4260   37.3030 C   0  0  0  0  0  3  0  0  0  0  0  0
   36.6410   29.1860   36.2960 C   0  0  0  0  0  3  0  0  0  0  0  0
   35.1950   29.1290   36.0670 C   0  0  0  0  0  2  0  0  0  0  0  0
   34.7480   28.2990   36.6440 H   0  0  0  0  0  0  0  0  0  0  0  0
   37.1310   28.1450   43.2060 C   0  0  0  0  0  0  0  0  0  0  0  0
   37.4960   29.1950   43.2870 H   0  0  0  0  0  0  0  0  0  0  0  0
   36.6150   27.9210   44.1430 H   0  0  0  0  0  0  0  0  0  0  0  0
   40.4260   26.7750   43.2230 C   0  0  0  0  0  0  0  0  0  0  0  0
   39.6920   25.7340   42.6460 C   0  0  0  0  0  0  0  0  0  0  0  0
   38.3810   26.1070   42.5640 C   0  0  0  0  0  0  0  0  0  0  0  0
   38.3280   27.3340   43.0780 N   0  0  0  0  0  0  0  0  0  0  0  0
   39.5420   27.7430   43.4730 N   0  0  0  0  0  0  0  0  0  0  0  0
   40.1320   24.7850   42.3220 H   0  0  0  0  0  0  0  0  0  0  0  0
   37.6010   25.4830   42.1560 H   0  0  0  0  0  0  0  0  0  0  0  0
   43.8330   25.5100   43.5590 C   0  0  0  0  0  0  0  0  0  0  0  0
   44.5630   26.6320   43.9210 C   0  0  0  0  0  0  0  0  0  0  0  0
   43.8700   27.8440   44.0520 C   0  0  0  0  0  0  0  0  0  0  0  0
   42.5330   27.8240   43.8130 N   0  0  0  0  0  0  0  0  0  0  0  0
   41.8620   26.7320   43.4670 C   0  0  0  0  0  0  0  0  0  0  0  0
   42.5180   25.5750   43.3410 N   0  0  0  0  0  0  0  0  0  0  0  0
   44.2680   24.5230   43.4300 H   0  0  0  0  0  0  0  0  0  0  0  0
   45.6100   26.5530   44.0880 H   0  0  0  0  0  0  0  0  0  0  0  0
   44.4000   28.7490   44.3330 H   0  0  0  0  0  0  0  0  0  0  0  0
  1  2  1  0  0  0  0
  1 22  1  0  0  0  0
  3  1  1  0  0  0  0
  4  5  1  0  0  0  0
  5  6  2  0  0  0  0
  5  1  1  0  0  0  0
  6 14  1  0  0  0  0
  7  8  1  0  0  0  0
  7  6  1  0  0  0  0
  8 15  1  0  0  0  0
  9  8  1  0  0  0  0
 10 11  1  0  0  0  0
 10  9  2  0  0  0  0
 11  7  2  0  0  0  0
 12 11  1  0  0  0  0
 12  4  2  0  0  0  0
 13  4  1  0  0  0  0
 16  9  1  0  0  0  0
 17 10  1  0  0  0  0
 18 12  1  0  0  0  0
 19 18  2  0  0  0  0
 20 19  1  0  0  0  0
 20 21  1  0  0  0  0
 22 23  1  0  0  0  0
 22 24  1  0  0  0  0
 25 36  1  0  0  0  0
 25 29  2  0  0  0  0
 26 25  1  0  0  0  0
 27 26  2  0  0  0  0
 27 28  1  0  0  0  0
 28 22  1  0  0  0  0
 28 29  1  0  0  0  0
 30 26  1  0  0  0  0
 31 27  1  0  0  0  0
 32 33  1  0  0  0  0
 33 34  2  0  0  0  0
 33 39  1  0  0  0  0
 34 40  1  0  0  0  0
 35 34  1  0  0  0  0
 36 35  2  0  0  0  0
 37 36  1  0  0  0  0
 37 32  2  0  0  0  0
 38 32  1  0  0  0  0
M  END
>  <minimizedAffinity>
-5.80690289

$$$$

 OpenBabel03252506273D

 40 43  0  0  0  0  0  0  0  0999 V2000
   36.9240   27.7520   42.8830 C   0  0  0  0  0  0  0  0  0  0  0  0
   36.5180   28.7150   42.5140 H   0  0  0  0  0  0  0  0  0  0  0  0
   36.1330   27.3800   43.5860 H   0  0  0  0  0  0  0  0  0  0  0  0
   36.7950   26.8920   40.4650 C   0  0  0  0  0  0  0  0  0  0  0  0
   37.0310   26.7690   41.8070 C   0  0  0  0  0  0  0  0  0  0  0  0
   37.4430   25.5060   42.2400 C   0  0  0  0  0  0  0  0  0  0  0  0
   37.5970   24.4600   41.3650 C   0  0  0  0  0  0  0  0  0  0  0  0
   37.9720   23.1640   41.4910 N   0  0  0  0  0  0  0  0  0  0  0  0
   37.9650   22.5400   40.3070 C   0  0  0  0  0  0  0  0  0  0  0  0
   37.5750   23.4320   39.3430 C   0  0  0  0  0  0  0  0  0  0  0  0
   37.3550   24.6120   40.0340 C   0  0  0  0  0  0  0  0  0  0  0  0
   36.9460   25.8550   39.5840 C   0  0  0  0  0  0  0  0  0  0  0  0
   36.4830   27.8970   40.2300 H   0  0  0  0  0  0  0  0  0  0  0  0
   37.6640   25.2610   43.2640 H   0  0  0  0  0  0  0  0  0  0  0  0
   38.2290   22.7230   42.4020 H   0  0  0  0  0  0  0  0  0  0  0  0
   38.2180   21.5050   40.1070 H   0  0  0  0  0  0  0  0  0  0  0  0
   37.4510   23.3020   38.2800 H   0  0  0  0  0  0  0  0  0  0  0  0
   36.6750   26.0650   38.1690 C   0  0  0  0  0  3  0  0  0  0  0  0
   35.8220   26.8440   37.5650 C   0  0  0  0  0  3  0  0  0  0  0  0
   34.7980   27.8140   37.9600 C   0  0  0  0  0  2  0  0  0  0  0  0
   33.9810   27.3080   38.5050 H   0  0  0  0  0  0  0  0  0  0  0  0
   38.1320   28.0130   43.6830 C   0  0  0  0  0  0  0  0  0  0  0  0
   37.8150   28.5670   44.5970 H   0  0  0  0  0  0  0  0  0  0  0  0
   38.6700   27.1260   44.0270 H   0  0  0  0  0  0  0  0  0  0  0  0
   39.7060   30.6980   41.9370 C   0  0  0  0  0  0  0  0  0  0  0  0
   40.7570   29.7810   42.0490 C   0  0  0  0  0  0  0  0  0  0  0  0
   40.3090   28.6710   42.7080 C   0  0  0  0  0  0  0  0  0  0  0  0
   39.0300   28.9130   42.9830 N   0  0  0  0  0  0  0  0  0  0  0  0
   38.6590   30.1180   42.5270 N   0  0  0  0  0  0  0  0  0  0  0  0
   41.7640   29.9590   41.6590 H   0  0  0  0  0  0  0  0  0  0  0  0
   40.9240   27.8120   42.9260 H   0  0  0  0  0  0  0  0  0  0  0  0
   41.1490   33.6770   40.3990 C   0  0  0  0  0  0  0  0  0  0  0  0
   40.0400   34.4430   40.0720 C   0  0  0  0  0  0  0  0  0  0  0  0
   38.7750   33.9260   40.3870 C   0  0  0  0  0  0  0  0  0  0  0  0
   38.7350   32.7100   40.9900 N   0  0  0  0  0  0  0  0  0  0  0  0
   39.8150   31.9990   41.2900 C   0  0  0  0  0  0  0  0  0  0  0  0
   41.0220   32.4870   40.9920 N   0  0  0  0  0  0  0  0  0  0  0  0
   42.1720   33.9810   40.2000 H   0  0  0  0  0  0  0  0  0  0  0  0
   40.1690   35.3870   39.6000 H   0  0  0  0  0  0  0  0  0  0  0  0
   37.8790   34.4910   40.1500 H   0  0  0  0  0  0  0  0  0  0  0  0
  1  3  1  0  0  0  0
  1 22  1  0  0  0  0
  2  1  1  0  0  0  0
  4  5  1  0  0  0  0
  5  6  2  0  0  0  0
  5  1  1  0  0  0  0
  6 14  1  0  0  0  0
  7  8  1  0  0  0  0
  7  6  1  0  0  0  0
  8 15  1  0  0  0  0
  9  8  1  0  0  0  0
 10 11  1  0  0  0  0
 10  9  2  0  0  0  0
 11  7  2  0  0  0  0
 12 11  1  0  0  0  0
 12  4  2  0  0  0  0
 13  4  1  0  0  0  0
 16  9  1  0  0  0  0
 17 10  1  0  0  0  0
 18 12  1  0  0  0  0
 19 20  1  0  0  0  0
 19 18  2  0  0  0  0
 20 21  1  0  0  0  0
 22 24  1  0  0  0  0
 22 23  1  0  0  0  0
 25 26  1  0  0  0  0
 25 29  2  0  0  0  0
 26 27  2  0  0  0  0
 27 31  1  0  0  0  0
 27 28  1  0  0  0  0
 28 22  1  0  0  0  0
 29 28  1  0  0  0  0
 30 26  1  0  0  0  0
 32 37  1  0  0  0  0
 33 34  1  0  0  0  0
 33 32  2  0  0  0  0
 34 35  2  0  0  0  0
 35 36  1  0  0  0  0
 36 25  1  0  0  0  0
 37 36  2  0  0  0  0
 38 32  1  0  0  0  0
 39 33  1  0  0  0  0
 40 34  1  0  0  0  0
M  END
>  <minimizedAffinity>
-5.78176689

$$$$

 OpenBabel03252506273D

 40 43  0  0  0  0  0  0  0  0999 V2000
   35.7480   29.8570   39.4030 C   0  0  0  0  0  0  0  0  0  0  0  0
   34.8170   29.6470   38.8380 H   0  0  0  0  0  0  0  0  0  0  0  0
   35.4330   30.6220   40.1620 H   0  0  0  0  0  0  0  0  0  0  0  0
   36.6180   28.5560   41.4410 C   0  0  0  0  0  0  0  0  0  0  0  0
   36.1980   28.6820   40.1450 C   0  0  0  0  0  0  0  0  0  0  0  0
   36.1930   27.5060   39.3900 C   0  0  0  0  0  0  0  0  0  0  0  0
   36.5850   26.3050   39.9250 C   0  0  0  0  0  0  0  0  0  0  0  0
   36.6810   25.0400   39.4490 N   0  0  0  0  0  0  0  0  0  0  0  0
   37.1270   24.2010   40.3910 C   0  0  0  0  0  0  0  0  0  0  0  0
   37.3430   24.9090   41.5440 C   0  0  0  0  0  0  0  0  0  0  0  0
   36.9970   26.2100   41.2190 C   0  0  0  0  0  0  0  0  0  0  0  0
   37.0110   27.3620   41.9840 C   0  0  0  0  0  0  0  0  0  0  0  0
   36.5880   29.5130   41.9390 H   0  0  0  0  0  0  0  0  0  0  0  0
   35.8890   27.4520   38.3590 H   0  0  0  0  0  0  0  0  0  0  0  0
   36.4350   24.7700   38.4710 H   0  0  0  0  0  0  0  0  0  0  0  0
   37.3010   23.1350   40.2940 H   0  0  0  0  0  0  0  0  0  0  0  0
   37.6990   24.5830   42.5080 H   0  0  0  0  0  0  0  0  0  0  0  0
   37.4440   27.3090   43.3730 C   0  0  0  0  0  3  0  0  0  0  0  0
   38.6370   27.2840   43.9000 C   0  0  0  0  0  3  0  0  0  0  0  0
   40.0180   27.2940   43.4130 C   0  0  0  0  0  2  0  0  0  0  0  0
   40.2300   26.3730   42.8390 H   0  0  0  0  0  0  0  0  0  0  0  0
   36.7190   30.5060   38.5080 C   0  0  0  0  0  0  0  0  0  0  0  0
   37.4080   29.7140   38.1300 H   0  0  0  0  0  0  0  0  0  0  0  0
   36.2950   30.9960   37.6280 H   0  0  0  0  0  0  0  0  0  0  0  0
   39.3070   32.1610   40.3260 C   0  0  0  0  0  0  0  0  0  0  0  0
   38.3340   33.1640   40.2450 C   0  0  0  0  0  0  0  0  0  0  0  0
   37.2530   32.6800   39.5640 C   0  0  0  0  0  0  0  0  0  0  0  0
   37.5660   31.4270   39.2450 N   0  0  0  0  0  0  0  0  0  0  0  0
   38.7880   31.1060   39.6950 N   0  0  0  0  0  0  0  0  0  0  0  0
   38.4540   34.1650   40.6710 H   0  0  0  0  0  0  0  0  0  0  0  0
   36.3620   33.2540   39.3620 H   0  0  0  0  0  0  0  0  0  0  0  0
   42.5780   33.5020   41.2310 C   0  0  0  0  0  0  0  0  0  0  0  0
   43.0260   32.6310   42.2110 C   0  0  0  0  0  0  0  0  0  0  0  0
   42.1890   31.5630   42.5660 C   0  0  0  0  0  0  0  0  0  0  0  0
   41.0000   31.4660   41.9180 N   0  0  0  0  0  0  0  0  0  0  0  0
   40.5970   32.3180   40.9840 C   0  0  0  0  0  0  0  0  0  0  0  0
   41.3910   33.3370   40.6420 N   0  0  0  0  0  0  0  0  0  0  0  0
   43.1440   34.3600   40.8810 H   0  0  0  0  0  0  0  0  0  0  0  0
   43.9760   32.7860   42.6650 H   0  0  0  0  0  0  0  0  0  0  0  0
   42.4990   30.8560   43.3290 H   0  0  0  0  0  0  0  0  0  0  0  0
  1  5  1  0  0  0  0
  1  3  1  0  0  0  0
  2  1  1  0  0  0  0
  4 13  1  0  0  0  0
  4 12  1  0  0  0  0
  5  4  2  0  0  0  0
  6  7  2  0  0  0  0
  6  5  1  0  0  0  0
  7 11  1  0  0  0  0
  8  7  1  0  0  0  0
  8  9  1  0  0  0  0
  9 10  2  0  0  0  0
 10 17  1  0  0  0  0
 11 10  1  0  0  0  0
 11 12  2  0  0  0  0
 12 18  1  0  0  0  0
 14  6  1  0  0  0  0
 15  8  1  0  0  0  0
 16  9  1  0  0  0  0
 18 19  2  0  0  0  0
 20 19  1  0  0  0  0
 21 20  1  0  0  0  0
 22 28  1  0  0  0  0
 22  1  1  0  0  0  0
 23 22  1  0  0  0  0
 24 22  1  0  0  0  0
 25 36  1  0  0  0  0
 26 25  1  0  0  0  0
 26 30  1  0  0  0  0
 27 26  2  0  0  0  0
 28 27  1  0  0  0  0
 28 29  1  0  0  0  0
 29 25  2  0  0  0  0
 31 27  1  0  0  0  0
 32 33  1  0  0  0  0
 33 34  2  0  0  0  0
 33 39  1  0  0  0  0
 34 40  1  0  0  0  0
 35 34  1  0  0  0  0
 36 35  2  0  0  0  0
 37 36  1  0  0  0  0
 37 32  2  0  0  0  0
 38 32  1  0  0  0  0
M  END
>  <minimizedAffinity>
-5.72994232

$$$$
