
 OpenBabel03242513503D

 26 27  0  0  1  0  0  0  0  0999 V2000
   37.3240   29.7450   41.9640 C   0  0  2  0  0  0  0  0  0  0  0  0
   38.2570   29.2870   43.0400 C   0  0  0  0  0  0  0  0  0  0  0  0
   37.4190   28.1950   43.6800 C   0  0  0  0  0  0  0  0  0  0  0  0
   36.5740   27.6430   42.5660 C   0  0  0  0  0  0  0  0  0  0  0  0
   36.9840   28.4050   41.3070 C   0  0  1  0  0  0  0  0  0  0  0  0
   36.4060   30.1810   42.3640 H   0  0  0  0  0  0  0  0  0  0  0  0
   38.3890   30.0750   43.8090 H   0  0  0  0  0  0  0  0  0  0  0  0
   39.2130   28.9490   42.6440 H   0  0  0  0  0  0  0  0  0  0  0  0
   38.1320   27.4010   43.9810 H   0  0  0  0  0  0  0  0  0  0  0  0
   36.8320   28.5590   44.5350 H   0  0  0  0  0  0  0  0  0  0  0  0
   35.5180   27.9430   42.7860 H   0  0  0  0  0  0  0  0  0  0  0  0
   36.6650   26.5670   42.4290 H   0  0  0  0  0  0  0  0  0  0  0  0
   37.8910   28.0120   40.8350 H   0  0  0  0  0  0  0  0  0  0  0  0
   39.6200   31.4560   39.4990 C   0  0  0  0  0  0  0  0  0  0  0  0
   39.1530   30.5020   40.3950 C   0  0  0  0  0  0  0  0  0  0  0  0
   37.9160   30.6960   41.0000 C   0  0  0  0  0  0  0  0  0  0  0  0
   37.2040   31.8360   40.6800 N   0  0  0  0  0  0  0  0  0  0  0  0
   37.7030   32.7310   39.8040 C   0  0  0  0  0  0  0  0  0  0  0  0
   38.8940   32.5490   39.2180 N   0  0  0  0  0  0  0  0  0  0  0  0
   40.5870   31.2500   39.0610 H   0  0  0  0  0  0  0  0  0  0  0  0
   39.6950   29.6040   40.6580 H   0  0  0  0  0  0  0  0  0  0  0  0
   37.0630   33.6070   39.6150 H   0  0  0  0  0  0  0  0  0  0  0  0
   35.8730   28.6120   40.3740 C   0  0  0  0  0  2  0  0  0  0  0  0
   34.7460   29.1450   39.9280 C   0  0  0  0  0  2  0  0  0  0  0  0
   33.9560   28.9110   38.6740 C   0  0  0  0  0  2  0  0  0  0  0  0
   34.5300   28.1730   38.0400 H   0  0  0  0  0  0  0  0  0  0  0  0
  1  6  1  1  0  0  0
  1  2  1  0  0  0  0
  2  3  1  0  0  0  0
  2  7  1  0  0  0  0
  3  9  1  0  0  0  0
  3 10  1  0  0  0  0
  4 11  1  0  0  0  0
  4  3  1  0  0  0  0
  5 13  1  6  0  0  0
  5  1  1  0  0  0  0
  5  4  1  0  0  0  0
  8  2  1  0  0  0  0
 12  4  1  0  0  0  0
 14 15  1  0  0  0  0
 15 21  1  0  0  0  0
 15 16  2  0  0  0  0
 16  1  1  0  0  0  0
 17 16  1  0  0  0  0
 18 17  2  0  0  0  0
 19 14  2  0  0  0  0
 19 18  1  0  0  0  0
 20 14  1  0  0  0  0
 22 18  1  0  0  0  0
 23  5  1  0  0  0  0
 24 23  1  0  0  0  0
 25 24  1  0  0  0  0
 26 25  1  0  0  0  0
M  END
>  <minimizedAffinity>
-4.56533909

$$$$

 OpenBabel03242513503D

 26 27  0  0  1  0  0  0  0  0999 V2000
   37.6540   28.8450   41.3390 C   0  0  2  0  0  0  0  0  0  0  0  0
   36.3410   28.1770   41.5970 C   0  0  0  0  0  0  0  0  0  0  0  0
   36.6460   27.4750   42.9080 C   0  0  0  0  0  0  0  0  0  0  0  0
   37.6570   28.3480   43.5970 C   0  0  0  0  0  0  0  0  0  0  0  0
   37.8700   29.5520   42.6790 C   0  0  1  0  0  0  0  0  0  0  0  0
   38.4650   28.1300   41.1860 H   0  0  0  0  0  0  0  0  0  0  0  0
   36.1510   27.3800   40.8490 H   0  0  0  0  0  0  0  0  0  0  0  0
   35.5170   28.8850   41.6460 H   0  0  0  0  0  0  0  0  0  0  0  0
   35.7100   27.5170   43.5010 H   0  0  0  0  0  0  0  0  0  0  0  0
   36.9880   26.4400   42.7630 H   0  0  0  0  0  0  0  0  0  0  0  0
   38.6210   27.7800   43.6000 H   0  0  0  0  0  0  0  0  0  0  0  0
   37.3690   28.6570   44.6000 H   0  0  0  0  0  0  0  0  0  0  0  0
   37.1030   30.3260   42.7900 H   0  0  0  0  0  0  0  0  0  0  0  0
   36.9410   31.7870   39.0770 C   0  0  0  0  0  0  0  0  0  0  0  0
   36.8730   30.9540   40.1870 C   0  0  0  0  0  0  0  0  0  0  0  0
   37.6480   29.7980   40.2100 C   0  0  0  0  0  0  0  0  0  0  0  0
   38.4540   29.5320   39.1200 N   0  0  0  0  0  0  0  0  0  0  0  0
   38.4840   30.3740   38.0670 C   0  0  0  0  0  0  0  0  0  0  0  0
   37.7400   31.4880   38.0400 N   0  0  0  0  0  0  0  0  0  0  0  0
   36.3160   32.6690   39.1180 H   0  0  0  0  0  0  0  0  0  0  0  0
   36.2480   31.1450   41.0490 H   0  0  0  0  0  0  0  0  0  0  0  0
   39.1560   30.0760   37.2480 H   0  0  0  0  0  0  0  0  0  0  0  0
   39.2410   30.0680   42.7190 C   0  0  0  0  0  2  0  0  0  0  0  0
   40.1950   30.9850   42.6710 C   0  0  0  0  0  2  0  0  0  0  0  0
   41.6860   30.8870   42.8020 C   0  0  0  0  0  2  0  0  0  0  0  0
   41.9390   29.8090   43.0300 H   0  0  0  0  0  0  0  0  0  0  0  0
  1  6  1  6  0  0  0
  1  2  1  0  0  0  0
  1  5  1  0  0  0  0
  2  8  1  0  0  0  0
  2  3  1  0  0  0  0
  3  9  1  0  0  0  0
  3  4  1  0  0  0  0
  4 11  1  0  0  0  0
  4 12  1  0  0  0  0
  5 23  1  0  0  0  0
  5 13  1  1  0  0  0
  5  4  1  0  0  0  0
  7  2  1  0  0  0  0
 10  3  1  0  0  0  0
 14 20  1  0  0  0  0
 14 15  1  0  0  0  0
 15 16  2  0  0  0  0
 15 21  1  0  0  0  0
 16  1  1  0  0  0  0
 17 16  1  0  0  0  0
 18 17  2  0  0  0  0
 19 18  1  0  0  0  0
 19 14  2  0  0  0  0
 22 18  1  0  0  0  0
 24 23  1  0  0  0  0
 24 25  1  0  0  0  0
 25 26  1  0  0  0  0
M  END
>  <minimizedAffinity>
-4.344491

$$$$

 OpenBabel03242513503D

 26 27  0  0  1  0  0  0  0  0999 V2000
   38.1820   30.3410   40.8960 C   0  0  2  0  0  0  0  0  0  0  0  0
   39.0500   31.4130   41.4740 C   0  0  0  0  0  0  0  0  0  0  0  0
   38.6770   32.5790   40.5770 C   0  0  0  0  0  0  0  0  0  0  0  0
   37.2480   32.3320   40.1830 C   0  0  0  0  0  0  0  0  0  0  0  0
   36.8260   31.0510   40.9030 C   0  0  1  0  0  0  0  0  0  0  0  0
   38.4450   30.1010   39.8630 H   0  0  0  0  0  0  0  0  0  0  0  0
   40.1210   31.1980   41.2840 H   0  0  0  0  0  0  0  0  0  0  0  0
   38.8560   31.5790   42.5320 H   0  0  0  0  0  0  0  0  0  0  0  0
   38.6930   33.4790   41.2240 H   0  0  0  0  0  0  0  0  0  0  0  0
   39.3560   32.6850   39.7180 H   0  0  0  0  0  0  0  0  0  0  0  0
   37.2550   32.0900   39.0890 H   0  0  0  0  0  0  0  0  0  0  0  0
   36.5750   33.1570   40.4080 H   0  0  0  0  0  0  0  0  0  0  0  0
   36.5280   31.2160   41.9440 H   0  0  0  0  0  0  0  0  0  0  0  0
   37.8470   27.8070   43.6790 C   0  0  0  0  0  0  0  0  0  0  0  0
   37.8540   29.0390   43.0360 C   0  0  0  0  0  0  0  0  0  0  0  0
   38.1500   29.0870   41.6770 C   0  0  0  0  0  0  0  0  0  0  0  0
   38.4250   27.9000   41.0270 N   0  0  0  0  0  0  0  0  0  0  0  0
   38.4040   26.7310   41.6980 C   0  0  0  0  0  0  0  0  0  0  0  0
   38.1200   26.6780   43.0060 N   0  0  0  0  0  0  0  0  0  0  0  0
   37.6110   27.8340   44.7340 H   0  0  0  0  0  0  0  0  0  0  0  0
   37.6420   29.9790   43.5270 H   0  0  0  0  0  0  0  0  0  0  0  0
   38.6370   25.8400   41.0930 H   0  0  0  0  0  0  0  0  0  0  0  0
   35.8740   30.2470   40.1330 C   0  0  0  0  0  2  0  0  0  0  0  0
   35.0130   29.2650   39.9140 C   0  0  0  0  0  2  0  0  0  0  0  0
   34.2120   28.8870   38.7030 C   0  0  0  0  0  2  0  0  0  0  0  0
   34.4060   29.6660   37.9090 H   0  0  0  0  0  0  0  0  0  0  0  0
  1  6  1  6  0  0  0
  1  5  1  0  0  0  0
  1  2  1  0  0  0  0
  1 16  1  0  0  0  0
  2  8  1  0  0  0  0
  3  9  1  0  0  0  0
  3  2  1  0  0  0  0
  4 12  1  0  0  0  0
  4  3  1  0  0  0  0
  4  5  1  0  0  0  0
  5 13  1  1  0  0  0
  7  2  1  0  0  0  0
 10  3  1  0  0  0  0
 11  4  1  0  0  0  0
 14 20  1  0  0  0  0
 15 21  1  0  0  0  0
 15 14  1  0  0  0  0
 16 15  2  0  0  0  0
 17 16  1  0  0  0  0
 17 18  2  0  0  0  0
 18 19  1  0  0  0  0
 19 14  2  0  0  0  0
 22 18  1  0  0  0  0
 23  5  1  0  0  0  0
 24 23  1  0  0  0  0
 25 24  1  0  0  0  0
 26 25  1  0  0  0  0
M  END
>  <minimizedAffinity>
-4.28409529

$$$$

 OpenBabel03242513503D

 26 27  0  0  1  0  0  0  0  0999 V2000
   36.9620   29.7350   39.2680 C   0  0  2  0  0  0  0  0  0  0  0  0
   36.3930   30.2750   37.9950 C   0  0  0  0  0  0  0  0  0  0  0  0
   35.3310   29.2290   37.7050 C   0  0  0  0  0  0  0  0  0  0  0  0
   34.8900   28.7320   39.0530 C   0  0  0  0  0  0  0  0  0  0  0  0
   35.6800   29.5410   40.0810 C   0  0  1  0  0  0  0  0  0  0  0  0
   37.4400   28.7630   39.1330 H   0  0  0  0  0  0  0  0  0  0  0  0
   37.1340   30.2090   37.1720 H   0  0  0  0  0  0  0  0  0  0  0  0
   36.0080   31.2870   38.1080 H   0  0  0  0  0  0  0  0  0  0  0  0
   34.4780   29.7760   37.2570 H   0  0  0  0  0  0  0  0  0  0  0  0
   35.6950   28.4300   37.0420 H   0  0  0  0  0  0  0  0  0  0  0  0
   35.2520   27.6760   39.1390 H   0  0  0  0  0  0  0  0  0  0  0  0
   33.8180   28.8050   39.2260 H   0  0  0  0  0  0  0  0  0  0  0  0
   35.2480   30.5270   40.2860 H   0  0  0  0  0  0  0  0  0  0  0  0
   38.5990   32.7370   40.8760 C   0  0  0  0  0  0  0  0  0  0  0  0
   37.6360   31.9710   40.2300 C   0  0  0  0  0  0  0  0  0  0  0  0
   37.9140   30.6380   39.9480 C   0  0  0  0  0  0  0  0  0  0  0  0
   39.1420   30.1330   40.3280 N   0  0  0  0  0  0  0  0  0  0  0  0
   40.0420   30.9180   40.9530 C   0  0  0  0  0  0  0  0  0  0  0  0
   39.7800   32.2030   41.2270 N   0  0  0  0  0  0  0  0  0  0  0  0
   38.3260   33.7650   41.0670 H   0  0  0  0  0  0  0  0  0  0  0  0
   36.6700   32.3480   39.9240 H   0  0  0  0  0  0  0  0  0  0  0  0
   40.9910   30.4250   41.2150 H   0  0  0  0  0  0  0  0  0  0  0  0
   36.0050   28.7750   41.2880 C   0  0  0  0  0  2  0  0  0  0  0  0
   36.6330   27.8640   42.0150 C   0  0  0  0  0  2  0  0  0  0  0  0
   36.5110   27.4780   43.4590 C   0  0  0  0  0  2  0  0  0  0  0  0
   35.7650   28.1780   43.9390 H   0  0  0  0  0  0  0  0  0  0  0  0
  1  6  1  6  0  0  0
  1 16  1  0  0  0  0
  1  5  1  0  0  0  0
  2  8  1  0  0  0  0
  2  1  1  0  0  0  0
  3  2  1  0  0  0  0
  3  4  1  0  0  0  0
  4 11  1  0  0  0  0
  4 12  1  0  0  0  0
  4  5  1  0  0  0  0
  5 13  1  1  0  0  0
  5 23  1  0  0  0  0
  7  2  1  0  0  0  0
  9  3  1  0  0  0  0
 10  3  1  0  0  0  0
 14 20  1  0  0  0  0
 14 19  1  0  0  0  0
 15 14  2  0  0  0  0
 16 15  1  0  0  0  0
 16 17  2  0  0  0  0
 17 18  1  0  0  0  0
 18 22  1  0  0  0  0
 18 19  2  0  0  0  0
 21 15  1  0  0  0  0
 23 24  1  0  0  0  0
 24 25  1  0  0  0  0
 25 26  1  0  0  0  0
M  END
>  <minimizedAffinity>
-4.28268051

$$$$

 OpenBabel03242513503D

 26 27  0  0  1  0  0  0  0  0999 V2000
   37.3100   32.0290   40.3100 C   0  0  2  0  0  0  0  0  0  0  0  0
   37.3300   33.2810   39.4920 C   0  0  0  0  0  0  0  0  0  0  0  0
   38.3650   34.0880   40.2550 C   0  0  0  0  0  0  0  0  0  0  0  0
   39.3050   33.0700   40.8400 C   0  0  0  0  0  0  0  0  0  0  0  0
   38.8060   31.7080   40.3580 C   0  0  1  0  0  0  0  0  0  0  0  0
   36.9560   32.2000   41.3290 H   0  0  0  0  0  0  0  0  0  0  0  0
   36.3700   33.8290   39.5880 H   0  0  0  0  0  0  0  0  0  0  0  0
   37.5830   33.0930   38.4510 H   0  0  0  0  0  0  0  0  0  0  0  0
   38.9290   34.6600   39.4910 H   0  0  0  0  0  0  0  0  0  0  0  0
   37.9140   34.7510   41.0080 H   0  0  0  0  0  0  0  0  0  0  0  0
   39.1470   33.0890   41.9480 H   0  0  0  0  0  0  0  0  0  0  0  0
   40.3500   33.2280   40.5800 H   0  0  0  0  0  0  0  0  0  0  0  0
   39.1380   31.4560   39.3460 H   0  0  0  0  0  0  0  0  0  0  0  0
   35.8490   29.4850   37.9290 C   0  0  0  0  0  0  0  0  0  0  0  0
   36.6260   30.5420   38.3860 C   0  0  0  0  0  0  0  0  0  0  0  0
   36.5290   30.9220   39.7210 C   0  0  0  0  0  0  0  0  0  0  0  0
   35.6600   30.2230   40.5360 N   0  0  0  0  0  0  0  0  0  0  0  0
   34.9290   29.2030   40.0430 C   0  0  0  0  0  0  0  0  0  0  0  0
   35.0180   28.8340   38.7580 N   0  0  0  0  0  0  0  0  0  0  0  0
   35.9670   29.2370   36.8830 H   0  0  0  0  0  0  0  0  0  0  0  0
   37.3110   31.1020   37.7630 H   0  0  0  0  0  0  0  0  0  0  0  0
   34.2650   28.7090   40.7700 H   0  0  0  0  0  0  0  0  0  0  0  0
   39.0220   30.6390   41.3370 C   0  0  0  0  0  2  0  0  0  0  0  0
   39.1080   30.0940   42.5400 C   0  0  0  0  0  2  0  0  0  0  0  0
   39.4210   28.6960   42.9870 C   0  0  0  0  0  2  0  0  0  0  0  0
   39.5380   28.0600   42.0610 H   0  0  0  0  0  0  0  0  0  0  0  0
  1  5  1  0  0  0  0
  1  6  1  1  0  0  0
  2  7  1  0  0  0  0
  2  3  1  0  0  0  0
  2  1  1  0  0  0  0
  3  4  1  0  0  0  0
  3 10  1  0  0  0  0
  4 11  1  0  0  0  0
  5 13  1  6  0  0  0
  5  4  1  0  0  0  0
  5 23  1  0  0  0  0
  8  2  1  0  0  0  0
  9  3  1  0  0  0  0
 12  4  1  0  0  0  0
 14 15  2  0  0  0  0
 14 19  1  0  0  0  0
 15 16  1  0  0  0  0
 16  1  1  0  0  0  0
 16 17  2  0  0  0  0
 18 17  1  0  0  0  0
 18 22  1  0  0  0  0
 19 18  2  0  0  0  0
 20 14  1  0  0  0  0
 21 15  1  0  0  0  0
 23 24  1  0  0  0  0
 24 25  1  0  0  0  0
 26 25  1  0  0  0  0
M  END
>  <minimizedAffinity>
-4.27612305

$$$$

 OpenBabel03242513503D

 26 27  0  0  1  0  0  0  0  0999 V2000
   37.0170   29.7410   39.2570 C   0  0  2  0  0  0  0  0  0  0  0  0
   36.4350   30.3110   38.0020 C   0  0  0  0  0  0  0  0  0  0  0  0
   35.3170   29.3160   37.7440 C   0  0  0  0  0  0  0  0  0  0  0  0
   34.8940   28.8380   39.1050 C   0  0  0  0  0  0  0  0  0  0  0  0
   35.7530   29.6070   40.1090 C   0  0  1  0  0  0  0  0  0  0  0  0
   37.4440   28.7480   39.1070 H   0  0  0  0  0  0  0  0  0  0  0  0
   37.1470   30.2110   37.1570 H   0  0  0  0  0  0  0  0  0  0  0  0
   36.1030   31.3390   38.1270 H   0  0  0  0  0  0  0  0  0  0  0  0
   34.4780   29.9030   37.3220 H   0  0  0  0  0  0  0  0  0  0  0  0
   35.6230   28.5020   37.0700 H   0  0  0  0  0  0  0  0  0  0  0  0
   35.2080   27.7650   39.1790 H   0  0  0  0  0  0  0  0  0  0  0  0
   33.8330   28.9610   39.3100 H   0  0  0  0  0  0  0  0  0  0  0  0
   35.3740   30.6110   40.3270 H   0  0  0  0  0  0  0  0  0  0  0  0
   40.2010   31.0530   40.8120 C   0  0  0  0  0  0  0  0  0  0  0  0
   39.3220   30.1690   40.1980 C   0  0  0  0  0  0  0  0  0  0  0  0
   38.0300   30.5970   39.9080 C   0  0  0  0  0  0  0  0  0  0  0  0
   37.6800   31.8900   40.2440 N   0  0  0  0  0  0  0  0  0  0  0  0
   38.5720   32.7090   40.8380 C   0  0  0  0  0  0  0  0  0  0  0  0
   39.8170   32.3020   41.1200 N   0  0  0  0  0  0  0  0  0  0  0  0
   41.1900   30.6630   41.0120 H   0  0  0  0  0  0  0  0  0  0  0  0
   39.5760   29.1540   39.9280 H   0  0  0  0  0  0  0  0  0  0  0  0
   38.1990   33.7190   41.0680 H   0  0  0  0  0  0  0  0  0  0  0  0
   36.0770   28.8240   41.3050 C   0  0  0  0  0  2  0  0  0  0  0  0
   36.5820   27.8120   41.9920 C   0  0  0  0  0  2  0  0  0  0  0  0
   36.6060   27.5130   43.4630 C   0  0  0  0  0  2  0  0  0  0  0  0
   36.1300   28.3880   43.9970 H   0  0  0  0  0  0  0  0  0  0  0  0
  1  6  1  6  0  0  0
  1 16  1  0  0  0  0
  1  5  1  0  0  0  0
  2  8  1  0  0  0  0
  2  1  1  0  0  0  0
  3  2  1  0  0  0  0
  3  4  1  0  0  0  0
  4 11  1  0  0  0  0
  4 12  1  0  0  0  0
  4  5  1  0  0  0  0
  5 13  1  1  0  0  0
  5 23  1  0  0  0  0
  7  2  1  0  0  0  0
  9  3  1  0  0  0  0
 10  3  1  0  0  0  0
 14 20  1  0  0  0  0
 14 19  1  0  0  0  0
 15 14  2  0  0  0  0
 16 15  1  0  0  0  0
 16 17  2  0  0  0  0
 17 18  1  0  0  0  0
 18 22  1  0  0  0  0
 18 19  2  0  0  0  0
 21 15  1  0  0  0  0
 23 24  1  0  0  0  0
 24 25  1  0  0  0  0
 25 26  1  0  0  0  0
M  END
>  <minimizedAffinity>
-4.19855165

$$$$

 OpenBabel03242513503D

 26 27  0  0  1  0  0  0  0  0999 V2000
   37.9650   27.5680   41.4140 C   0  0  2  0  0  0  0  0  0  0  0  0
   38.8060   27.6390   42.6480 C   0  0  0  0  0  0  0  0  0  0  0  0
   38.7090   29.1220   42.9600 C   0  0  0  0  0  0  0  0  0  0  0  0
   37.3580   29.5430   42.4520 C   0  0  0  0  0  0  0  0  0  0  0  0
   36.7000   28.2770   41.9030 C   0  0  1  0  0  0  0  0  0  0  0  0
   38.3880   28.1400   40.5860 H   0  0  0  0  0  0  0  0  0  0  0  0
   39.8710   27.4360   42.4120 H   0  0  0  0  0  0  0  0  0  0  0  0
   38.4400   26.9880   43.4390 H   0  0  0  0  0  0  0  0  0  0  0  0
   38.6880   29.2010   44.0650 H   0  0  0  0  0  0  0  0  0  0  0  0
   39.5380   29.7000   42.5270 H   0  0  0  0  0  0  0  0  0  0  0  0
   37.5410   30.2100   41.5710 H   0  0  0  0  0  0  0  0  0  0  0  0
   36.7320   30.0270   43.2000 H   0  0  0  0  0  0  0  0  0  0  0  0
   36.2330   27.6580   42.6770 H   0  0  0  0  0  0  0  0  0  0  0  0
   36.8680   23.9580   41.2020 C   0  0  0  0  0  0  0  0  0  0  0  0
   37.0980   25.2180   41.7420 C   0  0  0  0  0  0  0  0  0  0  0  0
   37.6790   26.1970   40.9430 C   0  0  0  0  0  0  0  0  0  0  0  0
   38.0010   25.8690   39.6400 N   0  0  0  0  0  0  0  0  0  0  0  0
   37.7570   24.6320   39.1650 C   0  0  0  0  0  0  0  0  0  0  0  0
   37.1980   23.6850   39.9300 N   0  0  0  0  0  0  0  0  0  0  0  0
   36.4150   23.2400   41.8720 H   0  0  0  0  0  0  0  0  0  0  0  0
   36.8530   25.4940   42.7590 H   0  0  0  0  0  0  0  0  0  0  0  0
   38.0500   24.4670   38.1160 H   0  0  0  0  0  0  0  0  0  0  0  0
   35.8340   28.5350   40.7490 C   0  0  0  0  0  2  0  0  0  0  0  0
   35.0360   29.2420   39.9650 C   0  0  0  0  0  2  0  0  0  0  0  0
   34.3250   28.8990   38.6890 C   0  0  0  0  0  2  0  0  0  0  0  0
   34.6260   27.8490   38.4020 H   0  0  0  0  0  0  0  0  0  0  0  0
  1  6  1  6  0  0  0
  1  5  1  0  0  0  0
  1  2  1  0  0  0  0
  2  3  1  0  0  0  0
  2  8  1  0  0  0  0
  3  9  1  0  0  0  0
  4  3  1  0  0  0  0
  4 12  1  0  0  0  0
  5  4  1  0  0  0  0
  5 13  1  1  0  0  0
  7  2  1  0  0  0  0
 10  3  1  0  0  0  0
 11  4  1  0  0  0  0
 14 15  1  0  0  0  0
 14 20  1  0  0  0  0
 15 21  1  0  0  0  0
 16  1  1  0  0  0  0
 16 15  2  0  0  0  0
 17 16  1  0  0  0  0
 18 17  2  0  0  0  0
 18 19  1  0  0  0  0
 19 14  2  0  0  0  0
 22 18  1  0  0  0  0
 23  5  1  0  0  0  0
 24 23  1  0  0  0  0
 25 24  1  0  0  0  0
 26 25  1  0  0  0  0
M  END
>  <minimizedAffinity>
-4.10078859

$$$$

 OpenBabel03242513503D

 26 27  0  0  1  0  0  0  0  0999 V2000
   36.9750   25.5150   41.3640 C   0  0  2  0  0  0  0  0  0  0  0  0
   37.7090   24.2390   41.6250 C   0  0  0  0  0  0  0  0  0  0  0  0
   37.0570   23.3340   40.5950 C   0  0  0  0  0  0  0  0  0  0  0  0
   36.6770   24.2410   39.4580 C   0  0  0  0  0  0  0  0  0  0  0  0
   37.1630   25.6360   39.8500 C   0  0  1  0  0  0  0  0  0  0  0  0
   35.9070   25.4350   41.5780 H   0  0  0  0  0  0  0  0  0  0  0  0
   37.4430   23.8280   42.6200 H   0  0  0  0  0  0  0  0  0  0  0  0
   38.7860   24.3480   41.5110 H   0  0  0  0  0  0  0  0  0  0  0  0
   37.8580   22.6610   40.2300 H   0  0  0  0  0  0  0  0  0  0  0  0
   36.2080   22.7690   41.0070 H   0  0  0  0  0  0  0  0  0  0  0  0
   35.5580   24.2890   39.4480 H   0  0  0  0  0  0  0  0  0  0  0  0
   37.0750   23.9350   38.4930 H   0  0  0  0  0  0  0  0  0  0  0  0
   38.2270   25.7990   39.6450 H   0  0  0  0  0  0  0  0  0  0  0  0
   37.3790   28.5100   43.6330 C   0  0  0  0  0  0  0  0  0  0  0  0
   36.7800   27.4200   43.0120 C   0  0  0  0  0  0  0  0  0  0  0  0
   37.5120   26.6910   42.0800 C   0  0  0  0  0  0  0  0  0  0  0  0
   38.8080   27.0870   41.8130 N   0  0  0  0  0  0  0  0  0  0  0  0
   39.3420   28.1530   42.4440 C   0  0  0  0  0  0  0  0  0  0  0  0
   38.6420   28.8580   43.3430 N   0  0  0  0  0  0  0  0  0  0  0  0
   36.7610   29.0370   44.3470 H   0  0  0  0  0  0  0  0  0  0  0  0
   35.7680   27.0950   43.2070 H   0  0  0  0  0  0  0  0  0  0  0  0
   40.3800   28.3900   42.1640 H   0  0  0  0  0  0  0  0  0  0  0  0
   36.2940   26.7070   39.3550 C   0  0  0  0  0  2  0  0  0  0  0  0
   35.9890   27.8230   38.7120 C   0  0  0  0  0  2  0  0  0  0  0  0
   34.6890   28.5500   38.5280 C   0  0  0  0  0  2  0  0  0  0  0  0
   33.8800   27.9320   39.0180 H   0  0  0  0  0  0  0  0  0  0  0  0
  1  6  1  1  0  0  0
  1  2  1  0  0  0  0
  1 16  1  0  0  0  0
  2  7  1  0  0  0  0
  3 10  1  0  0  0  0
  3  2  1  0  0  0  0
  4  5  1  0  0  0  0
  4  3  1  0  0  0  0
  5 13  1  6  0  0  0
  5  1  1  0  0  0  0
  8  2  1  0  0  0  0
  9  3  1  0  0  0  0
 11  4  1  0  0  0  0
 12  4  1  0  0  0  0
 14 20  1  0  0  0  0
 15 21  1  0  0  0  0
 15 14  2  0  0  0  0
 16 15  1  0  0  0  0
 17 16  2  0  0  0  0
 17 18  1  0  0  0  0
 18 19  2  0  0  0  0
 19 14  1  0  0  0  0
 22 18  1  0  0  0  0
 23  5  1  0  0  0  0
 24 23  1  0  0  0  0
 25 24  1  0  0  0  0
 25 26  1  0  0  0  0
M  END
>  <minimizedAffinity>
-4.08877897

$$$$

 OpenBabel03242513503D

 26 27  0  0  1  0  0  0  0  0999 V2000
   38.6230   27.2620   42.2610 C   0  0  2  0  0  0  0  0  0  0  0  0
   38.7950   28.3220   43.3010 C   0  0  0  0  0  0  0  0  0  0  0  0
   37.3430   28.6790   43.5680 C   0  0  0  0  0  0  0  0  0  0  0  0
   36.5740   27.4110   43.3220 C   0  0  0  0  0  0  0  0  0  0  0  0
   37.6140   26.3500   42.9630 C   0  0  1  0  0  0  0  0  0  0  0  0
   38.1700   27.6440   41.3440 H   0  0  0  0  0  0  0  0  0  0  0  0
   39.2670   29.2270   42.8670 H   0  0  0  0  0  0  0  0  0  0  0  0
   39.3390   27.9650   44.1740 H   0  0  0  0  0  0  0  0  0  0  0  0
   37.2790   28.9020   44.6520 H   0  0  0  0  0  0  0  0  0  0  0  0
   36.9970   29.5260   42.9580 H   0  0  0  0  0  0  0  0  0  0  0  0
   35.9660   27.5810   42.3970 H   0  0  0  0  0  0  0  0  0  0  0  0
   35.9540   27.0960   44.1590 H   0  0  0  0  0  0  0  0  0  0  0  0
   38.1000   25.9030   43.8370 H   0  0  0  0  0  0  0  0  0  0  0  0
   41.5530   25.7800   40.3900 C   0  0  0  0  0  0  0  0  0  0  0  0
   40.3770   26.4850   40.6170 C   0  0  0  0  0  0  0  0  0  0  0  0
   39.8640   26.5400   41.9090 C   0  0  0  0  0  0  0  0  0  0  0  0
   40.5520   25.8870   42.9130 N   0  0  0  0  0  0  0  0  0  0  0  0
   41.6900   25.2170   42.6400 C   0  0  0  0  0  0  0  0  0  0  0  0
   42.1890   25.1610   41.3970 N   0  0  0  0  0  0  0  0  0  0  0  0
   41.9030   25.7740   39.3670 H   0  0  0  0  0  0  0  0  0  0  0  0
   39.8240   27.0020   39.8450 H   0  0  0  0  0  0  0  0  0  0  0  0
   42.1650   24.7290   43.5050 H   0  0  0  0  0  0  0  0  0  0  0  0
   37.1200   25.3670   41.9940 C   0  0  0  0  0  2  0  0  0  0  0  0
   37.0000   24.1780   41.4260 C   0  0  0  0  0  2  0  0  0  0  0  0
   36.2000   23.7080   40.2460 C   0  0  0  0  0  2  0  0  0  0  0  0
   35.5880   24.5820   39.8780 H   0  0  0  0  0  0  0  0  0  0  0  0
  1  6  1  6  0  0  0
  1  5  1  0  0  0  0
  1  2  1  0  0  0  0
  2  3  1  0  0  0  0
  2  8  1  0  0  0  0
  3  9  1  0  0  0  0
  4  3  1  0  0  0  0
  4 12  1  0  0  0  0
  5  4  1  0  0  0  0
  5 13  1  1  0  0  0
  7  2  1  0  0  0  0
 10  3  1  0  0  0  0
 11  4  1  0  0  0  0
 14 15  2  0  0  0  0
 14 19  1  0  0  0  0
 15 16  1  0  0  0  0
 16  1  1  0  0  0  0
 16 17  2  0  0  0  0
 18 17  1  0  0  0  0
 18 22  1  0  0  0  0
 19 18  2  0  0  0  0
 20 14  1  0  0  0  0
 21 15  1  0  0  0  0
 23  5  1  0  0  0  0
 24 23  1  0  0  0  0
 25 24  1  0  0  0  0
 26 25  1  0  0  0  0
M  END
>  <minimizedAffinity>
-4.07519341

$$$$
