
 OpenBabel03242518013D

 32 33  0  0  0  0  0  0  0  0999 V2000
   47.0700   32.7530   44.6190 C   0  0  0  0  0  0  0  0  0  0  0  0
   47.9400   33.1530   45.2210 H   0  0  0  0  0  0  0  0  0  0  0  0
   47.5580   32.3080   43.7320 H   0  0  0  0  0  0  0  0  0  0  0  0
   46.4950   34.6340   43.1450 C   0  0  0  0  0  0  0  0  0  0  0  0
   46.2640   33.9520   44.3230 C   0  0  0  0  0  0  0  0  0  0  0  0
   45.3170   34.3360   45.2410 C   0  0  0  0  0  0  0  0  0  0  0  0
   44.5620   35.4530   44.9730 C   0  0  0  0  0  0  0  0  0  0  0  0
   44.7210   36.1880   43.8330 C   0  0  0  0  0  0  0  0  0  0  0  0
   45.6990   35.7410   42.9490 C   0  0  0  0  0  0  0  0  0  0  0  0
   45.0890   33.8650   46.1580 H   0  0  0  0  0  0  0  0  0  0  0  0
   43.7910   35.8200   45.6510 H   0  0  0  0  0  0  0  0  0  0  0  0
   44.1280   37.0670   43.6210 H   0  0  0  0  0  0  0  0  0  0  0  0
   45.8340   36.3230   42.0350 H   0  0  0  0  0  0  0  0  0  0  0  0
   47.6850   34.1860   41.9570 S   0  0  0  0  0  0  0  0  0  0  0  0
   48.9540   35.0070   42.0600 O   0  0  0  0  0  0  0  0  0  0  0  0
   47.1470   34.5150   40.5800 O   0  0  0  0  0  0  0  0  0  0  0  0
   47.9410   32.8400   41.9170 H   0  0  0  0  0  0  0  0  0  0  0  0
   46.3220   31.6980   45.4160 C   0  0  0  0  0  0  0  0  0  0  0  0
   46.3040   30.7670   44.7740 H   0  0  0  0  0  0  0  0  0  0  0  0
   45.2710   31.9200   45.5920 H   0  0  0  0  0  0  0  0  0  0  0  0
   47.1730   32.2790   47.6790 C   0  0  0  0  0  0  0  0  0  0  0  0
   47.1270   31.3720   46.5840 C   0  0  0  0  0  0  0  0  0  0  0  0
   47.8840   30.2040   46.6960 C   0  0  0  0  0  0  0  0  0  0  0  0
   48.6120   29.9870   47.8140 N   0  0  0  0  0  0  0  0  0  0  0  0
   48.6290   30.8760   48.8340 C   0  0  0  0  0  0  0  0  0  0  0  0
   47.9200   31.9910   48.7520 N   0  0  0  0  0  0  0  0  0  0  0  0
   46.6210   33.2100   47.6900 H   0  0  0  0  0  0  0  0  0  0  0  0
   47.8810   29.4940   45.9000 H   0  0  0  0  0  0  0  0  0  0  0  0
   49.4240   30.6180   50.0270 C   0  0  0  0  0  0  0  0  0  0  0  0
   50.4070   31.3770   50.4800 C   0  0  0  0  0  0  0  0  0  0  0  0
   51.0750   32.6360   50.0830 C   0  0  0  0  0  0  0  0  0  0  0  0
   51.0450   33.4140   50.8890 H   0  0  0  0  0  0  0  0  0  0  0  0
  1  2  1  0  0  0  0
  1 18  1  0  0  0  0
  3  1  1  0  0  0  0
  4  5  1  0  0  0  0
  5  1  1  0  0  0  0
  5  6  2  0  0  0  0
  6 10  1  0  0  0  0
  7  6  1  0  0  0  0
  7 11  1  0  0  0  0
  8  7  2  0  0  0  0
  9  4  2  0  0  0  0
  9  8  1  0  0  0  0
 12  8  1  0  0  0  0
 13  9  1  0  0  0  0
 14 15  2  0  0  0  0
 14  4  1  0  0  0  0
 16 14  2  0  0  0  0
 17 14  1  0  0  0  0
 18 20  1  0  0  0  0
 18 22  1  0  0  0  0
 19 18  1  0  0  0  0
 21 27  1  0  0  0  0
 21 26  1  0  0  0  0
 22 23  1  0  0  0  0
 22 21  2  0  0  0  0
 23 24  2  0  0  0  0
 24 25  1  0  0  0  0
 25 29  1  0  0  0  0
 26 25  2  0  0  0  0
 28 23  1  0  0  0  0
 29 30  2  0  0  0  0
 31 30  1  0  0  0  0
 31 32  1  0  0  0  0
M  END
>  <minimizedAffinity>
-5.4689908

>  <minimizedRMSD>
0.39707607

$$$$
