
 OpenBabel03252506253D

 40 43  0  0  0  0  0  0  0  0999 V2000
   45.7350   29.7350   47.9860 C   0  0  0  0  0  0  0  0  0  0  0  0
   45.2210   30.6760   48.2690 H   0  0  0  0  0  0  0  0  0  0  0  0
   45.8260   29.1780   48.9560 H   0  0  0  0  0  0  0  0  0  0  0  0
   44.4370   27.6410   47.2540 C   0  0  0  0  0  0  0  0  0  0  0  0
   44.9040   28.9180   47.1040 C   0  0  0  0  0  0  0  0  0  0  0  0
   44.5390   29.5660   45.9200 C   0  0  0  0  0  0  0  0  0  0  0  0
   43.7590   28.9490   44.9730 C   0  0  0  0  0  0  0  0  0  0  0  0
   43.2610   29.3160   43.7680 N   0  0  0  0  0  0  0  0  0  0  0  0
   42.5400   28.3310   43.2210 C   0  0  0  0  0  0  0  0  0  0  0  0
   42.5430   27.2590   44.0750 C   0  0  0  0  0  0  0  0  0  0  0  0
   43.3080   27.6770   45.1500 C   0  0  0  0  0  0  0  0  0  0  0  0
   43.6580   27.0180   46.3150 C   0  0  0  0  0  0  0  0  0  0  0  0
   44.7710   27.2290   48.1930 H   0  0  0  0  0  0  0  0  0  0  0  0
   44.8320   30.5690   45.6650 H   0  0  0  0  0  0  0  0  0  0  0  0
   43.4290   30.2510   43.3340 H   0  0  0  0  0  0  0  0  0  0  0  0
   42.0260   28.3430   42.2670 H   0  0  0  0  0  0  0  0  0  0  0  0
   42.0760   26.2910   43.9830 H   0  0  0  0  0  0  0  0  0  0  0  0
   43.1990   25.6560   46.5490 C   0  0  0  0  0  3  0  0  0  0  0  0
   42.0000   25.1730   46.7210 C   0  0  0  0  0  3  0  0  0  0  0  0
   40.6340   25.6980   46.7650 C   0  0  0  0  0  2  0  0  0  0  0  0
   40.5100   26.3710   47.6340 H   0  0  0  0  0  0  0  0  0  0  0  0
   47.0990   30.0480   47.5320 C   0  0  0  0  0  0  0  0  0  0  0  0
   47.5930   30.6390   48.3370 H   0  0  0  0  0  0  0  0  0  0  0  0
   47.7410   29.1850   47.3390 H   0  0  0  0  0  0  0  0  0  0  0  0
   46.5440   32.6440   45.1460 C   0  0  0  0  0  0  0  0  0  0  0  0
   47.4110   31.7990   44.4450 C   0  0  0  0  0  0  0  0  0  0  0  0
   47.7260   30.7310   45.2370 C   0  0  0  0  0  0  0  0  0  0  0  0
   47.0700   30.9280   46.3770 N   0  0  0  0  0  0  0  0  0  0  0  0
   46.3610   32.0650   46.3350 N   0  0  0  0  0  0  0  0  0  0  0  0
   47.7590   31.9940   43.4260 H   0  0  0  0  0  0  0  0  0  0  0  0
   48.3800   29.9290   44.9330 H   0  0  0  0  0  0  0  0  0  0  0  0
   44.5790   35.7070   44.8630 C   0  0  0  0  0  0  0  0  0  0  0  0
   44.9560   36.2220   43.6320 C   0  0  0  0  0  0  0  0  0  0  0  0
   45.9010   35.5020   42.8870 C   0  0  0  0  0  0  0  0  0  0  0  0
   46.3750   34.3530   43.4320 N   0  0  0  0  0  0  0  0  0  0  0  0
   45.9960   33.8850   44.6150 C   0  0  0  0  0  0  0  0  0  0  0  0
   45.0960   34.5670   45.3280 N   0  0  0  0  0  0  0  0  0  0  0  0
   43.8570   36.1820   45.5200 H   0  0  0  0  0  0  0  0  0  0  0  0
   44.5300   37.1320   43.2850 H   0  0  0  0  0  0  0  0  0  0  0  0
   46.2260   35.8680   41.9170 H   0  0  0  0  0  0  0  0  0  0  0  0
  1  2  1  0  0  0  0
  1  3  1  0  0  0  0
  4 13  1  0  0  0  0
  5  4  1  0  0  0  0
  5  1  1  0  0  0  0
  6  5  2  0  0  0  0
  7 11  2  0  0  0  0
  7  6  1  0  0  0  0
  8  7  1  0  0  0  0
  9  8  1  0  0  0  0
  9 10  2  0  0  0  0
 10 11  1  0  0  0  0
 11 12  1  0  0  0  0
 12 18  1  0  0  0  0
 12  4  2  0  0  0  0
 14  6  1  0  0  0  0
 15  8  1  0  0  0  0
 16  9  1  0  0  0  0
 17 10  1  0  0  0  0
 18 19  2  0  0  0  0
 19 20  1  0  0  0  0
 20 21  1  0  0  0  0
 22  1  1  0  0  0  0
 22 23  1  0  0  0  0
 24 22  1  0  0  0  0
 25 29  2  0  0  0  0
 26 25  1  0  0  0  0
 26 27  2  0  0  0  0
 27 28  1  0  0  0  0
 28 22  1  0  0  0  0
 29 28  1  0  0  0  0
 30 26  1  0  0  0  0
 31 27  1  0  0  0  0
 32 37  1  0  0  0  0
 32 38  1  0  0  0  0
 33 32  2  0  0  0  0
 34 35  2  0  0  0  0
 34 33  1  0  0  0  0
 35 36  1  0  0  0  0
 36 25  1  0  0  0  0
 36 37  2  0  0  0  0
 39 33  1  0  0  0  0
 40 34  1  0  0  0  0
M  END
>  <minimizedAffinity>
-5.11572647

>  <minimizedRMSD>
1.03657472

$$$$
