
 OpenBabel03242517533D

 33 34  0  0  0  0  0  0  0  0999 V2000
   45.2300   34.2810   43.8200 C   0  0  0  0  0  0  0  0  0  0  0  0
   46.1950   34.8880   42.9830 C   0  0  0  0  0  0  0  0  0  0  0  0
   47.5050   34.4460   43.0170 C   0  0  0  0  0  0  0  0  0  0  0  0
   47.7410   33.4470   43.8730 N   0  0  0  0  0  0  0  0  0  0  0  0
   46.8550   32.8730   44.6570 C   0  0  0  0  0  0  0  0  0  0  0  0
   45.5850   33.2950   44.6310 N   0  0  0  0  0  0  0  0  0  0  0  0
   44.2120   34.6680   43.7540 H   0  0  0  0  0  0  0  0  0  0  0  0
   45.9600   35.7030   42.2960 H   0  0  0  0  0  0  0  0  0  0  0  0
   48.5960   34.9980   42.1950 C   0  0  0  0  0  0  0  0  0  0  0  0
   48.8550   36.0310   42.5000 H   0  0  0  0  0  0  0  0  0  0  0  0
   49.4890   34.3920   42.3110 H   0  0  0  0  0  0  0  0  0  0  0  0
   48.2520   34.9480   40.7070 C   0  0  0  0  0  0  0  0  0  0  0  0
   48.9100   35.6500   40.1560 H   0  0  0  0  0  0  0  0  0  0  0  0
   47.2070   35.2920   40.6230 H   0  0  0  0  0  0  0  0  0  0  0  0
   48.3720   33.5590   40.1920 C   0  0  0  0  0  3  0  0  0  0  0  0
   49.0340   32.4100   40.2120 C   0  0  0  0  0  3  0  0  0  0  0  0
   48.7770   31.1540   39.4570 C   0  0  0  0  0  2  0  0  0  0  0  0
   48.5590   30.3330   40.1610 H   0  0  0  0  0  0  0  0  0  0  0  0
   47.1610   31.8380   45.5260 O   0  0  0  0  0  0  0  0  0  0  0  0
   45.6420   30.4280   46.8980 C   0  0  0  0  0  0  0  0  0  0  0  0
   46.4430   31.5040   46.6600 C   0  0  0  0  0  0  0  0  0  0  0  0
   46.5850   32.4270   47.6900 C   0  0  0  0  0  0  0  0  0  0  0  0
   45.9530   32.2880   48.9150 C   0  0  0  0  0  0  0  0  0  0  0  0
   45.1440   31.1790   49.1220 C   0  0  0  0  0  0  0  0  0  0  0  0
   44.9970   30.2520   48.1000 C   0  0  0  0  0  0  0  0  0  0  0  0
   47.1870   33.3150   47.6250 H   0  0  0  0  0  0  0  0  0  0  0  0
   46.0590   33.0020   49.7200 H   0  0  0  0  0  0  0  0  0  0  0  0
   44.6170   30.9960   50.0480 H   0  0  0  0  0  0  0  0  0  0  0  0
   44.3970   29.3610   48.1550 H   0  0  0  0  0  0  0  0  0  0  0  0
   45.5140   29.3130   45.5590 S   0  0  0  0  0  0  0  0  0  0  0  0
   44.7160   29.9100   44.4200 O   0  0  0  0  0  0  0  0  0  0  0  0
   44.7000   28.1200   46.0370 O   0  0  0  0  0  0  0  0  0  0  0  0
   46.7230   28.8620   45.1580 H   0  0  0  0  0  0  0  0  0  0  0  0
  1  6  1  0  0  0  0
  2  3  1  0  0  0  0
  2  1  2  0  0  0  0
  3  4  2  0  0  0  0
  4  5  1  0  0  0  0
  5 19  1  0  0  0  0
  6  5  2  0  0  0  0
  7  1  1  0  0  0  0
  8  2  1  0  0  0  0
  9 11  1  0  0  0  0
  9 10  1  0  0  0  0
  9  3  1  0  0  0  0
 12  9  1  0  0  0  0
 13 12  1  0  0  0  0
 14 12  1  0  0  0  0
 15 16  2  0  0  0  0
 15 12  1  0  0  0  0
 17 18  1  0  0  0  0
 17 16  1  0  0  0  0
 19 21  1  0  0  0  0
 20 25  1  0  0  0  0
 21 20  2  0  0  0  0
 21 22  1  0  0  0  0
 22 23  2  0  0  0  0
 23 24  1  0  0  0  0
 23 27  1  0  0  0  0
 24 28  1  0  0  0  0
 25 29  1  0  0  0  0
 25 24  2  0  0  0  0
 26 22  1  0  0  0  0
 30 32  2  0  0  0  0
 30 20  1  0  0  0  0
 31 30  2  0  0  0  0
 33 30  1  0  0  0  0
M  END
>  <minimizedAffinity>
-4.86667776

>  <minimizedRMSD>
0.353037655

$$$$
