
 OpenBabel03252504053D

 14 14  0  0  0  0  0  0  0  0999 V2000
   37.0560   31.6560   39.4870 C   0  0  0  0  0  0  0  0  0  0  0  0
   36.7110   30.9540   40.6460 C   0  0  0  0  0  0  0  0  0  0  0  0
   37.6190   29.9880   41.0590 C   0  0  0  0  0  0  0  0  0  0  0  0
   38.7510   29.7600   40.3680 N   0  0  0  0  0  0  0  0  0  0  0  0
   39.0470   30.4690   39.2410 C   0  0  0  0  0  0  0  0  0  0  0  0
   38.1790   31.4080   38.8290 N   0  0  0  0  0  0  0  0  0  0  0  0
   36.3650   32.4110   39.1500 H   0  0  0  0  0  0  0  0  0  0  0  0
   39.9330   30.3440   38.6340 H   0  0  0  0  0  0  0  0  0  0  0  0
   35.5610   31.1630   41.3760 O   0  0  0  0  0  0  0  0  0  0  0  0
   35.7160   31.2770   42.3880 H   0  0  0  0  0  0  0  0  0  0  0  0
   37.4090   29.1730   42.2420 C   0  0  0  0  0  3  0  0  0  0  0  0
   36.6970   28.0600   42.2990 C   0  0  0  0  0  3  0  0  0  0  0  0
   36.5350   27.2860   43.5560 C   0  0  0  0  0  2  0  0  0  0  0  0
   36.9520   26.2680   43.4240 H   0  0  0  0  0  0  0  0  0  0  0  0
  1  2  1  0  0  0  0
  2  3  2  0  0  0  0
  2  9  1  0  0  0  0
  3 11  1  0  0  0  0
  4  3  1  0  0  0  0
  5  4  2  0  0  0  0
  6  5  1  0  0  0  0
  6  1  2  0  0  0  0
  7  1  1  0  0  0  0
  8  5  1  0  0  0  0
  9 10  1  0  0  0  0
 11 12  2  0  0  0  0
 12 13  1  0  0  0  0
 14 13  1  0  0  0  0
M  END
>  <minimizedAffinity>
-3.87433815

$$$$

 OpenBabel03252504053D

 14 14  0  0  0  0  0  0  0  0999 V2000
   37.4040   29.5930   42.1120 C   0  0  0  0  0  0  0  0  0  0  0  0
   36.2860   29.9210   41.3380 C   0  0  0  0  0  0  0  0  0  0  0  0
   35.7950   28.9070   40.5270 C   0  0  0  0  0  0  0  0  0  0  0  0
   36.3760   27.6940   40.5050 N   0  0  0  0  0  0  0  0  0  0  0  0
   37.4650   27.4170   41.2770 C   0  0  0  0  0  0  0  0  0  0  0  0
   37.9520   28.3880   42.0670 N   0  0  0  0  0  0  0  0  0  0  0  0
   37.8010   30.3660   42.7490 H   0  0  0  0  0  0  0  0  0  0  0  0
   37.9860   26.4710   41.3140 H   0  0  0  0  0  0  0  0  0  0  0  0
   35.6680   31.1530   41.3370 O   0  0  0  0  0  0  0  0  0  0  0  0
   34.6460   31.1140   41.4540 H   0  0  0  0  0  0  0  0  0  0  0  0
   34.6410   29.0870   39.6630 C   0  0  0  0  0  3  0  0  0  0  0  0
   34.5580   28.7160   38.3960 C   0  0  0  0  0  3  0  0  0  0  0  0
   33.3340   28.9390   37.5840 C   0  0  0  0  0  2  0  0  0  0  0  0
   32.9310   27.9650   37.2430 H   0  0  0  0  0  0  0  0  0  0  0  0
  1  7  1  0  0  0  0
  2  1  2  0  0  0  0
  3  2  1  0  0  0  0
  4  3  2  0  0  0  0
  4  5  1  0  0  0  0
  5  8  1  0  0  0  0
  5  6  2  0  0  0  0
  6  1  1  0  0  0  0
  9  2  1  0  0  0  0
  9 10  1  0  0  0  0
 11  3  1  0  0  0  0
 12 11  2  0  0  0  0
 13 12  1  0  0  0  0
 14 13  1  0  0  0  0
M  END
>  <minimizedAffinity>
-3.84209085

$$$$

 OpenBabel03252504053D

 14 14  0  0  0  0  0  0  0  0999 V2000
   36.2680   28.1010   41.8070 C   0  0  0  0  0  0  0  0  0  0  0  0
   35.9400   29.2680   41.1100 C   0  0  0  0  0  0  0  0  0  0  0  0
   36.8760   30.2920   41.1740 C   0  0  0  0  0  0  0  0  0  0  0  0
   38.0170   30.1460   41.8720 N   0  0  0  0  0  0  0  0  0  0  0  0
   38.2950   28.9900   42.5380 C   0  0  0  0  0  0  0  0  0  0  0  0
   37.4010   27.9890   42.4850 N   0  0  0  0  0  0  0  0  0  0  0  0
   35.5550   27.2940   41.7700 H   0  0  0  0  0  0  0  0  0  0  0  0
   39.1870   28.7970   43.1190 H   0  0  0  0  0  0  0  0  0  0  0  0
   34.7820   29.4500   40.3860 O   0  0  0  0  0  0  0  0  0  0  0  0
   34.9290   29.8120   39.4340 H   0  0  0  0  0  0  0  0  0  0  0  0
   36.6860   31.5670   40.5050 C   0  0  0  0  0  3  0  0  0  0  0  0
   37.6330   32.4540   40.2450 C   0  0  0  0  0  3  0  0  0  0  0  0
   37.3480   33.7370   39.5540 C   0  0  0  0  0  2  0  0  0  0  0  0
   37.9190   33.7830   38.6050 H   0  0  0  0  0  0  0  0  0  0  0  0
  1  6  1  0  0  0  0
  2  3  1  0  0  0  0
  2  1  2  0  0  0  0
  3  4  2  0  0  0  0
  4  5  1  0  0  0  0
  5  8  1  0  0  0  0
  6  5  2  0  0  0  0
  7  1  1  0  0  0  0
  9  2  1  0  0  0  0
 10  9  1  0  0  0  0
 11  3  1  0  0  0  0
 12 11  2  0  0  0  0
 13 12  1  0  0  0  0
 14 13  1  0  0  0  0
M  END
>  <minimizedAffinity>
-3.58861518

$$$$

 OpenBabel03252504053D

 14 14  0  0  0  0  0  0  0  0999 V2000
   38.5840   27.2990   43.6560 C   0  0  0  0  0  0  0  0  0  0  0  0
   37.5840   28.1050   43.1030 C   0  0  0  0  0  0  0  0  0  0  0  0
   37.0690   27.6780   41.8870 C   0  0  0  0  0  0  0  0  0  0  0  0
   37.5200   26.5560   41.2980 N   0  0  0  0  0  0  0  0  0  0  0  0
   38.4980   25.7990   41.8740 C   0  0  0  0  0  0  0  0  0  0  0  0
   39.0060   26.1980   43.0510 N   0  0  0  0  0  0  0  0  0  0  0  0
   38.9970   27.6130   44.6010 H   0  0  0  0  0  0  0  0  0  0  0  0
   38.9120   24.8880   41.4640 H   0  0  0  0  0  0  0  0  0  0  0  0
   37.1000   29.2590   43.6790 O   0  0  0  0  0  0  0  0  0  0  0  0
   36.0730   29.3090   43.7300 H   0  0  0  0  0  0  0  0  0  0  0  0
   36.0270   28.4030   41.1820 C   0  0  0  0  0  3  0  0  0  0  0  0
   35.7710   28.3270   39.8860 C   0  0  0  0  0  3  0  0  0  0  0  0
   34.6810   29.1070   39.2460 C   0  0  0  0  0  2  0  0  0  0  0  0
   33.9450   28.4150   38.7930 H   0  0  0  0  0  0  0  0  0  0  0  0
  1  7  1  0  0  0  0
  2  1  1  0  0  0  0
  2  9  1  0  0  0  0
  3  2  2  0  0  0  0
  4  5  2  0  0  0  0
  4  3  1  0  0  0  0
  5  6  1  0  0  0  0
  6  1  2  0  0  0  0
  8  5  1  0  0  0  0
  9 10  1  0  0  0  0
 11  3  1  0  0  0  0
 12 11  2  0  0  0  0
 13 12  1  0  0  0  0
 14 13  1  0  0  0  0
M  END
>  <minimizedAffinity>
-3.51585174

$$$$

 OpenBabel03252504053D

 14 14  0  0  0  0  0  0  0  0999 V2000
   36.5300   30.5450   41.2460 C   0  0  0  0  0  0  0  0  0  0  0  0
   36.8280   29.4050   41.9990 C   0  0  0  0  0  0  0  0  0  0  0  0
   36.6520   28.1900   41.3500 C   0  0  0  0  0  0  0  0  0  0  0  0
   36.2210   28.1400   40.0770 N   0  0  0  0  0  0  0  0  0  0  0  0
   35.9420   29.2770   39.3790 C   0  0  0  0  0  0  0  0  0  0  0  0
   36.1070   30.4610   39.9920 N   0  0  0  0  0  0  0  0  0  0  0  0
   36.6600   31.4980   41.7300 H   0  0  0  0  0  0  0  0  0  0  0  0
   35.5920   29.3190   38.3570 H   0  0  0  0  0  0  0  0  0  0  0  0
   37.2710   29.4210   43.3040 O   0  0  0  0  0  0  0  0  0  0  0  0
   38.1040   28.8410   43.4750 H   0  0  0  0  0  0  0  0  0  0  0  0
   36.9180   26.9150   41.9940 C   0  0  0  0  0  3  0  0  0  0  0  0
   37.1290   25.7650   41.3750 C   0  0  0  0  0  3  0  0  0  0  0  0
   37.3940   24.5050   42.1150 C   0  0  0  0  0  2  0  0  0  0  0  0
   38.3950   24.1160   41.8410 H   0  0  0  0  0  0  0  0  0  0  0  0
  1  7  1  0  0  0  0
  1  2  1  0  0  0  0
  2  9  1  0  0  0  0
  3 11  1  0  0  0  0
  3  2  2  0  0  0  0
  4  3  1  0  0  0  0
  5  6  1  0  0  0  0
  5  4  2  0  0  0  0
  6  1  2  0  0  0  0
  8  5  1  0  0  0  0
  9 10  1  0  0  0  0
 12 11  2  0  0  0  0
 12 13  1  0  0  0  0
 14 13  1  0  0  0  0
M  END
>  <minimizedAffinity>
-3.51287603

$$$$

 OpenBabel03252504053D

 14 14  0  0  0  0  0  0  0  0999 V2000
   39.0170   33.0570   40.8640 C   0  0  0  0  0  0  0  0  0  0  0  0
   37.8080   32.5930   40.3360 C   0  0  0  0  0  0  0  0  0  0  0  0
   37.7040   31.2160   40.1880 C   0  0  0  0  0  0  0  0  0  0  0  0
   38.7170   30.4030   40.5360 N   0  0  0  0  0  0  0  0  0  0  0  0
   39.8790   30.8990   41.0470 C   0  0  0  0  0  0  0  0  0  0  0  0
   39.9950   32.2290   41.1980 N   0  0  0  0  0  0  0  0  0  0  0  0
   39.1180   34.1230   40.9870 H   0  0  0  0  0  0  0  0  0  0  0  0
   40.7360   30.3120   41.3490 H   0  0  0  0  0  0  0  0  0  0  0  0
   36.7510   33.3980   39.9700 O   0  0  0  0  0  0  0  0  0  0  0  0
   35.8410   33.1010   40.3480 H   0  0  0  0  0  0  0  0  0  0  0  0
   36.5140   30.5760   39.6540 C   0  0  0  0  0  3  0  0  0  0  0  0
   35.6920   29.7870   40.3260 C   0  0  0  0  0  3  0  0  0  0  0  0
   34.4940   29.1720   39.6990 C   0  0  0  0  0  2  0  0  0  0  0  0
   33.5810   29.5200   40.2210 H   0  0  0  0  0  0  0  0  0  0  0  0
  1  7  1  0  0  0  0
  1  6  1  0  0  0  0
  2  1  2  0  0  0  0
  3  2  1  0  0  0  0
  3  4  2  0  0  0  0
  4  5  1  0  0  0  0
  5  6  2  0  0  0  0
  5  8  1  0  0  0  0
  9  2  1  0  0  0  0
  9 10  1  0  0  0  0
 11  3  1  0  0  0  0
 11 12  2  0  0  0  0
 13 14  1  0  0  0  0
 13 12  1  0  0  0  0
M  END
>  <minimizedAffinity>
-3.43650985

$$$$

 OpenBabel03252504053D

 14 14  0  0  0  0  0  0  0  0999 V2000
   38.3880   29.3410   43.0640 C   0  0  0  0  0  0  0  0  0  0  0  0
   37.1730   29.0750   42.4240 C   0  0  0  0  0  0  0  0  0  0  0  0
   36.8980   29.8510   41.3070 C   0  0  0  0  0  0  0  0  0  0  0  0
   37.7610   30.7930   40.8860 N   0  0  0  0  0  0  0  0  0  0  0  0
   38.9350   31.0190   41.5410 C   0  0  0  0  0  0  0  0  0  0  0  0
   39.2170   30.2760   42.6240 N   0  0  0  0  0  0  0  0  0  0  0  0
   38.6210   28.7490   43.9330 H   0  0  0  0  0  0  0  0  0  0  0  0
   39.6780   31.7550   41.2670 H   0  0  0  0  0  0  0  0  0  0  0  0
   36.2670   28.1180   42.8280 O   0  0  0  0  0  0  0  0  0  0  0  0
   35.9450   27.4950   42.0740 H   0  0  0  0  0  0  0  0  0  0  0  0
   35.6780   29.7000   40.5310 C   0  0  0  0  0  3  0  0  0  0  0  0
   35.5540   29.0050   39.4130 C   0  0  0  0  0  3  0  0  0  0  0  0
   34.2640   28.9030   38.6830 C   0  0  0  0  0  2  0  0  0  0  0  0
   33.9450   27.8430   38.6370 H   0  0  0  0  0  0  0  0  0  0  0  0
  1  7  1  0  0  0  0
  2  9  1  0  0  0  0
  2  1  2  0  0  0  0
  3  2  1  0  0  0  0
  4  3  2  0  0  0  0
  4  5  1  0  0  0  0
  5  6  2  0  0  0  0
  6  1  1  0  0  0  0
  8  5  1  0  0  0  0
 10  9  1  0  0  0  0
 11  3  1  0  0  0  0
 12 11  2  0  0  0  0
 13 12  1  0  0  0  0
 14 13  1  0  0  0  0
M  END
>  <minimizedAffinity>
-3.37199163

$$$$

 OpenBabel03252504053D

 14 14  0  0  0  0  0  0  0  0999 V2000
   37.0340   27.2140   42.2100 C   0  0  0  0  0  0  0  0  0  0  0  0
   36.9860   28.6110   42.2320 C   0  0  0  0  0  0  0  0  0  0  0  0
   36.7970   29.2280   41.0030 C   0  0  0  0  0  0  0  0  0  0  0  0
   36.6710   28.5040   39.8760 N   0  0  0  0  0  0  0  0  0  0  0  0
   36.7250   27.1420   39.9000 C   0  0  0  0  0  0  0  0  0  0  0  0
   36.9070   26.5300   41.0820 N   0  0  0  0  0  0  0  0  0  0  0  0
   37.1800   26.7150   43.1540 H   0  0  0  0  0  0  0  0  0  0  0  0
   36.6340   26.4920   39.0410 H   0  0  0  0  0  0  0  0  0  0  0  0
   37.1100   29.3820   43.3680 O   0  0  0  0  0  0  0  0  0  0  0  0
   36.3780   30.0980   43.4760 H   0  0  0  0  0  0  0  0  0  0  0  0
   36.7240   30.6710   40.8550 C   0  0  0  0  0  3  0  0  0  0  0  0
   37.2780   31.3790   39.8850 C   0  0  0  0  0  3  0  0  0  0  0  0
   37.1520   32.8570   39.8110 C   0  0  0  0  0  2  0  0  0  0  0  0
   36.6380   33.1400   38.8710 H   0  0  0  0  0  0  0  0  0  0  0  0
  1  2  1  0  0  0  0
  1  7  1  0  0  0  0
  2  9  1  0  0  0  0
  3  2  2  0  0  0  0
  4  5  2  0  0  0  0
  4  3  1  0  0  0  0
  5  6  1  0  0  0  0
  6  1  2  0  0  0  0
  8  5  1  0  0  0  0
  9 10  1  0  0  0  0
 11  3  1  0  0  0  0
 12 11  2  0  0  0  0
 13 12  1  0  0  0  0
 14 13  1  0  0  0  0
M  END
>  <minimizedAffinity>
-3.35970354

$$$$

 OpenBabel03252504053D

 14 14  0  0  0  0  0  0  0  0999 V2000
   37.7060   30.0110   42.0230 C   0  0  0  0  0  0  0  0  0  0  0  0
   37.0150   28.7990   41.9340 C   0  0  0  0  0  0  0  0  0  0  0  0
   37.7390   27.6650   42.2760 C   0  0  0  0  0  0  0  0  0  0  0  0
   39.0240   27.7530   42.6640 N   0  0  0  0  0  0  0  0  0  0  0  0
   39.6600   28.9570   42.7360 C   0  0  0  0  0  0  0  0  0  0  0  0
   38.9720   30.0640   42.4100 N   0  0  0  0  0  0  0  0  0  0  0  0
   37.1620   30.9030   41.7620 H   0  0  0  0  0  0  0  0  0  0  0  0
   40.6870   29.1100   43.0380 H   0  0  0  0  0  0  0  0  0  0  0  0
   35.7000   28.6730   41.5400 O   0  0  0  0  0  0  0  0  0  0  0  0
   35.1220   28.0990   42.1700 H   0  0  0  0  0  0  0  0  0  0  0  0
   37.1670   26.3300   42.2360 C   0  0  0  0  0  3  0  0  0  0  0  0
   37.2370   25.4880   41.2180 C   0  0  0  0  0  3  0  0  0  0  0  0
   36.6210   24.1370   41.2640 C   0  0  0  0  0  2  0  0  0  0  0  0
   37.4060   23.3660   41.1430 H   0  0  0  0  0  0  0  0  0  0  0  0
  1  6  1  0  0  0  0
  2  1  2  0  0  0  0
  2  3  1  0  0  0  0
  3  4  2  0  0  0  0
  4  5  1  0  0  0  0
  5  8  1  0  0  0  0
  6  5  2  0  0  0  0
  7  1  1  0  0  0  0
  9  2  1  0  0  0  0
  9 10  1  0  0  0  0
 11  3  1  0  0  0  0
 12 13  1  0  0  0  0
 12 11  2  0  0  0  0
 14 13  1  0  0  0  0
M  END
>  <minimizedAffinity>
-3.31605172

$$$$
