
 OpenBabel03252501543D

 16 16  0  0  0  0  0  0  0  0999 V2000
   44.8610   34.9830   45.1300 C   0  0  0  0  0  0  0  0  0  0  0  0
   45.3960   35.2270   43.8720 C   0  0  0  0  0  0  0  0  0  0  0  0
   46.4580   34.4440   43.4440 C   0  0  0  0  0  0  0  0  0  0  0  0
   46.9390   33.4700   44.2580 N   0  0  0  0  0  0  0  0  0  0  0  0
   46.3870   33.2600   45.4850 C   0  0  0  0  0  0  0  0  0  0  0  0
   45.3550   34.0120   45.9150 N   0  0  0  0  0  0  0  0  0  0  0  0
   44.0420   35.5110   45.5830 H   0  0  0  0  0  0  0  0  0  0  0  0
   46.8920   32.4540   45.9880 H   0  0  0  0  0  0  0  0  0  0  0  0
   44.8010   36.3090   43.0660 C   0  0  0  0  0  0  0  0  0  0  0  0
   44.1910   35.9130   42.2310 H   0  0  0  0  0  0  0  0  0  0  0  0
   45.6500   36.8720   42.5780 H   0  0  0  0  0  0  0  0  0  0  0  0
   44.2920   37.0250   43.7160 H   0  0  0  0  0  0  0  0  0  0  0  0
   47.0390   34.6790   42.1280 C   0  0  0  0  0  3  0  0  0  0  0  0
   48.2270   35.2520   42.0280 C   0  0  0  0  0  3  0  0  0  0  0  0
   48.8210   35.4910   40.6770 C   0  0  0  0  0  2  0  0  0  0  0  0
   49.6150   36.2710   40.7270 H   0  0  0  0  0  0  0  0  0  0  0  0
  1  7  1  0  0  0  0
  1  6  1  0  0  0  0
  2  1  2  0  0  0  0
  3  2  1  0  0  0  0
  3  4  2  0  0  0  0
  4  5  1  0  0  0  0
  5  6  2  0  0  0  0
  5  8  1  0  0  0  0
  9 12  1  0  0  0  0
  9  2  1  0  0  0  0
 10  9  1  0  0  0  0
 11  9  1  0  0  0  0
 13  3  1  0  0  0  0
 14 13  2  0  0  0  0
 15 16  1  0  0  0  0
 15 14  1  0  0  0  0
M  END
>  <minimizedAffinity>
-3.9595716

>  <minimizedRMSD>
1.92348313

$$$$
