
 OpenBabel03242517543D

 33 34  0  0  0  0  0  0  0  0999 V2000
   38.0230   28.5810   43.4580 C   0  0  0  0  0  0  0  0  0  0  0  0
   38.0200   27.1690   43.3720 C   0  0  0  0  0  0  0  0  0  0  0  0
   37.2740   26.5460   42.3890 C   0  0  0  0  0  0  0  0  0  0  0  0
   36.6020   27.3720   41.5810 N   0  0  0  0  0  0  0  0  0  0  0  0
   36.5960   28.6860   41.6490 C   0  0  0  0  0  0  0  0  0  0  0  0
   37.3150   29.2970   42.5990 N   0  0  0  0  0  0  0  0  0  0  0  0
   38.6280   29.0200   44.2530 H   0  0  0  0  0  0  0  0  0  0  0  0
   38.5840   26.5290   44.0520 H   0  0  0  0  0  0  0  0  0  0  0  0
   37.1900   25.0880   42.1990 C   0  0  0  0  0  0  0  0  0  0  0  0
   37.9740   24.5550   42.7730 H   0  0  0  0  0  0  0  0  0  0  0  0
   36.2290   24.7230   42.5470 H   0  0  0  0  0  0  0  0  0  0  0  0
   37.2630   24.7140   40.7190 C   0  0  0  0  0  0  0  0  0  0  0  0
   38.1770   24.1120   40.5380 H   0  0  0  0  0  0  0  0  0  0  0  0
   37.3430   25.6660   40.1660 H   0  0  0  0  0  0  0  0  0  0  0  0
   36.0340   23.9880   40.3050 C   0  0  0  0  0  3  0  0  0  0  0  0
   35.4550   23.1690   39.4380 C   0  0  0  0  0  3  0  0  0  0  0  0
   34.0590   22.6530   39.4050 C   0  0  0  0  0  2  0  0  0  0  0  0
   34.0640   21.5550   39.5020 H   0  0  0  0  0  0  0  0  0  0  0  0
   35.8770   29.4920   40.7810 O   0  0  0  0  0  0  0  0  0  0  0  0
   36.5900   29.8540   38.4280 C   0  0  0  0  0  0  0  0  0  0  0  0
   36.4110   30.2150   39.7300 C   0  0  0  0  0  0  0  0  0  0  0  0
   36.8130   31.4950   40.0920 C   0  0  0  0  0  0  0  0  0  0  0  0
   37.3740   32.3880   39.1940 C   0  0  0  0  0  0  0  0  0  0  0  0
   37.5420   31.9860   37.8760 C   0  0  0  0  0  0  0  0  0  0  0  0
   37.1440   30.7100   37.5050 C   0  0  0  0  0  0  0  0  0  0  0  0
   36.7240   31.8970   41.0850 H   0  0  0  0  0  0  0  0  0  0  0  0
   37.6890   33.3850   39.4690 H   0  0  0  0  0  0  0  0  0  0  0  0
   37.9720   32.6220   37.1140 H   0  0  0  0  0  0  0  0  0  0  0  0
   37.2280   30.2990   36.5140 H   0  0  0  0  0  0  0  0  0  0  0  0
   36.0610   28.2320   38.0490 S   0  0  0  0  0  0  0  0  0  0  0  0
   37.1900   27.2360   38.1990 O   0  0  0  0  0  0  0  0  0  0  0  0
   35.6970   28.2070   36.5720 O   0  0  0  0  0  0  0  0  0  0  0  0
   34.9660   27.8780   38.7580 H   0  0  0  0  0  0  0  0  0  0  0  0
  1  7  1  0  0  0  0
  2  1  1  0  0  0  0
  2  8  1  0  0  0  0
  3  2  2  0  0  0  0
  4  5  2  0  0  0  0
  4  3  1  0  0  0  0
  5  6  1  0  0  0  0
  6  1  2  0  0  0  0
  9  3  1  0  0  0  0
  9 11  1  0  0  0  0
  9 10  1  0  0  0  0
 12  9  1  0  0  0  0
 13 12  1  0  0  0  0
 14 12  1  0  0  0  0
 15 12  1  0  0  0  0
 16 15  2  0  0  0  0
 17 16  1  0  0  0  0
 17 18  1  0  0  0  0
 19  5  1  0  0  0  0
 20 21  1  0  0  0  0
 21 22  2  0  0  0  0
 21 19  1  0  0  0  0
 22 26  1  0  0  0  0
 23 27  1  0  0  0  0
 23 22  1  0  0  0  0
 24 23  2  0  0  0  0
 25 24  1  0  0  0  0
 25 20  2  0  0  0  0
 28 24  1  0  0  0  0
 29 25  1  0  0  0  0
 30 31  2  0  0  0  0
 30 20  1  0  0  0  0
 30 33  1  0  0  0  0
 32 30  2  0  0  0  0
M  END
>  <minimizedAffinity>
-4.98083019

$$$$

 OpenBabel03242517543D

 33 34  0  0  0  0  0  0  0  0999 V2000
   36.6330   25.2980   39.5670 C   0  0  0  0  0  0  0  0  0  0  0  0
   37.1640   25.3430   40.8770 C   0  0  0  0  0  0  0  0  0  0  0  0
   37.1640   26.5370   41.5730 C   0  0  0  0  0  0  0  0  0  0  0  0
   36.6410   27.5760   40.9140 N   0  0  0  0  0  0  0  0  0  0  0  0
   36.1440   27.5490   39.6960 C   0  0  0  0  0  0  0  0  0  0  0  0
   36.1400   26.3970   39.0150 N   0  0  0  0  0  0  0  0  0  0  0  0
   36.6570   24.3310   39.0630 H   0  0  0  0  0  0  0  0  0  0  0  0
   37.5820   24.4710   41.3810 H   0  0  0  0  0  0  0  0  0  0  0  0
   37.6880   26.7100   42.9400 C   0  0  0  0  0  0  0  0  0  0  0  0
   37.4490   25.8400   43.5820 H   0  0  0  0  0  0  0  0  0  0  0  0
   38.7680   26.8060   42.9130 H   0  0  0  0  0  0  0  0  0  0  0  0
   37.1730   28.0020   43.5740 C   0  0  0  0  0  0  0  0  0  0  0  0
   37.0130   27.8380   44.6590 H   0  0  0  0  0  0  0  0  0  0  0  0
   36.2020   28.2120   43.0940 H   0  0  0  0  0  0  0  0  0  0  0  0
   38.1190   29.1190   43.3180 C   0  0  0  0  0  3  0  0  0  0  0  0
   39.1110   29.6010   42.5820 C   0  0  0  0  0  3  0  0  0  0  0  0
   39.8300   30.8990   42.6900 C   0  0  0  0  0  2  0  0  0  0  0  0
   39.6810   31.4880   41.7690 H   0  0  0  0  0  0  0  0  0  0  0  0
   35.6140   28.6610   39.0630 O   0  0  0  0  0  0  0  0  0  0  0  0
   36.8360   30.3280   37.6830 C   0  0  0  0  0  0  0  0  0  0  0  0
   36.2850   29.8490   38.8330 C   0  0  0  0  0  0  0  0  0  0  0  0
   36.3940   30.6460   39.9650 C   0  0  0  0  0  0  0  0  0  0  0  0
   37.0270   31.8780   39.9590 C   0  0  0  0  0  0  0  0  0  0  0  0
   37.5780   32.3350   38.7690 C   0  0  0  0  0  0  0  0  0  0  0  0
   37.4750   31.5460   37.6330 C   0  0  0  0  0  0  0  0  0  0  0  0
   36.0010   30.3800   40.9310 H   0  0  0  0  0  0  0  0  0  0  0  0
   37.1160   32.5030   40.8370 H   0  0  0  0  0  0  0  0  0  0  0  0
   38.0880   33.2830   38.6800 H   0  0  0  0  0  0  0  0  0  0  0  0
   37.8630   31.8030   36.6640 H   0  0  0  0  0  0  0  0  0  0  0  0
   36.6600   29.2710   36.3020 S   0  0  0  0  0  0  0  0  0  0  0  0
   37.9140   28.4580   36.0680 O   0  0  0  0  0  0  0  0  0  0  0  0
   36.5170   30.1530   35.0700 O   0  0  0  0  0  0  0  0  0  0  0  0
   35.5560   28.4980   36.3950 H   0  0  0  0  0  0  0  0  0  0  0  0
  1  2  1  0  0  0  0
  2  8  1  0  0  0  0
  2  3  2  0  0  0  0
  3  9  1  0  0  0  0
  4  3  1  0  0  0  0
  5  4  2  0  0  0  0
  6  1  2  0  0  0  0
  6  5  1  0  0  0  0
  7  1  1  0  0  0  0
  9 12  1  0  0  0  0
  9 10  1  0  0  0  0
 11  9  1  0  0  0  0
 12 13  1  0  0  0  0
 14 12  1  0  0  0  0
 15 12  1  0  0  0  0
 16 17  1  0  0  0  0
 16 15  2  0  0  0  0
 18 17  1  0  0  0  0
 19  5  1  0  0  0  0
 20 21  1  0  0  0  0
 21 19  1  0  0  0  0
 21 22  2  0  0  0  0
 22 26  1  0  0  0  0
 23 22  1  0  0  0  0
 23 27  1  0  0  0  0
 24 23  2  0  0  0  0
 25 20  2  0  0  0  0
 25 24  1  0  0  0  0
 28 24  1  0  0  0  0
 29 25  1  0  0  0  0
 30 33  1  0  0  0  0
 30 20  1  0  0  0  0
 31 30  2  0  0  0  0
 32 30  2  0  0  0  0
M  END
>  <minimizedAffinity>
-4.97295761

$$$$

 OpenBabel03242517543D

 33 34  0  0  0  0  0  0  0  0999 V2000
   38.5100   28.8270   43.2840 C   0  0  0  0  0  0  0  0  0  0  0  0
   38.1610   27.4580   43.3610 C   0  0  0  0  0  0  0  0  0  0  0  0
   37.1290   26.9710   42.5800 C   0  0  0  0  0  0  0  0  0  0  0  0
   36.5380   27.8780   41.7960 N   0  0  0  0  0  0  0  0  0  0  0  0
   36.8510   29.1530   41.7140 C   0  0  0  0  0  0  0  0  0  0  0  0
   37.8480   29.6330   42.4670 N   0  0  0  0  0  0  0  0  0  0  0  0
   39.3300   29.1590   43.9220 H   0  0  0  0  0  0  0  0  0  0  0  0
   38.6710   26.7490   44.0140 H   0  0  0  0  0  0  0  0  0  0  0  0
   36.6750   25.5700   42.5720 C   0  0  0  0  0  0  0  0  0  0  0  0
   36.6700   25.1360   43.5910 H   0  0  0  0  0  0  0  0  0  0  0  0
   35.6610   25.5110   42.1900 H   0  0  0  0  0  0  0  0  0  0  0  0
   37.5220   24.7160   41.6290 C   0  0  0  0  0  0  0  0  0  0  0  0
   37.3390   23.6430   41.8440 H   0  0  0  0  0  0  0  0  0  0  0  0
   38.5740   24.9550   41.8610 H   0  0  0  0  0  0  0  0  0  0  0  0
   37.2240   25.0530   40.2130 C   0  0  0  0  0  3  0  0  0  0  0  0
   36.3180   25.1400   39.2490 C   0  0  0  0  0  3  0  0  0  0  0  0
   36.4760   25.5710   37.8330 C   0  0  0  0  0  2  0  0  0  0  0  0
   35.8650   26.4700   37.6450 H   0  0  0  0  0  0  0  0  0  0  0  0
   36.1990   30.0470   40.8810 O   0  0  0  0  0  0  0  0  0  0  0  0
   37.2020   31.4210   39.0680 C   0  0  0  0  0  0  0  0  0  0  0  0
   36.5560   30.3340   39.5760 C   0  0  0  0  0  0  0  0  0  0  0  0
   36.1850   29.3420   38.6760 C   0  0  0  0  0  0  0  0  0  0  0  0
   36.4450   29.4240   37.3170 C   0  0  0  0  0  0  0  0  0  0  0  0
   37.1050   30.5470   36.8350 C   0  0  0  0  0  0  0  0  0  0  0  0
   37.4790   31.5420   37.7260 C   0  0  0  0  0  0  0  0  0  0  0  0
   35.6720   28.4380   38.9510 H   0  0  0  0  0  0  0  0  0  0  0  0
   36.1590   28.6570   36.6120 H   0  0  0  0  0  0  0  0  0  0  0  0
   37.3450   30.6880   35.7910 H   0  0  0  0  0  0  0  0  0  0  0  0
   37.9930   32.4490   37.4600 H   0  0  0  0  0  0  0  0  0  0  0  0
   37.6360   32.6240   40.2580 S   0  0  0  0  0  0  0  0  0  0  0  0
   37.4950   34.0240   39.7030 O   0  0  0  0  0  0  0  0  0  0  0  0
   39.1190   32.4560   40.5540 O   0  0  0  0  0  0  0  0  0  0  0  0
   36.9570   32.4590   41.4150 H   0  0  0  0  0  0  0  0  0  0  0  0
  1  2  1  0  0  0  0
  1  7  1  0  0  0  0
  2  8  1  0  0  0  0
  3  2  2  0  0  0  0
  4  3  1  0  0  0  0
  5  4  2  0  0  0  0
  5  6  1  0  0  0  0
  6  1  2  0  0  0  0
  9  3  1  0  0  0  0
  9 10  1  0  0  0  0
 11  9  1  0  0  0  0
 12 13  1  0  0  0  0
 12 14  1  0  0  0  0
 12  9  1  0  0  0  0
 15 12  1  0  0  0  0
 16 15  2  0  0  0  0
 17 16  1  0  0  0  0
 18 17  1  0  0  0  0
 19  5  1  0  0  0  0
 20 21  1  0  0  0  0
 20 30  1  0  0  0  0
 21 19  1  0  0  0  0
 22 26  1  0  0  0  0
 22 21  2  0  0  0  0
 23 22  1  0  0  0  0
 24 23  2  0  0  0  0
 24 25  1  0  0  0  0
 25 20  2  0  0  0  0
 27 23  1  0  0  0  0
 28 24  1  0  0  0  0
 29 25  1  0  0  0  0
 30 32  2  0  0  0  0
 30 33  1  0  0  0  0
 31 30  2  0  0  0  0
M  END
>  <minimizedAffinity>
-4.91906357

$$$$

 OpenBabel03242517543D

 33 34  0  0  0  0  0  0  0  0999 V2000
   41.4230   27.7800   42.4440 C   0  0  0  0  0  0  0  0  0  0  0  0
   40.2820   27.5000   43.2320 C   0  0  0  0  0  0  0  0  0  0  0  0
   39.0790   28.1120   42.9340 C   0  0  0  0  0  0  0  0  0  0  0  0
   39.1120   28.9420   41.8870 N   0  0  0  0  0  0  0  0  0  0  0  0
   40.1650   29.2120   41.1460 C   0  0  0  0  0  0  0  0  0  0  0  0
   41.3340   28.6240   41.4280 N   0  0  0  0  0  0  0  0  0  0  0  0
   42.3460   27.2700   42.7230 H   0  0  0  0  0  0  0  0  0  0  0  0
   40.2970   26.8130   44.0790 H   0  0  0  0  0  0  0  0  0  0  0  0
   37.8250   27.9020   43.6780 C   0  0  0  0  0  0  0  0  0  0  0  0
   37.9880   27.2920   44.5880 H   0  0  0  0  0  0  0  0  0  0  0  0
   37.4190   28.8560   43.9960 H   0  0  0  0  0  0  0  0  0  0  0  0
   36.7520   27.2690   42.7930 C   0  0  0  0  0  0  0  0  0  0  0  0
   36.4860   27.9750   41.9790 H   0  0  0  0  0  0  0  0  0  0  0  0
   35.8720   27.1170   43.4400 H   0  0  0  0  0  0  0  0  0  0  0  0
   37.2210   25.9630   42.2600 C   0  0  0  0  0  3  0  0  0  0  0  0
   36.9230   24.7130   41.9360 C   0  0  0  0  0  3  0  0  0  0  0  0
   37.7940   23.6430   41.3780 C   0  0  0  0  0  2  0  0  0  0  0  0
   37.4220   23.3380   40.3850 H   0  0  0  0  0  0  0  0  0  0  0  0
   40.1380   30.0850   40.0700 O   0  0  0  0  0  0  0  0  0  0  0  0
   38.1180   31.1070   39.0450 C   0  0  0  0  0  0  0  0  0  0  0  0
   39.2020   31.0830   39.8700 C   0  0  0  0  0  0  0  0  0  0  0  0
   39.4330   32.2150   40.6420 C   0  0  0  0  0  0  0  0  0  0  0  0
   38.6170   33.3330   40.5990 C   0  0  0  0  0  0  0  0  0  0  0  0
   37.5210   33.3220   39.7460 C   0  0  0  0  0  0  0  0  0  0  0  0
   37.2820   32.1970   38.9710 C   0  0  0  0  0  0  0  0  0  0  0  0
   40.2530   32.3190   41.3300 H   0  0  0  0  0  0  0  0  0  0  0  0
   38.7910   34.2170   41.1960 H   0  0  0  0  0  0  0  0  0  0  0  0
   36.8360   34.1540   39.6530 H   0  0  0  0  0  0  0  0  0  0  0  0
   36.4650   32.0830   38.2810 H   0  0  0  0  0  0  0  0  0  0  0  0
   37.8920   29.6500   38.1070 S   0  0  0  0  0  0  0  0  0  0  0  0
   36.9240   29.8740   36.9660 O   0  0  0  0  0  0  0  0  0  0  0  0
   37.2180   28.6270   39.0100 O   0  0  0  0  0  0  0  0  0  0  0  0
   39.0680   29.1300   37.6890 H   0  0  0  0  0  0  0  0  0  0  0  0
  1  7  1  0  0  0  0
  1  2  1  0  0  0  0
  2  8  1  0  0  0  0
  3  2  2  0  0  0  0
  3  9  1  0  0  0  0
  4  3  1  0  0  0  0
  5  6  1  0  0  0  0
  5  4  2  0  0  0  0
  6  1  2  0  0  0  0
  9 11  1  0  0  0  0
  9 10  1  0  0  0  0
 12 14  1  0  0  0  0
 12  9  1  0  0  0  0
 13 12  1  0  0  0  0
 15 12  1  0  0  0  0
 16 15  2  0  0  0  0
 17 16  1  0  0  0  0
 18 17  1  0  0  0  0
 19  5  1  0  0  0  0
 20 21  1  0  0  0  0
 21 19  1  0  0  0  0
 21 22  2  0  0  0  0
 22 26  1  0  0  0  0
 23 22  1  0  0  0  0
 23 27  1  0  0  0  0
 24 23  2  0  0  0  0
 25 20  2  0  0  0  0
 25 24  1  0  0  0  0
 28 24  1  0  0  0  0
 29 25  1  0  0  0  0
 30 32  2  0  0  0  0
 30 20  1  0  0  0  0
 31 30  2  0  0  0  0
 33 30  1  0  0  0  0
M  END
>  <minimizedAffinity>
-4.89230347

$$$$

 OpenBabel03242517543D

 33 34  0  0  0  0  0  0  0  0999 V2000
   37.0030   29.8670   37.3350 C   0  0  0  0  0  0  0  0  0  0  0  0
   35.8060   29.2800   36.8600 C   0  0  0  0  0  0  0  0  0  0  0  0
   34.7960   28.9710   37.7510 C   0  0  0  0  0  0  0  0  0  0  0  0
   35.0590   29.2690   39.0280 N   0  0  0  0  0  0  0  0  0  0  0  0
   36.1660   29.8150   39.4840 C   0  0  0  0  0  0  0  0  0  0  0  0
   37.1490   30.1170   38.6270 N   0  0  0  0  0  0  0  0  0  0  0  0
   37.7670   30.0910   36.5890 H   0  0  0  0  0  0  0  0  0  0  0  0
   35.6310   29.0530   35.8070 H   0  0  0  0  0  0  0  0  0  0  0  0
   33.5090   28.3590   37.3790 C   0  0  0  0  0  0  0  0  0  0  0  0
   33.5810   27.2550   37.3280 H   0  0  0  0  0  0  0  0  0  0  0  0
   32.7550   28.6010   38.1210 H   0  0  0  0  0  0  0  0  0  0  0  0
   32.9860   28.9230   36.0580 C   0  0  0  0  0  0  0  0  0  0  0  0
   32.5620   28.0980   35.4500 H   0  0  0  0  0  0  0  0  0  0  0  0
   33.8630   29.3420   35.5360 H   0  0  0  0  0  0  0  0  0  0  0  0
   31.9860   29.9930   36.3100 C   0  0  0  0  0  3  0  0  0  0  0  0
   30.9380   30.4050   37.0100 C   0  0  0  0  0  3  0  0  0  0  0  0
   30.1770   31.6810   36.9200 C   0  0  0  0  0  2  0  0  0  0  0  0
   30.2530   32.2300   37.8730 H   0  0  0  0  0  0  0  0  0  0  0  0
   36.3810   30.1010   40.8220 O   0  0  0  0  0  0  0  0  0  0  0  0
   38.2940   29.4400   42.2650 C   0  0  0  0  0  0  0  0  0  0  0  0
   37.0550   29.2910   41.7170 C   0  0  0  0  0  0  0  0  0  0  0  0
   36.3300   28.1660   42.0930 C   0  0  0  0  0  0  0  0  0  0  0  0
   36.8160   27.2210   42.9800 C   0  0  0  0  0  0  0  0  0  0  0  0
   38.0830   27.4050   43.5190 C   0  0  0  0  0  0  0  0  0  0  0  0
   38.8140   28.5250   43.1500 C   0  0  0  0  0  0  0  0  0  0  0  0
   35.3440   27.9360   41.7310 H   0  0  0  0  0  0  0  0  0  0  0  0
   36.2580   26.3430   43.2760 H   0  0  0  0  0  0  0  0  0  0  0  0
   38.5340   26.7150   44.2180 H   0  0  0  0  0  0  0  0  0  0  0  0
   39.8010   28.7640   43.5060 H   0  0  0  0  0  0  0  0  0  0  0  0
   39.1440   30.8760   41.7460 S   0  0  0  0  0  0  0  0  0  0  0  0
   39.9450   30.6180   40.4890 O   0  0  0  0  0  0  0  0  0  0  0  0
   40.1730   31.2070   42.8180 O   0  0  0  0  0  0  0  0  0  0  0  0
   38.3150   31.9360   41.6190 H   0  0  0  0  0  0  0  0  0  0  0  0
  1  6  1  0  0  0  0
  2  1  2  0  0  0  0
  2  3  1  0  0  0  0
  3  4  2  0  0  0  0
  4  5  1  0  0  0  0
  5 19  1  0  0  0  0
  6  5  2  0  0  0  0
  7  1  1  0  0  0  0
  8  2  1  0  0  0  0
  9  3  1  0  0  0  0
  9 11  1  0  0  0  0
 10  9  1  0  0  0  0
 12 15  1  0  0  0  0
 12  9  1  0  0  0  0
 13 12  1  0  0  0  0
 14 12  1  0  0  0  0
 15 16  2  0  0  0  0
 17 16  1  0  0  0  0
 17 18  1  0  0  0  0
 19 21  1  0  0  0  0
 20 25  1  0  0  0  0
 21 22  1  0  0  0  0
 21 20  2  0  0  0  0
 22 23  2  0  0  0  0
 23 27  1  0  0  0  0
 23 24  1  0  0  0  0
 24 28  1  0  0  0  0
 25 29  1  0  0  0  0
 25 24  2  0  0  0  0
 26 22  1  0  0  0  0
 30 20  1  0  0  0  0
 30 32  2  0  0  0  0
 31 30  2  0  0  0  0
 33 30  1  0  0  0  0
M  END
>  <minimizedAffinity>
-4.86187363

$$$$

 OpenBabel03242517543D

 33 34  0  0  0  0  0  0  0  0999 V2000
   39.7000   31.2880   41.9240 C   0  0  0  0  0  0  0  0  0  0  0  0
   38.6450   31.6160   41.0390 C   0  0  0  0  0  0  0  0  0  0  0  0
   37.5190   30.8160   40.9930 C   0  0  0  0  0  0  0  0  0  0  0  0
   37.5370   29.7680   41.8220 N   0  0  0  0  0  0  0  0  0  0  0  0
   38.5100   29.4510   42.6490 C   0  0  0  0  0  0  0  0  0  0  0  0
   39.6040   30.2200   42.7000 N   0  0  0  0  0  0  0  0  0  0  0  0
   40.5650   31.9530   41.9200 H   0  0  0  0  0  0  0  0  0  0  0  0
   38.6700   32.4840   40.3780 H   0  0  0  0  0  0  0  0  0  0  0  0
   36.3590   31.0530   40.1160 C   0  0  0  0  0  0  0  0  0  0  0  0
   35.4360   30.6010   40.5290 H   0  0  0  0  0  0  0  0  0  0  0  0
   36.1810   32.1190   40.0170 H   0  0  0  0  0  0  0  0  0  0  0  0
   36.6200   30.5440   38.6990 C   0  0  0  0  0  0  0  0  0  0  0  0
   37.6130   30.9020   38.3590 H   0  0  0  0  0  0  0  0  0  0  0  0
   35.8380   30.9920   38.0640 H   0  0  0  0  0  0  0  0  0  0  0  0
   36.5220   29.0610   38.6540 C   0  0  0  0  0  3  0  0  0  0  0  0
   35.9410   27.9630   39.1150 C   0  0  0  0  0  3  0  0  0  0  0  0
   36.1780   26.5390   38.7510 C   0  0  0  0  0  2  0  0  0  0  0  0
   35.2590   26.1050   38.3210 H   0  0  0  0  0  0  0  0  0  0  0  0
   38.4710   28.3480   43.4870 O   0  0  0  0  0  0  0  0  0  0  0  0
   39.4890   26.1310   43.0130 C   0  0  0  0  0  0  0  0  0  0  0  0
   38.4650   27.0280   43.0750 C   0  0  0  0  0  0  0  0  0  0  0  0
   37.2110   26.5840   42.6720 C   0  0  0  0  0  0  0  0  0  0  0  0
   36.9790   25.2950   42.2220 C   0  0  0  0  0  0  0  0  0  0  0  0
   38.0460   24.4080   42.1720 C   0  0  0  0  0  0  0  0  0  0  0  0
   39.3020   24.8410   42.5730 C   0  0  0  0  0  0  0  0  0  0  0  0
   36.3260   27.1940   42.6740 H   0  0  0  0  0  0  0  0  0  0  0  0
   36.0070   24.9430   41.9060 H   0  0  0  0  0  0  0  0  0  0  0  0
   37.9500   23.3850   41.8340 H   0  0  0  0  0  0  0  0  0  0  0  0
   40.1930   24.2390   42.5750 H   0  0  0  0  0  0  0  0  0  0  0  0
   41.0330   26.7600   43.5360 S   0  0  0  0  0  0  0  0  0  0  0  0
   41.6540   27.6440   42.4760 O   0  0  0  0  0  0  0  0  0  0  0  0
   41.9800   25.5790   43.6800 O   0  0  0  0  0  0  0  0  0  0  0  0
   40.9480   27.3780   44.7350 H   0  0  0  0  0  0  0  0  0  0  0  0
  1  6  1  0  0  0  0
  2  1  2  0  0  0  0
  3  2  1  0  0  0  0
  3  4  2  0  0  0  0
  4  5  1  0  0  0  0
  5  6  2  0  0  0  0
  5 19  1  0  0  0  0
  7  1  1  0  0  0  0
  8  2  1  0  0  0  0
  9 10  1  0  0  0  0
  9  3  1  0  0  0  0
 11  9  1  0  0  0  0
 12  9  1  0  0  0  0
 13 12  1  0  0  0  0
 14 12  1  0  0  0  0
 15 12  1  0  0  0  0
 15 16  2  0  0  0  0
 17 16  1  0  0  0  0
 18 17  1  0  0  0  0
 20 21  1  0  0  0  0
 20 30  1  0  0  0  0
 21 19  1  0  0  0  0
 22 26  1  0  0  0  0
 22 21  2  0  0  0  0
 23 22  1  0  0  0  0
 24 23  2  0  0  0  0
 24 25  1  0  0  0  0
 25 29  1  0  0  0  0
 25 20  2  0  0  0  0
 27 23  1  0  0  0  0
 28 24  1  0  0  0  0
 30 32  2  0  0  0  0
 30 33  1  0  0  0  0
 31 30  2  0  0  0  0
M  END
>  <minimizedAffinity>
-4.85364199

$$$$

 OpenBabel03242517543D

 33 34  0  0  0  0  0  0  0  0999 V2000
   38.4130   28.8650   43.2600 C   0  0  0  0  0  0  0  0  0  0  0  0
   38.1920   27.4680   43.2960 C   0  0  0  0  0  0  0  0  0  0  0  0
   37.2180   26.9100   42.4900 C   0  0  0  0  0  0  0  0  0  0  0  0
   36.5530   27.7790   41.7230 N   0  0  0  0  0  0  0  0  0  0  0  0
   36.7470   29.0790   41.6790 C   0  0  0  0  0  0  0  0  0  0  0  0
   37.6880   29.6280   42.4560 N   0  0  0  0  0  0  0  0  0  0  0  0
   39.1940   29.2540   43.9160 H   0  0  0  0  0  0  0  0  0  0  0  0
   38.7590   26.7920   43.9370 H   0  0  0  0  0  0  0  0  0  0  0  0
   36.8960   25.4730   42.4390 C   0  0  0  0  0  0  0  0  0  0  0  0
   37.1270   24.9690   43.3980 H   0  0  0  0  0  0  0  0  0  0  0  0
   35.8360   25.3370   42.2490 H   0  0  0  0  0  0  0  0  0  0  0  0
   37.6160   24.7810   41.2820 C   0  0  0  0  0  0  0  0  0  0  0  0
   37.8530   23.7370   41.5710 H   0  0  0  0  0  0  0  0  0  0  0  0
   38.5580   25.3360   41.1330 H   0  0  0  0  0  0  0  0  0  0  0  0
   36.7910   24.8390   40.0480 C   0  0  0  0  0  3  0  0  0  0  0  0
   36.3170   25.5730   39.0510 C   0  0  0  0  0  3  0  0  0  0  0  0
   35.4360   25.1800   37.9170 C   0  0  0  0  0  2  0  0  0  0  0  0
   35.9650   25.3320   36.9620 H   0  0  0  0  0  0  0  0  0  0  0  0
   36.0240   29.9320   40.8610 O   0  0  0  0  0  0  0  0  0  0  0  0
   36.3720   29.9630   38.4000 C   0  0  0  0  0  0  0  0  0  0  0  0
   35.6850   29.6840   39.5430 C   0  0  0  0  0  0  0  0  0  0  0  0
   34.4540   29.0550   39.4020 C   0  0  0  0  0  0  0  0  0  0  0  0
   33.9210   28.7130   38.1700 C   0  0  0  0  0  0  0  0  0  0  0  0
   34.6490   29.0130   37.0270 C   0  0  0  0  0  0  0  0  0  0  0  0
   35.8790   29.6410   37.1570 C   0  0  0  0  0  0  0  0  0  0  0  0
   33.8180   28.7820   40.2260 H   0  0  0  0  0  0  0  0  0  0  0  0
   32.9640   28.2240   38.0540 H   0  0  0  0  0  0  0  0  0  0  0  0
   34.3040   28.7810   36.0290 H   0  0  0  0  0  0  0  0  0  0  0  0
   36.5220   29.9170   36.3400 H   0  0  0  0  0  0  0  0  0  0  0  0
   37.9090   30.7530   38.6560 S   0  0  0  0  0  0  0  0  0  0  0  0
   37.7740   32.2580   38.5800 O   0  0  0  0  0  0  0  0  0  0  0  0
   38.8150   30.3720   37.4940 O   0  0  0  0  0  0  0  0  0  0  0  0
   38.5020   30.3470   39.8010 H   0  0  0  0  0  0  0  0  0  0  0  0
  1  2  1  0  0  0  0
  1  7  1  0  0  0  0
  2  8  1  0  0  0  0
  3  2  2  0  0  0  0
  4  3  1  0  0  0  0
  5  4  2  0  0  0  0
  5  6  1  0  0  0  0
  6  1  2  0  0  0  0
  9  3  1  0  0  0  0
  9 10  1  0  0  0  0
 11  9  1  0  0  0  0
 12 13  1  0  0  0  0
 12  9  1  0  0  0  0
 14 12  1  0  0  0  0
 15 12  1  0  0  0  0
 16 15  2  0  0  0  0
 17 16  1  0  0  0  0
 18 17  1  0  0  0  0
 19  5  1  0  0  0  0
 20 30  1  0  0  0  0
 20 21  1  0  0  0  0
 21 19  1  0  0  0  0
 22 21  2  0  0  0  0
 22 26  1  0  0  0  0
 23 22  1  0  0  0  0
 24 25  1  0  0  0  0
 24 23  2  0  0  0  0
 25 20  2  0  0  0  0
 27 23  1  0  0  0  0
 28 24  1  0  0  0  0
 29 25  1  0  0  0  0
 30 33  1  0  0  0  0
 31 30  2  0  0  0  0
 32 30  2  0  0  0  0
M  END
>  <minimizedAffinity>
-4.83599806

$$$$

 OpenBabel03242517543D

 33 34  0  0  0  0  0  0  0  0999 V2000
   37.2190   30.2590   37.4440 C   0  0  0  0  0  0  0  0  0  0  0  0
   37.4270   31.6110   37.8060 C   0  0  0  0  0  0  0  0  0  0  0  0
   37.1380   32.0250   39.0930 C   0  0  0  0  0  0  0  0  0  0  0  0
   36.6720   31.0700   39.9030 N   0  0  0  0  0  0  0  0  0  0  0  0
   36.4740   29.8100   39.5810 C   0  0  0  0  0  0  0  0  0  0  0  0
   36.7510   29.4000   38.3360 N   0  0  0  0  0  0  0  0  0  0  0  0
   37.4630   29.9860   36.4160 H   0  0  0  0  0  0  0  0  0  0  0  0
   37.8110   32.3610   37.1130 H   0  0  0  0  0  0  0  0  0  0  0  0
   37.3120   33.4020   39.5880 C   0  0  0  0  0  0  0  0  0  0  0  0
   36.9270   34.1480   38.8650 H   0  0  0  0  0  0  0  0  0  0  0  0
   36.7620   33.5350   40.5140 H   0  0  0  0  0  0  0  0  0  0  0  0
   38.7730   33.6910   39.9280 C   0  0  0  0  0  0  0  0  0  0  0  0
   38.8760   34.7550   40.2270 H   0  0  0  0  0  0  0  0  0  0  0  0
   39.3440   33.5210   39.0000 H   0  0  0  0  0  0  0  0  0  0  0  0
   39.2500   32.7700   40.9930 C   0  0  0  0  0  3  0  0  0  0  0  0
   40.0120   31.7360   41.3220 C   0  0  0  0  0  3  0  0  0  0  0  0
   40.2050   31.0810   42.6440 C   0  0  0  0  0  2  0  0  0  0  0  0
   41.2600   31.1700   42.9550 H   0  0  0  0  0  0  0  0  0  0  0  0
   35.9870   28.8630   40.4660 O   0  0  0  0  0  0  0  0  0  0  0  0
   37.1970   26.9260   41.4480 C   0  0  0  0  0  0  0  0  0  0  0  0
   36.7330   28.2070   41.4290 C   0  0  0  0  0  0  0  0  0  0  0  0
   37.0350   29.0050   42.5260 C   0  0  0  0  0  0  0  0  0  0  0  0
   37.7730   28.5480   43.6060 C   0  0  0  0  0  0  0  0  0  0  0  0
   38.2290   27.2370   43.5920 C   0  0  0  0  0  0  0  0  0  0  0  0
   37.9320   26.4330   42.5010 C   0  0  0  0  0  0  0  0  0  0  0  0
   36.7280   30.0300   42.6300 H   0  0  0  0  0  0  0  0  0  0  0  0
   38.0110   29.1640   44.4630 H   0  0  0  0  0  0  0  0  0  0  0  0
   38.8100   26.8050   44.3940 H   0  0  0  0  0  0  0  0  0  0  0  0
   38.2350   25.4070   42.3880 H   0  0  0  0  0  0  0  0  0  0  0  0
   36.7770   25.9850   40.0370 S   0  0  0  0  0  0  0  0  0  0  0  0
   36.7960   24.5020   40.3380 O   0  0  0  0  0  0  0  0  0  0  0  0
   37.8750   26.1990   39.0050 O   0  0  0  0  0  0  0  0  0  0  0  0
   35.6070   26.3840   39.4920 H   0  0  0  0  0  0  0  0  0  0  0  0
  1  2  2  0  0  0  0
  1  6  1  0  0  0  0
  2  3  1  0  0  0  0
  3  9  1  0  0  0  0
  3  4  2  0  0  0  0
  5  4  1  0  0  0  0
  5 19  1  0  0  0  0
  6  5  2  0  0  0  0
  7  1  1  0  0  0  0
  8  2  1  0  0  0  0
  9 12  1  0  0  0  0
  9 11  1  0  0  0  0
 10  9  1  0  0  0  0
 12 13  1  0  0  0  0
 12 15  1  0  0  0  0
 14 12  1  0  0  0  0
 15 16  2  0  0  0  0
 16 17  1  0  0  0  0
 17 18  1  0  0  0  0
 19 21  1  0  0  0  0
 20 25  1  0  0  0  0
 21 20  2  0  0  0  0
 21 22  1  0  0  0  0
 22 26  1  0  0  0  0
 22 23  2  0  0  0  0
 23 27  1  0  0  0  0
 24 23  1  0  0  0  0
 24 28  1  0  0  0  0
 25 24  2  0  0  0  0
 29 25  1  0  0  0  0
 30 31  2  0  0  0  0
 30 20  1  0  0  0  0
 32 30  2  0  0  0  0
 33 30  1  0  0  0  0
M  END
>  <minimizedAffinity>
-4.82686853

$$$$

 OpenBabel03242517543D

 33 34  0  0  0  0  0  0  0  0999 V2000
   37.5750   26.9650   39.1120 C   0  0  0  0  0  0  0  0  0  0  0  0
   36.9980   26.8880   40.4010 C   0  0  0  0  0  0  0  0  0  0  0  0
   37.1270   27.9540   41.2720 C   0  0  0  0  0  0  0  0  0  0  0  0
   37.8100   28.9970   40.7900 N   0  0  0  0  0  0  0  0  0  0  0  0
   38.3510   29.0830   39.5940 C   0  0  0  0  0  0  0  0  0  0  0  0
   38.2320   28.0550   38.7450 N   0  0  0  0  0  0  0  0  0  0  0  0
   37.4440   26.0960   38.4650 H   0  0  0  0  0  0  0  0  0  0  0  0
   36.4460   26.0170   40.7560 H   0  0  0  0  0  0  0  0  0  0  0  0
   36.5730   27.9930   42.6360 C   0  0  0  0  0  0  0  0  0  0  0  0
   35.7280   28.7050   42.7150 H   0  0  0  0  0  0  0  0  0  0  0  0
   36.1970   27.0130   42.9110 H   0  0  0  0  0  0  0  0  0  0  0  0
   37.6530   28.3260   43.6660 C   0  0  0  0  0  0  0  0  0  0  0  0
   37.1830   28.4410   44.6640 H   0  0  0  0  0  0  0  0  0  0  0  0
   38.0830   29.2930   43.3560 H   0  0  0  0  0  0  0  0  0  0  0  0
   38.7070   27.2780   43.6700 C   0  0  0  0  0  3  0  0  0  0  0  0
   39.9990   26.9890   43.6090 C   0  0  0  0  0  3  0  0  0  0  0  0
   40.6800   25.6660   43.6550 C   0  0  0  0  0  2  0  0  0  0  0  0
   41.3390   25.6160   44.5380 H   0  0  0  0  0  0  0  0  0  0  0  0
   39.0510   30.1930   39.1500 O   0  0  0  0  0  0  0  0  0  0  0  0
   39.5480   32.2830   40.4010 C   0  0  0  0  0  0  0  0  0  0  0  0
   38.8260   31.4970   39.5540 C   0  0  0  0  0  0  0  0  0  0  0  0
   37.6860   32.0570   38.9900 C   0  0  0  0  0  0  0  0  0  0  0  0
   37.2740   33.3520   39.2580 C   0  0  0  0  0  0  0  0  0  0  0  0
   38.0340   34.1240   40.1270 C   0  0  0  0  0  0  0  0  0  0  0  0
   39.1740   33.5740   40.6940 C   0  0  0  0  0  0  0  0  0  0  0  0
   37.0340   31.5410   38.3080 H   0  0  0  0  0  0  0  0  0  0  0  0
   36.3880   33.7940   38.8240 H   0  0  0  0  0  0  0  0  0  0  0  0
   37.7820   35.1420   40.3880 H   0  0  0  0  0  0  0  0  0  0  0  0
   39.8320   34.0810   41.3770 H   0  0  0  0  0  0  0  0  0  0  0  0
   40.9660   31.5110   41.0690 S   0  0  0  0  0  0  0  0  0  0  0  0
   40.6220   30.6920   42.2950 O   0  0  0  0  0  0  0  0  0  0  0  0
   41.8900   32.6120   41.5690 O   0  0  0  0  0  0  0  0  0  0  0  0
   41.6350   30.7900   40.1420 H   0  0  0  0  0  0  0  0  0  0  0  0
  1  2  1  0  0  0  0
  2  8  1  0  0  0  0
  2  3  2  0  0  0  0
  3  9  1  0  0  0  0
  4  3  1  0  0  0  0
  5  4  2  0  0  0  0
  6  1  2  0  0  0  0
  6  5  1  0  0  0  0
  7  1  1  0  0  0  0
  9 10  1  0  0  0  0
  9 11  1  0  0  0  0
  9 12  1  0  0  0  0
 12 15  1  0  0  0  0
 12 13  1  0  0  0  0
 14 12  1  0  0  0  0
 16 17  1  0  0  0  0
 16 15  2  0  0  0  0
 17 18  1  0  0  0  0
 19 21  1  0  0  0  0
 19  5  1  0  0  0  0
 20 25  1  0  0  0  0
 20 30  1  0  0  0  0
 21 20  2  0  0  0  0
 22 23  2  0  0  0  0
 22 21  1  0  0  0  0
 23 24  1  0  0  0  0
 24 28  1  0  0  0  0
 24 25  2  0  0  0  0
 25 29  1  0  0  0  0
 26 22  1  0  0  0  0
 27 23  1  0  0  0  0
 30 32  2  0  0  0  0
 30 31  2  0  0  0  0
 33 30  1  0  0  0  0
M  END
>  <minimizedAffinity>
-4.78424311

$$$$
