
 OpenBabel03252503093D

 22 23  0  0  0  0  0  0  0  0999 V2000
   45.0600   36.1200   43.5390 C   0  0  0  0  0  0  0  0  0  0  0  0
   45.7490   34.9620   43.1270 C   0  0  0  0  0  0  0  0  0  0  0  0
   45.8370   33.9600   44.0860 C   0  0  0  0  0  0  0  0  0  0  0  0
   45.3010   34.0870   45.3190 N   0  0  0  0  0  0  0  0  0  0  0  0
   44.6440   35.2320   45.6670 C   0  0  0  0  0  0  0  0  0  0  0  0
   44.5290   36.2410   44.7720 N   0  0  0  0  0  0  0  0  0  0  0  0
   44.9360   36.9570   42.8710 H   0  0  0  0  0  0  0  0  0  0  0  0
   44.2330   35.3000   46.6490 H   0  0  0  0  0  0  0  0  0  0  0  0
   46.4990   32.7780   43.7630 C   0  0  0  0  0  0  0  0  0  0  0  0
   47.8160   32.3740   43.7780 C   0  0  0  0  0  0  0  0  0  0  0  0
   48.2120   31.1660   43.4060 C   0  0  0  0  0  0  0  0  0  0  0  0
   47.2240   30.2980   42.9910 C   0  0  0  0  0  0  0  0  0  0  0  0
   45.6800   31.3080   43.1600 S   0  0  0  0  0  0  0  0  0  0  0  0
   48.6860   32.9220   44.1070 H   0  0  0  0  0  0  0  0  0  0  0  0
   49.1080   30.6100   43.3170 H   0  0  0  0  0  0  0  0  0  0  0  0
   47.0480   29.3090   42.6280 H   0  0  0  0  0  0  0  0  0  0  0  0
   46.2800   34.8730   41.8190 C   0  0  0  0  0  0  0  0  0  0  0  0
   47.5330   35.1050   41.7280 O   0  0  0  0  0  0  0  0  0  0  0  0
   45.0630   34.5260   41.0340 C   0  0  0  0  0  3  0  0  0  0  0  0
   44.5130   33.5810   40.3020 C   0  0  0  0  0  3  0  0  0  0  0  0
   43.1670   33.8860   39.7640 C   0  0  0  0  0  2  0  0  0  0  0  0
   42.4000   33.1680   40.1360 H   0  0  0  0  0  0  0  0  0  0  0  0
  1  6  1  0  0  0  0
  2  1  2  0  0  0  0
  2  3  1  0  0  0  0
  3  4  2  0  0  0  0
  4  5  1  0  0  0  0
  5  8  1  0  0  0  0
  6  5  2  0  0  0  0
  7  1  1  0  0  0  0
  9 10  2  0  0  0  0
  9  3  1  0  0  0  0
 10 14  1  0  0  0  0
 11 10  1  0  0  0  0
 12 13  1  0  0  0  0
 12 11  2  0  0  0  0
 13  9  1  0  0  0  0
 15 11  1  0  0  0  0
 16 12  1  0  0  0  0
 17  2  1  0  0  0  0
 18 17  2  0  0  0  0
 19 17  1  0  0  0  0
 20 19  2  0  0  0  0
 21 22  1  0  0  0  0
 21 20  1  0  0  0  0
M  END
>  <minimizedAffinity>
-3.97436142

>  <minimizedRMSD>
1.26014149

$$$$
