
 OpenBabel03252506493D

 24 25  0  0  0  0  0  0  0  0999 V2000
   43.5320   34.0350   40.1570 S   0  0  0  0  0  0  0  0  0  0  0  0
   41.5430   31.5460   39.8670 Cl  0  0  0  0  0  0  0  0  0  0  0  0
   40.8640   33.1620   39.9580 C   0  0  0  0  0  0  0  0  0  0  0  0
   41.7740   34.1730   40.0800 C   0  0  0  0  0  0  0  0  0  0  0  0
   41.2800   35.4720   40.1560 C   0  0  0  0  0  0  0  0  0  0  0  0
   39.9090   35.6940   40.1050 C   0  0  0  0  0  0  0  0  0  0  0  0
   38.9940   34.6740   39.9830 C   0  0  0  0  0  0  0  0  0  0  0  0
   39.4960   33.3730   39.9070 C   0  0  0  0  0  0  0  0  0  0  0  0
   38.4310   31.9970   39.7490 Cl  0  0  0  0  0  0  0  0  0  0  0  0
   41.9170   36.3390   40.2540 H   0  0  0  0  0  0  0  0  0  0  0  0
   39.5160   36.7140   40.1650 H   0  0  0  0  0  0  0  0  0  0  0  0
   37.9220   34.8570   39.9440 H   0  0  0  0  0  0  0  0  0  0  0  0
   44.1960   34.3250   41.7960 C   0  0  0  0  0  0  0  0  0  0  0  0
   44.6320   33.1700   42.4600 C   0  0  0  0  0  0  0  0  0  0  0  0
   45.1650   33.3210   43.7530 C   0  0  0  0  0  0  0  0  0  0  0  0
   45.2290   34.5730   44.2890 N   0  0  0  0  0  0  0  0  0  0  0  0
   44.7950   35.6470   43.6060 C   0  0  0  0  0  0  0  0  0  0  0  0
   44.2730   35.5480   42.3530 N   0  0  0  0  0  0  0  0  0  0  0  0
   44.5750   32.1830   42.0250 H   0  0  0  0  0  0  0  0  0  0  0  0
   45.5220   32.4850   44.3330 H   0  0  0  0  0  0  0  0  0  0  0  0
   44.8870   36.9650   44.2240 C   0  0  0  0  0  3  0  0  0  0  0  0
   45.3040   37.9940   43.5030 C   0  0  0  0  0  3  0  0  0  0  0  0
   45.4570   39.3880   43.9620 C   0  0  0  0  0  2  0  0  0  0  0  0
   44.7820   40.0710   43.3700 H   0  0  0  0  0  0  0  0  0  0  0  0
  1 13  1  0  0  0  0
  2  3  1  0  0  0  0
  3  4  1  0  0  0  0
  4  5  2  0  0  0  0
  4  1  1  0  0  0  0
  5 10  1  0  0  0  0
  6  5  1  0  0  0  0
  6 11  1  0  0  0  0
  7  6  2  0  0  0  0
  8  3  2  0  0  0  0
  8  7  1  0  0  0  0
  9  8  1  0  0  0  0
 12  7  1  0  0  0  0
 13 18  2  0  0  0  0
 13 14  1  0  0  0  0
 14 15  2  0  0  0  0
 15 16  1  0  0  0  0
 15 20  1  0  0  0  0
 17 21  1  0  0  0  0
 17 16  2  0  0  0  0
 18 17  1  0  0  0  0
 19 14  1  0  0  0  0
 22 23  1  0  0  0  0
 22 21  2  0  0  0  0
 24 23  1  0  0  0  0
M  END
>  <minimizedAffinity>
-4.62483644

>  <minimizedRMSD>
1.4565109

$$$$
