
 OpenBabel03252503093D

 22 23  0  0  0  0  0  0  0  0999 V2000
   45.1350   36.1470   43.4700 C   0  0  0  0  0  0  0  0  0  0  0  0
   45.7950   34.9600   43.0920 C   0  0  0  0  0  0  0  0  0  0  0  0
   45.8270   33.9720   44.0680 C   0  0  0  0  0  0  0  0  0  0  0  0
   45.2680   34.1360   45.2870 N   0  0  0  0  0  0  0  0  0  0  0  0
   44.6410   35.3070   45.6010 C   0  0  0  0  0  0  0  0  0  0  0  0
   44.5800   36.3050   44.6890 N   0  0  0  0  0  0  0  0  0  0  0  0
   45.0540   36.9760   42.7870 H   0  0  0  0  0  0  0  0  0  0  0  0
   44.2110   35.4040   46.5720 H   0  0  0  0  0  0  0  0  0  0  0  0
   46.4580   32.7640   43.7790 C   0  0  0  0  0  0  0  0  0  0  0  0
   47.7570   32.3100   43.8510 C   0  0  0  0  0  0  0  0  0  0  0  0
   48.1220   31.0860   43.5010 C   0  0  0  0  0  0  0  0  0  0  0  0
   47.1200   30.2530   43.0490 C   0  0  0  0  0  0  0  0  0  0  0  0
   45.6090   31.3210   43.1500 S   0  0  0  0  0  0  0  0  0  0  0  0
   48.6310   32.8280   44.2130 H   0  0  0  0  0  0  0  0  0  0  0  0
   48.9990   30.4960   43.4530 H   0  0  0  0  0  0  0  0  0  0  0  0
   46.9210   29.2690   42.6840 H   0  0  0  0  0  0  0  0  0  0  0  0
   46.3520   34.8330   41.7990 C   0  0  0  0  0  0  0  0  0  0  0  0
   47.6100   35.0450   41.7290 O   0  0  0  0  0  0  0  0  0  0  0  0
   45.1470   34.4840   40.9950 C   0  0  0  0  0  3  0  0  0  0  0  0
   44.6590   33.5980   40.1570 C   0  0  0  0  0  3  0  0  0  0  0  0
   43.2780   33.8510   39.6840 C   0  0  0  0  0  2  0  0  0  0  0  0
   42.5850   33.0270   39.9730 H   0  0  0  0  0  0  0  0  0  0  0  0
  1  6  1  0  0  0  0
  2  1  2  0  0  0  0
  2  3  1  0  0  0  0
  3  4  2  0  0  0  0
  4  5  1  0  0  0  0
  5  8  1  0  0  0  0
  6  5  2  0  0  0  0
  7  1  1  0  0  0  0
  9 10  2  0  0  0  0
  9  3  1  0  0  0  0
 10 14  1  0  0  0  0
 11 10  1  0  0  0  0
 12 13  1  0  0  0  0
 12 11  2  0  0  0  0
 13  9  1  0  0  0  0
 15 11  1  0  0  0  0
 16 12  1  0  0  0  0
 17  2  1  0  0  0  0
 18 17  2  0  0  0  0
 19 17  1  0  0  0  0
 20 19  2  0  0  0  0
 21 22  1  0  0  0  0
 21 20  1  0  0  0  0
M  END
>  <minimizedAffinity>
-3.97494483

>  <minimizedRMSD>
1.18724155

$$$$
