
 OpenBabel03242511423D

 29 30  0  0  0  0  0  0  0  0999 V2000
   46.8850   32.7690   46.1470 C   0  0  0  0  0  0  0  0  0  0  0  0
   46.9550   33.7980   46.5160 H   0  0  0  0  0  0  0  0  0  0  0  0
   47.9370   32.3740   46.0240 H   0  0  0  0  0  0  0  0  0  0  0  0
   46.2660   31.9360   47.1730 C   0  0  0  0  0  0  0  0  0  0  0  0
   45.3160   32.2660   48.1260 C   0  0  0  0  0  0  0  0  0  0  0  0
   44.7590   31.3870   49.0190 C   0  0  0  0  0  0  0  0  0  0  0  0
   45.1760   30.0870   48.9580 C   0  0  0  0  0  0  0  0  0  0  0  0
   46.1280   29.7300   48.0130 C   0  0  0  0  0  0  0  0  0  0  0  0
   46.6770   30.6510   47.1220 C   0  0  0  0  0  0  0  0  0  0  0  0
   45.0600   33.3230   48.0810 H   0  0  0  0  0  0  0  0  0  0  0  0
   44.0420   31.8580   49.6740 H   0  0  0  0  0  0  0  0  0  0  0  0
   44.6540   29.4870   49.7200 H   0  0  0  0  0  0  0  0  0  0  0  0
   46.2690   28.6590   48.1890 H   0  0  0  0  0  0  0  0  0  0  0  0
   47.7080   29.8750   46.4500 C   0  0  0  0  0  3  0  0  0  0  0  0
   48.9020   29.4510   46.8050 C   0  0  0  0  0  3  0  0  0  0  0  0
   49.9140   28.6780   46.1160 C   0  0  0  0  0  2  0  0  0  0  0  0
   49.5240   28.4260   45.0900 H   0  0  0  0  0  0  0  0  0  0  0  0
   46.2400   32.6310   44.8090 C   0  0  0  0  0  0  0  0  0  0  0  0
   45.2790   32.0960   44.9170 H   0  0  0  0  0  0  0  0  0  0  0  0
   46.9220   32.2800   44.0160 H   0  0  0  0  0  0  0  0  0  0  0  0
   44.5420   35.9180   44.7640 C   0  0  0  0  0  0  0  0  0  0  0  0
   44.9310   36.4330   43.5030 C   0  0  0  0  0  0  0  0  0  0  0  0
   45.7630   35.6400   42.7370 C   0  0  0  0  0  0  0  0  0  0  0  0
   46.1540   34.4530   43.2050 N   0  0  0  0  0  0  0  0  0  0  0  0
   45.7510   34.0060   44.4240 C   0  0  0  0  0  0  0  0  0  0  0  0
   44.9610   34.7170   45.1950 N   0  0  0  0  0  0  0  0  0  0  0  0
   43.8800   36.5810   45.3410 H   0  0  0  0  0  0  0  0  0  0  0  0
   44.5870   37.4080   43.1600 H   0  0  0  0  0  0  0  0  0  0  0  0
   46.1010   35.9720   41.7600 H   0  0  0  0  0  0  0  0  0  0  0  0
  1  2  1  0  0  0  0
  1  4  1  0  0  0  0
  3  1  1  0  0  0  0
  4  5  1  0  0  0  0
  5  6  2  0  0  0  0
  6 11  1  0  0  0  0
  7  6  1  0  0  0  0
  7 12  1  0  0  0  0
  8 13  1  0  0  0  0
  8  7  2  0  0  0  0
  9  4  2  0  0  0  0
  9  8  1  0  0  0  0
 10  5  1  0  0  0  0
 14 15  2  0  0  0  0
 14  9  1  0  0  0  0
 16 15  1  0  0  0  0
 17 16  1  0  0  0  0
 18 19  1  0  0  0  0
 18  1  1  0  0  0  0
 20 18  1  0  0  0  0
 21 26  1  0  0  0  0
 21 27  1  0  0  0  0
 22 21  2  0  0  0  0
 23 24  2  0  0  0  0
 23 22  1  0  0  0  0
 24 25  1  0  0  0  0
 25 18  1  0  0  0  0
 25 26  2  0  0  0  0
 28 22  1  0  0  0  0
 29 23  1  0  0  0  0
M  END
>  <minimizedAffinity>
-4.65348387

>  <minimizedRMSD>
1.36399448

$$$$
