
 OpenBabel03252505573D

 31 32  0  0  0  0  0  0  0  0999 V2000
   45.8010   33.0270   47.3860 O   0  0  0  0  0  0  0  0  0  0  0  0
   44.8610   35.1160   44.6730 C   0  0  0  0  0  0  0  0  0  0  0  0
   45.3400   34.4360   43.5370 C   0  0  0  0  0  0  0  0  0  0  0  0
   45.9980   33.2280   43.7740 C   0  0  0  0  0  0  0  0  0  0  0  0
   46.1350   32.7930   45.0370 N   0  0  0  0  0  0  0  0  0  0  0  0
   45.6630   33.4730   46.0850 C   0  0  0  0  0  0  0  0  0  0  0  0
   45.0290   34.6270   45.9080 N   0  0  0  0  0  0  0  0  0  0  0  0
   44.3410   36.0690   44.5000 H   0  0  0  0  0  0  0  0  0  0  0  0
   45.1280   35.0240   42.1910 C   0  0  0  0  0  0  0  0  0  0  0  0
   44.4020   36.1880   42.4420 F   0  0  0  0  0  0  0  0  0  0  0  0
   44.3130   34.1410   41.4980 F   0  0  0  0  0  0  0  0  0  0  0  0
   46.3120   35.2790   41.6140 F   0  0  0  0  0  0  0  0  0  0  0  0
   46.5060   32.4170   42.7060 C   0  0  0  0  0  3  0  0  0  0  0  0
   47.7850   32.5190   42.3050 C   0  0  0  0  0  3  0  0  0  0  0  0
   48.7470   33.4770   42.9410 C   0  0  0  0  0  2  0  0  0  0  0  0
   48.4520   34.5380   42.7900 H   0  0  0  0  0  0  0  0  0  0  0  0
   45.2480   31.7920   47.7930 C   0  0  0  0  0  0  0  0  0  0  0  0
   44.8810   31.9450   48.8290 H   0  0  0  0  0  0  0  0  0  0  0  0
   44.3820   31.4750   47.1890 H   0  0  0  0  0  0  0  0  0  0  0  0
   46.3440   30.8070   47.8400 C   0  0  0  0  0  0  0  0  0  0  0  0
   46.4460   29.5340   47.3020 C   0  0  0  0  0  0  0  0  0  0  0  0
   47.5940   28.8480   47.5050 C   0  0  0  0  0  0  0  0  0  0  0  0
   48.6200   29.3330   48.1900 N   0  0  0  0  0  0  0  0  0  0  0  0
   48.5200   30.5680   48.7100 C   0  0  0  0  0  0  0  0  0  0  0  0
   47.3890   31.3290   48.5500 N   0  0  0  0  0  0  0  0  0  0  0  0
   45.5650   29.2610   46.7800 H   0  0  0  0  0  0  0  0  0  0  0  0
   47.6360   27.8590   47.0700 H   0  0  0  0  0  0  0  0  0  0  0  0
   49.7140   31.0440   49.4660 C   0  0  0  0  0  0  0  0  0  0  0  0
   49.8030   32.4070   49.4560 F   0  0  0  0  0  0  0  0  0  0  0  0
   50.8740   30.4980   48.9000 F   0  0  0  0  0  0  0  0  0  0  0  0
   49.6690   30.6370   50.7930 F   0  0  0  0  0  0  0  0  0  0  0  0
  1 17  1  0  0  0  0
  2  7  1  0  0  0  0
  3  4  1  0  0  0  0
  3  2  2  0  0  0  0
  4  5  2  0  0  0  0
  5  6  1  0  0  0  0
  6  1  1  0  0  0  0
  7  6  2  0  0  0  0
  8  2  1  0  0  0  0
  9 10  1  0  0  0  0
  9  3  1  0  0  0  0
 11  9  1  0  0  0  0
 12  9  1  0  0  0  0
 13  4  1  0  0  0  0
 14 13  2  0  0  0  0
 14 15  1  0  0  0  0
 16 15  1  0  0  0  0
 17 20  1  0  0  0  0
 17 18  1  0  0  0  0
 19 17  1  0  0  0  0
 20 25  1  0  0  0  0
 21 22  1  0  0  0  0
 21 20  2  0  0  0  0
 22 23  2  0  0  0  0
 23 24  1  0  0  0  0
 24 28  1  0  0  0  0
 25 24  2  0  0  0  0
 26 21  1  0  0  0  0
 27 22  1  0  0  0  0
 28 31  1  0  0  0  0
 29 28  1  0  0  0  0
 30 28  1  0  0  0  0
M  END
>  <minimizedAffinity>
-5.2153492

>  <minimizedRMSD>
0.816048741

$$$$
