
 OpenBabel03252501543D

 16 16  0  0  0  0  0  0  0  0999 V2000
   44.3920   35.7890   44.4790 C   0  0  0  0  0  0  0  0  0  0  0  0
   44.6470   35.1140   43.2920 C   0  0  0  0  0  0  0  0  0  0  0  0
   45.2630   33.8730   43.3590 C   0  0  0  0  0  0  0  0  0  0  0  0
   45.5960   33.3580   44.5700 N   0  0  0  0  0  0  0  0  0  0  0  0
   45.3280   34.0500   45.7120 C   0  0  0  0  0  0  0  0  0  0  0  0
   44.7300   35.2560   45.6640 N   0  0  0  0  0  0  0  0  0  0  0  0
   43.9220   36.7510   44.5710 H   0  0  0  0  0  0  0  0  0  0  0  0
   45.6580   33.4920   46.5710 H   0  0  0  0  0  0  0  0  0  0  0  0
   44.2470   35.7610   42.0290 C   0  0  0  0  0  0  0  0  0  0  0  0
   43.3560   35.2780   41.5830 H   0  0  0  0  0  0  0  0  0  0  0  0
   45.0810   35.5960   41.2870 H   0  0  0  0  0  0  0  0  0  0  0  0
   44.1690   36.8420   42.1690 H   0  0  0  0  0  0  0  0  0  0  0  0
   45.5440   33.1430   42.1290 C   0  0  0  0  0  3  0  0  0  0  0  0
   44.8110   32.0900   41.8090 C   0  0  0  0  0  3  0  0  0  0  0  0
   45.1030   31.3430   40.5460 C   0  0  0  0  0  2  0  0  0  0  0  0
   44.6700   30.3160   40.5860 H   0  0  0  0  0  0  0  0  0  0  0  0
  1  7  1  0  0  0  0
  1  6  1  0  0  0  0
  2  3  1  0  0  0  0
  2  1  2  0  0  0  0
  3  4  2  0  0  0  0
  4  5  1  0  0  0  0
  5  8  1  0  0  0  0
  6  5  2  0  0  0  0
  9 12  1  0  0  0  0
  9  2  1  0  0  0  0
 10  9  1  0  0  0  0
 11  9  1  0  0  0  0
 13  3  1  0  0  0  0
 14 13  2  0  0  0  0
 15 16  1  0  0  0  0
 15 14  1  0  0  0  0
M  END
>  <minimizedAffinity>
-2.89842343

>  <minimizedRMSD>
0.0973366201

$$$$
