
 OpenBabel03252501453D

 18 18  0  0  0  0  0  0  0  0999 V2000
   44.5850   35.6820   42.4450 C   0  0  0  0  0  0  0  0  0  0  0  0
   44.1260   35.0450   41.2750 C   0  0  0  0  0  0  0  0  0  0  0  0
   44.9700   34.1490   40.6460 C   0  0  0  0  0  0  0  0  0  0  0  0
   46.2000   33.9100   41.1660 N   0  0  0  0  0  0  0  0  0  0  0  0
   46.6090   34.5460   42.3000 C   0  0  0  0  0  0  0  0  0  0  0  0
   45.8130   35.4100   42.9180 N   0  0  0  0  0  0  0  0  0  0  0  0
   43.8730   36.3680   42.8810 H   0  0  0  0  0  0  0  0  0  0  0  0
   44.6670   33.6380   39.7520 H   0  0  0  0  0  0  0  0  0  0  0  0
   42.7900   35.3260   40.7390 C   0  0  0  0  0  0  0  0  0  0  0  0
   41.7000   35.4470   41.4960 C   0  0  0  0  0  0  0  0  0  0  0  0
   40.3670   35.7380   40.8490 C   0  0  0  0  0  0  0  0  0  0  0  0
   39.9410   34.8450   40.3930 H   0  0  0  0  0  0  0  0  0  0  0  0
   39.6920   36.0330   41.6790 H   0  0  0  0  0  0  0  0  0  0  0  0
   40.4460   36.5990   40.1650 H   0  0  0  0  0  0  0  0  0  0  0  0
   47.9210   34.3210   42.8950 C   0  0  0  0  0  0  0  0  0  0  0  0
   49.0380   34.9220   42.5250 C   0  0  0  0  0  0  0  0  0  0  0  0
   49.0760   35.9110   41.4410 C   0  0  0  0  0  0  0  0  0  0  0  0
   50.1090   36.2840   41.2890 H   0  0  0  0  0  0  0  0  0  0  0  0
  1  7  1  0  0  0  0
  1  6  1  0  0  0  0
  2  1  2  0  0  0  0
  3  4  2  0  0  0  0
  3  2  1  0  0  0  0
  4  5  1  0  0  0  0
  5 15  1  0  0  0  0
  5  6  2  0  0  0  0
  8  3  1  0  0  0  0
  9  2  1  0  0  0  0
  9 10  2  0  0  0  0
 11 10  1  0  0  0  0
 11 13  1  0  0  0  0
 12 11  1  0  0  0  0
 14 11  1  0  0  0  0
 16 15  2  0  0  0  0
 17 16  1  0  0  0  0
 18 17  1  0  0  0  0
M  END
>  <minimizedAffinity>
-4.39518023

>  <minimizedRMSD>
4.09198236

$$$$
