
 OpenBabel03252505073D

 38 40  0  0  1  0  0  0  0  0999 V2000
   44.5750   35.5860   44.6080 C   0  0  0  0  0  0  0  0  0  0  0  0
   45.2350   35.5990   43.3560 C   0  0  0  0  0  0  0  0  0  0  0  0
   46.3220   34.6890   43.1800 C   0  0  0  0  0  0  0  0  0  0  0  0
   46.6660   33.8680   44.2020 N   0  0  0  0  0  0  0  0  0  0  0  0
   46.0080   33.8950   45.3710 C   0  0  0  0  0  0  0  0  0  0  0  0
   44.9610   34.7480   45.5890 N   0  0  0  0  0  0  0  0  0  0  0  0
   43.7510   36.2610   44.7720 H   0  0  0  0  0  0  0  0  0  0  0  0
   44.9230   36.2740   42.5680 H   0  0  0  0  0  0  0  0  0  0  0  0
   46.4350   32.9720   46.4580 C   0  0  2  0  0  0  0  0  0  0  0  0
   46.9650   31.7490   45.7610 C   0  0  0  0  0  0  0  0  0  0  0  0
   46.1030   30.5560   45.7740 C   0  0  0  0  0  0  0  0  0  0  0  0
   45.8090   30.2920   47.2530 C   0  0  0  0  0  0  0  0  0  0  0  0
   45.0150   31.3540   47.8650 C   0  0  0  0  0  0  0  0  0  0  0  0
   45.3790   32.7330   47.4150 C   0  0  0  0  0  0  0  0  0  0  0  0
   47.2760   33.5000   46.9660 H   0  0  0  0  0  0  0  0  0  0  0  0
   47.9270   31.4710   46.2600 H   0  0  0  0  0  0  0  0  0  0  0  0
   47.2640   31.9560   44.7060 H   0  0  0  0  0  0  0  0  0  0  0  0
   46.6790   29.6940   45.4340 H   0  0  0  0  0  0  0  0  0  0  0  0
   45.1850   30.6220   45.1690 H   0  0  0  0  0  0  0  0  0  0  0  0
   46.7520   30.0430   47.7400 H   0  0  0  0  0  0  0  0  0  0  0  0
   45.1460   29.3960   47.2370 H   0  0  0  0  0  0  0  0  0  0  0  0
   44.2230   31.3450   48.5680 H   0  0  0  0  0  0  0  0  0  0  0  0
   44.6820   33.8760   47.9270 N   0  0  0  0  0  0  0  0  0  0  0  0
   43.6670   33.9950   47.7050 H   0  0  0  0  0  0  0  0  0  0  0  0
   45.2410   34.5210   48.4950 H   0  0  0  0  0  0  0  0  0  0  0  0
   47.0170   34.6780   41.9020 C   0  0  0  0  0  0  0  0  0  0  0  0
   48.1610   35.4000   41.7790 C   0  0  0  0  0  0  0  0  0  0  0  0
   48.7940   35.3570   40.5250 C   0  0  0  0  0  0  0  0  0  0  0  0
   48.1920   34.5920   39.5530 C   0  0  0  0  0  0  0  0  0  0  0  0
   47.0430   33.8670   39.6750 C   0  0  0  0  0  0  0  0  0  0  0  0
   46.4690   33.9430   40.9140 N   0  0  0  0  0  0  0  0  0  0  0  0
   48.6160   35.9960   42.5610 H   0  0  0  0  0  0  0  0  0  0  0  0
   49.7070   35.9060   40.3550 H   0  0  0  0  0  0  0  0  0  0  0  0
   48.7020   34.5770   38.5940 H   0  0  0  0  0  0  0  0  0  0  0  0
   46.4270   33.0740   38.6530 C   0  0  0  0  0  3  0  0  0  0  0  0
   46.6600   33.3050   37.3740 C   0  0  0  0  0  3  0  0  0  0  0  0
   46.0810   32.5530   36.2560 C   0  0  0  0  0  2  0  0  0  0  0  0
   45.0520   32.1490   36.4840 H   0  0  0  0  0  0  0  0  0  0  0  0
  1  7  1  0  0  0  0
  1  6  1  0  0  0  0
  2  1  2  0  0  0  0
  3  2  1  0  0  0  0
  3  4  2  0  0  0  0
  4  5  1  0  0  0  0
  5  6  2  0  0  0  0
  5  9  1  0  0  0  0
  8  2  1  0  0  0  0
  9 15  1  1  0  0  0
  9 14  1  0  0  0  0
 10 11  1  0  0  0  0
 10 16  1  0  0  0  0
 10  9  1  0  0  0  0
 11 12  1  0  0  0  0
 12 20  1  0  0  0  0
 12 13  1  0  0  0  0
 13 22  1  0  0  0  0
 14 13  2  0  0  0  0
 14 23  1  0  0  0  0
 17 10  1  0  0  0  0
 18 11  1  0  0  0  0
 19 11  1  0  0  0  0
 21 12  1  0  0  0  0
 23 25  1  0  0  0  0
 24 23  1  0  0  0  0
 26  3  1  0  0  0  0
 27 26  1  0  0  0  0
 27 32  1  0  0  0  0
 28 27  2  0  0  0  0
 29 30  2  0  0  0  0
 29 28  1  0  0  0  0
 30 31  1  0  0  0  0
 31 26  2  0  0  0  0
 33 28  1  0  0  0  0
 34 29  1  0  0  0  0
 35 30  1  0  0  0  0
 36 35  2  0  0  0  0
 37 38  1  0  0  0  0
 37 36  1  0  0  0  0
M  END
>  <minimizedAffinity>
-7.06109285

>  <minimizedRMSD>
0.0751837939

$$$$
