
 OpenBabel03252505563D

 31 32  0  0  0  0  0  0  0  0999 V2000
   45.8510   32.7020   47.5860 O   0  0  0  0  0  0  0  0  0  0  0  0
   45.0140   34.8790   44.9100 C   0  0  0  0  0  0  0  0  0  0  0  0
   45.9500   34.5630   43.9070 C   0  0  0  0  0  0  0  0  0  0  0  0
   46.8720   33.5620   44.2180 C   0  0  0  0  0  0  0  0  0  0  0  0
   46.8180   32.9740   45.4240 N   0  0  0  0  0  0  0  0  0  0  0  0
   45.9100   33.3070   46.3450 C   0  0  0  0  0  0  0  0  0  0  0  0
   45.0120   34.2530   46.0930 N   0  0  0  0  0  0  0  0  0  0  0  0
   44.2820   35.6660   44.6770 H   0  0  0  0  0  0  0  0  0  0  0  0
   45.9080   35.2900   42.6140 C   0  0  0  0  0  0  0  0  0  0  0  0
   45.0540   36.3640   42.8580 F   0  0  0  0  0  0  0  0  0  0  0  0
   45.2940   34.4410   41.7040 F   0  0  0  0  0  0  0  0  0  0  0  0
   47.1440   35.6890   42.2760 F   0  0  0  0  0  0  0  0  0  0  0  0
   47.8590   33.1180   43.2780 C   0  0  0  0  0  3  0  0  0  0  0  0
   47.6280   32.0590   42.4820 C   0  0  0  0  0  3  0  0  0  0  0  0
   46.3450   31.2890   42.5270 C   0  0  0  0  0  2  0  0  0  0  0  0
   46.1870   30.7820   43.5050 H   0  0  0  0  0  0  0  0  0  0  0  0
   45.3430   31.3920   47.7320 C   0  0  0  0  0  0  0  0  0  0  0  0
   44.8220   31.3700   48.7110 H   0  0  0  0  0  0  0  0  0  0  0  0
   44.5980   31.1180   46.9660 H   0  0  0  0  0  0  0  0  0  0  0  0
   46.4940   30.4730   47.8100 C   0  0  0  0  0  0  0  0  0  0  0  0
   46.6940   29.2180   47.2580 C   0  0  0  0  0  0  0  0  0  0  0  0
   47.8730   28.5980   47.4970 C   0  0  0  0  0  0  0  0  0  0  0  0
   48.8390   29.1330   48.2310 N   0  0  0  0  0  0  0  0  0  0  0  0
   48.6440   30.3500   48.7650 C   0  0  0  0  0  0  0  0  0  0  0  0
   47.4750   31.0440   48.5690 N   0  0  0  0  0  0  0  0  0  0  0  0
   45.8540   28.9010   46.6950 H   0  0  0  0  0  0  0  0  0  0  0  0
   47.9920   27.6210   47.0500 H   0  0  0  0  0  0  0  0  0  0  0  0
   49.7750   30.8840   49.5760 C   0  0  0  0  0  0  0  0  0  0  0  0
   49.7830   32.2500   49.5880 F   0  0  0  0  0  0  0  0  0  0  0  0
   50.9880   30.4170   49.0520 F   0  0  0  0  0  0  0  0  0  0  0  0
   49.7010   30.4540   50.8940 F   0  0  0  0  0  0  0  0  0  0  0  0
  1 17  1  0  0  0  0
  2  7  1  0  0  0  0
  3  4  1  0  0  0  0
  3  2  2  0  0  0  0
  4  5  2  0  0  0  0
  5  6  1  0  0  0  0
  6  1  1  0  0  0  0
  7  6  2  0  0  0  0
  8  2  1  0  0  0  0
  9 10  1  0  0  0  0
  9  3  1  0  0  0  0
 11  9  1  0  0  0  0
 12  9  1  0  0  0  0
 13  4  1  0  0  0  0
 14 15  1  0  0  0  0
 14 13  2  0  0  0  0
 15 16  1  0  0  0  0
 17 20  1  0  0  0  0
 17 18  1  0  0  0  0
 19 17  1  0  0  0  0
 20 25  1  0  0  0  0
 21 22  1  0  0  0  0
 21 20  2  0  0  0  0
 22 23  2  0  0  0  0
 23 24  1  0  0  0  0
 24 28  1  0  0  0  0
 25 24  2  0  0  0  0
 26 21  1  0  0  0  0
 27 22  1  0  0  0  0
 28 29  1  0  0  0  0
 28 31  1  0  0  0  0
 30 28  1  0  0  0  0
M  END
>  <minimizedAffinity>
-5.50975132

>  <minimizedRMSD>
0.535569429

$$$$
