
 OpenBabel03252504123D

 20 20  0  0  0  0  0  0  0  0999 V2000
   37.1520   27.7610   41.0860 C   0  0  0  0  0  0  0  0  0  0  0  0
   37.5930   28.8750   41.8040 C   0  0  0  0  0  0  0  0  0  0  0  0
   36.9070   30.0840   41.6100 C   0  0  0  0  0  0  0  0  0  0  0  0
   35.8620   30.1180   40.7480 N   0  0  0  0  0  0  0  0  0  0  0  0
   35.4750   29.0080   40.0760 C   0  0  0  0  0  0  0  0  0  0  0  0
   36.1160   27.8300   40.2430 N   0  0  0  0  0  0  0  0  0  0  0  0
   37.2310   30.9660   42.1570 H   0  0  0  0  0  0  0  0  0  0  0  0
   38.7400   28.7530   42.7240 C   0  0  0  0  0  0  0  0  0  0  0  0
   39.8950   28.4580   42.0000 F   0  0  0  0  0  0  0  0  0  0  0  0
   38.9540   29.9840   43.3110 F   0  0  0  0  0  0  0  0  0  0  0  0
   38.6110   27.8090   43.6790 F   0  0  0  0  0  0  0  0  0  0  0  0
   34.3480   29.0700   39.1530 C   0  0  0  0  0  3  0  0  0  0  0  0
   34.5250   28.9330   37.8490 C   0  0  0  0  0  3  0  0  0  0  0  0
   33.3740   28.9950   36.9110 C   0  0  0  0  0  2  0  0  0  0  0  0
   32.5200   29.4250   37.4560 H   0  0  0  0  0  0  0  0  0  0  0  0
   37.8240   26.5970   41.2830 O   0  0  0  0  0  0  0  0  0  0  0  0
   37.3210   25.4140   41.8520 C   0  0  0  0  0  0  0  0  0  0  0  0
   38.4220   24.6460   42.2230 F   0  0  0  0  0  0  0  0  0  0  0  0
   36.5050   25.7180   42.9120 F   0  0  0  0  0  0  0  0  0  0  0  0
   36.6780   24.6670   40.8800 F   0  0  0  0  0  0  0  0  0  0  0  0
  1 16  1  0  0  0  0
  1  2  1  0  0  0  0
  2  8  1  0  0  0  0
  3  2  2  0  0  0  0
  3  7  1  0  0  0  0
  4  3  1  0  0  0  0
  5  6  1  0  0  0  0
  5  4  2  0  0  0  0
  6  1  2  0  0  0  0
  8 10  1  0  0  0  0
  8 11  1  0  0  0  0
  9  8  1  0  0  0  0
 12  5  1  0  0  0  0
 13 12  2  0  0  0  0
 14 15  1  0  0  0  0
 14 13  1  0  0  0  0
 16 17  1  0  0  0  0
 17 18  1  0  0  0  0
 17 19  1  0  0  0  0
 20 17  1  0  0  0  0
M  END
>  <minimizedAffinity>
-4.72740078

$$$$

 OpenBabel03252504123D

 20 20  0  0  0  0  0  0  0  0999 V2000
   37.1420   28.0090   41.0680 C   0  0  0  0  0  0  0  0  0  0  0  0
   37.6470   29.1600   41.6770 C   0  0  0  0  0  0  0  0  0  0  0  0
   36.9590   30.3640   41.4580 C   0  0  0  0  0  0  0  0  0  0  0  0
   35.8520   30.3570   40.6770 N   0  0  0  0  0  0  0  0  0  0  0  0
   35.4040   29.2130   40.1100 C   0  0  0  0  0  0  0  0  0  0  0  0
   36.0450   28.0380   40.3030 N   0  0  0  0  0  0  0  0  0  0  0  0
   37.3310   31.2750   41.9200 H   0  0  0  0  0  0  0  0  0  0  0  0
   38.8600   29.0810   42.5140 C   0  0  0  0  0  0  0  0  0  0  0  0
   39.2540   30.3640   42.8920 F   0  0  0  0  0  0  0  0  0  0  0  0
   38.5360   28.4150   43.6790 F   0  0  0  0  0  0  0  0  0  0  0  0
   39.9210   28.4890   41.9310 F   0  0  0  0  0  0  0  0  0  0  0  0
   34.2100   29.2310   39.2730 C   0  0  0  0  0  3  0  0  0  0  0  0
   34.2520   28.8220   38.0150 C   0  0  0  0  0  3  0  0  0  0  0  0
   33.0320   28.8420   37.1650 C   0  0  0  0  0  2  0  0  0  0  0  0
   32.2830   29.4700   37.6680 H   0  0  0  0  0  0  0  0  0  0  0  0
   37.8170   26.8500   41.2890 O   0  0  0  0  0  0  0  0  0  0  0  0
   37.4400   25.8000   42.1430 C   0  0  0  0  0  0  0  0  0  0  0  0
   36.5110   26.3260   43.0400 F   0  0  0  0  0  0  0  0  0  0  0  0
   36.9350   24.7590   41.4070 F   0  0  0  0  0  0  0  0  0  0  0  0
   38.5180   25.4280   42.9270 F   0  0  0  0  0  0  0  0  0  0  0  0
  1 16  1  0  0  0  0
  1  2  1  0  0  0  0
  2  8  1  0  0  0  0
  3  2  2  0  0  0  0
  3  7  1  0  0  0  0
  4  3  1  0  0  0  0
  5  6  1  0  0  0  0
  5  4  2  0  0  0  0
  6  1  2  0  0  0  0
  8  9  1  0  0  0  0
  8 10  1  0  0  0  0
 11  8  1  0  0  0  0
 12  5  1  0  0  0  0
 13 12  2  0  0  0  0
 14 15  1  0  0  0  0
 14 13  1  0  0  0  0
 16 17  1  0  0  0  0
 17 20  1  0  0  0  0
 17 18  1  0  0  0  0
 19 17  1  0  0  0  0
M  END
>  <minimizedAffinity>
-4.71067142

$$$$

 OpenBabel03252504123D

 20 20  0  0  0  0  0  0  0  0999 V2000
   37.9260   29.4660   42.1760 C   0  0  0  0  0  0  0  0  0  0  0  0
   38.1770   28.1400   42.5350 C   0  0  0  0  0  0  0  0  0  0  0  0
   39.4930   27.8010   42.8850 C   0  0  0  0  0  0  0  0  0  0  0  0
   40.4490   28.7620   42.8590 N   0  0  0  0  0  0  0  0  0  0  0  0
   40.1520   30.0330   42.5030 C   0  0  0  0  0  0  0  0  0  0  0  0
   38.8930   30.3890   42.1620 N   0  0  0  0  0  0  0  0  0  0  0  0
   39.7150   26.7760   43.1680 H   0  0  0  0  0  0  0  0  0  0  0  0
   37.0770   27.1550   42.5380 C   0  0  0  0  0  0  0  0  0  0  0  0
   36.5800   27.0030   41.2440 F   0  0  0  0  0  0  0  0  0  0  0  0
   37.5990   25.9290   42.9000 F   0  0  0  0  0  0  0  0  0  0  0  0
   36.0350   27.4610   43.3370 F   0  0  0  0  0  0  0  0  0  0  0  0
   41.1980   31.0480   42.4820 C   0  0  0  0  0  3  0  0  0  0  0  0
   42.3320   30.8740   43.1430 C   0  0  0  0  0  3  0  0  0  0  0  0
   43.3970   31.9110   43.1190 C   0  0  0  0  0  2  0  0  0  0  0  0
   42.9520   32.8400   42.7330 H   0  0  0  0  0  0  0  0  0  0  0  0
   36.6470   29.7800   41.8400 O   0  0  0  0  0  0  0  0  0  0  0  0
   36.1690   30.1370   40.5670 C   0  0  0  0  0  0  0  0  0  0  0  0
   34.8980   29.5790   40.4430 F   0  0  0  0  0  0  0  0  0  0  0  0
   36.1630   31.5030   40.4380 F   0  0  0  0  0  0  0  0  0  0  0  0
   36.9280   29.5120   39.5930 F   0  0  0  0  0  0  0  0  0  0  0  0
  1  2  1  0  0  0  0
  2  8  1  0  0  0  0
  2  3  2  0  0  0  0
  3  7  1  0  0  0  0
  4  3  1  0  0  0  0
  5  4  2  0  0  0  0
  6  1  2  0  0  0  0
  6  5  1  0  0  0  0
  8 10  1  0  0  0  0
  8 11  1  0  0  0  0
  9  8  1  0  0  0  0
 12  5  1  0  0  0  0
 12 13  2  0  0  0  0
 14 13  1  0  0  0  0
 15 14  1  0  0  0  0
 16  1  1  0  0  0  0
 17 16  1  0  0  0  0
 18 17  1  0  0  0  0
 19 17  1  0  0  0  0
 20 17  1  0  0  0  0
M  END
>  <minimizedAffinity>
-4.65919971

$$$$

 OpenBabel03252504123D

 20 20  0  0  0  0  0  0  0  0999 V2000
   38.1330   29.7010   41.1450 C   0  0  0  0  0  0  0  0  0  0  0  0
   36.7650   29.8070   40.8810 C   0  0  0  0  0  0  0  0  0  0  0  0
   36.2710   31.0690   40.5200 C   0  0  0  0  0  0  0  0  0  0  0  0
   37.1290   32.1150   40.4440 N   0  0  0  0  0  0  0  0  0  0  0  0
   38.4470   31.9580   40.7100 C   0  0  0  0  0  0  0  0  0  0  0  0
   38.9520   30.7550   41.0590 N   0  0  0  0  0  0  0  0  0  0  0  0
   35.2100   31.1790   40.3100 H   0  0  0  0  0  0  0  0  0  0  0  0
   35.8990   28.6160   40.9870 C   0  0  0  0  0  0  0  0  0  0  0  0
   34.5990   28.9450   40.6040 F   0  0  0  0  0  0  0  0  0  0  0  0
   36.3450   27.6770   40.0780 F   0  0  0  0  0  0  0  0  0  0  0  0
   35.8300   28.0640   42.2150 F   0  0  0  0  0  0  0  0  0  0  0  0
   39.3500   33.1000   40.6210 C   0  0  0  0  0  3  0  0  0  0  0  0
   40.6550   32.9290   40.4820 C   0  0  0  0  0  3  0  0  0  0  0  0
   41.5720   34.0950   40.3910 C   0  0  0  0  0  2  0  0  0  0  0  0
   41.0190   34.9840   40.7260 H   0  0  0  0  0  0  0  0  0  0  0  0
   38.5990   28.4720   41.4930 O   0  0  0  0  0  0  0  0  0  0  0  0
   38.9470   28.0330   42.7820 C   0  0  0  0  0  0  0  0  0  0  0  0
   38.4090   28.9530   43.6790 F   0  0  0  0  0  0  0  0  0  0  0  0
   38.4790   26.7590   42.9830 F   0  0  0  0  0  0  0  0  0  0  0  0
   40.3180   28.1320   42.9520 F   0  0  0  0  0  0  0  0  0  0  0  0
  1 16  1  0  0  0  0
  2  8  1  0  0  0  0
  2  1  2  0  0  0  0
  3  2  1  0  0  0  0
  4  3  2  0  0  0  0
  4  5  1  0  0  0  0
  5  6  2  0  0  0  0
  6  1  1  0  0  0  0
  7  3  1  0  0  0  0
  8 11  1  0  0  0  0
  9  8  1  0  0  0  0
 10  8  1  0  0  0  0
 12  5  1  0  0  0  0
 13 12  2  0  0  0  0
 14 13  1  0  0  0  0
 14 15  1  0  0  0  0
 16 17  1  0  0  0  0
 17 20  1  0  0  0  0
 17 19  1  0  0  0  0
 17 18  1  0  0  0  0
M  END
>  <minimizedAffinity>
-4.5880723

$$$$

 OpenBabel03252504123D

 20 20  0  0  0  0  0  0  0  0999 V2000
   38.6510   30.2020   41.3040 C   0  0  0  0  0  0  0  0  0  0  0  0
   37.6670   31.0610   40.8100 C   0  0  0  0  0  0  0  0  0  0  0  0
   36.3430   30.5950   40.8050 C   0  0  0  0  0  0  0  0  0  0  0  0
   36.0810   29.3510   41.2730 N   0  0  0  0  0  0  0  0  0  0  0  0
   37.0730   28.5580   41.7410 C   0  0  0  0  0  0  0  0  0  0  0  0
   38.3570   28.9790   41.7580 N   0  0  0  0  0  0  0  0  0  0  0  0
   35.5570   31.2440   40.4250 H   0  0  0  0  0  0  0  0  0  0  0  0
   38.0370   32.4030   40.3190 C   0  0  0  0  0  0  0  0  0  0  0  0
   38.9430   32.2850   39.2660 F   0  0  0  0  0  0  0  0  0  0  0  0
   36.9060   32.9950   39.7920 F   0  0  0  0  0  0  0  0  0  0  0  0
   38.5920   33.2180   41.2390 F   0  0  0  0  0  0  0  0  0  0  0  0
   36.7660   27.2220   42.2380 C   0  0  0  0  0  3  0  0  0  0  0  0
   37.2200   26.1420   41.6230 C   0  0  0  0  0  3  0  0  0  0  0  0
   36.9060   24.7830   42.1340 C   0  0  0  0  0  2  0  0  0  0  0  0
   36.0790   24.8770   42.8520 H   0  0  0  0  0  0  0  0  0  0  0  0
   39.9280   30.6660   41.3030 O   0  0  0  0  0  0  0  0  0  0  0  0
   40.7310   30.9360   42.4240 C   0  0  0  0  0  0  0  0  0  0  0  0
   39.8790   31.3870   43.4300 F   0  0  0  0  0  0  0  0  0  0  0  0
   41.4250   29.8080   42.7830 F   0  0  0  0  0  0  0  0  0  0  0  0
   41.5610   32.0120   42.1540 F   0  0  0  0  0  0  0  0  0  0  0  0
  1  6  1  0  0  0  0
  2  1  2  0  0  0  0
  3  2  1  0  0  0  0
  3  4  2  0  0  0  0
  4  5  1  0  0  0  0
  5  6  2  0  0  0  0
  5 12  1  0  0  0  0
  7  3  1  0  0  0  0
  8  2  1  0  0  0  0
  8 11  1  0  0  0  0
  9  8  1  0  0  0  0
 10  8  1  0  0  0  0
 13 14  1  0  0  0  0
 13 12  2  0  0  0  0
 14 15  1  0  0  0  0
 16  1  1  0  0  0  0
 16 17  1  0  0  0  0
 17 19  1  0  0  0  0
 17 18  1  0  0  0  0
 20 17  1  0  0  0  0
M  END
>  <minimizedAffinity>
-4.52191544

$$$$

 OpenBabel03252504123D

 20 20  0  0  0  0  0  0  0  0999 V2000
   37.0700   30.6000   40.7040 C   0  0  0  0  0  0  0  0  0  0  0  0
   36.4500   30.2790   39.4940 C   0  0  0  0  0  0  0  0  0  0  0  0
   36.8710   30.9700   38.3470 C   0  0  0  0  0  0  0  0  0  0  0  0
   37.8460   31.9040   38.4620 N   0  0  0  0  0  0  0  0  0  0  0  0
   38.4140   32.1770   39.6600 C   0  0  0  0  0  0  0  0  0  0  0  0
   38.0300   31.5280   40.7810 N   0  0  0  0  0  0  0  0  0  0  0  0
   36.4050   30.7400   37.3930 H   0  0  0  0  0  0  0  0  0  0  0  0
   35.3950   29.2480   39.4550 C   0  0  0  0  0  0  0  0  0  0  0  0
   34.7090   29.3230   38.2440 F   0  0  0  0  0  0  0  0  0  0  0  0
   36.0040   28.0090   39.4800 F   0  0  0  0  0  0  0  0  0  0  0  0
   34.4800   29.3260   40.4430 F   0  0  0  0  0  0  0  0  0  0  0  0
   39.4610   33.1870   39.7580 C   0  0  0  0  0  3  0  0  0  0  0  0
   40.5410   33.1280   38.9930 C   0  0  0  0  0  3  0  0  0  0  0  0
   41.6050   34.1600   39.0960 C   0  0  0  0  0  2  0  0  0  0  0  0
   41.4440   34.7170   40.0290 H   0  0  0  0  0  0  0  0  0  0  0  0
   36.6520   29.9230   41.8070 O   0  0  0  0  0  0  0  0  0  0  0  0
   37.3010   28.8470   42.4350 C   0  0  0  0  0  0  0  0  0  0  0  0
   38.2650   28.3820   41.5430 F   0  0  0  0  0  0  0  0  0  0  0  0
   37.8390   29.2600   43.6280 F   0  0  0  0  0  0  0  0  0  0  0  0
   36.4170   27.7920   42.5830 F   0  0  0  0  0  0  0  0  0  0  0  0
  1  6  1  0  0  0  0
  1 16  1  0  0  0  0
  2  1  2  0  0  0  0
  3  4  2  0  0  0  0
  3  2  1  0  0  0  0
  4  5  1  0  0  0  0
  5 12  1  0  0  0  0
  5  6  2  0  0  0  0
  7  3  1  0  0  0  0
  8 10  1  0  0  0  0
  8  2  1  0  0  0  0
  8 11  1  0  0  0  0
  9  8  1  0  0  0  0
 13 14  1  0  0  0  0
 13 12  2  0  0  0  0
 14 15  1  0  0  0  0
 16 17  1  0  0  0  0
 17 20  1  0  0  0  0
 17 19  1  0  0  0  0
 18 17  1  0  0  0  0
M  END
>  <minimizedAffinity>
-4.45170164

$$$$

 OpenBabel03252504123D

 20 20  0  0  0  0  0  0  0  0999 V2000
   37.0000   29.9630   40.4060 C   0  0  0  0  0  0  0  0  0  0  0  0
   37.9370   30.7650   41.0610 C   0  0  0  0  0  0  0  0  0  0  0  0
   38.5580   30.2360   42.2020 C   0  0  0  0  0  0  0  0  0  0  0  0
   38.2270   28.9870   42.6130 N   0  0  0  0  0  0  0  0  0  0  0  0
   37.3120   28.2510   41.9410 C   0  0  0  0  0  0  0  0  0  0  0  0
   36.6970   28.7340   40.8380 N   0  0  0  0  0  0  0  0  0  0  0  0
   39.2910   30.8400   42.7310 H   0  0  0  0  0  0  0  0  0  0  0  0
   38.2400   32.1150   40.5470 C   0  0  0  0  0  0  0  0  0  0  0  0
   39.0160   32.8080   41.4760 F   0  0  0  0  0  0  0  0  0  0  0  0
   39.0200   31.9800   39.4150 F   0  0  0  0  0  0  0  0  0  0  0  0
   37.1640   32.8790   40.2700 F   0  0  0  0  0  0  0  0  0  0  0  0
   36.9720   26.9110   42.4030 C   0  0  0  0  0  3  0  0  0  0  0  0
   37.2450   25.8450   41.6670 C   0  0  0  0  0  3  0  0  0  0  0  0
   36.8980   24.4800   42.1420 C   0  0  0  0  0  2  0  0  0  0  0  0
   36.1930   24.5840   42.9790 H   0  0  0  0  0  0  0  0  0  0  0  0
   36.4060   30.4880   39.3020 O   0  0  0  0  0  0  0  0  0  0  0  0
   36.6690   30.1580   37.9610 C   0  0  0  0  0  0  0  0  0  0  0  0
   37.0110   31.3440   37.3150 F   0  0  0  0  0  0  0  0  0  0  0  0
   37.6640   29.2150   37.9000 F   0  0  0  0  0  0  0  0  0  0  0  0
   35.5000   29.7430   37.3460 F   0  0  0  0  0  0  0  0  0  0  0  0
  1  6  2  0  0  0  0
  1  2  1  0  0  0  0
  2  3  2  0  0  0  0
  3  4  1  0  0  0  0
  3  7  1  0  0  0  0
  5 12  1  0  0  0  0
  5  4  2  0  0  0  0
  6  5  1  0  0  0  0
  8  2  1  0  0  0  0
  8  9  1  0  0  0  0
 10  8  1  0  0  0  0
 11  8  1  0  0  0  0
 13 14  1  0  0  0  0
 13 12  2  0  0  0  0
 14 15  1  0  0  0  0
 16  1  1  0  0  0  0
 17 16  1  0  0  0  0
 18 17  1  0  0  0  0
 19 17  1  0  0  0  0
 20 17  1  0  0  0  0
M  END
>  <minimizedAffinity>
-4.45119905

$$$$

 OpenBabel03252504123D

 20 20  0  0  0  0  0  0  0  0999 V2000
   38.0120   28.8720   40.8100 C   0  0  0  0  0  0  0  0  0  0  0  0
   38.5290   30.0180   41.4160 C   0  0  0  0  0  0  0  0  0  0  0  0
   38.3920   31.2330   40.7270 C   0  0  0  0  0  0  0  0  0  0  0  0
   37.7730   31.2410   39.5210 N   0  0  0  0  0  0  0  0  0  0  0  0
   37.2890   30.1000   38.9780 C   0  0  0  0  0  0  0  0  0  0  0  0
   37.4050   28.9150   39.6190 N   0  0  0  0  0  0  0  0  0  0  0  0
   38.7870   32.1410   41.1760 H   0  0  0  0  0  0  0  0  0  0  0  0
   39.1900   29.9230   42.7320 C   0  0  0  0  0  0  0  0  0  0  0  0
   39.7200   31.1640   43.0820 F   0  0  0  0  0  0  0  0  0  0  0  0
   38.2260   29.6330   43.6770 F   0  0  0  0  0  0  0  0  0  0  0  0
   40.1890   29.0220   42.8090 F   0  0  0  0  0  0  0  0  0  0  0  0
   36.6260   30.1330   37.6800 C   0  0  0  0  0  3  0  0  0  0  0  0
   35.8740   29.1240   37.2700 C   0  0  0  0  0  3  0  0  0  0  0  0
   35.2000   29.1630   35.9460 C   0  0  0  0  0  2  0  0  0  0  0  0
   35.6590   29.9710   35.3590 H   0  0  0  0  0  0  0  0  0  0  0  0
   38.1510   27.7020   41.4880 O   0  0  0  0  0  0  0  0  0  0  0  0
   37.1510   27.0050   42.1880 C   0  0  0  0  0  0  0  0  0  0  0  0
   36.0920   27.8930   42.3670 F   0  0  0  0  0  0  0  0  0  0  0  0
   36.7880   25.8820   41.4870 F   0  0  0  0  0  0  0  0  0  0  0  0
   37.5930   26.7170   43.4680 F   0  0  0  0  0  0  0  0  0  0  0  0
  1  2  1  0  0  0  0
  1 16  1  0  0  0  0
  2  8  1  0  0  0  0
  3  7  1  0  0  0  0
  3  2  2  0  0  0  0
  4  3  1  0  0  0  0
  5  4  2  0  0  0  0
  5  6  1  0  0  0  0
  6  1  2  0  0  0  0
  8 11  1  0  0  0  0
  8  9  1  0  0  0  0
  8 10  1  0  0  0  0
 12  5  1  0  0  0  0
 13 12  2  0  0  0  0
 14 13  1  0  0  0  0
 15 14  1  0  0  0  0
 16 17  1  0  0  0  0
 17 18  1  0  0  0  0
 17 20  1  0  0  0  0
 19 17  1  0  0  0  0
M  END
>  <minimizedAffinity>
-4.40555525

$$$$

 OpenBabel03252504123D

 20 20  0  0  0  0  0  0  0  0999 V2000
   38.0740   29.7390   40.5400 C   0  0  0  0  0  0  0  0  0  0  0  0
   37.5210   29.1230   41.6640 C   0  0  0  0  0  0  0  0  0  0  0  0
   38.1730   29.3110   42.8930 C   0  0  0  0  0  0  0  0  0  0  0  0
   39.2950   30.0710   42.9330 N   0  0  0  0  0  0  0  0  0  0  0  0
   39.7890   30.6460   41.8120 C   0  0  0  0  0  0  0  0  0  0  0  0
   39.1820   30.4830   40.6150 N   0  0  0  0  0  0  0  0  0  0  0  0
   37.7640   28.8430   43.7840 H   0  0  0  0  0  0  0  0  0  0  0  0
   36.2950   28.3120   41.5340 C   0  0  0  0  0  0  0  0  0  0  0  0
   35.2460   29.1130   41.0850 F   0  0  0  0  0  0  0  0  0  0  0  0
   36.5080   27.3650   40.5510 F   0  0  0  0  0  0  0  0  0  0  0  0
   35.8840   27.7070   42.6670 F   0  0  0  0  0  0  0  0  0  0  0  0
   40.9980   31.4590   41.8810 C   0  0  0  0  0  3  0  0  0  0  0  0
   41.9220   31.2320   42.8010 C   0  0  0  0  0  3  0  0  0  0  0  0
   43.1530   32.0620   42.8670 C   0  0  0  0  0  2  0  0  0  0  0  0
   42.9850   32.9620   42.2580 H   0  0  0  0  0  0  0  0  0  0  0  0
   37.4310   29.5490   39.3560 O   0  0  0  0  0  0  0  0  0  0  0  0
   36.7780   30.5230   38.5820 C   0  0  0  0  0  0  0  0  0  0  0  0
   36.3960   31.5410   39.4540 F   0  0  0  0  0  0  0  0  0  0  0  0
   37.6130   30.9640   37.5860 F   0  0  0  0  0  0  0  0  0  0  0  0
   35.5880   30.0090   38.0940 F   0  0  0  0  0  0  0  0  0  0  0  0
  1  6  2  0  0  0  0
  1  2  1  0  0  0  0
  2  3  2  0  0  0  0
  3  4  1  0  0  0  0
  3  7  1  0  0  0  0
  5 12  1  0  0  0  0
  5  4  2  0  0  0  0
  6  5  1  0  0  0  0
  8  2  1  0  0  0  0
  8 11  1  0  0  0  0
  9  8  1  0  0  0  0
 10  8  1  0  0  0  0
 12 13  2  0  0  0  0
 13 14  1  0  0  0  0
 15 14  1  0  0  0  0
 16  1  1  0  0  0  0
 17 16  1  0  0  0  0
 17 18  1  0  0  0  0
 19 17  1  0  0  0  0
 20 17  1  0  0  0  0
M  END
>  <minimizedAffinity>
-4.38738441

$$$$
