
 OpenBabel03252501543D

 16 16  0  0  0  0  0  0  0  0999 V2000
   44.3530   35.7550   44.5160 C   0  0  0  0  0  0  0  0  0  0  0  0
   44.7190   35.1630   43.3140 C   0  0  0  0  0  0  0  0  0  0  0  0
   45.4500   33.9850   43.3550 C   0  0  0  0  0  0  0  0  0  0  0  0
   45.7840   33.4480   44.5580 N   0  0  0  0  0  0  0  0  0  0  0  0
   45.4050   34.0590   45.7150 C   0  0  0  0  0  0  0  0  0  0  0  0
   44.6950   35.2030   45.6920 N   0  0  0  0  0  0  0  0  0  0  0  0
   43.7900   36.6630   44.6280 H   0  0  0  0  0  0  0  0  0  0  0  0
   45.7540   33.4960   46.5630 H   0  0  0  0  0  0  0  0  0  0  0  0
   44.3080   35.8270   42.0630 C   0  0  0  0  0  0  0  0  0  0  0  0
   43.4860   35.2810   41.5600 H   0  0  0  0  0  0  0  0  0  0  0  0
   45.1830   35.7760   41.3520 H   0  0  0  0  0  0  0  0  0  0  0  0
   44.1200   36.8880   42.2450 H   0  0  0  0  0  0  0  0  0  0  0  0
   45.8480   33.3420   42.1100 C   0  0  0  0  0  3  0  0  0  0  0  0
   45.2940   32.1950   41.7570 C   0  0  0  0  0  3  0  0  0  0  0  0
   45.7050   31.5380   40.4780 C   0  0  0  0  0  2  0  0  0  0  0  0
   45.4420   30.4550   40.4880 H   0  0  0  0  0  0  0  0  0  0  0  0
  1  7  1  0  0  0  0
  1  6  1  0  0  0  0
  2  3  1  0  0  0  0
  2  1  2  0  0  0  0
  3  4  2  0  0  0  0
  4  5  1  0  0  0  0
  5  8  1  0  0  0  0
  6  5  2  0  0  0  0
  9 12  1  0  0  0  0
  9  2  1  0  0  0  0
 10  9  1  0  0  0  0
 11  9  1  0  0  0  0
 13  3  1  0  0  0  0
 14 13  2  0  0  0  0
 15 16  1  0  0  0  0
 15 14  1  0  0  0  0
M  END
>  <minimizedAffinity>
-2.91051221

>  <minimizedRMSD>
0.390182495

$$$$
