
 OpenBabel03252508213D

 29 30  0  0  0  0  0  0  0  0999 V2000
   44.4260   33.8300   41.1280 C   0  0  0  0  0  0  0  0  0  0  0  0
   43.9380   34.6190   41.7730 H   0  0  0  0  0  0  0  0  0  0  0  0
   44.2250   32.8760   41.6210 H   0  0  0  0  0  0  0  0  0  0  0  0
   45.8370   34.2270   41.0420 C   0  0  0  0  0  0  0  0  0  0  0  0
   46.6790   33.8860   40.0170 C   0  0  0  0  0  0  0  0  0  0  0  0
   48.0170   34.2410   39.8970 C   0  0  0  0  0  0  0  0  0  0  0  0
   48.5000   35.0210   40.9530 C   0  0  0  0  0  0  0  0  0  0  0  0
   47.6770   35.3820   42.0020 C   0  0  0  0  0  0  0  0  0  0  0  0
   46.3670   35.0030   42.0660 C   0  0  0  0  0  0  0  0  0  0  0  0
   46.2900   33.2810   39.2070 H   0  0  0  0  0  0  0  0  0  0  0  0
   48.6410   33.9590   39.0890 H   0  0  0  0  0  0  0  0  0  0  0  0
   49.5480   35.3200   40.8960 H   0  0  0  0  0  0  0  0  0  0  0  0
   48.1750   35.9870   42.7540 H   0  0  0  0  0  0  0  0  0  0  0  0
   45.5440   35.4140   43.1980 C   0  0  0  0  0  3  0  0  0  0  0  0
   45.4920   34.7930   44.3640 C   0  0  0  0  0  3  0  0  0  0  0  0
   44.6350   35.2550   45.4850 C   0  0  0  0  0  2  0  0  0  0  0  0
   43.7720   34.5600   45.6050 H   0  0  0  0  0  0  0  0  0  0  0  0
   43.7270   33.9590   39.7770 C   0  0  0  0  0  0  0  0  0  0  0  0
   44.3490   34.6810   39.2040 H   0  0  0  0  0  0  0  0  0  0  0  0
   43.6450   32.9870   39.2870 H   0  0  0  0  0  0  0  0  0  0  0  0
   40.9290   35.9120   41.3790 C   0  0  0  0  0  0  0  0  0  0  0  0
   42.1970   35.3060   41.1930 C   0  0  0  0  0  0  0  0  0  0  0  0
   42.4200   34.6010   40.0000 C   0  0  0  0  0  0  0  0  0  0  0  0
   41.3850   34.5470   39.0910 N   0  0  0  0  0  0  0  0  0  0  0  0
   40.2150   35.1350   39.3200 C   0  0  0  0  0  0  0  0  0  0  0  0
   39.9660   35.8230   40.4560 N   0  0  0  0  0  0  0  0  0  0  0  0
   40.8220   36.4420   42.3220 H   0  0  0  0  0  0  0  0  0  0  0  0
   42.9580   35.4010   41.9690 H   0  0  0  0  0  0  0  0  0  0  0  0
   39.4790   35.0250   38.5320 H   0  0  0  0  0  0  0  0  0  0  0  0
  1  3  1  0  0  0  0
  1  2  1  0  0  0  0
  4  1  1  0  0  0  0
  4  9  1  0  0  0  0
  5  4  2  0  0  0  0
  6  5  1  0  0  0  0
  6  7  2  0  0  0  0
  7  8  1  0  0  0  0
  8  9  2  0  0  0  0
  8 13  1  0  0  0  0
  9 14  1  0  0  0  0
 10  5  1  0  0  0  0
 11  6  1  0  0  0  0
 12  7  1  0  0  0  0
 14 15  2  0  0  0  0
 15 16  1  0  0  0  0
 16 17  1  0  0  0  0
 18 23  1  0  0  0  0
 18  1  1  0  0  0  0
 19 18  1  0  0  0  0
 20 18  1  0  0  0  0
 21 27  1  0  0  0  0
 22 21  1  0  0  0  0
 22 28  1  0  0  0  0
 23 22  2  0  0  0  0
 24 25  2  0  0  0  0
 24 23  1  0  0  0  0
 25 26  1  0  0  0  0
 26 21  2  0  0  0  0
 29 25  1  0  0  0  0
M  END
>  <minimizedAffinity>
-5.30546331

>  <minimizedRMSD>
1.44599223

$$$$
