
 OpenBabel03252504003D

 29 31  0  0  0  0  0  0  0  0999 V2000
   46.1330   31.7200   45.1090 C   0  0  0  0  0  0  0  0  0  0  0  0
   45.8240   33.0170   45.4960 C   0  0  0  0  0  0  0  0  0  0  0  0
   45.5080   33.3060   46.8190 C   0  0  0  0  0  0  0  0  0  0  0  0
   45.5140   32.2630   47.7260 C   0  0  0  0  0  0  0  0  0  0  0  0
   45.2590   32.2150   49.0450 N   0  0  0  0  0  0  0  0  0  0  0  0
   45.3880   30.9650   49.5160 C   0  0  0  0  0  0  0  0  0  0  0  0
   45.7440   30.1420   48.4640 C   0  0  0  0  0  0  0  0  0  0  0  0
   45.8220   30.9510   47.3490 C   0  0  0  0  0  0  0  0  0  0  0  0
   46.1290   30.7010   46.0370 C   0  0  0  0  0  0  0  0  0  0  0  0
   46.3830   31.4570   44.0850 H   0  0  0  0  0  0  0  0  0  0  0  0
   45.2700   34.3180   47.1140 H   0  0  0  0  0  0  0  0  0  0  0  0
   44.9940   32.9990   49.6710 H   0  0  0  0  0  0  0  0  0  0  0  0
   45.2740   30.5130   50.4890 H   0  0  0  0  0  0  0  0  0  0  0  0
   45.9410   29.0890   48.4210 H   0  0  0  0  0  0  0  0  0  0  0  0
   46.3680   29.6880   45.7420 H   0  0  0  0  0  0  0  0  0  0  0  0
   46.9200   35.0210   42.6410 C   0  0  0  0  0  0  0  0  0  0  0  0
   45.9240   35.9920   42.5110 C   0  0  0  0  0  0  0  0  0  0  0  0
   44.8700   35.9510   43.4160 C   0  0  0  0  0  0  0  0  0  0  0  0
   44.8580   34.9830   44.3710 N   0  0  0  0  0  0  0  0  0  0  0  0
   45.8440   34.0590   44.4630 C   0  0  0  0  0  0  0  0  0  0  0  0
   46.8770   34.0740   43.6000 N   0  0  0  0  0  0  0  0  0  0  0  0
   45.9760   36.7450   41.7330 H   0  0  0  0  0  0  0  0  0  0  0  0
   44.0880   36.6950   43.3320 H   0  0  0  0  0  0  0  0  0  0  0  0
   47.9990   35.0970   41.6820 C   0  0  0  0  0  0  0  0  0  0  0  0
   48.9480   35.9380   41.7250 O   0  0  0  0  0  0  0  0  0  0  0  0
   48.0480   34.1600   40.5610 C   0  0  0  0  0  3  0  0  0  0  0  0
   48.8520   33.1170   40.6130 C   0  0  0  0  0  3  0  0  0  0  0  0
   48.9710   32.1150   39.5270 C   0  0  0  0  0  2  0  0  0  0  0  0
   48.4230   32.4960   38.6450 H   0  0  0  0  0  0  0  0  0  0  0  0
  1  2  2  0  0  0  0
  1  9  1  0  0  0  0
  2  3  1  0  0  0  0
  3 11  1  0  0  0  0
  3  4  2  0  0  0  0
  4  5  1  0  0  0  0
  5  6  1  0  0  0  0
  5 12  1  0  0  0  0
  6 13  1  0  0  0  0
  7  6  2  0  0  0  0
  8  4  1  0  0  0  0
  8  7  1  0  0  0  0
  9  8  2  0  0  0  0
 10  1  1  0  0  0  0
 14  7  1  0  0  0  0
 15  9  1  0  0  0  0
 16 21  1  0  0  0  0
 17 16  2  0  0  0  0
 17 18  1  0  0  0  0
 18 19  2  0  0  0  0
 19 20  1  0  0  0  0
 20  2  1  0  0  0  0
 21 20  2  0  0  0  0
 22 17  1  0  0  0  0
 23 18  1  0  0  0  0
 24 25  2  0  0  0  0
 24 16  1  0  0  0  0
 26 27  2  0  0  0  0
 26 24  1  0  0  0  0
 28 27  1  0  0  0  0
 29 28  1  0  0  0  0
M  END
>  <minimizedAffinity>
-5.56113195

>  <minimizedRMSD>
0.15840736

$$$$
