
 OpenBabel03242517373D

 28 29  0  0  0  0  0  0  0  0999 V2000
   41.9440   35.4810   39.5080 C   0  0  0  0  0  0  0  0  0  0  0  0
   42.6570   35.2960   38.6950 H   0  0  0  0  0  0  0  0  0  0  0  0
   41.7850   36.5800   39.6550 H   0  0  0  0  0  0  0  0  0  0  0  0
   40.6150   34.8570   39.2200 C   0  0  0  0  0  0  0  0  0  0  0  0
   40.2720   34.6450   37.8850 C   0  0  0  0  0  0  0  0  0  0  0  0
   39.0450   34.0680   37.5980 C   0  0  0  0  0  0  0  0  0  0  0  0
   38.1560   33.6980   38.6000 C   0  0  0  0  0  0  0  0  0  0  0  0
   38.5090   33.9120   39.9150 C   0  0  0  0  0  0  0  0  0  0  0  0
   39.7330   34.4890   40.2200 C   0  0  0  0  0  0  0  0  0  0  0  0
   40.9270   34.9170   37.0680 H   0  0  0  0  0  0  0  0  0  0  0  0
   38.7050   33.8720   36.5860 H   0  0  0  0  0  0  0  0  0  0  0  0
   37.1920   33.2470   38.4510 H   0  0  0  0  0  0  0  0  0  0  0  0
   37.9080   33.6690   40.7850 H   0  0  0  0  0  0  0  0  0  0  0  0
   40.0450   34.6730   41.2410 H   0  0  0  0  0  0  0  0  0  0  0  0
   43.6130   35.4320   41.3420 C   0  0  0  0  0  0  0  0  0  0  0  0
   42.4960   34.9840   40.8040 C   0  0  0  0  0  0  0  0  0  0  0  0
   44.2860   35.8280   43.7010 C   0  0  0  0  0  0  0  0  0  0  0  0
   44.1860   34.9770   42.5990 C   0  0  0  0  0  0  0  0  0  0  0  0
   44.6470   33.6830   42.7290 C   0  0  0  0  0  0  0  0  0  0  0  0
   45.1790   33.2860   43.9240 N   0  0  0  0  0  0  0  0  0  0  0  0
   45.2620   34.1320   44.9750 C   0  0  0  0  0  0  0  0  0  0  0  0
   44.8200   35.3870   44.8610 N   0  0  0  0  0  0  0  0  0  0  0  0
   43.9200   36.8440   43.5880 H   0  0  0  0  0  0  0  0  0  0  0  0
   44.6040   32.9640   41.9190 H   0  0  0  0  0  0  0  0  0  0  0  0
   45.8420   33.6630   46.2400 C   0  0  0  0  0  0  0  0  0  0  0  0
   46.7060   32.6440   46.2490 C   0  0  0  0  0  0  0  0  0  0  0  0
   47.2780   32.1880   47.5410 C   0  0  0  0  0  0  0  0  0  0  0  0
   48.0680   32.8940   47.9100 H   0  0  0  0  0  0  0  0  0  0  0  0
  1  3  1  0  0  0  0
  1 16  1  0  0  0  0
  2  1  1  0  0  0  0
  4  1  1  0  0  0  0
  4  9  1  0  0  0  0
  5  4  2  0  0  0  0
  6  5  1  0  0  0  0
  6  7  2  0  0  0  0
  7  8  1  0  0  0  0
  8  9  2  0  0  0  0
  8 13  1  0  0  0  0
  9 14  1  0  0  0  0
 10  5  1  0  0  0  0
 11  6  1  0  0  0  0
 12  7  1  0  0  0  0
 15 18  1  0  0  0  0
 16 15  2  0  0  0  0
 17 22  1  0  0  0  0
 18 19  1  0  0  0  0
 18 17  2  0  0  0  0
 19 20  2  0  0  0  0
 20 21  1  0  0  0  0
 21 25  1  0  0  0  0
 22 21  2  0  0  0  0
 23 17  1  0  0  0  0
 24 19  1  0  0  0  0
 25 26  2  0  0  0  0
 26 27  1  0  0  0  0
 27 28  1  0  0  0  0
M  END
>  <minimizedAffinity>
-5.97593117

>  <minimizedRMSD>
0.386158586

$$$$
