
 OpenBabel03252505073D

 38 40  0  0  1  0  0  0  0  0999 V2000
   44.6330   35.4600   44.7370 C   0  0  0  0  0  0  0  0  0  0  0  0
   45.2740   35.5120   43.4760 C   0  0  0  0  0  0  0  0  0  0  0  0
   46.3610   34.6120   43.2580 C   0  0  0  0  0  0  0  0  0  0  0  0
   46.7250   33.7630   44.2500 N   0  0  0  0  0  0  0  0  0  0  0  0
   46.0840   33.7530   45.4290 C   0  0  0  0  0  0  0  0  0  0  0  0
   45.0370   34.5950   45.6880 N   0  0  0  0  0  0  0  0  0  0  0  0
   43.8100   36.1260   44.9340 H   0  0  0  0  0  0  0  0  0  0  0  0
   44.9480   36.2090   42.7130 H   0  0  0  0  0  0  0  0  0  0  0  0
   46.5310   32.8000   46.4810 C   0  0  2  0  0  0  0  0  0  0  0  0
   47.0390   31.5940   45.7420 C   0  0  0  0  0  0  0  0  0  0  0  0
   46.1710   30.4050   45.7440 C   0  0  0  0  0  0  0  0  0  0  0  0
   45.9100   30.1040   47.2220 C   0  0  0  0  0  0  0  0  0  0  0  0
   45.1350   31.1530   47.8790 C   0  0  0  0  0  0  0  0  0  0  0  0
   45.4970   32.5420   47.4560 C   0  0  0  0  0  0  0  0  0  0  0  0
   47.3860   33.3110   46.9830 H   0  0  0  0  0  0  0  0  0  0  0  0
   48.0100   31.2990   46.2110 H   0  0  0  0  0  0  0  0  0  0  0  0
   47.3150   31.8260   44.6860 H   0  0  0  0  0  0  0  0  0  0  0  0
   46.7350   29.5490   45.3690 H   0  0  0  0  0  0  0  0  0  0  0  0
   45.2400   30.4900   45.1620 H   0  0  0  0  0  0  0  0  0  0  0  0
   46.8620   29.8390   47.6800 H   0  0  0  0  0  0  0  0  0  0  0  0
   45.2420   29.2110   47.1980 H   0  0  0  0  0  0  0  0  0  0  0  0
   44.3600   31.1310   48.6000 H   0  0  0  0  0  0  0  0  0  0  0  0
   44.8170   33.6750   48.0130 N   0  0  0  0  0  0  0  0  0  0  0  0
   43.7980   33.8040   47.8180 H   0  0  0  0  0  0  0  0  0  0  0  0
   45.3920   34.3030   48.5840 H   0  0  0  0  0  0  0  0  0  0  0  0
   47.0370   34.6410   41.9690 C   0  0  0  0  0  0  0  0  0  0  0  0
   48.1610   35.3940   41.8430 C   0  0  0  0  0  0  0  0  0  0  0  0
   48.7760   35.3890   40.5790 C   0  0  0  0  0  0  0  0  0  0  0  0
   48.1780   34.6260   39.6020 C   0  0  0  0  0  0  0  0  0  0  0  0
   47.0500   33.8720   39.7270 C   0  0  0  0  0  0  0  0  0  0  0  0
   46.4930   33.9110   40.9760 N   0  0  0  0  0  0  0  0  0  0  0  0
   48.6140   35.9860   42.6280 H   0  0  0  0  0  0  0  0  0  0  0  0
   49.6720   35.9640   40.4050 H   0  0  0  0  0  0  0  0  0  0  0  0
   48.6740   34.6420   38.6350 H   0  0  0  0  0  0  0  0  0  0  0  0
   46.4370   33.0810   38.7010 C   0  0  0  0  0  3  0  0  0  0  0  0
   46.6800   33.3130   37.4220 C   0  0  0  0  0  3  0  0  0  0  0  0
   46.1070   32.5650   36.3000 C   0  0  0  0  0  2  0  0  0  0  0  0
   45.0760   32.1620   36.5210 H   0  0  0  0  0  0  0  0  0  0  0  0
  1  7  1  0  0  0  0
  1  6  1  0  0  0  0
  2  1  2  0  0  0  0
  3  2  1  0  0  0  0
  3  4  2  0  0  0  0
  4  5  1  0  0  0  0
  5  6  2  0  0  0  0
  5  9  1  0  0  0  0
  8  2  1  0  0  0  0
  9 15  1  1  0  0  0
  9 14  1  0  0  0  0
 10 11  1  0  0  0  0
 10 16  1  0  0  0  0
 10  9  1  0  0  0  0
 11 12  1  0  0  0  0
 12 20  1  0  0  0  0
 12 13  1  0  0  0  0
 13 22  1  0  0  0  0
 14 13  2  0  0  0  0
 14 23  1  0  0  0  0
 17 10  1  0  0  0  0
 18 11  1  0  0  0  0
 19 11  1  0  0  0  0
 21 12  1  0  0  0  0
 23 25  1  0  0  0  0
 24 23  1  0  0  0  0
 26  3  1  0  0  0  0
 27 26  1  0  0  0  0
 27 32  1  0  0  0  0
 28 27  2  0  0  0  0
 29 30  2  0  0  0  0
 29 28  1  0  0  0  0
 30 31  1  0  0  0  0
 31 26  2  0  0  0  0
 33 28  1  0  0  0  0
 34 29  1  0  0  0  0
 35 30  1  0  0  0  0
 36 35  2  0  0  0  0
 37 38  1  0  0  0  0
 37 36  1  0  0  0  0
M  END
>  <minimizedAffinity>
-7.02465534

>  <minimizedRMSD>
0.575626969

$$$$
