
 OpenBabel03252501543D

 16 16  0  0  0  0  0  0  0  0999 V2000
   44.9610   34.8290   44.8910 C   0  0  0  0  0  0  0  0  0  0  0  0
   45.5500   35.2080   43.6920 C   0  0  0  0  0  0  0  0  0  0  0  0
   46.6930   34.5400   43.2790 C   0  0  0  0  0  0  0  0  0  0  0  0
   47.1990   33.5430   44.0510 N   0  0  0  0  0  0  0  0  0  0  0  0
   46.5910   33.1990   45.2200 C   0  0  0  0  0  0  0  0  0  0  0  0
   45.4810   33.8390   45.6350 N   0  0  0  0  0  0  0  0  0  0  0  0
   44.0780   35.2590   45.3260 H   0  0  0  0  0  0  0  0  0  0  0  0
   47.1260   32.3950   45.6950 H   0  0  0  0  0  0  0  0  0  0  0  0
   44.9230   36.3030   42.9300 C   0  0  0  0  0  0  0  0  0  0  0  0
   44.3970   35.9290   42.0300 H   0  0  0  0  0  0  0  0  0  0  0  0
   45.7540   36.9620   42.5410 H   0  0  0  0  0  0  0  0  0  0  0  0
   44.3220   36.9280   43.5950 H   0  0  0  0  0  0  0  0  0  0  0  0
   47.3330   34.9170   42.0250 C   0  0  0  0  0  3  0  0  0  0  0  0
   47.3720   34.0560   41.0220 C   0  0  0  0  0  3  0  0  0  0  0  0
   48.0290   34.4480   39.7370 C   0  0  0  0  0  2  0  0  0  0  0  0
   48.2980   33.5460   39.1410 H   0  0  0  0  0  0  0  0  0  0  0  0
  1  7  1  0  0  0  0
  1  6  1  0  0  0  0
  2  1  2  0  0  0  0
  3  2  1  0  0  0  0
  3  4  2  0  0  0  0
  4  5  1  0  0  0  0
  5  6  2  0  0  0  0
  5  8  1  0  0  0  0
  9 12  1  0  0  0  0
  9  2  1  0  0  0  0
 10  9  1  0  0  0  0
 11  9  1  0  0  0  0
 13  3  1  0  0  0  0
 14 13  2  0  0  0  0
 15 14  1  0  0  0  0
 16 15  1  0  0  0  0
M  END
>  <minimizedAffinity>
-3.7048912

>  <minimizedRMSD>
1.94695854

$$$$
