
 OpenBabel03242510293D

 29 30  0  0  1  0  0  0  0  0999 V2000
   47.0150   34.1180   41.7690 C   0  0  1  0  0  0  0  0  0  0  0  0
   46.1610   33.7380   40.5950 C   0  0  0  0  0  0  0  0  0  0  0  0
   47.1440   33.1260   39.5940 C   0  0  0  0  0  0  0  0  0  0  0  0
   47.9390   34.3020   39.0410 C   0  0  0  0  0  0  0  0  0  0  0  0
   48.6640   35.0450   40.1040 C   0  0  0  0  0  0  0  0  0  0  0  0
   47.9650   35.2370   41.3920 C   0  0  2  0  0  0  0  0  0  0  0  0
   47.6380   33.2450   42.0330 H   0  0  0  0  0  0  0  0  0  0  0  0
   45.3470   33.0680   40.8710 H   0  0  0  0  0  0  0  0  0  0  0  0
   45.7580   34.6510   40.0700 H   0  0  0  0  0  0  0  0  0  0  0  0
   46.6550   32.5850   38.7890 H   0  0  0  0  0  0  0  0  0  0  0  0
   47.8860   32.5060   40.1690 H   0  0  0  0  0  0  0  0  0  0  0  0
   47.1840   34.9900   38.5750 H   0  0  0  0  0  0  0  0  0  0  0  0
   48.6590   33.9170   38.3090 H   0  0  0  0  0  0  0  0  0  0  0  0
   49.6520   34.5610   40.2540 H   0  0  0  0  0  0  0  0  0  0  0  0
   48.8930   36.0560   39.6900 H   0  0  0  0  0  0  0  0  0  0  0  0
   47.3880   36.1790   41.4630 H   0  0  0  0  0  0  0  0  0  0  0  0
   44.7460   35.9930   44.1560 C   0  0  0  0  0  0  0  0  0  0  0  0
   45.4410   35.7110   42.9720 C   0  0  0  0  0  0  0  0  0  0  0  0
   46.2240   34.5400   42.9400 C   0  0  0  0  0  0  0  0  0  0  0  0
   46.2350   33.7830   44.0690 N   0  0  0  0  0  0  0  0  0  0  0  0
   45.5620   34.0760   45.1840 C   0  0  0  0  0  0  0  0  0  0  0  0
   44.8150   35.1810   45.2340 N   0  0  0  0  0  0  0  0  0  0  0  0
   44.1540   36.8890   44.1640 H   0  0  0  0  0  0  0  0  0  0  0  0
   45.4230   36.3130   42.0970 H   0  0  0  0  0  0  0  0  0  0  0  0
   45.6870   33.3570   45.9900 H   0  0  0  0  0  0  0  0  0  0  0  0
   49.0010   35.2800   42.4640 C   0  0  0  0  0  3  0  0  0  0  0  0
   49.9130   34.3480   42.7070 C   0  0  0  0  0  3  0  0  0  0  0  0
   49.9190   33.1520   41.8510 C   0  0  0  0  0  2  0  0  0  0  0  0
   50.6170   32.4160   42.3320 H   0  0  0  0  0  0  0  0  0  0  0  0
  1  7  1  1  0  0  0
  1 19  1  0  0  0  0
  2  8  1  0  0  0  0
  2  1  1  0  0  0  0
  3 11  1  0  0  0  0
  3  2  1  0  0  0  0
  4  3  1  0  0  0  0
  4  5  1  0  0  0  0
  5 14  1  0  0  0  0
  5  6  1  0  0  0  0
  6 16  1  6  0  0  0
  6  1  1  0  0  0  0
  6 26  1  0  0  0  0
  9  2  1  0  0  0  0
 10  3  1  0  0  0  0
 12  4  1  0  0  0  0
 13  4  1  0  0  0  0
 15  5  1  0  0  0  0
 17 23  1  0  0  0  0
 17 22  1  0  0  0  0
 18 17  2  0  0  0  0
 19 18  1  0  0  0  0
 19 20  2  0  0  0  0
 20 21  1  0  0  0  0
 21 22  2  0  0  0  0
 21 25  1  0  0  0  0
 24 18  1  0  0  0  0
 26 27  2  0  0  0  0
 28 29  1  0  0  0  0
 28 27  1  0  0  0  0
M  END
>  <minimizedAffinity>
-5.19139624

>  <minimizedRMSD>
0.64361614

$$$$
