
 OpenBabel03242511423D

 29 30  0  0  0  0  0  0  0  0999 V2000
   46.8860   32.7700   46.1470 C   0  0  0  0  0  0  0  0  0  0  0  0
   46.9550   33.7990   46.5170 H   0  0  0  0  0  0  0  0  0  0  0  0
   47.9390   32.3750   46.0250 H   0  0  0  0  0  0  0  0  0  0  0  0
   46.2670   31.9360   47.1730 C   0  0  0  0  0  0  0  0  0  0  0  0
   45.3160   32.2670   48.1270 C   0  0  0  0  0  0  0  0  0  0  0  0
   44.7590   31.3870   49.0190 C   0  0  0  0  0  0  0  0  0  0  0  0
   45.1760   30.0870   48.9580 C   0  0  0  0  0  0  0  0  0  0  0  0
   46.1280   29.7300   48.0130 C   0  0  0  0  0  0  0  0  0  0  0  0
   46.6780   30.6510   47.1230 C   0  0  0  0  0  0  0  0  0  0  0  0
   45.0600   33.3240   48.0820 H   0  0  0  0  0  0  0  0  0  0  0  0
   44.0420   31.8580   49.6740 H   0  0  0  0  0  0  0  0  0  0  0  0
   44.6540   29.4870   49.7190 H   0  0  0  0  0  0  0  0  0  0  0  0
   46.2690   28.6590   48.1880 H   0  0  0  0  0  0  0  0  0  0  0  0
   47.7090   29.8750   46.4510 C   0  0  0  0  0  3  0  0  0  0  0  0
   48.9020   29.4520   46.8050 C   0  0  0  0  0  3  0  0  0  0  0  0
   49.9140   28.6780   46.1150 C   0  0  0  0  0  2  0  0  0  0  0  0
   49.5240   28.4270   45.0890 H   0  0  0  0  0  0  0  0  0  0  0  0
   46.2420   32.6320   44.8100 C   0  0  0  0  0  0  0  0  0  0  0  0
   45.2810   32.0960   44.9170 H   0  0  0  0  0  0  0  0  0  0  0  0
   46.9250   32.2820   44.0170 H   0  0  0  0  0  0  0  0  0  0  0  0
   44.5420   35.9170   44.7640 C   0  0  0  0  0  0  0  0  0  0  0  0
   44.9310   36.4330   43.5020 C   0  0  0  0  0  0  0  0  0  0  0  0
   45.7630   35.6410   42.7370 C   0  0  0  0  0  0  0  0  0  0  0  0
   46.1560   34.4530   43.2050 N   0  0  0  0  0  0  0  0  0  0  0  0
   45.7520   34.0060   44.4240 C   0  0  0  0  0  0  0  0  0  0  0  0
   44.9610   34.7170   45.1950 N   0  0  0  0  0  0  0  0  0  0  0  0
   43.8790   36.5800   45.3410 H   0  0  0  0  0  0  0  0  0  0  0  0
   44.5860   37.4080   43.1600 H   0  0  0  0  0  0  0  0  0  0  0  0
   46.1020   35.9720   41.7610 H   0  0  0  0  0  0  0  0  0  0  0  0
  1  2  1  0  0  0  0
  1  4  1  0  0  0  0
  3  1  1  0  0  0  0
  4  5  1  0  0  0  0
  5  6  2  0  0  0  0
  6 11  1  0  0  0  0
  7  6  1  0  0  0  0
  7 12  1  0  0  0  0
  8 13  1  0  0  0  0
  8  7  2  0  0  0  0
  9  4  2  0  0  0  0
  9  8  1  0  0  0  0
 10  5  1  0  0  0  0
 14 15  2  0  0  0  0
 14  9  1  0  0  0  0
 16 15  1  0  0  0  0
 17 16  1  0  0  0  0
 18 19  1  0  0  0  0
 18  1  1  0  0  0  0
 20 18  1  0  0  0  0
 21 26  1  0  0  0  0
 21 27  1  0  0  0  0
 22 21  2  0  0  0  0
 23 24  2  0  0  0  0
 23 22  1  0  0  0  0
 24 25  1  0  0  0  0
 25 18  1  0  0  0  0
 25 26  2  0  0  0  0
 28 22  1  0  0  0  0
 29 23  1  0  0  0  0
M  END
>  <minimizedAffinity>
-4.65643215

>  <minimizedRMSD>
1.18114161

$$$$
