
 OpenBabel03252505563D

 31 32  0  0  0  0  0  0  0  0999 V2000
   45.8730   32.6820   47.5690 O   0  0  0  0  0  0  0  0  0  0  0  0
   45.0220   34.8690   44.9050 C   0  0  0  0  0  0  0  0  0  0  0  0
   45.9570   34.5600   43.8980 C   0  0  0  0  0  0  0  0  0  0  0  0
   46.8820   33.5610   44.2030 C   0  0  0  0  0  0  0  0  0  0  0  0
   46.8340   32.9670   45.4060 N   0  0  0  0  0  0  0  0  0  0  0  0
   45.9270   33.2940   46.3310 C   0  0  0  0  0  0  0  0  0  0  0  0
   45.0260   34.2370   46.0860 N   0  0  0  0  0  0  0  0  0  0  0  0
   44.2870   35.6550   44.6780 H   0  0  0  0  0  0  0  0  0  0  0  0
   45.9090   35.2930   42.6080 C   0  0  0  0  0  0  0  0  0  0  0  0
   45.0550   36.3660   42.8610 F   0  0  0  0  0  0  0  0  0  0  0  0
   45.2930   34.4480   41.6970 F   0  0  0  0  0  0  0  0  0  0  0  0
   47.1430   35.6960   42.2680 F   0  0  0  0  0  0  0  0  0  0  0  0
   47.8680   33.1240   43.2570 C   0  0  0  0  0  3  0  0  0  0  0  0
   47.6390   32.0690   42.4570 C   0  0  0  0  0  3  0  0  0  0  0  0
   46.3570   31.2940   42.5020 C   0  0  0  0  0  2  0  0  0  0  0  0
   46.2030   30.7830   43.4780 H   0  0  0  0  0  0  0  0  0  0  0  0
   45.3950   31.3600   47.7070 C   0  0  0  0  0  0  0  0  0  0  0  0
   44.8460   31.3290   48.6700 H   0  0  0  0  0  0  0  0  0  0  0  0
   44.6810   31.0640   46.9210 H   0  0  0  0  0  0  0  0  0  0  0  0
   46.5670   30.4720   47.8230 C   0  0  0  0  0  0  0  0  0  0  0  0
   46.7960   29.2010   47.3230 C   0  0  0  0  0  0  0  0  0  0  0  0
   47.9890   28.6190   47.5880 C   0  0  0  0  0  0  0  0  0  0  0  0
   48.9410   29.2040   48.3000 N   0  0  0  0  0  0  0  0  0  0  0  0
   48.7170   30.4380   48.7840 C   0  0  0  0  0  0  0  0  0  0  0  0
   47.5330   31.0970   48.5590 N   0  0  0  0  0  0  0  0  0  0  0  0
   45.9640   28.8420   46.7730 H   0  0  0  0  0  0  0  0  0  0  0  0
   48.1310   27.6270   47.1810 H   0  0  0  0  0  0  0  0  0  0  0  0
   49.8340   31.0300   49.5740 C   0  0  0  0  0  0  0  0  0  0  0  0
   49.8260   32.3940   49.5080 F   0  0  0  0  0  0  0  0  0  0  0  0
   51.0580   30.5490   49.0880 F   0  0  0  0  0  0  0  0  0  0  0  0
   49.7520   30.6740   50.9130 F   0  0  0  0  0  0  0  0  0  0  0  0
  1 17  1  0  0  0  0
  2  7  1  0  0  0  0
  3  4  1  0  0  0  0
  3  2  2  0  0  0  0
  4  5  2  0  0  0  0
  5  6  1  0  0  0  0
  6  1  1  0  0  0  0
  7  6  2  0  0  0  0
  8  2  1  0  0  0  0
  9 10  1  0  0  0  0
  9  3  1  0  0  0  0
 11  9  1  0  0  0  0
 12  9  1  0  0  0  0
 13  4  1  0  0  0  0
 14 15  1  0  0  0  0
 14 13  2  0  0  0  0
 15 16  1  0  0  0  0
 17 20  1  0  0  0  0
 17 18  1  0  0  0  0
 19 17  1  0  0  0  0
 20 25  1  0  0  0  0
 21 22  1  0  0  0  0
 21 20  2  0  0  0  0
 22 23  2  0  0  0  0
 23 24  1  0  0  0  0
 24 28  1  0  0  0  0
 25 24  2  0  0  0  0
 26 21  1  0  0  0  0
 27 22  1  0  0  0  0
 28 31  1  0  0  0  0
 29 28  1  0  0  0  0
 30 28  1  0  0  0  0
M  END
>  <minimizedAffinity>
-5.5317502

>  <minimizedRMSD>
0.355408937

$$$$
