
 OpenBabel03242511533D

 29 30  0  0  1  0  0  0  0  0999 V2000
   46.2420   34.0950   43.7300 C   0  0  2  0  0  0  0  0  0  0  0  0
   44.8560   34.4260   43.3390 C   0  0  0  0  0  0  0  0  0  0  0  0
   44.4750   33.9350   41.9850 C   0  0  0  0  0  0  0  0  0  0  0  0
   45.4280   34.3790   40.8950 C   0  0  0  0  0  0  0  0  0  0  0  0
   46.8750   34.3430   41.3150 C   0  0  0  0  0  0  0  0  0  0  0  0
   47.0630   33.5350   42.5820 C   0  0  1  0  0  0  0  0  0  0  0  0
   46.8370   34.9880   44.0800 H   0  0  0  0  0  0  0  0  0  0  0  0
   44.0880   34.1250   44.0540 H   0  0  0  0  0  0  0  0  0  0  0  0
   44.7970   35.5540   43.2870 H   0  0  0  0  0  0  0  0  0  0  0  0
   44.2400   32.8820   41.8780 H   0  0  0  0  0  0  0  0  0  0  0  0
   43.5060   34.4640   41.7320 H   0  0  0  0  0  0  0  0  0  0  0  0
   45.2660   33.6930   40.0380 H   0  0  0  0  0  0  0  0  0  0  0  0
   45.1570   35.4030   40.5100 H   0  0  0  0  0  0  0  0  0  0  0  0
   47.2360   35.3650   41.4580 H   0  0  0  0  0  0  0  0  0  0  0  0
   47.4800   33.8570   40.5380 H   0  0  0  0  0  0  0  0  0  0  0  0
   46.8230   32.4810   42.3760 H   0  0  0  0  0  0  0  0  0  0  0  0
   46.2930   33.1120   44.8300 C   0  0  0  0  0  0  0  0  0  0  0  0
   45.9900   31.7790   44.4880 C   0  0  0  0  0  0  0  0  0  0  0  0
   46.0200   30.7910   45.4680 C   0  0  0  0  0  0  0  0  0  0  0  0
   46.3470   31.1780   46.7300 N   0  0  0  0  0  0  0  0  0  0  0  0
   46.6340   32.4690   47.0340 C   0  0  0  0  0  0  0  0  0  0  0  0
   46.6070   33.4340   46.0860 N   0  0  0  0  0  0  0  0  0  0  0  0
   45.7230   31.3890   43.5180 H   0  0  0  0  0  0  0  0  0  0  0  0
   45.7990   29.7480   45.2820 H   0  0  0  0  0  0  0  0  0  0  0  0
   46.8760   32.6310   48.0770 H   0  0  0  0  0  0  0  0  0  0  0  0
   48.4970   33.6620   42.9460 C   0  0  0  0  0  0  0  0  0  0  0  0
   49.3000   34.6470   42.5700 C   0  0  0  0  0  0  0  0  0  0  0  0
   49.0870   35.8560   41.7360 C   0  0  0  0  0  0  0  0  0  0  0  0
   49.3870   36.7900   42.2570 H   0  0  0  0  0  0  0  0  0  0  0  0
  1  7  1  1  0  0  0
  1 17  1  0  0  0  0
  2  1  1  0  0  0  0
  2  8  1  0  0  0  0
  3  2  1  0  0  0  0
  4  5  1  0  0  0  0
  4  3  1  0  0  0  0
  5 14  1  0  0  0  0
  5  6  1  0  0  0  0
  6 16  1  6  0  0  0
  6 26  1  0  0  0  0
  6  1  1  0  0  0  0
  9  2  1  0  0  0  0
 10  3  1  0  0  0  0
 11  3  1  0  0  0  0
 12  4  1  0  0  0  0
 13  4  1  0  0  0  0
 15  5  1  0  0  0  0
 17 22  1  0  0  0  0
 18 17  2  0  0  0  0
 18 19  1  0  0  0  0
 19 20  2  0  0  0  0
 20 21  1  0  0  0  0
 21 25  1  0  0  0  0
 22 21  2  0  0  0  0
 23 18  1  0  0  0  0
 24 19  1  0  0  0  0
 27 26  2  0  0  0  0
 28 29  1  0  0  0  0
 28 27  1  0  0  0  0
M  END
>  <minimizedAffinity>
-4.47287416

>  <minimizedRMSD>
4.08961487

$$$$
