
 OpenBabel03242521393D

 16 16  0  0  0  0  0  0  0  0999 V2000
   45.4170   35.2500   43.6040 C   0  0  0  0  0  0  0  0  0  0  0  0
   46.5700   34.7580   42.9880 C   0  0  0  0  0  0  0  0  0  0  0  0
   47.2720   33.7460   43.6610 C   0  0  0  0  0  0  0  0  0  0  0  0
   46.7950   33.3170   44.8480 N   0  0  0  0  0  0  0  0  0  0  0  0
   45.6740   33.8220   45.4070 C   0  0  0  0  0  0  0  0  0  0  0  0
   44.9810   34.7990   44.7740 N   0  0  0  0  0  0  0  0  0  0  0  0
   46.9400   35.1150   42.0320 H   0  0  0  0  0  0  0  0  0  0  0  0
   45.3500   33.4280   46.3620 H   0  0  0  0  0  0  0  0  0  0  0  0
   44.6740   36.3330   42.8720 C   0  0  0  0  0  0  0  0  0  0  0  0
   44.6000   36.1400   41.7900 H   0  0  0  0  0  0  0  0  0  0  0  0
   43.6380   36.3970   43.2870 H   0  0  0  0  0  0  0  0  0  0  0  0
   45.1370   37.3290   43.0720 H   0  0  0  0  0  0  0  0  0  0  0  0
   48.4880   33.1600   43.1110 C   0  0  0  0  0  0  0  0  0  0  0  0
   49.5050   33.9390   42.7730 C   0  0  0  0  0  0  0  0  0  0  0  0
   50.7490   33.3590   42.2140 C   0  0  0  0  0  0  0  0  0  0  0  0
   51.4030   34.1650   41.8350 H   0  0  0  0  0  0  0  0  0  0  0  0
  1  6  1  0  0  0  0
  2  1  2  0  0  0  0
  2  3  1  0  0  0  0
  3  4  2  0  0  0  0
  4  5  1  0  0  0  0
  5  8  1  0  0  0  0
  6  5  2  0  0  0  0
  7  2  1  0  0  0  0
  9 12  1  0  0  0  0
  9 11  1  0  0  0  0
  9  1  1  0  0  0  0
 10  9  1  0  0  0  0
 13  3  1  0  0  0  0
 14 13  2  0  0  0  0
 15 14  1  0  0  0  0
 16 15  1  0  0  0  0
M  END
>  <minimizedAffinity>
-3.52215624

>  <minimizedRMSD>
1.33750927

$$$$
