
 OpenBabel03252508413D

 23 24  0  0  0  0  0  0  0  0999 V2000
   46.3520   33.4120   39.3290 C   0  0  0  0  0  0  0  0  0  0  0  0
   47.6350   33.8870   39.2740 C   0  0  0  0  0  0  0  0  0  0  0  0
   48.3020   33.9780   38.0730 C   0  0  0  0  0  0  0  0  0  0  0  0
   47.6490   33.5820   36.9300 C   0  0  0  0  0  0  0  0  0  0  0  0
   46.3590   33.0970   36.9250 C   0  0  0  0  0  0  0  0  0  0  0  0
   45.7560   33.0370   38.1760 C   0  0  0  0  0  0  0  0  0  0  0  0
   49.2930   34.3310   37.9370 H   0  0  0  0  0  0  0  0  0  0  0  0
   48.1330   33.6340   35.9530 H   0  0  0  0  0  0  0  0  0  0  0  0
   45.8470   32.7850   36.0150 H   0  0  0  0  0  0  0  0  0  0  0  0
   44.7400   32.6640   38.2310 H   0  0  0  0  0  0  0  0  0  0  0  0
   44.4510   34.2730   42.4850 C   0  0  0  0  0  0  0  0  0  0  0  0
   45.0290   34.4290   41.2040 C   0  0  0  0  0  0  0  0  0  0  0  0
   45.7240   33.3500   40.6370 C   0  0  0  0  0  0  0  0  0  0  0  0
   45.7940   32.2200   41.3610 N   0  0  0  0  0  0  0  0  0  0  0  0
   45.2400   32.0800   42.5820 C   0  0  0  0  0  0  0  0  0  0  0  0
   44.5680   33.1050   43.1440 N   0  0  0  0  0  0  0  0  0  0  0  0
   43.9430   35.1550   42.8290 H   0  0  0  0  0  0  0  0  0  0  0  0
   44.9760   35.3340   40.6180 H   0  0  0  0  0  0  0  0  0  0  0  0
   45.3340   31.1330   43.1180 H   0  0  0  0  0  0  0  0  0  0  0  0
   48.3280   34.3070   40.4890 C   0  0  0  0  0  3  0  0  0  0  0  0
   48.7270   35.5380   40.7670 C   0  0  0  0  0  3  0  0  0  0  0  0
   49.4260   35.9190   42.0110 C   0  0  0  0  0  2  0  0  0  0  0  0
   50.5170   36.0250   41.8630 H   0  0  0  0  0  0  0  0  0  0  0  0
  1 13  1  0  0  0  0
  2  1  1  0  0  0  0
  2 20  1  0  0  0  0
  3  2  2  0  0  0  0
  4  3  1  0  0  0  0
  5  4  2  0  0  0  0
  5  6  1  0  0  0  0
  6 10  1  0  0  0  0
  6  1  2  0  0  0  0
  7  3  1  0  0  0  0
  8  4  1  0  0  0  0
  9  5  1  0  0  0  0
 11 17  1  0  0  0  0
 11 16  1  0  0  0  0
 12 11  2  0  0  0  0
 13 12  1  0  0  0  0
 13 14  2  0  0  0  0
 14 15  1  0  0  0  0
 15 19  1  0  0  0  0
 15 16  2  0  0  0  0
 18 12  1  0  0  0  0
 20 21  2  0  0  0  0
 21 22  1  0  0  0  0
 23 22  1  0  0  0  0
M  END
>  <minimizedAffinity>
-4.07884836

>  <minimizedRMSD>
3.02997112

$$$$
