
 OpenBabel03242510233D

 33 35  0  0  1  0  0  0  0  0999 V2000
   48.0540   33.2530   43.2300 N   0  0  0  0  0  0  0  0  0  0  0  0
   49.2130   33.2970   42.4660 C   0  0  0  0  0  0  0  0  0  0  0  0
   50.3790   32.8980   42.7200 O   0  0  0  0  0  0  0  0  0  0  0  0
   47.5130   34.1590   43.1550 H   0  0  0  0  0  0  0  0  0  0  0  0
   46.2990   32.1280   44.5530 C   0  0  1  0  0  0  0  0  0  0  0  0
   46.4570   31.3610   43.3930 C   0  0  0  0  0  0  0  0  0  0  0  0
   47.6730   32.1260   44.0030 C   0  0  1  0  0  0  0  0  0  0  0  0
   46.1330   31.6860   45.5570 H   0  0  0  0  0  0  0  0  0  0  0  0
   46.2160   31.6020   42.3420 H   0  0  0  0  0  0  0  0  0  0  0  0
   46.5540   30.2410   43.5040 H   0  0  0  0  0  0  0  0  0  0  0  0
   48.4600   31.4480   44.3700 H   0  0  0  0  0  0  0  0  0  0  0  0
   45.0520   33.9630   43.1870 C   0  0  0  0  0  0  0  0  0  0  0  0
   45.5380   33.4590   44.4380 C   0  0  0  0  0  0  0  0  0  0  0  0
   45.3270   34.2320   45.5680 C   0  0  0  0  0  0  0  0  0  0  0  0
   44.6810   35.4110   45.4410 N   0  0  0  0  0  0  0  0  0  0  0  0
   44.2250   35.8780   44.2390 C   0  0  0  0  0  0  0  0  0  0  0  0
   44.4230   35.1210   43.0880 N   0  0  0  0  0  0  0  0  0  0  0  0
   45.2070   33.3520   42.3440 H   0  0  0  0  0  0  0  0  0  0  0  0
   45.6720   33.9020   46.5400 H   0  0  0  0  0  0  0  0  0  0  0  0
   43.7100   36.8230   44.1430 H   0  0  0  0  0  0  0  0  0  0  0  0
   49.1620   33.9070   41.0740 C   0  0  2  0  0  0  0  0  0  0  0  0
   48.7030   35.4070   40.9870 C   0  0  0  0  0  0  0  0  0  0  0  0
   47.8910   34.2750   40.4520 C   0  0  1  0  0  0  0  0  0  0  0  0
   50.0520   33.7690   40.4280 H   0  0  0  0  0  0  0  0  0  0  0  0
   49.1860   36.0540   40.2620 H   0  0  0  0  0  0  0  0  0  0  0  0
   48.3440   35.8240   41.9610 H   0  0  0  0  0  0  0  0  0  0  0  0
   47.0200   33.8190   40.9770 H   0  0  0  0  0  0  0  0  0  0  0  0
   47.7880   34.1290   38.9490 C   0  0  0  0  0  0  0  0  0  0  0  0
   48.5280   34.7800   38.2200 O   0  0  0  0  0  0  0  0  0  0  0  0
   46.8160   33.2210   38.3400 C   0  0  0  0  0  0  0  0  0  0  0  0
   46.5900   33.3430   37.0650 C   0  0  0  0  0  0  0  0  0  0  0  0
   45.6040   32.4370   36.3940 C   0  0  0  0  0  0  0  0  0  0  0  0
   46.1070   31.6420   35.8240 H   0  0  0  0  0  0  0  0  0  0  0  0
  1  7  1  0  0  0  0
  2  3  2  0  0  0  0
  2  1  1  0  0  0  0
  4  1  1  0  0  0  0
  5  8  1  1  0  0  0
  6 10  1  0  0  0  0
  6  7  1  0  0  0  0
  6  5  1  0  0  0  0
  7 11  1  1  0  0  0
  7  5  1  0  0  0  0
  9  6  1  0  0  0  0
 12 13  1  0  0  0  0
 13  5  1  0  0  0  0
 13 14  2  0  0  0  0
 14 19  1  0  0  0  0
 15 14  1  0  0  0  0
 16 15  2  0  0  0  0
 17 12  2  0  0  0  0
 17 16  1  0  0  0  0
 18 12  1  0  0  0  0
 20 16  1  0  0  0  0
 21 24  1  6  0  0  0
 21  2  1  0  0  0  0
 22 21  1  0  0  0  0
 22 26  1  0  0  0  0
 23 27  1  1  0  0  0
 23 22  1  0  0  0  0
 23 21  1  0  0  0  0
 25 22  1  0  0  0  0
 28 23  1  0  0  0  0
 29 28  2  0  0  0  0
 30 28  1  0  0  0  0
 31 30  2  0  0  0  0
 32 31  1  0  0  0  0
 33 32  1  0  0  0  0
M  END
>  <minimizedAffinity>
-4.6296196

>  <minimizedRMSD>
0.087310873

$$$$
