
 OpenBabel03252503093D

 22 23  0  0  0  0  0  0  0  0999 V2000
   45.1720   36.1720   43.4500 C   0  0  0  0  0  0  0  0  0  0  0  0
   45.8280   34.9810   43.0800 C   0  0  0  0  0  0  0  0  0  0  0  0
   45.8310   33.9880   44.0520 C   0  0  0  0  0  0  0  0  0  0  0  0
   45.2500   34.1510   45.2590 N   0  0  0  0  0  0  0  0  0  0  0  0
   44.6280   35.3260   45.5680 C   0  0  0  0  0  0  0  0  0  0  0  0
   44.5940   36.3290   44.6590 N   0  0  0  0  0  0  0  0  0  0  0  0
   45.1120   37.0050   42.7700 H   0  0  0  0  0  0  0  0  0  0  0  0
   44.1790   35.4230   46.5300 H   0  0  0  0  0  0  0  0  0  0  0  0
   46.4560   32.7750   43.7690 C   0  0  0  0  0  0  0  0  0  0  0  0
   47.7580   32.3260   43.8100 C   0  0  0  0  0  0  0  0  0  0  0  0
   48.1160   31.0960   43.4760 C   0  0  0  0  0  0  0  0  0  0  0  0
   47.1030   30.2510   43.0730 C   0  0  0  0  0  0  0  0  0  0  0  0
   45.5930   31.3180   43.1960 S   0  0  0  0  0  0  0  0  0  0  0  0
   48.6420   32.8530   44.1350 H   0  0  0  0  0  0  0  0  0  0  0  0
   48.9930   30.5070   43.4130 H   0  0  0  0  0  0  0  0  0  0  0  0
   46.8960   29.2580   42.7350 H   0  0  0  0  0  0  0  0  0  0  0  0
   46.4090   34.8550   41.7970 C   0  0  0  0  0  0  0  0  0  0  0  0
   47.6430   35.1790   41.7290 O   0  0  0  0  0  0  0  0  0  0  0  0
   45.2500   34.3650   40.9990 C   0  0  0  0  0  3  0  0  0  0  0  0
   43.9960   34.6200   40.6950 C   0  0  0  0  0  3  0  0  0  0  0  0
   43.3550   33.6640   39.7620 C   0  0  0  0  0  2  0  0  0  0  0  0
   43.0250   34.1620   38.8200 H   0  0  0  0  0  0  0  0  0  0  0  0
  1  6  1  0  0  0  0
  2  1  2  0  0  0  0
  2  3  1  0  0  0  0
  3  4  2  0  0  0  0
  4  5  1  0  0  0  0
  5  8  1  0  0  0  0
  6  5  2  0  0  0  0
  7  1  1  0  0  0  0
  9 10  2  0  0  0  0
  9  3  1  0  0  0  0
 10 14  1  0  0  0  0
 11 10  1  0  0  0  0
 12 13  1  0  0  0  0
 12 11  2  0  0  0  0
 13  9  1  0  0  0  0
 15 11  1  0  0  0  0
 16 12  1  0  0  0  0
 17  2  1  0  0  0  0
 18 17  2  0  0  0  0
 19 17  1  0  0  0  0
 20 19  2  0  0  0  0
 21 20  1  0  0  0  0
 22 21  1  0  0  0  0
M  END
>  <minimizedAffinity>
-4.10410929

>  <minimizedRMSD>
1.18635249

$$$$
