
 OpenBabel03252501543D

 16 16  0  0  0  0  0  0  0  0999 V2000
   44.8680   34.9930   45.1380 C   0  0  0  0  0  0  0  0  0  0  0  0
   45.4020   35.2430   43.8810 C   0  0  0  0  0  0  0  0  0  0  0  0
   46.4540   34.4540   43.4430 C   0  0  0  0  0  0  0  0  0  0  0  0
   46.9290   33.4680   44.2480 N   0  0  0  0  0  0  0  0  0  0  0  0
   46.3780   33.2540   45.4740 C   0  0  0  0  0  0  0  0  0  0  0  0
   45.3550   34.0110   45.9140 N   0  0  0  0  0  0  0  0  0  0  0  0
   44.0550   35.5250   45.5980 H   0  0  0  0  0  0  0  0  0  0  0  0
   46.8760   32.4380   45.9690 H   0  0  0  0  0  0  0  0  0  0  0  0
   44.8150   36.3380   43.0860 C   0  0  0  0  0  0  0  0  0  0  0  0
   44.1990   35.9540   42.2490 H   0  0  0  0  0  0  0  0  0  0  0  0
   45.6670   36.8960   42.6000 H   0  0  0  0  0  0  0  0  0  0  0  0
   44.3140   37.0530   43.7430 H   0  0  0  0  0  0  0  0  0  0  0  0
   47.0340   34.6950   42.1280 C   0  0  0  0  0  3  0  0  0  0  0  0
   48.2300   35.2490   42.0290 C   0  0  0  0  0  3  0  0  0  0  0  0
   48.8220   35.4940   40.6780 C   0  0  0  0  0  2  0  0  0  0  0  0
   49.6300   36.2610   40.7340 H   0  0  0  0  0  0  0  0  0  0  0  0
  1  7  1  0  0  0  0
  1  6  1  0  0  0  0
  2  1  2  0  0  0  0
  3  2  1  0  0  0  0
  3  4  2  0  0  0  0
  4  5  1  0  0  0  0
  5  6  2  0  0  0  0
  5  8  1  0  0  0  0
  9 12  1  0  0  0  0
  9  2  1  0  0  0  0
 10  9  1  0  0  0  0
 11  9  1  0  0  0  0
 13  3  1  0  0  0  0
 14 13  2  0  0  0  0
 15 16  1  0  0  0  0
 15 14  1  0  0  0  0
M  END
>  <minimizedAffinity>
-3.95981812

>  <minimizedRMSD>
1.99929368

$$$$
