
 OpenBabel03252506283D

 42 45  0  0  0  0  0  0  0  0999 V2000
   47.0620   30.3930   48.2880 C   0  0  0  0  0  0  0  0  0  0  0  0
   47.4770   31.0720   49.0540 H   0  0  0  0  0  0  0  0  0  0  0  0
   47.6570   29.4750   48.3160 H   0  0  0  0  0  0  0  0  0  0  0  0
   46.7710   32.4100   45.3570 C   0  0  0  0  0  0  0  0  0  0  0  0
   47.5180   31.3070   44.8700 C   0  0  0  0  0  0  0  0  0  0  0  0
   47.7100   30.4410   45.8880 C   0  0  0  0  0  0  0  0  0  0  0  0
   47.1090   30.9830   46.9620 N   0  0  0  0  0  0  0  0  0  0  0  0
   46.5420   32.1630   46.6570 N   0  0  0  0  0  0  0  0  0  0  0  0
   47.8470   31.2330   43.8460 H   0  0  0  0  0  0  0  0  0  0  0  0
   48.2330   29.4960   45.8880 H   0  0  0  0  0  0  0  0  0  0  0  0
   44.9560   35.3600   44.1970 C   0  0  0  0  0  0  0  0  0  0  0  0
   45.6200   35.6970   43.0110 C   0  0  0  0  0  0  0  0  0  0  0  0
   46.6930   34.8950   42.6260 C   0  0  0  0  0  0  0  0  0  0  0  0
   46.9960   33.8650   43.4310 N   0  0  0  0  0  0  0  0  0  0  0  0
   46.3700   33.5470   44.5500 C   0  0  0  0  0  0  0  0  0  0  0  0
   45.3380   34.3110   44.9290 N   0  0  0  0  0  0  0  0  0  0  0  0
   44.1270   36.0040   44.4680 H   0  0  0  0  0  0  0  0  0  0  0  0
   45.3680   36.5330   42.3670 H   0  0  0  0  0  0  0  0  0  0  0  0
   47.4900   35.0990   41.4300 C   0  0  0  0  0  3  0  0  0  0  0  0
   47.4290   34.2790   40.4020 C   0  0  0  0  0  3  0  0  0  0  0  0
   48.2180   34.4550   39.1800 C   0  0  0  0  0  2  0  0  0  0  0  0
   47.7340   33.9060   38.3230 H   0  0  0  0  0  0  0  0  0  0  0  0
   45.6650   30.0620   48.6580 C   0  0  0  0  0  0  0  0  0  0  0  0
   45.6850   29.7070   49.7230 H   0  0  0  0  0  0  0  0  0  0  0  0
   45.0600   30.9920   48.6750 H   0  0  0  0  0  0  0  0  0  0  0  0
   44.9960   27.6510   48.0870 C   0  0  0  0  0  0  0  0  0  0  0  0
   45.0030   29.0140   47.8850 C   0  0  0  0  0  0  0  0  0  0  0  0
   44.2830   29.4790   46.7940 C   0  0  0  0  0  0  0  0  0  0  0  0
   43.5990   28.6250   45.9580 C   0  0  0  0  0  0  0  0  0  0  0  0
   42.8390   28.7800   44.8570 N   0  0  0  0  0  0  0  0  0  0  0  0
   42.3890   27.6060   44.4030 C   0  0  0  0  0  0  0  0  0  0  0  0
   42.8650   26.5970   45.2360 C   0  0  0  0  0  0  0  0  0  0  0  0
   43.5980   27.2720   46.1680 C   0  0  0  0  0  0  0  0  0  0  0  0
   44.3090   26.8000   47.2490 C   0  0  0  0  0  0  0  0  0  0  0  0
   45.5750   27.3340   48.9580 H   0  0  0  0  0  0  0  0  0  0  0  0
   44.2060   30.5230   46.5200 H   0  0  0  0  0  0  0  0  0  0  0  0
   42.6350   29.7220   44.4220 H   0  0  0  0  0  0  0  0  0  0  0  0
   41.7590   27.5190   43.5260 H   0  0  0  0  0  0  0  0  0  0  0  0
   42.6470   25.5510   45.0900 H   0  0  0  0  0  0  0  0  0  0  0  0
   44.3480   25.3680   47.5270 C   0  0  0  0  0  0  0  0  0  0  0  0
   44.9270   24.9200   48.5560 O   0  0  0  0  0  0  0  0  0  0  0  0
   43.8730   24.6680   46.8420 H   0  0  0  0  0  0  0  0  0  0  0  0
  1  3  1  0  0  0  0
  1 23  1  0  0  0  0
  1  2  1  0  0  0  0
  4  8  2  0  0  0  0
  5  4  1  0  0  0  0
  5  6  2  0  0  0  0
  6  7  1  0  0  0  0
  7  1  1  0  0  0  0
  8  7  1  0  0  0  0
  9  5  1  0  0  0  0
 10  6  1  0  0  0  0
 11 17  1  0  0  0  0
 11 16  1  0  0  0  0
 12 11  2  0  0  0  0
 13 12  1  0  0  0  0
 13 14  2  0  0  0  0
 14 15  1  0  0  0  0
 15 16  2  0  0  0  0
 15  4  1  0  0  0  0
 18 12  1  0  0  0  0
 19 13  1  0  0  0  0
 20 19  2  0  0  0  0
 21 20  1  0  0  0  0
 22 21  1  0  0  0  0
 23 25  1  0  0  0  0
 23 24  1  0  0  0  0
 26 35  1  0  0  0  0
 27 26  1  0  0  0  0
 27 23  1  0  0  0  0
 28 27  2  0  0  0  0
 29 33  2  0  0  0  0
 29 28  1  0  0  0  0
 30 29  1  0  0  0  0
 31 30  1  0  0  0  0
 31 32  2  0  0  0  0
 32 33  1  0  0  0  0
 33 34  1  0  0  0  0
 34 40  1  0  0  0  0
 34 26  2  0  0  0  0
 36 28  1  0  0  0  0
 37 30  1  0  0  0  0
 38 31  1  0  0  0  0
 39 32  1  0  0  0  0
 40 41  2  0  0  0  0
 42 40  1  0  0  0  0
M  END
>  <minimizedAffinity>
-5.58543539

>  <minimizedRMSD>
0.693366647

$$$$
