
 OpenBabel03252501543D

 16 16  0  0  0  0  0  0  0  0999 V2000
   44.3760   35.8050   44.4730 C   0  0  0  0  0  0  0  0  0  0  0  0
   44.6550   35.1100   43.3040 C   0  0  0  0  0  0  0  0  0  0  0  0
   45.2800   33.8760   43.4030 C   0  0  0  0  0  0  0  0  0  0  0  0
   45.5980   33.3860   44.6290 N   0  0  0  0  0  0  0  0  0  0  0  0
   45.3070   34.0970   45.7530 C   0  0  0  0  0  0  0  0  0  0  0  0
   44.7000   35.2970   45.6730 N   0  0  0  0  0  0  0  0  0  0  0  0
   43.8970   36.7640   44.5400 H   0  0  0  0  0  0  0  0  0  0  0  0
   45.6280   33.5580   46.6280 H   0  0  0  0  0  0  0  0  0  0  0  0
   44.2700   35.7300   42.0220 C   0  0  0  0  0  0  0  0  0  0  0  0
   43.3890   35.2310   41.5720 H   0  0  0  0  0  0  0  0  0  0  0  0
   45.1170   35.5580   41.2960 H   0  0  0  0  0  0  0  0  0  0  0  0
   44.1810   36.8130   42.1410 H   0  0  0  0  0  0  0  0  0  0  0  0
   45.5850   33.1250   42.1920 C   0  0  0  0  0  3  0  0  0  0  0  0
   44.9170   32.0170   41.9190 C   0  0  0  0  0  3  0  0  0  0  0  0
   45.2330   31.2500   40.6750 C   0  0  0  0  0  2  0  0  0  0  0  0
   44.8680   30.1990   40.7570 H   0  0  0  0  0  0  0  0  0  0  0  0
  1  7  1  0  0  0  0
  1  6  1  0  0  0  0
  2  3  1  0  0  0  0
  2  1  2  0  0  0  0
  3  4  2  0  0  0  0
  4  5  1  0  0  0  0
  5  8  1  0  0  0  0
  6  5  2  0  0  0  0
  9 12  1  0  0  0  0
  9  2  1  0  0  0  0
 10  9  1  0  0  0  0
 11  9  1  0  0  0  0
 13  3  1  0  0  0  0
 14 13  2  0  0  0  0
 15 16  1  0  0  0  0
 15 14  1  0  0  0  0
M  END
>  <minimizedAffinity>
-2.89361358

>  <minimizedRMSD>
0.106567174

$$$$
