
 OpenBabel03242511413D

 29 30  0  0  0  0  0  0  0  0999 V2000
   46.8860   32.7720   46.1490 C   0  0  0  0  0  0  0  0  0  0  0  0
   46.9540   33.8010   46.5190 H   0  0  0  0  0  0  0  0  0  0  0  0
   47.9390   32.3790   46.0280 H   0  0  0  0  0  0  0  0  0  0  0  0
   46.2670   31.9380   47.1740 C   0  0  0  0  0  0  0  0  0  0  0  0
   45.3160   32.2670   48.1280 C   0  0  0  0  0  0  0  0  0  0  0  0
   44.7590   31.3870   49.0190 C   0  0  0  0  0  0  0  0  0  0  0  0
   45.1760   30.0860   48.9570 C   0  0  0  0  0  0  0  0  0  0  0  0
   46.1290   29.7310   48.0120 C   0  0  0  0  0  0  0  0  0  0  0  0
   46.6780   30.6530   47.1230 C   0  0  0  0  0  0  0  0  0  0  0  0
   45.0590   33.3240   48.0830 H   0  0  0  0  0  0  0  0  0  0  0  0
   44.0410   31.8570   49.6740 H   0  0  0  0  0  0  0  0  0  0  0  0
   44.6540   29.4860   49.7180 H   0  0  0  0  0  0  0  0  0  0  0  0
   46.2700   28.6600   48.1870 H   0  0  0  0  0  0  0  0  0  0  0  0
   47.7100   29.8780   46.4510 C   0  0  0  0  0  3  0  0  0  0  0  0
   48.9010   29.4490   46.8080 C   0  0  0  0  0  3  0  0  0  0  0  0
   49.9140   28.6760   46.1180 C   0  0  0  0  0  2  0  0  0  0  0  0
   49.5270   28.4320   45.0890 H   0  0  0  0  0  0  0  0  0  0  0  0
   46.2440   32.6330   44.8110 C   0  0  0  0  0  0  0  0  0  0  0  0
   45.2830   32.0960   44.9170 H   0  0  0  0  0  0  0  0  0  0  0  0
   46.9270   32.2840   44.0190 H   0  0  0  0  0  0  0  0  0  0  0  0
   44.5410   35.9170   44.7640 C   0  0  0  0  0  0  0  0  0  0  0  0
   44.9300   36.4330   43.5020 C   0  0  0  0  0  0  0  0  0  0  0  0
   45.7630   35.6410   42.7370 C   0  0  0  0  0  0  0  0  0  0  0  0
   46.1560   34.4540   43.2060 N   0  0  0  0  0  0  0  0  0  0  0  0
   45.7520   34.0070   44.4250 C   0  0  0  0  0  0  0  0  0  0  0  0
   44.9610   34.7170   45.1960 N   0  0  0  0  0  0  0  0  0  0  0  0
   43.8770   36.5800   45.3400 H   0  0  0  0  0  0  0  0  0  0  0  0
   44.5850   37.4080   43.1600 H   0  0  0  0  0  0  0  0  0  0  0  0
   46.1020   35.9730   41.7610 H   0  0  0  0  0  0  0  0  0  0  0  0
  1  2  1  0  0  0  0
  1  4  1  0  0  0  0
  3  1  1  0  0  0  0
  4  5  1  0  0  0  0
  5  6  2  0  0  0  0
  6 11  1  0  0  0  0
  7  6  1  0  0  0  0
  7 12  1  0  0  0  0
  8 13  1  0  0  0  0
  8  7  2  0  0  0  0
  9  4  2  0  0  0  0
  9  8  1  0  0  0  0
 10  5  1  0  0  0  0
 14 15  2  0  0  0  0
 14  9  1  0  0  0  0
 16 15  1  0  0  0  0
 17 16  1  0  0  0  0
 18 19  1  0  0  0  0
 18  1  1  0  0  0  0
 20 18  1  0  0  0  0
 21 26  1  0  0  0  0
 21 27  1  0  0  0  0
 22 21  2  0  0  0  0
 23 24  2  0  0  0  0
 23 22  1  0  0  0  0
 24 25  1  0  0  0  0
 25 18  1  0  0  0  0
 25 26  2  0  0  0  0
 28 22  1  0  0  0  0
 29 23  1  0  0  0  0
M  END
>  <minimizedAffinity>
-4.65658426

>  <minimizedRMSD>
1.07716155

$$$$
