
 OpenBabel03252503093D

 22 23  0  0  0  0  0  0  0  0999 V2000
   45.1360   36.1470   43.4710 C   0  0  0  0  0  0  0  0  0  0  0  0
   45.7950   34.9600   43.0930 C   0  0  0  0  0  0  0  0  0  0  0  0
   45.8270   33.9720   44.0690 C   0  0  0  0  0  0  0  0  0  0  0  0
   45.2680   34.1360   45.2870 N   0  0  0  0  0  0  0  0  0  0  0  0
   44.6420   35.3070   45.6020 C   0  0  0  0  0  0  0  0  0  0  0  0
   44.5800   36.3040   44.6900 N   0  0  0  0  0  0  0  0  0  0  0  0
   45.0550   36.9760   42.7880 H   0  0  0  0  0  0  0  0  0  0  0  0
   44.2110   35.4030   46.5730 H   0  0  0  0  0  0  0  0  0  0  0  0
   46.4580   32.7630   43.7790 C   0  0  0  0  0  0  0  0  0  0  0  0
   47.7570   32.3100   43.8510 C   0  0  0  0  0  0  0  0  0  0  0  0
   48.1220   31.0860   43.5020 C   0  0  0  0  0  0  0  0  0  0  0  0
   47.1200   30.2530   43.0500 C   0  0  0  0  0  0  0  0  0  0  0  0
   45.6090   31.3220   43.1500 S   0  0  0  0  0  0  0  0  0  0  0  0
   48.6310   32.8270   44.2140 H   0  0  0  0  0  0  0  0  0  0  0  0
   48.9990   30.4960   43.4530 H   0  0  0  0  0  0  0  0  0  0  0  0
   46.9210   29.2690   42.6840 H   0  0  0  0  0  0  0  0  0  0  0  0
   46.3520   34.8330   41.8000 C   0  0  0  0  0  0  0  0  0  0  0  0
   47.6100   35.0450   41.7300 O   0  0  0  0  0  0  0  0  0  0  0  0
   45.1470   34.4850   40.9960 C   0  0  0  0  0  3  0  0  0  0  0  0
   44.6580   33.5980   40.1570 C   0  0  0  0  0  3  0  0  0  0  0  0
   43.2770   33.8520   39.6850 C   0  0  0  0  0  2  0  0  0  0  0  0
   42.5840   33.0290   39.9740 H   0  0  0  0  0  0  0  0  0  0  0  0
  1  6  1  0  0  0  0
  2  1  2  0  0  0  0
  2  3  1  0  0  0  0
  3  4  2  0  0  0  0
  4  5  1  0  0  0  0
  5  8  1  0  0  0  0
  6  5  2  0  0  0  0
  7  1  1  0  0  0  0
  9 10  2  0  0  0  0
  9  3  1  0  0  0  0
 10 14  1  0  0  0  0
 11 10  1  0  0  0  0
 12 13  1  0  0  0  0
 12 11  2  0  0  0  0
 13  9  1  0  0  0  0
 15 11  1  0  0  0  0
 16 12  1  0  0  0  0
 17  2  1  0  0  0  0
 18 17  2  0  0  0  0
 19 17  1  0  0  0  0
 20 19  2  0  0  0  0
 21 22  1  0  0  0  0
 21 20  1  0  0  0  0
M  END
>  <minimizedAffinity>
-3.97463083

>  <minimizedRMSD>
1.20525753

$$$$
