
 OpenBabel03252501543D

 16 16  0  0  0  0  0  0  0  0999 V2000
   44.3910   35.7880   44.4800 C   0  0  0  0  0  0  0  0  0  0  0  0
   44.6480   35.1140   43.2930 C   0  0  0  0  0  0  0  0  0  0  0  0
   45.2640   33.8730   43.3590 C   0  0  0  0  0  0  0  0  0  0  0  0
   45.5970   33.3580   44.5710 N   0  0  0  0  0  0  0  0  0  0  0  0
   45.3290   34.0500   45.7120 C   0  0  0  0  0  0  0  0  0  0  0  0
   44.7300   35.2550   45.6650 N   0  0  0  0  0  0  0  0  0  0  0  0
   43.9220   36.7500   44.5720 H   0  0  0  0  0  0  0  0  0  0  0  0
   45.6590   33.4920   46.5720 H   0  0  0  0  0  0  0  0  0  0  0  0
   44.2470   35.7610   42.0300 C   0  0  0  0  0  0  0  0  0  0  0  0
   43.3560   35.2770   41.5840 H   0  0  0  0  0  0  0  0  0  0  0  0
   45.0820   35.5970   41.2880 H   0  0  0  0  0  0  0  0  0  0  0  0
   44.1690   36.8420   42.1700 H   0  0  0  0  0  0  0  0  0  0  0  0
   45.5450   33.1440   42.1290 C   0  0  0  0  0  3  0  0  0  0  0  0
   44.8120   32.0910   41.8080 C   0  0  0  0  0  3  0  0  0  0  0  0
   45.1030   31.3450   40.5450 C   0  0  0  0  0  2  0  0  0  0  0  0
   44.6700   30.3190   40.5840 H   0  0  0  0  0  0  0  0  0  0  0  0
  1  7  1  0  0  0  0
  1  6  1  0  0  0  0
  2  3  1  0  0  0  0
  2  1  2  0  0  0  0
  3  4  2  0  0  0  0
  4  5  1  0  0  0  0
  5  8  1  0  0  0  0
  6  5  2  0  0  0  0
  9 12  1  0  0  0  0
  9  2  1  0  0  0  0
 10  9  1  0  0  0  0
 11  9  1  0  0  0  0
 13  3  1  0  0  0  0
 14 13  2  0  0  0  0
 15 16  1  0  0  0  0
 15 14  1  0  0  0  0
M  END
>  <minimizedAffinity>
-2.89842582

>  <minimizedRMSD>
0.0769879743

$$$$
