
 OpenBabel03242518113D

 26 27  0  0  0  0  0  0  0  0999 V2000
   48.3490   34.0000   42.7120 C   0  0  0  0  0  0  0  0  0  0  0  0
   49.0000   34.3450   43.5510 H   0  0  0  0  0  0  0  0  0  0  0  0
   47.5930   33.3470   43.2380 H   0  0  0  0  0  0  0  0  0  0  0  0
   49.1350   33.1700   41.8550 C   0  0  0  0  0  0  0  0  0  0  0  0
   48.9200   32.3770   40.6880 C   0  0  0  0  0  0  0  0  0  0  0  0
   49.9680   31.6980   40.1300 C   0  0  0  0  0  0  0  0  0  0  0  0
   51.2620   31.8230   40.7690 C   0  0  0  0  0  0  0  0  0  0  0  0
   50.9760   32.9210   42.1770 S   0  0  0  0  0  0  0  0  0  0  0  0
   47.8920   32.4320   40.3900 H   0  0  0  0  0  0  0  0  0  0  0  0
   49.7590   31.1270   39.2690 H   0  0  0  0  0  0  0  0  0  0  0  0
   52.4760   31.2720   40.4500 C   0  0  0  0  0  0  0  0  0  0  0  0
   53.1680   31.1800   39.3290 C   0  0  0  0  0  0  0  0  0  0  0  0
   52.7490   31.7080   38.0010 C   0  0  0  0  0  0  0  0  0  0  0  0
   52.5900   32.7870   38.0530 H   0  0  0  0  0  0  0  0  0  0  0  0
   47.7400   35.2120   42.1040 C   0  0  0  0  0  0  0  0  0  0  0  0
   48.0120   36.1000   42.7330 H   0  0  0  0  0  0  0  0  0  0  0  0
   48.1530   35.3840   41.1170 H   0  0  0  0  0  0  0  0  0  0  0  0
   46.2910   35.1010   42.1160 C   0  0  0  0  0  0  0  0  0  0  0  0
   45.5090   35.6450   43.1120 C   0  0  0  0  0  0  0  0  0  0  0  0
   44.1290   35.5010   43.0570 C   0  0  0  0  0  0  0  0  0  0  0  0
   43.6120   34.8210   42.0130 N   0  0  0  0  0  0  0  0  0  0  0  0
   44.3870   34.2890   41.0420 C   0  0  0  0  0  0  0  0  0  0  0  0
   45.6980   34.4470   41.1260 N   0  0  0  0  0  0  0  0  0  0  0  0
   45.9570   36.1840   43.9330 H   0  0  0  0  0  0  0  0  0  0  0  0
   43.4930   35.9160   43.8220 H   0  0  0  0  0  0  0  0  0  0  0  0
   43.9270   33.7420   40.2070 H   0  0  0  0  0  0  0  0  0  0  0  0
  1  3  1  0  0  0  0
  1  2  1  0  0  0  0
  4  8  1  0  0  0  0
  4  1  1  0  0  0  0
  5  4  2  0  0  0  0
  6  5  1  0  0  0  0
  6  7  2  0  0  0  0
  7  8  1  0  0  0  0
  9  5  1  0  0  0  0
 10  6  1  0  0  0  0
 11  7  1  0  0  0  0
 12 11  2  0  0  0  0
 13 14  1  0  0  0  0
 13 12  1  0  0  0  0
 15 18  1  0  0  0  0
 15  1  1  0  0  0  0
 15 16  1  0  0  0  0
 17 15  1  0  0  0  0
 18 19  1  0  0  0  0
 19 24  1  0  0  0  0
 20 19  2  0  0  0  0
 20 25  1  0  0  0  0
 21 20  1  0  0  0  0
 22 23  1  0  0  0  0
 22 21  2  0  0  0  0
 23 18  2  0  0  0  0
 26 22  1  0  0  0  0
M  END
>  <minimizedAffinity>
-3.94072342

>  <minimizedRMSD>
1.10931885

$$$$
