
 OpenBabel03252504003D

 29 31  0  0  0  0  0  0  0  0999 V2000
   46.1230   31.7660   45.1390 C   0  0  0  0  0  0  0  0  0  0  0  0
   45.7830   33.0440   45.5580 C   0  0  0  0  0  0  0  0  0  0  0  0
   45.4560   33.2920   46.8870 C   0  0  0  0  0  0  0  0  0  0  0  0
   45.4830   32.2270   47.7660 C   0  0  0  0  0  0  0  0  0  0  0  0
   45.2240   32.1400   49.0830 N   0  0  0  0  0  0  0  0  0  0  0  0
   45.3800   30.8810   49.5230 C   0  0  0  0  0  0  0  0  0  0  0  0
   45.7600   30.0940   48.4520 C   0  0  0  0  0  0  0  0  0  0  0  0
   45.8230   30.9320   47.3580 C   0  0  0  0  0  0  0  0  0  0  0  0
   46.1400   30.7230   46.0410 C   0  0  0  0  0  0  0  0  0  0  0  0
   46.3830   31.5340   44.1100 H   0  0  0  0  0  0  0  0  0  0  0  0
   45.1930   34.2910   47.2060 H   0  0  0  0  0  0  0  0  0  0  0  0
   44.9390   32.9010   49.7280 H   0  0  0  0  0  0  0  0  0  0  0  0
   45.2740   30.4030   50.4830 H   0  0  0  0  0  0  0  0  0  0  0  0
   45.9810   29.0480   48.3820 H   0  0  0  0  0  0  0  0  0  0  0  0
   46.4040   29.7240   45.7220 H   0  0  0  0  0  0  0  0  0  0  0  0
   46.7650   35.0620   42.6710 C   0  0  0  0  0  0  0  0  0  0  0  0
   45.8210   36.0930   42.6460 C   0  0  0  0  0  0  0  0  0  0  0  0
   44.8420   36.0870   43.6330 C   0  0  0  0  0  0  0  0  0  0  0  0
   44.8490   35.0940   44.5620 N   0  0  0  0  0  0  0  0  0  0  0  0
   45.7830   34.1130   44.5510 C   0  0  0  0  0  0  0  0  0  0  0  0
   46.7420   34.0930   43.6080 N   0  0  0  0  0  0  0  0  0  0  0  0
   45.8560   36.8630   41.8840 H   0  0  0  0  0  0  0  0  0  0  0  0
   44.1020   36.8770   43.6300 H   0  0  0  0  0  0  0  0  0  0  0  0
   47.7660   35.1030   41.6290 C   0  0  0  0  0  0  0  0  0  0  0  0
   48.8410   35.7750   41.6840 O   0  0  0  0  0  0  0  0  0  0  0  0
   47.5760   34.3330   40.4010 C   0  0  0  0  0  3  0  0  0  0  0  0
   48.4560   33.4130   40.0620 C   0  0  0  0  0  3  0  0  0  0  0  0
   48.3470   32.5830   38.8380 C   0  0  0  0  0  2  0  0  0  0  0  0
   47.5330   32.9970   38.2130 H   0  0  0  0  0  0  0  0  0  0  0  0
  1  2  2  0  0  0  0
  1  9  1  0  0  0  0
  2  3  1  0  0  0  0
  3 11  1  0  0  0  0
  3  4  2  0  0  0  0
  4  5  1  0  0  0  0
  5  6  1  0  0  0  0
  5 12  1  0  0  0  0
  6 13  1  0  0  0  0
  7  6  2  0  0  0  0
  8  4  1  0  0  0  0
  8  7  1  0  0  0  0
  9  8  2  0  0  0  0
 10  1  1  0  0  0  0
 14  7  1  0  0  0  0
 15  9  1  0  0  0  0
 16 21  1  0  0  0  0
 17 16  2  0  0  0  0
 17 18  1  0  0  0  0
 18 19  2  0  0  0  0
 20 19  1  0  0  0  0
 20  2  1  0  0  0  0
 21 20  2  0  0  0  0
 22 17  1  0  0  0  0
 23 18  1  0  0  0  0
 24 25  2  0  0  0  0
 24 16  1  0  0  0  0
 26 24  1  0  0  0  0
 27 26  2  0  0  0  0
 28 27  1  0  0  0  0
 29 28  1  0  0  0  0
M  END
>  <minimizedAffinity>
-5.59121943

>  <minimizedRMSD>
0.382141292

$$$$
