
 OpenBabel03252505573D

 31 32  0  0  0  0  0  0  0  0999 V2000
   45.8680   32.6920   47.5770 O   0  0  0  0  0  0  0  0  0  0  0  0
   45.0190   34.8740   44.9070 C   0  0  0  0  0  0  0  0  0  0  0  0
   45.9530   34.5610   43.9010 C   0  0  0  0  0  0  0  0  0  0  0  0
   46.8780   33.5630   44.2080 C   0  0  0  0  0  0  0  0  0  0  0  0
   46.8290   32.9710   45.4130 N   0  0  0  0  0  0  0  0  0  0  0  0
   45.9220   33.3010   46.3370 C   0  0  0  0  0  0  0  0  0  0  0  0
   45.0220   34.2450   46.0900 N   0  0  0  0  0  0  0  0  0  0  0  0
   44.2850   35.6590   44.6780 H   0  0  0  0  0  0  0  0  0  0  0  0
   45.9060   35.2910   42.6100 C   0  0  0  0  0  0  0  0  0  0  0  0
   45.0520   36.3650   42.8600 F   0  0  0  0  0  0  0  0  0  0  0  0
   45.2900   34.4440   41.7000 F   0  0  0  0  0  0  0  0  0  0  0  0
   47.1400   35.6930   42.2690 F   0  0  0  0  0  0  0  0  0  0  0  0
   47.8630   33.1220   43.2640 C   0  0  0  0  0  3  0  0  0  0  0  0
   47.6330   32.0660   42.4640 C   0  0  0  0  0  3  0  0  0  0  0  0
   46.3500   31.2940   42.5100 C   0  0  0  0  0  2  0  0  0  0  0  0
   46.1950   30.7840   43.4870 H   0  0  0  0  0  0  0  0  0  0  0  0
   45.3910   31.3700   47.7170 C   0  0  0  0  0  0  0  0  0  0  0  0
   44.8440   31.3400   48.6820 H   0  0  0  0  0  0  0  0  0  0  0  0
   44.6760   31.0720   46.9330 H   0  0  0  0  0  0  0  0  0  0  0  0
   46.5630   30.4830   47.8320 C   0  0  0  0  0  0  0  0  0  0  0  0
   46.7930   29.2110   47.3350 C   0  0  0  0  0  0  0  0  0  0  0  0
   47.9860   28.6300   47.5990 C   0  0  0  0  0  0  0  0  0  0  0  0
   48.9400   29.2170   48.3070 N   0  0  0  0  0  0  0  0  0  0  0  0
   48.7160   30.4520   48.7890 C   0  0  0  0  0  0  0  0  0  0  0  0
   47.5320   31.1090   48.5650 N   0  0  0  0  0  0  0  0  0  0  0  0
   45.9600   28.8500   46.7880 H   0  0  0  0  0  0  0  0  0  0  0  0
   48.1280   27.6370   47.1930 H   0  0  0  0  0  0  0  0  0  0  0  0
   49.8340   31.0460   49.5750 C   0  0  0  0  0  0  0  0  0  0  0  0
   49.8250   32.4110   49.5080 F   0  0  0  0  0  0  0  0  0  0  0  0
   51.0570   30.5660   49.0870 F   0  0  0  0  0  0  0  0  0  0  0  0
   49.7570   30.6920   50.9150 F   0  0  0  0  0  0  0  0  0  0  0  0
  1 17  1  0  0  0  0
  2  7  1  0  0  0  0
  3  4  1  0  0  0  0
  3  2  2  0  0  0  0
  4  5  2  0  0  0  0
  5  6  1  0  0  0  0
  6  1  1  0  0  0  0
  7  6  2  0  0  0  0
  8  2  1  0  0  0  0
  9 10  1  0  0  0  0
  9  3  1  0  0  0  0
 11  9  1  0  0  0  0
 12  9  1  0  0  0  0
 13  4  1  0  0  0  0
 14 15  1  0  0  0  0
 14 13  2  0  0  0  0
 15 16  1  0  0  0  0
 17 20  1  0  0  0  0
 17 18  1  0  0  0  0
 19 17  1  0  0  0  0
 20 25  1  0  0  0  0
 21 22  1  0  0  0  0
 21 20  2  0  0  0  0
 22 23  2  0  0  0  0
 23 24  1  0  0  0  0
 24 28  1  0  0  0  0
 25 24  2  0  0  0  0
 26 21  1  0  0  0  0
 27 22  1  0  0  0  0
 28 31  1  0  0  0  0
 29 28  1  0  0  0  0
 30 28  1  0  0  0  0
M  END
>  <minimizedAffinity>
-5.53260851

>  <minimizedRMSD>
0.285243839

$$$$
