
 OpenBabel03252503093D

 22 23  0  0  0  0  0  0  0  0999 V2000
   45.0510   36.1270   43.5240 C   0  0  0  0  0  0  0  0  0  0  0  0
   45.7040   34.9510   43.1020 C   0  0  0  0  0  0  0  0  0  0  0  0
   45.7810   33.9480   44.0610 C   0  0  0  0  0  0  0  0  0  0  0  0
   45.2680   34.0890   45.3020 N   0  0  0  0  0  0  0  0  0  0  0  0
   44.6460   35.2500   45.6590 C   0  0  0  0  0  0  0  0  0  0  0  0
   44.5420   36.2610   44.7650 N   0  0  0  0  0  0  0  0  0  0  0  0
   44.9370   36.9650   42.8570 H   0  0  0  0  0  0  0  0  0  0  0  0
   44.2530   35.3290   46.6480 H   0  0  0  0  0  0  0  0  0  0  0  0
   46.4080   32.7490   43.7290 C   0  0  0  0  0  0  0  0  0  0  0  0
   47.7090   32.2950   43.7710 C   0  0  0  0  0  0  0  0  0  0  0  0
   48.0700   31.0820   43.3810 C   0  0  0  0  0  0  0  0  0  0  0  0
   47.0630   30.2610   42.9180 C   0  0  0  0  0  0  0  0  0  0  0  0
   45.5520   31.3250   43.0690 S   0  0  0  0  0  0  0  0  0  0  0  0
   48.5880   32.8030   44.1370 H   0  0  0  0  0  0  0  0  0  0  0  0
   48.9470   30.4950   43.3050 H   0  0  0  0  0  0  0  0  0  0  0  0
   46.8600   29.2880   42.5270 H   0  0  0  0  0  0  0  0  0  0  0  0
   46.2110   34.8480   41.7860 C   0  0  0  0  0  0  0  0  0  0  0  0
   47.4710   35.0330   41.6770 O   0  0  0  0  0  0  0  0  0  0  0  0
   44.9700   34.5490   41.0180 C   0  0  0  0  0  3  0  0  0  0  0  0
   44.4140   33.6720   40.2120 C   0  0  0  0  0  3  0  0  0  0  0  0
   43.0380   33.9910   39.7650 C   0  0  0  0  0  2  0  0  0  0  0  0
   42.3070   33.2130   40.0880 H   0  0  0  0  0  0  0  0  0  0  0  0
  1  6  1  0  0  0  0
  2  1  2  0  0  0  0
  2  3  1  0  0  0  0
  3  4  2  0  0  0  0
  4  5  1  0  0  0  0
  5  8  1  0  0  0  0
  6  5  2  0  0  0  0
  7  1  1  0  0  0  0
  9 10  2  0  0  0  0
  9  3  1  0  0  0  0
 10 14  1  0  0  0  0
 11 10  1  0  0  0  0
 12 13  1  0  0  0  0
 12 11  2  0  0  0  0
 13  9  1  0  0  0  0
 15 11  1  0  0  0  0
 16 12  1  0  0  0  0
 17  2  1  0  0  0  0
 18 17  2  0  0  0  0
 19 17  1  0  0  0  0
 20 19  2  0  0  0  0
 21 22  1  0  0  0  0
 21 20  1  0  0  0  0
M  END
>  <minimizedAffinity>
-3.96989393

>  <minimizedRMSD>
1.33737922

$$$$
