
 OpenBabel03252508213D

 29 30  0  0  0  0  0  0  0  0999 V2000
   42.4460   34.3970   40.3620 C   0  0  0  0  0  0  0  0  0  0  0  0
   42.7870   34.8920   39.4050 H   0  0  0  0  0  0  0  0  0  0  0  0
   43.0850   33.5210   40.4880 H   0  0  0  0  0  0  0  0  0  0  0  0
   41.0160   34.1310   40.1650 C   0  0  0  0  0  0  0  0  0  0  0  0
   40.2450   33.3670   41.0010 C   0  0  0  0  0  0  0  0  0  0  0  0
   38.8920   33.0910   40.8530 C   0  0  0  0  0  0  0  0  0  0  0  0
   38.3090   33.6740   39.7220 C   0  0  0  0  0  0  0  0  0  0  0  0
   39.0580   34.4500   38.8590 C   0  0  0  0  0  0  0  0  0  0  0  0
   40.3880   34.6860   39.0570 C   0  0  0  0  0  0  0  0  0  0  0  0
   40.7110   32.9230   41.8720 H   0  0  0  0  0  0  0  0  0  0  0  0
   38.3250   32.4950   41.5200 H   0  0  0  0  0  0  0  0  0  0  0  0
   37.2460   33.4810   39.5690 H   0  0  0  0  0  0  0  0  0  0  0  0
   38.4860   34.8410   38.0230 H   0  0  0  0  0  0  0  0  0  0  0  0
   41.1300   35.5140   38.1120 C   0  0  0  0  0  3  0  0  0  0  0  0
   40.5860   36.2480   37.1560 C   0  0  0  0  0  3  0  0  0  0  0  0
   41.3890   37.0730   36.2190 C   0  0  0  0  0  2  0  0  0  0  0  0
   41.3880   36.5990   35.2110 H   0  0  0  0  0  0  0  0  0  0  0  0
   42.6730   35.4570   41.4370 C   0  0  0  0  0  0  0  0  0  0  0  0
   42.7400   36.4170   40.8800 H   0  0  0  0  0  0  0  0  0  0  0  0
   41.8630   35.4480   42.1690 H   0  0  0  0  0  0  0  0  0  0  0  0
   46.2880   34.4770   41.8580 C   0  0  0  0  0  0  0  0  0  0  0  0
   45.0270   34.6970   41.2480 C   0  0  0  0  0  0  0  0  0  0  0  0
   43.9940   35.2180   42.0420 C   0  0  0  0  0  0  0  0  0  0  0  0
   44.2800   35.4780   43.3650 N   0  0  0  0  0  0  0  0  0  0  0  0
   45.4830   35.2520   43.8830 C   0  0  0  0  0  0  0  0  0  0  0  0
   46.5000   34.7520   43.1480 N   0  0  0  0  0  0  0  0  0  0  0  0
   47.0430   34.0730   41.1890 H   0  0  0  0  0  0  0  0  0  0  0  0
   44.8930   34.4600   40.1910 H   0  0  0  0  0  0  0  0  0  0  0  0
   45.5880   35.4960   44.9340 H   0  0  0  0  0  0  0  0  0  0  0  0
  1  3  1  0  0  0  0
  1 18  1  0  0  0  0
  2  1  1  0  0  0  0
  4  1  1  0  0  0  0
  4  5  1  0  0  0  0
  5 10  1  0  0  0  0
  6  5  2  0  0  0  0
  6 11  1  0  0  0  0
  7  6  1  0  0  0  0
  8  9  1  0  0  0  0
  8  7  2  0  0  0  0
  9  4  2  0  0  0  0
 12  7  1  0  0  0  0
 13  8  1  0  0  0  0
 14  9  1  0  0  0  0
 15 14  2  0  0  0  0
 16 15  1  0  0  0  0
 17 16  1  0  0  0  0
 18 23  1  0  0  0  0
 18 20  1  0  0  0  0
 19 18  1  0  0  0  0
 21 26  1  0  0  0  0
 22 21  2  0  0  0  0
 22 23  1  0  0  0  0
 23 24  2  0  0  0  0
 24 25  1  0  0  0  0
 25 29  1  0  0  0  0
 26 25  2  0  0  0  0
 27 21  1  0  0  0  0
 28 22  1  0  0  0  0
M  END
>  <minimizedAffinity>
-5.1968894

>  <minimizedRMSD>
7.0713892

$$$$
