
 OpenBabel03252508423D

 23 24  0  0  0  0  0  0  0  0999 V2000
   46.1370   34.3310   41.2390 C   0  0  0  0  0  0  0  0  0  0  0  0
   44.8120   34.3340   40.8940 C   0  0  0  0  0  0  0  0  0  0  0  0
   43.8920   35.0430   41.6340 C   0  0  0  0  0  0  0  0  0  0  0  0
   44.3350   35.7490   42.7260 C   0  0  0  0  0  0  0  0  0  0  0  0
   45.6550   35.7830   43.1200 C   0  0  0  0  0  0  0  0  0  0  0  0
   46.5200   35.0430   42.3220 C   0  0  0  0  0  0  0  0  0  0  0  0
   42.8510   35.1010   41.4410 H   0  0  0  0  0  0  0  0  0  0  0  0
   43.6470   36.3270   43.3460 H   0  0  0  0  0  0  0  0  0  0  0  0
   46.0010   36.3450   43.9880 H   0  0  0  0  0  0  0  0  0  0  0  0
   47.5710   35.0340   42.5860 H   0  0  0  0  0  0  0  0  0  0  0  0
   48.5500   33.2580   38.5300 C   0  0  0  0  0  0  0  0  0  0  0  0
   47.6910   34.0920   39.2840 C   0  0  0  0  0  0  0  0  0  0  0  0
   47.0370   33.5580   40.4040 C   0  0  0  0  0  0  0  0  0  0  0  0
   47.2760   32.2660   40.6920 N   0  0  0  0  0  0  0  0  0  0  0  0
   48.0970   31.4790   39.9680 C   0  0  0  0  0  0  0  0  0  0  0  0
   48.7350   31.9740   38.8880 N   0  0  0  0  0  0  0  0  0  0  0  0
   49.0010   33.7620   37.6950 H   0  0  0  0  0  0  0  0  0  0  0  0
   47.4960   35.1290   39.0570 H   0  0  0  0  0  0  0  0  0  0  0  0
   48.2470   30.4360   40.2580 H   0  0  0  0  0  0  0  0  0  0  0  0
   44.3420   33.5830   39.7320 C   0  0  0  0  0  3  0  0  0  0  0  0
   43.0790   33.2980   39.4540 C   0  0  0  0  0  3  0  0  0  0  0  0
   42.6490   32.5330   38.2640 C   0  0  0  0  0  2  0  0  0  0  0  0
   42.4190   31.4780   38.5060 H   0  0  0  0  0  0  0  0  0  0  0  0
  1  6  1  0  0  0  0
  2  1  2  0  0  0  0
  2  3  1  0  0  0  0
  3  4  2  0  0  0  0
  4  5  1  0  0  0  0
  4  8  1  0  0  0  0
  5  9  1  0  0  0  0
  6 10  1  0  0  0  0
  6  5  2  0  0  0  0
  7  3  1  0  0  0  0
 11 16  2  0  0  0  0
 11 12  1  0  0  0  0
 12 13  2  0  0  0  0
 13 14  1  0  0  0  0
 13  1  1  0  0  0  0
 15 19  1  0  0  0  0
 15 14  2  0  0  0  0
 16 15  1  0  0  0  0
 17 11  1  0  0  0  0
 18 12  1  0  0  0  0
 20  2  1  0  0  0  0
 21 20  2  0  0  0  0
 22 23  1  0  0  0  0
 22 21  1  0  0  0  0
M  END
>  <minimizedAffinity>
-3.77432084

>  <minimizedRMSD>
5.96697474

$$$$
