
 OpenBabel03252501543D

 16 16  0  0  0  0  0  0  0  0999 V2000
   44.8670   34.9940   45.1390 C   0  0  0  0  0  0  0  0  0  0  0  0
   45.4010   35.2440   43.8810 C   0  0  0  0  0  0  0  0  0  0  0  0
   46.4540   34.4550   43.4430 C   0  0  0  0  0  0  0  0  0  0  0  0
   46.9280   33.4690   44.2470 N   0  0  0  0  0  0  0  0  0  0  0  0
   46.3770   33.2540   45.4740 C   0  0  0  0  0  0  0  0  0  0  0  0
   45.3540   34.0120   45.9140 N   0  0  0  0  0  0  0  0  0  0  0  0
   44.0550   35.5260   45.5980 H   0  0  0  0  0  0  0  0  0  0  0  0
   46.8750   32.4380   45.9680 H   0  0  0  0  0  0  0  0  0  0  0  0
   44.8150   36.3400   43.0870 C   0  0  0  0  0  0  0  0  0  0  0  0
   44.1990   35.9560   42.2500 H   0  0  0  0  0  0  0  0  0  0  0  0
   45.6680   36.8980   42.6010 H   0  0  0  0  0  0  0  0  0  0  0  0
   44.3140   37.0550   43.7440 H   0  0  0  0  0  0  0  0  0  0  0  0
   47.0340   34.6960   42.1280 C   0  0  0  0  0  3  0  0  0  0  0  0
   48.2310   35.2490   42.0290 C   0  0  0  0  0  3  0  0  0  0  0  0
   48.8220   35.4940   40.6780 C   0  0  0  0  0  2  0  0  0  0  0  0
   49.6310   36.2600   40.7340 H   0  0  0  0  0  0  0  0  0  0  0  0
  1  7  1  0  0  0  0
  1  6  1  0  0  0  0
  2  1  2  0  0  0  0
  3  2  1  0  0  0  0
  3  4  2  0  0  0  0
  4  5  1  0  0  0  0
  5  6  2  0  0  0  0
  5  8  1  0  0  0  0
  9 12  1  0  0  0  0
  9  2  1  0  0  0  0
 10  9  1  0  0  0  0
 11  9  1  0  0  0  0
 13  3  1  0  0  0  0
 14 13  2  0  0  0  0
 15 16  1  0  0  0  0
 15 14  1  0  0  0  0
M  END
>  <minimizedAffinity>
-3.95935583

>  <minimizedRMSD>
2.18740463

$$$$
