
 OpenBabel03242510293D

 29 30  0  0  1  0  0  0  0  0999 V2000
   45.9300   32.9990   39.3430 C   0  0  1  0  0  0  0  0  0  0  0  0
   46.1130   34.0180   40.4280 C   0  0  0  0  0  0  0  0  0  0  0  0
   44.8910   33.8340   41.3310 C   0  0  0  0  0  0  0  0  0  0  0  0
   43.7200   34.4120   40.5470 C   0  0  0  0  0  0  0  0  0  0  0  0
   43.5190   33.7280   39.2430 C   0  0  0  0  0  0  0  0  0  0  0  0
   44.7300   33.3490   38.4850 C   0  0  2  0  0  0  0  0  0  0  0  0
   45.7080   32.0290   39.8220 H   0  0  0  0  0  0  0  0  0  0  0  0
   47.0620   33.9050   40.9520 H   0  0  0  0  0  0  0  0  0  0  0  0
   46.0080   35.0670   40.0260 H   0  0  0  0  0  0  0  0  0  0  0  0
   44.9880   34.3320   42.2920 H   0  0  0  0  0  0  0  0  0  0  0  0
   44.6810   32.7320   41.4130 H   0  0  0  0  0  0  0  0  0  0  0  0
   43.9830   35.4860   40.3500 H   0  0  0  0  0  0  0  0  0  0  0  0
   42.8140   34.3100   41.1550 H   0  0  0  0  0  0  0  0  0  0  0  0
   42.8610   32.8490   39.4090 H   0  0  0  0  0  0  0  0  0  0  0  0
   42.9250   34.4240   38.6030 H   0  0  0  0  0  0  0  0  0  0  0  0
   45.0720   34.1110   37.7590 H   0  0  0  0  0  0  0  0  0  0  0  0
   48.7300   33.6390   36.8700 C   0  0  0  0  0  0  0  0  0  0  0  0
   47.5970   33.9050   37.6510 C   0  0  0  0  0  0  0  0  0  0  0  0
   47.1140   32.8680   38.4730 C   0  0  0  0  0  0  0  0  0  0  0  0
   47.7960   31.6940   38.4360 N   0  0  0  0  0  0  0  0  0  0  0  0
   48.8740   31.4670   37.6820 C   0  0  0  0  0  0  0  0  0  0  0  0
   49.3470   32.4370   36.8960 N   0  0  0  0  0  0  0  0  0  0  0  0
   49.0840   34.4400   36.2490 H   0  0  0  0  0  0  0  0  0  0  0  0
   47.0730   34.8300   37.6700 H   0  0  0  0  0  0  0  0  0  0  0  0
   49.2920   30.4680   37.7790 H   0  0  0  0  0  0  0  0  0  0  0  0
   44.4060   32.1200   37.7050 C   0  0  0  0  0  3  0  0  0  0  0  0
   44.0680   30.9410   38.2100 C   0  0  0  0  0  3  0  0  0  0  0  0
   44.0000   30.8120   39.6730 C   0  0  0  0  0  2  0  0  0  0  0  0
   43.8940   29.7170   39.8960 H   0  0  0  0  0  0  0  0  0  0  0  0
  1  7  1  1  0  0  0
  1  2  1  0  0  0  0
  2  8  1  0  0  0  0
  2  3  1  0  0  0  0
  3 11  1  0  0  0  0
  3 10  1  0  0  0  0
  4 13  1  0  0  0  0
  4  3  1  0  0  0  0
  5 14  1  0  0  0  0
  5  4  1  0  0  0  0
  6 16  1  6  0  0  0
  6  5  1  0  0  0  0
  6  1  1  0  0  0  0
  9  2  1  0  0  0  0
 12  4  1  0  0  0  0
 15  5  1  0  0  0  0
 17 22  2  0  0  0  0
 17 18  1  0  0  0  0
 18 24  1  0  0  0  0
 18 19  2  0  0  0  0
 19  1  1  0  0  0  0
 20 19  1  0  0  0  0
 21 25  1  0  0  0  0
 21 20  2  0  0  0  0
 22 21  1  0  0  0  0
 23 17  1  0  0  0  0
 26 27  2  0  0  0  0
 26  6  1  0  0  0  0
 27 28  1  0  0  0  0
 28 29  1  0  0  0  0
M  END
>  <minimizedAffinity>
-2.62181687

>  <minimizedRMSD>
6.931602

$$$$
