
 OpenBabel03252501543D

 16 16  0  0  0  0  0  0  0  0999 V2000
   44.8670   34.9940   45.1380 C   0  0  0  0  0  0  0  0  0  0  0  0
   45.4010   35.2440   43.8810 C   0  0  0  0  0  0  0  0  0  0  0  0
   46.4540   34.4540   43.4420 C   0  0  0  0  0  0  0  0  0  0  0  0
   46.9280   33.4680   44.2470 N   0  0  0  0  0  0  0  0  0  0  0  0
   46.3770   33.2540   45.4730 C   0  0  0  0  0  0  0  0  0  0  0  0
   45.3550   34.0120   45.9140 N   0  0  0  0  0  0  0  0  0  0  0  0
   44.0550   35.5260   45.5980 H   0  0  0  0  0  0  0  0  0  0  0  0
   46.8760   32.4380   45.9680 H   0  0  0  0  0  0  0  0  0  0  0  0
   44.8150   36.3390   43.0860 C   0  0  0  0  0  0  0  0  0  0  0  0
   44.1980   35.9560   42.2500 H   0  0  0  0  0  0  0  0  0  0  0  0
   45.6670   36.8970   42.6010 H   0  0  0  0  0  0  0  0  0  0  0  0
   44.3140   37.0540   43.7440 H   0  0  0  0  0  0  0  0  0  0  0  0
   47.0330   34.6950   42.1270 C   0  0  0  0  0  3  0  0  0  0  0  0
   48.2300   35.2490   42.0290 C   0  0  0  0  0  3  0  0  0  0  0  0
   48.8230   35.4950   40.6780 C   0  0  0  0  0  2  0  0  0  0  0  0
   49.6310   36.2610   40.7340 H   0  0  0  0  0  0  0  0  0  0  0  0
  1  7  1  0  0  0  0
  1  6  1  0  0  0  0
  2  1  2  0  0  0  0
  3  2  1  0  0  0  0
  3  4  2  0  0  0  0
  4  5  1  0  0  0  0
  5  6  2  0  0  0  0
  5  8  1  0  0  0  0
  9 12  1  0  0  0  0
  9  2  1  0  0  0  0
 10  9  1  0  0  0  0
 11  9  1  0  0  0  0
 13  3  1  0  0  0  0
 14 13  2  0  0  0  0
 15 16  1  0  0  0  0
 15 14  1  0  0  0  0
M  END
>  <minimizedAffinity>
-3.95950317

>  <minimizedRMSD>
2.37966347

$$$$
