
 OpenBabel03252506253D

 40 43  0  0  0  0  0  0  0  0999 V2000
   45.7310   29.7350   47.9900 C   0  0  0  0  0  0  0  0  0  0  0  0
   45.2170   30.6770   48.2730 H   0  0  0  0  0  0  0  0  0  0  0  0
   45.8210   29.1780   48.9600 H   0  0  0  0  0  0  0  0  0  0  0  0
   44.4340   27.6410   47.2570 C   0  0  0  0  0  0  0  0  0  0  0  0
   44.9010   28.9180   47.1070 C   0  0  0  0  0  0  0  0  0  0  0  0
   44.5380   29.5650   45.9230 C   0  0  0  0  0  0  0  0  0  0  0  0
   43.7600   28.9490   44.9760 C   0  0  0  0  0  0  0  0  0  0  0  0
   43.2630   29.3160   43.7690 N   0  0  0  0  0  0  0  0  0  0  0  0
   42.5430   28.3300   43.2220 C   0  0  0  0  0  0  0  0  0  0  0  0
   42.5450   27.2580   44.0760 C   0  0  0  0  0  0  0  0  0  0  0  0
   43.3090   27.6770   45.1520 C   0  0  0  0  0  0  0  0  0  0  0  0
   43.6570   27.0180   46.3170 C   0  0  0  0  0  0  0  0  0  0  0  0
   44.7670   27.2290   48.1960 H   0  0  0  0  0  0  0  0  0  0  0  0
   44.8310   30.5690   45.6680 H   0  0  0  0  0  0  0  0  0  0  0  0
   43.4310   30.2510   43.3360 H   0  0  0  0  0  0  0  0  0  0  0  0
   42.0300   28.3420   42.2670 H   0  0  0  0  0  0  0  0  0  0  0  0
   42.0780   26.2910   43.9830 H   0  0  0  0  0  0  0  0  0  0  0  0
   43.1980   25.6560   46.5500 C   0  0  0  0  0  3  0  0  0  0  0  0
   41.9990   25.1730   46.7220 C   0  0  0  0  0  3  0  0  0  0  0  0
   40.6330   25.6970   46.7650 C   0  0  0  0  0  2  0  0  0  0  0  0
   40.5080   26.3700   47.6330 H   0  0  0  0  0  0  0  0  0  0  0  0
   47.0960   30.0480   47.5380 C   0  0  0  0  0  0  0  0  0  0  0  0
   47.5890   30.6400   48.3440 H   0  0  0  0  0  0  0  0  0  0  0  0
   47.7380   29.1850   47.3470 H   0  0  0  0  0  0  0  0  0  0  0  0
   46.5430   32.6430   45.1510 C   0  0  0  0  0  0  0  0  0  0  0  0
   47.4120   31.7980   44.4520 C   0  0  0  0  0  0  0  0  0  0  0  0
   47.7260   30.7310   45.2440 C   0  0  0  0  0  0  0  0  0  0  0  0
   47.0680   30.9280   46.3830 N   0  0  0  0  0  0  0  0  0  0  0  0
   46.3590   32.0650   46.3390 N   0  0  0  0  0  0  0  0  0  0  0  0
   47.7620   31.9930   43.4320 H   0  0  0  0  0  0  0  0  0  0  0  0
   48.3810   29.9290   44.9410 H   0  0  0  0  0  0  0  0  0  0  0  0
   44.5800   35.7070   44.8640 C   0  0  0  0  0  0  0  0  0  0  0  0
   44.9560   36.2190   43.6310 C   0  0  0  0  0  0  0  0  0  0  0  0
   45.9000   35.4970   42.8860 C   0  0  0  0  0  0  0  0  0  0  0  0
   46.3740   34.3480   43.4330 N   0  0  0  0  0  0  0  0  0  0  0  0
   45.9960   33.8840   44.6170 C   0  0  0  0  0  0  0  0  0  0  0  0
   45.0970   34.5670   45.3310 N   0  0  0  0  0  0  0  0  0  0  0  0
   43.8590   36.1830   45.5210 H   0  0  0  0  0  0  0  0  0  0  0  0
   44.5300   37.1290   43.2830 H   0  0  0  0  0  0  0  0  0  0  0  0
   46.2240   35.8610   41.9160 H   0  0  0  0  0  0  0  0  0  0  0  0
  1  2  1  0  0  0  0
  1  3  1  0  0  0  0
  4 13  1  0  0  0  0
  5  4  1  0  0  0  0
  5  1  1  0  0  0  0
  6  5  2  0  0  0  0
  7 11  2  0  0  0  0
  7  6  1  0  0  0  0
  8  7  1  0  0  0  0
  9  8  1  0  0  0  0
  9 10  2  0  0  0  0
 10 11  1  0  0  0  0
 11 12  1  0  0  0  0
 12 18  1  0  0  0  0
 12  4  2  0  0  0  0
 14  6  1  0  0  0  0
 15  8  1  0  0  0  0
 16  9  1  0  0  0  0
 17 10  1  0  0  0  0
 18 19  2  0  0  0  0
 19 20  1  0  0  0  0
 20 21  1  0  0  0  0
 22  1  1  0  0  0  0
 22 23  1  0  0  0  0
 24 22  1  0  0  0  0
 25 29  2  0  0  0  0
 26 25  1  0  0  0  0
 26 27  2  0  0  0  0
 27 28  1  0  0  0  0
 28 22  1  0  0  0  0
 29 28  1  0  0  0  0
 30 26  1  0  0  0  0
 31 27  1  0  0  0  0
 32 37  1  0  0  0  0
 32 38  1  0  0  0  0
 33 32  2  0  0  0  0
 34 35  2  0  0  0  0
 34 33  1  0  0  0  0
 35 36  1  0  0  0  0
 36 25  1  0  0  0  0
 36 37  2  0  0  0  0
 39 33  1  0  0  0  0
 40 34  1  0  0  0  0
M  END
>  <minimizedAffinity>
-5.12087488

>  <minimizedRMSD>
0.930388451

$$$$
