
 OpenBabel03242521193D

 33 34  0  0  0  0  0  0  0  0999 V2000
   37.6830   27.7890   43.5720 C   0  0  0  0  0  0  0  0  0  0  0  0
   37.8150   29.1250   43.1410 C   0  0  0  0  0  0  0  0  0  0  0  0
   37.8390   29.3480   41.7770 C   0  0  0  0  0  0  0  0  0  0  0  0
   37.7350   28.2760   40.9240 N   0  0  0  0  0  0  0  0  0  0  0  0
   37.6110   27.0250   41.3760 C   0  0  0  0  0  0  0  0  0  0  0  0
   37.5820   26.7580   42.7130 N   0  0  0  0  0  0  0  0  0  0  0  0
   37.6570   27.5460   44.6320 H   0  0  0  0  0  0  0  0  0  0  0  0
   37.8920   29.9180   43.8550 H   0  0  0  0  0  0  0  0  0  0  0  0
   37.9720   30.6960   41.3170 N   0  0  0  0  0  0  0  0  0  0  0  0
   39.1950   31.2620   41.3680 C   0  0  0  0  0  0  0  0  0  0  0  0
   39.3360   32.5750   40.9230 C   0  0  0  0  0  0  0  0  0  0  0  0
   38.2220   33.2160   40.4590 C   0  0  0  0  0  0  0  0  0  0  0  0
   38.3520   34.4230   40.0500 O   0  0  0  0  0  0  0  0  0  0  0  0
   36.9880   32.6580   40.4030 N   0  0  0  0  0  0  0  0  0  0  0  0
   36.9260   31.3900   40.8490 C   0  0  0  0  0  0  0  0  0  0  0  0
   35.8340   30.7780   40.8420 O   0  0  0  0  0  0  0  0  0  0  0  0
   40.0680   30.7510   41.7350 H   0  0  0  0  0  0  0  0  0  0  0  0
   40.3140   33.0350   40.9610 H   0  0  0  0  0  0  0  0  0  0  0  0
   36.1450   33.1600   40.0470 H   0  0  0  0  0  0  0  0  0  0  0  0
   37.5170   26.0610   40.2560 C   0  0  0  0  0  0  0  0  0  0  0  0
   38.4670   25.4820   40.2040 H   0  0  0  0  0  0  0  0  0  0  0  0
   36.7310   25.3050   40.4420 H   0  0  0  0  0  0  0  0  0  0  0  0
   37.2360   26.7720   38.9440 C   0  0  0  0  0  0  0  0  0  0  0  0
   37.4900   26.0720   38.1250 H   0  0  0  0  0  0  0  0  0  0  0  0
   37.8620   27.6610   38.8660 H   0  0  0  0  0  0  0  0  0  0  0  0
   35.4680   28.3320   38.3110 C   0  0  0  0  0  0  0  0  0  0  0  0
   36.3810   29.0750   37.9030 O   0  0  0  0  0  0  0  0  0  0  0  0
   35.8290   27.1040   38.8810 N   0  0  0  0  0  0  0  0  0  0  0  0
   35.1250   26.4290   39.2540 H   0  0  0  0  0  0  0  0  0  0  0  0
   34.0740   28.7430   38.1910 C   0  0  0  0  0  3  0  0  0  0  0  0
   33.3760   29.0270   37.1160 C   0  0  0  0  0  3  0  0  0  0  0  0
   31.9760   29.4400   36.9770 C   0  0  0  0  0  2  0  0  0  0  0  0
   31.9050   30.2240   36.2000 H   0  0  0  0  0  0  0  0  0  0  0  0
  1  7  1  0  0  0  0
  2  1  1  0  0  0  0
  2  8  1  0  0  0  0
  3  2  2  0  0  0  0
  4  5  2  0  0  0  0
  4  3  1  0  0  0  0
  5  6  1  0  0  0  0
  6  1  2  0  0  0  0
  9 10  1  0  0  0  0
  9  3  1  0  0  0  0
 10 17  1  0  0  0  0
 11 18  1  0  0  0  0
 11 10  2  0  0  0  0
 12 11  1  0  0  0  0
 13 12  2  0  0  0  0
 14 12  1  0  0  0  0
 14 15  1  0  0  0  0
 15  9  1  0  0  0  0
 16 15  2  0  0  0  0
 19 14  1  0  0  0  0
 20 22  1  0  0  0  0
 20  5  1  0  0  0  0
 21 20  1  0  0  0  0
 23 20  1  0  0  0  0
 24 23  1  0  0  0  0
 25 23  1  0  0  0  0
 26 28  1  0  0  0  0
 27 26  2  0  0  0  0
 28 23  1  0  0  0  0
 28 29  1  0  0  0  0
 30 26  1  0  0  0  0
 31 30  2  0  0  0  0
 32 31  1  0  0  0  0
 33 32  1  0  0  0  0
M  END
>  <minimizedAffinity>
-5.4877038

$$$$

 OpenBabel03242521193D

 33 34  0  0  0  0  0  0  0  0999 V2000
   36.5710   31.4370   40.4100 C   0  0  0  0  0  0  0  0  0  0  0  0
   37.5380   32.1910   39.7140 C   0  0  0  0  0  0  0  0  0  0  0  0
   38.8620   31.9990   40.0670 C   0  0  0  0  0  0  0  0  0  0  0  0
   39.1630   31.1000   41.0600 N   0  0  0  0  0  0  0  0  0  0  0  0
   38.2150   30.4060   41.6950 C   0  0  0  0  0  0  0  0  0  0  0  0
   36.8970   30.5620   41.3800 N   0  0  0  0  0  0  0  0  0  0  0  0
   35.5130   31.5410   40.1810 H   0  0  0  0  0  0  0  0  0  0  0  0
   37.2410   32.8770   38.9480 H   0  0  0  0  0  0  0  0  0  0  0  0
   39.8600   32.7540   39.3720 N   0  0  0  0  0  0  0  0  0  0  0  0
   40.3550   33.8520   39.9790 C   0  0  0  0  0  0  0  0  0  0  0  0
   41.3270   34.5940   39.3110 C   0  0  0  0  0  0  0  0  0  0  0  0
   41.7240   34.1640   38.0750 C   0  0  0  0  0  0  0  0  0  0  0  0
   42.6180   34.8470   37.4620 O   0  0  0  0  0  0  0  0  0  0  0  0
   41.2330   33.0630   37.4570 N   0  0  0  0  0  0  0  0  0  0  0  0
   40.2990   32.3960   38.1580 C   0  0  0  0  0  0  0  0  0  0  0  0
   39.7770   31.3630   37.6800 O   0  0  0  0  0  0  0  0  0  0  0  0
   40.0380   34.1840   40.9510 H   0  0  0  0  0  0  0  0  0  0  0  0
   41.7290   35.4750   39.7910 H   0  0  0  0  0  0  0  0  0  0  0  0
   41.5440   32.7470   36.5120 H   0  0  0  0  0  0  0  0  0  0  0  0
   38.8040   29.5100   42.7160 C   0  0  0  0  0  0  0  0  0  0  0  0
   39.5650   28.8630   42.2260 H   0  0  0  0  0  0  0  0  0  0  0  0
   39.3640   30.0840   43.4780 H   0  0  0  0  0  0  0  0  0  0  0  0
   37.7320   28.6770   43.3960 C   0  0  0  0  0  0  0  0  0  0  0  0
   36.9940   29.3780   43.8340 H   0  0  0  0  0  0  0  0  0  0  0  0
   38.1790   28.0820   44.1930 H   0  0  0  0  0  0  0  0  0  0  0  0
   37.5580   26.5380   42.2350 C   0  0  0  0  0  0  0  0  0  0  0  0
   38.5220   26.1710   42.9350 O   0  0  0  0  0  0  0  0  0  0  0  0
   37.0830   27.8440   42.4070 N   0  0  0  0  0  0  0  0  0  0  0  0
   36.2870   28.2310   41.8540 H   0  0  0  0  0  0  0  0  0  0  0  0
   36.9560   25.6230   41.2710 C   0  0  0  0  0  3  0  0  0  0  0  0
   37.1170   24.3260   41.1380 C   0  0  0  0  0  3  0  0  0  0  0  0
   36.5200   23.3930   40.1780 C   0  0  0  0  0  2  0  0  0  0  0  0
   37.2900   22.6670   39.8520 H   0  0  0  0  0  0  0  0  0  0  0  0
  1  6  1  0  0  0  0
  2  3  1  0  0  0  0
  2  1  2  0  0  0  0
  3  4  2  0  0  0  0
  4  5  1  0  0  0  0
  5 20  1  0  0  0  0
  6  5  2  0  0  0  0
  7  1  1  0  0  0  0
  8  2  1  0  0  0  0
  9 10  1  0  0  0  0
  9  3  1  0  0  0  0
 10 17  1  0  0  0  0
 11 18  1  0  0  0  0
 11 10  2  0  0  0  0
 12 11  1  0  0  0  0
 13 12  2  0  0  0  0
 14 12  1  0  0  0  0
 14 15  1  0  0  0  0
 15  9  1  0  0  0  0
 16 15  2  0  0  0  0
 19 14  1  0  0  0  0
 20 23  1  0  0  0  0
 20 22  1  0  0  0  0
 21 20  1  0  0  0  0
 23 24  1  0  0  0  0
 23 25  1  0  0  0  0
 26 28  1  0  0  0  0
 26 27  2  0  0  0  0
 28 23  1  0  0  0  0
 29 28  1  0  0  0  0
 30 26  1  0  0  0  0
 31 30  2  0  0  0  0
 32 31  1  0  0  0  0
 33 32  1  0  0  0  0
M  END
>  <minimizedAffinity>
-5.41370726

$$$$

 OpenBabel03242521193D

 33 34  0  0  0  0  0  0  0  0999 V2000
   37.1610   27.7530   43.8030 C   0  0  0  0  0  0  0  0  0  0  0  0
   37.3680   29.0570   43.3050 C   0  0  0  0  0  0  0  0  0  0  0  0
   37.5500   29.1880   41.9410 C   0  0  0  0  0  0  0  0  0  0  0  0
   37.5220   28.0640   41.1530 N   0  0  0  0  0  0  0  0  0  0  0  0
   37.3230   26.8470   41.6670 C   0  0  0  0  0  0  0  0  0  0  0  0
   37.1380   26.6690   43.0070 N   0  0  0  0  0  0  0  0  0  0  0  0
   37.0110   27.5810   44.8670 H   0  0  0  0  0  0  0  0  0  0  0  0
   37.3790   29.8940   43.9710 H   0  0  0  0  0  0  0  0  0  0  0  0
   37.7610   30.5020   41.4130 N   0  0  0  0  0  0  0  0  0  0  0  0
   39.0030   31.0210   41.4930 C   0  0  0  0  0  0  0  0  0  0  0  0
   39.2180   32.3000   40.9830 C   0  0  0  0  0  0  0  0  0  0  0  0
   38.1550   32.9560   40.4290 C   0  0  0  0  0  0  0  0  0  0  0  0
   38.3540   34.1310   39.9600 O   0  0  0  0  0  0  0  0  0  0  0  0
   36.9030   32.4440   40.3450 N   0  0  0  0  0  0  0  0  0  0  0  0
   36.7670   31.2070   40.8570 C   0  0  0  0  0  0  0  0  0  0  0  0
   35.6520   30.6390   40.8310 O   0  0  0  0  0  0  0  0  0  0  0  0
   39.8350   30.4990   41.9300 H   0  0  0  0  0  0  0  0  0  0  0  0
   40.2120   32.7220   41.0430 H   0  0  0  0  0  0  0  0  0  0  0  0
   36.0990   32.9570   39.9200 H   0  0  0  0  0  0  0  0  0  0  0  0
   37.3380   25.8120   40.6070 C   0  0  0  0  0  0  0  0  0  0  0  0
   36.3760   25.2530   40.6430 H   0  0  0  0  0  0  0  0  0  0  0  0
   37.3650   26.2690   39.6010 H   0  0  0  0  0  0  0  0  0  0  0  0
   38.5220   24.8770   40.7720 C   0  0  0  0  0  0  0  0  0  0  0  0
   38.7770   24.4830   39.7690 H   0  0  0  0  0  0  0  0  0  0  0  0
   38.2500   24.0490   41.4270 H   0  0  0  0  0  0  0  0  0  0  0  0
   40.2670   25.1480   42.4580 C   0  0  0  0  0  0  0  0  0  0  0  0
   39.8110   24.1120   42.9800 O   0  0  0  0  0  0  0  0  0  0  0  0
   39.6440   25.6260   41.2980 N   0  0  0  0  0  0  0  0  0  0  0  0
   39.9590   26.4910   40.8060 H   0  0  0  0  0  0  0  0  0  0  0  0
   41.4130   25.8290   43.0500 C   0  0  0  0  0  3  0  0  0  0  0  0
   42.6210   25.3760   43.2910 C   0  0  0  0  0  3  0  0  0  0  0  0
   43.7830   26.0450   43.8840 C   0  0  0  0  0  2  0  0  0  0  0  0
   44.3000   25.3400   44.5620 H   0  0  0  0  0  0  0  0  0  0  0  0
  1  7  1  0  0  0  0
  2  1  1  0  0  0  0
  2  8  1  0  0  0  0
  3  2  2  0  0  0  0
  4  5  2  0  0  0  0
  4  3  1  0  0  0  0
  5  6  1  0  0  0  0
  6  1  2  0  0  0  0
  9 10  1  0  0  0  0
  9  3  1  0  0  0  0
 10 17  1  0  0  0  0
 11 18  1  0  0  0  0
 11 10  2  0  0  0  0
 12 11  1  0  0  0  0
 13 12  2  0  0  0  0
 14 12  1  0  0  0  0
 14 15  1  0  0  0  0
 15  9  1  0  0  0  0
 16 15  2  0  0  0  0
 19 14  1  0  0  0  0
 20 21  1  0  0  0  0
 20 23  1  0  0  0  0
 20  5  1  0  0  0  0
 22 20  1  0  0  0  0
 23 28  1  0  0  0  0
 23 25  1  0  0  0  0
 24 23  1  0  0  0  0
 26 27  2  0  0  0  0
 26 30  1  0  0  0  0
 28 26  1  0  0  0  0
 29 28  1  0  0  0  0
 30 31  2  0  0  0  0
 31 32  1  0  0  0  0
 32 33  1  0  0  0  0
M  END
>  <minimizedAffinity>
-5.37824678

$$$$

 OpenBabel03242521193D

 33 34  0  0  0  0  0  0  0  0999 V2000
   37.4060   30.9070   37.5880 C   0  0  0  0  0  0  0  0  0  0  0  0
   38.4760   31.7040   38.0440 C   0  0  0  0  0  0  0  0  0  0  0  0
   38.5860   31.8910   39.4100 C   0  0  0  0  0  0  0  0  0  0  0  0
   37.6640   31.3020   40.2400 N   0  0  0  0  0  0  0  0  0  0  0  0
   36.6640   30.5540   39.7650 C   0  0  0  0  0  0  0  0  0  0  0  0
   36.5160   30.3420   38.4260 N   0  0  0  0  0  0  0  0  0  0  0  0
   37.2630   30.7220   36.5260 H   0  0  0  0  0  0  0  0  0  0  0  0
   39.1630   32.1370   37.3470 H   0  0  0  0  0  0  0  0  0  0  0  0
   39.6650   32.6960   39.8950 N   0  0  0  0  0  0  0  0  0  0  0  0
   40.8840   32.1270   39.9880 C   0  0  0  0  0  0  0  0  0  0  0  0
   41.9420   32.9020   40.4590 C   0  0  0  0  0  0  0  0  0  0  0  0
   41.6810   34.1990   40.8020 C   0  0  0  0  0  0  0  0  0  0  0  0
   42.6540   34.9110   41.2350 O   0  0  0  0  0  0  0  0  0  0  0  0
   40.4610   34.7810   40.7130 N   0  0  0  0  0  0  0  0  0  0  0  0
   39.4880   33.9750   40.2510 C   0  0  0  0  0  0  0  0  0  0  0  0
   38.3200   34.4110   40.1290 O   0  0  0  0  0  0  0  0  0  0  0  0
   41.0820   31.1050   39.7170 H   0  0  0  0  0  0  0  0  0  0  0  0
   42.9220   32.4520   40.5360 H   0  0  0  0  0  0  0  0  0  0  0  0
   40.2760   35.7740   40.9790 H   0  0  0  0  0  0  0  0  0  0  0  0
   35.8160   30.0380   40.8640 C   0  0  0  0  0  0  0  0  0  0  0  0
   36.0920   30.5660   41.8050 H   0  0  0  0  0  0  0  0  0  0  0  0
   34.7510   30.2860   40.6990 H   0  0  0  0  0  0  0  0  0  0  0  0
   35.9690   28.5350   41.0130 C   0  0  0  0  0  0  0  0  0  0  0  0
   35.9140   28.0930   39.9990 H   0  0  0  0  0  0  0  0  0  0  0  0
   35.1550   28.1410   41.6230 H   0  0  0  0  0  0  0  0  0  0  0  0
   37.2910   27.6520   42.8650 C   0  0  0  0  0  0  0  0  0  0  0  0
   36.2020   27.4140   43.4230 O   0  0  0  0  0  0  0  0  0  0  0  0
   37.2610   28.2480   41.5980 N   0  0  0  0  0  0  0  0  0  0  0  0
   38.1290   28.4880   41.0690 H   0  0  0  0  0  0  0  0  0  0  0  0
   38.5470   27.3130   43.5250 C   0  0  0  0  0  3  0  0  0  0  0  0
   39.7790   27.6030   43.1750 C   0  0  0  0  0  3  0  0  0  0  0  0
   41.0500   27.2730   43.8250 C   0  0  0  0  0  2  0  0  0  0  0  0
   41.7940   27.0020   43.0510 H   0  0  0  0  0  0  0  0  0  0  0  0
  1  2  2  0  0  0  0
  1  6  1  0  0  0  0
  2  3  1  0  0  0  0
  3  9  1  0  0  0  0
  3  4  2  0  0  0  0
  5  4  1  0  0  0  0
  5 20  1  0  0  0  0
  6  5  2  0  0  0  0
  7  1  1  0  0  0  0
  8  2  1  0  0  0  0
  9 10  1  0  0  0  0
  9 15  1  0  0  0  0
 10 11  2  0  0  0  0
 11 18  1  0  0  0  0
 11 12  1  0  0  0  0
 12 13  2  0  0  0  0
 14 12  1  0  0  0  0
 14 19  1  0  0  0  0
 15 14  1  0  0  0  0
 16 15  2  0  0  0  0
 17 10  1  0  0  0  0
 20 23  1  0  0  0  0
 20 21  1  0  0  0  0
 22 20  1  0  0  0  0
 23 28  1  0  0  0  0
 23 25  1  0  0  0  0
 24 23  1  0  0  0  0
 26 27  2  0  0  0  0
 26 30  1  0  0  0  0
 28 26  1  0  0  0  0
 29 28  1  0  0  0  0
 31 30  2  0  0  0  0
 31 32  1  0  0  0  0
 33 32  1  0  0  0  0
M  END
>  <minimizedAffinity>
-5.35768366

$$$$

 OpenBabel03242521193D

 33 34  0  0  0  0  0  0  0  0999 V2000
   36.9570   31.6520   38.9420 C   0  0  0  0  0  0  0  0  0  0  0  0
   37.2920   30.5620   39.7730 C   0  0  0  0  0  0  0  0  0  0  0  0
   38.1300   30.8200   40.8420 C   0  0  0  0  0  0  0  0  0  0  0  0
   38.5870   32.0990   41.0390 N   0  0  0  0  0  0  0  0  0  0  0  0
   38.2440   33.1030   40.2260 C   0  0  0  0  0  0  0  0  0  0  0  0
   37.4200   32.8970   39.1590 N   0  0  0  0  0  0  0  0  0  0  0  0
   36.3020   31.5170   38.0840 H   0  0  0  0  0  0  0  0  0  0  0  0
   36.9040   29.5870   39.5670 H   0  0  0  0  0  0  0  0  0  0  0  0
   38.4830   29.7290   41.6990 N   0  0  0  0  0  0  0  0  0  0  0  0
   37.6050   29.3700   42.6570 C   0  0  0  0  0  0  0  0  0  0  0  0
   37.9390   28.3100   43.4970 C   0  0  0  0  0  0  0  0  0  0  0  0
   39.1420   27.6920   43.2990 C   0  0  0  0  0  0  0  0  0  0  0  0
   39.4480   26.7170   44.0720 O   0  0  0  0  0  0  0  0  0  0  0  0
   40.0320   28.0440   42.3400 N   0  0  0  0  0  0  0  0  0  0  0  0
   39.6440   29.0740   41.5670 C   0  0  0  0  0  0  0  0  0  0  0  0
   40.3920   29.4830   40.6490 O   0  0  0  0  0  0  0  0  0  0  0  0
   36.6600   29.8610   42.8070 H   0  0  0  0  0  0  0  0  0  0  0  0
   37.2390   28.0170   44.2670 H   0  0  0  0  0  0  0  0  0  0  0  0
   40.9480   27.5630   42.2010 H   0  0  0  0  0  0  0  0  0  0  0  0
   38.8680   34.3750   40.6580 C   0  0  0  0  0  0  0  0  0  0  0  0
   38.1360   35.2000   40.5080 H   0  0  0  0  0  0  0  0  0  0  0  0
   39.0750   34.3720   41.7450 H   0  0  0  0  0  0  0  0  0  0  0  0
   40.1560   34.6380   39.8980 C   0  0  0  0  0  0  0  0  0  0  0  0
   40.9840   34.6300   40.6340 H   0  0  0  0  0  0  0  0  0  0  0  0
   40.1080   35.6170   39.4210 H   0  0  0  0  0  0  0  0  0  0  0  0
   41.5050   33.6310   38.1310 C   0  0  0  0  0  0  0  0  0  0  0  0
   42.2850   34.5900   38.2910 O   0  0  0  0  0  0  0  0  0  0  0  0
   40.3560   33.5810   38.9300 N   0  0  0  0  0  0  0  0  0  0  0  0
   39.6490   32.8170   38.8520 H   0  0  0  0  0  0  0  0  0  0  0  0
   41.7960   32.6020   37.1390 C   0  0  0  0  0  3  0  0  0  0  0  0
   42.4650   31.4800   37.2720 C   0  0  0  0  0  3  0  0  0  0  0  0
   42.7660   30.4350   36.2880 C   0  0  0  0  0  2  0  0  0  0  0  0
   43.8050   30.0850   36.4380 H   0  0  0  0  0  0  0  0  0  0  0  0
  1  6  2  0  0  0  0
  1  2  1  0  0  0  0
  2  3  2  0  0  0  0
  3  4  1  0  0  0  0
  3  9  1  0  0  0  0
  5 20  1  0  0  0  0
  5  4  2  0  0  0  0
  6  5  1  0  0  0  0
  7  1  1  0  0  0  0
  8  2  1  0  0  0  0
  9 10  1  0  0  0  0
 10 17  1  0  0  0  0
 10 11  2  0  0  0  0
 11 18  1  0  0  0  0
 12 11  1  0  0  0  0
 12 13  2  0  0  0  0
 14 12  1  0  0  0  0
 15  9  1  0  0  0  0
 15 14  1  0  0  0  0
 16 15  2  0  0  0  0
 19 14  1  0  0  0  0
 20 22  1  0  0  0  0
 21 20  1  0  0  0  0
 23 24  1  0  0  0  0
 23 20  1  0  0  0  0
 25 23  1  0  0  0  0
 26 27  2  0  0  0  0
 26 28  1  0  0  0  0
 28 23  1  0  0  0  0
 29 28  1  0  0  0  0
 30 31  2  0  0  0  0
 30 26  1  0  0  0  0
 32 33  1  0  0  0  0
 32 31  1  0  0  0  0
M  END
>  <minimizedAffinity>
-5.24808073

$$$$

 OpenBabel03242521193D

 33 34  0  0  0  0  0  0  0  0999 V2000
   37.0270   28.1840   43.7400 C   0  0  0  0  0  0  0  0  0  0  0  0
   36.8950   26.9140   43.1390 C   0  0  0  0  0  0  0  0  0  0  0  0
   37.8830   26.5320   42.2500 C   0  0  0  0  0  0  0  0  0  0  0  0
   38.9230   27.3930   41.9990 N   0  0  0  0  0  0  0  0  0  0  0  0
   39.0090   28.5880   42.5910 C   0  0  0  0  0  0  0  0  0  0  0  0
   38.0590   29.0060   43.4750 N   0  0  0  0  0  0  0  0  0  0  0  0
   36.2840   28.5440   44.4480 H   0  0  0  0  0  0  0  0  0  0  0  0
   36.0600   26.2890   43.3750 H   0  0  0  0  0  0  0  0  0  0  0  0
   37.7700   25.2480   41.6290 N   0  0  0  0  0  0  0  0  0  0  0  0
   36.8810   25.1090   40.6240 C   0  0  0  0  0  0  0  0  0  0  0  0
   36.7620   23.8630   40.0130 C   0  0  0  0  0  0  0  0  0  0  0  0
   37.5570   22.8490   40.4700 C   0  0  0  0  0  0  0  0  0  0  0  0
   37.4480   21.7030   39.9070 O   0  0  0  0  0  0  0  0  0  0  0  0
   38.4530   22.9760   41.4780 N   0  0  0  0  0  0  0  0  0  0  0  0
   38.5140   24.2060   42.0210 C   0  0  0  0  0  0  0  0  0  0  0  0
   39.3080   24.4350   42.9620 O   0  0  0  0  0  0  0  0  0  0  0  0
   36.2580   25.9120   40.2700 H   0  0  0  0  0  0  0  0  0  0  0  0
   36.0520   23.7440   39.2070 H   0  0  0  0  0  0  0  0  0  0  0  0
   39.0530   22.1920   41.8170 H   0  0  0  0  0  0  0  0  0  0  0  0
   40.2210   29.3150   42.1500 C   0  0  0  0  0  0  0  0  0  0  0  0
   40.5880   29.9400   42.9950 H   0  0  0  0  0  0  0  0  0  0  0  0
   41.0510   28.6160   41.9310 H   0  0  0  0  0  0  0  0  0  0  0  0
   39.9350   30.1620   40.9230 C   0  0  0  0  0  0  0  0  0  0  0  0
   40.7140   29.9300   40.1700 H   0  0  0  0  0  0  0  0  0  0  0  0
   39.9910   31.2190   41.1850 H   0  0  0  0  0  0  0  0  0  0  0  0
   37.6390   30.7970   40.3930 C   0  0  0  0  0  0  0  0  0  0  0  0
   37.9290   31.9190   40.8500 O   0  0  0  0  0  0  0  0  0  0  0  0
   38.6330   29.8100   40.4000 N   0  0  0  0  0  0  0  0  0  0  0  0
   38.4680   28.8420   40.0440 H   0  0  0  0  0  0  0  0  0  0  0  0
   36.3020   30.5360   39.8710 C   0  0  0  0  0  3  0  0  0  0  0  0
   35.5540   29.4630   39.9880 C   0  0  0  0  0  3  0  0  0  0  0  0
   34.2110   29.1840   39.4720 C   0  0  0  0  0  2  0  0  0  0  0  0
   34.1710   28.1400   39.1090 H   0  0  0  0  0  0  0  0  0  0  0  0
  1  7  1  0  0  0  0
  2  8  1  0  0  0  0
  2  1  2  0  0  0  0
  3  2  1  0  0  0  0
  4  3  2  0  0  0  0
  4  5  1  0  0  0  0
  5  6  2  0  0  0  0
  6  1  1  0  0  0  0
  9 15  1  0  0  0  0
  9  3  1  0  0  0  0
 10  9  1  0  0  0  0
 11 12  1  0  0  0  0
 11 10  2  0  0  0  0
 12 14  1  0  0  0  0
 13 12  2  0  0  0  0
 14 19  1  0  0  0  0
 14 15  1  0  0  0  0
 15 16  2  0  0  0  0
 17 10  1  0  0  0  0
 18 11  1  0  0  0  0
 20  5  1  0  0  0  0
 20 21  1  0  0  0  0
 22 20  1  0  0  0  0
 23 25  1  0  0  0  0
 23 20  1  0  0  0  0
 24 23  1  0  0  0  0
 26 28  1  0  0  0  0
 26 27  2  0  0  0  0
 28 23  1  0  0  0  0
 29 28  1  0  0  0  0
 30 31  2  0  0  0  0
 30 26  1  0  0  0  0
 32 31  1  0  0  0  0
 33 32  1  0  0  0  0
M  END
>  <minimizedAffinity>
-5.15328789

$$$$

 OpenBabel03242521193D

 33 34  0  0  0  0  0  0  0  0999 V2000
   36.0330   30.7680   40.9300 C   0  0  0  0  0  0  0  0  0  0  0  0
   37.0910   31.4270   40.2700 C   0  0  0  0  0  0  0  0  0  0  0  0
   37.9690   30.6410   39.5450 C   0  0  0  0  0  0  0  0  0  0  0  0
   37.7710   29.2830   39.5060 N   0  0  0  0  0  0  0  0  0  0  0  0
   36.7540   28.6990   40.1470 C   0  0  0  0  0  0  0  0  0  0  0  0
   35.8640   29.4340   40.8730 N   0  0  0  0  0  0  0  0  0  0  0  0
   35.3090   31.3280   41.5170 H   0  0  0  0  0  0  0  0  0  0  0  0
   37.1920   32.4890   40.3380 H   0  0  0  0  0  0  0  0  0  0  0  0
   39.0490   31.2890   38.8670 N   0  0  0  0  0  0  0  0  0  0  0  0
   40.1970   31.4810   39.5480 C   0  0  0  0  0  0  0  0  0  0  0  0
   41.2550   32.1110   38.8970 C   0  0  0  0  0  0  0  0  0  0  0  0
   41.0680   32.5000   37.6000 C   0  0  0  0  0  0  0  0  0  0  0  0
   42.0410   33.0790   37.0020 O   0  0  0  0  0  0  0  0  0  0  0  0
   39.9190   32.3120   36.9060 N   0  0  0  0  0  0  0  0  0  0  0  0
   38.9410   31.6980   37.5960 C   0  0  0  0  0  0  0  0  0  0  0  0
   37.8370   31.4750   37.0500 O   0  0  0  0  0  0  0  0  0  0  0  0
   40.3370   31.1730   40.5690 H   0  0  0  0  0  0  0  0  0  0  0  0
   42.1780   32.2680   39.4370 H   0  0  0  0  0  0  0  0  0  0  0  0
   39.7900   32.6150   35.9150 H   0  0  0  0  0  0  0  0  0  0  0  0
   36.7670   27.2320   39.9430 C   0  0  0  0  0  0  0  0  0  0  0  0
   35.7310   26.8950   39.7140 H   0  0  0  0  0  0  0  0  0  0  0  0
   37.3610   26.9570   39.0510 H   0  0  0  0  0  0  0  0  0  0  0  0
   37.3210   26.5150   41.1610 C   0  0  0  0  0  0  0  0  0  0  0  0
   37.3420   25.4320   40.9290 H   0  0  0  0  0  0  0  0  0  0  0  0
   36.6680   26.6880   42.0180 H   0  0  0  0  0  0  0  0  0  0  0  0
   38.9290   27.5970   42.6460 C   0  0  0  0  0  0  0  0  0  0  0  0
   37.9840   27.7150   43.4500 O   0  0  0  0  0  0  0  0  0  0  0  0
   38.6660   26.9840   41.4140 N   0  0  0  0  0  0  0  0  0  0  0  0
   39.4000   26.8550   40.6820 H   0  0  0  0  0  0  0  0  0  0  0  0
   40.2580   28.0860   42.9920 C   0  0  0  0  0  3  0  0  0  0  0  0
   40.8610   29.1960   42.6300 C   0  0  0  0  0  3  0  0  0  0  0  0
   42.1940   29.7030   42.9690 C   0  0  0  0  0  2  0  0  0  0  0  0
   42.6460   30.1620   42.0700 H   0  0  0  0  0  0  0  0  0  0  0  0
  1  7  1  0  0  0  0
  2  8  1  0  0  0  0
  2  1  2  0  0  0  0
  3  2  1  0  0  0  0
  4  3  2  0  0  0  0
  4  5  1  0  0  0  0
  5  6  2  0  0  0  0
  6  1  1  0  0  0  0
  9  3  1  0  0  0  0
  9 10  1  0  0  0  0
 10 17  1  0  0  0  0
 11 18  1  0  0  0  0
 11 10  2  0  0  0  0
 12 11  1  0  0  0  0
 13 12  2  0  0  0  0
 14 15  1  0  0  0  0
 14 12  1  0  0  0  0
 15  9  1  0  0  0  0
 16 15  2  0  0  0  0
 19 14  1  0  0  0  0
 20  5  1  0  0  0  0
 20 23  1  0  0  0  0
 21 20  1  0  0  0  0
 22 20  1  0  0  0  0
 23 28  1  0  0  0  0
 23 25  1  0  0  0  0
 24 23  1  0  0  0  0
 26 30  1  0  0  0  0
 26 27  2  0  0  0  0
 28 26  1  0  0  0  0
 29 28  1  0  0  0  0
 31 32  1  0  0  0  0
 31 30  2  0  0  0  0
 33 32  1  0  0  0  0
M  END
>  <minimizedAffinity>
-5.14726686

$$$$

 OpenBabel03242521193D

 33 34  0  0  0  0  0  0  0  0999 V2000
   39.8480   24.6410   43.0850 C   0  0  0  0  0  0  0  0  0  0  0  0
   39.0470   24.2370   41.9970 C   0  0  0  0  0  0  0  0  0  0  0  0
   38.1000   25.1370   41.5430 C   0  0  0  0  0  0  0  0  0  0  0  0
   37.9890   26.3570   42.1630 N   0  0  0  0  0  0  0  0  0  0  0  0
   38.7690   26.6990   43.1930 C   0  0  0  0  0  0  0  0  0  0  0  0
   39.7160   25.8440   43.6750 N   0  0  0  0  0  0  0  0  0  0  0  0
   40.6110   23.9790   43.4900 H   0  0  0  0  0  0  0  0  0  0  0  0
   39.1820   23.2720   41.5550 H   0  0  0  0  0  0  0  0  0  0  0  0
   37.2770   24.7490   40.4380 N   0  0  0  0  0  0  0  0  0  0  0  0
   36.2610   23.8960   40.6790 C   0  0  0  0  0  0  0  0  0  0  0  0
   35.4540   23.5110   39.6110 C   0  0  0  0  0  0  0  0  0  0  0  0
   35.7400   24.0230   38.3760 C   0  0  0  0  0  0  0  0  0  0  0  0
   34.9970   23.6680   37.3940 O   0  0  0  0  0  0  0  0  0  0  0  0
   36.7580   24.8800   38.1230 N   0  0  0  0  0  0  0  0  0  0  0  0
   37.4960   25.2080   39.1990 C   0  0  0  0  0  0  0  0  0  0  0  0
   38.4630   25.9940   39.0780 O   0  0  0  0  0  0  0  0  0  0  0  0
   36.0420   23.4970   41.6540 H   0  0  0  0  0  0  0  0  0  0  0  0
   34.6370   22.8270   39.7960 H   0  0  0  0  0  0  0  0  0  0  0  0
   36.9660   25.2620   37.1730 H   0  0  0  0  0  0  0  0  0  0  0  0
   38.4460   28.0610   43.6760 C   0  0  0  0  0  0  0  0  0  0  0  0
   38.5610   28.0820   44.7840 H   0  0  0  0  0  0  0  0  0  0  0  0
   39.1750   28.8030   43.2990 H   0  0  0  0  0  0  0  0  0  0  0  0
   37.0450   28.4710   43.2620 C   0  0  0  0  0  0  0  0  0  0  0  0
   36.4710   28.6790   44.1870 H   0  0  0  0  0  0  0  0  0  0  0  0
   36.5680   27.6540   42.7180 H   0  0  0  0  0  0  0  0  0  0  0  0
   36.3510   29.7340   41.2920 C   0  0  0  0  0  0  0  0  0  0  0  0
   35.6500   28.7440   41.0040 O   0  0  0  0  0  0  0  0  0  0  0  0
   37.1220   29.6720   42.4590 N   0  0  0  0  0  0  0  0  0  0  0  0
   37.7430   30.4540   42.7650 H   0  0  0  0  0  0  0  0  0  0  0  0
   36.3550   30.9100   40.4290 C   0  0  0  0  0  3  0  0  0  0  0  0
   37.2110   31.9040   40.3770 C   0  0  0  0  0  3  0  0  0  0  0  0
   37.2320   33.0920   39.5180 C   0  0  0  0  0  2  0  0  0  0  0  0
   37.5450   33.9670   40.1170 H   0  0  0  0  0  0  0  0  0  0  0  0
  1  7  1  0  0  0  0
  1  6  1  0  0  0  0
  2  1  2  0  0  0  0
  3  2  1  0  0  0  0
  3  4  2  0  0  0  0
  4  5  1  0  0  0  0
  5  6  2  0  0  0  0
  5 20  1  0  0  0  0
  8  2  1  0  0  0  0
  9 10  1  0  0  0  0
  9  3  1  0  0  0  0
 10 17  1  0  0  0  0
 11 18  1  0  0  0  0
 11 10  2  0  0  0  0
 12 11  1  0  0  0  0
 13 12  2  0  0  0  0
 14 12  1  0  0  0  0
 14 15  1  0  0  0  0
 15  9  1  0  0  0  0
 16 15  2  0  0  0  0
 19 14  1  0  0  0  0
 20 21  1  0  0  0  0
 22 20  1  0  0  0  0
 23 20  1  0  0  0  0
 23 24  1  0  0  0  0
 25 23  1  0  0  0  0
 26 28  1  0  0  0  0
 27 26  2  0  0  0  0
 28 29  1  0  0  0  0
 28 23  1  0  0  0  0
 30 26  1  0  0  0  0
 31 30  2  0  0  0  0
 32 33  1  0  0  0  0
 32 31  1  0  0  0  0
M  END
>  <minimizedAffinity>
-5.12173128

$$$$

 OpenBabel03242521193D

 33 34  0  0  0  0  0  0  0  0999 V2000
   40.0800   30.6350   38.1960 C   0  0  0  0  0  0  0  0  0  0  0  0
   41.0930   31.3320   38.8860 C   0  0  0  0  0  0  0  0  0  0  0  0
   40.6930   32.2090   39.8770 C   0  0  0  0  0  0  0  0  0  0  0  0
   39.3520   32.3570   40.1350 N   0  0  0  0  0  0  0  0  0  0  0  0
   38.4240   31.6760   39.4560 C   0  0  0  0  0  0  0  0  0  0  0  0
   38.7720   30.7990   38.4710 N   0  0  0  0  0  0  0  0  0  0  0  0
   40.3280   29.9300   37.4060 H   0  0  0  0  0  0  0  0  0  0  0  0
   42.1220   31.1730   38.6390 H   0  0  0  0  0  0  0  0  0  0  0  0
   41.7050   32.9270   40.5900 N   0  0  0  0  0  0  0  0  0  0  0  0
   42.3000   32.3100   41.6310 C   0  0  0  0  0  0  0  0  0  0  0  0
   43.2860   32.9990   42.3330 C   0  0  0  0  0  0  0  0  0  0  0  0
   43.5950   34.2670   41.9240 C   0  0  0  0  0  0  0  0  0  0  0  0
   44.5020   34.9000   42.5700 O   0  0  0  0  0  0  0  0  0  0  0  0
   43.0030   34.8970   40.8810 N   0  0  0  0  0  0  0  0  0  0  0  0
   42.0610   34.1720   40.2500 C   0  0  0  0  0  0  0  0  0  0  0  0
   41.4500   34.6590   39.2710 O   0  0  0  0  0  0  0  0  0  0  0  0
   42.0520   31.3120   41.9470 H   0  0  0  0  0  0  0  0  0  0  0  0
   43.7680   32.5100   43.1680 H   0  0  0  0  0  0  0  0  0  0  0  0
   43.2480   35.8660   40.5800 H   0  0  0  0  0  0  0  0  0  0  0  0
   37.0620   32.0170   39.9280 C   0  0  0  0  0  0  0  0  0  0  0  0
   37.1040   32.9930   40.4620 H   0  0  0  0  0  0  0  0  0  0  0  0
   36.3740   32.1840   39.0790 H   0  0  0  0  0  0  0  0  0  0  0  0
   36.5050   30.9250   40.8240 C   0  0  0  0  0  0  0  0  0  0  0  0
   36.1110   30.1240   40.1670 H   0  0  0  0  0  0  0  0  0  0  0  0
   35.6930   31.3250   41.4310 H   0  0  0  0  0  0  0  0  0  0  0  0
   37.4080   29.1220   42.1990 C   0  0  0  0  0  0  0  0  0  0  0  0
   36.3430   28.5190   41.9660 O   0  0  0  0  0  0  0  0  0  0  0  0
   37.5740   30.3970   41.6440 N   0  0  0  0  0  0  0  0  0  0  0  0
   38.4330   30.9710   41.7990 H   0  0  0  0  0  0  0  0  0  0  0  0
   38.4390   28.5040   43.0270 C   0  0  0  0  0  3  0  0  0  0  0  0
   38.8010   27.2450   43.1090 C   0  0  0  0  0  3  0  0  0  0  0  0
   39.8320   26.6080   43.9320 C   0  0  0  0  0  2  0  0  0  0  0  0
   39.4470   25.6430   44.3140 H   0  0  0  0  0  0  0  0  0  0  0  0
  1  6  2  0  0  0  0
  1  2  1  0  0  0  0
  2  3  2  0  0  0  0
  3  4  1  0  0  0  0
  3  9  1  0  0  0  0
  5 20  1  0  0  0  0
  5  4  2  0  0  0  0
  6  5  1  0  0  0  0
  7  1  1  0  0  0  0
  8  2  1  0  0  0  0
  9 10  1  0  0  0  0
 10 17  1  0  0  0  0
 10 11  2  0  0  0  0
 11 18  1  0  0  0  0
 12 11  1  0  0  0  0
 12 13  2  0  0  0  0
 14 12  1  0  0  0  0
 15  9  1  0  0  0  0
 15 14  1  0  0  0  0
 16 15  2  0  0  0  0
 19 14  1  0  0  0  0
 20 21  1  0  0  0  0
 20 23  1  0  0  0  0
 22 20  1  0  0  0  0
 23 25  1  0  0  0  0
 23 28  1  0  0  0  0
 24 23  1  0  0  0  0
 26 30  1  0  0  0  0
 27 26  2  0  0  0  0
 28 29  1  0  0  0  0
 28 26  1  0  0  0  0
 30 31  2  0  0  0  0
 31 32  1  0  0  0  0
 32 33  1  0  0  0  0
M  END
>  <minimizedAffinity>
-5.11270571

$$$$
