
 OpenBabel03252506283D

 42 45  0  0  0  0  0  0  0  0999 V2000
   47.1320   30.3530   48.2170 C   0  0  0  0  0  0  0  0  0  0  0  0
   47.5720   31.0240   48.9750 H   0  0  0  0  0  0  0  0  0  0  0  0
   47.7050   29.4220   48.2410 H   0  0  0  0  0  0  0  0  0  0  0  0
   46.8480   32.3630   45.2800 C   0  0  0  0  0  0  0  0  0  0  0  0
   47.5770   31.2480   44.7930 C   0  0  0  0  0  0  0  0  0  0  0  0
   47.7650   30.3840   45.8130 C   0  0  0  0  0  0  0  0  0  0  0  0
   47.1780   30.9370   46.8890 N   0  0  0  0  0  0  0  0  0  0  0  0
   46.6240   32.1230   46.5820 N   0  0  0  0  0  0  0  0  0  0  0  0
   47.8990   31.1660   43.7660 H   0  0  0  0  0  0  0  0  0  0  0  0
   48.2760   29.4330   45.8130 H   0  0  0  0  0  0  0  0  0  0  0  0
   45.0620   35.3310   44.1200 C   0  0  0  0  0  0  0  0  0  0  0  0
   45.7230   35.6540   42.9280 C   0  0  0  0  0  0  0  0  0  0  0  0
   46.7840   34.8370   42.5400 C   0  0  0  0  0  0  0  0  0  0  0  0
   47.0790   33.8070   43.3470 N   0  0  0  0  0  0  0  0  0  0  0  0
   46.4550   33.5010   44.4700 C   0  0  0  0  0  0  0  0  0  0  0  0
   45.4360   34.2790   44.8530 N   0  0  0  0  0  0  0  0  0  0  0  0
   44.2430   35.9850   44.3930 H   0  0  0  0  0  0  0  0  0  0  0  0
   45.4770   36.4910   42.2820 H   0  0  0  0  0  0  0  0  0  0  0  0
   47.5760   35.0270   41.3380 C   0  0  0  0  0  3  0  0  0  0  0  0
   47.4390   34.2540   40.2830 C   0  0  0  0  0  3  0  0  0  0  0  0
   48.2210   34.4170   39.0540 C   0  0  0  0  0  2  0  0  0  0  0  0
   47.6840   33.9370   38.1860 H   0  0  0  0  0  0  0  0  0  0  0  0
   45.7320   30.0570   48.6040 C   0  0  0  0  0  0  0  0  0  0  0  0
   45.7540   29.7180   49.6740 H   0  0  0  0  0  0  0  0  0  0  0  0
   45.1460   31.0000   48.6130 H   0  0  0  0  0  0  0  0  0  0  0  0
   45.0160   27.6520   48.0690 C   0  0  0  0  0  0  0  0  0  0  0  0
   45.0410   29.0120   47.8520 C   0  0  0  0  0  0  0  0  0  0  0  0
   44.3120   29.4770   46.7680 C   0  0  0  0  0  0  0  0  0  0  0  0
   43.6010   28.6260   45.9530 C   0  0  0  0  0  0  0  0  0  0  0  0
   42.8250   28.7820   44.8620 N   0  0  0  0  0  0  0  0  0  0  0  0
   42.3500   27.6100   44.4280 C   0  0  0  0  0  0  0  0  0  0  0  0
   42.8240   26.6030   45.2630 C   0  0  0  0  0  0  0  0  0  0  0  0
   43.5820   27.2750   46.1760 C   0  0  0  0  0  0  0  0  0  0  0  0
   44.3030   26.8030   47.2510 C   0  0  0  0  0  0  0  0  0  0  0  0
   45.6040   27.3340   48.9340 H   0  0  0  0  0  0  0  0  0  0  0  0
   44.2460   30.5200   46.4850 H   0  0  0  0  0  0  0  0  0  0  0  0
   42.6300   29.7220   44.4210 H   0  0  0  0  0  0  0  0  0  0  0  0
   41.7050   27.5240   43.5620 H   0  0  0  0  0  0  0  0  0  0  0  0
   42.5870   25.5590   45.1320 H   0  0  0  0  0  0  0  0  0  0  0  0
   44.3230   25.3730   47.5430 C   0  0  0  0  0  0  0  0  0  0  0  0
   44.9230   24.9260   48.5600 O   0  0  0  0  0  0  0  0  0  0  0  0
   43.8160   24.6750   46.8800 H   0  0  0  0  0  0  0  0  0  0  0  0
  1  3  1  0  0  0  0
  1 23  1  0  0  0  0
  1  2  1  0  0  0  0
  4  8  2  0  0  0  0
  5  4  1  0  0  0  0
  5  6  2  0  0  0  0
  6  7  1  0  0  0  0
  7  1  1  0  0  0  0
  8  7  1  0  0  0  0
  9  5  1  0  0  0  0
 10  6  1  0  0  0  0
 11 17  1  0  0  0  0
 11 16  1  0  0  0  0
 12 11  2  0  0  0  0
 13 12  1  0  0  0  0
 13 14  2  0  0  0  0
 14 15  1  0  0  0  0
 15 16  2  0  0  0  0
 15  4  1  0  0  0  0
 18 12  1  0  0  0  0
 19 13  1  0  0  0  0
 20 19  2  0  0  0  0
 21 20  1  0  0  0  0
 22 21  1  0  0  0  0
 23 25  1  0  0  0  0
 23 24  1  0  0  0  0
 26 35  1  0  0  0  0
 27 26  1  0  0  0  0
 27 23  1  0  0  0  0
 28 27  2  0  0  0  0
 29 33  2  0  0  0  0
 29 28  1  0  0  0  0
 30 29  1  0  0  0  0
 31 30  1  0  0  0  0
 31 32  2  0  0  0  0
 32 33  1  0  0  0  0
 33 34  1  0  0  0  0
 34 40  1  0  0  0  0
 34 26  2  0  0  0  0
 36 28  1  0  0  0  0
 37 30  1  0  0  0  0
 38 31  1  0  0  0  0
 39 32  1  0  0  0  0
 40 41  2  0  0  0  0
 42 40  1  0  0  0  0
M  END
>  <minimizedAffinity>
-5.56482935

>  <minimizedRMSD>
0.685175896

$$$$
