
 OpenBabel03242514513D

 39 41  0  0  1  0  0  0  0  0999 V2000
   38.2460   29.4470   42.3830 C   0  0  0  0  0  0  0  0  0  0  0  0
   37.9500   29.7820   41.0710 C   0  0  0  0  0  0  0  0  0  0  0  0
   38.6860   30.8450   40.5130 C   0  0  0  0  0  0  0  0  0  0  0  0
   39.6230   31.4740   41.2680 N   0  0  0  0  0  0  0  0  0  0  0  0
   39.8650   31.1070   42.5340 C   0  0  0  0  0  0  0  0  0  0  0  0
   39.1840   30.1110   43.0690 N   0  0  0  0  0  0  0  0  0  0  0  0
   38.5070   31.1600   39.4910 H   0  0  0  0  0  0  0  0  0  0  0  0
   40.5950   31.5640   43.1870 H   0  0  0  0  0  0  0  0  0  0  0  0
   35.5250   29.5520   40.5370 C   0  0  2  0  0  0  0  0  0  0  0  0
   36.9630   29.0500   40.2300 C   0  0  1  0  0  0  0  0  0  0  0  0
   37.1660   29.0920   38.9070 O   0  0  0  0  0  0  0  0  0  0  0  0
   36.1870   29.8290   38.2890 C   0  0  0  0  0  0  0  0  0  0  0  0
   34.9580   29.5350   39.0970 C   0  0  1  0  0  0  0  0  0  0  0  0
   34.8840   28.8740   41.0770 H   0  0  0  0  0  0  0  0  0  0  0  0
   36.7170   28.0640   40.4900 H   0  0  0  0  0  0  0  0  0  0  0  0
   36.3570   30.9050   38.2600 H   0  0  0  0  0  0  0  0  0  0  0  0
   36.1090   29.4750   37.2350 H   0  0  0  0  0  0  0  0  0  0  0  0
   34.1760   30.3120   39.0080 H   0  0  0  0  0  0  0  0  0  0  0  0
   35.4490   30.7820   41.0580 O   0  0  0  0  0  0  0  0  0  0  0  0
   34.7070   30.8610   41.7080 H   0  0  0  0  0  0  0  0  0  0  0  0
   34.5360   28.2710   38.7460 O   0  0  0  0  0  0  0  0  0  0  0  0
   34.6870   28.0370   37.8020 H   0  0  0  0  0  0  0  0  0  0  0  0
   37.4700   28.3330   42.9940 C   0  0  0  0  0  0  0  0  0  0  0  0
   37.4080   28.6430   44.0840 H   0  0  0  0  0  0  0  0  0  0  0  0
   36.4440   28.2410   42.6900 H   0  0  0  0  0  0  0  0  0  0  0  0
   36.6130   26.0530   41.4790 F   0  0  0  0  0  0  0  0  0  0  0  0
   37.7100   25.9870   42.2190 C   0  0  0  0  0  0  0  0  0  0  0  0
   38.1830   27.0410   42.9530 C   0  0  0  0  0  0  0  0  0  0  0  0
   39.3480   26.9080   43.6800 C   0  0  0  0  0  0  0  0  0  0  0  0
   39.9900   25.6910   43.6280 C   0  0  0  0  0  0  0  0  0  0  0  0
   39.5730   24.5970   42.9170 C   0  0  0  0  0  0  0  0  0  0  0  0
   38.3890   24.7560   42.1880 C   0  0  0  0  0  0  0  0  0  0  0  0
   39.7010   27.7380   44.2450 H   0  0  0  0  0  0  0  0  0  0  0  0
   40.9040   25.5950   44.2000 H   0  0  0  0  0  0  0  0  0  0  0  0
   40.1210   23.6670   42.9170 H   0  0  0  0  0  0  0  0  0  0  0  0
   37.9300   23.6010   41.4270 C   0  0  0  0  0  3  0  0  0  0  0  0
   38.2070   23.3290   40.1640 C   0  0  0  0  0  3  0  0  0  0  0  0
   37.6780   22.1050   39.4780 C   0  0  0  0  0  2  0  0  0  0  0  0
   37.0350   21.5160   40.1720 H   0  0  0  0  0  0  0  0  0  0  0  0
  1 23  1  0  0  0  0
  1  6  1  0  0  0  0
  2  1  2  0  0  0  0
  3  2  1  0  0  0  0
  3  4  2  0  0  0  0
  4  5  1  0  0  0  0
  5  6  2  0  0  0  0
  5  8  1  0  0  0  0
  7  3  1  0  0  0  0
  9 19  1  0  0  0  0
  9 14  1  1  0  0  0
 10 15  1  1  0  0  0
 10  9  1  0  0  0  0
 10  2  1  0  0  0  0
 11 10  1  0  0  0  0
 12 11  1  0  0  0  0
 12 13  1  0  0  0  0
 13 18  1  6  0  0  0
 13  9  1  0  0  0  0
 16 12  1  0  0  0  0
 17 12  1  0  0  0  0
 19 20  1  0  0  0  0
 21 13  1  0  0  0  0
 22 21  1  0  0  0  0
 23 24  1  0  0  0  0
 25 23  1  0  0  0  0
 26 27  1  0  0  0  0
 27 28  1  0  0  0  0
 28 23  1  0  0  0  0
 28 29  2  0  0  0  0
 29 33  1  0  0  0  0
 30 29  1  0  0  0  0
 30 34  1  0  0  0  0
 31 35  1  0  0  0  0
 31 30  2  0  0  0  0
 32 27  2  0  0  0  0
 32 31  1  0  0  0  0
 36 32  1  0  0  0  0
 37 36  2  0  0  0  0
 38 37  1  0  0  0  0
 38 39  1  0  0  0  0
M  END
>  <minimizedAffinity>
-6.2875061

$$$$

 OpenBabel03242514513D

 39 41  0  0  1  0  0  0  0  0999 V2000
   36.3290   30.1280   39.2680 C   0  0  0  0  0  0  0  0  0  0  0  0
   37.1140   31.2400   39.0080 C   0  0  0  0  0  0  0  0  0  0  0  0
   37.5940   31.3760   37.6910 C   0  0  0  0  0  0  0  0  0  0  0  0
   37.2730   30.4360   36.7660 N   0  0  0  0  0  0  0  0  0  0  0  0
   36.5090   29.3790   37.0760 C   0  0  0  0  0  0  0  0  0  0  0  0
   36.0520   29.2400   38.3060 N   0  0  0  0  0  0  0  0  0  0  0  0
   38.2140   32.2230   37.4170 H   0  0  0  0  0  0  0  0  0  0  0  0
   36.2180   28.5970   36.3890 H   0  0  0  0  0  0  0  0  0  0  0  0
   38.8330   32.0800   40.6090 C   0  0  2  0  0  0  0  0  0  0  0  0
   37.4140   32.2980   40.0120 C   0  0  1  0  0  0  0  0  0  0  0  0
   37.3090   33.5640   39.5880 O   0  0  0  0  0  0  0  0  0  0  0  0
   38.5440   34.1610   39.5330 C   0  0  0  0  0  0  0  0  0  0  0  0
   39.2810   33.5590   40.6920 C   0  0  1  0  0  0  0  0  0  0  0  0
   38.8770   31.7370   41.6290 H   0  0  0  0  0  0  0  0  0  0  0  0
   36.9630   32.2340   40.9570 H   0  0  0  0  0  0  0  0  0  0  0  0
   39.1070   33.9930   38.6150 H   0  0  0  0  0  0  0  0  0  0  0  0
   38.3950   35.2610   39.6360 H   0  0  0  0  0  0  0  0  0  0  0  0
   40.3810   33.6090   40.5890 H   0  0  0  0  0  0  0  0  0  0  0  0
   39.6730   31.3770   39.8410 O   0  0  0  0  0  0  0  0  0  0  0  0
   40.2800   30.8130   40.3820 H   0  0  0  0  0  0  0  0  0  0  0  0
   38.7970   34.1590   41.8340 O   0  0  0  0  0  0  0  0  0  0  0  0
   38.5480   35.1060   41.7260 H   0  0  0  0  0  0  0  0  0  0  0  0
   35.8240   29.9610   40.6580 C   0  0  0  0  0  0  0  0  0  0  0  0
   35.9770   30.9930   41.1040 H   0  0  0  0  0  0  0  0  0  0  0  0
   34.7700   29.7840   40.7670 H   0  0  0  0  0  0  0  0  0  0  0  0
   35.8770   27.1200   40.2640 F   0  0  0  0  0  0  0  0  0  0  0  0
   36.6020   27.6730   41.2260 C   0  0  0  0  0  0  0  0  0  0  0  0
   36.6340   29.0210   41.4590 C   0  0  0  0  0  0  0  0  0  0  0  0
   37.4330   29.5290   42.4620 C   0  0  0  0  0  0  0  0  0  0  0  0
   38.1740   28.6300   43.1960 C   0  0  0  0  0  0  0  0  0  0  0  0
   38.1880   27.2720   43.0180 C   0  0  0  0  0  0  0  0  0  0  0  0
   37.3700   26.7810   41.9950 C   0  0  0  0  0  0  0  0  0  0  0  0
   37.4460   30.5800   42.6280 H   0  0  0  0  0  0  0  0  0  0  0  0
   38.7990   29.0370   43.9810 H   0  0  0  0  0  0  0  0  0  0  0  0
   38.7920   26.6170   43.6280 H   0  0  0  0  0  0  0  0  0  0  0  0
   37.3720   25.3380   41.7930 C   0  0  0  0  0  3  0  0  0  0  0  0
   38.2240   24.6460   41.0570 C   0  0  0  0  0  3  0  0  0  0  0  0
   38.1310   23.1560   40.9200 C   0  0  0  0  0  2  0  0  0  0  0  0
   37.2610   22.7640   41.4940 H   0  0  0  0  0  0  0  0  0  0  0  0
  1 23  1  0  0  0  0
  2  1  1  0  0  0  0
  2 10  1  0  0  0  0
  3  2  2  0  0  0  0
  4  5  2  0  0  0  0
  4  3  1  0  0  0  0
  5  6  1  0  0  0  0
  6  1  2  0  0  0  0
  7  3  1  0  0  0  0
  8  5  1  0  0  0  0
  9 13  1  0  0  0  0
  9 14  1  1  0  0  0
 10  9  1  0  0  0  0
 10 15  1  1  0  0  0
 11 10  1  0  0  0  0
 12 11  1  0  0  0  0
 12 17  1  0  0  0  0
 12 13  1  0  0  0  0
 13 18  1  6  0  0  0
 13 21  1  0  0  0  0
 16 12  1  0  0  0  0
 19 20  1  0  0  0  0
 19  9  1  0  0  0  0
 22 21  1  0  0  0  0
 23 25  1  0  0  0  0
 23 24  1  0  0  0  0
 23 28  1  0  0  0  0
 26 27  1  0  0  0  0
 27 28  2  0  0  0  0
 27 32  1  0  0  0  0
 28 29  1  0  0  0  0
 29 33  1  0  0  0  0
 29 30  2  0  0  0  0
 30 34  1  0  0  0  0
 31 30  1  0  0  0  0
 31 35  1  0  0  0  0
 32 31  2  0  0  0  0
 36 32  1  0  0  0  0
 37 36  2  0  0  0  0
 38 37  1  0  0  0  0
 38 39  1  0  0  0  0
M  END
>  <minimizedAffinity>
-6.20920467

$$$$

 OpenBabel03242514513D

 39 41  0  0  1  0  0  0  0  0999 V2000
   37.4780   30.5360   41.1290 C   0  0  0  0  0  0  0  0  0  0  0  0
   38.8290   30.8400   41.0690 C   0  0  0  0  0  0  0  0  0  0  0  0
   39.6530   30.2330   42.0360 C   0  0  0  0  0  0  0  0  0  0  0  0
   39.0990   29.4030   42.9560 N   0  0  0  0  0  0  0  0  0  0  0  0
   37.7830   29.1460   42.9660 C   0  0  0  0  0  0  0  0  0  0  0  0
   37.0000   29.7080   42.0650 N   0  0  0  0  0  0  0  0  0  0  0  0
   40.7200   30.4260   42.0470 H   0  0  0  0  0  0  0  0  0  0  0  0
   37.2800   28.4970   43.6690 H   0  0  0  0  0  0  0  0  0  0  0  0
   39.1970   33.2030   40.3590 C   0  0  2  0  0  0  0  0  0  0  0  0
   39.4390   31.7050   40.0220 C   0  0  1  0  0  0  0  0  0  0  0  0
   40.7440   31.5170   39.7850 O   0  0  0  0  0  0  0  0  0  0  0  0
   41.4740   32.6020   40.2020 C   0  0  0  0  0  0  0  0  0  0  0  0
   40.5710   33.7660   39.9230 C   0  0  1  0  0  0  0  0  0  0  0  0
   38.4910   33.7270   39.7370 H   0  0  0  0  0  0  0  0  0  0  0  0
   38.9510   31.7930   39.0980 H   0  0  0  0  0  0  0  0  0  0  0  0
   41.7550   32.6030   41.2550 H   0  0  0  0  0  0  0  0  0  0  0  0
   42.4150   32.6290   39.6060 H   0  0  0  0  0  0  0  0  0  0  0  0
   40.8030   34.6610   40.5300 H   0  0  0  0  0  0  0  0  0  0  0  0
   38.9690   33.4670   41.6510 O   0  0  0  0  0  0  0  0  0  0  0  0
   38.3240   34.2100   41.7660 H   0  0  0  0  0  0  0  0  0  0  0  0
   40.6060   33.9880   38.5630 O   0  0  0  0  0  0  0  0  0  0  0  0
   41.4770   33.8070   38.1410 H   0  0  0  0  0  0  0  0  0  0  0  0
   36.5900   31.1790   40.1230 C   0  0  0  0  0  0  0  0  0  0  0  0
   35.6880   31.4780   40.7430 H   0  0  0  0  0  0  0  0  0  0  0  0
   36.9340   32.1040   39.7010 H   0  0  0  0  0  0  0  0  0  0  0  0
   37.5200   31.1320   37.4090 F   0  0  0  0  0  0  0  0  0  0  0  0
   36.5870   30.2790   37.8090 C   0  0  0  0  0  0  0  0  0  0  0  0
   36.1100   30.2380   39.0910 C   0  0  0  0  0  0  0  0  0  0  0  0
   35.1560   29.3050   39.4420 C   0  0  0  0  0  0  0  0  0  0  0  0
   34.7230   28.4430   38.4600 C   0  0  0  0  0  0  0  0  0  0  0  0
   35.1550   28.4310   37.1600 C   0  0  0  0  0  0  0  0  0  0  0  0
   36.1220   29.3860   36.8280 C   0  0  0  0  0  0  0  0  0  0  0  0
   34.7970   29.2870   40.4430 H   0  0  0  0  0  0  0  0  0  0  0  0
   33.9750   27.7130   38.7430 H   0  0  0  0  0  0  0  0  0  0  0  0
   34.7750   27.7280   36.4330 H   0  0  0  0  0  0  0  0  0  0  0  0
   36.5930   29.3870   35.4490 C   0  0  0  0  0  3  0  0  0  0  0  0
   36.0530   30.0370   34.4320 C   0  0  0  0  0  3  0  0  0  0  0  0
   36.6240   29.9660   33.0480 C   0  0  0  0  0  2  0  0  0  0  0  0
   37.5130   29.2960   33.0260 H   0  0  0  0  0  0  0  0  0  0  0  0
  1  6  1  0  0  0  0
  2  1  2  0  0  0  0
  2  3  1  0  0  0  0
  3  7  1  0  0  0  0
  3  4  2  0  0  0  0
  4  5  1  0  0  0  0
  5  8  1  0  0  0  0
  6  5  2  0  0  0  0
  9 14  1  6  0  0  0
  9 19  1  0  0  0  0
 10 15  1  6  0  0  0
 10  9  1  0  0  0  0
 10  2  1  0  0  0  0
 11 10  1  0  0  0  0
 11 12  1  0  0  0  0
 12 16  1  0  0  0  0
 13 12  1  0  0  0  0
 13  9  1  0  0  0  0
 13 18  1  1  0  0  0
 17 12  1  0  0  0  0
 19 20  1  0  0  0  0
 21 13  1  0  0  0  0
 22 21  1  0  0  0  0
 23 24  1  0  0  0  0
 23  1  1  0  0  0  0
 25 23  1  0  0  0  0
 26 27  1  0  0  0  0
 27 28  1  0  0  0  0
 28 29  2  0  0  0  0
 28 23  1  0  0  0  0
 29 33  1  0  0  0  0
 30 34  1  0  0  0  0
 30 29  1  0  0  0  0
 31 30  2  0  0  0  0
 32 31  1  0  0  0  0
 32 27  2  0  0  0  0
 35 31  1  0  0  0  0
 36 32  1  0  0  0  0
 37 36  2  0  0  0  0
 38 37  1  0  0  0  0
 39 38  1  0  0  0  0
M  END
>  <minimizedAffinity>
-5.96580839

$$$$

 OpenBabel03242514513D

 39 41  0  0  1  0  0  0  0  0999 V2000
   37.3530   28.0970   40.3220 C   0  0  0  0  0  0  0  0  0  0  0  0
   37.6230   29.3280   40.8980 C   0  0  0  0  0  0  0  0  0  0  0  0
   37.5090   29.4040   42.2990 C   0  0  0  0  0  0  0  0  0  0  0  0
   37.1500   28.2980   42.9990 N   0  0  0  0  0  0  0  0  0  0  0  0
   36.8990   27.1320   42.3870 C   0  0  0  0  0  0  0  0  0  0  0  0
   37.0030   27.0470   41.0740 N   0  0  0  0  0  0  0  0  0  0  0  0
   37.7070   30.3370   42.8160 H   0  0  0  0  0  0  0  0  0  0  0  0
   36.6090   26.2170   42.8830 H   0  0  0  0  0  0  0  0  0  0  0  0
   36.9100   31.5450   40.0030 C   0  0  2  0  0  0  0  0  0  0  0  0
   38.0740   30.5220   40.1310 C   0  0  1  0  0  0  0  0  0  0  0  0
   39.1580   31.1520   40.6010 O   0  0  0  0  0  0  0  0  0  0  0  0
   38.8250   32.3890   41.0950 C   0  0  0  0  0  0  0  0  0  0  0  0
   37.7230   32.8490   40.1870 C   0  0  1  0  0  0  0  0  0  0  0  0
   36.4680   31.6490   39.0270 H   0  0  0  0  0  0  0  0  0  0  0  0
   38.1700   30.4420   39.0900 H   0  0  0  0  0  0  0  0  0  0  0  0
   38.4780   32.4040   42.1280 H   0  0  0  0  0  0  0  0  0  0  0  0
   39.7320   33.0340   41.0390 H   0  0  0  0  0  0  0  0  0  0  0  0
   37.0710   33.6190   40.6400 H   0  0  0  0  0  0  0  0  0  0  0  0
   35.9600   31.4470   40.9400 O   0  0  0  0  0  0  0  0  0  0  0  0
   35.0630   31.6610   40.5770 H   0  0  0  0  0  0  0  0  0  0  0  0
   38.3110   33.2370   39.0030 O   0  0  0  0  0  0  0  0  0  0  0  0
   39.1990   33.6490   39.1020 H   0  0  0  0  0  0  0  0  0  0  0  0
   37.4550   28.0010   38.8400 C   0  0  0  0  0  0  0  0  0  0  0  0
   37.6550   29.0740   38.5350 H   0  0  0  0  0  0  0  0  0  0  0  0
   38.2960   27.4570   38.4520 H   0  0  0  0  0  0  0  0  0  0  0  0
   35.5050   29.8370   37.8110 F   0  0  0  0  0  0  0  0  0  0  0  0
   35.2930   28.5300   37.7400 C   0  0  0  0  0  0  0  0  0  0  0  0
   36.1870   27.6000   38.1980 C   0  0  0  0  0  0  0  0  0  0  0  0
   35.9100   26.2550   38.0670 C   0  0  0  0  0  0  0  0  0  0  0  0
   34.7200   25.9100   37.4680 C   0  0  0  0  0  0  0  0  0  0  0  0
   33.7810   26.7860   36.9910 C   0  0  0  0  0  0  0  0  0  0  0  0
   34.0840   28.1450   37.1350 C   0  0  0  0  0  0  0  0  0  0  0  0
   36.6170   25.5460   38.4280 H   0  0  0  0  0  0  0  0  0  0  0  0
   34.5100   24.8520   37.3690 H   0  0  0  0  0  0  0  0  0  0  0  0
   32.8630   26.4530   36.5310 H   0  0  0  0  0  0  0  0  0  0  0  0
   33.0960   29.0910   36.6330 C   0  0  0  0  0  3  0  0  0  0  0  0
   31.9850   29.4680   37.2420 C   0  0  0  0  0  3  0  0  0  0  0  0
   31.0360   30.4540   36.6290 C   0  0  0  0  0  2  0  0  0  0  0  0
   31.4000   30.7740   35.6260 H   0  0  0  0  0  0  0  0  0  0  0  0
  1  2  2  0  0  0  0
  1  6  1  0  0  0  0
  2  3  1  0  0  0  0
  3  7  1  0  0  0  0
  3  4  2  0  0  0  0
  5  8  1  0  0  0  0
  5  4  1  0  0  0  0
  6  5  2  0  0  0  0
  9 14  1  6  0  0  0
  9 10  1  0  0  0  0
  9 13  1  0  0  0  0
  9 19  1  0  0  0  0
 10 15  1  6  0  0  0
 10 11  1  0  0  0  0
 10  2  1  0  0  0  0
 11 12  1  0  0  0  0
 12 16  1  0  0  0  0
 13 18  1  1  0  0  0
 13 12  1  0  0  0  0
 17 12  1  0  0  0  0
 20 19  1  0  0  0  0
 21 22  1  0  0  0  0
 21 13  1  0  0  0  0
 23  1  1  0  0  0  0
 24 23  1  0  0  0  0
 25 23  1  0  0  0  0
 27 26  1  0  0  0  0
 27 28  1  0  0  0  0
 28 23  1  0  0  0  0
 29 28  2  0  0  0  0
 29 33  1  0  0  0  0
 30 29  1  0  0  0  0
 31 32  1  0  0  0  0
 31 30  2  0  0  0  0
 32 27  2  0  0  0  0
 34 30  1  0  0  0  0
 35 31  1  0  0  0  0
 36 32  1  0  0  0  0
 36 37  2  0  0  0  0
 38 37  1  0  0  0  0
 39 38  1  0  0  0  0
M  END
>  <minimizedAffinity>
-5.89456654

$$$$

 OpenBabel03242514513D

 39 41  0  0  1  0  0  0  0  0999 V2000
   37.4840   30.6100   41.0800 C   0  0  0  0  0  0  0  0  0  0  0  0
   38.8360   30.9130   41.0780 C   0  0  0  0  0  0  0  0  0  0  0  0
   39.6240   30.2720   42.0530 C   0  0  0  0  0  0  0  0  0  0  0  0
   39.0370   29.4130   42.9240 N   0  0  0  0  0  0  0  0  0  0  0  0
   37.7210   29.1590   42.8790 C   0  0  0  0  0  0  0  0  0  0  0  0
   36.9710   29.7520   41.9700 N   0  0  0  0  0  0  0  0  0  0  0  0
   40.6900   30.4630   42.1090 H   0  0  0  0  0  0  0  0  0  0  0  0
   37.1920   28.4880   43.5410 H   0  0  0  0  0  0  0  0  0  0  0  0
   39.2280   33.2970   40.4600 C   0  0  2  0  0  0  0  0  0  0  0  0
   39.4840   31.8110   40.0830 C   0  0  1  0  0  0  0  0  0  0  0  0
   40.7970   31.6300   39.8890 O   0  0  0  0  0  0  0  0  0  0  0  0
   41.5100   32.7010   40.3680 C   0  0  0  0  0  0  0  0  0  0  0  0
   40.6170   33.8740   40.0940 C   0  0  1  0  0  0  0  0  0  0  0  0
   38.5460   33.8420   39.8290 H   0  0  0  0  0  0  0  0  0  0  0  0
   39.0300   31.9290   39.1450 H   0  0  0  0  0  0  0  0  0  0  0  0
   41.7520   32.6670   41.4310 H   0  0  0  0  0  0  0  0  0  0  0  0
   42.4730   32.7470   39.8090 H   0  0  0  0  0  0  0  0  0  0  0  0
   40.8260   34.7480   40.7380 H   0  0  0  0  0  0  0  0  0  0  0  0
   38.9520   33.5190   41.7500 O   0  0  0  0  0  0  0  0  0  0  0  0
   38.3030   34.2580   41.8650 H   0  0  0  0  0  0  0  0  0  0  0  0
   40.7020   34.1390   38.7440 O   0  0  0  0  0  0  0  0  0  0  0  0
   41.5890   33.9720   38.3490 H   0  0  0  0  0  0  0  0  0  0  0  0
   36.6320   31.2870   40.0640 C   0  0  0  0  0  0  0  0  0  0  0  0
   35.6340   31.3740   40.5950 H   0  0  0  0  0  0  0  0  0  0  0  0
   36.8880   32.3020   39.8240 H   0  0  0  0  0  0  0  0  0  0  0  0
   34.6470   29.2280   39.8460 F   0  0  0  0  0  0  0  0  0  0  0  0
   35.4510   29.4890   38.8250 C   0  0  0  0  0  0  0  0  0  0  0  0
   36.4080   30.4670   38.8570 C   0  0  0  0  0  0  0  0  0  0  0  0
   37.1920   30.7010   37.7460 C   0  0  0  0  0  0  0  0  0  0  0  0
   36.9650   29.9190   36.6360 C   0  0  0  0  0  0  0  0  0  0  0  0
   36.0280   28.9250   36.5370 C   0  0  0  0  0  0  0  0  0  0  0  0
   35.2450   28.7070   37.6760 C   0  0  0  0  0  0  0  0  0  0  0  0
   37.9310   31.4650   37.7890 H   0  0  0  0  0  0  0  0  0  0  0  0
   37.5840   30.1100   35.7680 H   0  0  0  0  0  0  0  0  0  0  0  0
   35.8970   28.3440   35.6360 H   0  0  0  0  0  0  0  0  0  0  0  0
   34.2430   27.6520   37.5870 C   0  0  0  0  0  3  0  0  0  0  0  0
   34.2960   26.5770   36.8210 C   0  0  0  0  0  3  0  0  0  0  0  0
   33.2030   25.5510   36.8110 C   0  0  0  0  0  2  0  0  0  0  0  0
   32.3820   25.8480   37.5030 H   0  0  0  0  0  0  0  0  0  0  0  0
  1  6  1  0  0  0  0
  2  1  2  0  0  0  0
  2  3  1  0  0  0  0
  3  7  1  0  0  0  0
  3  4  2  0  0  0  0
  5  4  1  0  0  0  0
  5  8  1  0  0  0  0
  6  5  2  0  0  0  0
  9 14  1  6  0  0  0
  9 19  1  0  0  0  0
 10 15  1  6  0  0  0
 10  9  1  0  0  0  0
 10  2  1  0  0  0  0
 11 10  1  0  0  0  0
 11 12  1  0  0  0  0
 12 16  1  0  0  0  0
 13 12  1  0  0  0  0
 13  9  1  0  0  0  0
 13 18  1  1  0  0  0
 17 12  1  0  0  0  0
 19 20  1  0  0  0  0
 21 13  1  0  0  0  0
 22 21  1  0  0  0  0
 23 24  1  0  0  0  0
 23  1  1  0  0  0  0
 25 23  1  0  0  0  0
 27 28  1  0  0  0  0
 27 26  1  0  0  0  0
 28 23  1  0  0  0  0
 29 33  1  0  0  0  0
 29 28  2  0  0  0  0
 30 29  1  0  0  0  0
 31 30  2  0  0  0  0
 31 32  1  0  0  0  0
 32 27  2  0  0  0  0
 34 30  1  0  0  0  0
 35 31  1  0  0  0  0
 36 32  1  0  0  0  0
 37 36  2  0  0  0  0
 38 37  1  0  0  0  0
 38 39  1  0  0  0  0
M  END
>  <minimizedAffinity>
-5.77757645

$$$$

 OpenBabel03242514513D

 39 41  0  0  1  0  0  0  0  0999 V2000
   36.3600   29.5410   39.1130 C   0  0  0  0  0  0  0  0  0  0  0  0
   36.7010   29.2910   40.4320 C   0  0  0  0  0  0  0  0  0  0  0  0
   37.2270   30.3740   41.1610 C   0  0  0  0  0  0  0  0  0  0  0  0
   37.3710   31.5790   40.5520 N   0  0  0  0  0  0  0  0  0  0  0  0
   37.0240   31.7620   39.2700 C   0  0  0  0  0  0  0  0  0  0  0  0
   36.5290   30.7550   38.5760 N   0  0  0  0  0  0  0  0  0  0  0  0
   37.5150   30.2500   42.1990 H   0  0  0  0  0  0  0  0  0  0  0  0
   37.1140   32.6920   38.7260 H   0  0  0  0  0  0  0  0  0  0  0  0
   37.6820   27.0320   40.8280 C   0  0  2  0  0  0  0  0  0  0  0  0
   36.4860   27.9840   41.1120 C   0  0  1  0  0  0  0  0  0  0  0  0
   36.2700   28.0310   42.4330 O   0  0  0  0  0  0  0  0  0  0  0  0
   37.3290   27.4880   43.1170 C   0  0  0  0  0  0  0  0  0  0  0  0
   37.7950   26.3760   42.2260 C   0  0  1  0  0  0  0  0  0  0  0  0
   37.4900   26.2040   40.1670 H   0  0  0  0  0  0  0  0  0  0  0  0
   35.7990   27.3090   40.6950 H   0  0  0  0  0  0  0  0  0  0  0  0
   38.1580   28.1680   43.3170 H   0  0  0  0  0  0  0  0  0  0  0  0
   36.9490   27.1270   44.1010 H   0  0  0  0  0  0  0  0  0  0  0  0
   38.8470   26.0800   42.4010 H   0  0  0  0  0  0  0  0  0  0  0  0
   38.8280   27.6390   40.5000 O   0  0  0  0  0  0  0  0  0  0  0  0
   39.3460   27.1120   39.8410 H   0  0  0  0  0  0  0  0  0  0  0  0
   36.8930   25.3440   42.3630 O   0  0  0  0  0  0  0  0  0  0  0  0
   36.5100   25.2510   43.2650 H   0  0  0  0  0  0  0  0  0  0  0  0
   35.8140   28.4040   38.3230 C   0  0  0  0  0  0  0  0  0  0  0  0
   36.6680   28.1590   37.6170 H   0  0  0  0  0  0  0  0  0  0  0  0
   35.6460   27.4870   38.8560 H   0  0  0  0  0  0  0  0  0  0  0  0
   33.2390   29.1460   39.3470 F   0  0  0  0  0  0  0  0  0  0  0  0
   33.4520   29.1140   38.0390 C   0  0  0  0  0  0  0  0  0  0  0  0
   34.6590   28.7830   37.4850 C   0  0  0  0  0  0  0  0  0  0  0  0
   34.8150   28.7970   36.1140 C   0  0  0  0  0  0  0  0  0  0  0  0
   33.7210   29.1500   35.3570 C   0  0  0  0  0  0  0  0  0  0  0  0
   32.4870   29.4890   35.8450 C   0  0  0  0  0  0  0  0  0  0  0  0
   32.3530   29.4690   37.2380 C   0  0  0  0  0  0  0  0  0  0  0  0
   35.7600   28.5370   35.7010 H   0  0  0  0  0  0  0  0  0  0  0  0
   33.8510   29.1590   34.2820 H   0  0  0  0  0  0  0  0  0  0  0  0
   31.6650   29.7580   35.1980 H   0  0  0  0  0  0  0  0  0  0  0  0
   31.0460   29.8260   37.7740 C   0  0  0  0  0  3  0  0  0  0  0  0
   30.4110   30.9720   37.6030 C   0  0  0  0  0  3  0  0  0  0  0  0
   29.0620   31.2330   38.2040 C   0  0  0  0  0  2  0  0  0  0  0  0
   28.7230   30.3540   38.7980 H   0  0  0  0  0  0  0  0  0  0  0  0
  1  2  1  0  0  0  0
  2 10  1  0  0  0  0
  2  3  2  0  0  0  0
  3  7  1  0  0  0  0
  4  3  1  0  0  0  0
  5  4  2  0  0  0  0
  6  1  2  0  0  0  0
  6  5  1  0  0  0  0
  8  5  1  0  0  0  0
  9 14  1  6  0  0  0
  9 10  1  0  0  0  0
  9 13  1  0  0  0  0
 10 15  1  6  0  0  0
 10 11  1  0  0  0  0
 11 12  1  0  0  0  0
 12 16  1  0  0  0  0
 12 17  1  0  0  0  0
 13 21  1  0  0  0  0
 13 18  1  1  0  0  0
 13 12  1  0  0  0  0
 19  9  1  0  0  0  0
 20 19  1  0  0  0  0
 21 22  1  0  0  0  0
 23 25  1  0  0  0  0
 23  1  1  0  0  0  0
 24 23  1  0  0  0  0
 27 26  1  0  0  0  0
 28 27  1  0  0  0  0
 28 23  1  0  0  0  0
 29 28  2  0  0  0  0
 30 31  2  0  0  0  0
 30 29  1  0  0  0  0
 31 32  1  0  0  0  0
 32 36  1  0  0  0  0
 32 27  2  0  0  0  0
 33 29  1  0  0  0  0
 34 30  1  0  0  0  0
 35 31  1  0  0  0  0
 37 36  2  0  0  0  0
 37 38  1  0  0  0  0
 38 39  1  0  0  0  0
M  END
>  <minimizedAffinity>
-5.7255168

$$$$

 OpenBabel03242514513D

 39 41  0  0  1  0  0  0  0  0999 V2000
   38.5390   32.6140   39.1210 C   0  0  0  0  0  0  0  0  0  0  0  0
   39.8750   32.2500   39.1700 C   0  0  0  0  0  0  0  0  0  0  0  0
   40.6720   32.9120   40.1240 C   0  0  0  0  0  0  0  0  0  0  0  0
   40.1070   33.8490   40.9270 N   0  0  0  0  0  0  0  0  0  0  0  0
   38.8070   34.1610   40.8340 C   0  0  0  0  0  0  0  0  0  0  0  0
   38.0490   33.5480   39.9450 N   0  0  0  0  0  0  0  0  0  0  0  0
   41.7260   32.6760   40.2170 H   0  0  0  0  0  0  0  0  0  0  0  0
   38.2970   34.8950   41.4410 H   0  0  0  0  0  0  0  0  0  0  0  0
   40.9690   31.7770   36.9780 C   0  0  2  0  0  0  0  0  0  0  0  0
   40.4750   31.1800   38.3260 C   0  0  1  0  0  0  0  0  0  0  0  0
   41.4700   30.4760   38.8810 O   0  0  0  0  0  0  0  0  0  0  0  0
   42.6630   30.7500   38.2610 C   0  0  0  0  0  0  0  0  0  0  0  0
   42.2770   30.9640   36.8270 C   0  0  1  0  0  0  0  0  0  0  0  0
   40.3990   31.5190   36.1010 H   0  0  0  0  0  0  0  0  0  0  0  0
   39.8340   30.5080   37.8390 H   0  0  0  0  0  0  0  0  0  0  0  0
   43.1950   31.6260   38.6300 H   0  0  0  0  0  0  0  0  0  0  0  0
   43.3310   29.8690   38.4040 H   0  0  0  0  0  0  0  0  0  0  0  0
   43.0110   31.5640   36.2570 H   0  0  0  0  0  0  0  0  0  0  0  0
   41.2300   33.0890   36.9980 O   0  0  0  0  0  0  0  0  0  0  0  0
   41.0040   33.5210   36.1360 H   0  0  0  0  0  0  0  0  0  0  0  0
   42.0270   29.7210   36.2860 O   0  0  0  0  0  0  0  0  0  0  0  0
   42.5970   29.0000   36.6380 H   0  0  0  0  0  0  0  0  0  0  0  0
   37.6840   31.9340   38.1100 C   0  0  0  0  0  0  0  0  0  0  0  0
   37.0330   32.7810   37.7260 H   0  0  0  0  0  0  0  0  0  0  0  0
   38.1800   31.5670   37.2320 H   0  0  0  0  0  0  0  0  0  0  0  0
   36.3390   29.8840   36.6200 F   0  0  0  0  0  0  0  0  0  0  0  0
   36.1560   29.9860   37.9280 C   0  0  0  0  0  0  0  0  0  0  0  0
   36.7770   30.9300   38.7010 C   0  0  0  0  0  0  0  0  0  0  0  0
   36.5580   30.9580   40.0630 C   0  0  0  0  0  0  0  0  0  0  0  0
   35.7060   30.0130   40.5860 C   0  0  0  0  0  0  0  0  0  0  0  0
   35.0510   29.0440   39.8730 C   0  0  0  0  0  0  0  0  0  0  0  0
   35.2890   29.0350   38.4940 C   0  0  0  0  0  0  0  0  0  0  0  0
   37.0500   31.6990   40.6470 H   0  0  0  0  0  0  0  0  0  0  0  0
   35.5400   30.0420   41.6560 H   0  0  0  0  0  0  0  0  0  0  0  0
   34.3920   28.3290   40.3420 H   0  0  0  0  0  0  0  0  0  0  0  0
   34.6000   28.0100   37.7190 C   0  0  0  0  0  3  0  0  0  0  0  0
   33.5350   28.1820   36.9560 C   0  0  0  0  0  3  0  0  0  0  0  0
   32.9050   27.0510   36.2000 C   0  0  0  0  0  2  0  0  0  0  0  0
   33.4480   26.0990   36.4000 H   0  0  0  0  0  0  0  0  0  0  0  0
  1  2  2  0  0  0  0
  1  6  1  0  0  0  0
  2  3  1  0  0  0  0
  3  7  1  0  0  0  0
  3  4  2  0  0  0  0
  5  4  1  0  0  0  0
  5  8  1  0  0  0  0
  6  5  2  0  0  0  0
  9 14  1  6  0  0  0
  9 19  1  0  0  0  0
  9 10  1  0  0  0  0
 10 15  1  6  0  0  0
 10 11  1  0  0  0  0
 10  2  1  0  0  0  0
 12 17  1  0  0  0  0
 12 16  1  0  0  0  0
 12 11  1  0  0  0  0
 13 18  1  6  0  0  0
 13  9  1  0  0  0  0
 13 12  1  0  0  0  0
 20 19  1  0  0  0  0
 21 22  1  0  0  0  0
 21 13  1  0  0  0  0
 23 28  1  0  0  0  0
 23  1  1  0  0  0  0
 24 23  1  0  0  0  0
 25 23  1  0  0  0  0
 26 27  1  0  0  0  0
 27 32  2  0  0  0  0
 27 28  1  0  0  0  0
 28 29  2  0  0  0  0
 29 30  1  0  0  0  0
 29 33  1  0  0  0  0
 30 34  1  0  0  0  0
 31 35  1  0  0  0  0
 31 30  2  0  0  0  0
 32 31  1  0  0  0  0
 36 32  1  0  0  0  0
 37 36  2  0  0  0  0
 38 39  1  0  0  0  0
 38 37  1  0  0  0  0
M  END
>  <minimizedAffinity>
-5.69580412

$$$$

 OpenBabel03242514513D

 39 41  0  0  1  0  0  0  0  0999 V2000
   37.7950   31.1870   41.0590 C   0  0  0  0  0  0  0  0  0  0  0  0
   38.3820   30.2040   41.8390 C   0  0  0  0  0  0  0  0  0  0  0  0
   39.7240   30.4140   42.2100 C   0  0  0  0  0  0  0  0  0  0  0  0
   40.3610   31.5390   41.7950 N   0  0  0  0  0  0  0  0  0  0  0  0
   39.7410   32.4560   41.0380 C   0  0  0  0  0  0  0  0  0  0  0  0
   38.4830   32.2720   40.6850 N   0  0  0  0  0  0  0  0  0  0  0  0
   40.2460   29.6860   42.8210 H   0  0  0  0  0  0  0  0  0  0  0  0
   40.1890   33.3700   40.6750 H   0  0  0  0  0  0  0  0  0  0  0  0
   37.8280   27.8240   41.3400 C   0  0  2  0  0  0  0  0  0  0  0  0
   37.6610   29.0010   42.3410 C   0  0  1  0  0  0  0  0  0  0  0  0
   37.9930   28.5810   43.5680 O   0  0  0  0  0  0  0  0  0  0  0  0
   38.6470   27.3760   43.5080 C   0  0  0  0  0  0  0  0  0  0  0  0
   37.9880   26.6710   42.3600 C   0  0  1  0  0  0  0  0  0  0  0  0
   36.9550   27.5500   40.7720 H   0  0  0  0  0  0  0  0  0  0  0  0
   36.6160   28.9740   42.2600 H   0  0  0  0  0  0  0  0  0  0  0  0
   39.7220   27.4320   43.3320 H   0  0  0  0  0  0  0  0  0  0  0  0
   38.4960   26.8570   44.4820 H   0  0  0  0  0  0  0  0  0  0  0  0
   38.6130   25.8770   41.9110 H   0  0  0  0  0  0  0  0  0  0  0  0
   38.9010   27.8990   40.5440 O   0  0  0  0  0  0  0  0  0  0  0  0
   38.7180   27.5270   39.6450 H   0  0  0  0  0  0  0  0  0  0  0  0
   36.7600   26.2320   42.8070 O   0  0  0  0  0  0  0  0  0  0  0  0
   36.7430   25.9570   43.7520 H   0  0  0  0  0  0  0  0  0  0  0  0
   36.3810   30.9760   40.6470 C   0  0  0  0  0  0  0  0  0  0  0  0
   36.0170   30.2030   41.3930 H   0  0  0  0  0  0  0  0  0  0  0  0
   35.7120   31.8050   40.7840 H   0  0  0  0  0  0  0  0  0  0  0  0
   34.5200   28.8990   39.9710 F   0  0  0  0  0  0  0  0  0  0  0  0
   35.3520   29.3730   39.0540 C   0  0  0  0  0  0  0  0  0  0  0  0
   36.2530   30.3720   39.3050 C   0  0  0  0  0  0  0  0  0  0  0  0
   37.0700   30.8340   38.2940 C   0  0  0  0  0  0  0  0  0  0  0  0
   36.9330   30.2500   37.0550 C   0  0  0  0  0  0  0  0  0  0  0  0
   36.0560   29.2480   36.7350 C   0  0  0  0  0  0  0  0  0  0  0  0
   35.2380   28.7960   37.7770 C   0  0  0  0  0  0  0  0  0  0  0  0
   37.7650   31.6110   38.5070 H   0  0  0  0  0  0  0  0  0  0  0  0
   37.5780   30.6180   36.2660 H   0  0  0  0  0  0  0  0  0  0  0  0
   35.9960   28.8290   35.7420 H   0  0  0  0  0  0  0  0  0  0  0  0
   34.2990   27.7290   37.4550 C   0  0  0  0  0  3  0  0  0  0  0  0
   34.5810   26.4450   37.3240 C   0  0  0  0  0  3  0  0  0  0  0  0
   33.5300   25.4290   36.9890 C   0  0  0  0  0  2  0  0  0  0  0  0
   32.5390   25.9210   36.8580 H   0  0  0  0  0  0  0  0  0  0  0  0
  1  2  1  0  0  0  0
  2  3  2  0  0  0  0
  2 10  1  0  0  0  0
  3  7  1  0  0  0  0
  4  3  1  0  0  0  0
  5  4  2  0  0  0  0
  6  5  1  0  0  0  0
  6  1  2  0  0  0  0
  8  5  1  0  0  0  0
  9 14  1  6  0  0  0
  9 10  1  0  0  0  0
  9 13  1  0  0  0  0
 10 15  1  1  0  0  0
 10 11  1  0  0  0  0
 12 11  1  0  0  0  0
 12 17  1  0  0  0  0
 13 18  1  6  0  0  0
 13 21  1  0  0  0  0
 13 12  1  0  0  0  0
 16 12  1  0  0  0  0
 19  9  1  0  0  0  0
 20 19  1  0  0  0  0
 21 22  1  0  0  0  0
 23 25  1  0  0  0  0
 23  1  1  0  0  0  0
 23 24  1  0  0  0  0
 27 28  1  0  0  0  0
 27 26  1  0  0  0  0
 28 23  1  0  0  0  0
 29 33  1  0  0  0  0
 29 28  2  0  0  0  0
 30 29  1  0  0  0  0
 31 30  2  0  0  0  0
 31 32  1  0  0  0  0
 32 27  2  0  0  0  0
 34 30  1  0  0  0  0
 35 31  1  0  0  0  0
 36 32  1  0  0  0  0
 37 36  2  0  0  0  0
 38 37  1  0  0  0  0
 39 38  1  0  0  0  0
M  END
>  <minimizedAffinity>
-5.68150043

$$$$

 OpenBabel03242514513D

 39 41  0  0  1  0  0  0  0  0999 V2000
   36.0630   29.7370   40.6790 C   0  0  0  0  0  0  0  0  0  0  0  0
   37.0170   29.0500   41.4130 C   0  0  0  0  0  0  0  0  0  0  0  0
   38.2010   29.7490   41.7150 C   0  0  0  0  0  0  0  0  0  0  0  0
   38.3470   31.0270   41.2840 N   0  0  0  0  0  0  0  0  0  0  0  0
   37.3900   31.6420   40.5750 C   0  0  0  0  0  0  0  0  0  0  0  0
   36.2750   30.9990   40.2850 N   0  0  0  0  0  0  0  0  0  0  0  0
   38.9890   29.2720   42.2870 H   0  0  0  0  0  0  0  0  0  0  0  0
   37.4430   32.6550   40.2020 H   0  0  0  0  0  0  0  0  0  0  0  0
   37.2160   26.6290   40.8450 C   0  0  2  0  0  0  0  0  0  0  0  0
   36.8260   27.6680   41.9330 C   0  0  1  0  0  0  0  0  0  0  0  0
   37.4670   27.3700   43.0700 O   0  0  0  0  0  0  0  0  0  0  0  0
   38.4670   26.4580   42.8390 C   0  0  0  0  0  0  0  0  0  0  0  0
   37.9090   25.5860   41.7540 C   0  0  1  0  0  0  0  0  0  0  0  0
   36.4060   26.0820   40.3910 H   0  0  0  0  0  0  0  0  0  0  0  0
   35.8500   27.2880   42.0020 H   0  0  0  0  0  0  0  0  0  0  0  0
   39.4200   26.8780   42.5150 H   0  0  0  0  0  0  0  0  0  0  0  0
   38.6520   25.9070   43.7890 H   0  0  0  0  0  0  0  0  0  0  0  0
   38.6840   25.0560   41.1700 H   0  0  0  0  0  0  0  0  0  0  0  0
   38.0630   27.0740   39.9100 O   0  0  0  0  0  0  0  0  0  0  0  0
   37.8760   26.6730   39.0240 H   0  0  0  0  0  0  0  0  0  0  0  0
   36.9840   24.7510   42.3440 O   0  0  0  0  0  0  0  0  0  0  0  0
   37.2080   24.4750   43.2620 H   0  0  0  0  0  0  0  0  0  0  0  0
   34.8100   29.0100   40.3390 C   0  0  0  0  0  0  0  0  0  0  0  0
   35.0490   27.9450   40.6480 H   0  0  0  0  0  0  0  0  0  0  0  0
   33.9390   29.2600   40.9150 H   0  0  0  0  0  0  0  0  0  0  0  0
   32.2480   29.5540   39.1670 F   0  0  0  0  0  0  0  0  0  0  0  0
   33.2800   29.2400   38.3970 C   0  0  0  0  0  0  0  0  0  0  0  0
   34.5320   28.9840   38.8890 C   0  0  0  0  0  0  0  0  0  0  0  0
   35.5660   28.6910   38.0240 C   0  0  0  0  0  0  0  0  0  0  0  0
   35.2780   28.6690   36.6780 C   0  0  0  0  0  0  0  0  0  0  0  0
   34.0510   28.9130   36.1190 C   0  0  0  0  0  0  0  0  0  0  0  0
   33.0180   29.2090   37.0160 C   0  0  0  0  0  0  0  0  0  0  0  0
   36.5320   28.4940   38.4240 H   0  0  0  0  0  0  0  0  0  0  0  0
   36.0950   28.4390   36.0060 H   0  0  0  0  0  0  0  0  0  0  0  0
   33.8870   28.8810   35.0520 H   0  0  0  0  0  0  0  0  0  0  0  0
   31.7060   29.4710   36.4380 C   0  0  0  0  0  3  0  0  0  0  0  0
   31.2410   30.6400   36.0360 C   0  0  0  0  0  3  0  0  0  0  0  0
   29.8690   30.7940   35.4530 C   0  0  0  0  0  2  0  0  0  0  0  0
   29.3380   29.8140   35.4390 H   0  0  0  0  0  0  0  0  0  0  0  0
  1  2  1  0  0  0  0
  2  3  2  0  0  0  0
  2 10  1  0  0  0  0
  3  7  1  0  0  0  0
  4  3  1  0  0  0  0
  5  4  2  0  0  0  0
  6  5  1  0  0  0  0
  6  1  2  0  0  0  0
  8  5  1  0  0  0  0
  9 14  1  6  0  0  0
  9 13  1  0  0  0  0
  9 10  1  0  0  0  0
 10 15  1  1  0  0  0
 10 11  1  0  0  0  0
 12 11  1  0  0  0  0
 12 17  1  0  0  0  0
 13 18  1  6  0  0  0
 13 21  1  0  0  0  0
 13 12  1  0  0  0  0
 16 12  1  0  0  0  0
 19  9  1  0  0  0  0
 20 19  1  0  0  0  0
 21 22  1  0  0  0  0
 23 24  1  0  0  0  0
 23  1  1  0  0  0  0
 23 25  1  0  0  0  0
 27 28  1  0  0  0  0
 27 26  1  0  0  0  0
 28 23  1  0  0  0  0
 29 33  1  0  0  0  0
 29 28  2  0  0  0  0
 30 29  1  0  0  0  0
 31 30  2  0  0  0  0
 31 32  1  0  0  0  0
 32 27  2  0  0  0  0
 34 30  1  0  0  0  0
 35 31  1  0  0  0  0
 36 32  1  0  0  0  0
 37 36  2  0  0  0  0
 38 37  1  0  0  0  0
 39 38  1  0  0  0  0
M  END
>  <minimizedAffinity>
-5.67437935

$$$$
