
 OpenBabel03242510293D

 29 30  0  0  1  0  0  0  0  0999 V2000
   46.0830   33.6420   41.5580 C   0  0  1  0  0  0  0  0  0  0  0  0
   45.0040   33.5100   40.5240 C   0  0  0  0  0  0  0  0  0  0  0  0
   45.6060   32.5850   39.4640 C   0  0  0  0  0  0  0  0  0  0  0  0
   46.6430   33.4300   38.7340 C   0  0  0  0  0  0  0  0  0  0  0  0
   47.6980   33.9440   39.6460 C   0  0  0  0  0  0  0  0  0  0  0  0
   47.2720   34.3910   40.9890 C   0  0  2  0  0  0  0  0  0  0  0  0
   46.4370   32.6270   41.8120 H   0  0  0  0  0  0  0  0  0  0  0  0
   44.0680   33.1410   40.9430 H   0  0  0  0  0  0  0  0  0  0  0  0
   44.8350   34.4840   39.9820 H   0  0  0  0  0  0  0  0  0  0  0  0
   44.8700   32.1970   38.7640 H   0  0  0  0  0  0  0  0  0  0  0  0
   46.1920   31.7830   39.9930 H   0  0  0  0  0  0  0  0  0  0  0  0
   46.0800   34.3050   38.3090 H   0  0  0  0  0  0  0  0  0  0  0  0
   47.1030   32.8130   37.9540 H   0  0  0  0  0  0  0  0  0  0  0  0
   48.5000   33.1790   39.7160 H   0  0  0  0  0  0  0  0  0  0  0  0
   48.1690   34.8160   39.1330 H   0  0  0  0  0  0  0  0  0  0  0  0
   47.0280   35.4690   41.0550 H   0  0  0  0  0  0  0  0  0  0  0  0
   44.7770   36.1990   44.0320 C   0  0  0  0  0  0  0  0  0  0  0  0
   45.1760   35.6680   42.7980 C   0  0  0  0  0  0  0  0  0  0  0  0
   45.6270   34.3330   42.7790 C   0  0  0  0  0  0  0  0  0  0  0  0
   45.6340   33.6750   43.9670 N   0  0  0  0  0  0  0  0  0  0  0  0
   45.2480   34.2070   45.1290 C   0  0  0  0  0  0  0  0  0  0  0  0
   44.8180   35.4700   45.1680 N   0  0  0  0  0  0  0  0  0  0  0  0
   44.4370   37.2180   44.0290 H   0  0  0  0  0  0  0  0  0  0  0  0
   45.1640   36.1950   41.8750 H   0  0  0  0  0  0  0  0  0  0  0  0
   45.3210   33.5340   45.9810 H   0  0  0  0  0  0  0  0  0  0  0  0
   48.4050   34.1430   41.9250 C   0  0  0  0  0  3  0  0  0  0  0  0
   49.3490   35.0150   42.2580 C   0  0  0  0  0  3  0  0  0  0  0  0
   49.2890   36.3560   41.6570 C   0  0  0  0  0  2  0  0  0  0  0  0
   50.2620   36.8630   41.9050 H   0  0  0  0  0  0  0  0  0  0  0  0
  1  7  1  1  0  0  0
  1 19  1  0  0  0  0
  2  8  1  0  0  0  0
  2  1  1  0  0  0  0
  3 11  1  0  0  0  0
  3  2  1  0  0  0  0
  4  3  1  0  0  0  0
  4  5  1  0  0  0  0
  5 14  1  0  0  0  0
  5  6  1  0  0  0  0
  6 16  1  6  0  0  0
  6  1  1  0  0  0  0
  6 26  1  0  0  0  0
  9  2  1  0  0  0  0
 10  3  1  0  0  0  0
 12  4  1  0  0  0  0
 13  4  1  0  0  0  0
 15  5  1  0  0  0  0
 17 22  1  0  0  0  0
 18 17  2  0  0  0  0
 19 18  1  0  0  0  0
 19 20  2  0  0  0  0
 20 21  1  0  0  0  0
 21 22  2  0  0  0  0
 21 25  1  0  0  0  0
 23 17  1  0  0  0  0
 24 18  1  0  0  0  0
 26 27  2  0  0  0  0
 28 29  1  0  0  0  0
 28 27  1  0  0  0  0
M  END
>  <minimizedAffinity>
-4.80256557

>  <minimizedRMSD>
1.44462121

$$$$
