
 OpenBabel03242511423D

 29 30  0  0  0  0  0  0  0  0999 V2000
   46.8120   32.9320   46.1930 C   0  0  0  0  0  0  0  0  0  0  0  0
   46.8010   33.9660   46.5570 H   0  0  0  0  0  0  0  0  0  0  0  0
   47.8920   32.6190   46.0740 H   0  0  0  0  0  0  0  0  0  0  0  0
   46.2570   32.0600   47.2230 C   0  0  0  0  0  0  0  0  0  0  0  0
   45.2300   32.2960   48.1240 C   0  0  0  0  0  0  0  0  0  0  0  0
   44.7480   31.3810   49.0240 C   0  0  0  0  0  0  0  0  0  0  0  0
   45.3270   30.1430   49.0290 C   0  0  0  0  0  0  0  0  0  0  0  0
   46.3600   29.8810   48.1380 C   0  0  0  0  0  0  0  0  0  0  0  0
   46.8280   30.8370   47.2370 C   0  0  0  0  0  0  0  0  0  0  0  0
   44.8440   33.3100   48.0290 H   0  0  0  0  0  0  0  0  0  0  0  0
   43.9480   31.7770   49.6320 H   0  0  0  0  0  0  0  0  0  0  0  0
   44.8520   29.5060   49.7900 H   0  0  0  0  0  0  0  0  0  0  0  0
   46.6260   28.8430   48.3580 H   0  0  0  0  0  0  0  0  0  0  0  0
   47.9790   30.1780   46.6380 C   0  0  0  0  0  3  0  0  0  0  0  0
   48.2040   29.6380   45.4590 C   0  0  0  0  0  3  0  0  0  0  0  0
   49.3610   28.9850   44.8840 C   0  0  0  0  0  2  0  0  0  0  0  0
   50.1830   28.9870   45.6540 H   0  0  0  0  0  0  0  0  0  0  0  0
   46.1820   32.7380   44.8560 C   0  0  0  0  0  0  0  0  0  0  0  0
   45.2060   32.2330   44.9770 H   0  0  0  0  0  0  0  0  0  0  0  0
   46.8660   32.3280   44.0930 H   0  0  0  0  0  0  0  0  0  0  0  0
   44.5620   36.0540   44.6030 C   0  0  0  0  0  0  0  0  0  0  0  0
   44.9900   36.4950   43.3260 C   0  0  0  0  0  0  0  0  0  0  0  0
   45.8190   35.6450   42.6210 C   0  0  0  0  0  0  0  0  0  0  0  0
   46.1730   34.4750   43.1580 N   0  0  0  0  0  0  0  0  0  0  0  0
   45.7330   34.1010   44.3890 C   0  0  0  0  0  0  0  0  0  0  0  0
   44.9440   34.8690   45.1050 N   0  0  0  0  0  0  0  0  0  0  0  0
   43.9030   36.7610   45.1300 H   0  0  0  0  0  0  0  0  0  0  0  0
   44.6760   37.4580   42.9260 H   0  0  0  0  0  0  0  0  0  0  0  0
   46.1860   35.9180   41.6360 H   0  0  0  0  0  0  0  0  0  0  0  0
  1  2  1  0  0  0  0
  1  4  1  0  0  0  0
  3  1  1  0  0  0  0
  4  9  2  0  0  0  0
  4  5  1  0  0  0  0
  5  6  2  0  0  0  0
  6  7  1  0  0  0  0
  6 11  1  0  0  0  0
  7 12  1  0  0  0  0
  8 13  1  0  0  0  0
  8  7  2  0  0  0  0
  9  8  1  0  0  0  0
 10  5  1  0  0  0  0
 14  9  1  0  0  0  0
 15 14  2  0  0  0  0
 16 15  1  0  0  0  0
 16 17  1  0  0  0  0
 18 19  1  0  0  0  0
 18  1  1  0  0  0  0
 20 18  1  0  0  0  0
 21 26  1  0  0  0  0
 21 27  1  0  0  0  0
 22 21  2  0  0  0  0
 23 24  2  0  0  0  0
 23 22  1  0  0  0  0
 24 25  1  0  0  0  0
 25 18  1  0  0  0  0
 25 26  2  0  0  0  0
 28 22  1  0  0  0  0
 29 23  1  0  0  0  0
M  END
>  <minimizedAffinity>
-4.56486702

>  <minimizedRMSD>
1.1570884

$$$$
