
 OpenBabel03252504453D

 16 16  0  0  0  0  0  0  0  0999 V2000
   37.3740   28.5020   42.7720 C   0  0  0  0  0  0  0  0  0  0  0  0
   38.7270   28.5160   43.1340 C   0  0  0  0  0  0  0  0  0  0  0  0
   39.5340   29.5480   42.6210 C   0  0  0  0  0  0  0  0  0  0  0  0
   38.9480   30.4610   41.8070 N   0  0  0  0  0  0  0  0  0  0  0  0
   37.6360   30.4080   41.4840 C   0  0  0  0  0  0  0  0  0  0  0  0
   36.8560   29.4280   41.9670 N   0  0  0  0  0  0  0  0  0  0  0  0
   39.1810   27.7770   43.7870 H   0  0  0  0  0  0  0  0  0  0  0  0
   40.5830   29.5960   42.8750 H   0  0  0  0  0  0  0  0  0  0  0  0
   36.5540   27.3890   43.3390 C   0  0  0  0  0  0  0  0  0  0  0  0
   36.2810   27.6010   44.4060 H   0  0  0  0  0  0  0  0  0  0  0  0
   37.0870   26.4190   43.3210 H   0  0  0  0  0  0  0  0  0  0  0  0
   35.6130   27.3610   42.7350 H   0  0  0  0  0  0  0  0  0  0  0  0
   37.0750   31.4250   40.6030 C   0  0  0  0  0  3  0  0  0  0  0  0
   37.7630   32.5200   40.3260 C   0  0  0  0  0  3  0  0  0  0  0  0
   37.1900   33.5650   39.4230 C   0  0  0  0  0  2  0  0  0  0  0  0
   37.7790   33.6410   38.4740 H   0  0  0  0  0  0  0  0  0  0  0  0
  1  2  1  0  0  0  0
  1  9  1  0  0  0  0
  2  7  1  0  0  0  0
  3  8  1  0  0  0  0
  3  2  2  0  0  0  0
  4  3  1  0  0  0  0
  5  4  2  0  0  0  0
  5  6  1  0  0  0  0
  6  1  2  0  0  0  0
  9 10  1  0  0  0  0
 11  9  1  0  0  0  0
 12  9  1  0  0  0  0
 13  5  1  0  0  0  0
 14 13  2  0  0  0  0
 15 14  1  0  0  0  0
 16 15  1  0  0  0  0
M  END
>  <minimizedAffinity>
-3.67030716

$$$$

 OpenBabel03252504453D

 16 16  0  0  0  0  0  0  0  0999 V2000
   37.3160   29.0860   42.2080 C   0  0  0  0  0  0  0  0  0  0  0  0
   36.2530   28.3250   41.7030 C   0  0  0  0  0  0  0  0  0  0  0  0
   35.4690   28.8900   40.6810 C   0  0  0  0  0  0  0  0  0  0  0  0
   35.7940   30.1350   40.2510 N   0  0  0  0  0  0  0  0  0  0  0  0
   36.8300   30.8330   40.7690 C   0  0  0  0  0  0  0  0  0  0  0  0
   37.5860   30.3050   41.7450 N   0  0  0  0  0  0  0  0  0  0  0  0
   36.0060   27.3300   42.0580 H   0  0  0  0  0  0  0  0  0  0  0  0
   34.6390   28.3380   40.2630 H   0  0  0  0  0  0  0  0  0  0  0  0
   38.1220   28.4480   43.2930 C   0  0  0  0  0  0  0  0  0  0  0  0
   38.8410   27.7000   42.8660 H   0  0  0  0  0  0  0  0  0  0  0  0
   37.4910   27.9170   44.0320 H   0  0  0  0  0  0  0  0  0  0  0  0
   38.7130   29.2740   43.7630 H   0  0  0  0  0  0  0  0  0  0  0  0
   37.1210   32.1670   40.2570 C   0  0  0  0  0  3  0  0  0  0  0  0
   38.2300   32.7910   40.6170 C   0  0  0  0  0  3  0  0  0  0  0  0
   38.5310   34.1590   40.0950 C   0  0  0  0  0  2  0  0  0  0  0  0
   39.4320   34.1450   39.4300 H   0  0  0  0  0  0  0  0  0  0  0  0
  1  9  1  0  0  0  0
  2  7  1  0  0  0  0
  2  1  2  0  0  0  0
  3  2  1  0  0  0  0
  4  3  2  0  0  0  0
  4  5  1  0  0  0  0
  5  6  2  0  0  0  0
  6  1  1  0  0  0  0
  8  3  1  0  0  0  0
  9 12  1  0  0  0  0
  9 11  1  0  0  0  0
 10  9  1  0  0  0  0
 13 14  2  0  0  0  0
 13  5  1  0  0  0  0
 15 14  1  0  0  0  0
 16 15  1  0  0  0  0
M  END
>  <minimizedAffinity>
-3.62625432

$$$$

 OpenBabel03252504453D

 16 16  0  0  0  0  0  0  0  0999 V2000
   37.0360   30.7250   40.8980 C   0  0  0  0  0  0  0  0  0  0  0  0
   35.8600   30.2320   40.3180 C   0  0  0  0  0  0  0  0  0  0  0  0
   35.4370   28.9430   40.6880 C   0  0  0  0  0  0  0  0  0  0  0  0
   36.1950   28.2610   41.5820 N   0  0  0  0  0  0  0  0  0  0  0  0
   37.3250   28.7780   42.1160 C   0  0  0  0  0  0  0  0  0  0  0  0
   37.7410   30.0070   41.7710 N   0  0  0  0  0  0  0  0  0  0  0  0
   35.2640   30.7900   39.6030 H   0  0  0  0  0  0  0  0  0  0  0  0
   34.5350   28.5240   40.2650 H   0  0  0  0  0  0  0  0  0  0  0  0
   37.4500   32.0980   40.4760 C   0  0  0  0  0  0  0  0  0  0  0  0
   36.8440   32.8770   41.0100 H   0  0  0  0  0  0  0  0  0  0  0  0
   37.3200   32.2640   39.3890 H   0  0  0  0  0  0  0  0  0  0  0  0
   38.5180   32.2080   40.7920 H   0  0  0  0  0  0  0  0  0  0  0  0
   38.0910   27.9870   43.0720 C   0  0  0  0  0  3  0  0  0  0  0  0
   39.2220   27.4080   42.7020 C   0  0  0  0  0  3  0  0  0  0  0  0
   40.0100   26.5960   43.6800 C   0  0  0  0  0  2  0  0  0  0  0  0
   40.9950   27.0810   43.9010 H   0  0  0  0  0  0  0  0  0  0  0  0
  1  6  1  0  0  0  0
  2  3  1  0  0  0  0
  2  1  2  0  0  0  0
  3  4  2  0  0  0  0
  4  5  1  0  0  0  0
  5 13  1  0  0  0  0
  6  5  2  0  0  0  0
  7  2  1  0  0  0  0
  8  3  1  0  0  0  0
  9 12  1  0  0  0  0
  9  1  1  0  0  0  0
  9 10  1  0  0  0  0
 11  9  1  0  0  0  0
 14 13  2  0  0  0  0
 14 15  1  0  0  0  0
 15 16  1  0  0  0  0
M  END
>  <minimizedAffinity>
-3.54738736

$$$$

 OpenBabel03252504453D

 16 16  0  0  0  0  0  0  0  0999 V2000
   37.8510   32.4260   40.3870 C   0  0  0  0  0  0  0  0  0  0  0  0
   39.1720   32.6380   40.8040 C   0  0  0  0  0  0  0  0  0  0  0  0
   39.7680   31.6590   41.6180 C   0  0  0  0  0  0  0  0  0  0  0  0
   39.0240   30.5730   41.9470 N   0  0  0  0  0  0  0  0  0  0  0  0
   37.7510   30.4110   41.5210 C   0  0  0  0  0  0  0  0  0  0  0  0
   37.1700   31.3390   40.7440 N   0  0  0  0  0  0  0  0  0  0  0  0
   39.7540   33.5130   40.5320 H   0  0  0  0  0  0  0  0  0  0  0  0
   40.7850   31.7820   41.9620 H   0  0  0  0  0  0  0  0  0  0  0  0
   37.2570   33.4920   39.5230 C   0  0  0  0  0  0  0  0  0  0  0  0
   37.6210   33.3960   38.4670 H   0  0  0  0  0  0  0  0  0  0  0  0
   37.5150   34.5110   39.8710 H   0  0  0  0  0  0  0  0  0  0  0  0
   36.1520   33.3140   39.5310 H   0  0  0  0  0  0  0  0  0  0  0  0
   37.0110   29.2180   41.9150 C   0  0  0  0  0  3  0  0  0  0  0  0
   37.3190   28.5830   43.0340 C   0  0  0  0  0  3  0  0  0  0  0  0
   36.5630   27.3590   43.4400 C   0  0  0  0  0  2  0  0  0  0  0  0
   35.9770   27.5420   44.3770 H   0  0  0  0  0  0  0  0  0  0  0  0
  1  6  2  0  0  0  0
  1  2  1  0  0  0  0
  2  3  2  0  0  0  0
  3  4  1  0  0  0  0
  3  8  1  0  0  0  0
  5 13  1  0  0  0  0
  5  4  2  0  0  0  0
  6  5  1  0  0  0  0
  7  2  1  0  0  0  0
  9 12  1  0  0  0  0
  9 11  1  0  0  0  0
  9  1  1  0  0  0  0
 10  9  1  0  0  0  0
 13 14  2  0  0  0  0
 14 15  1  0  0  0  0
 15 16  1  0  0  0  0
M  END
>  <minimizedAffinity>
-3.52166629

$$$$

 OpenBabel03252504453D

 16 16  0  0  0  0  0  0  0  0999 V2000
   37.1830   32.0540   39.6380 C   0  0  0  0  0  0  0  0  0  0  0  0
   37.0530   31.3920   38.4090 C   0  0  0  0  0  0  0  0  0  0  0  0
   36.9130   29.9930   38.4300 C   0  0  0  0  0  0  0  0  0  0  0  0
   36.9140   29.3760   39.6380 N   0  0  0  0  0  0  0  0  0  0  0  0
   37.0430   30.0570   40.7990 C   0  0  0  0  0  0  0  0  0  0  0  0
   37.1780   31.3920   40.7930 N   0  0  0  0  0  0  0  0  0  0  0  0
   37.0540   31.9010   37.4510 H   0  0  0  0  0  0  0  0  0  0  0  0
   36.8100   29.4430   37.5060 H   0  0  0  0  0  0  0  0  0  0  0  0
   37.3300   33.5400   39.5700 C   0  0  0  0  0  0  0  0  0  0  0  0
   36.3360   34.0300   39.3950 H   0  0  0  0  0  0  0  0  0  0  0  0
   38.0050   33.8610   38.7530 H   0  0  0  0  0  0  0  0  0  0  0  0
   37.7060   33.8580   40.5750 H   0  0  0  0  0  0  0  0  0  0  0  0
   37.0360   29.3260   42.0610 C   0  0  0  0  0  3  0  0  0  0  0  0
   36.5730   28.0880   42.1110 C   0  0  0  0  0  3  0  0  0  0  0  0
   36.5640   27.3370   43.4040 C   0  0  0  0  0  2  0  0  0  0  0  0
   37.2670   26.4650   43.3660 H   0  0  0  0  0  0  0  0  0  0  0  0
  1  6  1  0  0  0  0
  2  3  1  0  0  0  0
  2  1  2  0  0  0  0
  3  4  2  0  0  0  0
  4  5  1  0  0  0  0
  5 13  1  0  0  0  0
  6  5  2  0  0  0  0
  7  2  1  0  0  0  0
  8  3  1  0  0  0  0
  9  1  1  0  0  0  0
  9 12  1  0  0  0  0
 10  9  1  0  0  0  0
 11  9  1  0  0  0  0
 13 14  2  0  0  0  0
 14 15  1  0  0  0  0
 16 15  1  0  0  0  0
M  END
>  <minimizedAffinity>
-3.51865315

$$$$

 OpenBabel03252504453D

 16 16  0  0  0  0  0  0  0  0999 V2000
   38.2910   27.2860   43.1900 C   0  0  0  0  0  0  0  0  0  0  0  0
   39.5320   26.8500   43.6740 C   0  0  0  0  0  0  0  0  0  0  0  0
   39.8920   25.5100   43.4430 C   0  0  0  0  0  0  0  0  0  0  0  0
   39.0140   24.7280   42.7670 N   0  0  0  0  0  0  0  0  0  0  0  0
   37.8260   25.1930   42.3180 C   0  0  0  0  0  0  0  0  0  0  0  0
   37.4700   26.4690   42.5330 N   0  0  0  0  0  0  0  0  0  0  0  0
   40.2240   27.4890   44.2130 H   0  0  0  0  0  0  0  0  0  0  0  0
   40.8400   25.1320   43.7980 H   0  0  0  0  0  0  0  0  0  0  0  0
   37.9480   28.7160   43.4580 C   0  0  0  0  0  0  0  0  0  0  0  0
   38.4820   29.3940   42.7410 H   0  0  0  0  0  0  0  0  0  0  0  0
   38.2260   29.0330   44.4820 H   0  0  0  0  0  0  0  0  0  0  0  0
   36.8490   28.8080   43.2750 H   0  0  0  0  0  0  0  0  0  0  0  0
   36.9320   24.2930   41.5990 C   0  0  0  0  0  3  0  0  0  0  0  0
   36.6140   24.5380   40.3380 C   0  0  0  0  0  3  0  0  0  0  0  0
   35.6970   23.6180   39.5980 C   0  0  0  0  0  2  0  0  0  0  0  0
   36.2370   23.0990   38.7650 H   0  0  0  0  0  0  0  0  0  0  0  0
  1  9  1  0  0  0  0
  1  2  1  0  0  0  0
  2  7  1  0  0  0  0
  3  2  2  0  0  0  0
  3  8  1  0  0  0  0
  4  3  1  0  0  0  0
  5  6  1  0  0  0  0
  5  4  2  0  0  0  0
  6  1  2  0  0  0  0
  9 11  1  0  0  0  0
 10  9  1  0  0  0  0
 12  9  1  0  0  0  0
 13  5  1  0  0  0  0
 14 13  2  0  0  0  0
 15 14  1  0  0  0  0
 16 15  1  0  0  0  0
M  END
>  <minimizedAffinity>
-3.5185883

$$$$

 OpenBabel03252504453D

 16 16  0  0  0  0  0  0  0  0999 V2000
   38.3990   29.6460   42.4290 C   0  0  0  0  0  0  0  0  0  0  0  0
   38.4500   28.5520   43.3030 C   0  0  0  0  0  0  0  0  0  0  0  0
   37.4060   27.6120   43.2390 C   0  0  0  0  0  0  0  0  0  0  0  0
   36.4160   27.8280   42.3370 N   0  0  0  0  0  0  0  0  0  0  0  0
   36.4080   28.9000   41.5130 C   0  0  0  0  0  0  0  0  0  0  0  0
   37.3990   29.8050   41.5630 N   0  0  0  0  0  0  0  0  0  0  0  0
   39.2490   28.3940   44.0190 H   0  0  0  0  0  0  0  0  0  0  0  0
   37.4060   26.7530   43.8950 H   0  0  0  0  0  0  0  0  0  0  0  0
   39.5280   30.6200   42.5300 C   0  0  0  0  0  0  0  0  0  0  0  0
   40.4390   30.2270   42.0070 H   0  0  0  0  0  0  0  0  0  0  0  0
   39.8120   30.8300   43.5790 H   0  0  0  0  0  0  0  0  0  0  0  0
   39.1870   31.5430   41.9960 H   0  0  0  0  0  0  0  0  0  0  0  0
   35.3110   29.0670   40.5670 C   0  0  0  0  0  3  0  0  0  0  0  0
   35.4390   28.6500   39.3180 C   0  0  0  0  0  3  0  0  0  0  0  0
   34.3160   28.8200   38.3460 C   0  0  0  0  0  2  0  0  0  0  0  0
   33.9030   27.8270   38.0330 H   0  0  0  0  0  0  0  0  0  0  0  0
  1  9  1  0  0  0  0
  1  2  1  0  0  0  0
  2  7  1  0  0  0  0
  3  2  2  0  0  0  0
  3  8  1  0  0  0  0
  4  3  1  0  0  0  0
  5  6  1  0  0  0  0
  5  4  2  0  0  0  0
  6  1  2  0  0  0  0
  9 11  1  0  0  0  0
 10  9  1  0  0  0  0
 12  9  1  0  0  0  0
 13  5  1  0  0  0  0
 14 13  2  0  0  0  0
 15 14  1  0  0  0  0
 16 15  1  0  0  0  0
M  END
>  <minimizedAffinity>
-3.51612115

$$$$

 OpenBabel03252504453D

 16 16  0  0  0  0  0  0  0  0999 V2000
   36.8220   28.1570   42.1740 C   0  0  0  0  0  0  0  0  0  0  0  0
   36.7970   27.3190   41.0520 C   0  0  0  0  0  0  0  0  0  0  0  0
   36.9400   27.9140   39.7850 C   0  0  0  0  0  0  0  0  0  0  0  0
   37.0930   29.2610   39.7340 N   0  0  0  0  0  0  0  0  0  0  0  0
   37.1100   30.0310   40.8460 C   0  0  0  0  0  0  0  0  0  0  0  0
   36.9740   29.4750   42.0600 N   0  0  0  0  0  0  0  0  0  0  0  0
   36.6740   26.2420   41.1100 H   0  0  0  0  0  0  0  0  0  0  0  0
   36.9270   27.3040   38.8930 H   0  0  0  0  0  0  0  0  0  0  0  0
   36.6660   27.4840   43.5000 C   0  0  0  0  0  0  0  0  0  0  0  0
   37.6290   27.0050   43.8180 H   0  0  0  0  0  0  0  0  0  0  0  0
   35.8920   26.6920   43.4830 H   0  0  0  0  0  0  0  0  0  0  0  0
   36.4190   28.2950   44.2300 H   0  0  0  0  0  0  0  0  0  0  0  0
   37.2780   31.4730   40.7140 C   0  0  0  0  0  3  0  0  0  0  0  0
   37.0660   32.0650   39.5500 C   0  0  0  0  0  3  0  0  0  0  0  0
   37.2370   33.5430   39.4120 C   0  0  0  0  0  2  0  0  0  0  0  0
   36.2570   34.0420   39.1980 H   0  0  0  0  0  0  0  0  0  0  0  0
  1  9  1  0  0  0  0
  2  7  1  0  0  0  0
  2  1  2  0  0  0  0
  3  2  1  0  0  0  0
  4  3  2  0  0  0  0
  4  5  1  0  0  0  0
  5  6  2  0  0  0  0
  6  1  1  0  0  0  0
  8  3  1  0  0  0  0
  9 10  1  0  0  0  0
  9 12  1  0  0  0  0
 11  9  1  0  0  0  0
 13  5  1  0  0  0  0
 14 13  2  0  0  0  0
 15 14  1  0  0  0  0
 16 15  1  0  0  0  0
M  END
>  <minimizedAffinity>
-3.47864938

$$$$

 OpenBabel03252504453D

 16 16  0  0  0  0  0  0  0  0999 V2000
   36.8580   30.4240   38.2900 C   0  0  0  0  0  0  0  0  0  0  0  0
   37.0940   31.7270   38.7470 C   0  0  0  0  0  0  0  0  0  0  0  0
   36.9990   31.9640   40.1310 C   0  0  0  0  0  0  0  0  0  0  0  0
   36.6850   30.9150   40.9310 N   0  0  0  0  0  0  0  0  0  0  0  0
   36.4660   29.6730   40.4450 C   0  0  0  0  0  0  0  0  0  0  0  0
   36.5520   29.4330   39.1270 N   0  0  0  0  0  0  0  0  0  0  0  0
   37.3440   32.5560   38.0930 H   0  0  0  0  0  0  0  0  0  0  0  0
   37.1740   32.9550   40.5260 H   0  0  0  0  0  0  0  0  0  0  0  0
   36.9690   30.2160   36.8140 C   0  0  0  0  0  0  0  0  0  0  0  0
   38.0440   30.1460   36.5030 H   0  0  0  0  0  0  0  0  0  0  0  0
   36.5090   31.0410   36.2360 H   0  0  0  0  0  0  0  0  0  0  0  0
   36.4780   29.2320   36.6040 H   0  0  0  0  0  0  0  0  0  0  0  0
   36.1320   28.5930   41.3660 C   0  0  0  0  0  3  0  0  0  0  0  0
   36.8690   28.3850   42.4440 C   0  0  0  0  0  3  0  0  0  0  0  0
   36.5290   27.2780   43.3900 C   0  0  0  0  0  2  0  0  0  0  0  0
   36.2090   27.6840   44.3840 H   0  0  0  0  0  0  0  0  0  0  0  0
  1  2  2  0  0  0  0
  1  6  1  0  0  0  0
  2  3  1  0  0  0  0
  3  8  1  0  0  0  0
  3  4  2  0  0  0  0
  5  4  1  0  0  0  0
  5 13  1  0  0  0  0
  6  5  2  0  0  0  0
  7  2  1  0  0  0  0
  9  1  1  0  0  0  0
 10  9  1  0  0  0  0
 11  9  1  0  0  0  0
 12  9  1  0  0  0  0
 13 14  2  0  0  0  0
 14 15  1  0  0  0  0
 15 16  1  0  0  0  0
M  END
>  <minimizedAffinity>
-3.44607854

$$$$
