
 OpenBabel03252508473D

 40 41  0  0  0  0  0  0  0  0999 V2000
   42.9850   32.4160   41.7040 C   0  0  0  0  0  0  0  0  0  0  0  0
   43.5400   31.9380   40.8570 H   0  0  0  0  0  0  0  0  0  0  0  0
   42.0920   32.8910   41.2870 H   0  0  0  0  0  0  0  0  0  0  0  0
   43.6830   34.8150   41.9290 C   0  0  0  0  0  0  0  0  0  0  0  0
   43.8830   33.4710   42.2430 C   0  0  0  0  0  0  0  0  0  0  0  0
   44.9460   33.1600   43.0700 C   0  0  0  0  0  0  0  0  0  0  0  0
   45.7580   34.1410   43.5520 C   0  0  0  0  0  0  0  0  0  0  0  0
   45.5780   35.4630   43.2570 C   0  0  0  0  0  0  0  0  0  0  0  0
   44.5090   35.7440   42.4290 C   0  0  0  0  0  0  0  0  0  0  0  0
   45.1300   32.1370   43.3310 H   0  0  0  0  0  0  0  0  0  0  0  0
   46.5860   33.8580   44.2020 H   0  0  0  0  0  0  0  0  0  0  0  0
   46.2130   36.2600   43.6310 H   0  0  0  0  0  0  0  0  0  0  0  0
   44.3350   36.7910   42.1720 H   0  0  0  0  0  0  0  0  0  0  0  0
   40.2660   35.7250   40.5610 C   0  0  0  0  0  0  0  0  0  0  0  0
   41.2920   35.4750   41.4960 C   0  0  0  0  0  0  0  0  0  0  0  0
   42.5470   35.0980   41.0510 C   0  0  0  0  0  0  0  0  0  0  0  0
   42.7290   34.9860   39.7090 N   0  0  0  0  0  0  0  0  0  0  0  0
   41.7310   35.2310   38.8200 C   0  0  0  0  0  0  0  0  0  0  0  0
   40.5070   35.5990   39.2630 N   0  0  0  0  0  0  0  0  0  0  0  0
   39.3160   36.0150   40.9960 H   0  0  0  0  0  0  0  0  0  0  0  0
   41.1710   35.5570   42.5710 H   0  0  0  0  0  0  0  0  0  0  0  0
   41.9990   35.1090   37.7850 H   0  0  0  0  0  0  0  0  0  0  0  0
   42.6630   31.3850   42.6520 N   0  0  0  0  0  0  0  0  0  0  0  0
   43.2410   30.5260   42.5300 H   0  0  0  0  0  0  0  0  0  0  0  0
   40.9980   30.9960   42.6370 S   0  0  0  0  0  0  0  0  0  0  0  0
   40.1690   32.2210   42.3080 O   0  0  0  0  0  0  0  0  0  0  0  0
   39.3090   32.4760   42.7270 H   0  0  0  0  0  0  0  0  0  0  0  0
   40.5760   30.4300   43.9570 O   0  0  0  0  0  0  0  0  0  0  0  0
   41.1980   30.0260   44.6320 H   0  0  0  0  0  0  0  0  0  0  0  0
   40.7420   29.8510   41.4420 O   0  0  0  0  0  0  0  0  0  0  0  0
   40.1990   28.7250   42.0440 C   0  0  0  0  0  0  0  0  0  0  0  0
   39.5200   28.2500   41.2850 H   0  0  0  0  0  0  0  0  0  0  0  0
   39.6930   28.8990   42.9920 H   0  0  0  0  0  0  0  0  0  0  0  0
   41.3120   27.6750   42.2390 C   0  0  0  0  0  0  0  0  0  0  0  0
   41.4220   27.0610   41.3300 H   0  0  0  0  0  0  0  0  0  0  0  0
   42.2560   28.1790   42.5280 H   0  0  0  0  0  0  0  0  0  0  0  0
   40.8620   26.8540   43.3980 C   0  0  0  0  0  3  0  0  0  0  0  0
   41.3950   26.8780   44.5910 C   0  0  0  0  0  3  0  0  0  0  0  0
   42.5340   27.7660   44.8770 C   0  0  0  0  0  2  0  0  0  0  0  0
   42.5810   27.9290   45.9930 H   0  0  0  0  0  0  0  0  0  0  0  0
  1  5  1  0  0  0  0
  1 23  1  0  0  0  0
  2  1  1  0  0  0  0
  3  1  1  0  0  0  0
  4  5  2  0  0  0  0
  4  9  1  0  0  0  0
  5  6  1  0  0  0  0
  6 10  1  0  0  0  0
  6  7  2  0  0  0  0
  7 11  1  0  0  0  0
  8  7  1  0  0  0  0
  8 12  1  0  0  0  0
  9  8  2  0  0  0  0
 13  9  1  0  0  0  0
 14 20  1  0  0  0  0
 14 15  1  0  0  0  0
 15 21  1  0  0  0  0
 16 15  2  0  0  0  0
 16  4  1  0  0  0  0
 17 16  1  0  0  0  0
 18 19  1  0  0  0  0
 18 17  2  0  0  0  0
 19 14  2  0  0  0  0
 22 18  1  0  0  0  0
 24 23  1  0  0  0  0
 25 23  1  0  0  0  0
 25 28  1  0  0  0  0
 26 25  1  0  0  0  0
 26 27  1  0  0  0  0
 28 29  1  0  0  0  0
 30 31  1  0  0  0  0
 30 25  1  0  0  0  0
 31 34  1  0  0  0  0
 31 33  1  0  0  0  0
 32 31  1  0  0  0  0
 34 36  1  0  0  0  0
 34 37  1  0  0  0  0
 35 34  1  0  0  0  0
 37 38  2  0  0  0  0
 38 39  1  0  0  0  0
 39 40  1  0  0  0  0
M  END
>  <minimizedAffinity>
-4.74566412

>  <minimizedRMSD>
0.877148747

$$$$
