
 OpenBabel03242514463D

 29 30  0  0  1  0  0  0  0  0999 V2000
   45.4550   34.8970   44.0860 C   0  0  0  0  0  0  0  0  0  0  0  0
   46.4950   34.1280   43.5380 C   0  0  0  0  0  0  0  0  0  0  0  0
   47.0480   33.1310   44.3230 C   0  0  0  0  0  0  0  0  0  0  0  0
   46.5730   32.9260   45.5920 N   0  0  0  0  0  0  0  0  0  0  0  0
   45.5660   33.6940   46.0800 C   0  0  0  0  0  0  0  0  0  0  0  0
   45.0080   34.6720   45.3350 N   0  0  0  0  0  0  0  0  0  0  0  0
   47.8570   32.5000   43.9600 H   0  0  0  0  0  0  0  0  0  0  0  0
   45.1280   33.6060   47.0640 H   0  0  0  0  0  0  0  0  0  0  0  0
   48.4050   34.9000   42.1120 C   0  0  2  0  0  0  0  0  0  0  0  0
   46.9820   34.3650   42.1400 C   0  0  1  0  0  0  0  0  0  0  0  0
   46.9430   33.2630   41.3430 O   0  0  0  0  0  0  0  0  0  0  0  0
   48.2010   32.8370   41.0430 C   0  0  0  0  0  0  0  0  0  0  0  0
   49.0100   34.1180   40.9480 C   0  0  1  0  0  0  0  0  0  0  0  0
   48.4510   35.9930   41.9070 H   0  0  0  0  0  0  0  0  0  0  0  0
   46.3780   35.1510   41.6690 H   0  0  0  0  0  0  0  0  0  0  0  0
   48.2040   32.3600   40.0370 H   0  0  0  0  0  0  0  0  0  0  0  0
   48.6630   32.1260   41.7300 H   0  0  0  0  0  0  0  0  0  0  0  0
   50.0930   33.9650   41.0640 H   0  0  0  0  0  0  0  0  0  0  0  0
   49.1370   34.6710   43.2430 O   0  0  0  0  0  0  0  0  0  0  0  0
   49.7090   33.8780   43.1400 H   0  0  0  0  0  0  0  0  0  0  0  0
   48.6780   34.6960   39.7290 O   0  0  0  0  0  0  0  0  0  0  0  0
   48.7360   34.0430   38.9880 H   0  0  0  0  0  0  0  0  0  0  0  0
   44.8690   35.9720   43.2350 C   0  0  0  0  0  0  0  0  0  0  0  0
   44.5290   36.7770   43.9200 H   0  0  0  0  0  0  0  0  0  0  0  0
   45.6120   36.4830   42.5900 H   0  0  0  0  0  0  0  0  0  0  0  0
   43.6680   35.5110   42.4940 C   0  0  0  0  0  0  0  0  0  0  0  0
   43.6360   35.5120   41.1400 C   0  0  0  0  0  0  0  0  0  0  0  0
   42.5220   35.0860   40.2110 C   0  0  0  0  0  0  0  0  0  0  0  0
   42.8970   34.3010   39.5360 H   0  0  0  0  0  0  0  0  0  0  0  0
  1  6  1  0  0  0  0
  2  1  2  0  0  0  0
  2  3  1  0  0  0  0
  3  4  2  0  0  0  0
  4  5  1  0  0  0  0
  5  8  1  0  0  0  0
  6  5  2  0  0  0  0
  7  3  1  0  0  0  0
  9 14  1  6  0  0  0
  9 10  1  0  0  0  0
  9 19  1  0  0  0  0
 10 15  1  6  0  0  0
 10  2  1  0  0  0  0
 11 10  1  0  0  0  0
 12 11  1  0  0  0  0
 12 17  1  0  0  0  0
 13 12  1  0  0  0  0
 13 18  1  1  0  0  0
 13  9  1  0  0  0  0
 16 12  1  0  0  0  0
 20 19  1  0  0  0  0
 21 13  1  0  0  0  0
 22 21  1  0  0  0  0
 23 24  1  0  0  0  0
 23  1  1  0  0  0  0
 25 23  1  0  0  0  0
 26 23  1  0  0  0  0
 27 26  2  0  0  0  0
 28 27  1  0  0  0  0
 29 28  1  0  0  0  0
M  END
>  <minimizedAffinity>
-5.03219271

>  <minimizedRMSD>
0.37950024

$$$$
