
 OpenBabel03242517193D

 34 35  0  0  0  0  0  0  0  0999 V2000
   44.6090   35.6490   43.0700 C   0  0  0  0  0  0  0  0  0  0  0  0
   43.7930   34.8700   42.2020 C   0  0  0  0  0  0  0  0  0  0  0  0
   44.0000   33.5070   42.1660 C   0  0  0  0  0  0  0  0  0  0  0  0
   44.9700   33.0110   42.9640 N   0  0  0  0  0  0  0  0  0  0  0  0
   45.7340   33.7460   43.7790 C   0  0  0  0  0  0  0  0  0  0  0  0
   45.5340   35.0660   43.8150 N   0  0  0  0  0  0  0  0  0  0  0  0
   44.4070   36.7130   43.0630 H   0  0  0  0  0  0  0  0  0  0  0  0
   43.4040   32.8710   41.5190 H   0  0  0  0  0  0  0  0  0  0  0  0
   46.7950   33.2050   44.6520 C   0  0  0  0  0  0  0  0  0  0  0  0
   47.3090   34.0400   45.1950 H   0  0  0  0  0  0  0  0  0  0  0  0
   47.5550   32.6500   44.0710 H   0  0  0  0  0  0  0  0  0  0  0  0
   46.2080   32.2630   45.6640 C   0  0  0  0  0  0  0  0  0  0  0  0
   45.3590   31.7110   45.1860 H   0  0  0  0  0  0  0  0  0  0  0  0
   46.9690   31.4830   45.8760 H   0  0  0  0  0  0  0  0  0  0  0  0
   45.7750   32.9120   46.9040 C   0  0  0  0  0  0  0  0  0  0  0  0
   45.2680   32.3430   47.9940 C   0  0  0  0  0  0  0  0  0  0  0  0
   45.0860   30.8740   48.0390 C   0  0  0  0  0  0  0  0  0  0  0  0
   44.5800   30.6110   48.9940 H   0  0  0  0  0  0  0  0  0  0  0  0
   42.7640   35.5190   41.3750 C   0  0  0  0  0  0  0  0  0  0  0  0
   41.4810   35.5140   41.6400 C   0  0  0  0  0  0  0  0  0  0  0  0
   40.4710   36.1860   40.7730 C   0  0  0  0  0  0  0  0  0  0  0  0
   39.7150   36.7300   41.3800 H   0  0  0  0  0  0  0  0  0  0  0  0
   41.0210   36.9570   40.2110 H   0  0  0  0  0  0  0  0  0  0  0  0
   41.1020   36.1290   38.0490 F   0  0  0  0  0  0  0  0  0  0  0  0
   40.1750   35.2490   38.5100 C   0  0  0  0  0  0  0  0  0  0  0  0
   39.8360   35.2470   39.8540 C   0  0  0  0  0  0  0  0  0  0  0  0
   38.8930   34.3170   40.1890 C   0  0  0  0  0  0  0  0  0  0  0  0
   38.2710   33.4110   39.3430 C   0  0  0  0  0  0  0  0  0  0  0  0
   38.6730   33.4860   38.0120 C   0  0  0  0  0  0  0  0  0  0  0  0
   39.6100   34.3820   37.5720 C   0  0  0  0  0  0  0  0  0  0  0  0
   38.5880   34.2740   41.2450 H   0  0  0  0  0  0  0  0  0  0  0  0
   37.5460   32.7280   39.7190 H   0  0  0  0  0  0  0  0  0  0  0  0
   38.2090   32.7920   37.3090 H   0  0  0  0  0  0  0  0  0  0  0  0
   39.9020   34.4180   36.5450 H   0  0  0  0  0  0  0  0  0  0  0  0
  1  6  1  0  0  0  0
  2  1  2  0  0  0  0
  3  2  1  0  0  0  0
  3  4  2  0  0  0  0
  4  5  1  0  0  0  0
  5  6  2  0  0  0  0
  5  9  1  0  0  0  0
  7  1  1  0  0  0  0
  8  3  1  0  0  0  0
  9 10  1  0  0  0  0
  9 12  1  0  0  0  0
 11  9  1  0  0  0  0
 12 14  1  0  0  0  0
 12 15  1  0  0  0  0
 13 12  1  0  0  0  0
 15 16  2  0  0  0  0
 16 17  1  0  0  0  0
 17 18  1  0  0  0  0
 19 20  2  0  0  0  0
 19  2  1  0  0  0  0
 21 22  1  0  0  0  0
 21 20  1  0  0  0  0
 23 21  1  0  0  0  0
 24 25  1  0  0  0  0
 25 26  1  0  0  0  0
 26 27  2  0  0  0  0
 26 21  1  0  0  0  0
 27 31  1  0  0  0  0
 28 32  1  0  0  0  0
 28 27  1  0  0  0  0
 29 28  2  0  0  0  0
 30 29  1  0  0  0  0
 30 25  2  0  0  0  0
 33 29  1  0  0  0  0
 34 30  1  0  0  0  0
M  END
>  <minimizedAffinity>
-6.18432903

>  <minimizedRMSD>
1.01834571

$$$$
