
 OpenBabel03242519323D

 43 45  0  0  0  0  0  0  0  0999 V2000
   41.2560   34.6010   40.6350 C   0  0  0  0  0  0  0  0  0  0  0  0
   40.5680   35.8410   40.4790 C   0  0  0  0  0  0  0  0  0  0  0  0
   39.2010   35.8440   40.1780 C   0  0  0  0  0  0  0  0  0  0  0  0
   38.6020   34.6180   40.0500 N   0  0  0  0  0  0  0  0  0  0  0  0
   39.3050   33.4480   40.2100 C   0  0  0  0  0  0  0  0  0  0  0  0
   40.5960   33.4600   40.4940 N   0  0  0  0  0  0  0  0  0  0  0  0
   40.9860   36.8350   40.5660 H   0  0  0  0  0  0  0  0  0  0  0  0
   38.6420   36.7400   40.0510 H   0  0  0  0  0  0  0  0  0  0  0  0
   42.6790   34.7400   40.9440 C   0  0  0  0  0  0  0  0  0  0  0  0
   43.3690   33.5080   41.2370 C   0  0  0  0  0  0  0  0  0  0  0  0
   43.8290   33.3730   42.6380 C   0  0  0  0  0  0  0  0  0  0  0  0
   44.7160   34.5540   43.0370 C   0  0  0  0  0  0  0  0  0  0  0  0
   44.1990   35.8700   42.5800 C   0  0  0  0  0  0  0  0  0  0  0  0
   42.7510   35.7750   42.1190 C   0  0  0  0  0  0  0  0  0  0  0  0
   43.1560   35.2880   40.0780 H   0  0  0  0  0  0  0  0  0  0  0  0
   42.7060   32.6220   41.0260 H   0  0  0  0  0  0  0  0  0  0  0  0
   44.2600   33.3530   40.5870 H   0  0  0  0  0  0  0  0  0  0  0  0
   43.0780   33.2790   43.4150 H   0  0  0  0  0  0  0  0  0  0  0  0
   44.4870   32.4670   42.7310 H   0  0  0  0  0  0  0  0  0  0  0  0
   45.7410   34.3430   42.6470 H   0  0  0  0  0  0  0  0  0  0  0  0
   44.8250   34.5970   44.1450 H   0  0  0  0  0  0  0  0  0  0  0  0
   44.7670   36.2900   41.7160 H   0  0  0  0  0  0  0  0  0  0  0  0
   44.2140   36.6260   43.3760 H   0  0  0  0  0  0  0  0  0  0  0  0
   42.4790   36.7400   41.6620 H   0  0  0  0  0  0  0  0  0  0  0  0
   42.0780   35.4490   42.9320 H   0  0  0  0  0  0  0  0  0  0  0  0
   38.4950   32.2490   40.0310 C   0  0  0  0  0  0  0  0  0  0  0  0
   38.9480   31.2640   39.2390 N   0  0  0  0  0  0  0  0  0  0  0  0
   38.0350   30.2570   39.2240 C   0  0  0  0  0  0  0  0  0  0  0  0
   37.0170   30.6430   40.0170 N   0  0  0  0  0  0  0  0  0  0  0  0
   37.2870   31.8520   40.5130 N   0  0  0  0  0  0  0  0  0  0  0  0
   38.1120   29.3130   38.6690 H   0  0  0  0  0  0  0  0  0  0  0  0
   35.8190   29.9010   40.3350 C   0  0  0  0  0  0  0  0  0  0  0  0
   35.2820   29.5290   39.4810 H   0  0  0  0  0  0  0  0  0  0  0  0
   35.1070   30.6000   40.8600 H   0  0  0  0  0  0  0  0  0  0  0  0
   36.1360   28.8390   41.2880 C   0  0  0  0  0  3  0  0  0  0  0  0
   36.9020   28.7410   42.3490 C   0  0  0  0  0  3  0  0  0  0  0  0
   37.0700   27.5590   43.3130 C   0  0  0  0  0  0  0  0  0  0  0  0
   38.0300   27.7880   43.8200 H   0  0  0  0  0  0  0  0  0  0  0  0
   36.1950   27.6020   44.0030 H   0  0  0  0  0  0  0  0  0  0  0  0
   37.1520   26.3430   42.5020 C   0  0  0  0  0  2  0  0  0  0  0  0
   37.3690   25.2580   41.7810 C   0  0  0  0  0  2  0  0  0  0  0  0
   36.5440   24.2200   41.0610 C   0  0  0  0  0  2  0  0  0  0  0  0
   35.4650   24.5530   41.1700 H   0  0  0  0  0  0  0  0  0  0  0  0
  1  9  1  0  0  0  0
  2  7  1  0  0  0  0
  2  1  2  0  0  0  0
  3  2  1  0  0  0  0
  4  3  2  0  0  0  0
  4  5  1  0  0  0  0
  5  6  2  0  0  0  0
  6  1  1  0  0  0  0
  8  3  1  0  0  0  0
  9 10  1  0  0  0  0
  9 14  1  0  0  0  0
 10 11  1  0  0  0  0
 11 19  1  0  0  0  0
 11 12  1  0  0  0  0
 11 18  1  0  0  0  0
 12 21  1  0  0  0  0
 13 12  1  0  0  0  0
 13 23  1  0  0  0  0
 14 13  1  0  0  0  0
 14 25  1  0  0  0  0
 15  9  1  0  0  0  0
 16 10  1  0  0  0  0
 17 10  1  0  0  0  0
 20 12  1  0  0  0  0
 22 13  1  0  0  0  0
 24 14  1  0  0  0  0
 26  5  1  0  0  0  0
 26 30  2  0  0  0  0
 27 26  1  0  0  0  0
 28 27  2  0  0  0  0
 28 29  1  0  0  0  0
 29 32  1  0  0  0  0
 29 30  1  0  0  0  0
 31 28  1  0  0  0  0
 32 34  1  0  0  0  0
 32 35  1  0  0  0  0
 33 32  1  0  0  0  0
 35 36  2  0  0  0  0
 36 37  1  0  0  0  0
 37 38  1  0  0  0  0
 37 39  1  0  0  0  0
 40 37  1  0  0  0  0
 41 40  1  0  0  0  0
 42 43  1  0  0  0  0
 42 41  1  0  0  0  0
M  END
>  <minimizedAffinity>
-6.08432436

$$$$

 OpenBabel03242519323D

 43 45  0  0  0  0  0  0  0  0999 V2000
   36.8740   28.1550   41.7000 C   0  0  0  0  0  0  0  0  0  0  0  0
   37.2120   29.4670   42.1450 C   0  0  0  0  0  0  0  0  0  0  0  0
   36.8040   30.5810   41.4000 C   0  0  0  0  0  0  0  0  0  0  0  0
   36.0860   30.3220   40.2610 N   0  0  0  0  0  0  0  0  0  0  0  0
   35.7840   29.0400   39.8710 C   0  0  0  0  0  0  0  0  0  0  0  0
   36.1760   27.9980   40.5840 N   0  0  0  0  0  0  0  0  0  0  0  0
   37.7740   29.7320   43.0300 H   0  0  0  0  0  0  0  0  0  0  0  0
   37.0290   31.5790   41.6880 H   0  0  0  0  0  0  0  0  0  0  0  0
   37.3650   27.0830   42.5670 C   0  0  0  0  0  0  0  0  0  0  0  0
   38.1940   27.5110   43.6660 C   0  0  0  0  0  0  0  0  0  0  0  0
   39.6100   27.0890   43.5750 C   0  0  0  0  0  0  0  0  0  0  0  0
   39.7180   25.5700   43.4240 C   0  0  0  0  0  0  0  0  0  0  0  0
   38.7400   24.9940   42.4650 C   0  0  0  0  0  0  0  0  0  0  0  0
   38.0890   26.0740   41.6110 C   0  0  0  0  0  0  0  0  0  0  0  0
   36.4620   26.5060   42.9260 H   0  0  0  0  0  0  0  0  0  0  0  0
   38.1940   28.6340   43.7490 H   0  0  0  0  0  0  0  0  0  0  0  0
   37.8120   27.1570   44.6500 H   0  0  0  0  0  0  0  0  0  0  0  0
   40.2210   27.5190   42.7880 H   0  0  0  0  0  0  0  0  0  0  0  0
   40.1350   27.3270   44.5400 H   0  0  0  0  0  0  0  0  0  0  0  0
   39.6200   25.1300   44.4450 H   0  0  0  0  0  0  0  0  0  0  0  0
   40.7390   25.2900   43.0790 H   0  0  0  0  0  0  0  0  0  0  0  0
   37.9020   24.4540   42.9640 H   0  0  0  0  0  0  0  0  0  0  0  0
   39.2060   24.2920   41.7620 H   0  0  0  0  0  0  0  0  0  0  0  0
   37.2790   25.6030   41.0310 H   0  0  0  0  0  0  0  0  0  0  0  0
   38.8300   26.6210   41.0000 H   0  0  0  0  0  0  0  0  0  0  0  0
   35.0200   28.9690   38.6310 C   0  0  0  0  0  0  0  0  0  0  0  0
   35.6550   29.1230   37.4590 N   0  0  0  0  0  0  0  0  0  0  0  0
   34.7500   29.0200   36.4510 C   0  0  0  0  0  0  0  0  0  0  0  0
   33.5510   28.8010   37.0260 N   0  0  0  0  0  0  0  0  0  0  0  0
   33.7040   28.7680   38.3510 N   0  0  0  0  0  0  0  0  0  0  0  0
   34.9550   29.1010   35.3760 H   0  0  0  0  0  0  0  0  0  0  0  0
   32.2820   28.6020   36.3650 C   0  0  0  0  0  0  0  0  0  0  0  0
   31.6410   27.8760   36.8330 H   0  0  0  0  0  0  0  0  0  0  0  0
   32.4870   28.2020   35.3310 H   0  0  0  0  0  0  0  0  0  0  0  0
   31.6130   29.8890   36.1860 C   0  0  0  0  0  3  0  0  0  0  0  0
   30.8840   30.6710   36.9480 C   0  0  0  0  0  3  0  0  0  0  0  0
   30.3070   32.0590   36.6360 C   0  0  0  0  0  0  0  0  0  0  0  0
   29.2600   31.9770   36.9920 H   0  0  0  0  0  0  0  0  0  0  0  0
   30.9130   32.7800   37.2320 H   0  0  0  0  0  0  0  0  0  0  0  0
   30.3820   32.2470   35.1860 C   0  0  0  0  0  2  0  0  0  0  0  0
   30.5870   32.4530   33.8980 C   0  0  0  0  0  2  0  0  0  0  0  0
   29.7890   32.3760   32.6200 C   0  0  0  0  0  2  0  0  0  0  0  0
   28.7310   32.1110   32.9320 H   0  0  0  0  0  0  0  0  0  0  0  0
  1  2  1  0  0  0  0
  1  9  1  0  0  0  0
  2  7  1  0  0  0  0
  3  8  1  0  0  0  0
  3  2  2  0  0  0  0
  4  3  1  0  0  0  0
  5  4  2  0  0  0  0
  5  6  1  0  0  0  0
  6  1  2  0  0  0  0
  9 15  1  0  0  0  0
  9 10  1  0  0  0  0
 10 16  1  0  0  0  0
 10 17  1  0  0  0  0
 11 10  1  0  0  0  0
 11 19  1  0  0  0  0
 12 11  1  0  0  0  0
 12 20  1  0  0  0  0
 13 22  1  0  0  0  0
 13 12  1  0  0  0  0
 14 13  1  0  0  0  0
 14  9  1  0  0  0  0
 18 11  1  0  0  0  0
 21 12  1  0  0  0  0
 23 13  1  0  0  0  0
 24 14  1  0  0  0  0
 25 14  1  0  0  0  0
 26  5  1  0  0  0  0
 27 26  1  0  0  0  0
 28 29  1  0  0  0  0
 28 27  2  0  0  0  0
 29 30  1  0  0  0  0
 30 26  2  0  0  0  0
 31 28  1  0  0  0  0
 32 33  1  0  0  0  0
 32 29  1  0  0  0  0
 34 32  1  0  0  0  0
 35 32  1  0  0  0  0
 35 36  2  0  0  0  0
 37 36  1  0  0  0  0
 37 38  1  0  0  0  0
 37 39  1  0  0  0  0
 40 37  1  0  0  0  0
 41 40  1  0  0  0  0
 42 43  1  0  0  0  0
 42 41  1  0  0  0  0
M  END
>  <minimizedAffinity>
-5.98340178

$$$$

 OpenBabel03242519323D

 43 45  0  0  0  0  0  0  0  0999 V2000
   37.5140   26.6890   41.8930 C   0  0  0  0  0  0  0  0  0  0  0  0
   38.3400   26.8760   43.0410 C   0  0  0  0  0  0  0  0  0  0  0  0
   38.8570   28.1450   43.3260 C   0  0  0  0  0  0  0  0  0  0  0  0
   38.5220   29.1490   42.4550 N   0  0  0  0  0  0  0  0  0  0  0  0
   37.7220   28.9220   41.3610 C   0  0  0  0  0  0  0  0  0  0  0  0
   37.2410   27.7180   41.1040 N   0  0  0  0  0  0  0  0  0  0  0  0
   38.6380   26.1250   43.7600 H   0  0  0  0  0  0  0  0  0  0  0  0
   39.4780   28.3380   44.1680 H   0  0  0  0  0  0  0  0  0  0  0  0
   37.0450   25.3150   41.7100 C   0  0  0  0  0  0  0  0  0  0  0  0
   37.9640   24.2880   42.1330 C   0  0  0  0  0  0  0  0  0  0  0  0
   38.5230   23.4660   41.0360 C   0  0  0  0  0  0  0  0  0  0  0  0
   37.4050   22.8300   40.2070 C   0  0  0  0  0  0  0  0  0  0  0  0
   36.2850   23.7580   39.9030 C   0  0  0  0  0  0  0  0  0  0  0  0
   36.6600   25.2050   40.1940 C   0  0  0  0  0  0  0  0  0  0  0  0
   36.0510   25.2290   42.2420 H   0  0  0  0  0  0  0  0  0  0  0  0
   38.8400   24.7400   42.6780 H   0  0  0  0  0  0  0  0  0  0  0  0
   37.5090   23.5850   42.8670 H   0  0  0  0  0  0  0  0  0  0  0  0
   39.1920   23.9450   40.3290 H   0  0  0  0  0  0  0  0  0  0  0  0
   39.0950   22.6010   41.4690 H   0  0  0  0  0  0  0  0  0  0  0  0
   37.0640   21.9210   40.7560 H   0  0  0  0  0  0  0  0  0  0  0  0
   37.8090   22.4550   39.2390 H   0  0  0  0  0  0  0  0  0  0  0  0
   35.3690   23.5550   40.5050 H   0  0  0  0  0  0  0  0  0  0  0  0
   35.9910   23.7300   38.8460 H   0  0  0  0  0  0  0  0  0  0  0  0
   35.7510   25.8180   40.0880 H   0  0  0  0  0  0  0  0  0  0  0  0
   37.5130   25.5440   39.5780 H   0  0  0  0  0  0  0  0  0  0  0  0
   37.4840   30.1120   40.5520 C   0  0  0  0  0  0  0  0  0  0  0  0
   37.0840   29.9700   39.2790 N   0  0  0  0  0  0  0  0  0  0  0  0
   36.9260   31.2030   38.7280 C   0  0  0  0  0  0  0  0  0  0  0  0
   37.2370   32.0990   39.6850 N   0  0  0  0  0  0  0  0  0  0  0  0
   37.5770   31.4470   40.7980 N   0  0  0  0  0  0  0  0  0  0  0  0
   36.6090   31.4240   37.7010 H   0  0  0  0  0  0  0  0  0  0  0  0
   37.2010   33.5400   39.5850 C   0  0  0  0  0  0  0  0  0  0  0  0
   36.4420   34.0130   40.1820 H   0  0  0  0  0  0  0  0  0  0  0  0
   36.9560   33.8080   38.5180 H   0  0  0  0  0  0  0  0  0  0  0  0
   38.5290   34.0850   39.8550 C   0  0  0  0  0  3  0  0  0  0  0  0
   38.9900   35.2280   40.3080 C   0  0  0  0  0  3  0  0  0  0  0  0
   40.4380   35.6310   40.6190 C   0  0  0  0  0  0  0  0  0  0  0  0
   40.3750   36.7350   40.6970 H   0  0  0  0  0  0  0  0  0  0  0  0
   40.6880   35.1410   41.5890 H   0  0  0  0  0  0  0  0  0  0  0  0
   41.2620   35.2050   39.4860 C   0  0  0  0  0  2  0  0  0  0  0  0
   41.9270   34.9090   38.3850 C   0  0  0  0  0  2  0  0  0  0  0  0
   43.0720   34.0110   37.9850 C   0  0  0  0  0  2  0  0  0  0  0  0
   43.3510   33.4320   38.9210 H   0  0  0  0  0  0  0  0  0  0  0  0
  1  2  1  0  0  0  0
  2  3  2  0  0  0  0
  2  7  1  0  0  0  0
  3  8  1  0  0  0  0
  4  3  1  0  0  0  0
  5  4  2  0  0  0  0
  6  5  1  0  0  0  0
  6  1  2  0  0  0  0
  9  1  1  0  0  0  0
  9 10  1  0  0  0  0
  9 15  1  0  0  0  0
 10 16  1  0  0  0  0
 10 17  1  0  0  0  0
 11 19  1  0  0  0  0
 11 10  1  0  0  0  0
 12 20  1  0  0  0  0
 12 11  1  0  0  0  0
 13 14  1  0  0  0  0
 13 12  1  0  0  0  0
 13 22  1  0  0  0  0
 14  9  1  0  0  0  0
 18 11  1  0  0  0  0
 21 12  1  0  0  0  0
 23 13  1  0  0  0  0
 24 14  1  0  0  0  0
 25 14  1  0  0  0  0
 26 30  2  0  0  0  0
 26  5  1  0  0  0  0
 27 26  1  0  0  0  0
 28 27  2  0  0  0  0
 28 29  1  0  0  0  0
 29 30  1  0  0  0  0
 31 28  1  0  0  0  0
 32 29  1  0  0  0  0
 32 35  1  0  0  0  0
 32 33  1  0  0  0  0
 34 32  1  0  0  0  0
 35 36  2  0  0  0  0
 36 37  1  0  0  0  0
 37 38  1  0  0  0  0
 37 39  1  0  0  0  0
 40 37  1  0  0  0  0
 41 40  1  0  0  0  0
 42 41  1  0  0  0  0
 42 43  1  0  0  0  0
M  END
>  <minimizedAffinity>
-5.78939962

$$$$

 OpenBabel03242519323D

 43 45  0  0  0  0  0  0  0  0999 V2000
   37.0770   30.1710   40.8590 C   0  0  0  0  0  0  0  0  0  0  0  0
   37.6880   31.4520   40.7120 C   0  0  0  0  0  0  0  0  0  0  0  0
   37.6360   32.1090   39.4770 C   0  0  0  0  0  0  0  0  0  0  0  0
   36.9820   31.4540   38.4650 N   0  0  0  0  0  0  0  0  0  0  0  0
   36.4080   30.2200   38.6530 C   0  0  0  0  0  0  0  0  0  0  0  0
   36.4650   29.6110   39.8250 N   0  0  0  0  0  0  0  0  0  0  0  0
   38.2160   32.0140   41.4700 H   0  0  0  0  0  0  0  0  0  0  0  0
   38.0750   33.0640   39.3140 H   0  0  0  0  0  0  0  0  0  0  0  0
   37.2080   29.5950   42.1980 C   0  0  0  0  0  0  0  0  0  0  0  0
   38.5380   29.6210   42.7520 C   0  0  0  0  0  0  0  0  0  0  0  0
   39.1680   28.2920   42.9170 C   0  0  0  0  0  0  0  0  0  0  0  0
   38.2870   27.3720   43.7650 C   0  0  0  0  0  0  0  0  0  0  0  0
   36.8440   27.4390   43.4160 C   0  0  0  0  0  0  0  0  0  0  0  0
   36.6200   28.1460   42.0860 C   0  0  0  0  0  0  0  0  0  0  0  0
   36.4670   30.1300   42.8640 H   0  0  0  0  0  0  0  0  0  0  0  0
   39.2280   30.2290   42.1010 H   0  0  0  0  0  0  0  0  0  0  0  0
   38.5750   30.1230   43.7460 H   0  0  0  0  0  0  0  0  0  0  0  0
   39.4210   27.7330   42.0220 H   0  0  0  0  0  0  0  0  0  0  0  0
   40.1250   28.3990   43.4970 H   0  0  0  0  0  0  0  0  0  0  0  0
   38.4770   27.6280   44.8350 H   0  0  0  0  0  0  0  0  0  0  0  0
   38.6160   26.3130   43.6530 H   0  0  0  0  0  0  0  0  0  0  0  0
   36.2360   27.9990   44.1640 H   0  0  0  0  0  0  0  0  0  0  0  0
   36.3920   26.4450   43.3100 H   0  0  0  0  0  0  0  0  0  0  0  0
   35.5350   28.2900   41.9590 H   0  0  0  0  0  0  0  0  0  0  0  0
   37.1130   27.6180   41.2490 H   0  0  0  0  0  0  0  0  0  0  0  0
   35.7650   29.6860   37.4590 C   0  0  0  0  0  0  0  0  0  0  0  0
   36.4890   29.5210   36.3410 N   0  0  0  0  0  0  0  0  0  0  0  0
   35.6870   29.0150   35.3680 C   0  0  0  0  0  0  0  0  0  0  0  0
   34.4620   28.8730   35.9090 N   0  0  0  0  0  0  0  0  0  0  0  0
   34.4980   29.2780   37.1800 N   0  0  0  0  0  0  0  0  0  0  0  0
   35.9820   28.7710   34.3390 H   0  0  0  0  0  0  0  0  0  0  0  0
   33.2740   28.3520   35.2720 C   0  0  0  0  0  0  0  0  0  0  0  0
   32.8430   27.4950   35.7590 H   0  0  0  0  0  0  0  0  0  0  0  0
   33.5600   28.0010   34.2390 H   0  0  0  0  0  0  0  0  0  0  0  0
   32.3010   29.4260   35.0900 C   0  0  0  0  0  3  0  0  0  0  0  0
   32.2570   30.5300   34.3800 C   0  0  0  0  0  3  0  0  0  0  0  0
   31.1080   31.5360   34.2290 C   0  0  0  0  0  0  0  0  0  0  0  0
   31.6040   32.4080   33.7560 H   0  0  0  0  0  0  0  0  0  0  0  0
   30.3620   31.0460   33.5590 H   0  0  0  0  0  0  0  0  0  0  0  0
   30.6160   31.8430   35.5730 C   0  0  0  0  0  2  0  0  0  0  0  0
   30.1900   32.2570   36.7520 C   0  0  0  0  0  2  0  0  0  0  0  0
   29.6980   31.6380   38.0370 C   0  0  0  0  0  2  0  0  0  0  0  0
   29.7940   30.5160   37.8950 H   0  0  0  0  0  0  0  0  0  0  0  0
  1  9  1  0  0  0  0
  2  1  1  0  0  0  0
  2  7  1  0  0  0  0
  3  2  2  0  0  0  0
  4  5  2  0  0  0  0
  4  3  1  0  0  0  0
  5  6  1  0  0  0  0
  6  1  2  0  0  0  0
  8  3  1  0  0  0  0
  9 10  1  0  0  0  0
  9 15  1  0  0  0  0
 10 11  1  0  0  0  0
 10 17  1  0  0  0  0
 11 19  1  0  0  0  0
 11 12  1  0  0  0  0
 12 20  1  0  0  0  0
 13 12  1  0  0  0  0
 13 22  1  0  0  0  0
 14  9  1  0  0  0  0
 14 13  1  0  0  0  0
 16 10  1  0  0  0  0
 18 11  1  0  0  0  0
 21 12  1  0  0  0  0
 23 13  1  0  0  0  0
 24 14  1  0  0  0  0
 25 14  1  0  0  0  0
 26  5  1  0  0  0  0
 27 26  1  0  0  0  0
 28 29  1  0  0  0  0
 28 27  2  0  0  0  0
 29 30  1  0  0  0  0
 30 26  2  0  0  0  0
 31 28  1  0  0  0  0
 32 33  1  0  0  0  0
 32 29  1  0  0  0  0
 34 32  1  0  0  0  0
 35 32  1  0  0  0  0
 36 35  2  0  0  0  0
 37 36  1  0  0  0  0
 37 40  1  0  0  0  0
 38 37  1  0  0  0  0
 39 37  1  0  0  0  0
 40 41  1  0  0  0  0
 41 42  1  0  0  0  0
 43 42  1  0  0  0  0
M  END
>  <minimizedAffinity>
-5.77001953

$$$$

 OpenBabel03242519323D

 43 45  0  0  0  0  0  0  0  0999 V2000
   36.9890   28.7610   41.7620 C   0  0  0  0  0  0  0  0  0  0  0  0
   35.8160   28.4230   41.0240 C   0  0  0  0  0  0  0  0  0  0  0  0
   35.2650   29.3490   40.1310 C   0  0  0  0  0  0  0  0  0  0  0  0
   35.9110   30.5540   40.0270 N   0  0  0  0  0  0  0  0  0  0  0  0
   37.0390   30.8370   40.7590 C   0  0  0  0  0  0  0  0  0  0  0  0
   37.5490   29.9510   41.5990 N   0  0  0  0  0  0  0  0  0  0  0  0
   35.2640   27.4930   41.0650 H   0  0  0  0  0  0  0  0  0  0  0  0
   34.3930   29.1470   39.5570 H   0  0  0  0  0  0  0  0  0  0  0  0
   37.4570   27.7060   42.6610 C   0  0  0  0  0  0  0  0  0  0  0  0
   38.4770   28.1030   43.5990 C   0  0  0  0  0  0  0  0  0  0  0  0
   39.8030   27.4850   43.3710 C   0  0  0  0  0  0  0  0  0  0  0  0
   39.6980   25.9580   43.3580 C   0  0  0  0  0  0  0  0  0  0  0  0
   38.5320   25.4470   42.5920 C   0  0  0  0  0  0  0  0  0  0  0  0
   37.9100   26.5330   41.7250 C   0  0  0  0  0  0  0  0  0  0  0  0
   36.5470   27.2890   43.1870 H   0  0  0  0  0  0  0  0  0  0  0  0
   38.6300   29.2190   43.5700 H   0  0  0  0  0  0  0  0  0  0  0  0
   38.1940   27.8850   44.6540 H   0  0  0  0  0  0  0  0  0  0  0  0
   40.3480   27.7620   42.4750 H   0  0  0  0  0  0  0  0  0  0  0  0
   40.4820   27.7250   44.2340 H   0  0  0  0  0  0  0  0  0  0  0  0
   39.6880   25.6200   44.4220 H   0  0  0  0  0  0  0  0  0  0  0  0
   40.6190   25.5140   42.9150 H   0  0  0  0  0  0  0  0  0  0  0  0
   37.7100   25.0690   43.2430 H   0  0  0  0  0  0  0  0  0  0  0  0
   38.8040   24.6330   41.9080 H   0  0  0  0  0  0  0  0  0  0  0  0
   36.9750   26.1320   41.3020 H   0  0  0  0  0  0  0  0  0  0  0  0
   38.6220   26.9220   40.9740 H   0  0  0  0  0  0  0  0  0  0  0  0
   37.5780   32.1690   40.5140 C   0  0  0  0  0  0  0  0  0  0  0  0
   36.9510   32.9810   39.6480 N   0  0  0  0  0  0  0  0  0  0  0  0
   37.6270   34.1580   39.5820 C   0  0  0  0  0  0  0  0  0  0  0  0
   38.6750   34.0530   40.4210 N   0  0  0  0  0  0  0  0  0  0  0  0
   38.6550   32.8480   40.9930 N   0  0  0  0  0  0  0  0  0  0  0  0
   37.3680   35.0270   38.9620 H   0  0  0  0  0  0  0  0  0  0  0  0
   39.6740   35.0560   40.7110 C   0  0  0  0  0  0  0  0  0  0  0  0
   40.1500   34.9510   41.6690 H   0  0  0  0  0  0  0  0  0  0  0  0
   39.1610   36.0600   40.7370 H   0  0  0  0  0  0  0  0  0  0  0  0
   40.6440   35.1150   39.6200 C   0  0  0  0  0  3  0  0  0  0  0  0
   41.5420   34.2930   39.1300 C   0  0  0  0  0  3  0  0  0  0  0  0
   42.4490   34.4710   37.9040 C   0  0  0  0  0  0  0  0  0  0  0  0
   41.7910   35.0000   37.1850 H   0  0  0  0  0  0  0  0  0  0  0  0
   43.3060   35.0960   38.2490 H   0  0  0  0  0  0  0  0  0  0  0  0
   42.8160   33.1330   37.4350 C   0  0  0  0  0  2  0  0  0  0  0  0
   43.0280   31.9310   36.9320 C   0  0  0  0  0  2  0  0  0  0  0  0
   44.0620   30.8400   37.0590 C   0  0  0  0  0  2  0  0  0  0  0  0
   44.7930   31.1980   37.8500 H   0  0  0  0  0  0  0  0  0  0  0  0
  1  9  1  0  0  0  0
  2  7  1  0  0  0  0
  2  1  2  0  0  0  0
  3  2  1  0  0  0  0
  4  3  2  0  0  0  0
  4  5  1  0  0  0  0
  5  6  2  0  0  0  0
  6  1  1  0  0  0  0
  8  3  1  0  0  0  0
  9 15  1  0  0  0  0
  9 10  1  0  0  0  0
 10 17  1  0  0  0  0
 11 10  1  0  0  0  0
 11 19  1  0  0  0  0
 12 11  1  0  0  0  0
 12 20  1  0  0  0  0
 13 22  1  0  0  0  0
 13 12  1  0  0  0  0
 14 13  1  0  0  0  0
 14  9  1  0  0  0  0
 16 10  1  0  0  0  0
 18 11  1  0  0  0  0
 21 12  1  0  0  0  0
 23 13  1  0  0  0  0
 24 14  1  0  0  0  0
 25 14  1  0  0  0  0
 26  5  1  0  0  0  0
 26 30  2  0  0  0  0
 27 26  1  0  0  0  0
 28 27  2  0  0  0  0
 28 29  1  0  0  0  0
 29 32  1  0  0  0  0
 29 30  1  0  0  0  0
 31 28  1  0  0  0  0
 32 34  1  0  0  0  0
 32 33  1  0  0  0  0
 35 32  1  0  0  0  0
 36 35  2  0  0  0  0
 37 39  1  0  0  0  0
 37 36  1  0  0  0  0
 38 37  1  0  0  0  0
 40 37  1  0  0  0  0
 41 42  1  0  0  0  0
 41 40  1  0  0  0  0
 42 43  1  0  0  0  0
M  END
>  <minimizedAffinity>
-5.74910116

$$$$

 OpenBabel03242519323D

 43 45  0  0  0  0  0  0  0  0999 V2000
   38.6550   32.5710   39.9180 C   0  0  0  0  0  0  0  0  0  0  0  0
   37.4850   32.4390   39.1130 C   0  0  0  0  0  0  0  0  0  0  0  0
   36.6350   31.3420   39.2950 C   0  0  0  0  0  0  0  0  0  0  0  0
   37.0000   30.4430   40.2650 N   0  0  0  0  0  0  0  0  0  0  0  0
   38.1370   30.6110   41.0170 C   0  0  0  0  0  0  0  0  0  0  0  0
   38.9300   31.6530   40.8340 N   0  0  0  0  0  0  0  0  0  0  0  0
   37.1480   33.1120   38.3360 H   0  0  0  0  0  0  0  0  0  0  0  0
   35.7510   31.1970   38.7230 H   0  0  0  0  0  0  0  0  0  0  0  0
   39.4560   33.7590   39.6220 C   0  0  0  0  0  0  0  0  0  0  0  0
   40.8840   33.5700   39.6860 C   0  0  0  0  0  0  0  0  0  0  0  0
   41.5570   34.2920   40.7900 C   0  0  0  0  0  0  0  0  0  0  0  0
   41.2490   35.7890   40.7300 C   0  0  0  0  0  0  0  0  0  0  0  0
   39.8230   36.0950   40.4430 C   0  0  0  0  0  0  0  0  0  0  0  0
   38.9410   34.8640   40.6070 C   0  0  0  0  0  0  0  0  0  0  0  0
   39.1300   34.1360   38.6080 H   0  0  0  0  0  0  0  0  0  0  0  0
   41.1350   32.4790   39.8090 H   0  0  0  0  0  0  0  0  0  0  0  0
   41.3960   33.8710   38.7420 H   0  0  0  0  0  0  0  0  0  0  0  0
   41.3480   33.9770   41.8070 H   0  0  0  0  0  0  0  0  0  0  0  0
   42.6710   34.2160   40.6640 H   0  0  0  0  0  0  0  0  0  0  0  0
   41.9380   36.2380   39.9760 H   0  0  0  0  0  0  0  0  0  0  0  0
   41.5130   36.2750   41.6970 H   0  0  0  0  0  0  0  0  0  0  0  0
   39.6520   36.4550   39.4020 H   0  0  0  0  0  0  0  0  0  0  0  0
   39.4120   36.8530   41.1210 H   0  0  0  0  0  0  0  0  0  0  0  0
   37.9330   35.1200   40.2430 H   0  0  0  0  0  0  0  0  0  0  0  0
   38.9670   34.4710   41.6400 H   0  0  0  0  0  0  0  0  0  0  0  0
   38.3570   29.5490   41.9920 C   0  0  0  0  0  0  0  0  0  0  0  0
   37.3980   29.2750   42.8900 N   0  0  0  0  0  0  0  0  0  0  0  0
   37.8200   28.2590   43.6880 C   0  0  0  0  0  0  0  0  0  0  0  0
   39.0520   27.9170   43.2630 N   0  0  0  0  0  0  0  0  0  0  0  0
   39.3880   28.6960   42.2330 N   0  0  0  0  0  0  0  0  0  0  0  0
   37.2640   27.8060   44.5190 H   0  0  0  0  0  0  0  0  0  0  0  0
   39.9030   26.8730   43.7840 C   0  0  0  0  0  0  0  0  0  0  0  0
   39.9670   26.8390   44.8570 H   0  0  0  0  0  0  0  0  0  0  0  0
   40.9540   27.0710   43.4250 H   0  0  0  0  0  0  0  0  0  0  0  0
   39.5080   25.5860   43.2170 C   0  0  0  0  0  3  0  0  0  0  0  0
   39.0740   25.1800   42.0460 C   0  0  0  0  0  3  0  0  0  0  0  0
   38.7720   23.7530   41.5700 C   0  0  0  0  0  0  0  0  0  0  0  0
   39.6000   23.5480   40.8620 H   0  0  0  0  0  0  0  0  0  0  0  0
   38.8120   23.1130   42.4820 H   0  0  0  0  0  0  0  0  0  0  0  0
   37.4700   23.7840   40.9000 C   0  0  0  0  0  2  0  0  0  0  0  0
   36.2380   23.7920   40.4250 C   0  0  0  0  0  2  0  0  0  0  0  0
   35.5660   23.9310   39.0820 C   0  0  0  0  0  2  0  0  0  0  0  0
   36.4060   23.9920   38.3210 H   0  0  0  0  0  0  0  0  0  0  0  0
  1  6  1  0  0  0  0
  2  3  1  0  0  0  0
  2  1  2  0  0  0  0
  3  4  2  0  0  0  0
  4  5  1  0  0  0  0
  5 26  1  0  0  0  0
  6  5  2  0  0  0  0
  7  2  1  0  0  0  0
  8  3  1  0  0  0  0
  9 10  1  0  0  0  0
  9  1  1  0  0  0  0
  9 14  1  0  0  0  0
 10 16  1  0  0  0  0
 10 11  1  0  0  0  0
 11 18  1  0  0  0  0
 12 11  1  0  0  0  0
 12 21  1  0  0  0  0
 13 14  1  0  0  0  0
 13 12  1  0  0  0  0
 13 23  1  0  0  0  0
 14 25  1  0  0  0  0
 15  9  1  0  0  0  0
 17 10  1  0  0  0  0
 19 11  1  0  0  0  0
 20 12  1  0  0  0  0
 22 13  1  0  0  0  0
 24 14  1  0  0  0  0
 26 30  2  0  0  0  0
 26 27  1  0  0  0  0
 27 28  2  0  0  0  0
 28 31  1  0  0  0  0
 29 28  1  0  0  0  0
 29 32  1  0  0  0  0
 30 29  1  0  0  0  0
 32 33  1  0  0  0  0
 34 32  1  0  0  0  0
 35 32  1  0  0  0  0
 36 35  2  0  0  0  0
 37 36  1  0  0  0  0
 37 39  1  0  0  0  0
 38 37  1  0  0  0  0
 40 37  1  0  0  0  0
 41 40  1  0  0  0  0
 42 41  1  0  0  0  0
 43 42  1  0  0  0  0
M  END
>  <minimizedAffinity>
-5.68388557

$$$$

 OpenBabel03242519323D

 43 45  0  0  0  0  0  0  0  0999 V2000
   40.3860   28.7370   42.7610 C   0  0  0  0  0  0  0  0  0  0  0  0
   41.1900   27.7000   43.3200 C   0  0  0  0  0  0  0  0  0  0  0  0
   42.5170   27.9660   43.6790 C   0  0  0  0  0  0  0  0  0  0  0  0
   42.9630   29.2440   43.4600 N   0  0  0  0  0  0  0  0  0  0  0  0
   42.1520   30.2120   42.9180 C   0  0  0  0  0  0  0  0  0  0  0  0
   40.9000   29.9460   42.5850 N   0  0  0  0  0  0  0  0  0  0  0  0
   40.8960   26.6780   43.5150 H   0  0  0  0  0  0  0  0  0  0  0  0
   43.1590   27.2300   44.0990 H   0  0  0  0  0  0  0  0  0  0  0  0
   39.0220   28.3240   42.4280 C   0  0  0  0  0  0  0  0  0  0  0  0
   37.9760   29.0840   43.0660 C   0  0  0  0  0  0  0  0  0  0  0  0
   37.1780   28.3290   44.0580 C   0  0  0  0  0  0  0  0  0  0  0  0
   36.5760   27.0700   43.4300 C   0  0  0  0  0  0  0  0  0  0  0  0
   37.5230   26.3250   42.5610 C   0  0  0  0  0  0  0  0  0  0  0  0
   38.9570   26.7940   42.7620 C   0  0  0  0  0  0  0  0  0  0  0  0
   38.9310   28.3540   41.3020 H   0  0  0  0  0  0  0  0  0  0  0  0
   38.4040   29.9760   43.6040 H   0  0  0  0  0  0  0  0  0  0  0  0
   37.2570   29.5170   42.3330 H   0  0  0  0  0  0  0  0  0  0  0  0
   37.6690   28.0090   44.9710 H   0  0  0  0  0  0  0  0  0  0  0  0
   36.2970   28.9470   44.3800 H   0  0  0  0  0  0  0  0  0  0  0  0
   35.6550   27.3830   42.8830 H   0  0  0  0  0  0  0  0  0  0  0  0
   36.2240   26.3740   44.2260 H   0  0  0  0  0  0  0  0  0  0  0  0
   37.3120   26.4480   41.4730 H   0  0  0  0  0  0  0  0  0  0  0  0
   37.5250   25.2470   42.7710 H   0  0  0  0  0  0  0  0  0  0  0  0
   39.5810   26.3100   41.9930 H   0  0  0  0  0  0  0  0  0  0  0  0
   39.3040   26.6340   43.7990 H   0  0  0  0  0  0  0  0  0  0  0  0
   42.8070   31.5040   42.7580 C   0  0  0  0  0  0  0  0  0  0  0  0
   44.0170   31.6980   43.3070 N   0  0  0  0  0  0  0  0  0  0  0  0
   44.4270   32.9640   43.0300 C   0  0  0  0  0  0  0  0  0  0  0  0
   43.4490   33.5400   42.3040 N   0  0  0  0  0  0  0  0  0  0  0  0
   42.4600   32.6610   42.1330 N   0  0  0  0  0  0  0  0  0  0  0  0
   45.3720   33.4280   43.3410 H   0  0  0  0  0  0  0  0  0  0  0  0
   43.4310   34.8760   41.7550 C   0  0  0  0  0  0  0  0  0  0  0  0
   44.2730   35.1160   41.1310 H   0  0  0  0  0  0  0  0  0  0  0  0
   43.4750   35.6050   42.6140 H   0  0  0  0  0  0  0  0  0  0  0  0
   42.1600   35.1120   41.0750 C   0  0  0  0  0  3  0  0  0  0  0  0
   41.2730   36.0800   41.0730 C   0  0  0  0  0  3  0  0  0  0  0  0
   40.0010   36.2230   40.2260 C   0  0  0  0  0  0  0  0  0  0  0  0
   39.4020   36.9560   40.8030 H   0  0  0  0  0  0  0  0  0  0  0  0
   40.3370   36.6190   39.2390 H   0  0  0  0  0  0  0  0  0  0  0  0
   39.3620   34.9070   40.1730 C   0  0  0  0  0  2  0  0  0  0  0  0
   38.7550   33.7490   39.9890 C   0  0  0  0  0  2  0  0  0  0  0  0
   38.4280   32.5240   40.8060 C   0  0  0  0  0  2  0  0  0  0  0  0
   38.7850   32.7510   41.8590 H   0  0  0  0  0  0  0  0  0  0  0  0
  1  2  1  0  0  0  0
  2  7  1  0  0  0  0
  2  3  2  0  0  0  0
  3  8  1  0  0  0  0
  4  3  1  0  0  0  0
  5  4  2  0  0  0  0
  6  1  2  0  0  0  0
  6  5  1  0  0  0  0
  9  1  1  0  0  0  0
  9 14  1  0  0  0  0
  9 10  1  0  0  0  0
 10 16  1  0  0  0  0
 10 11  1  0  0  0  0
 11 19  1  0  0  0  0
 11 18  1  0  0  0  0
 12 11  1  0  0  0  0
 12 21  1  0  0  0  0
 13 14  1  0  0  0  0
 13 23  1  0  0  0  0
 13 12  1  0  0  0  0
 14 25  1  0  0  0  0
 15  9  1  0  0  0  0
 17 10  1  0  0  0  0
 20 12  1  0  0  0  0
 22 13  1  0  0  0  0
 24 14  1  0  0  0  0
 26  5  1  0  0  0  0
 26 27  1  0  0  0  0
 28 27  2  0  0  0  0
 28 31  1  0  0  0  0
 29 28  1  0  0  0  0
 30 29  1  0  0  0  0
 30 26  2  0  0  0  0
 32 29  1  0  0  0  0
 32 34  1  0  0  0  0
 33 32  1  0  0  0  0
 35 32  1  0  0  0  0
 36 35  2  0  0  0  0
 37 38  1  0  0  0  0
 37 36  1  0  0  0  0
 39 37  1  0  0  0  0
 40 37  1  0  0  0  0
 41 40  1  0  0  0  0
 41 42  1  0  0  0  0
 42 43  1  0  0  0  0
M  END
>  <minimizedAffinity>
-5.64979601

$$$$

 OpenBabel03242519323D

 43 45  0  0  0  0  0  0  0  0999 V2000
   38.1790   29.5520   41.2520 C   0  0  0  0  0  0  0  0  0  0  0  0
   36.7840   29.4800   40.9670 C   0  0  0  0  0  0  0  0  0  0  0  0
   36.0990   30.6280   40.5500 C   0  0  0  0  0  0  0  0  0  0  0  0
   36.8430   31.7750   40.4420 N   0  0  0  0  0  0  0  0  0  0  0  0
   38.1870   31.7970   40.7270 C   0  0  0  0  0  0  0  0  0  0  0  0
   38.8200   30.7040   41.1200 N   0  0  0  0  0  0  0  0  0  0  0  0
   36.1470   28.6080   41.0350 H   0  0  0  0  0  0  0  0  0  0  0  0
   35.0600   30.6290   40.3250 H   0  0  0  0  0  0  0  0  0  0  0  0
   38.7690   28.2830   41.6820 C   0  0  0  0  0  0  0  0  0  0  0  0
   37.8940   27.4220   42.4370 C   0  0  0  0  0  0  0  0  0  0  0  0
   38.2780   27.2380   43.8550 C   0  0  0  0  0  0  0  0  0  0  0  0
   39.7140   26.7220   43.9690 C   0  0  0  0  0  0  0  0  0  0  0  0
   40.6670   27.4030   43.0550 C   0  0  0  0  0  0  0  0  0  0  0  0
   40.0700   28.6730   42.4660 C   0  0  0  0  0  0  0  0  0  0  0  0
   39.1630   27.7680   40.7550 H   0  0  0  0  0  0  0  0  0  0  0  0
   36.8420   27.8240   42.4350 H   0  0  0  0  0  0  0  0  0  0  0  0
   37.8070   26.4050   41.9900 H   0  0  0  0  0  0  0  0  0  0  0  0
   38.2070   28.0940   44.5180 H   0  0  0  0  0  0  0  0  0  0  0  0
   37.6400   26.4350   44.3160 H   0  0  0  0  0  0  0  0  0  0  0  0
   39.6820   25.6190   43.8030 H   0  0  0  0  0  0  0  0  0  0  0  0
   40.0880   26.8520   45.0100 H   0  0  0  0  0  0  0  0  0  0  0  0
   40.9670   26.7750   42.1840 H   0  0  0  0  0  0  0  0  0  0  0  0
   41.5890   27.7110   43.5650 H   0  0  0  0  0  0  0  0  0  0  0  0
   40.7630   29.0460   41.6940 H   0  0  0  0  0  0  0  0  0  0  0  0
   39.8150   29.4120   43.2470 H   0  0  0  0  0  0  0  0  0  0  0  0
   38.8000   33.1080   40.5580 C   0  0  0  0  0  0  0  0  0  0  0  0
   38.0380   34.1440   40.1760 N   0  0  0  0  0  0  0  0  0  0  0  0
   38.8180   35.2540   40.0850 C   0  0  0  0  0  0  0  0  0  0  0  0
   40.0680   34.8790   40.4170 N   0  0  0  0  0  0  0  0  0  0  0  0
   40.0690   33.5760   40.7070 N   0  0  0  0  0  0  0  0  0  0  0  0
   38.4920   36.2610   39.7940 H   0  0  0  0  0  0  0  0  0  0  0  0
   41.2470   35.7110   40.4890 C   0  0  0  0  0  0  0  0  0  0  0  0
   41.1000   36.6550   40.9830 H   0  0  0  0  0  0  0  0  0  0  0  0
   41.5560   35.9670   39.4350 H   0  0  0  0  0  0  0  0  0  0  0  0
   42.3510   34.9530   41.0720 C   0  0  0  0  0  3  0  0  0  0  0  0
   43.2390   35.1780   42.0130 C   0  0  0  0  0  3  0  0  0  0  0  0
   44.3060   34.2330   42.5800 C   0  0  0  0  0  0  0  0  0  0  0  0
   45.0710   34.2140   41.7770 H   0  0  0  0  0  0  0  0  0  0  0  0
   44.6730   34.7160   43.5160 H   0  0  0  0  0  0  0  0  0  0  0  0
   43.6750   32.9260   42.7710 C   0  0  0  0  0  2  0  0  0  0  0  0
   43.0170   31.7830   42.8360 C   0  0  0  0  0  2  0  0  0  0  0  0
   43.0650   30.5200   43.6590 C   0  0  0  0  0  2  0  0  0  0  0  0
   43.8710   30.6890   44.4400 H   0  0  0  0  0  0  0  0  0  0  0  0
  1  9  1  0  0  0  0
  2  7  1  0  0  0  0
  2  1  2  0  0  0  0
  3  2  1  0  0  0  0
  4  3  2  0  0  0  0
  4  5  1  0  0  0  0
  5  6  2  0  0  0  0
  6  1  1  0  0  0  0
  8  3  1  0  0  0  0
  9 10  1  0  0  0  0
  9 14  1  0  0  0  0
 10 11  1  0  0  0  0
 11 12  1  0  0  0  0
 11 19  1  0  0  0  0
 11 18  1  0  0  0  0
 12 21  1  0  0  0  0
 13 23  1  0  0  0  0
 13 12  1  0  0  0  0
 14 13  1  0  0  0  0
 14 25  1  0  0  0  0
 15  9  1  0  0  0  0
 16 10  1  0  0  0  0
 17 10  1  0  0  0  0
 20 12  1  0  0  0  0
 22 13  1  0  0  0  0
 24 14  1  0  0  0  0
 26 30  2  0  0  0  0
 26  5  1  0  0  0  0
 27 26  1  0  0  0  0
 28 27  2  0  0  0  0
 28 29  1  0  0  0  0
 29 32  1  0  0  0  0
 29 30  1  0  0  0  0
 31 28  1  0  0  0  0
 32 33  1  0  0  0  0
 32 35  1  0  0  0  0
 34 32  1  0  0  0  0
 35 36  2  0  0  0  0
 36 37  1  0  0  0  0
 37 40  1  0  0  0  0
 37 39  1  0  0  0  0
 38 37  1  0  0  0  0
 40 41  1  0  0  0  0
 41 42  1  0  0  0  0
 42 43  1  0  0  0  0
M  END
>  <minimizedAffinity>
-5.64651442

$$$$

 OpenBabel03242519323D

 43 45  0  0  0  0  0  0  0  0999 V2000
   41.1390   34.2950   40.6230 C   0  0  0  0  0  0  0  0  0  0  0  0
   40.5440   35.5580   40.3310 C   0  0  0  0  0  0  0  0  0  0  0  0
   39.1620   35.6440   40.1220 C   0  0  0  0  0  0  0  0  0  0  0  0
   38.4580   34.4710   40.2150 N   0  0  0  0  0  0  0  0  0  0  0  0
   39.0750   33.2760   40.4980 C   0  0  0  0  0  0  0  0  0  0  0  0
   40.3810   33.2110   40.6940 N   0  0  0  0  0  0  0  0  0  0  0  0
   41.0460   36.5120   40.2440 H   0  0  0  0  0  0  0  0  0  0  0  0
   38.6690   36.5590   39.9010 H   0  0  0  0  0  0  0  0  0  0  0  0
   42.5890   34.3460   40.8150 C   0  0  0  0  0  0  0  0  0  0  0  0
   43.2090   33.0920   41.1610 C   0  0  0  0  0  0  0  0  0  0  0  0
   43.7670   33.0320   42.5310 C   0  0  0  0  0  0  0  0  0  0  0  0
   44.7660   34.1680   42.7630 C   0  0  0  0  0  0  0  0  0  0  0  0
   44.3100   35.4800   42.2350 C   0  0  0  0  0  0  0  0  0  0  0  0
   42.8280   35.4630   41.8890 C   0  0  0  0  0  0  0  0  0  0  0  0
   43.0340   34.7860   39.8730 H   0  0  0  0  0  0  0  0  0  0  0  0
   42.4690   32.2460   41.0740 H   0  0  0  0  0  0  0  0  0  0  0  0
   44.0330   32.8170   40.4630 H   0  0  0  0  0  0  0  0  0  0  0  0
   43.0740   33.0590   43.3650 H   0  0  0  0  0  0  0  0  0  0  0  0
   44.3630   32.0870   42.6530 H   0  0  0  0  0  0  0  0  0  0  0  0
   45.7380   33.8470   42.3200 H   0  0  0  0  0  0  0  0  0  0  0  0
   44.9630   34.2890   43.8520 H   0  0  0  0  0  0  0  0  0  0  0  0
   44.8370   35.7850   41.3000 H   0  0  0  0  0  0  0  0  0  0  0  0
   44.4420   36.2930   42.9610 H   0  0  0  0  0  0  0  0  0  0  0  0
   42.5900   36.4070   41.3730 H   0  0  0  0  0  0  0  0  0  0  0  0
   42.1980   35.2550   42.7740 H   0  0  0  0  0  0  0  0  0  0  0  0
   38.1600   32.1420   40.5500 C   0  0  0  0  0  0  0  0  0  0  0  0
   37.1560   32.0680   39.6610 N   0  0  0  0  0  0  0  0  0  0  0  0
   36.4410   30.9370   39.8990 C   0  0  0  0  0  0  0  0  0  0  0  0
   37.0240   30.3220   40.9470 N   0  0  0  0  0  0  0  0  0  0  0  0
   38.0690   31.0460   41.3500 N   0  0  0  0  0  0  0  0  0  0  0  0
   35.5580   30.5930   39.3450 H   0  0  0  0  0  0  0  0  0  0  0  0
   36.6370   29.0720   41.5580 C   0  0  0  0  0  0  0  0  0  0  0  0
   36.2570   28.3350   40.8730 H   0  0  0  0  0  0  0  0  0  0  0  0
   35.7930   29.2820   42.2750 H   0  0  0  0  0  0  0  0  0  0  0  0
   37.7430   28.5530   42.3610 C   0  0  0  0  0  3  0  0  0  0  0  0
   38.0180   27.4030   42.9300 C   0  0  0  0  0  3  0  0  0  0  0  0
   39.2840   26.9790   43.6880 C   0  0  0  0  0  0  0  0  0  0  0  0
   39.0020   27.1380   44.7480 H   0  0  0  0  0  0  0  0  0  0  0  0
   39.4410   25.9030   43.4380 H   0  0  0  0  0  0  0  0  0  0  0  0
   40.3650   27.8710   43.2650 C   0  0  0  0  0  2  0  0  0  0  0  0
   41.4310   28.5780   42.9370 C   0  0  0  0  0  2  0  0  0  0  0  0
   41.7260   29.9000   42.2740 C   0  0  0  0  0  2  0  0  0  0  0  0
   40.7160   30.3790   42.0770 H   0  0  0  0  0  0  0  0  0  0  0  0
  1  6  1  0  0  0  0
  1  9  1  0  0  0  0
  2  1  2  0  0  0  0
  3  4  2  0  0  0  0
  3  2  1  0  0  0  0
  4  5  1  0  0  0  0
  5 26  1  0  0  0  0
  5  6  2  0  0  0  0
  7  2  1  0  0  0  0
  8  3  1  0  0  0  0
  9 10  1  0  0  0  0
  9 14  1  0  0  0  0
 10 11  1  0  0  0  0
 11 19  1  0  0  0  0
 11 12  1  0  0  0  0
 11 18  1  0  0  0  0
 12 21  1  0  0  0  0
 13 12  1  0  0  0  0
 13 23  1  0  0  0  0
 14 13  1  0  0  0  0
 14 25  1  0  0  0  0
 15  9  1  0  0  0  0
 16 10  1  0  0  0  0
 17 10  1  0  0  0  0
 20 12  1  0  0  0  0
 22 13  1  0  0  0  0
 24 14  1  0  0  0  0
 26 30  2  0  0  0  0
 27 28  2  0  0  0  0
 27 26  1  0  0  0  0
 28 29  1  0  0  0  0
 29 30  1  0  0  0  0
 29 32  1  0  0  0  0
 31 28  1  0  0  0  0
 32 34  1  0  0  0  0
 32 35  1  0  0  0  0
 33 32  1  0  0  0  0
 35 36  2  0  0  0  0
 36 37  1  0  0  0  0
 37 38  1  0  0  0  0
 39 37  1  0  0  0  0
 40 37  1  0  0  0  0
 41 40  1  0  0  0  0
 42 41  1  0  0  0  0
 43 42  1  0  0  0  0
M  END
>  <minimizedAffinity>
-5.62031221

$$$$
