
 OpenBabel03252508473D

 40 41  0  0  0  0  0  0  0  0999 V2000
   43.0360   32.5330   41.6270 C   0  0  0  0  0  0  0  0  0  0  0  0
   43.6270   32.0520   40.8070 H   0  0  0  0  0  0  0  0  0  0  0  0
   42.1510   32.9880   41.1720 H   0  0  0  0  0  0  0  0  0  0  0  0
   43.6560   34.9500   41.8820 C   0  0  0  0  0  0  0  0  0  0  0  0
   43.9000   33.6100   42.1790 C   0  0  0  0  0  0  0  0  0  0  0  0
   44.9720   33.3240   43.0040 C   0  0  0  0  0  0  0  0  0  0  0  0
   45.7510   34.3250   43.4990 C   0  0  0  0  0  0  0  0  0  0  0  0
   45.5280   35.6440   43.2200 C   0  0  0  0  0  0  0  0  0  0  0  0
   44.4510   35.9000   42.3940 C   0  0  0  0  0  0  0  0  0  0  0  0
   45.1880   32.3040   43.2530 H   0  0  0  0  0  0  0  0  0  0  0  0
   46.5870   34.0610   44.1460 H   0  0  0  0  0  0  0  0  0  0  0  0
   46.1370   36.4560   43.6040 H   0  0  0  0  0  0  0  0  0  0  0  0
   44.2430   36.9430   42.1490 H   0  0  0  0  0  0  0  0  0  0  0  0
   40.2250   35.8120   40.5190 C   0  0  0  0  0  0  0  0  0  0  0  0
   41.2590   35.5890   41.4510 C   0  0  0  0  0  0  0  0  0  0  0  0
   42.5130   35.2070   41.0060 C   0  0  0  0  0  0  0  0  0  0  0  0
   42.6850   35.0640   39.6650 N   0  0  0  0  0  0  0  0  0  0  0  0
   41.6790   35.2830   38.7790 C   0  0  0  0  0  0  0  0  0  0  0  0
   40.4570   35.6560   39.2220 N   0  0  0  0  0  0  0  0  0  0  0  0
   39.2770   36.1080   40.9530 H   0  0  0  0  0  0  0  0  0  0  0  0
   41.1450   35.6970   42.5250 H   0  0  0  0  0  0  0  0  0  0  0  0
   41.9390   35.1370   37.7450 H   0  0  0  0  0  0  0  0  0  0  0  0
   42.6990   31.5120   42.5790 N   0  0  0  0  0  0  0  0  0  0  0  0
   43.2680   30.6460   42.4660 H   0  0  0  0  0  0  0  0  0  0  0  0
   41.0290   31.1400   42.5570 S   0  0  0  0  0  0  0  0  0  0  0  0
   40.2030   32.4070   42.4630 O   0  0  0  0  0  0  0  0  0  0  0  0
   39.3610   32.5940   42.9460 H   0  0  0  0  0  0  0  0  0  0  0  0
   40.6440   30.3660   43.7790 O   0  0  0  0  0  0  0  0  0  0  0  0
   41.2830   29.8520   44.3560 H   0  0  0  0  0  0  0  0  0  0  0  0
   40.7220   30.2100   41.1990 O   0  0  0  0  0  0  0  0  0  0  0  0
   40.0240   29.0820   41.6080 C   0  0  0  0  0  0  0  0  0  0  0  0
   39.1370   28.9880   40.9240 H   0  0  0  0  0  0  0  0  0  0  0  0
   39.7350   29.0650   42.6560 H   0  0  0  0  0  0  0  0  0  0  0  0
   40.8630   27.8280   41.2830 C   0  0  0  0  0  0  0  0  0  0  0  0
   41.2320   27.8730   40.2460 H   0  0  0  0  0  0  0  0  0  0  0  0
   41.6820   27.7240   42.0220 H   0  0  0  0  0  0  0  0  0  0  0  0
   39.9280   26.6850   41.4780 C   0  0  0  0  0  3  0  0  0  0  0  0
   40.0100   25.7990   42.4360 C   0  0  0  0  0  3  0  0  0  0  0  0
   41.0900   25.8830   43.4350 C   0  0  0  0  0  2  0  0  0  0  0  0
   40.7660   25.3080   44.3510 H   0  0  0  0  0  0  0  0  0  0  0  0
  1  5  1  0  0  0  0
  1 23  1  0  0  0  0
  2  1  1  0  0  0  0
  3  1  1  0  0  0  0
  4  5  2  0  0  0  0
  4  9  1  0  0  0  0
  5  6  1  0  0  0  0
  6 10  1  0  0  0  0
  6  7  2  0  0  0  0
  7 11  1  0  0  0  0
  8  7  1  0  0  0  0
  8 12  1  0  0  0  0
  9  8  2  0  0  0  0
 13  9  1  0  0  0  0
 14 20  1  0  0  0  0
 14 15  1  0  0  0  0
 15 21  1  0  0  0  0
 16 15  2  0  0  0  0
 16  4  1  0  0  0  0
 17 16  1  0  0  0  0
 18 19  1  0  0  0  0
 18 17  2  0  0  0  0
 19 14  2  0  0  0  0
 22 18  1  0  0  0  0
 24 23  1  0  0  0  0
 25 23  1  0  0  0  0
 25 28  1  0  0  0  0
 26 25  1  0  0  0  0
 26 27  1  0  0  0  0
 28 29  1  0  0  0  0
 30 31  1  0  0  0  0
 30 25  1  0  0  0  0
 31 33  1  0  0  0  0
 32 31  1  0  0  0  0
 34 37  1  0  0  0  0
 34 31  1  0  0  0  0
 34 36  1  0  0  0  0
 35 34  1  0  0  0  0
 37 38  2  0  0  0  0
 38 39  1  0  0  0  0
 39 40  1  0  0  0  0
M  END
>  <minimizedAffinity>
-4.67818356

>  <minimizedRMSD>
0.544026792

$$$$
