
 OpenBabel03252508473D

 40 41  0  0  0  0  0  0  0  0999 V2000
   42.9660   32.4520   41.6590 C   0  0  0  0  0  0  0  0  0  0  0  0
   43.5130   32.0010   40.7920 H   0  0  0  0  0  0  0  0  0  0  0  0
   42.0510   32.9090   41.2710 H   0  0  0  0  0  0  0  0  0  0  0  0
   43.6220   34.8620   41.8830 C   0  0  0  0  0  0  0  0  0  0  0  0
   43.8500   33.5220   42.1920 C   0  0  0  0  0  0  0  0  0  0  0  0
   44.9250   33.2290   43.0100 C   0  0  0  0  0  0  0  0  0  0  0  0
   45.7230   34.2240   43.4880 C   0  0  0  0  0  0  0  0  0  0  0  0
   45.5160   35.5430   43.1960 C   0  0  0  0  0  0  0  0  0  0  0  0
   44.4360   35.8050   42.3770 C   0  0  0  0  0  0  0  0  0  0  0  0
   45.1290   32.2090   43.2680 H   0  0  0  0  0  0  0  0  0  0  0  0
   46.5610   33.9550   44.1300 H   0  0  0  0  0  0  0  0  0  0  0  0
   46.1400   36.3500   43.5660 H   0  0  0  0  0  0  0  0  0  0  0  0
   44.2410   36.8490   42.1230 H   0  0  0  0  0  0  0  0  0  0  0  0
   40.1760   35.7010   40.5440 C   0  0  0  0  0  0  0  0  0  0  0  0
   41.2140   35.4670   41.4710 C   0  0  0  0  0  0  0  0  0  0  0  0
   42.4750   35.1260   41.0150 C   0  0  0  0  0  0  0  0  0  0  0  0
   42.6520   35.0340   39.6700 N   0  0  0  0  0  0  0  0  0  0  0  0
   41.6420   35.2630   38.7900 C   0  0  0  0  0  0  0  0  0  0  0  0
   40.4120   35.5950   39.2430 N   0  0  0  0  0  0  0  0  0  0  0  0
   39.2210   35.9620   40.9880 H   0  0  0  0  0  0  0  0  0  0  0  0
   41.0960   35.5340   42.5470 H   0  0  0  0  0  0  0  0  0  0  0  0
   41.9070   35.1580   37.7520 H   0  0  0  0  0  0  0  0  0  0  0  0
   42.6950   31.3990   42.5980 N   0  0  0  0  0  0  0  0  0  0  0  0
   43.2690   30.5450   42.4300 H   0  0  0  0  0  0  0  0  0  0  0  0
   41.0320   31.0030   42.6560 S   0  0  0  0  0  0  0  0  0  0  0  0
   40.1830   32.2440   42.4700 O   0  0  0  0  0  0  0  0  0  0  0  0
   39.3500   32.4630   42.9570 H   0  0  0  0  0  0  0  0  0  0  0  0
   40.6920   30.3390   43.9540 O   0  0  0  0  0  0  0  0  0  0  0  0
   41.3550   29.8890   44.5580 H   0  0  0  0  0  0  0  0  0  0  0  0
   40.7050   29.9480   41.3980 O   0  0  0  0  0  0  0  0  0  0  0  0
   39.3270   29.8940   41.2380 C   0  0  0  0  0  0  0  0  0  0  0  0
   39.1350   29.8140   40.1340 H   0  0  0  0  0  0  0  0  0  0  0  0
   38.7720   30.7110   41.6920 H   0  0  0  0  0  0  0  0  0  0  0  0
   38.8110   28.5490   41.7910 C   0  0  0  0  0  0  0  0  0  0  0  0
   39.4940   27.7320   41.5100 H   0  0  0  0  0  0  0  0  0  0  0  0
   38.6680   28.6250   42.8870 H   0  0  0  0  0  0  0  0  0  0  0  0
   37.4690   28.3730   41.1700 C   0  0  0  0  0  3  0  0  0  0  0  0
   36.9250   27.2260   40.8600 C   0  0  0  0  0  3  0  0  0  0  0  0
   37.6470   25.9680   41.1220 C   0  0  0  0  0  2  0  0  0  0  0  0
   36.8910   25.1310   41.1610 H   0  0  0  0  0  0  0  0  0  0  0  0
  1  5  1  0  0  0  0
  1 23  1  0  0  0  0
  2  1  1  0  0  0  0
  3  1  1  0  0  0  0
  4  5  2  0  0  0  0
  4  9  1  0  0  0  0
  5  6  1  0  0  0  0
  6 10  1  0  0  0  0
  6  7  2  0  0  0  0
  7 11  1  0  0  0  0
  8  7  1  0  0  0  0
  8 12  1  0  0  0  0
  9  8  2  0  0  0  0
 13  9  1  0  0  0  0
 14 20  1  0  0  0  0
 14 15  1  0  0  0  0
 15 21  1  0  0  0  0
 16 15  2  0  0  0  0
 16  4  1  0  0  0  0
 17 16  1  0  0  0  0
 18 19  1  0  0  0  0
 18 17  2  0  0  0  0
 19 14  2  0  0  0  0
 22 18  1  0  0  0  0
 23 25  1  0  0  0  0
 24 23  1  0  0  0  0
 25 28  1  0  0  0  0
 26 25  1  0  0  0  0
 26 27  1  0  0  0  0
 28 29  1  0  0  0  0
 30 25  1  0  0  0  0
 31 30  1  0  0  0  0
 31 33  1  0  0  0  0
 31 34  1  0  0  0  0
 32 31  1  0  0  0  0
 34 36  1  0  0  0  0
 35 34  1  0  0  0  0
 37 34  1  0  0  0  0
 38 39  1  0  0  0  0
 38 37  2  0  0  0  0
 39 40  1  0  0  0  0
M  END
>  <minimizedAffinity>
-5.02978039

>  <minimizedRMSD>
1.44584668

$$$$
