
 OpenBabel03242517143D

 18 18  0  0  0  0  0  0  0  0999 V2000
   37.6560   25.2190   42.1390 C   0  0  0  0  0  0  0  0  0  0  0  0
   37.7060   26.5480   42.5550 C   0  0  0  0  0  0  0  0  0  0  0  0
   38.7970   26.9320   43.3490 C   0  0  0  0  0  0  0  0  0  0  0  0
   39.7470   26.0120   43.6770 N   0  0  0  0  0  0  0  0  0  0  0  0
   39.6440   24.7340   43.2430 C   0  0  0  0  0  0  0  0  0  0  0  0
   38.6100   24.3530   42.4850 N   0  0  0  0  0  0  0  0  0  0  0  0
   36.7950   24.9600   41.5250 H   0  0  0  0  0  0  0  0  0  0  0  0
   38.8840   27.9530   43.7000 H   0  0  0  0  0  0  0  0  0  0  0  0
   40.3980   23.9910   43.4990 H   0  0  0  0  0  0  0  0  0  0  0  0
   36.6920   27.5310   42.2050 C   0  0  0  0  0  3  0  0  0  0  0  0
   36.4540   27.9990   40.9970 C   0  0  0  0  0  3  0  0  0  0  0  0
   35.3880   29.0120   40.7330 C   0  0  0  0  0  0  0  0  0  0  0  0
   34.8090   29.2310   41.6460 H   0  0  0  0  0  0  0  0  0  0  0  0
   34.6540   28.6530   39.9720 H   0  0  0  0  0  0  0  0  0  0  0  0
   36.0220   30.2400   40.1890 C   0  0  0  0  0  3  0  0  0  0  0  0
   36.6870   31.3020   40.6220 C   0  0  0  0  0  3  0  0  0  0  0  0
   37.1820   32.3720   39.7100 C   0  0  0  0  0  2  0  0  0  0  0  0
   38.2610   32.2070   39.5240 H   0  0  0  0  0  0  0  0  0  0  0  0
  1  6  2  0  0  0  0
  1  2  1  0  0  0  0
  2  3  2  0  0  0  0
  3  4  1  0  0  0  0
  3  8  1  0  0  0  0
  5  9  1  0  0  0  0
  5  4  2  0  0  0  0
  6  5  1  0  0  0  0
  7  1  1  0  0  0  0
 10  2  1  0  0  0  0
 11 10  2  0  0  0  0
 12 11  1  0  0  0  0
 12 13  1  0  0  0  0
 14 12  1  0  0  0  0
 15 16  2  0  0  0  0
 15 12  1  0  0  0  0
 17 16  1  0  0  0  0
 18 17  1  0  0  0  0
M  END
>  <minimizedAffinity>
-4.00125742

$$$$

 OpenBabel03242517143D

 18 18  0  0  0  0  0  0  0  0999 V2000
   38.8930   30.7130   41.6570 C   0  0  0  0  0  0  0  0  0  0  0  0
   37.5670   30.3600   41.4170 C   0  0  0  0  0  0  0  0  0  0  0  0
   36.7710   31.2840   40.7230 C   0  0  0  0  0  0  0  0  0  0  0  0
   37.3140   32.4670   40.3170 N   0  0  0  0  0  0  0  0  0  0  0  0
   38.6100   32.7540   40.5790 C   0  0  0  0  0  0  0  0  0  0  0  0
   39.3810   31.8840   41.2390 N   0  0  0  0  0  0  0  0  0  0  0  0
   39.4790   29.9710   42.1980 H   0  0  0  0  0  0  0  0  0  0  0  0
   35.7330   31.0610   40.5110 H   0  0  0  0  0  0  0  0  0  0  0  0
   39.0530   33.6960   40.2580 H   0  0  0  0  0  0  0  0  0  0  0  0
   36.9880   29.0980   41.8510 C   0  0  0  0  0  3  0  0  0  0  0  0
   37.2460   28.4790   42.9840 C   0  0  0  0  0  3  0  0  0  0  0  0
   36.6010   27.1810   43.3440 C   0  0  0  0  0  0  0  0  0  0  0  0
   35.5050   27.2340   43.2360 H   0  0  0  0  0  0  0  0  0  0  0  0
   36.8000   26.8990   44.4060 H   0  0  0  0  0  0  0  0  0  0  0  0
   37.1750   26.1100   42.4900 C   0  0  0  0  0  3  0  0  0  0  0  0
   36.9060   24.8630   42.1260 C   0  0  0  0  0  3  0  0  0  0  0  0
   37.7790   24.0860   41.2010 C   0  0  0  0  0  2  0  0  0  0  0  0
   37.3290   24.1080   40.1890 H   0  0  0  0  0  0  0  0  0  0  0  0
  1  7  1  0  0  0  0
  2  1  1  0  0  0  0
  2 10  1  0  0  0  0
  3  2  2  0  0  0  0
  4  5  2  0  0  0  0
  4  3  1  0  0  0  0
  5  6  1  0  0  0  0
  6  1  2  0  0  0  0
  8  3  1  0  0  0  0
  9  5  1  0  0  0  0
 10 11  2  0  0  0  0
 11 12  1  0  0  0  0
 12 14  1  0  0  0  0
 13 12  1  0  0  0  0
 15 12  1  0  0  0  0
 16 15  2  0  0  0  0
 17 16  1  0  0  0  0
 18 17  1  0  0  0  0
M  END
>  <minimizedAffinity>
-3.96618676

$$$$

 OpenBabel03242517143D

 18 18  0  0  0  0  0  0  0  0999 V2000
   36.9640   31.6800   40.5810 C   0  0  0  0  0  0  0  0  0  0  0  0
   36.8660   30.3000   40.4160 C   0  0  0  0  0  0  0  0  0  0  0  0
   36.9980   29.7980   39.1120 C   0  0  0  0  0  0  0  0  0  0  0  0
   37.2140   30.6610   38.0790 N   0  0  0  0  0  0  0  0  0  0  0  0
   37.3000   31.9920   38.3020 C   0  0  0  0  0  0  0  0  0  0  0  0
   37.1760   32.4860   39.5380 N   0  0  0  0  0  0  0  0  0  0  0  0
   36.8560   32.0310   41.6070 H   0  0  0  0  0  0  0  0  0  0  0  0
   36.9290   28.7340   38.9270 H   0  0  0  0  0  0  0  0  0  0  0  0
   37.4730   32.6900   37.4830 H   0  0  0  0  0  0  0  0  0  0  0  0
   36.6350   29.3800   41.5190 C   0  0  0  0  0  3  0  0  0  0  0  0
   37.4700   29.1360   42.5080 C   0  0  0  0  0  3  0  0  0  0  0  0
   37.1460   28.1700   43.6000 C   0  0  0  0  0  0  0  0  0  0  0  0
   36.2880   28.5150   44.1990 H   0  0  0  0  0  0  0  0  0  0  0  0
   37.9990   28.0460   44.3110 H   0  0  0  0  0  0  0  0  0  0  0  0
   36.8810   26.8390   42.9950 C   0  0  0  0  0  3  0  0  0  0  0  0
   37.5230   25.9030   42.3090 C   0  0  0  0  0  3  0  0  0  0  0  0
   36.8700   24.6400   41.8600 C   0  0  0  0  0  2  0  0  0  0  0  0
   37.1530   23.8290   42.5590 H   0  0  0  0  0  0  0  0  0  0  0  0
  1  7  1  0  0  0  0
  2  1  1  0  0  0  0
  2 10  1  0  0  0  0
  3  2  2  0  0  0  0
  4  5  2  0  0  0  0
  4  3  1  0  0  0  0
  5  6  1  0  0  0  0
  6  1  2  0  0  0  0
  8  3  1  0  0  0  0
  9  5  1  0  0  0  0
 10 11  2  0  0  0  0
 11 12  1  0  0  0  0
 12 13  1  0  0  0  0
 12 14  1  0  0  0  0
 15 12  1  0  0  0  0
 16 15  2  0  0  0  0
 17 16  1  0  0  0  0
 17 18  1  0  0  0  0
M  END
>  <minimizedAffinity>
-3.84691548

$$$$

 OpenBabel03242517143D

 18 18  0  0  0  0  0  0  0  0999 V2000
   37.6370   25.3890   42.1400 C   0  0  0  0  0  0  0  0  0  0  0  0
   37.7190   26.7150   42.5580 C   0  0  0  0  0  0  0  0  0  0  0  0
   38.8190   27.0720   43.3530 C   0  0  0  0  0  0  0  0  0  0  0  0
   39.7470   26.1280   43.6800 N   0  0  0  0  0  0  0  0  0  0  0  0
   39.6130   24.8540   43.2430 C   0  0  0  0  0  0  0  0  0  0  0  0
   38.5700   24.4990   42.4850 N   0  0  0  0  0  0  0  0  0  0  0  0
   36.7700   25.1510   41.5250 H   0  0  0  0  0  0  0  0  0  0  0  0
   38.9320   28.0900   43.7060 H   0  0  0  0  0  0  0  0  0  0  0  0
   40.3490   24.0920   43.4980 H   0  0  0  0  0  0  0  0  0  0  0  0
   36.7290   27.7230   42.2090 C   0  0  0  0  0  3  0  0  0  0  0  0
   36.4390   28.1310   40.9920 C   0  0  0  0  0  3  0  0  0  0  0  0
   35.4040   29.1760   40.7300 C   0  0  0  0  0  0  0  0  0  0  0  0
   35.8080   30.1890   40.8900 H   0  0  0  0  0  0  0  0  0  0  0  0
   34.5280   29.0730   41.4150 H   0  0  0  0  0  0  0  0  0  0  0  0
   34.9000   29.0090   39.3430 C   0  0  0  0  0  3  0  0  0  0  0  0
   35.2710   29.2880   38.1000 C   0  0  0  0  0  3  0  0  0  0  0  0
   34.4400   28.9400   36.9130 C   0  0  0  0  0  2  0  0  0  0  0  0
   34.8460   28.0160   36.4550 H   0  0  0  0  0  0  0  0  0  0  0  0
  1  6  2  0  0  0  0
  1  2  1  0  0  0  0
  2  3  2  0  0  0  0
  3  4  1  0  0  0  0
  3  8  1  0  0  0  0
  5  9  1  0  0  0  0
  5  4  2  0  0  0  0
  6  5  1  0  0  0  0
  7  1  1  0  0  0  0
 10  2  1  0  0  0  0
 11 10  2  0  0  0  0
 12 13  1  0  0  0  0
 12 11  1  0  0  0  0
 12 14  1  0  0  0  0
 15 12  1  0  0  0  0
 16 15  2  0  0  0  0
 17 16  1  0  0  0  0
 18 17  1  0  0  0  0
M  END
>  <minimizedAffinity>
-3.74947047

$$$$

 OpenBabel03242517143D

 18 18  0  0  0  0  0  0  0  0999 V2000
   37.6250   29.9060   38.8630 C   0  0  0  0  0  0  0  0  0  0  0  0
   37.1100   29.9370   40.1570 C   0  0  0  0  0  0  0  0  0  0  0  0
   36.7680   31.1920   40.6830 C   0  0  0  0  0  0  0  0  0  0  0  0
   36.9480   32.3110   39.9240 N   0  0  0  0  0  0  0  0  0  0  0  0
   37.4530   32.2170   38.6720 C   0  0  0  0  0  0  0  0  0  0  0  0
   37.7840   31.0280   38.1570 N   0  0  0  0  0  0  0  0  0  0  0  0
   37.8790   28.9150   38.4900 H   0  0  0  0  0  0  0  0  0  0  0  0
   36.3640   31.2740   41.6840 H   0  0  0  0  0  0  0  0  0  0  0  0
   37.6000   33.1050   38.0570 H   0  0  0  0  0  0  0  0  0  0  0  0
   36.9180   28.7440   40.9670 C   0  0  0  0  0  3  0  0  0  0  0  0
   36.9020   28.6980   42.2830 C   0  0  0  0  0  3  0  0  0  0  0  0
   36.6980   27.4210   43.0300 C   0  0  0  0  0  0  0  0  0  0  0  0
   35.9610   26.7750   42.5260 H   0  0  0  0  0  0  0  0  0  0  0  0
   36.3080   27.6020   44.0610 H   0  0  0  0  0  0  0  0  0  0  0  0
   38.0090   26.7370   43.1700 C   0  0  0  0  0  3  0  0  0  0  0  0
   39.2120   26.9680   43.6780 C   0  0  0  0  0  3  0  0  0  0  0  0
   40.3210   25.9730   43.6110 C   0  0  0  0  0  2  0  0  0  0  0  0
   40.3920   25.4560   44.5880 H   0  0  0  0  0  0  0  0  0  0  0  0
  1  2  1  0  0  0  0
  2  3  2  0  0  0  0
  2 10  1  0  0  0  0
  3  8  1  0  0  0  0
  4  3  1  0  0  0  0
  5  4  2  0  0  0  0
  6  5  1  0  0  0  0
  6  1  2  0  0  0  0
  7  1  1  0  0  0  0
  9  5  1  0  0  0  0
 10 11  2  0  0  0  0
 11 12  1  0  0  0  0
 12 15  1  0  0  0  0
 12 14  1  0  0  0  0
 13 12  1  0  0  0  0
 15 16  2  0  0  0  0
 17 16  1  0  0  0  0
 17 18  1  0  0  0  0
M  END
>  <minimizedAffinity>
-3.58359599

$$$$

 OpenBabel03242517143D

 18 18  0  0  0  0  0  0  0  0999 V2000
   36.6000   26.1540   39.9870 C   0  0  0  0  0  0  0  0  0  0  0  0
   36.8840   26.8280   41.1730 C   0  0  0  0  0  0  0  0  0  0  0  0
   37.1410   26.0470   42.3100 C   0  0  0  0  0  0  0  0  0  0  0  0
   37.1050   24.6880   42.2140 N   0  0  0  0  0  0  0  0  0  0  0  0
   36.8230   24.0900   41.0340 C   0  0  0  0  0  0  0  0  0  0  0  0
   36.5760   24.8200   39.9410 N   0  0  0  0  0  0  0  0  0  0  0  0
   36.4060   26.7940   39.1270 H   0  0  0  0  0  0  0  0  0  0  0  0
   37.3670   26.5200   43.2580 H   0  0  0  0  0  0  0  0  0  0  0  0
   36.7920   23.0040   40.9460 H   0  0  0  0  0  0  0  0  0  0  0  0
   36.9230   28.2790   41.2750 C   0  0  0  0  0  3  0  0  0  0  0  0
   36.0060   29.1100   40.8230 C   0  0  0  0  0  3  0  0  0  0  0  0
   36.1330   30.5900   40.9740 C   0  0  0  0  0  0  0  0  0  0  0  0
   36.6910   30.8540   41.8880 H   0  0  0  0  0  0  0  0  0  0  0  0
   35.1360   31.0850   41.0590 H   0  0  0  0  0  0  0  0  0  0  0  0
   36.7940   31.1380   39.7620 C   0  0  0  0  0  3  0  0  0  0  0  0
   36.8890   30.8740   38.4650 C   0  0  0  0  0  3  0  0  0  0  0  0
   37.6970   31.7070   37.5290 C   0  0  0  0  0  2  0  0  0  0  0  0
   37.0150   32.3890   36.9840 H   0  0  0  0  0  0  0  0  0  0  0  0
  1  2  1  0  0  0  0
  2 10  1  0  0  0  0
  2  3  2  0  0  0  0
  3  8  1  0  0  0  0
  4  3  1  0  0  0  0
  5  4  2  0  0  0  0
  6  1  2  0  0  0  0
  6  5  1  0  0  0  0
  7  1  1  0  0  0  0
  9  5  1  0  0  0  0
 11 12  1  0  0  0  0
 11 10  2  0  0  0  0
 12 14  1  0  0  0  0
 12 13  1  0  0  0  0
 15 12  1  0  0  0  0
 16 15  2  0  0  0  0
 17 16  1  0  0  0  0
 18 17  1  0  0  0  0
M  END
>  <minimizedAffinity>
-3.54858923

$$$$

 OpenBabel03242517143D

 18 18  0  0  0  0  0  0  0  0999 V2000
   38.2560   25.2600   39.6890 C   0  0  0  0  0  0  0  0  0  0  0  0
   37.9620   25.1500   41.0460 C   0  0  0  0  0  0  0  0  0  0  0  0
   37.6480   23.8730   41.5340 C   0  0  0  0  0  0  0  0  0  0  0  0
   37.6430   22.8100   40.6820 N   0  0  0  0  0  0  0  0  0  0  0  0
   37.9370   22.9790   39.3720 C   0  0  0  0  0  0  0  0  0  0  0  0
   38.2380   24.1900   38.8910 N   0  0  0  0  0  0  0  0  0  0  0  0
   38.4940   26.2670   39.3470 H   0  0  0  0  0  0  0  0  0  0  0  0
   37.4100   23.7310   42.5820 H   0  0  0  0  0  0  0  0  0  0  0  0
   37.9370   22.1350   38.6820 H   0  0  0  0  0  0  0  0  0  0  0  0
   37.9670   26.2850   41.9570 C   0  0  0  0  0  3  0  0  0  0  0  0
   36.9740   26.6490   42.7420 C   0  0  0  0  0  3  0  0  0  0  0  0
   37.0710   27.8340   43.6470 C   0  0  0  0  0  0  0  0  0  0  0  0
   37.0960   27.5290   44.7060 H   0  0  0  0  0  0  0  0  0  0  0  0
   36.1930   28.5140   43.5340 H   0  0  0  0  0  0  0  0  0  0  0  0
   38.2820   28.6140   43.2810 C   0  0  0  0  0  3  0  0  0  0  0  0
   38.5980   29.8100   42.8040 C   0  0  0  0  0  3  0  0  0  0  0  0
   40.0060   30.2370   42.5630 C   0  0  0  0  0  2  0  0  0  0  0  0
   40.3320   30.8740   43.4080 H   0  0  0  0  0  0  0  0  0  0  0  0
  1  2  1  0  0  0  0
  2  3  2  0  0  0  0
  2 10  1  0  0  0  0
  3  8  1  0  0  0  0
  4  3  1  0  0  0  0
  5  4  2  0  0  0  0
  6  5  1  0  0  0  0
  6  1  2  0  0  0  0
  7  1  1  0  0  0  0
  9  5  1  0  0  0  0
 10 11  2  0  0  0  0
 11 12  1  0  0  0  0
 12 13  1  0  0  0  0
 14 12  1  0  0  0  0
 15 12  1  0  0  0  0
 16 15  2  0  0  0  0
 17 16  1  0  0  0  0
 17 18  1  0  0  0  0
M  END
>  <minimizedAffinity>
-3.37734175

$$$$

 OpenBabel03242517143D

 18 18  0  0  0  0  0  0  0  0999 V2000
   34.9450   29.2870   39.7510 C   0  0  0  0  0  0  0  0  0  0  0  0
   35.9260   28.3830   40.1500 C   0  0  0  0  0  0  0  0  0  0  0  0
   36.1910   27.3030   39.2940 C   0  0  0  0  0  0  0  0  0  0  0  0
   35.4940   27.1820   38.1280 N   0  0  0  0  0  0  0  0  0  0  0  0
   34.5520   28.0940   37.7950 C   0  0  0  0  0  0  0  0  0  0  0  0
   34.2880   29.1280   38.6000 N   0  0  0  0  0  0  0  0  0  0  0  0
   34.7680   30.1110   40.4410 H   0  0  0  0  0  0  0  0  0  0  0  0
   36.9440   26.5700   39.5560 H   0  0  0  0  0  0  0  0  0  0  0  0
   33.9900   28.0070   36.8650 H   0  0  0  0  0  0  0  0  0  0  0  0
   36.6710   28.5110   41.3940 C   0  0  0  0  0  3  0  0  0  0  0  0
   36.5690   27.7180   42.4400 C   0  0  0  0  0  3  0  0  0  0  0  0
   37.3770   27.9300   43.6780 C   0  0  0  0  0  0  0  0  0  0  0  0
   36.9640   27.3620   44.5280 H   0  0  0  0  0  0  0  0  0  0  0  0
   37.3860   29.0020   43.9890 H   0  0  0  0  0  0  0  0  0  0  0  0
   38.7830   27.5400   43.4010 C   0  0  0  0  0  3  0  0  0  0  0  0
   39.8720   28.0450   42.8360 C   0  0  0  0  0  3  0  0  0  0  0  0
   41.1590   27.2970   42.7520 C   0  0  0  0  0  2  0  0  0  0  0  0
   41.8310   27.6600   43.5540 H   0  0  0  0  0  0  0  0  0  0  0  0
  1  2  1  0  0  0  0
  1  7  1  0  0  0  0
  2 10  1  0  0  0  0
  3  8  1  0  0  0  0
  3  2  2  0  0  0  0
  4  3  1  0  0  0  0
  5  4  2  0  0  0  0
  5  6  1  0  0  0  0
  6  1  2  0  0  0  0
  9  5  1  0  0  0  0
 10 11  2  0  0  0  0
 11 12  1  0  0  0  0
 12 14  1  0  0  0  0
 12 13  1  0  0  0  0
 15 12  1  0  0  0  0
 16 15  2  0  0  0  0
 17 16  1  0  0  0  0
 17 18  1  0  0  0  0
M  END
>  <minimizedAffinity>
-3.37333393

$$$$

 OpenBabel03242517143D

 18 18  0  0  0  0  0  0  0  0999 V2000
   37.5170   28.8120   38.7290 C   0  0  0  0  0  0  0  0  0  0  0  0
   36.3930   28.3510   39.4110 C   0  0  0  0  0  0  0  0  0  0  0  0
   35.1430   28.5800   38.8170 C   0  0  0  0  0  0  0  0  0  0  0  0
   35.0750   29.2290   37.6200 N   0  0  0  0  0  0  0  0  0  0  0  0
   36.2040   29.6530   37.0050 C   0  0  0  0  0  0  0  0  0  0  0  0
   37.4020   29.4430   37.5580 N   0  0  0  0  0  0  0  0  0  0  0  0
   38.4690   28.6160   39.2210 H   0  0  0  0  0  0  0  0  0  0  0  0
   34.2360   28.2430   39.3050 H   0  0  0  0  0  0  0  0  0  0  0  0
   36.1610   30.1720   36.0480 H   0  0  0  0  0  0  0  0  0  0  0  0
   36.4650   27.6580   40.6880 C   0  0  0  0  0  3  0  0  0  0  0  0
   36.5550   28.2280   41.8720 C   0  0  0  0  0  3  0  0  0  0  0  0
   36.6240   27.4310   43.1330 C   0  0  0  0  0  0  0  0  0  0  0  0
   36.0550   26.4900   43.0450 H   0  0  0  0  0  0  0  0  0  0  0  0
   36.1860   27.9850   43.9980 H   0  0  0  0  0  0  0  0  0  0  0  0
   38.0510   27.1710   43.4550 C   0  0  0  0  0  3  0  0  0  0  0  0
   39.2540   27.5910   43.0880 C   0  0  0  0  0  3  0  0  0  0  0  0
   40.5120   27.0510   43.6790 C   0  0  0  0  0  2  0  0  0  0  0  0
   40.8780   27.7650   44.4430 H   0  0  0  0  0  0  0  0  0  0  0  0
  1  7  1  0  0  0  0
  1  2  1  0  0  0  0
  2 10  1  0  0  0  0
  3  8  1  0  0  0  0
  3  2  2  0  0  0  0
  4  3  1  0  0  0  0
  5  6  1  0  0  0  0
  5  4  2  0  0  0  0
  6  1  2  0  0  0  0
  9  5  1  0  0  0  0
 10 11  2  0  0  0  0
 11 12  1  0  0  0  0
 12 15  1  0  0  0  0
 12 14  1  0  0  0  0
 13 12  1  0  0  0  0
 16 15  2  0  0  0  0
 16 17  1  0  0  0  0
 17 18  1  0  0  0  0
M  END
>  <minimizedAffinity>
-3.37144041

$$$$
