
 OpenBabel03242519313D

 43 45  0  0  0  0  0  0  0  0999 V2000
   47.9100   33.7960   42.8550 C   0  0  0  0  0  0  0  0  0  0  0  0
   48.5980   35.0310   42.6600 C   0  0  0  0  0  0  0  0  0  0  0  0
   49.9640   35.0260   42.3560 C   0  0  0  0  0  0  0  0  0  0  0  0
   50.5630   33.7960   42.2650 N   0  0  0  0  0  0  0  0  0  0  0  0
   49.8610   32.6320   42.4610 C   0  0  0  0  0  0  0  0  0  0  0  0
   48.5700   32.6520   42.7480 N   0  0  0  0  0  0  0  0  0  0  0  0
   48.1800   36.0270   42.7200 H   0  0  0  0  0  0  0  0  0  0  0  0
   50.5230   35.9170   42.2010 H   0  0  0  0  0  0  0  0  0  0  0  0
   46.4890   33.9440   43.1710 C   0  0  0  0  0  0  0  0  0  0  0  0
   45.7930   34.9550   42.4150 C   0  0  0  0  0  0  0  0  0  0  0  0
   45.3380   36.1190   43.2080 C   0  0  0  0  0  0  0  0  0  0  0  0
   44.4610   35.6730   44.3790 C   0  0  0  0  0  0  0  0  0  0  0  0
   44.9850   34.4820   45.0970 C   0  0  0  0  0  0  0  0  0  0  0  0
   46.4300   34.1890   44.7180 C   0  0  0  0  0  0  0  0  0  0  0  0
   46.0130   32.9270   43.0450 H   0  0  0  0  0  0  0  0  0  0  0  0
   46.4480   35.3580   41.5920 H   0  0  0  0  0  0  0  0  0  0  0  0
   44.8980   34.5510   41.8880 H   0  0  0  0  0  0  0  0  0  0  0  0
   46.0920   36.7790   43.6250 H   0  0  0  0  0  0  0  0  0  0  0  0
   44.6740   36.7690   42.5750 H   0  0  0  0  0  0  0  0  0  0  0  0
   43.4330   35.5070   43.9770 H   0  0  0  0  0  0  0  0  0  0  0  0
   44.3580   36.4990   45.1190 H   0  0  0  0  0  0  0  0  0  0  0  0
   44.4160   33.5490   44.8750 H   0  0  0  0  0  0  0  0  0  0  0  0
   44.9790   34.6140   46.1870 H   0  0  0  0  0  0  0  0  0  0  0  0
   46.7070   33.2220   45.1680 H   0  0  0  0  0  0  0  0  0  0  0  0
   47.1050   35.0240   44.9800 H   0  0  0  0  0  0  0  0  0  0  0  0
   50.6730   31.4280   42.3270 C   0  0  0  0  0  0  0  0  0  0  0  0
   51.4710   31.2910   41.2570 N   0  0  0  0  0  0  0  0  0  0  0  0
   52.1250   30.1030   41.3460 C   0  0  0  0  0  0  0  0  0  0  0  0
   51.7130   29.5160   42.4860 N   0  0  0  0  0  0  0  0  0  0  0  0
   50.8300   30.3130   43.0910 N   0  0  0  0  0  0  0  0  0  0  0  0
   52.8480   29.6990   40.6250 H   0  0  0  0  0  0  0  0  0  0  0  0
   52.1410   28.2470   43.0260 C   0  0  0  0  0  0  0  0  0  0  0  0
   52.1690   27.4420   42.3140 H   0  0  0  0  0  0  0  0  0  0  0  0
   51.3930   27.9320   43.8090 H   0  0  0  0  0  0  0  0  0  0  0  0
   53.4180   28.4110   43.7170 C   0  0  0  0  0  0  0  0  0  0  0  0
   53.9200   29.2990   44.5440 C   0  0  0  0  0  0  0  0  0  0  0  0
   55.2760   29.2910   45.2630 C   0  0  0  0  0  0  0  0  0  0  0  0
   55.0600   29.8390   46.2030 H   0  0  0  0  0  0  0  0  0  0  0  0
   55.5230   28.2170   45.4340 H   0  0  0  0  0  0  0  0  0  0  0  0
   56.2260   30.0110   44.4110 C   0  0  0  0  0  0  0  0  0  0  0  0
   57.0340   30.5790   43.5360 C   0  0  0  0  0  0  0  0  0  0  0  0
   58.0920   31.6540   43.5350 C   0  0  0  0  0  0  0  0  0  0  0  0
   58.2020   31.9800   44.6160 H   0  0  0  0  0  0  0  0  0  0  0  0
  1  9  1  0  0  0  0
  2  7  1  0  0  0  0
  2  1  2  0  0  0  0
  3  2  1  0  0  0  0
  4  3  2  0  0  0  0
  4  5  1  0  0  0  0
  5  6  2  0  0  0  0
  6  1  1  0  0  0  0
  8  3  1  0  0  0  0
  9 14  1  0  0  0  0
 10  9  1  0  0  0  0
 10 11  1  0  0  0  0
 11 18  1  0  0  0  0
 11 12  1  0  0  0  0
 12 13  1  0  0  0  0
 12 21  1  0  0  0  0
 13 23  1  0  0  0  0
 14 25  1  0  0  0  0
 14 13  1  0  0  0  0
 14 24  1  0  0  0  0
 15  9  1  0  0  0  0
 16 10  1  0  0  0  0
 17 10  1  0  0  0  0
 19 11  1  0  0  0  0
 20 12  1  0  0  0  0
 22 13  1  0  0  0  0
 26  5  1  0  0  0  0
 26 30  2  0  0  0  0
 27 28  2  0  0  0  0
 27 26  1  0  0  0  0
 28 29  1  0  0  0  0
 29 32  1  0  0  0  0
 29 30  1  0  0  0  0
 31 28  1  0  0  0  0
 32 35  1  0  0  0  0
 32 34  1  0  0  0  0
 33 32  1  0  0  0  0
 35 36  2  0  0  0  0
 36 37  1  0  0  0  0
 37 39  1  0  0  0  0
 37 38  1  0  0  0  0
 40 37  1  0  0  0  0
 41 40  1  0  0  0  0
 42 41  1  0  0  0  0
 42 43  1  0  0  0  0
M  END
>  <minimizedAffinity>
-4.11905479

>  <minimizedRMSD>
1.00675261

$$$$
