
 OpenBabel03242519313D

 43 45  0  0  0  0  0  0  0  0999 V2000
   47.9050   33.8580   42.8480 C   0  0  0  0  0  0  0  0  0  0  0  0
   48.5630   35.1060   42.6410 C   0  0  0  0  0  0  0  0  0  0  0  0
   49.9270   35.1300   42.3260 C   0  0  0  0  0  0  0  0  0  0  0  0
   50.5520   33.9130   42.2350 N   0  0  0  0  0  0  0  0  0  0  0  0
   49.8770   32.7340   42.4430 C   0  0  0  0  0  0  0  0  0  0  0  0
   48.5890   32.7280   42.7400 N   0  0  0  0  0  0  0  0  0  0  0  0
   48.1240   36.0930   42.7000 H   0  0  0  0  0  0  0  0  0  0  0  0
   50.4640   36.0320   42.1620 H   0  0  0  0  0  0  0  0  0  0  0  0
   46.4830   33.9760   43.1750 C   0  0  0  0  0  0  0  0  0  0  0  0
   45.7620   34.9790   42.4320 C   0  0  0  0  0  0  0  0  0  0  0  0
   45.2910   36.1280   43.2380 C   0  0  0  0  0  0  0  0  0  0  0  0
   44.4310   35.6560   44.4120 C   0  0  0  0  0  0  0  0  0  0  0  0
   44.9830   34.4700   45.1160 C   0  0  0  0  0  0  0  0  0  0  0  0
   46.4310   34.2070   44.7250 C   0  0  0  0  0  0  0  0  0  0  0  0
   46.0260   32.9510   43.0450 H   0  0  0  0  0  0  0  0  0  0  0  0
   46.4040   35.4010   41.6080 H   0  0  0  0  0  0  0  0  0  0  0  0
   44.8710   34.5630   41.9090 H   0  0  0  0  0  0  0  0  0  0  0  0
   46.0360   36.7980   43.6540 H   0  0  0  0  0  0  0  0  0  0  0  0
   44.6110   36.7700   42.6140 H   0  0  0  0  0  0  0  0  0  0  0  0
   43.4040   35.4730   44.0150 H   0  0  0  0  0  0  0  0  0  0  0  0
   44.3180   36.4740   45.1590 H   0  0  0  0  0  0  0  0  0  0  0  0
   44.4310   33.5280   44.8910 H   0  0  0  0  0  0  0  0  0  0  0  0
   44.9830   34.5920   46.2070 H   0  0  0  0  0  0  0  0  0  0  0  0
   46.7300   33.2420   45.1650 H   0  0  0  0  0  0  0  0  0  0  0  0
   47.0910   35.0530   44.9880 H   0  0  0  0  0  0  0  0  0  0  0  0
   50.7140   31.5480   42.3080 C   0  0  0  0  0  0  0  0  0  0  0  0
   51.3560   31.3270   41.1500 N   0  0  0  0  0  0  0  0  0  0  0  0
   52.0680   30.1740   41.2560 C   0  0  0  0  0  0  0  0  0  0  0  0
   51.8510   29.6950   42.4960 N   0  0  0  0  0  0  0  0  0  0  0  0
   51.0290   30.5230   43.1440 N   0  0  0  0  0  0  0  0  0  0  0  0
   52.6970   29.7200   40.4790 H   0  0  0  0  0  0  0  0  0  0  0  0
   52.4090   28.5010   43.0880 C   0  0  0  0  0  0  0  0  0  0  0  0
   52.4980   27.6660   42.4160 H   0  0  0  0  0  0  0  0  0  0  0  0
   51.7100   28.1580   43.9030 H   0  0  0  0  0  0  0  0  0  0  0  0
   53.6780   28.8190   43.7370 C   0  0  0  0  0  3  0  0  0  0  0  0
   54.0430   29.5860   44.7380 C   0  0  0  0  0  3  0  0  0  0  0  0
   55.4330   29.7570   45.3670 C   0  0  0  0  0  0  0  0  0  0  0  0
   55.2940   30.6300   46.0370 H   0  0  0  0  0  0  0  0  0  0  0  0
   55.6340   28.8110   45.9220 H   0  0  0  0  0  0  0  0  0  0  0  0
   56.3720   30.0410   44.2800 C   0  0  0  0  0  2  0  0  0  0  0  0
   57.1810   30.4330   43.3130 C   0  0  0  0  0  2  0  0  0  0  0  0
   58.1640   29.7990   42.3600 C   0  0  0  0  0  2  0  0  0  0  0  0
   58.1020   28.6820   42.5500 H   0  0  0  0  0  0  0  0  0  0  0  0
  1  9  1  0  0  0  0
  2  7  1  0  0  0  0
  2  1  2  0  0  0  0
  3  2  1  0  0  0  0
  4  3  2  0  0  0  0
  4  5  1  0  0  0  0
  5  6  2  0  0  0  0
  6  1  1  0  0  0  0
  8  3  1  0  0  0  0
  9 14  1  0  0  0  0
 10  9  1  0  0  0  0
 10 11  1  0  0  0  0
 11 18  1  0  0  0  0
 11 12  1  0  0  0  0
 12 13  1  0  0  0  0
 12 21  1  0  0  0  0
 13 23  1  0  0  0  0
 14 25  1  0  0  0  0
 14 13  1  0  0  0  0
 14 24  1  0  0  0  0
 15  9  1  0  0  0  0
 16 10  1  0  0  0  0
 17 10  1  0  0  0  0
 19 11  1  0  0  0  0
 20 12  1  0  0  0  0
 22 13  1  0  0  0  0
 26  5  1  0  0  0  0
 26 30  2  0  0  0  0
 27 28  2  0  0  0  0
 27 26  1  0  0  0  0
 28 29  1  0  0  0  0
 29 32  1  0  0  0  0
 29 30  1  0  0  0  0
 31 28  1  0  0  0  0
 32 35  1  0  0  0  0
 32 34  1  0  0  0  0
 33 32  1  0  0  0  0
 35 36  2  0  0  0  0
 36 37  1  0  0  0  0
 37 39  1  0  0  0  0
 37 38  1  0  0  0  0
 40 37  1  0  0  0  0
 41 40  1  0  0  0  0
 42 43  1  0  0  0  0
 42 41  1  0  0  0  0
M  END
>  <minimizedAffinity>
-4.08101606

>  <minimizedRMSD>
0.798725247

$$$$
