
 OpenBabel03252509303D

 16 16  0  0  0  0  0  0  0  0999 V2000
   44.5700   35.9980   44.4750 C   0  0  0  0  0  0  0  0  0  0  0  0
   45.3500   35.9070   43.2890 C   0  0  0  0  0  0  0  0  0  0  0  0
   46.2420   34.8490   43.1890 C   0  0  0  0  0  0  0  0  0  0  0  0
   46.3300   33.9580   44.2140 N   0  0  0  0  0  0  0  0  0  0  0  0
   45.5610   34.0810   45.3370 C   0  0  0  0  0  0  0  0  0  0  0  0
   44.6920   35.1010   45.4480 N   0  0  0  0  0  0  0  0  0  0  0  0
   43.8650   36.8200   44.5710 H   0  0  0  0  0  0  0  0  0  0  0  0
   45.2010   36.6680   42.5380 H   0  0  0  0  0  0  0  0  0  0  0  0
   45.7330   33.3040   46.0710 H   0  0  0  0  0  0  0  0  0  0  0  0
   47.0370   34.7670   41.9690 C   0  0  0  0  0  0  0  0  0  0  0  0
   47.8480   34.0530   42.1390 H   0  0  0  0  0  0  0  0  0  0  0  0
   47.4330   35.7620   41.6950 H   0  0  0  0  0  0  0  0  0  0  0  0
   46.2560   34.2770   40.7910 C   0  0  0  0  0  3  0  0  0  0  0  0
   45.4600   33.2160   40.6970 C   0  0  0  0  0  3  0  0  0  0  0  0
   44.7140   32.7950   39.4790 C   0  0  0  0  0  2  0  0  0  0  0  0
   43.6390   33.0730   39.5310 H   0  0  0  0  0  0  0  0  0  0  0  0
  1  7  1  0  0  0  0
  1  6  1  0  0  0  0
  2  1  2  0  0  0  0
  3  2  1  0  0  0  0
  3  4  2  0  0  0  0
  4  5  1  0  0  0  0
  5  6  2  0  0  0  0
  5  9  1  0  0  0  0
  8  2  1  0  0  0  0
 10 11  1  0  0  0  0
 10  3  1  0  0  0  0
 12 10  1  0  0  0  0
 13 10  1  0  0  0  0
 14 13  2  0  0  0  0
 15 16  1  0  0  0  0
 15 14  1  0  0  0  0
M  END
>  <minimizedAffinity>
-3.32087088

>  <minimizedRMSD>
0.336289763

$$$$
