
 OpenBabel03242519323D

 43 45  0  0  0  0  0  0  0  0999 V2000
   47.9130   33.8350   42.8510 C   0  0  0  0  0  0  0  0  0  0  0  0
   48.5780   35.0800   42.6480 C   0  0  0  0  0  0  0  0  0  0  0  0
   49.9430   35.0970   42.3380 C   0  0  0  0  0  0  0  0  0  0  0  0
   50.5630   33.8770   42.2490 N   0  0  0  0  0  0  0  0  0  0  0  0
   49.8810   32.7020   42.4540 C   0  0  0  0  0  0  0  0  0  0  0  0
   48.5910   32.7020   42.7460 N   0  0  0  0  0  0  0  0  0  0  0  0
   48.1440   36.0690   42.7040 H   0  0  0  0  0  0  0  0  0  0  0  0
   50.4860   35.9970   42.1760 H   0  0  0  0  0  0  0  0  0  0  0  0
   46.4900   33.9610   43.1720 C   0  0  0  0  0  0  0  0  0  0  0  0
   45.7760   34.9630   42.4220 C   0  0  0  0  0  0  0  0  0  0  0  0
   45.3070   36.1180   43.2200 C   0  0  0  0  0  0  0  0  0  0  0  0
   44.4400   35.6540   44.3940 C   0  0  0  0  0  0  0  0  0  0  0  0
   44.9850   34.4690   45.1060 C   0  0  0  0  0  0  0  0  0  0  0  0
   46.4330   34.1990   44.7210 C   0  0  0  0  0  0  0  0  0  0  0  0
   46.0290   32.9360   43.0450 H   0  0  0  0  0  0  0  0  0  0  0  0
   46.4230   35.3780   41.5990 H   0  0  0  0  0  0  0  0  0  0  0  0
   44.8850   34.5480   41.8970 H   0  0  0  0  0  0  0  0  0  0  0  0
   46.0520   36.7870   43.6370 H   0  0  0  0  0  0  0  0  0  0  0  0
   44.6310   36.7590   42.5920 H   0  0  0  0  0  0  0  0  0  0  0  0
   43.4140   35.4740   43.9940 H   0  0  0  0  0  0  0  0  0  0  0  0
   44.3270   36.4760   45.1370 H   0  0  0  0  0  0  0  0  0  0  0  0
   44.4300   33.5280   44.8820 H   0  0  0  0  0  0  0  0  0  0  0  0
   44.9810   34.5970   46.1960 H   0  0  0  0  0  0  0  0  0  0  0  0
   46.7260   33.2350   45.1660 H   0  0  0  0  0  0  0  0  0  0  0  0
   47.0960   35.0440   44.9830 H   0  0  0  0  0  0  0  0  0  0  0  0
   50.7120   31.5110   42.3220 C   0  0  0  0  0  0  0  0  0  0  0  0
   51.3370   31.2740   41.1580 N   0  0  0  0  0  0  0  0  0  0  0  0
   52.0470   30.1200   41.2680 C   0  0  0  0  0  0  0  0  0  0  0  0
   51.8460   29.6570   42.5170 N   0  0  0  0  0  0  0  0  0  0  0  0
   51.0360   30.4950   43.1660 N   0  0  0  0  0  0  0  0  0  0  0  0
   52.6640   29.6550   40.4880 H   0  0  0  0  0  0  0  0  0  0  0  0
   52.4090   28.4690   43.1160 C   0  0  0  0  0  0  0  0  0  0  0  0
   52.3950   27.5980   42.4850 H   0  0  0  0  0  0  0  0  0  0  0  0
   51.7800   28.2010   44.0130 H   0  0  0  0  0  0  0  0  0  0  0  0
   53.7490   28.7580   43.6200 C   0  0  0  0  0  3  0  0  0  0  0  0
   54.2510   29.5930   44.5000 C   0  0  0  0  0  3  0  0  0  0  0  0
   55.6990   29.7260   44.9900 C   0  0  0  0  0  0  0  0  0  0  0  0
   55.8440   30.8240   45.0370 H   0  0  0  0  0  0  0  0  0  0  0  0
   55.7250   29.2420   45.9940 H   0  0  0  0  0  0  0  0  0  0  0  0
   56.5590   29.0990   43.9840 C   0  0  0  0  0  2  0  0  0  0  0  0
   57.4460   28.5910   43.1480 C   0  0  0  0  0  2  0  0  0  0  0  0
   57.4380   27.7360   41.9060 C   0  0  0  0  0  2  0  0  0  0  0  0
   56.3450   27.5620   41.6570 H   0  0  0  0  0  0  0  0  0  0  0  0
  1  9  1  0  0  0  0
  2  7  1  0  0  0  0
  2  1  2  0  0  0  0
  3  2  1  0  0  0  0
  4  3  2  0  0  0  0
  4  5  1  0  0  0  0
  5  6  2  0  0  0  0
  6  1  1  0  0  0  0
  8  3  1  0  0  0  0
  9 14  1  0  0  0  0
 10  9  1  0  0  0  0
 10 11  1  0  0  0  0
 11 18  1  0  0  0  0
 11 12  1  0  0  0  0
 12 13  1  0  0  0  0
 12 21  1  0  0  0  0
 13 23  1  0  0  0  0
 14 25  1  0  0  0  0
 14 13  1  0  0  0  0
 14 24  1  0  0  0  0
 15  9  1  0  0  0  0
 16 10  1  0  0  0  0
 17 10  1  0  0  0  0
 19 11  1  0  0  0  0
 20 12  1  0  0  0  0
 22 13  1  0  0  0  0
 26  5  1  0  0  0  0
 26 30  2  0  0  0  0
 27 28  2  0  0  0  0
 27 26  1  0  0  0  0
 28 29  1  0  0  0  0
 29 32  1  0  0  0  0
 29 30  1  0  0  0  0
 31 28  1  0  0  0  0
 32 35  1  0  0  0  0
 32 34  1  0  0  0  0
 33 32  1  0  0  0  0
 35 36  2  0  0  0  0
 36 37  1  0  0  0  0
 37 38  1  0  0  0  0
 37 39  1  0  0  0  0
 40 37  1  0  0  0  0
 41 40  1  0  0  0  0
 42 41  1  0  0  0  0
 43 42  1  0  0  0  0
M  END
>  <minimizedAffinity>
-3.85246277

>  <minimizedRMSD>
0.293560982

$$$$
