
 OpenBabel03252503443D

 29 30  0  0  1  0  0  0  0  0999 V2000
   44.6280   35.3410   45.2840 C   0  0  0  0  0  0  0  0  0  0  0  0
   45.3320   35.1830   44.0770 C   0  0  0  0  0  0  0  0  0  0  0  0
   46.1680   34.0590   43.9840 C   0  0  0  0  0  0  0  0  0  0  0  0
   46.2470   33.2190   45.0200 N   0  0  0  0  0  0  0  0  0  0  0  0
   45.5580   33.4040   46.1560 C   0  0  0  0  0  0  0  0  0  0  0  0
   44.7430   34.4670   46.2980 N   0  0  0  0  0  0  0  0  0  0  0  0
   43.9630   36.1810   45.4380 H   0  0  0  0  0  0  0  0  0  0  0  0
   46.6830   33.9730   43.0620 H   0  0  0  0  0  0  0  0  0  0  0  0
   47.2050   32.1220   47.5400 C   0  0  2  0  0  0  0  0  0  0  0  0
   45.7200   32.3990   47.2040 C   0  0  1  0  0  0  0  0  0  0  0  0
   45.2450   32.7580   48.4360 O   0  0  0  0  0  0  0  0  0  0  0  0
   45.7560   31.8600   49.3360 C   0  0  0  0  0  0  0  0  0  0  0  0
   46.9540   31.1760   48.7270 C   0  0  2  0  0  0  0  0  0  0  0  0
   47.7220   31.6380   46.7130 H   0  0  0  0  0  0  0  0  0  0  0  0
   45.2940   31.4510   46.8210 H   0  0  0  0  0  0  0  0  0  0  0  0
   46.1150   32.3470   50.2690 H   0  0  0  0  0  0  0  0  0  0  0  0
   44.9690   31.1510   49.6420 H   0  0  0  0  0  0  0  0  0  0  0  0
   46.6370   30.2200   48.2930 H   0  0  0  0  0  0  0  0  0  0  0  0
   47.7440   33.2550   48.0510 O   0  0  0  0  0  0  0  0  0  0  0  0
   47.6480   34.0680   47.4820 H   0  0  0  0  0  0  0  0  0  0  0  0
   48.0430   31.0850   49.5600 O   0  0  0  0  0  0  0  0  0  0  0  0
   47.7150   31.3180   50.4740 H   0  0  0  0  0  0  0  0  0  0  0  0
   45.1010   36.2030   43.0340 C   0  0  0  0  0  0  0  0  0  0  0  0
   44.4000   36.9570   43.4550 H   0  0  0  0  0  0  0  0  0  0  0  0
   46.0440   36.7870   42.8430 H   0  0  0  0  0  0  0  0  0  0  0  0
   44.5720   35.5990   41.7880 C   0  0  0  0  0  3  0  0  0  0  0  0
   43.4180   35.2670   41.2500 C   0  0  0  0  0  3  0  0  0  0  0  0
   41.9960   35.3380   41.6480 C   0  0  0  0  0  2  0  0  0  0  0  0
   41.7990   35.8890   42.5780 H   0  0  0  0  0  0  0  0  0  0  0  0
  1  7  1  0  0  0  0
  1  6  1  0  0  0  0
  2  1  2  0  0  0  0
  3  2  1  0  0  0  0
  3  4  2  0  0  0  0
  4  5  1  0  0  0  0
  5  6  2  0  0  0  0
  5 10  1  0  0  0  0
  8  3  1  0  0  0  0
  9 14  1  6  0  0  0
  9 19  1  0  0  0  0
  9 13  1  0  0  0  0
 10 15  1  6  0  0  0
 10  9  1  0  0  0  0
 10 11  1  0  0  0  0
 11 12  1  0  0  0  0
 12 17  1  0  0  0  0
 12 16  1  0  0  0  0
 13 18  1  6  0  0  0
 13 12  1  0  0  0  0
 13 21  1  0  0  0  0
 20 19  1  0  0  0  0
 21 22  1  0  0  0  0
 23 24  1  0  0  0  0
 23  2  1  0  0  0  0
 25 23  1  0  0  0  0
 26 23  1  0  0  0  0
 27 28  1  0  0  0  0
 27 26  2  0  0  0  0
 28 29  1  0  0  0  0
M  END
>  <minimizedAffinity>
-5.76776981

>  <minimizedRMSD>
0.472155213

$$$$
