
 OpenBabel03252508483D

 40 41  0  0  0  0  0  0  0  0999 V2000
   38.4660   30.4280   42.0200 C   0  0  0  0  0  0  0  0  0  0  0  0
   38.1560   31.2660   42.6960 H   0  0  0  0  0  0  0  0  0  0  0  0
   37.8030   29.5810   42.2210 H   0  0  0  0  0  0  0  0  0  0  0  0
   40.2400   28.7280   42.5220 C   0  0  0  0  0  0  0  0  0  0  0  0
   39.8490   30.0620   42.4240 C   0  0  0  0  0  0  0  0  0  0  0  0
   40.7940   31.0280   42.7160 C   0  0  0  0  0  0  0  0  0  0  0  0
   42.0560   30.6720   43.0850 C   0  0  0  0  0  0  0  0  0  0  0  0
   42.4590   29.3710   43.1870 C   0  0  0  0  0  0  0  0  0  0  0  0
   41.4940   28.4280   42.8890 C   0  0  0  0  0  0  0  0  0  0  0  0
   40.5270   32.0640   42.6520 H   0  0  0  0  0  0  0  0  0  0  0  0
   42.7740   31.4610   43.3070 H   0  0  0  0  0  0  0  0  0  0  0  0
   43.4580   29.0670   43.4790 H   0  0  0  0  0  0  0  0  0  0  0  0
   41.7810   27.3770   42.9600 H   0  0  0  0  0  0  0  0  0  0  0  0
   37.3230   26.3120   42.6980 C   0  0  0  0  0  0  0  0  0  0  0  0
   38.2770   27.2660   43.1110 C   0  0  0  0  0  0  0  0  0  0  0  0
   39.2090   27.7400   42.2050 C   0  0  0  0  0  0  0  0  0  0  0  0
   39.1550   27.2520   40.9370 N   0  0  0  0  0  0  0  0  0  0  0  0
   38.2300   26.3330   40.5540 C   0  0  0  0  0  0  0  0  0  0  0  0
   37.3230   25.8750   41.4460 N   0  0  0  0  0  0  0  0  0  0  0  0
   36.6320   25.9960   43.4720 H   0  0  0  0  0  0  0  0  0  0  0  0
   38.3390   27.6700   44.1170 H   0  0  0  0  0  0  0  0  0  0  0  0
   38.2900   26.0250   39.5250 H   0  0  0  0  0  0  0  0  0  0  0  0
   38.3590   30.8980   40.6670 N   0  0  0  0  0  0  0  0  0  0  0  0
   39.0650   31.6270   40.4320 H   0  0  0  0  0  0  0  0  0  0  0  0
   36.7820   31.4500   40.3010 S   0  0  0  0  0  0  0  0  0  0  0  0
   36.7630   32.9590   40.1750 O   0  0  0  0  0  0  0  0  0  0  0  0
   36.0570   33.5670   40.5100 H   0  0  0  0  0  0  0  0  0  0  0  0
   35.8110   31.0110   41.3530 O   0  0  0  0  0  0  0  0  0  0  0  0
   35.9610   30.2490   41.9890 H   0  0  0  0  0  0  0  0  0  0  0  0
   36.3290   30.7930   38.8290 O   0  0  0  0  0  0  0  0  0  0  0  0
   37.0530   29.6230   38.6470 C   0  0  0  0  0  0  0  0  0  0  0  0
   37.5270   29.3810   39.6370 H   0  0  0  0  0  0  0  0  0  0  0  0
   37.7810   29.6440   37.8390 H   0  0  0  0  0  0  0  0  0  0  0  0
   36.0690   28.4550   38.4240 C   0  0  0  0  0  0  0  0  0  0  0  0
   36.4240   27.8070   37.6060 H   0  0  0  0  0  0  0  0  0  0  0  0
   35.9250   27.9010   39.3730 H   0  0  0  0  0  0  0  0  0  0  0  0
   34.7760   29.1080   38.0790 C   0  0  0  0  0  3  0  0  0  0  0  0
   33.7760   28.5270   37.4700 C   0  0  0  0  0  3  0  0  0  0  0  0
   33.8740   27.1130   37.0670 C   0  0  0  0  0  2  0  0  0  0  0  0
   32.8260   26.7130   36.9350 H   0  0  0  0  0  0  0  0  0  0  0  0
  1  3  1  0  0  0  0
  1  5  1  0  0  0  0
  1  2  1  0  0  0  0
  4  9  1  0  0  0  0
  5  4  2  0  0  0  0
  5  6  1  0  0  0  0
  6  7  2  0  0  0  0
  7  8  1  0  0  0  0
  7 11  1  0  0  0  0
  8 12  1  0  0  0  0
  9 13  1  0  0  0  0
  9  8  2  0  0  0  0
 10  6  1  0  0  0  0
 14 15  1  0  0  0  0
 14 20  1  0  0  0  0
 15 21  1  0  0  0  0
 16  4  1  0  0  0  0
 16 15  2  0  0  0  0
 17 16  1  0  0  0  0
 18 17  2  0  0  0  0
 18 19  1  0  0  0  0
 19 14  2  0  0  0  0
 22 18  1  0  0  0  0
 23  1  1  0  0  0  0
 24 23  1  0  0  0  0
 25 23  1  0  0  0  0
 25 28  1  0  0  0  0
 26 25  1  0  0  0  0
 26 27  1  0  0  0  0
 28 29  1  0  0  0  0
 30 25  1  0  0  0  0
 31 30  1  0  0  0  0
 31 32  1  0  0  0  0
 33 31  1  0  0  0  0
 34 31  1  0  0  0  0
 34 36  1  0  0  0  0
 35 34  1  0  0  0  0
 37 34  1  0  0  0  0
 38 37  2  0  0  0  0
 39 38  1  0  0  0  0
 40 39  1  0  0  0  0
M  END
>  <minimizedAffinity>
-5.19274282

$$$$

 OpenBabel03252508483D

 40 41  0  0  0  0  0  0  0  0999 V2000
   35.4400   29.5470   40.6050 C   0  0  0  0  0  0  0  0  0  0  0  0
   34.3630   29.4270   40.8880 H   0  0  0  0  0  0  0  0  0  0  0  0
   35.4940   29.5570   39.5120 H   0  0  0  0  0  0  0  0  0  0  0  0
   36.6770   27.3980   40.2290 C   0  0  0  0  0  0  0  0  0  0  0  0
   36.1360   28.3340   41.1090 C   0  0  0  0  0  0  0  0  0  0  0  0
   36.2720   28.0910   42.4640 C   0  0  0  0  0  0  0  0  0  0  0  0
   36.9130   26.9740   42.9050 C   0  0  0  0  0  0  0  0  0  0  0  0
   37.4500   26.0450   42.0590 C   0  0  0  0  0  0  0  0  0  0  0  0
   37.2990   26.3140   40.7130 C   0  0  0  0  0  0  0  0  0  0  0  0
   35.8680   28.7900   43.1680 H   0  0  0  0  0  0  0  0  0  0  0  0
   37.0020   26.8160   43.9800 H   0  0  0  0  0  0  0  0  0  0  0  0
   37.9640   25.1490   42.3900 H   0  0  0  0  0  0  0  0  0  0  0  0
   37.7160   25.5920   40.0070 H   0  0  0  0  0  0  0  0  0  0  0  0
   35.3520   27.6540   36.6860 C   0  0  0  0  0  0  0  0  0  0  0  0
   35.4120   27.3140   38.0540 C   0  0  0  0  0  0  0  0  0  0  0  0
   36.5090   27.6950   38.8070 C   0  0  0  0  0  0  0  0  0  0  0  0
   37.4910   28.3910   38.1760 N   0  0  0  0  0  0  0  0  0  0  0  0
   37.4190   28.7110   36.8570 C   0  0  0  0  0  0  0  0  0  0  0  0
   36.3440   28.3360   36.1280 N   0  0  0  0  0  0  0  0  0  0  0  0
   34.4580   27.3160   36.1730 H   0  0  0  0  0  0  0  0  0  0  0  0
   34.6410   26.7590   38.5790 H   0  0  0  0  0  0  0  0  0  0  0  0
   38.2590   29.2640   36.4730 H   0  0  0  0  0  0  0  0  0  0  0  0
   35.9090   30.7730   41.1880 N   0  0  0  0  0  0  0  0  0  0  0  0
   35.1370   31.4230   41.4480 H   0  0  0  0  0  0  0  0  0  0  0  0
   37.0480   31.5650   40.1860 S   0  0  0  0  0  0  0  0  0  0  0  0
   37.1420   33.0340   40.5460 O   0  0  0  0  0  0  0  0  0  0  0  0
   37.2240   33.7880   39.9120 H   0  0  0  0  0  0  0  0  0  0  0  0
   36.6780   31.4130   38.7440 O   0  0  0  0  0  0  0  0  0  0  0  0
   36.0720   30.7020   38.3800 H   0  0  0  0  0  0  0  0  0  0  0  0
   38.5450   30.8630   40.4460 O   0  0  0  0  0  0  0  0  0  0  0  0
   39.0130   31.3050   41.6760 C   0  0  0  0  0  0  0  0  0  0  0  0
   38.1420   31.7890   42.1950 H   0  0  0  0  0  0  0  0  0  0  0  0
   39.8810   31.9590   41.6380 H   0  0  0  0  0  0  0  0  0  0  0  0
   39.3270   30.0810   42.5620 C   0  0  0  0  0  0  0  0  0  0  0  0
   40.0400   30.3570   43.3560 H   0  0  0  0  0  0  0  0  0  0  0  0
   38.3850   29.6590   42.9640 H   0  0  0  0  0  0  0  0  0  0  0  0
   39.9130   29.0780   41.6300 C   0  0  0  0  0  3  0  0  0  0  0  0
   40.4850   27.9590   41.9890 C   0  0  0  0  0  3  0  0  0  0  0  0
   40.5910   27.6040   43.4150 C   0  0  0  0  0  2  0  0  0  0  0  0
   40.7380   26.4870   43.4880 H   0  0  0  0  0  0  0  0  0  0  0  0
  1  2  1  0  0  0  0
  1  5  1  0  0  0  0
  1 23  1  0  0  0  0
  3  1  1  0  0  0  0
  4  9  2  0  0  0  0
  4  5  1  0  0  0  0
  5  6  2  0  0  0  0
  6  7  1  0  0  0  0
  6 10  1  0  0  0  0
  7 11  1  0  0  0  0
  8 12  1  0  0  0  0
  8  7  2  0  0  0  0
  9  8  1  0  0  0  0
 13  9  1  0  0  0  0
 14 15  1  0  0  0  0
 15 21  1  0  0  0  0
 15 16  2  0  0  0  0
 16  4  1  0  0  0  0
 17 16  1  0  0  0  0
 18 17  2  0  0  0  0
 19 14  2  0  0  0  0
 19 18  1  0  0  0  0
 20 14  1  0  0  0  0
 22 18  1  0  0  0  0
 23 24  1  0  0  0  0
 25 30  1  0  0  0  0
 25 26  1  0  0  0  0
 25 23  1  0  0  0  0
 27 26  1  0  0  0  0
 28 25  1  0  0  0  0
 29 28  1  0  0  0  0
 30 31  1  0  0  0  0
 31 32  1  0  0  0  0
 31 34  1  0  0  0  0
 33 31  1  0  0  0  0
 34 36  1  0  0  0  0
 34 35  1  0  0  0  0
 37 38  2  0  0  0  0
 37 34  1  0  0  0  0
 38 39  1  0  0  0  0
 39 40  1  0  0  0  0
M  END
>  <minimizedAffinity>
-5.15002918

$$$$

 OpenBabel03252508483D

 40 41  0  0  0  0  0  0  0  0999 V2000
   38.9400   29.6590   38.8060 C   0  0  0  0  0  0  0  0  0  0  0  0
   39.3940   28.7230   39.2200 H   0  0  0  0  0  0  0  0  0  0  0  0
   39.1420   30.4660   39.5170 H   0  0  0  0  0  0  0  0  0  0  0  0
   36.7960   28.8730   39.8440 C   0  0  0  0  0  0  0  0  0  0  0  0
   37.4740   29.4190   38.7550 C   0  0  0  0  0  0  0  0  0  0  0  0
   36.7310   29.7260   37.6300 C   0  0  0  0  0  0  0  0  0  0  0  0
   35.3890   29.4980   37.6030 C   0  0  0  0  0  0  0  0  0  0  0  0
   34.7070   28.9640   38.6600 C   0  0  0  0  0  0  0  0  0  0  0  0
   35.4740   28.6680   39.7690 C   0  0  0  0  0  0  0  0  0  0  0  0
   37.2200   30.1470   36.7730 H   0  0  0  0  0  0  0  0  0  0  0  0
   34.8360   29.7530   36.6990 H   0  0  0  0  0  0  0  0  0  0  0  0
   33.6390   28.7750   38.6590 H   0  0  0  0  0  0  0  0  0  0  0  0
   34.9620   28.2390   40.6330 H   0  0  0  0  0  0  0  0  0  0  0  0
   39.0760   27.1800   42.3560 C   0  0  0  0  0  0  0  0  0  0  0  0
   38.3080   27.3750   41.1890 C   0  0  0  0  0  0  0  0  0  0  0  0
   37.6210   28.5630   41.0120 C   0  0  0  0  0  0  0  0  0  0  0  0
   37.7240   29.4990   41.9920 N   0  0  0  0  0  0  0  0  0  0  0  0
   38.4690   29.2960   43.1110 C   0  0  0  0  0  0  0  0  0  0  0  0
   39.1370   28.1330   43.2760 N   0  0  0  0  0  0  0  0  0  0  0  0
   39.5810   26.2220   42.4120 H   0  0  0  0  0  0  0  0  0  0  0  0
   38.2110   26.6430   40.3940 H   0  0  0  0  0  0  0  0  0  0  0  0
   38.4710   30.1120   43.8140 H   0  0  0  0  0  0  0  0  0  0  0  0
   39.5360   29.9020   37.5210 N   0  0  0  0  0  0  0  0  0  0  0  0
   40.1700   29.1330   37.2150 H   0  0  0  0  0  0  0  0  0  0  0  0
   40.3440   31.4070   37.4620 S   0  0  0  0  0  0  0  0  0  0  0  0
   39.4880   32.4440   36.7640 O   0  0  0  0  0  0  0  0  0  0  0  0
   39.8030   33.1310   36.1250 H   0  0  0  0  0  0  0  0  0  0  0  0
   41.6600   31.2730   36.7610 O   0  0  0  0  0  0  0  0  0  0  0  0
   42.1570   30.4110   36.6370 H   0  0  0  0  0  0  0  0  0  0  0  0
   40.6100   31.9170   39.0350 O   0  0  0  0  0  0  0  0  0  0  0  0
   40.9710   33.2560   38.9910 C   0  0  0  0  0  0  0  0  0  0  0  0
   40.8540   33.5850   37.9230 H   0  0  0  0  0  0  0  0  0  0  0  0
   41.9590   33.4870   39.3840 H   0  0  0  0  0  0  0  0  0  0  0  0
   39.9090   34.0870   39.7420 C   0  0  0  0  0  0  0  0  0  0  0  0
   40.3930   34.8800   40.3350 H   0  0  0  0  0  0  0  0  0  0  0  0
   39.1680   34.4860   39.0220 H   0  0  0  0  0  0  0  0  0  0  0  0
   39.2100   33.1050   40.6180 C   0  0  0  0  0  3  0  0  0  0  0  0
   37.9710   32.7150   40.4730 C   0  0  0  0  0  3  0  0  0  0  0  0
   37.1470   33.2520   39.3760 C   0  0  0  0  0  2  0  0  0  0  0  0
   36.2970   32.5320   39.1900 H   0  0  0  0  0  0  0  0  0  0  0  0
  1  2  1  0  0  0  0
  1  3  1  0  0  0  0
  4 16  1  0  0  0  0
  5  1  1  0  0  0  0
  5  4  2  0  0  0  0
  6  5  1  0  0  0  0
  7  6  2  0  0  0  0
  7  8  1  0  0  0  0
  8  9  2  0  0  0  0
  9  4  1  0  0  0  0
  9 13  1  0  0  0  0
 10  6  1  0  0  0  0
 11  7  1  0  0  0  0
 12  8  1  0  0  0  0
 14 20  1  0  0  0  0
 14 19  1  0  0  0  0
 15 14  2  0  0  0  0
 16 15  1  0  0  0  0
 16 17  2  0  0  0  0
 17 18  1  0  0  0  0
 18 19  2  0  0  0  0
 18 22  1  0  0  0  0
 21 15  1  0  0  0  0
 23  1  1  0  0  0  0
 24 23  1  0  0  0  0
 25 23  1  0  0  0  0
 25 30  1  0  0  0  0
 26 25  1  0  0  0  0
 27 26  1  0  0  0  0
 28 25  1  0  0  0  0
 29 28  1  0  0  0  0
 31 30  1  0  0  0  0
 31 33  1  0  0  0  0
 31 34  1  0  0  0  0
 32 31  1  0  0  0  0
 34 35  1  0  0  0  0
 34 37  1  0  0  0  0
 36 34  1  0  0  0  0
 38 37  2  0  0  0  0
 39 38  1  0  0  0  0
 40 39  1  0  0  0  0
M  END
>  <minimizedAffinity>
-5.07391024

$$$$

 OpenBabel03252508483D

 40 41  0  0  0  0  0  0  0  0999 V2000
   36.2390   30.0340   41.3910 C   0  0  0  0  0  0  0  0  0  0  0  0
   37.3230   30.0060   41.6700 H   0  0  0  0  0  0  0  0  0  0  0  0
   35.6630   29.7600   42.2810 H   0  0  0  0  0  0  0  0  0  0  0  0
   36.8600   27.8480   40.3300 C   0  0  0  0  0  0  0  0  0  0  0  0
   36.0530   28.9840   40.3550 C   0  0  0  0  0  0  0  0  0  0  0  0
   35.0770   29.0960   39.3820 C   0  0  0  0  0  0  0  0  0  0  0  0
   34.9230   28.1240   38.4420 C   0  0  0  0  0  0  0  0  0  0  0  0
   35.7030   27.0030   38.4000 C   0  0  0  0  0  0  0  0  0  0  0  0
   36.6690   26.9180   39.3840 C   0  0  0  0  0  0  0  0  0  0  0  0
   34.4380   29.9570   39.3720 H   0  0  0  0  0  0  0  0  0  0  0  0
   34.1430   28.2460   37.6910 H   0  0  0  0  0  0  0  0  0  0  0  0
   35.5970   26.2170   37.6600 H   0  0  0  0  0  0  0  0  0  0  0  0
   37.3120   26.0360   39.3810 H   0  0  0  0  0  0  0  0  0  0  0  0
   38.7580   27.1090   43.5280 C   0  0  0  0  0  0  0  0  0  0  0  0
   37.7070   27.1230   42.5870 C   0  0  0  0  0  0  0  0  0  0  0  0
   37.8790   27.7710   41.3770 C   0  0  0  0  0  0  0  0  0  0  0  0
   39.0770   28.3730   41.1530 N   0  0  0  0  0  0  0  0  0  0  0  0
   40.0810   28.3510   42.0690 C   0  0  0  0  0  0  0  0  0  0  0  0
   39.9040   27.7160   43.2490 N   0  0  0  0  0  0  0  0  0  0  0  0
   38.5370   26.5800   44.4480 H   0  0  0  0  0  0  0  0  0  0  0  0
   36.7420   26.6500   42.7440 H   0  0  0  0  0  0  0  0  0  0  0  0
   40.9800   28.8630   41.7750 H   0  0  0  0  0  0  0  0  0  0  0  0
   35.9400   31.3630   40.9350 N   0  0  0  0  0  0  0  0  0  0  0  0
   35.0920   31.4040   40.3300 H   0  0  0  0  0  0  0  0  0  0  0  0
   37.2740   32.0880   40.1490 S   0  0  0  0  0  0  0  0  0  0  0  0
   38.5630   31.3920   40.5390 O   0  0  0  0  0  0  0  0  0  0  0  0
   39.4310   31.8290   40.7270 H   0  0  0  0  0  0  0  0  0  0  0  0
   37.3560   33.5450   40.4830 O   0  0  0  0  0  0  0  0  0  0  0  0
   36.5940   34.0970   40.8280 H   0  0  0  0  0  0  0  0  0  0  0  0
   37.0620   31.9150   38.4970 O   0  0  0  0  0  0  0  0  0  0  0  0
   38.2450   31.4180   37.9680 C   0  0  0  0  0  0  0  0  0  0  0  0
   38.9020   31.1550   38.8410 H   0  0  0  0  0  0  0  0  0  0  0  0
   38.7500   32.0700   37.2580 H   0  0  0  0  0  0  0  0  0  0  0  0
   37.9630   30.0530   37.3050 C   0  0  0  0  0  0  0  0  0  0  0  0
   37.0350   29.6170   37.7080 H   0  0  0  0  0  0  0  0  0  0  0  0
   37.9350   30.1710   36.2040 H   0  0  0  0  0  0  0  0  0  0  0  0
   39.1480   29.2160   37.6410 C   0  0  0  0  0  3  0  0  0  0  0  0
   39.4070   28.0390   37.1360 C   0  0  0  0  0  3  0  0  0  0  0  0
   38.4930   27.4370   36.1510 C   0  0  0  0  0  2  0  0  0  0  0  0
   39.0670   26.6560   35.5710 H   0  0  0  0  0  0  0  0  0  0  0  0
  1  2  1  0  0  0  0
  1  3  1  0  0  0  0
  4  5  1  0  0  0  0
  4 16  1  0  0  0  0
  5  1  1  0  0  0  0
  6  5  2  0  0  0  0
  7  6  1  0  0  0  0
  8  7  2  0  0  0  0
  8  9  1  0  0  0  0
  9  4  2  0  0  0  0
 10  6  1  0  0  0  0
 11  7  1  0  0  0  0
 12  8  1  0  0  0  0
 13  9  1  0  0  0  0
 14 20  1  0  0  0  0
 15 21  1  0  0  0  0
 15 14  2  0  0  0  0
 16 15  1  0  0  0  0
 17 16  2  0  0  0  0
 17 18  1  0  0  0  0
 18 19  2  0  0  0  0
 19 14  1  0  0  0  0
 22 18  1  0  0  0  0
 23  1  1  0  0  0  0
 24 23  1  0  0  0  0
 25 28  1  0  0  0  0
 25 26  1  0  0  0  0
 25 23  1  0  0  0  0
 26 27  1  0  0  0  0
 28 29  1  0  0  0  0
 30 25  1  0  0  0  0
 31 30  1  0  0  0  0
 31 32  1  0  0  0  0
 33 31  1  0  0  0  0
 34 37  1  0  0  0  0
 34 35  1  0  0  0  0
 34 31  1  0  0  0  0
 36 34  1  0  0  0  0
 38 37  2  0  0  0  0
 39 38  1  0  0  0  0
 40 39  1  0  0  0  0
M  END
>  <minimizedAffinity>
-5.00163412

$$$$

 OpenBabel03252508483D

 40 41  0  0  0  0  0  0  0  0999 V2000
   39.2880   30.2840   40.4400 C   0  0  0  0  0  0  0  0  0  0  0  0
   40.0830   29.7550   41.0240 H   0  0  0  0  0  0  0  0  0  0  0  0
   38.7720   29.5340   39.8330 H   0  0  0  0  0  0  0  0  0  0  0  0
   39.6960   31.2870   38.1770 C   0  0  0  0  0  0  0  0  0  0  0  0
   39.9990   31.2270   39.5360 C   0  0  0  0  0  0  0  0  0  0  0  0
   40.9830   32.0750   40.0090 C   0  0  0  0  0  0  0  0  0  0  0  0
   41.6230   32.9320   39.1650 C   0  0  0  0  0  0  0  0  0  0  0  0
   41.3400   33.0050   37.8300 C   0  0  0  0  0  0  0  0  0  0  0  0
   40.3530   32.1470   37.3870 C   0  0  0  0  0  0  0  0  0  0  0  0
   41.2420   32.0550   41.0490 H   0  0  0  0  0  0  0  0  0  0  0  0
   42.3930   33.5850   39.5740 H   0  0  0  0  0  0  0  0  0  0  0  0
   41.8380   33.6800   37.1420 H   0  0  0  0  0  0  0  0  0  0  0  0
   40.1010   32.1790   36.3250 H   0  0  0  0  0  0  0  0  0  0  0  0
   36.3860   29.7540   37.1410 C   0  0  0  0  0  0  0  0  0  0  0  0
   37.3150   30.7160   37.5920 C   0  0  0  0  0  0  0  0  0  0  0  0
   38.6490   30.3730   37.7200 C   0  0  0  0  0  0  0  0  0  0  0  0
   39.0030   29.1000   37.3970 N   0  0  0  0  0  0  0  0  0  0  0  0
   38.0970   28.1850   36.9640 C   0  0  0  0  0  0  0  0  0  0  0  0
   36.7950   28.5280   36.8420 N   0  0  0  0  0  0  0  0  0  0  0  0
   35.3640   30.1070   37.0710 H   0  0  0  0  0  0  0  0  0  0  0  0
   37.0560   31.7360   37.8560 H   0  0  0  0  0  0  0  0  0  0  0  0
   38.5000   27.2120   36.7400 H   0  0  0  0  0  0  0  0  0  0  0  0
   38.4110   30.9260   41.3780 N   0  0  0  0  0  0  0  0  0  0  0  0
   38.8680   31.1250   42.2940 H   0  0  0  0  0  0  0  0  0  0  0  0
   36.9630   30.0460   41.6100 S   0  0  0  0  0  0  0  0  0  0  0  0
   35.7580   30.9230   41.3390 O   0  0  0  0  0  0  0  0  0  0  0  0
   34.9150   30.9390   41.8580 H   0  0  0  0  0  0  0  0  0  0  0  0
   36.8950   29.4970   43.0010 O   0  0  0  0  0  0  0  0  0  0  0  0
   37.6860   29.3640   43.6030 H   0  0  0  0  0  0  0  0  0  0  0  0
   36.9450   28.7770   40.5180 O   0  0  0  0  0  0  0  0  0  0  0  0
   36.5730   27.6310   41.2070 C   0  0  0  0  0  0  0  0  0  0  0  0
   35.7430   27.1570   40.6170 H   0  0  0  0  0  0  0  0  0  0  0  0
   36.3010   27.7800   42.2490 H   0  0  0  0  0  0  0  0  0  0  0  0
   37.7160   26.5970   41.1140 C   0  0  0  0  0  0  0  0  0  0  0  0
   38.1360   26.5830   40.0950 H   0  0  0  0  0  0  0  0  0  0  0  0
   38.4800   26.8140   41.8870 H   0  0  0  0  0  0  0  0  0  0  0  0
   37.0790   25.2950   41.4570 C   0  0  0  0  0  3  0  0  0  0  0  0
   37.6540   24.3260   42.1180 C   0  0  0  0  0  3  0  0  0  0  0  0
   39.0420   24.4700   42.5890 C   0  0  0  0  0  2  0  0  0  0  0  0
   39.2040   23.7390   43.4340 H   0  0  0  0  0  0  0  0  0  0  0  0
  1  2  1  0  0  0  0
  1 23  1  0  0  0  0
  3  1  1  0  0  0  0
  4  5  1  0  0  0  0
  5  6  2  0  0  0  0
  5  1  1  0  0  0  0
  6 10  1  0  0  0  0
  7 11  1  0  0  0  0
  7  6  1  0  0  0  0
  8  7  2  0  0  0  0
  9  8  1  0  0  0  0
  9  4  2  0  0  0  0
 12  8  1  0  0  0  0
 13  9  1  0  0  0  0
 14 15  1  0  0  0  0
 15 16  2  0  0  0  0
 15 21  1  0  0  0  0
 16  4  1  0  0  0  0
 17 16  1  0  0  0  0
 18 17  2  0  0  0  0
 19 18  1  0  0  0  0
 19 14  2  0  0  0  0
 20 14  1  0  0  0  0
 22 18  1  0  0  0  0
 23 25  1  0  0  0  0
 23 24  1  0  0  0  0
 25 28  1  0  0  0  0
 26 25  1  0  0  0  0
 26 27  1  0  0  0  0
 28 29  1  0  0  0  0
 30 31  1  0  0  0  0
 30 25  1  0  0  0  0
 31 33  1  0  0  0  0
 32 31  1  0  0  0  0
 34 31  1  0  0  0  0
 34 37  1  0  0  0  0
 34 36  1  0  0  0  0
 35 34  1  0  0  0  0
 37 38  2  0  0  0  0
 38 39  1  0  0  0  0
 39 40  1  0  0  0  0
M  END
>  <minimizedAffinity>
-4.97240782

$$$$

 OpenBabel03252508483D

 40 41  0  0  0  0  0  0  0  0999 V2000
   37.1640   29.3930   37.1870 C   0  0  0  0  0  0  0  0  0  0  0  0
   37.6280   28.5080   36.6820 H   0  0  0  0  0  0  0  0  0  0  0  0
   37.4720   29.3720   38.2370 H   0  0  0  0  0  0  0  0  0  0  0  0
   34.9180   29.1230   38.2700 C   0  0  0  0  0  0  0  0  0  0  0  0
   35.6940   29.1860   37.1130 C   0  0  0  0  0  0  0  0  0  0  0  0
   35.0450   29.0490   35.9000 C   0  0  0  0  0  0  0  0  0  0  0  0
   33.6970   28.8600   35.8540 C   0  0  0  0  0  0  0  0  0  0  0  0
   32.9190   28.7950   36.9750 C   0  0  0  0  0  0  0  0  0  0  0  0
   33.5940   28.9350   38.1720 C   0  0  0  0  0  0  0  0  0  0  0  0
   35.6110   29.0930   34.9910 H   0  0  0  0  0  0  0  0  0  0  0  0
   33.2200   28.7570   34.8800 H   0  0  0  0  0  0  0  0  0  0  0  0
   31.8450   28.6450   36.9600 H   0  0  0  0  0  0  0  0  0  0  0  0
   33.0040   28.8880   39.0890 H   0  0  0  0  0  0  0  0  0  0  0  0
   36.8010   28.4710   41.4950 C   0  0  0  0  0  0  0  0  0  0  0  0
   36.1090   28.2140   40.2930 C   0  0  0  0  0  0  0  0  0  0  0  0
   35.6450   29.2720   39.5300 C   0  0  0  0  0  0  0  0  0  0  0  0
   35.8860   30.5290   39.9880 N   0  0  0  0  0  0  0  0  0  0  0  0
   36.5550   30.7600   41.1480 C   0  0  0  0  0  0  0  0  0  0  0  0
   37.0050   29.7220   41.8880 N   0  0  0  0  0  0  0  0  0  0  0  0
   37.1290   27.5860   42.0290 H   0  0  0  0  0  0  0  0  0  0  0  0
   35.9050   27.2210   39.9070 H   0  0  0  0  0  0  0  0  0  0  0  0
   36.6820   31.7980   41.4040 H   0  0  0  0  0  0  0  0  0  0  0  0
   37.6220   30.5730   36.5070 N   0  0  0  0  0  0  0  0  0  0  0  0
   38.1910   30.3590   35.6600 H   0  0  0  0  0  0  0  0  0  0  0  0
   38.4700   31.6280   37.5510 S   0  0  0  0  0  0  0  0  0  0  0  0
   37.5190   32.6120   38.2010 O   0  0  0  0  0  0  0  0  0  0  0  0
   37.6890   33.5740   38.3600 H   0  0  0  0  0  0  0  0  0  0  0  0
   39.5390   32.3640   36.8040 O   0  0  0  0  0  0  0  0  0  0  0  0
   39.9330   32.0700   35.9300 H   0  0  0  0  0  0  0  0  0  0  0  0
   39.1790   30.7080   38.7570 O   0  0  0  0  0  0  0  0  0  0  0  0
   39.9180   31.5630   39.5630 C   0  0  0  0  0  0  0  0  0  0  0  0
   39.2150   32.3700   39.9050 H   0  0  0  0  0  0  0  0  0  0  0  0
   40.8190   31.9700   39.1090 H   0  0  0  0  0  0  0  0  0  0  0  0
   40.2850   30.8280   40.8690 C   0  0  0  0  0  0  0  0  0  0  0  0
   41.2300   31.2220   41.2780 H   0  0  0  0  0  0  0  0  0  0  0  0
   39.4460   30.9020   41.5890 H   0  0  0  0  0  0  0  0  0  0  0  0
   40.4190   29.3970   40.4750 C   0  0  0  0  0  3  0  0  0  0  0  0
   40.4850   28.3900   41.3050 C   0  0  0  0  0  3  0  0  0  0  0  0
   40.4300   28.6210   42.7590 C   0  0  0  0  0  2  0  0  0  0  0  0
   40.1110   27.6580   43.2550 H   0  0  0  0  0  0  0  0  0  0  0  0
  1  3  1  0  0  0  0
  2  1  1  0  0  0  0
  4 16  1  0  0  0  0
  5  1  1  0  0  0  0
  5  4  2  0  0  0  0
  6  5  1  0  0  0  0
  7  6  2  0  0  0  0
  7  8  1  0  0  0  0
  8  9  2  0  0  0  0
  9  4  1  0  0  0  0
  9 13  1  0  0  0  0
 10  6  1  0  0  0  0
 11  7  1  0  0  0  0
 12  8  1  0  0  0  0
 14 19  1  0  0  0  0
 14 20  1  0  0  0  0
 15 14  2  0  0  0  0
 16 17  2  0  0  0  0
 16 15  1  0  0  0  0
 17 18  1  0  0  0  0
 18 22  1  0  0  0  0
 18 19  2  0  0  0  0
 21 15  1  0  0  0  0
 23  1  1  0  0  0  0
 23 25  1  0  0  0  0
 24 23  1  0  0  0  0
 25 26  1  0  0  0  0
 25 30  1  0  0  0  0
 26 27  1  0  0  0  0
 28 25  1  0  0  0  0
 29 28  1  0  0  0  0
 30 31  1  0  0  0  0
 31 32  1  0  0  0  0
 31 34  1  0  0  0  0
 33 31  1  0  0  0  0
 34 35  1  0  0  0  0
 34 36  1  0  0  0  0
 37 34  1  0  0  0  0
 37 38  2  0  0  0  0
 38 39  1  0  0  0  0
 39 40  1  0  0  0  0
M  END
>  <minimizedAffinity>
-4.88350248

$$$$

 OpenBabel03252508483D

 40 41  0  0  0  0  0  0  0  0999 V2000
   36.4390   30.2970   41.3540 C   0  0  0  0  0  0  0  0  0  0  0  0
   37.0240   30.6650   40.4720 H   0  0  0  0  0  0  0  0  0  0  0  0
   36.2170   31.1620   41.9860 H   0  0  0  0  0  0  0  0  0  0  0  0
   38.7290   29.4670   41.9530 C   0  0  0  0  0  0  0  0  0  0  0  0
   37.3450   29.3800   42.0950 C   0  0  0  0  0  0  0  0  0  0  0  0
   36.8490   28.4110   42.9470 C   0  0  0  0  0  0  0  0  0  0  0  0
   37.6960   27.5800   43.6170 C   0  0  0  0  0  0  0  0  0  0  0  0
   39.0550   27.6490   43.4910 C   0  0  0  0  0  0  0  0  0  0  0  0
   39.5200   28.6270   42.6330 C   0  0  0  0  0  0  0  0  0  0  0  0
   35.7900   28.3150   43.0790 H   0  0  0  0  0  0  0  0  0  0  0  0
   37.2700   26.8280   44.2800 H   0  0  0  0  0  0  0  0  0  0  0  0
   39.7460   26.9970   44.0150 H   0  0  0  0  0  0  0  0  0  0  0  0
   40.6020   28.7110   42.5090 H   0  0  0  0  0  0  0  0  0  0  0  0
   39.9520   32.7290   40.4580 C   0  0  0  0  0  0  0  0  0  0  0  0
   39.4930   31.8060   41.4200 C   0  0  0  0  0  0  0  0  0  0  0  0
   39.2080   30.5050   41.0410 C   0  0  0  0  0  0  0  0  0  0  0  0
   39.3900   30.1800   39.7340 N   0  0  0  0  0  0  0  0  0  0  0  0
   39.8330   31.0810   38.8180 C   0  0  0  0  0  0  0  0  0  0  0  0
   40.1090   32.3490   39.1960 N   0  0  0  0  0  0  0  0  0  0  0  0
   40.1500   33.7240   40.8410 H   0  0  0  0  0  0  0  0  0  0  0  0
   39.3400   32.0430   42.4680 H   0  0  0  0  0  0  0  0  0  0  0  0
   39.9360   30.7020   37.8160 H   0  0  0  0  0  0  0  0  0  0  0  0
   35.2500   29.6640   40.8550 N   0  0  0  0  0  0  0  0  0  0  0  0
   34.8600   28.9540   41.5110 H   0  0  0  0  0  0  0  0  0  0  0  0
   35.4870   28.9820   39.3050 S   0  0  0  0  0  0  0  0  0  0  0  0
   36.5900   29.7130   38.5650 O   0  0  0  0  0  0  0  0  0  0  0  0
   36.5930   29.9520   37.6050 H   0  0  0  0  0  0  0  0  0  0  0  0
   34.2200   29.0250   38.5090 O   0  0  0  0  0  0  0  0  0  0  0  0
   33.3010   29.1200   38.9000 H   0  0  0  0  0  0  0  0  0  0  0  0
   35.9550   27.3870   39.5050 O   0  0  0  0  0  0  0  0  0  0  0  0
   37.2800   27.2810   39.1040 C   0  0  0  0  0  0  0  0  0  0  0  0
   37.7700   28.2610   39.3540 H   0  0  0  0  0  0  0  0  0  0  0  0
   37.4320   27.0010   38.0640 H   0  0  0  0  0  0  0  0  0  0  0  0
   38.0020   26.2720   40.0210 C   0  0  0  0  0  0  0  0  0  0  0  0
   38.6840   25.6390   39.4310 H   0  0  0  0  0  0  0  0  0  0  0  0
   38.5220   26.8130   40.8370 H   0  0  0  0  0  0  0  0  0  0  0  0
   36.9090   25.4670   40.6350 C   0  0  0  0  0  3  0  0  0  0  0  0
   37.0710   24.5540   41.5550 C   0  0  0  0  0  3  0  0  0  0  0  0
   38.4170   24.2470   42.0680 C   0  0  0  0  0  2  0  0  0  0  0  0
   38.3050   23.7550   43.0780 H   0  0  0  0  0  0  0  0  0  0  0  0
  1  3  1  0  0  0  0
  1  5  1  0  0  0  0
  2  1  1  0  0  0  0
  4  5  2  0  0  0  0
  4  9  1  0  0  0  0
  5  6  1  0  0  0  0
  6 10  1  0  0  0  0
  6  7  2  0  0  0  0
  7 11  1  0  0  0  0
  8  7  1  0  0  0  0
  8 12  1  0  0  0  0
  9  8  2  0  0  0  0
 13  9  1  0  0  0  0
 14 20  1  0  0  0  0
 14 15  1  0  0  0  0
 15 21  1  0  0  0  0
 16 15  2  0  0  0  0
 16  4  1  0  0  0  0
 17 16  1  0  0  0  0
 18 19  1  0  0  0  0
 18 17  2  0  0  0  0
 19 14  2  0  0  0  0
 22 18  1  0  0  0  0
 23  1  1  0  0  0  0
 23 24  1  0  0  0  0
 25 30  1  0  0  0  0
 25 23  1  0  0  0  0
 26 25  1  0  0  0  0
 27 26  1  0  0  0  0
 28 29  1  0  0  0  0
 28 25  1  0  0  0  0
 31 32  1  0  0  0  0
 31 30  1  0  0  0  0
 31 34  1  0  0  0  0
 33 31  1  0  0  0  0
 34 37  1  0  0  0  0
 34 36  1  0  0  0  0
 35 34  1  0  0  0  0
 37 38  2  0  0  0  0
 38 39  1  0  0  0  0
 39 40  1  0  0  0  0
M  END
>  <minimizedAffinity>
-4.88336325

$$$$

 OpenBabel03252508483D

 40 41  0  0  0  0  0  0  0  0999 V2000
   37.6460   27.9760   40.2840 C   0  0  0  0  0  0  0  0  0  0  0  0
   38.0910   27.9830   39.2560 H   0  0  0  0  0  0  0  0  0  0  0  0
   38.4330   28.2720   40.9850 H   0  0  0  0  0  0  0  0  0  0  0  0
   36.9350   25.6950   39.5200 C   0  0  0  0  0  0  0  0  0  0  0  0
   37.2640   26.5660   40.5580 C   0  0  0  0  0  0  0  0  0  0  0  0
   37.2210   26.0680   41.8470 C   0  0  0  0  0  0  0  0  0  0  0  0
   36.8670   24.7730   42.0770 C   0  0  0  0  0  0  0  0  0  0  0  0
   36.5420   23.9040   41.0740 C   0  0  0  0  0  0  0  0  0  0  0  0
   36.5940   24.4290   39.7970 C   0  0  0  0  0  0  0  0  0  0  0  0
   37.4670   26.7100   42.6700 H   0  0  0  0  0  0  0  0  0  0  0  0
   36.8440   24.4150   43.1060 H   0  0  0  0  0  0  0  0  0  0  0  0
   36.2580   22.8700   41.2360 H   0  0  0  0  0  0  0  0  0  0  0  0
   36.3400   23.7630   38.9700 H   0  0  0  0  0  0  0  0  0  0  0  0
   38.0190   26.7080   36.0310 C   0  0  0  0  0  0  0  0  0  0  0  0
   38.0660   26.1170   37.3110 C   0  0  0  0  0  0  0  0  0  0  0  0
   36.9940   26.2640   38.1740 C   0  0  0  0  0  0  0  0  0  0  0  0
   35.9290   26.9850   37.7330 N   0  0  0  0  0  0  0  0  0  0  0  0
   35.8980   27.5480   36.4960 C   0  0  0  0  0  0  0  0  0  0  0  0
   36.9500   27.4000   35.6600 N   0  0  0  0  0  0  0  0  0  0  0  0
   38.9010   26.5440   35.4210 H   0  0  0  0  0  0  0  0  0  0  0  0
   38.9050   25.5390   37.6850 H   0  0  0  0  0  0  0  0  0  0  0  0
   35.0000   28.0940   36.2640 H   0  0  0  0  0  0  0  0  0  0  0  0
   36.5390   28.8910   40.2860 N   0  0  0  0  0  0  0  0  0  0  0  0
   36.3390   29.2910   39.3450 H   0  0  0  0  0  0  0  0  0  0  0  0
   36.7390   30.1390   41.4390 S   0  0  0  0  0  0  0  0  0  0  0  0
   36.9270   29.5570   42.8250 O   0  0  0  0  0  0  0  0  0  0  0  0
   36.5370   29.9070   43.6650 H   0  0  0  0  0  0  0  0  0  0  0  0
   35.5620   31.0640   41.4250 O   0  0  0  0  0  0  0  0  0  0  0  0
   34.9180   31.1590   40.6630 H   0  0  0  0  0  0  0  0  0  0  0  0
   38.1190   31.0000   41.0390 O   0  0  0  0  0  0  0  0  0  0  0  0
   37.7180   32.1970   40.4620 C   0  0  0  0  0  0  0  0  0  0  0  0
   38.5310   32.9430   40.6750 H   0  0  0  0  0  0  0  0  0  0  0  0
   36.7390   32.5590   40.7690 H   0  0  0  0  0  0  0  0  0  0  0  0
   37.7560   32.0510   38.9260 C   0  0  0  0  0  0  0  0  0  0  0  0
   37.2850   31.1030   38.6210 H   0  0  0  0  0  0  0  0  0  0  0  0
   37.2810   32.9340   38.4550 H   0  0  0  0  0  0  0  0  0  0  0  0
   39.2040   32.0750   38.5780 C   0  0  0  0  0  3  0  0  0  0  0  0
   39.8630   31.0920   38.0240 C   0  0  0  0  0  3  0  0  0  0  0  0
   39.1750   29.8320   37.6930 C   0  0  0  0  0  2  0  0  0  0  0  0
   39.7800   29.2990   36.9020 H   0  0  0  0  0  0  0  0  0  0  0  0
  1 23  1  0  0  0  0
  1  5  1  0  0  0  0
  1  3  1  0  0  0  0
  2  1  1  0  0  0  0
  4  9  2  0  0  0  0
  4  5  1  0  0  0  0
  5  6  2  0  0  0  0
  6  7  1  0  0  0  0
  6 10  1  0  0  0  0
  7 11  1  0  0  0  0
  8 12  1  0  0  0  0
  8  7  2  0  0  0  0
  9  8  1  0  0  0  0
 13  9  1  0  0  0  0
 14 15  1  0  0  0  0
 15 21  1  0  0  0  0
 15 16  2  0  0  0  0
 16  4  1  0  0  0  0
 17 16  1  0  0  0  0
 18 17  2  0  0  0  0
 19 14  2  0  0  0  0
 19 18  1  0  0  0  0
 20 14  1  0  0  0  0
 22 18  1  0  0  0  0
 23 25  1  0  0  0  0
 24 23  1  0  0  0  0
 25 26  1  0  0  0  0
 26 27  1  0  0  0  0
 28 25  1  0  0  0  0
 29 28  1  0  0  0  0
 30 25  1  0  0  0  0
 31 32  1  0  0  0  0
 31 33  1  0  0  0  0
 31 30  1  0  0  0  0
 34 31  1  0  0  0  0
 35 34  1  0  0  0  0
 36 34  1  0  0  0  0
 37 34  1  0  0  0  0
 38 37  2  0  0  0  0
 39 38  1  0  0  0  0
 40 39  1  0  0  0  0
M  END
>  <minimizedAffinity>
-4.8737545

$$$$

 OpenBabel03252508483D

 40 41  0  0  0  0  0  0  0  0999 V2000
   35.9070   30.1350   40.6370 C   0  0  0  0  0  0  0  0  0  0  0  0
   35.0190   30.8060   40.7590 H   0  0  0  0  0  0  0  0  0  0  0  0
   36.7710   30.6530   41.0650 H   0  0  0  0  0  0  0  0  0  0  0  0
   37.0400   30.7760   38.4930 C   0  0  0  0  0  0  0  0  0  0  0  0
   36.1140   29.9860   39.1720 C   0  0  0  0  0  0  0  0  0  0  0  0
   35.3970   29.0640   38.4330 C   0  0  0  0  0  0  0  0  0  0  0  0
   35.6010   28.9430   37.0920 C   0  0  0  0  0  0  0  0  0  0  0  0
   36.5040   29.7080   36.4080 C   0  0  0  0  0  0  0  0  0  0  0  0
   37.2050   30.6200   37.1720 C   0  0  0  0  0  0  0  0  0  0  0  0
   34.6760   28.4400   38.9230 H   0  0  0  0  0  0  0  0  0  0  0  0
   35.0180   28.2050   36.5420 H   0  0  0  0  0  0  0  0  0  0  0  0
   36.6810   29.6270   35.3410 H   0  0  0  0  0  0  0  0  0  0  0  0
   37.9350   31.2480   36.6580 H   0  0  0  0  0  0  0  0  0  0  0  0
   39.5110   32.4300   40.8460 C   0  0  0  0  0  0  0  0  0  0  0  0
   38.8750   31.4220   40.0910 C   0  0  0  0  0  0  0  0  0  0  0  0
   37.7750   31.7390   39.3140 C   0  0  0  0  0  0  0  0  0  0  0  0
   37.3570   33.0320   39.3180 N   0  0  0  0  0  0  0  0  0  0  0  0
   37.9800   33.9930   40.0500 C   0  0  0  0  0  0  0  0  0  0  0  0
   39.0540   33.6740   40.8070 N   0  0  0  0  0  0  0  0  0  0  0  0
   40.3640   32.0940   41.4250 H   0  0  0  0  0  0  0  0  0  0  0  0
   39.1910   30.3830   40.0720 H   0  0  0  0  0  0  0  0  0  0  0  0
   37.5540   34.9780   39.9690 H   0  0  0  0  0  0  0  0  0  0  0  0
   35.6190   28.9010   41.3130 N   0  0  0  0  0  0  0  0  0  0  0  0
   34.7360   28.9370   41.8670 H   0  0  0  0  0  0  0  0  0  0  0  0
   36.9220   28.3860   42.2940 S   0  0  0  0  0  0  0  0  0  0  0  0
   36.5740   27.0950   43.0050 O   0  0  0  0  0  0  0  0  0  0  0  0
   36.7960   26.8630   43.9410 H   0  0  0  0  0  0  0  0  0  0  0  0
   37.2800   29.4420   43.2930 O   0  0  0  0  0  0  0  0  0  0  0  0
   37.0460   30.4130   43.2090 H   0  0  0  0  0  0  0  0  0  0  0  0
   38.2390   28.1010   41.3010 O   0  0  0  0  0  0  0  0  0  0  0  0
   38.1250   26.8090   40.8060 C   0  0  0  0  0  0  0  0  0  0  0  0
   37.0730   26.4760   41.0190 H   0  0  0  0  0  0  0  0  0  0  0  0
   38.8620   26.1000   41.1770 H   0  0  0  0  0  0  0  0  0  0  0  0
   38.1830   26.8560   39.2650 C   0  0  0  0  0  0  0  0  0  0  0  0
   38.4420   25.8630   38.8620 H   0  0  0  0  0  0  0  0  0  0  0  0
   37.2240   27.2410   38.8650 H   0  0  0  0  0  0  0  0  0  0  0  0
   39.2400   27.8590   38.9550 C   0  0  0  0  0  3  0  0  0  0  0  0
   39.7490   28.0760   37.7710 C   0  0  0  0  0  3  0  0  0  0  0  0
   39.2840   27.3000   36.6090 C   0  0  0  0  0  2  0  0  0  0  0  0
   39.5350   27.8810   35.6740 H   0  0  0  0  0  0  0  0  0  0  0  0
  1  2  1  0  0  0  0
  1  3  1  0  0  0  0
  1 23  1  0  0  0  0
  4  5  1  0  0  0  0
  4 16  1  0  0  0  0
  5  1  1  0  0  0  0
  6 10  1  0  0  0  0
  6  5  2  0  0  0  0
  7  6  1  0  0  0  0
  8  7  2  0  0  0  0
  8  9  1  0  0  0  0
  9  4  2  0  0  0  0
 11  7  1  0  0  0  0
 12  8  1  0  0  0  0
 13  9  1  0  0  0  0
 14 20  1  0  0  0  0
 15 14  2  0  0  0  0
 16 17  2  0  0  0  0
 16 15  1  0  0  0  0
 17 18  1  0  0  0  0
 18 19  2  0  0  0  0
 19 14  1  0  0  0  0
 21 15  1  0  0  0  0
 22 18  1  0  0  0  0
 23 24  1  0  0  0  0
 23 25  1  0  0  0  0
 25 26  1  0  0  0  0
 25 28  1  0  0  0  0
 26 27  1  0  0  0  0
 29 28  1  0  0  0  0
 30 25  1  0  0  0  0
 31 32  1  0  0  0  0
 31 33  1  0  0  0  0
 31 30  1  0  0  0  0
 34 31  1  0  0  0  0
 35 34  1  0  0  0  0
 36 34  1  0  0  0  0
 37 34  1  0  0  0  0
 38 37  2  0  0  0  0
 39 38  1  0  0  0  0
 40 39  1  0  0  0  0
M  END
>  <minimizedAffinity>
-4.85338545

$$$$
