
 OpenBabel03252508473D

 40 41  0  0  0  0  0  0  0  0999 V2000
   43.0430   32.5400   41.6310 C   0  0  0  0  0  0  0  0  0  0  0  0
   43.6280   32.0500   40.8120 H   0  0  0  0  0  0  0  0  0  0  0  0
   42.1590   32.9980   41.1760 H   0  0  0  0  0  0  0  0  0  0  0  0
   43.6780   34.9550   41.8710 C   0  0  0  0  0  0  0  0  0  0  0  0
   43.9150   33.6150   42.1740 C   0  0  0  0  0  0  0  0  0  0  0  0
   44.9890   33.3260   42.9950 C   0  0  0  0  0  0  0  0  0  0  0  0
   45.7770   34.3250   43.4820 C   0  0  0  0  0  0  0  0  0  0  0  0
   45.5600   35.6440   43.1970 C   0  0  0  0  0  0  0  0  0  0  0  0
   44.4810   35.9020   42.3740 C   0  0  0  0  0  0  0  0  0  0  0  0
   45.2010   32.3060   43.2480 H   0  0  0  0  0  0  0  0  0  0  0  0
   46.6140   34.0600   44.1260 H   0  0  0  0  0  0  0  0  0  0  0  0
   46.1760   36.4540   43.5740 H   0  0  0  0  0  0  0  0  0  0  0  0
   44.2790   36.9460   42.1250 H   0  0  0  0  0  0  0  0  0  0  0  0
   40.2440   35.8250   40.5190 C   0  0  0  0  0  0  0  0  0  0  0  0
   41.2810   35.6000   41.4480 C   0  0  0  0  0  0  0  0  0  0  0  0
   42.5320   35.2140   40.9990 C   0  0  0  0  0  0  0  0  0  0  0  0
   42.7000   35.0710   39.6580 N   0  0  0  0  0  0  0  0  0  0  0  0
   41.6910   35.2920   38.7740 C   0  0  0  0  0  0  0  0  0  0  0  0
   40.4720   35.6680   39.2210 N   0  0  0  0  0  0  0  0  0  0  0  0
   39.2980   36.1230   40.9570 H   0  0  0  0  0  0  0  0  0  0  0  0
   41.1710   35.7070   42.5220 H   0  0  0  0  0  0  0  0  0  0  0  0
   41.9480   35.1450   37.7390 H   0  0  0  0  0  0  0  0  0  0  0  0
   42.7010   31.5270   42.5900 N   0  0  0  0  0  0  0  0  0  0  0  0
   43.2640   30.6570   42.4820 H   0  0  0  0  0  0  0  0  0  0  0  0
   41.0290   31.1660   42.5750 S   0  0  0  0  0  0  0  0  0  0  0  0
   40.2110   32.4370   42.4760 O   0  0  0  0  0  0  0  0  0  0  0  0
   39.3710   32.6330   42.9610 H   0  0  0  0  0  0  0  0  0  0  0  0
   40.6430   30.4010   43.8020 O   0  0  0  0  0  0  0  0  0  0  0  0
   41.2800   29.8870   44.3810 H   0  0  0  0  0  0  0  0  0  0  0  0
   40.7120   30.2300   41.2230 O   0  0  0  0  0  0  0  0  0  0  0  0
   40.0240   29.1000   41.6420 C   0  0  0  0  0  0  0  0  0  0  0  0
   39.1170   29.0140   40.9850 H   0  0  0  0  0  0  0  0  0  0  0  0
   39.7670   29.0750   42.6990 H   0  0  0  0  0  0  0  0  0  0  0  0
   40.8500   27.8480   41.2820 C   0  0  0  0  0  0  0  0  0  0  0  0
   41.0070   27.7940   40.1920 H   0  0  0  0  0  0  0  0  0  0  0  0
   41.8020   27.8510   41.8490 H   0  0  0  0  0  0  0  0  0  0  0  0
   40.0340   26.7010   41.7700 C   0  0  0  0  0  3  0  0  0  0  0  0
   39.3380   25.8950   41.0140 C   0  0  0  0  0  3  0  0  0  0  0  0
   39.3160   26.0810   39.5520 C   0  0  0  0  0  2  0  0  0  0  0  0
   39.0120   25.1030   39.0780 H   0  0  0  0  0  0  0  0  0  0  0  0
  1  5  1  0  0  0  0
  1 23  1  0  0  0  0
  2  1  1  0  0  0  0
  3  1  1  0  0  0  0
  4  5  2  0  0  0  0
  4  9  1  0  0  0  0
  5  6  1  0  0  0  0
  6 10  1  0  0  0  0
  6  7  2  0  0  0  0
  7 11  1  0  0  0  0
  8  7  1  0  0  0  0
  8 12  1  0  0  0  0
  9  8  2  0  0  0  0
 13  9  1  0  0  0  0
 14 20  1  0  0  0  0
 14 15  1  0  0  0  0
 15 21  1  0  0  0  0
 16 15  2  0  0  0  0
 16  4  1  0  0  0  0
 17 16  1  0  0  0  0
 18 19  1  0  0  0  0
 18 17  2  0  0  0  0
 19 14  2  0  0  0  0
 22 18  1  0  0  0  0
 24 23  1  0  0  0  0
 25 23  1  0  0  0  0
 25 28  1  0  0  0  0
 26 25  1  0  0  0  0
 26 27  1  0  0  0  0
 28 29  1  0  0  0  0
 30 31  1  0  0  0  0
 30 25  1  0  0  0  0
 31 33  1  0  0  0  0
 32 31  1  0  0  0  0
 34 31  1  0  0  0  0
 34 37  1  0  0  0  0
 34 36  1  0  0  0  0
 35 34  1  0  0  0  0
 38 37  2  0  0  0  0
 39 38  1  0  0  0  0
 40 39  1  0  0  0  0
M  END
>  <minimizedAffinity>
-4.60018635

>  <minimizedRMSD>
0.0629577041

$$$$
