
 OpenBabel03242520133D

 29 30  0  0  0  0  0  0  0  0999 V2000
   39.8820   30.3650   41.9530 C   0  0  0  0  0  0  0  0  0  0  0  0
   41.0690   29.7260   42.0700 C   0  0  0  0  0  0  0  0  0  0  0  0
   41.1000   28.5160   42.7320 C   0  0  0  0  0  0  0  0  0  0  0  0
   39.9450   27.9670   43.2650 C   0  0  0  0  0  0  0  0  0  0  0  0
   38.7370   28.6650   43.1210 C   0  0  0  0  0  0  0  0  0  0  0  0
   38.7440   29.8110   42.4860 N   0  0  0  0  0  0  0  0  0  0  0  0
   41.9490   30.1900   41.6380 H   0  0  0  0  0  0  0  0  0  0  0  0
   42.0440   28.0060   42.8250 H   0  0  0  0  0  0  0  0  0  0  0  0
   39.9410   27.0200   43.7880 H   0  0  0  0  0  0  0  0  0  0  0  0
   38.3080   33.2060   40.2980 C   0  0  0  0  0  0  0  0  0  0  0  0
   39.4250   34.0310   40.0280 C   0  0  0  0  0  0  0  0  0  0  0  0
   40.7120   33.6210   40.4080 C   0  0  0  0  0  0  0  0  0  0  0  0
   40.7490   32.4350   41.0160 N   0  0  0  0  0  0  0  0  0  0  0  0
   39.7120   31.6560   41.2720 C   0  0  0  0  0  0  0  0  0  0  0  0
   38.4980   32.0450   40.9110 N   0  0  0  0  0  0  0  0  0  0  0  0
   37.0210   33.6710   39.8840 N   0  0  0  0  0  0  0  0  0  0  0  0
   39.2710   34.9770   39.5260 H   0  0  0  0  0  0  0  0  0  0  0  0
   41.5730   34.2270   40.2160 H   0  0  0  0  0  0  0  0  0  0  0  0
   36.3830   33.6080   40.7180 H   0  0  0  0  0  0  0  0  0  0  0  0
   36.7720   34.0110   38.9140 H   0  0  0  0  0  0  0  0  0  0  0  0
   37.4920   28.1290   43.6640 C   0  0  0  0  0  3  0  0  0  0  0  0
   36.5250   27.6350   42.8920 C   0  0  0  0  0  3  0  0  0  0  0  0
   36.6280   27.5850   41.4200 C   0  0  0  0  0  0  0  0  0  0  0  0
   35.5910   27.7050   41.0020 H   0  0  0  0  0  0  0  0  0  0  0  0
   37.2150   28.4320   41.0330 H   0  0  0  0  0  0  0  0  0  0  0  0
   37.1220   26.2650   40.9430 C   0  0  0  0  0  3  0  0  0  0  0  0
   37.1030   25.1350   41.6760 C   0  0  0  0  0  3  0  0  0  0  0  0
   37.5320   23.7350   41.4160 C   0  0  0  0  0  2  0  0  0  0  0  0
   37.6630   23.5560   40.3230 H   0  0  0  0  0  0  0  0  0  0  0  0
  1  2  2  0  0  0  0
  1  6  1  0  0  0  0
  2  3  1  0  0  0  0
  3  8  1  0  0  0  0
  3  4  2  0  0  0  0
  4  9  1  0  0  0  0
  5  4  1  0  0  0  0
  5 21  1  0  0  0  0
  6  5  2  0  0  0  0
  7  2  1  0  0  0  0
 10 15  1  0  0  0  0
 11 10  2  0  0  0  0
 11 12  1  0  0  0  0
 12 13  2  0  0  0  0
 13 14  1  0  0  0  0
 14  1  1  0  0  0  0
 15 14  2  0  0  0  0
 16 10  1  0  0  0  0
 16 19  1  0  0  0  0
 17 11  1  0  0  0  0
 18 12  1  0  0  0  0
 20 16  1  0  0  0  0
 22 21  2  0  0  0  0
 23 22  1  0  0  0  0
 24 23  1  0  0  0  0
 25 23  1  0  0  0  0
 26 23  1  0  0  0  0
 26 27  2  0  0  0  0
 28 27  1  0  0  0  0
 29 28  1  0  0  0  0
M  END
>  <minimizedAffinity>
-5.68307066

$$$$

 OpenBabel03242520133D

 29 30  0  0  0  0  0  0  0  0999 V2000
   39.9040   30.3350   41.9990 C   0  0  0  0  0  0  0  0  0  0  0  0
   41.1080   29.7350   42.1460 C   0  0  0  0  0  0  0  0  0  0  0  0
   41.1620   28.5270   42.8120 C   0  0  0  0  0  0  0  0  0  0  0  0
   40.0130   27.9420   43.3170 C   0  0  0  0  0  0  0  0  0  0  0  0
   38.7870   28.6000   43.1430 C   0  0  0  0  0  0  0  0  0  0  0  0
   38.7720   29.7450   42.5060 N   0  0  0  0  0  0  0  0  0  0  0  0
   41.9830   30.2260   41.7340 H   0  0  0  0  0  0  0  0  0  0  0  0
   42.1190   28.0480   42.9280 H   0  0  0  0  0  0  0  0  0  0  0  0
   40.0270   26.9960   43.8430 H   0  0  0  0  0  0  0  0  0  0  0  0
   38.2770   33.1300   40.3190 C   0  0  0  0  0  0  0  0  0  0  0  0
   39.3750   33.9820   40.0560 C   0  0  0  0  0  0  0  0  0  0  0  0
   40.6680   33.6040   40.4490 C   0  0  0  0  0  0  0  0  0  0  0  0
   40.7290   32.4220   41.0620 N   0  0  0  0  0  0  0  0  0  0  0  0
   39.7080   31.6190   41.3120 C   0  0  0  0  0  0  0  0  0  0  0  0
   38.4890   31.9770   40.9390 N   0  0  0  0  0  0  0  0  0  0  0  0
   36.9810   33.5620   39.8920 N   0  0  0  0  0  0  0  0  0  0  0  0
   39.2020   34.9220   39.5490 H   0  0  0  0  0  0  0  0  0  0  0  0
   41.5160   34.2300   40.2620 H   0  0  0  0  0  0  0  0  0  0  0  0
   36.3380   33.4870   40.7200 H   0  0  0  0  0  0  0  0  0  0  0  0
   36.7330   33.8930   38.9190 H   0  0  0  0  0  0  0  0  0  0  0  0
   37.5470   28.0250   43.6570 C   0  0  0  0  0  3  0  0  0  0  0  0
   36.8270   27.1390   42.9700 C   0  0  0  0  0  3  0  0  0  0  0  0
   37.2180   26.6620   41.6290 C   0  0  0  0  0  0  0  0  0  0  0  0
   38.3070   26.9020   41.4860 H   0  0  0  0  0  0  0  0  0  0  0  0
   37.1310   25.5680   41.5540 H   0  0  0  0  0  0  0  0  0  0  0  0
   36.4860   27.3800   40.5500 C   0  0  0  0  0  3  0  0  0  0  0  0
   35.7850   28.5170   40.7320 C   0  0  0  0  0  3  0  0  0  0  0  0
   34.9930   29.3910   39.8270 C   0  0  0  0  0  2  0  0  0  0  0  0
   35.2420   29.1860   38.7590 H   0  0  0  0  0  0  0  0  0  0  0  0
  1  2  2  0  0  0  0
  1  6  1  0  0  0  0
  2  3  1  0  0  0  0
  3  8  1  0  0  0  0
  3  4  2  0  0  0  0
  4  9  1  0  0  0  0
  5  4  1  0  0  0  0
  5 21  1  0  0  0  0
  6  5  2  0  0  0  0
  7  2  1  0  0  0  0
 10 15  1  0  0  0  0
 11 10  2  0  0  0  0
 11 12  1  0  0  0  0
 12 13  2  0  0  0  0
 13 14  1  0  0  0  0
 14  1  1  0  0  0  0
 15 14  2  0  0  0  0
 16 10  1  0  0  0  0
 16 19  1  0  0  0  0
 17 11  1  0  0  0  0
 18 12  1  0  0  0  0
 20 16  1  0  0  0  0
 22 21  2  0  0  0  0
 23 22  1  0  0  0  0
 24 23  1  0  0  0  0
 25 23  1  0  0  0  0
 26 27  2  0  0  0  0
 26 23  1  0  0  0  0
 28 27  1  0  0  0  0
 29 28  1  0  0  0  0
M  END
>  <minimizedAffinity>
-5.66295242

$$$$

 OpenBabel03242520133D

 29 30  0  0  0  0  0  0  0  0999 V2000
   37.6860   30.4580   40.4170 C   0  0  0  0  0  0  0  0  0  0  0  0
   36.6040   30.0820   39.6970 C   0  0  0  0  0  0  0  0  0  0  0  0
   35.7530   29.1380   40.2360 C   0  0  0  0  0  0  0  0  0  0  0  0
   35.9990   28.5890   41.4830 C   0  0  0  0  0  0  0  0  0  0  0  0
   37.1340   29.0070   42.1940 C   0  0  0  0  0  0  0  0  0  0  0  0
   37.9190   29.9050   41.6530 N   0  0  0  0  0  0  0  0  0  0  0  0
   36.4470   30.5380   38.7260 H   0  0  0  0  0  0  0  0  0  0  0  0
   34.8910   28.8390   39.6650 H   0  0  0  0  0  0  0  0  0  0  0  0
   35.3490   27.8480   41.9280 H   0  0  0  0  0  0  0  0  0  0  0  0
   39.9040   32.3590   38.2380 C   0  0  0  0  0  0  0  0  0  0  0  0
   40.4680   33.2860   39.1450 C   0  0  0  0  0  0  0  0  0  0  0  0
   40.0940   33.2640   40.4980 C   0  0  0  0  0  0  0  0  0  0  0  0
   39.2010   32.3220   40.8020 N   0  0  0  0  0  0  0  0  0  0  0  0
   38.6680   31.4510   39.9610 C   0  0  0  0  0  0  0  0  0  0  0  0
   39.0230   31.4740   38.6840 N   0  0  0  0  0  0  0  0  0  0  0  0
   40.3240   32.4240   36.8720 N   0  0  0  0  0  0  0  0  0  0  0  0
   41.1870   34.0080   38.7820 H   0  0  0  0  0  0  0  0  0  0  0  0
   40.5060   33.9540   41.2050 H   0  0  0  0  0  0  0  0  0  0  0  0
   39.4560   32.4660   36.2800 H   0  0  0  0  0  0  0  0  0  0  0  0
   41.3270   32.4290   36.5370 H   0  0  0  0  0  0  0  0  0  0  0  0
   37.4370   28.4580   43.5120 C   0  0  0  0  0  3  0  0  0  0  0  0
   38.1040   27.3180   43.6800 C   0  0  0  0  0  3  0  0  0  0  0  0
   38.5940   26.5080   42.5470 C   0  0  0  0  0  0  0  0  0  0  0  0
   38.5590   27.1520   41.6260 H   0  0  0  0  0  0  0  0  0  0  0  0
   39.6490   26.2260   42.6850 H   0  0  0  0  0  0  0  0  0  0  0  0
   37.7100   25.3410   42.2770 C   0  0  0  0  0  3  0  0  0  0  0  0
   37.1630   25.0630   41.0770 C   0  0  0  0  0  3  0  0  0  0  0  0
   36.2710   23.9820   40.5820 C   0  0  0  0  0  2  0  0  0  0  0  0
   36.2650   23.1170   41.2860 H   0  0  0  0  0  0  0  0  0  0  0  0
  1  6  1  0  0  0  0
  2  3  1  0  0  0  0
  2  1  2  0  0  0  0
  3  4  2  0  0  0  0
  4  9  1  0  0  0  0
  4  5  1  0  0  0  0
  5 21  1  0  0  0  0
  6  5  2  0  0  0  0
  7  2  1  0  0  0  0
  8  3  1  0  0  0  0
 10 15  2  0  0  0  0
 10 11  1  0  0  0  0
 11 12  2  0  0  0  0
 12 13  1  0  0  0  0
 12 18  1  0  0  0  0
 14  1  1  0  0  0  0
 14 13  2  0  0  0  0
 15 14  1  0  0  0  0
 16 10  1  0  0  0  0
 17 11  1  0  0  0  0
 19 16  1  0  0  0  0
 20 16  1  0  0  0  0
 21 22  2  0  0  0  0
 23 25  1  0  0  0  0
 23 22  1  0  0  0  0
 24 23  1  0  0  0  0
 26 23  1  0  0  0  0
 27 26  2  0  0  0  0
 28 27  1  0  0  0  0
 28 29  1  0  0  0  0
M  END
>  <minimizedAffinity>
-5.47625875

$$$$

 OpenBabel03242520133D

 29 30  0  0  0  0  0  0  0  0999 V2000
   37.8380   29.0080   41.4490 C   0  0  0  0  0  0  0  0  0  0  0  0
   37.4580   29.2640   42.7220 C   0  0  0  0  0  0  0  0  0  0  0  0
   37.6810   28.2950   43.6800 C   0  0  0  0  0  0  0  0  0  0  0  0
   38.2790   27.0910   43.3470 C   0  0  0  0  0  0  0  0  0  0  0  0
   38.6550   26.8690   42.0150 C   0  0  0  0  0  0  0  0  0  0  0  0
   38.4290   27.8100   41.1320 N   0  0  0  0  0  0  0  0  0  0  0  0
   36.9940   30.2190   42.9400 H   0  0  0  0  0  0  0  0  0  0  0  0
   37.3790   28.4970   44.6940 H   0  0  0  0  0  0  0  0  0  0  0  0
   38.4640   26.3150   44.0780 H   0  0  0  0  0  0  0  0  0  0  0  0
   37.2160   32.1000   39.6210 C   0  0  0  0  0  0  0  0  0  0  0  0
   37.3400   31.6670   38.2800 C   0  0  0  0  0  0  0  0  0  0  0  0
   37.6340   30.3240   37.9980 C   0  0  0  0  0  0  0  0  0  0  0  0
   37.7730   29.5570   39.0800 N   0  0  0  0  0  0  0  0  0  0  0  0
   37.6590   29.9520   40.3370 C   0  0  0  0  0  0  0  0  0  0  0  0
   37.3810   31.2210   40.6000 N   0  0  0  0  0  0  0  0  0  0  0  0
   36.9110   33.4780   39.8510 N   0  0  0  0  0  0  0  0  0  0  0  0
   37.2050   32.3840   37.4810 H   0  0  0  0  0  0  0  0  0  0  0  0
   37.7330   29.9710   36.9930 H   0  0  0  0  0  0  0  0  0  0  0  0
   37.6200   33.8460   40.5350 H   0  0  0  0  0  0  0  0  0  0  0  0
   36.1150   34.0140   39.4060 H   0  0  0  0  0  0  0  0  0  0  0  0
   39.2890   25.6160   41.6130 C   0  0  0  0  0  3  0  0  0  0  0  0
   38.5990   24.4970   41.4020 C   0  0  0  0  0  3  0  0  0  0  0  0
   37.1330   24.4240   41.5550 C   0  0  0  0  0  0  0  0  0  0  0  0
   36.8930   23.4690   42.0980 H   0  0  0  0  0  0  0  0  0  0  0  0
   36.7570   25.2410   42.1900 H   0  0  0  0  0  0  0  0  0  0  0  0
   36.4410   24.3420   40.2400 C   0  0  0  0  0  3  0  0  0  0  0  0
   36.3230   25.3710   39.3770 C   0  0  0  0  0  3  0  0  0  0  0  0
   35.6920   25.5210   38.0390 C   0  0  0  0  0  2  0  0  0  0  0  0
   35.5030   24.5250   37.5740 H   0  0  0  0  0  0  0  0  0  0  0  0
  1  2  1  0  0  0  0
  2  7  1  0  0  0  0
  2  3  2  0  0  0  0
  3  8  1  0  0  0  0
  4  3  1  0  0  0  0
  4  9  1  0  0  0  0
  5  4  2  0  0  0  0
  6  1  2  0  0  0  0
  6  5  1  0  0  0  0
 10 16  1  0  0  0  0
 10 15  1  0  0  0  0
 11 10  2  0  0  0  0
 12 11  1  0  0  0  0
 12 13  2  0  0  0  0
 13 14  1  0  0  0  0
 14 15  2  0  0  0  0
 14  1  1  0  0  0  0
 16 19  1  0  0  0  0
 17 11  1  0  0  0  0
 18 12  1  0  0  0  0
 20 16  1  0  0  0  0
 21  5  1  0  0  0  0
 22 23  1  0  0  0  0
 22 21  2  0  0  0  0
 23 24  1  0  0  0  0
 23 25  1  0  0  0  0
 26 23  1  0  0  0  0
 27 26  2  0  0  0  0
 28 27  1  0  0  0  0
 29 28  1  0  0  0  0
M  END
>  <minimizedAffinity>
-5.23460627

$$$$

 OpenBabel03242520133D

 29 30  0  0  0  0  0  0  0  0999 V2000
   37.5950   30.5600   40.3690 C   0  0  0  0  0  0  0  0  0  0  0  0
   36.4700   30.2700   39.6740 C   0  0  0  0  0  0  0  0  0  0  0  0
   35.6050   29.3270   40.1920 C   0  0  0  0  0  0  0  0  0  0  0  0
   35.8790   28.6930   41.3920 C   0  0  0  0  0  0  0  0  0  0  0  0
   37.0570   29.0240   42.0770 C   0  0  0  0  0  0  0  0  0  0  0  0
   37.8560   29.9230   41.5570 N   0  0  0  0  0  0  0  0  0  0  0  0
   36.2930   30.7900   38.7390 H   0  0  0  0  0  0  0  0  0  0  0  0
   34.7090   29.0970   39.6410 H   0  0  0  0  0  0  0  0  0  0  0  0
   35.2180   27.9510   41.8190 H   0  0  0  0  0  0  0  0  0  0  0  0
   39.9140   32.4010   38.2440 C   0  0  0  0  0  0  0  0  0  0  0  0
   40.4320   33.3560   39.1490 C   0  0  0  0  0  0  0  0  0  0  0  0
   39.9930   33.3730   40.4820 C   0  0  0  0  0  0  0  0  0  0  0  0
   39.0870   32.4380   40.7700 N   0  0  0  0  0  0  0  0  0  0  0  0
   38.5960   31.5410   39.9300 C   0  0  0  0  0  0  0  0  0  0  0  0
   39.0130   31.5270   38.6730 N   0  0  0  0  0  0  0  0  0  0  0  0
   40.4000   32.4270   36.8980 N   0  0  0  0  0  0  0  0  0  0  0  0
   41.1670   34.0680   38.8000 H   0  0  0  0  0  0  0  0  0  0  0  0
   40.3690   34.0850   41.1880 H   0  0  0  0  0  0  0  0  0  0  0  0
   39.5610   32.4490   36.2630 H   0  0  0  0  0  0  0  0  0  0  0  0
   41.4170   32.4240   36.6120 H   0  0  0  0  0  0  0  0  0  0  0  0
   37.3920   28.3840   43.3460 C   0  0  0  0  0  3  0  0  0  0  0  0
   38.0260   27.2150   43.4160 C   0  0  0  0  0  3  0  0  0  0  0  0
   38.4450   26.4630   42.2170 C   0  0  0  0  0  0  0  0  0  0  0  0
   37.7520   25.5840   42.1050 H   0  0  0  0  0  0  0  0  0  0  0  0
   38.3250   27.0670   41.3050 H   0  0  0  0  0  0  0  0  0  0  0  0
   39.8150   25.9000   42.3670 C   0  0  0  0  0  3  0  0  0  0  0  0
   40.6830   26.2570   43.3330 C   0  0  0  0  0  3  0  0  0  0  0  0
   42.0690   25.8410   43.6730 C   0  0  0  0  0  2  0  0  0  0  0  0
   42.3290   24.8780   43.1730 H   0  0  0  0  0  0  0  0  0  0  0  0
  1  6  1  0  0  0  0
  2  3  1  0  0  0  0
  2  1  2  0  0  0  0
  3  4  2  0  0  0  0
  4  9  1  0  0  0  0
  4  5  1  0  0  0  0
  5 21  1  0  0  0  0
  6  5  2  0  0  0  0
  7  2  1  0  0  0  0
  8  3  1  0  0  0  0
 10 15  2  0  0  0  0
 10 11  1  0  0  0  0
 11 12  2  0  0  0  0
 12 13  1  0  0  0  0
 12 18  1  0  0  0  0
 14  1  1  0  0  0  0
 14 13  2  0  0  0  0
 15 14  1  0  0  0  0
 16 10  1  0  0  0  0
 17 11  1  0  0  0  0
 19 16  1  0  0  0  0
 20 16  1  0  0  0  0
 21 22  2  0  0  0  0
 23 26  1  0  0  0  0
 23 22  1  0  0  0  0
 24 23  1  0  0  0  0
 25 23  1  0  0  0  0
 26 27  2  0  0  0  0
 27 28  1  0  0  0  0
 29 28  1  0  0  0  0
M  END
>  <minimizedAffinity>
-5.16492701

$$$$

 OpenBabel03242520133D

 29 30  0  0  0  0  0  0  0  0999 V2000
   37.8320   30.6430   40.1770 C   0  0  0  0  0  0  0  0  0  0  0  0
   36.7200   30.3430   39.4650 C   0  0  0  0  0  0  0  0  0  0  0  0
   35.7960   29.4840   40.0240 C   0  0  0  0  0  0  0  0  0  0  0  0
   35.9970   28.9430   41.2830 C   0  0  0  0  0  0  0  0  0  0  0  0
   37.1640   29.2820   41.9840 C   0  0  0  0  0  0  0  0  0  0  0  0
   38.0200   30.0990   41.4240 N   0  0  0  0  0  0  0  0  0  0  0  0
   36.6010   30.7880   38.4830 H   0  0  0  0  0  0  0  0  0  0  0  0
   34.9100   29.2450   39.4590 H   0  0  0  0  0  0  0  0  0  0  0  0
   35.2880   28.2690   41.7440 H   0  0  0  0  0  0  0  0  0  0  0  0
   40.3830   33.2450   40.1360 C   0  0  0  0  0  0  0  0  0  0  0  0
   40.8370   33.1780   38.7980 C   0  0  0  0  0  0  0  0  0  0  0  0
   40.2740   32.2480   37.9100 C   0  0  0  0  0  0  0  0  0  0  0  0
   39.3220   31.4860   38.4490 N   0  0  0  0  0  0  0  0  0  0  0  0
   38.8910   31.5410   39.6990 C   0  0  0  0  0  0  0  0  0  0  0  0
   39.4240   32.4210   40.5340 N   0  0  0  0  0  0  0  0  0  0  0  0
   40.9890   34.2140   40.9970 N   0  0  0  0  0  0  0  0  0  0  0  0
   41.6190   33.8500   38.4730 H   0  0  0  0  0  0  0  0  0  0  0  0
   40.5990   32.1760   36.8930 H   0  0  0  0  0  0  0  0  0  0  0  0
   41.2990   33.7100   41.8660 H   0  0  0  0  0  0  0  0  0  0  0  0
   41.0970   35.2440   40.7830 H   0  0  0  0  0  0  0  0  0  0  0  0
   37.4230   28.7380   43.3140 C   0  0  0  0  0  3  0  0  0  0  0  0
   37.9780   27.5430   43.5070 C   0  0  0  0  0  3  0  0  0  0  0  0
   38.3790   26.6620   42.3920 C   0  0  0  0  0  0  0  0  0  0  0  0
   38.3700   27.2770   41.4510 H   0  0  0  0  0  0  0  0  0  0  0  0
   39.4130   26.3070   42.5170 H   0  0  0  0  0  0  0  0  0  0  0  0
   37.4050   25.5570   42.1800 C   0  0  0  0  0  3  0  0  0  0  0  0
   37.1140   25.0190   40.9800 C   0  0  0  0  0  3  0  0  0  0  0  0
   36.1980   23.9350   40.5360 C   0  0  0  0  0  2  0  0  0  0  0  0
   35.8870   23.2990   41.3970 H   0  0  0  0  0  0  0  0  0  0  0  0
  1  6  1  0  0  0  0
  2  3  1  0  0  0  0
  2  1  2  0  0  0  0
  3  4  2  0  0  0  0
  4  9  1  0  0  0  0
  4  5  1  0  0  0  0
  5 21  1  0  0  0  0
  6  5  2  0  0  0  0
  7  2  1  0  0  0  0
  8  3  1  0  0  0  0
 10 15  1  0  0  0  0
 10 16  1  0  0  0  0
 11 10  2  0  0  0  0
 12 13  2  0  0  0  0
 12 11  1  0  0  0  0
 13 14  1  0  0  0  0
 14  1  1  0  0  0  0
 14 15  2  0  0  0  0
 16 19  1  0  0  0  0
 17 11  1  0  0  0  0
 18 12  1  0  0  0  0
 20 16  1  0  0  0  0
 21 22  2  0  0  0  0
 23 25  1  0  0  0  0
 23 22  1  0  0  0  0
 24 23  1  0  0  0  0
 26 23  1  0  0  0  0
 27 26  2  0  0  0  0
 28 27  1  0  0  0  0
 28 29  1  0  0  0  0
M  END
>  <minimizedAffinity>
-5.12944555

$$$$

 OpenBabel03242520133D

 29 30  0  0  0  0  0  0  0  0999 V2000
   37.4870   31.2880   38.9920 C   0  0  0  0  0  0  0  0  0  0  0  0
   37.1100   32.5810   39.1300 C   0  0  0  0  0  0  0  0  0  0  0  0
   37.8010   33.3730   40.0240 C   0  0  0  0  0  0  0  0  0  0  0  0
   38.8540   32.8600   40.7620 C   0  0  0  0  0  0  0  0  0  0  0  0
   39.2090   31.5150   40.5870 C   0  0  0  0  0  0  0  0  0  0  0  0
   38.5320   30.7910   39.7300 N   0  0  0  0  0  0  0  0  0  0  0  0
   36.2800   32.9430   38.5320 H   0  0  0  0  0  0  0  0  0  0  0  0
   37.5020   34.4020   40.1340 H   0  0  0  0  0  0  0  0  0  0  0  0
   39.4120   33.4590   41.4700 H   0  0  0  0  0  0  0  0  0  0  0  0
   36.8810   29.1650   36.0910 C   0  0  0  0  0  0  0  0  0  0  0  0
   35.6270   28.5960   36.4130 C   0  0  0  0  0  0  0  0  0  0  0  0
   34.9870   28.9350   37.6150 C   0  0  0  0  0  0  0  0  0  0  0  0
   35.6640   29.8030   38.3670 N   0  0  0  0  0  0  0  0  0  0  0  0
   36.8370   30.3400   38.0760 C   0  0  0  0  0  0  0  0  0  0  0  0
   37.4380   30.0190   36.9390 N   0  0  0  0  0  0  0  0  0  0  0  0
   37.4860   28.7880   34.8510 N   0  0  0  0  0  0  0  0  0  0  0  0
   35.1720   27.9000   35.7210 H   0  0  0  0  0  0  0  0  0  0  0  0
   34.0380   28.5190   37.8820 H   0  0  0  0  0  0  0  0  0  0  0  0
   38.4680   28.4790   35.0630 H   0  0  0  0  0  0  0  0  0  0  0  0
   37.0170   28.8200   33.9040 H   0  0  0  0  0  0  0  0  0  0  0  0
   40.3120   30.9260   41.3420 C   0  0  0  0  0  3  0  0  0  0  0  0
   40.1210   30.1350   42.3960 C   0  0  0  0  0  3  0  0  0  0  0  0
   38.7770   29.7840   42.8950 C   0  0  0  0  0  0  0  0  0  0  0  0
   38.6450   30.2780   43.8960 H   0  0  0  0  0  0  0  0  0  0  0  0
   37.9900   30.1940   42.2430 H   0  0  0  0  0  0  0  0  0  0  0  0
   38.6370   28.3210   43.1280 C   0  0  0  0  0  3  0  0  0  0  0  0
   39.6620   27.4940   43.4130 C   0  0  0  0  0  3  0  0  0  0  0  0
   39.7600   26.0350   43.6790 C   0  0  0  0  0  2  0  0  0  0  0  0
   38.7600   25.6070   43.9250 H   0  0  0  0  0  0  0  0  0  0  0  0
  1  2  2  0  0  0  0
  1  6  1  0  0  0  0
  2  3  1  0  0  0  0
  3  8  1  0  0  0  0
  3  4  2  0  0  0  0
  4  9  1  0  0  0  0
  5  4  1  0  0  0  0
  5 21  1  0  0  0  0
  6  5  2  0  0  0  0
  7  2  1  0  0  0  0
 10 11  2  0  0  0  0
 10 15  1  0  0  0  0
 11 12  1  0  0  0  0
 12 18  1  0  0  0  0
 12 13  2  0  0  0  0
 14 13  1  0  0  0  0
 14  1  1  0  0  0  0
 15 14  2  0  0  0  0
 16 19  1  0  0  0  0
 16 10  1  0  0  0  0
 17 11  1  0  0  0  0
 20 16  1  0  0  0  0
 21 22  2  0  0  0  0
 22 23  1  0  0  0  0
 23 26  1  0  0  0  0
 23 24  1  0  0  0  0
 25 23  1  0  0  0  0
 26 27  2  0  0  0  0
 27 28  1  0  0  0  0
 28 29  1  0  0  0  0
M  END
>  <minimizedAffinity>
-5.06196737

$$$$

 OpenBabel03242520133D

 29 30  0  0  0  0  0  0  0  0999 V2000
   37.5800   29.9460   41.4020 C   0  0  0  0  0  0  0  0  0  0  0  0
   36.3760   29.4610   41.0170 C   0  0  0  0  0  0  0  0  0  0  0  0
   35.9720   28.2390   41.5170 C   0  0  0  0  0  0  0  0  0  0  0  0
   36.7750   27.5270   42.3910 C   0  0  0  0  0  0  0  0  0  0  0  0
   38.0150   28.0670   42.7610 C   0  0  0  0  0  0  0  0  0  0  0  0
   38.3680   29.2290   42.2680 N   0  0  0  0  0  0  0  0  0  0  0  0
   35.7780   30.0510   40.3320 H   0  0  0  0  0  0  0  0  0  0  0  0
   35.0140   27.8530   41.2120 H   0  0  0  0  0  0  0  0  0  0  0  0
   36.4820   26.5680   42.7960 H   0  0  0  0  0  0  0  0  0  0  0  0
   37.7940   33.2630   39.9090 C   0  0  0  0  0  0  0  0  0  0  0  0
   39.1550   33.5840   40.1210 C   0  0  0  0  0  0  0  0  0  0  0  0
   40.0000   32.6700   40.7710 C   0  0  0  0  0  0  0  0  0  0  0  0
   39.3990   31.5390   41.1400 N   0  0  0  0  0  0  0  0  0  0  0  0
   38.1280   31.2300   40.9460 C   0  0  0  0  0  0  0  0  0  0  0  0
   37.3330   32.0940   40.3310 N   0  0  0  0  0  0  0  0  0  0  0  0
   36.9800   34.2290   39.2370 N   0  0  0  0  0  0  0  0  0  0  0  0
   39.5320   34.5370   39.7760 H   0  0  0  0  0  0  0  0  0  0  0  0
   41.0340   32.8880   40.9450 H   0  0  0  0  0  0  0  0  0  0  0  0
   36.1250   34.3840   39.8300 H   0  0  0  0  0  0  0  0  0  0  0  0
   37.2100   34.6920   38.3150 H   0  0  0  0  0  0  0  0  0  0  0  0
   38.8990   27.3550   43.6800 C   0  0  0  0  0  3  0  0  0  0  0  0
   39.6480   26.3210   43.3000 C   0  0  0  0  0  3  0  0  0  0  0  0
   39.6500   25.8040   41.9170 C   0  0  0  0  0  0  0  0  0  0  0  0
   39.0860   24.8310   41.9160 H   0  0  0  0  0  0  0  0  0  0  0  0
   39.1040   26.4770   41.2390 H   0  0  0  0  0  0  0  0  0  0  0  0
   41.0260   25.4900   41.4440 C   0  0  0  0  0  3  0  0  0  0  0  0
   42.1520   25.9630   42.0130 C   0  0  0  0  0  3  0  0  0  0  0  0
   43.6000   25.7900   41.7220 C   0  0  0  0  0  2  0  0  0  0  0  0
   43.7700   24.9080   41.0610 H   0  0  0  0  0  0  0  0  0  0  0  0
  1  6  1  0  0  0  0
  2  1  2  0  0  0  0
  2  3  1  0  0  0  0
  3  4  2  0  0  0  0
  4  5  1  0  0  0  0
  4  9  1  0  0  0  0
  5 21  1  0  0  0  0
  6  5  2  0  0  0  0
  7  2  1  0  0  0  0
  8  3  1  0  0  0  0
 10 11  2  0  0  0  0
 10 15  1  0  0  0  0
 11 12  1  0  0  0  0
 12 18  1  0  0  0  0
 12 13  2  0  0  0  0
 14 13  1  0  0  0  0
 14  1  1  0  0  0  0
 15 14  2  0  0  0  0
 16 19  1  0  0  0  0
 16 10  1  0  0  0  0
 17 11  1  0  0  0  0
 20 16  1  0  0  0  0
 22 21  2  0  0  0  0
 23 22  1  0  0  0  0
 24 23  1  0  0  0  0
 25 23  1  0  0  0  0
 26 23  1  0  0  0  0
 26 27  2  0  0  0  0
 28 27  1  0  0  0  0
 29 28  1  0  0  0  0
M  END
>  <minimizedAffinity>
-5.05288792

$$$$

 OpenBabel03242520133D

 29 30  0  0  0  0  0  0  0  0999 V2000
   37.4410   29.0420   41.4320 C   0  0  0  0  0  0  0  0  0  0  0  0
   37.6720   29.3980   42.7170 C   0  0  0  0  0  0  0  0  0  0  0  0
   37.6810   28.4080   43.6790 C   0  0  0  0  0  0  0  0  0  0  0  0
   37.4600   27.0840   43.3400 C   0  0  0  0  0  0  0  0  0  0  0  0
   37.2230   26.7620   41.9960 C   0  0  0  0  0  0  0  0  0  0  0  0
   37.2230   27.7260   41.1080 N   0  0  0  0  0  0  0  0  0  0  0  0
   37.8420   30.4460   42.9400 H   0  0  0  0  0  0  0  0  0  0  0  0
   37.8660   28.6900   44.7020 H   0  0  0  0  0  0  0  0  0  0  0  0
   37.4610   26.2900   44.0750 H   0  0  0  0  0  0  0  0  0  0  0  0
   37.1550   32.1650   39.5750 C   0  0  0  0  0  0  0  0  0  0  0  0
   37.3500   31.7240   38.2450 C   0  0  0  0  0  0  0  0  0  0  0  0
   37.5790   30.3640   37.9810 C   0  0  0  0  0  0  0  0  0  0  0  0
   37.5880   29.5920   39.0670 N   0  0  0  0  0  0  0  0  0  0  0  0
   37.4060   29.9940   40.3140 C   0  0  0  0  0  0  0  0  0  0  0  0
   37.1900   31.2780   40.5600 N   0  0  0  0  0  0  0  0  0  0  0  0
   36.9220   33.5600   39.7860 N   0  0  0  0  0  0  0  0  0  0  0  0
   37.3210   32.4470   37.4410 H   0  0  0  0  0  0  0  0  0  0  0  0
   37.7290   30.0040   36.9840 H   0  0  0  0  0  0  0  0  0  0  0  0
   37.6000   33.8830   40.5220 H   0  0  0  0  0  0  0  0  0  0  0  0
   36.1970   34.1460   39.2850 H   0  0  0  0  0  0  0  0  0  0  0  0
   36.9850   25.3810   41.5870 C   0  0  0  0  0  3  0  0  0  0  0  0
   37.9710   24.5050   41.4020 C   0  0  0  0  0  3  0  0  0  0  0  0
   39.3930   24.8540   41.5940 C   0  0  0  0  0  0  0  0  0  0  0  0
   39.4320   25.8260   42.1580 H   0  0  0  0  0  0  0  0  0  0  0  0
   39.9040   24.1110   42.2250 H   0  0  0  0  0  0  0  0  0  0  0  0
   40.0840   25.0940   40.2980 C   0  0  0  0  0  3  0  0  0  0  0  0
   40.5780   26.2860   39.9080 C   0  0  0  0  0  3  0  0  0  0  0  0
   41.2900   26.7530   38.6890 C   0  0  0  0  0  2  0  0  0  0  0  0
   41.6990   25.8900   38.1130 H   0  0  0  0  0  0  0  0  0  0  0  0
  1  2  1  0  0  0  0
  2  7  1  0  0  0  0
  2  3  2  0  0  0  0
  3  8  1  0  0  0  0
  4  3  1  0  0  0  0
  4  9  1  0  0  0  0
  5  4  2  0  0  0  0
  6  1  2  0  0  0  0
  6  5  1  0  0  0  0
 10 16  1  0  0  0  0
 10 15  1  0  0  0  0
 11 10  2  0  0  0  0
 12 11  1  0  0  0  0
 12 13  2  0  0  0  0
 13 14  1  0  0  0  0
 14 15  2  0  0  0  0
 14  1  1  0  0  0  0
 16 19  1  0  0  0  0
 17 11  1  0  0  0  0
 18 12  1  0  0  0  0
 20 16  1  0  0  0  0
 21  5  1  0  0  0  0
 22 21  2  0  0  0  0
 22 23  1  0  0  0  0
 23 24  1  0  0  0  0
 23 25  1  0  0  0  0
 26 23  1  0  0  0  0
 27 26  2  0  0  0  0
 28 27  1  0  0  0  0
 29 28  1  0  0  0  0
M  END
>  <minimizedAffinity>
-4.98453426

$$$$
