
 OpenBabel03242523423D

 19 19  0  0  1  0  0  0  0  0999 V2000
   45.8060   35.3560   42.5580 C   0  0  1  0  0  0  0  0  0  0  0  0
   46.2730   36.3530   42.6610 H   0  0  0  0  0  0  0  0  0  0  0  0
   44.9500   35.0360   44.8350 C   0  0  0  0  0  0  0  0  0  0  0  0
   45.8560   34.6720   43.8190 C   0  0  0  0  0  0  0  0  0  0  0  0
   46.7500   33.6410   44.0930 C   0  0  0  0  0  0  0  0  0  0  0  0
   46.7050   33.0380   45.3220 N   0  0  0  0  0  0  0  0  0  0  0  0
   45.8220   33.4150   46.2670 C   0  0  0  0  0  0  0  0  0  0  0  0
   44.9340   34.4190   46.0350 N   0  0  0  0  0  0  0  0  0  0  0  0
   44.2160   35.8230   44.7270 H   0  0  0  0  0  0  0  0  0  0  0  0
   47.4590   33.3280   43.3520 H   0  0  0  0  0  0  0  0  0  0  0  0
   45.7860   32.9350   47.2420 H   0  0  0  0  0  0  0  0  0  0  0  0
   46.5850   34.5750   41.5310 C   0  0  0  0  0  0  0  0  0  0  0  0
   46.1520   33.6050   41.2900 H   0  0  0  0  0  0  0  0  0  0  0  0
   46.5210   35.1740   40.5760 H   0  0  0  0  0  0  0  0  0  0  0  0
   47.6570   34.5530   41.7840 H   0  0  0  0  0  0  0  0  0  0  0  0
   44.4030   35.5510   42.0590 C   0  0  0  0  0  3  0  0  0  0  0  0
   43.8750   35.0060   40.9660 C   0  0  0  0  0  3  0  0  0  0  0  0
   42.4890   35.2220   40.5070 C   0  0  0  0  0  2  0  0  0  0  0  0
   42.4970   35.3600   39.4140 H   0  0  0  0  0  0  0  0  0  0  0  0
  1  2  1  1  0  0  0
  1  4  1  0  0  0  0
  3  8  1  0  0  0  0
  4  5  1  0  0  0  0
  4  3  2  0  0  0  0
  5  6  2  0  0  0  0
  6  7  1  0  0  0  0
  7 11  1  0  0  0  0
  8  7  2  0  0  0  0
  9  3  1  0  0  0  0
 10  5  1  0  0  0  0
 12 15  1  0  0  0  0
 12  1  1  0  0  0  0
 13 12  1  0  0  0  0
 14 12  1  0  0  0  0
 16  1  1  0  0  0  0
 17 16  2  0  0  0  0
 18 17  1  0  0  0  0
 19 18  1  0  0  0  0
M  END
>  <minimizedAffinity>
-3.74724412

>  <minimizedRMSD>
2.05336595

$$$$
