
 OpenBabel03252503443D

 29 30  0  0  1  0  0  0  0  0999 V2000
   44.6620   35.2700   45.4090 C   0  0  0  0  0  0  0  0  0  0  0  0
   45.3560   35.1080   44.1970 C   0  0  0  0  0  0  0  0  0  0  0  0
   46.1630   33.9650   44.0880 C   0  0  0  0  0  0  0  0  0  0  0  0
   46.2270   33.1120   45.1140 N   0  0  0  0  0  0  0  0  0  0  0  0
   45.5480   33.3010   46.2550 C   0  0  0  0  0  0  0  0  0  0  0  0
   44.7600   34.3830   46.4120 N   0  0  0  0  0  0  0  0  0  0  0  0
   44.0190   36.1250   45.5750 H   0  0  0  0  0  0  0  0  0  0  0  0
   46.6730   33.8760   43.1620 H   0  0  0  0  0  0  0  0  0  0  0  0
   47.1670   31.9390   47.5930 C   0  0  2  0  0  0  0  0  0  0  0  0
   45.6880   32.2800   47.2910 C   0  0  1  0  0  0  0  0  0  0  0  0
   45.2540   32.6470   48.5350 O   0  0  0  0  0  0  0  0  0  0  0  0
   45.7450   31.7210   49.4160 C   0  0  0  0  0  0  0  0  0  0  0  0
   46.9020   30.9930   48.7770 C   0  0  2  0  0  0  0  0  0  0  0  0
   47.6480   31.4430   46.7520 H   0  0  0  0  0  0  0  0  0  0  0  0
   45.2170   31.3540   46.9080 H   0  0  0  0  0  0  0  0  0  0  0  0
   46.1430   32.1840   50.3460 H   0  0  0  0  0  0  0  0  0  0  0  0
   44.9360   31.0420   49.7330 H   0  0  0  0  0  0  0  0  0  0  0  0
   46.5360   30.0560   48.3420 H   0  0  0  0  0  0  0  0  0  0  0  0
   47.7630   33.0440   48.1030 O   0  0  0  0  0  0  0  0  0  0  0  0
   47.6890   33.8660   47.5430 H   0  0  0  0  0  0  0  0  0  0  0  0
   48.0030   30.8500   49.5870 O   0  0  0  0  0  0  0  0  0  0  0  0
   47.7030   31.0880   50.5100 H   0  0  0  0  0  0  0  0  0  0  0  0
   45.1460   36.1450   43.1660 C   0  0  0  0  0  0  0  0  0  0  0  0
   44.4260   36.8850   43.5800 H   0  0  0  0  0  0  0  0  0  0  0  0
   46.0880   36.7420   43.0140 H   0  0  0  0  0  0  0  0  0  0  0  0
   44.6620   35.5600   41.8940 C   0  0  0  0  0  3  0  0  0  0  0  0
   43.5270   35.2450   41.3050 C   0  0  0  0  0  3  0  0  0  0  0  0
   42.0910   35.3260   41.6480 C   0  0  0  0  0  2  0  0  0  0  0  0
   41.8630   35.8690   42.5770 H   0  0  0  0  0  0  0  0  0  0  0  0
  1  7  1  0  0  0  0
  1  6  1  0  0  0  0
  2  1  2  0  0  0  0
  3  2  1  0  0  0  0
  3  4  2  0  0  0  0
  4  5  1  0  0  0  0
  5  6  2  0  0  0  0
  5 10  1  0  0  0  0
  8  3  1  0  0  0  0
  9 14  1  6  0  0  0
  9 19  1  0  0  0  0
  9 13  1  0  0  0  0
 10 15  1  6  0  0  0
 10  9  1  0  0  0  0
 10 11  1  0  0  0  0
 11 12  1  0  0  0  0
 12 17  1  0  0  0  0
 12 16  1  0  0  0  0
 13 18  1  6  0  0  0
 13 12  1  0  0  0  0
 13 21  1  0  0  0  0
 20 19  1  0  0  0  0
 21 22  1  0  0  0  0
 23 24  1  0  0  0  0
 23  2  1  0  0  0  0
 25 23  1  0  0  0  0
 26 23  1  0  0  0  0
 27 28  1  0  0  0  0
 27 26  2  0  0  0  0
 28 29  1  0  0  0  0
M  END
>  <minimizedAffinity>
-5.75817776

>  <minimizedRMSD>
0.711895406

$$$$
