
 OpenBabel03242523433D

 19 19  0  0  1  0  0  0  0  0999 V2000
   37.3250   27.5200   42.5400 C   0  0  1  0  0  0  0  0  0  0  0  0
   38.3360   27.6520   42.9660 H   0  0  0  0  0  0  0  0  0  0  0  0
   37.7980   29.8280   41.8550 C   0  0  0  0  0  0  0  0  0  0  0  0
   36.9590   28.6960   41.8030 C   0  0  0  0  0  0  0  0  0  0  0  0
   35.8150   28.7790   41.0140 C   0  0  0  0  0  0  0  0  0  0  0  0
   35.5650   29.9410   40.3350 N   0  0  0  0  0  0  0  0  0  0  0  0
   36.3920   31.0010   40.4100 C   0  0  0  0  0  0  0  0  0  0  0  0
   37.5200   30.9570   41.1710 N   0  0  0  0  0  0  0  0  0  0  0  0
   38.7090   29.8700   42.4370 H   0  0  0  0  0  0  0  0  0  0  0  0
   35.1450   27.9440   40.9440 H   0  0  0  0  0  0  0  0  0  0  0  0
   36.1940   31.9240   39.8690 H   0  0  0  0  0  0  0  0  0  0  0  0
   36.3570   27.3180   43.6770 C   0  0  0  0  0  0  0  0  0  0  0  0
   35.3410   27.0900   43.3590 H   0  0  0  0  0  0  0  0  0  0  0  0
   36.7110   26.3950   44.2220 H   0  0  0  0  0  0  0  0  0  0  0  0
   36.4390   28.1340   44.4130 H   0  0  0  0  0  0  0  0  0  0  0  0
   37.3390   26.2830   41.6880 C   0  0  0  0  0  3  0  0  0  0  0  0
   37.0270   25.0520   42.0870 C   0  0  0  0  0  3  0  0  0  0  0  0
   37.0510   23.8590   41.2180 C   0  0  0  0  0  2  0  0  0  0  0  0
   37.4950   23.0210   41.7820 H   0  0  0  0  0  0  0  0  0  0  0  0
  1  2  1  1  0  0  0
  1 12  1  0  0  0  0
  3  9  1  0  0  0  0
  4  3  1  0  0  0  0
  4  1  1  0  0  0  0
  5  4  2  0  0  0  0
  6  7  2  0  0  0  0
  6  5  1  0  0  0  0
  7  8  1  0  0  0  0
  8  3  2  0  0  0  0
 10  5  1  0  0  0  0
 11  7  1  0  0  0  0
 12 14  1  0  0  0  0
 12 15  1  0  0  0  0
 13 12  1  0  0  0  0
 16 17  2  0  0  0  0
 16  1  1  0  0  0  0
 18 19  1  0  0  0  0
 18 17  1  0  0  0  0
M  END
>  <minimizedAffinity>
-3.89625764

$$$$

 OpenBabel03242523433D

 19 19  0  0  1  0  0  0  0  0999 V2000
   37.8230   28.1620   43.6700 C   0  0  1  0  0  0  0  0  0  0  0  0
   37.7030   28.5630   44.6940 H   0  0  0  0  0  0  0  0  0  0  0  0
   36.9610   29.5980   41.8780 C   0  0  0  0  0  0  0  0  0  0  0  0
   38.0110   29.2480   42.7510 C   0  0  0  0  0  0  0  0  0  0  0  0
   39.1810   29.9990   42.6840 C   0  0  0  0  0  0  0  0  0  0  0  0
   39.2540   31.0280   41.7840 N   0  0  0  0  0  0  0  0  0  0  0  0
   38.2270   31.3330   40.9670 C   0  0  0  0  0  0  0  0  0  0  0  0
   37.0680   30.6210   41.0040 N   0  0  0  0  0  0  0  0  0  0  0  0
   36.0120   29.0810   41.8470 H   0  0  0  0  0  0  0  0  0  0  0  0
   40.0080   29.7700   43.3270 H   0  0  0  0  0  0  0  0  0  0  0  0
   38.2850   32.1510   40.2530 H   0  0  0  0  0  0  0  0  0  0  0  0
   36.5680   27.4100   43.3090 C   0  0  0  0  0  0  0  0  0  0  0  0
   36.6190   26.8990   42.3490 H   0  0  0  0  0  0  0  0  0  0  0  0
   36.4710   26.5880   44.0770 H   0  0  0  0  0  0  0  0  0  0  0  0
   35.6770   28.0410   43.4510 H   0  0  0  0  0  0  0  0  0  0  0  0
   38.9790   27.2040   43.6800 C   0  0  0  0  0  3  0  0  0  0  0  0
   39.0370   26.0370   43.0390 C   0  0  0  0  0  3  0  0  0  0  0  0
   40.1950   25.1220   43.0710 C   0  0  0  0  0  2  0  0  0  0  0  0
   39.8230   24.0890   43.1740 H   0  0  0  0  0  0  0  0  0  0  0  0
  1 16  1  0  0  0  0
  1  2  1  1  0  0  0
  3  4  1  0  0  0  0
  4  1  1  0  0  0  0
  5  4  2  0  0  0  0
  5 10  1  0  0  0  0
  6  5  1  0  0  0  0
  7  8  1  0  0  0  0
  7  6  2  0  0  0  0
  8  3  2  0  0  0  0
  9  3  1  0  0  0  0
 11  7  1  0  0  0  0
 12 15  1  0  0  0  0
 12  1  1  0  0  0  0
 12 14  1  0  0  0  0
 13 12  1  0  0  0  0
 17 18  1  0  0  0  0
 17 16  2  0  0  0  0
 18 19  1  0  0  0  0
M  END
>  <minimizedAffinity>
-3.85273504

$$$$

 OpenBabel03242523433D

 19 19  0  0  1  0  0  0  0  0999 V2000
   37.7770   28.1660   43.6490 C   0  0  1  0  0  0  0  0  0  0  0  0
   37.6280   28.5610   44.6710 H   0  0  0  0  0  0  0  0  0  0  0  0
   39.1730   29.9740   42.7530 C   0  0  0  0  0  0  0  0  0  0  0  0
   37.9580   29.2590   42.7360 C   0  0  0  0  0  0  0  0  0  0  0  0
   36.9960   29.6470   41.8090 C   0  0  0  0  0  0  0  0  0  0  0  0
   37.2730   30.6920   40.9690 N   0  0  0  0  0  0  0  0  0  0  0  0
   38.4470   31.3500   41.0150 C   0  0  0  0  0  0  0  0  0  0  0  0
   39.4120   30.9980   41.9080 N   0  0  0  0  0  0  0  0  0  0  0  0
   39.9850   29.7550   43.4320 H   0  0  0  0  0  0  0  0  0  0  0  0
   36.0550   29.1340   41.7580 H   0  0  0  0  0  0  0  0  0  0  0  0
   38.6680   32.1790   40.3460 H   0  0  0  0  0  0  0  0  0  0  0  0
   36.5460   27.3870   43.2610 C   0  0  0  0  0  0  0  0  0  0  0  0
   36.6270   26.8800   42.3010 H   0  0  0  0  0  0  0  0  0  0  0  0
   36.4530   26.5610   44.0250 H   0  0  0  0  0  0  0  0  0  0  0  0
   35.6390   27.9970   43.3870 H   0  0  0  0  0  0  0  0  0  0  0  0
   38.9540   27.2340   43.6790 C   0  0  0  0  0  3  0  0  0  0  0  0
   39.0400   26.0590   43.0580 C   0  0  0  0  0  3  0  0  0  0  0  0
   40.2170   25.1700   43.1090 C   0  0  0  0  0  2  0  0  0  0  0  0
   39.8680   24.1300   43.2260 H   0  0  0  0  0  0  0  0  0  0  0  0
  1 16  1  0  0  0  0
  1  2  1  1  0  0  0
  3  9  1  0  0  0  0
  4  3  1  0  0  0  0
  4  1  1  0  0  0  0
  5  4  2  0  0  0  0
  6  7  2  0  0  0  0
  6  5  1  0  0  0  0
  7  8  1  0  0  0  0
  8  3  2  0  0  0  0
 10  5  1  0  0  0  0
 11  7  1  0  0  0  0
 12 15  1  0  0  0  0
 12  1  1  0  0  0  0
 12 14  1  0  0  0  0
 13 12  1  0  0  0  0
 17 18  1  0  0  0  0
 17 16  2  0  0  0  0
 18 19  1  0  0  0  0
M  END
>  <minimizedAffinity>
-3.84012294

$$$$

 OpenBabel03242523433D

 19 19  0  0  1  0  0  0  0  0999 V2000
   37.4980   27.6330   42.5010 C   0  0  1  0  0  0  0  0  0  0  0  0
   38.5330   27.6930   42.8830 H   0  0  0  0  0  0  0  0  0  0  0  0
   35.9700   28.9140   41.0710 C   0  0  0  0  0  0  0  0  0  0  0  0
   37.1810   28.8380   41.7880 C   0  0  0  0  0  0  0  0  0  0  0  0
   38.0060   29.9590   41.7780 C   0  0  0  0  0  0  0  0  0  0  0  0
   37.6060   31.0670   41.0820 N   0  0  0  0  0  0  0  0  0  0  0  0
   36.4390   31.1020   40.4100 C   0  0  0  0  0  0  0  0  0  0  0  0
   35.6060   30.0250   40.3960 N   0  0  0  0  0  0  0  0  0  0  0  0
   35.2580   28.1020   41.0130 H   0  0  0  0  0  0  0  0  0  0  0  0
   38.9390   29.9480   42.3080 H   0  0  0  0  0  0  0  0  0  0  0  0
   36.1200   31.9830   39.8580 H   0  0  0  0  0  0  0  0  0  0  0  0
   36.5680   27.4880   43.6780 C   0  0  0  0  0  0  0  0  0  0  0  0
   35.5260   27.3320   43.4040 H   0  0  0  0  0  0  0  0  0  0  0  0
   36.8820   26.5380   44.2020 H   0  0  0  0  0  0  0  0  0  0  0  0
   36.7380   28.2900   44.4140 H   0  0  0  0  0  0  0  0  0  0  0  0
   37.3910   26.4060   41.6420 C   0  0  0  0  0  3  0  0  0  0  0  0
   37.0040   25.1970   42.0460 C   0  0  0  0  0  3  0  0  0  0  0  0
   36.9090   24.0130   41.1700 C   0  0  0  0  0  2  0  0  0  0  0  0
   37.3100   23.1400   41.7120 H   0  0  0  0  0  0  0  0  0  0  0  0
  1  2  1  1  0  0  0
  1 12  1  0  0  0  0
  3  4  1  0  0  0  0
  4  1  1  0  0  0  0
  5  4  2  0  0  0  0
  5 10  1  0  0  0  0
  6  5  1  0  0  0  0
  7  6  2  0  0  0  0
  8  7  1  0  0  0  0
  8  3  2  0  0  0  0
  9  3  1  0  0  0  0
 11  7  1  0  0  0  0
 12 14  1  0  0  0  0
 12 15  1  0  0  0  0
 13 12  1  0  0  0  0
 16 17  2  0  0  0  0
 16  1  1  0  0  0  0
 18 19  1  0  0  0  0
 18 17  1  0  0  0  0
M  END
>  <minimizedAffinity>
-3.81390071

$$$$

 OpenBabel03242523433D

 19 19  0  0  1  0  0  0  0  0999 V2000
   36.5710   29.8070   40.1520 C   0  0  1  0  0  0  0  0  0  0  0  0
   37.2360   29.4940   39.3260 H   0  0  0  0  0  0  0  0  0  0  0  0
   36.3470   28.0260   41.8240 C   0  0  0  0  0  0  0  0  0  0  0  0
   37.0020   29.1900   41.3740 C   0  0  0  0  0  0  0  0  0  0  0  0
   38.0580   29.6720   42.1420 C   0  0  0  0  0  0  0  0  0  0  0  0
   38.4050   28.9990   43.2830 N   0  0  0  0  0  0  0  0  0  0  0  0
   37.7540   27.8890   43.6790 C   0  0  0  0  0  0  0  0  0  0  0  0
   36.7170   27.3880   42.9540 N   0  0  0  0  0  0  0  0  0  0  0  0
   35.5160   27.5700   41.3040 H   0  0  0  0  0  0  0  0  0  0  0  0
   38.5870   30.5550   41.8410 H   0  0  0  0  0  0  0  0  0  0  0  0
   38.0310   27.3540   44.5850 H   0  0  0  0  0  0  0  0  0  0  0  0
   35.1710   29.3530   39.8270 C   0  0  0  0  0  0  0  0  0  0  0  0
   34.4190   29.6900   40.5380 H   0  0  0  0  0  0  0  0  0  0  0  0
   34.9040   29.8570   38.8520 H   0  0  0  0  0  0  0  0  0  0  0  0
   35.1490   28.2740   39.6070 H   0  0  0  0  0  0  0  0  0  0  0  0
   36.5920   31.3070   40.2210 C   0  0  0  0  0  3  0  0  0  0  0  0
   37.2920   32.1190   39.4300 C   0  0  0  0  0  3  0  0  0  0  0  0
   37.2860   33.5920   39.5270 C   0  0  0  0  0  2  0  0  0  0  0  0
   38.3190   33.9570   39.4020 H   0  0  0  0  0  0  0  0  0  0  0  0
  1  2  1  6  0  0  0
  1 16  1  0  0  0  0
  1  4  1  0  0  0  0
  3  8  1  0  0  0  0
  4  3  2  0  0  0  0
  4  5  1  0  0  0  0
  5  6  2  0  0  0  0
  6  7  1  0  0  0  0
  7 11  1  0  0  0  0
  8  7  2  0  0  0  0
  9  3  1  0  0  0  0
 10  5  1  0  0  0  0
 12  1  1  0  0  0  0
 12 13  1  0  0  0  0
 14 12  1  0  0  0  0
 15 12  1  0  0  0  0
 17 18  1  0  0  0  0
 17 16  2  0  0  0  0
 19 18  1  0  0  0  0
M  END
>  <minimizedAffinity>
-3.75742531

$$$$

 OpenBabel03242523433D

 19 19  0  0  1  0  0  0  0  0999 V2000
   36.5980   29.6270   40.2540 C   0  0  1  0  0  0  0  0  0  0  0  0
   37.1450   29.2720   39.3620 H   0  0  0  0  0  0  0  0  0  0  0  0
   37.9910   29.5080   42.2700 C   0  0  0  0  0  0  0  0  0  0  0  0
   37.0490   28.9070   41.4110 C   0  0  0  0  0  0  0  0  0  0  0  0
   36.5900   27.6370   41.7470 C   0  0  0  0  0  0  0  0  0  0  0  0
   37.0690   27.0410   42.8830 N   0  0  0  0  0  0  0  0  0  0  0  0
   37.9690   27.6490   43.6800 C   0  0  0  0  0  0  0  0  0  0  0  0
   38.4410   28.8910   43.3830 N   0  0  0  0  0  0  0  0  0  0  0  0
   38.4120   30.4890   42.1020 H   0  0  0  0  0  0  0  0  0  0  0  0
   35.8740   27.1380   41.1230 H   0  0  0  0  0  0  0  0  0  0  0  0
   38.3490   27.1760   44.5820 H   0  0  0  0  0  0  0  0  0  0  0  0
   35.1290   29.3650   40.0410 C   0  0  0  0  0  0  0  0  0  0  0  0
   34.4890   29.7600   40.8290 H   0  0  0  0  0  0  0  0  0  0  0  0
   34.8460   29.9410   39.1130 H   0  0  0  0  0  0  0  0  0  0  0  0
   34.9520   28.3080   39.7870 H   0  0  0  0  0  0  0  0  0  0  0  0
   36.8150   31.1080   40.3720 C   0  0  0  0  0  3  0  0  0  0  0  0
   37.0540   31.9490   39.3670 C   0  0  0  0  0  3  0  0  0  0  0  0
   37.2620   33.4020   39.5220 C   0  0  0  0  0  2  0  0  0  0  0  0
   38.0920   33.7110   38.8660 H   0  0  0  0  0  0  0  0  0  0  0  0
  1  2  1  6  0  0  0
  1 16  1  0  0  0  0
  1  4  1  0  0  0  0
  3  8  1  0  0  0  0
  4  5  1  0  0  0  0
  4  3  2  0  0  0  0
  5  6  2  0  0  0  0
  6  7  1  0  0  0  0
  7 11  1  0  0  0  0
  8  7  2  0  0  0  0
  9  3  1  0  0  0  0
 10  5  1  0  0  0  0
 12  1  1  0  0  0  0
 12 13  1  0  0  0  0
 14 12  1  0  0  0  0
 15 12  1  0  0  0  0
 17 18  1  0  0  0  0
 17 16  2  0  0  0  0
 19 18  1  0  0  0  0
M  END
>  <minimizedAffinity>
-3.69081616

$$$$

 OpenBabel03242523433D

 19 19  0  0  1  0  0  0  0  0999 V2000
   37.5960   28.6220   43.1450 C   0  0  1  0  0  0  0  0  0  0  0  0
   37.5550   29.4800   43.8410 H   0  0  0  0  0  0  0  0  0  0  0  0
   35.9590   28.6050   41.3170 C   0  0  0  0  0  0  0  0  0  0  0  0
   37.1920   29.0500   41.8360 C   0  0  0  0  0  0  0  0  0  0  0  0
   37.9500   29.9080   41.0440 C   0  0  0  0  0  0  0  0  0  0  0  0
   37.4680   30.2720   39.8160 N   0  0  0  0  0  0  0  0  0  0  0  0
   36.2830   29.8250   39.3560 C   0  0  0  0  0  0  0  0  0  0  0  0
   35.5140   28.9860   40.1010 N   0  0  0  0  0  0  0  0  0  0  0  0
   35.2940   27.9380   41.8480 H   0  0  0  0  0  0  0  0  0  0  0  0
   38.8960   30.2730   41.3950 H   0  0  0  0  0  0  0  0  0  0  0  0
   35.9000   30.1160   38.3810 H   0  0  0  0  0  0  0  0  0  0  0  0
   36.6440   27.5660   43.6440 C   0  0  0  0  0  0  0  0  0  0  0  0
   36.6730   26.6380   43.0740 H   0  0  0  0  0  0  0  0  0  0  0  0
   37.0060   27.2900   44.6770 H   0  0  0  0  0  0  0  0  0  0  0  0
   35.6370   27.9840   43.7950 H   0  0  0  0  0  0  0  0  0  0  0  0
   38.9920   28.0710   43.1700 C   0  0  0  0  0  3  0  0  0  0  0  0
   39.3620   26.8920   43.6680 C   0  0  0  0  0  3  0  0  0  0  0  0
   40.7470   26.3830   43.6730 C   0  0  0  0  0  2  0  0  0  0  0  0
   40.9440   25.9090   44.6490 H   0  0  0  0  0  0  0  0  0  0  0  0
  1 16  1  0  0  0  0
  1 12  1  0  0  0  0
  1  2  1  1  0  0  0
  3  4  1  0  0  0  0
  3  9  1  0  0  0  0
  4  1  1  0  0  0  0
  5 10  1  0  0  0  0
  5  4  2  0  0  0  0
  6  5  1  0  0  0  0
  7  6  2  0  0  0  0
  7  8  1  0  0  0  0
  8  3  2  0  0  0  0
 11  7  1  0  0  0  0
 12 15  1  0  0  0  0
 12 14  1  0  0  0  0
 13 12  1  0  0  0  0
 16 17  2  0  0  0  0
 17 18  1  0  0  0  0
 18 19  1  0  0  0  0
M  END
>  <minimizedAffinity>
-3.57124901

$$$$

 OpenBabel03242523433D

 19 19  0  0  1  0  0  0  0  0999 V2000
   35.5440   29.0420   40.0880 C   0  0  1  0  0  0  0  0  0  0  0  0
   34.4660   29.2610   40.1900 H   0  0  0  0  0  0  0  0  0  0  0  0
   36.5880   31.1710   40.7170 C   0  0  0  0  0  0  0  0  0  0  0  0
   36.2420   30.2400   39.7170 C   0  0  0  0  0  0  0  0  0  0  0  0
   36.6180   30.5320   38.4090 C   0  0  0  0  0  0  0  0  0  0  0  0
   37.2980   31.6940   38.1610 N   0  0  0  0  0  0  0  0  0  0  0  0
   37.6110   32.5580   39.1450 C   0  0  0  0  0  0  0  0  0  0  0  0
   37.2590   32.3070   40.4360 N   0  0  0  0  0  0  0  0  0  0  0  0
   36.3440   31.0430   41.7620 H   0  0  0  0  0  0  0  0  0  0  0  0
   36.3760   29.8540   37.6130 H   0  0  0  0  0  0  0  0  0  0  0  0
   38.1520   33.4810   38.9480 H   0  0  0  0  0  0  0  0  0  0  0  0
   35.7140   28.0070   39.0050 C   0  0  0  0  0  0  0  0  0  0  0  0
   36.7380   27.6560   38.8840 H   0  0  0  0  0  0  0  0  0  0  0  0
   35.1300   27.1040   39.3490 H   0  0  0  0  0  0  0  0  0  0  0  0
   35.2220   28.3280   38.0740 H   0  0  0  0  0  0  0  0  0  0  0  0
   36.0270   28.4690   41.3890 C   0  0  0  0  0  3  0  0  0  0  0  0
   36.8440   27.4260   41.5320 C   0  0  0  0  0  3  0  0  0  0  0  0
   37.2990   26.8920   42.8310 C   0  0  0  0  0  2  0  0  0  0  0  0
   37.2690   25.7910   42.7880 H   0  0  0  0  0  0  0  0  0  0  0  0
  1  2  1  1  0  0  0
  1 16  1  0  0  0  0
  3  9  1  0  0  0  0
  4  1  1  0  0  0  0
  4  3  2  0  0  0  0
  5  4  1  0  0  0  0
  6  5  2  0  0  0  0
  6  7  1  0  0  0  0
  7  8  2  0  0  0  0
  8  3  1  0  0  0  0
 10  5  1  0  0  0  0
 11  7  1  0  0  0  0
 12 14  1  0  0  0  0
 12  1  1  0  0  0  0
 13 12  1  0  0  0  0
 15 12  1  0  0  0  0
 16 17  2  0  0  0  0
 17 18  1  0  0  0  0
 19 18  1  0  0  0  0
M  END
>  <minimizedAffinity>
-3.55688858

$$$$

 OpenBabel03242523433D

 19 19  0  0  1  0  0  0  0  0999 V2000
   37.7450   26.8900   42.9740 C   0  0  1  0  0  0  0  0  0  0  0  0
   38.3460   26.3160   43.7030 H   0  0  0  0  0  0  0  0  0  0  0  0
   39.5220   27.8390   41.5740 C   0  0  0  0  0  0  0  0  0  0  0  0
   38.4980   28.0260   42.5240 C   0  0  0  0  0  0  0  0  0  0  0  0
   38.2590   29.3240   42.9650 C   0  0  0  0  0  0  0  0  0  0  0  0
   39.0210   30.3430   42.4600 N   0  0  0  0  0  0  0  0  0  0  0  0
   39.9900   30.1240   41.5510 C   0  0  0  0  0  0  0  0  0  0  0  0
   40.2530   28.8680   41.0970 N   0  0  0  0  0  0  0  0  0  0  0  0
   39.7900   26.8740   41.1660 H   0  0  0  0  0  0  0  0  0  0  0  0
   37.4910   29.5170   43.6880 H   0  0  0  0  0  0  0  0  0  0  0  0
   40.5950   30.9340   41.1490 H   0  0  0  0  0  0  0  0  0  0  0  0
   36.4900   27.3600   43.6640 C   0  0  0  0  0  0  0  0  0  0  0  0
   35.7850   27.8640   43.0050 H   0  0  0  0  0  0  0  0  0  0  0  0
   35.9600   26.4250   44.0070 H   0  0  0  0  0  0  0  0  0  0  0  0
   36.7320   27.9080   44.5880 H   0  0  0  0  0  0  0  0  0  0  0  0
   37.3670   25.9640   41.8540 C   0  0  0  0  0  3  0  0  0  0  0  0
   36.8120   24.7600   41.9850 C   0  0  0  0  0  3  0  0  0  0  0  0
   36.4520   23.8780   40.8570 C   0  0  0  0  0  2  0  0  0  0  0  0
   36.7390   22.8450   41.1140 H   0  0  0  0  0  0  0  0  0  0  0  0
  1 12  1  0  0  0  0
  1  2  1  1  0  0  0
  3  4  1  0  0  0  0
  4  5  2  0  0  0  0
  4  1  1  0  0  0  0
  5 10  1  0  0  0  0
  6  5  1  0  0  0  0
  7  6  2  0  0  0  0
  8  7  1  0  0  0  0
  8  3  2  0  0  0  0
  9  3  1  0  0  0  0
 11  7  1  0  0  0  0
 12 14  1  0  0  0  0
 12 15  1  0  0  0  0
 13 12  1  0  0  0  0
 16 17  2  0  0  0  0
 16  1  1  0  0  0  0
 18 19  1  0  0  0  0
 18 17  1  0  0  0  0
M  END
>  <minimizedAffinity>
-3.54925728

$$$$
