
 OpenBabel03252505313D

 22 22  0  0  0  0  0  0  0  0999 V2000
   34.2180   29.3200   39.5430 O   0  0  0  0  0  0  0  0  0  0  0  0
   35.5790   29.5310   40.2040 P   0  0  1  0  0  0  0  0  0  0  0  0
   35.5130   30.7160   41.4080 O   0  0  0  0  0  0  0  0  0  0  0  0
   34.6080   30.8390   41.7620 H   0  0  0  0  0  0  0  0  0  0  0  0
   36.0590   28.0350   40.8400 O   0  0  0  0  0  0  0  0  0  0  0  0
   38.5650   28.7220   43.2730 C   0  0  0  0  0  0  0  0  0  0  0  0
   39.2920   27.5100   43.3920 C   0  0  0  0  0  0  0  0  0  0  0  0
   38.8520   26.4470   42.5730 C   0  0  0  0  0  0  0  0  0  0  0  0
   37.7890   26.6600   41.7510 N   0  0  0  0  0  0  0  0  0  0  0  0
   37.1460   27.8310   41.6870 C   0  0  0  0  0  0  0  0  0  0  0  0
   37.5320   28.8580   42.4440 N   0  0  0  0  0  0  0  0  0  0  0  0
   38.9100   29.5270   43.9030 H   0  0  0  0  0  0  0  0  0  0  0  0
   40.1230   27.4390   44.0740 H   0  0  0  0  0  0  0  0  0  0  0  0
   39.3730   25.5170   42.6320 H   0  0  0  0  0  0  0  0  0  0  0  0
   36.6280   30.0600   39.0120 O   0  0  0  0  0  0  0  0  0  0  0  0
   37.4390   31.0400   39.5640 C   0  0  0  0  0  0  0  0  0  0  0  0
   38.4810   30.7580   39.2940 H   0  0  0  0  0  0  0  0  0  0  0  0
   37.3730   30.9450   40.6660 H   0  0  0  0  0  0  0  0  0  0  0  0
   37.1180   32.4020   39.1310 C   0  0  0  0  0  3  0  0  0  0  0  0
   37.6790   33.5040   39.6070 C   0  0  0  0  0  3  0  0  0  0  0  0
   38.7140   33.7390   40.6300 C   0  0  0  0  0  2  0  0  0  0  0  0
   38.9990   32.7700   41.0820 H   0  0  0  0  0  0  0  0  0  0  0  0
  2  1  2  6  0  0  0
  2  5  1  0  0  0  0
  2  3  1  0  0  0  0
  3  4  1  0  0  0  0
  5 10  1  0  0  0  0
  6  7  1  0  0  0  0
  6 12  1  0  0  0  0
  7 13  1  0  0  0  0
  8 14  1  0  0  0  0
  8  7  2  0  0  0  0
  9  8  1  0  0  0  0
 10  9  2  0  0  0  0
 10 11  1  0  0  0  0
 11  6  2  0  0  0  0
 15 16  1  0  0  0  0
 15  2  1  0  0  0  0
 16 18  1  0  0  0  0
 17 16  1  0  0  0  0
 19 16  1  0  0  0  0
 19 20  2  0  0  0  0
 20 21  1  0  0  0  0
 21 22  1  0  0  0  0
M  END
>  <minimizedAffinity>
-4.36479521

$$$$

 OpenBabel03252505313D

 22 22  0  0  0  0  0  0  0  0999 V2000
   37.5730   29.6890   42.4640 O   0  0  0  0  0  0  0  0  0  0  0  0
   36.7830   29.9290   41.1770 P   0  0  1  0  0  0  0  0  0  0  0  0
   35.6070   31.1270   41.3800 O   0  0  0  0  0  0  0  0  0  0  0  0
   35.8160   31.7330   42.1220 H   0  0  0  0  0  0  0  0  0  0  0  0
   37.9030   30.3620   39.9810 O   0  0  0  0  0  0  0  0  0  0  0  0
   38.7230   33.7630   40.6350 C   0  0  0  0  0  0  0  0  0  0  0  0
   39.8720   34.0150   39.8440 C   0  0  0  0  0  0  0  0  0  0  0  0
   40.3380   32.9260   39.0740 C   0  0  0  0  0  0  0  0  0  0  0  0
   39.6640   31.7470   39.1470 N   0  0  0  0  0  0  0  0  0  0  0  0
   38.5820   31.5760   39.9160 C   0  0  0  0  0  0  0  0  0  0  0  0
   38.1130   32.5800   40.6570 N   0  0  0  0  0  0  0  0  0  0  0  0
   38.3770   34.6030   41.2190 H   0  0  0  0  0  0  0  0  0  0  0  0
   40.3370   34.9860   39.8530 H   0  0  0  0  0  0  0  0  0  0  0  0
   41.2000   33.0730   38.4640 H   0  0  0  0  0  0  0  0  0  0  0  0
   36.0040   28.4960   40.8040 O   0  0  0  0  0  0  0  0  0  0  0  0
   36.8420   27.4510   41.1610 C   0  0  0  0  0  0  0  0  0  0  0  0
   36.5280   27.1470   42.1850 H   0  0  0  0  0  0  0  0  0  0  0  0
   37.8650   27.8660   41.2670 H   0  0  0  0  0  0  0  0  0  0  0  0
   36.8250   26.3190   40.2320 C   0  0  0  0  0  3  0  0  0  0  0  0
   36.8880   25.0430   40.5850 C   0  0  0  0  0  3  0  0  0  0  0  0
   36.9870   24.3700   41.8920 C   0  0  0  0  0  2  0  0  0  0  0  0
   37.0710   25.1370   42.6860 H   0  0  0  0  0  0  0  0  0  0  0  0
  2  3  1  0  0  0  0
  2  1  2  1  0  0  0
  3  4  1  0  0  0  0
  5  2  1  0  0  0  0
  6 11  1  0  0  0  0
  6 12  1  0  0  0  0
  7 13  1  0  0  0  0
  7  6  2  0  0  0  0
  8  9  2  0  0  0  0
  8  7  1  0  0  0  0
  9 10  1  0  0  0  0
 10  5  1  0  0  0  0
 10 11  2  0  0  0  0
 14  8  1  0  0  0  0
 15 16  1  0  0  0  0
 15  2  1  0  0  0  0
 16 18  1  0  0  0  0
 16 17  1  0  0  0  0
 19 20  2  0  0  0  0
 19 16  1  0  0  0  0
 20 21  1  0  0  0  0
 21 22  1  0  0  0  0
M  END
>  <minimizedAffinity>
-4.27018356

$$$$

 OpenBabel03252505313D

 22 22  0  0  0  0  0  0  0  0999 V2000
   39.4210   27.9500   43.5140 O   0  0  0  0  0  0  0  0  0  0  0  0
   38.4800   28.7590   42.6200 P   0  0  1  0  0  0  0  0  0  0  0  0
   37.0780   29.2210   43.4440 O   0  0  0  0  0  0  0  0  0  0  0  0
   37.2050   29.2380   44.4160 H   0  0  0  0  0  0  0  0  0  0  0  0
   39.3500   30.1100   42.0800 O   0  0  0  0  0  0  0  0  0  0  0  0
   36.9930   32.0450   40.2440 C   0  0  0  0  0  0  0  0  0  0  0  0
   37.6820   33.2430   39.9250 C   0  0  0  0  0  0  0  0  0  0  0  0
   39.0130   33.3280   40.3910 C   0  0  0  0  0  0  0  0  0  0  0  0
   39.5210   32.2800   41.0930 N   0  0  0  0  0  0  0  0  0  0  0  0
   38.8150   31.1750   41.3600 C   0  0  0  0  0  0  0  0  0  0  0  0
   37.5570   31.0570   40.9370 N   0  0  0  0  0  0  0  0  0  0  0  0
   35.9770   31.9910   39.8830 H   0  0  0  0  0  0  0  0  0  0  0  0
   37.1920   34.0190   39.3620 H   0  0  0  0  0  0  0  0  0  0  0  0
   39.5660   34.2140   40.1720 H   0  0  0  0  0  0  0  0  0  0  0  0
   38.0330   27.7650   41.3510 O   0  0  0  0  0  0  0  0  0  0  0  0
   38.3070   26.4570   41.7180 C   0  0  0  0  0  0  0  0  0  0  0  0
   39.0700   26.5220   42.5270 H   0  0  0  0  0  0  0  0  0  0  0  0
   38.8130   25.9690   40.8610 H   0  0  0  0  0  0  0  0  0  0  0  0
   37.1340   25.6910   42.1440 C   0  0  0  0  0  3  0  0  0  0  0  0
   36.9000   24.4220   41.8400 C   0  0  0  0  0  3  0  0  0  0  0  0
   37.6500   23.4280   41.0520 C   0  0  0  0  0  2  0  0  0  0  0  0
   38.5450   23.9130   40.6190 H   0  0  0  0  0  0  0  0  0  0  0  0
  2  3  1  0  0  0  0
  2  1  2  1  0  0  0
  3  4  1  0  0  0  0
  5  2  1  0  0  0  0
  6 11  1  0  0  0  0
  7  6  2  0  0  0  0
  7  8  1  0  0  0  0
  8  9  2  0  0  0  0
  9 10  1  0  0  0  0
 10  5  1  0  0  0  0
 11 10  2  0  0  0  0
 12  6  1  0  0  0  0
 13  7  1  0  0  0  0
 14  8  1  0  0  0  0
 15 16  1  0  0  0  0
 15  2  1  0  0  0  0
 16 19  1  0  0  0  0
 16 17  1  0  0  0  0
 18 16  1  0  0  0  0
 20 19  2  0  0  0  0
 21 20  1  0  0  0  0
 22 21  1  0  0  0  0
M  END
>  <minimizedAffinity>
-4.19789839

$$$$

 OpenBabel03252505313D

 22 22  0  0  0  0  0  0  0  0999 V2000
   37.2560   30.2510   39.4600 O   0  0  0  0  0  0  0  0  0  0  0  0
   37.1480   31.1630   40.6810 P   0  0  1  0  0  0  0  0  0  0  0  0
   35.6370   31.0340   41.4270 O   0  0  0  0  0  0  0  0  0  0  0  0
   35.1930   30.1830   41.2270 H   0  0  0  0  0  0  0  0  0  0  0  0
   38.3970   30.7240   41.7400 O   0  0  0  0  0  0  0  0  0  0  0  0
   37.4340   27.7660   43.4690 C   0  0  0  0  0  0  0  0  0  0  0  0
   38.6460   27.0610   43.6790 C   0  0  0  0  0  0  0  0  0  0  0  0
   39.8120   27.6840   43.1810 C   0  0  0  0  0  0  0  0  0  0  0  0
   39.6870   28.8830   42.5520 N   0  0  0  0  0  0  0  0  0  0  0  0
   38.5090   29.4960   42.3860 C   0  0  0  0  0  0  0  0  0  0  0  0
   37.3870   28.9400   42.8430 N   0  0  0  0  0  0  0  0  0  0  0  0
   36.5500   27.2800   43.8530 H   0  0  0  0  0  0  0  0  0  0  0  0
   38.6430   26.1130   44.1910 H   0  0  0  0  0  0  0  0  0  0  0  0
   40.7460   27.1860   43.3190 H   0  0  0  0  0  0  0  0  0  0  0  0
   37.3250   32.7360   40.1370 O   0  0  0  0  0  0  0  0  0  0  0  0
   38.4950   33.2440   40.6790 C   0  0  0  0  0  0  0  0  0  0  0  0
   38.8440   32.4840   41.4140 H   0  0  0  0  0  0  0  0  0  0  0  0
   38.2250   34.1400   41.2740 H   0  0  0  0  0  0  0  0  0  0  0  0
   39.5310   33.5570   39.6920 C   0  0  0  0  0  3  0  0  0  0  0  0
   40.7060   32.9500   39.6030 C   0  0  0  0  0  3  0  0  0  0  0  0
   41.3310   31.8610   40.3740 C   0  0  0  0  0  2  0  0  0  0  0  0
   40.6560   31.5750   41.2040 H   0  0  0  0  0  0  0  0  0  0  0  0
  2  1  2  6  0  0  0
  2  3  1  0  0  0  0
  2  5  1  0  0  0  0
  4  3  1  0  0  0  0
  5 10  1  0  0  0  0
  6  7  1  0  0  0  0
  6 12  1  0  0  0  0
  7 13  1  0  0  0  0
  8 14  1  0  0  0  0
  8  7  2  0  0  0  0
  9  8  1  0  0  0  0
 10  9  2  0  0  0  0
 10 11  1  0  0  0  0
 11  6  2  0  0  0  0
 15 16  1  0  0  0  0
 15  2  1  0  0  0  0
 16 18  1  0  0  0  0
 16 17  1  0  0  0  0
 19 16  1  0  0  0  0
 20 19  2  0  0  0  0
 20 21  1  0  0  0  0
 21 22  1  0  0  0  0
M  END
>  <minimizedAffinity>
-4.18304968

$$$$

 OpenBabel03252505313D

 22 22  0  0  0  0  0  0  0  0999 V2000
   38.7470   28.0210   42.0210 O   0  0  0  0  0  0  0  0  0  0  0  0
   37.2740   28.1590   42.4030 P   0  0  1  0  0  0  0  0  0  0  0  0
   37.0580   29.2470   43.6780 O   0  0  0  0  0  0  0  0  0  0  0  0
   37.7980   29.8850   43.7540 H   0  0  0  0  0  0  0  0  0  0  0  0
   36.4470   28.6670   41.0130 O   0  0  0  0  0  0  0  0  0  0  0  0
   37.0900   32.1120   40.3890 C   0  0  0  0  0  0  0  0  0  0  0  0
   37.2200   32.2040   38.9800 C   0  0  0  0  0  0  0  0  0  0  0  0
   37.0700   30.9930   38.2690 C   0  0  0  0  0  0  0  0  0  0  0  0
   36.8180   29.8560   38.9730 N   0  0  0  0  0  0  0  0  0  0  0  0
   36.7060   29.8390   40.3060 C   0  0  0  0  0  0  0  0  0  0  0  0
   36.8410   30.9620   41.0120 N   0  0  0  0  0  0  0  0  0  0  0  0
   37.2070   33.0440   40.9210 H   0  0  0  0  0  0  0  0  0  0  0  0
   37.4220   33.1540   38.5130 H   0  0  0  0  0  0  0  0  0  0  0  0
   37.1610   31.0180   37.2070 H   0  0  0  0  0  0  0  0  0  0  0  0
   36.7550   26.6520   42.9130 O   0  0  0  0  0  0  0  0  0  0  0  0
   37.6100   25.7030   42.3750 C   0  0  0  0  0  0  0  0  0  0  0  0
   38.3690   25.4980   43.1630 H   0  0  0  0  0  0  0  0  0  0  0  0
   38.1590   26.1850   41.5410 H   0  0  0  0  0  0  0  0  0  0  0  0
   36.9460   24.4750   41.9310 C   0  0  0  0  0  3  0  0  0  0  0  0
   36.5100   24.2470   40.7010 C   0  0  0  0  0  3  0  0  0  0  0  0
   36.5310   25.0520   39.4660 C   0  0  0  0  0  2  0  0  0  0  0  0
   36.9630   26.0460   39.6920 H   0  0  0  0  0  0  0  0  0  0  0  0
  2  1  2  6  0  0  0
  2 15  1  0  0  0  0
  2  3  1  0  0  0  0
  3  4  1  0  0  0  0
  5  2  1  0  0  0  0
  6 12  1  0  0  0  0
  6 11  1  0  0  0  0
  7  6  2  0  0  0  0
  8  9  2  0  0  0  0
  8  7  1  0  0  0  0
  9 10  1  0  0  0  0
 10 11  2  0  0  0  0
 10  5  1  0  0  0  0
 13  7  1  0  0  0  0
 14  8  1  0  0  0  0
 16 15  1  0  0  0  0
 16 17  1  0  0  0  0
 18 16  1  0  0  0  0
 19 16  1  0  0  0  0
 20 19  2  0  0  0  0
 21 22  1  0  0  0  0
 21 20  1  0  0  0  0
M  END
>  <minimizedAffinity>
-4.15584278

$$$$

 OpenBabel03252505313D

 22 22  0  0  0  0  0  0  0  0999 V2000
   37.8630   28.2780   40.3920 O   0  0  0  0  0  0  0  0  0  0  0  0
   37.0350   28.8550   41.5390 P   0  0  1  0  0  0  0  0  0  0  0  0
   35.3760   28.7250   41.2390 O   0  0  0  0  0  0  0  0  0  0  0  0
   35.1670   28.0150   40.5960 H   0  0  0  0  0  0  0  0  0  0  0  0
   37.4740   28.0110   42.9410 O   0  0  0  0  0  0  0  0  0  0  0  0
   40.0840   25.7060   43.6790 C   0  0  0  0  0  0  0  0  0  0  0  0
   39.6720   24.4910   43.0760 C   0  0  0  0  0  0  0  0  0  0  0  0
   38.4320   24.5300   42.4000 C   0  0  0  0  0  0  0  0  0  0  0  0
   37.7430   25.7030   42.3800 N   0  0  0  0  0  0  0  0  0  0  0  0
   38.1900   26.8170   42.9710 C   0  0  0  0  0  0  0  0  0  0  0  0
   39.3560   26.8190   43.6180 N   0  0  0  0  0  0  0  0  0  0  0  0
   41.0330   25.6630   44.1920 H   0  0  0  0  0  0  0  0  0  0  0  0
   40.2890   23.6110   43.1470 H   0  0  0  0  0  0  0  0  0  0  0  0
   38.0850   23.6360   41.9320 H   0  0  0  0  0  0  0  0  0  0  0  0
   37.4160   30.4810   41.6520 O   0  0  0  0  0  0  0  0  0  0  0  0
   36.5040   31.1850   40.8800 C   0  0  0  0  0  0  0  0  0  0  0  0
   35.8700   31.7490   41.6000 H   0  0  0  0  0  0  0  0  0  0  0  0
   35.8340   30.4450   40.3980 H   0  0  0  0  0  0  0  0  0  0  0  0
   37.1140   32.0730   39.8870 C   0  0  0  0  0  3  0  0  0  0  0  0
   37.3060   31.7700   38.6110 C   0  0  0  0  0  3  0  0  0  0  0  0
   37.0100   30.5680   37.8120 C   0  0  0  0  0  2  0  0  0  0  0  0
   36.5940   29.7870   38.4780 H   0  0  0  0  0  0  0  0  0  0  0  0
  2  1  2  6  0  0  0
  2 15  1  0  0  0  0
  2  5  1  0  0  0  0
  3  2  1  0  0  0  0
  4  3  1  0  0  0  0
  5 10  1  0  0  0  0
  6 12  1  0  0  0  0
  7 13  1  0  0  0  0
  7  6  2  0  0  0  0
  8  7  1  0  0  0  0
  9  8  2  0  0  0  0
  9 10  1  0  0  0  0
 10 11  2  0  0  0  0
 11  6  1  0  0  0  0
 14  8  1  0  0  0  0
 16 17  1  0  0  0  0
 16 15  1  0  0  0  0
 18 16  1  0  0  0  0
 19 16  1  0  0  0  0
 20 19  2  0  0  0  0
 21 22  1  0  0  0  0
 21 20  1  0  0  0  0
M  END
>  <minimizedAffinity>
-4.11164904

$$$$

 OpenBabel03252505313D

 22 22  0  0  0  0  0  0  0  0999 V2000
   37.1580   29.2720   42.5830 O   0  0  0  0  0  0  0  0  0  0  0  0
   36.7070   29.7790   41.2140 P   0  0  1  0  0  0  0  0  0  0  0  0
   35.7310   31.1530   41.3470 O   0  0  0  0  0  0  0  0  0  0  0  0
   35.8760   31.6340   42.1880 H   0  0  0  0  0  0  0  0  0  0  0  0
   38.1090   30.1040   40.3200 O   0  0  0  0  0  0  0  0  0  0  0  0
   40.1560   32.6790   38.9600 C   0  0  0  0  0  0  0  0  0  0  0  0
   39.8580   33.8250   39.7400 C   0  0  0  0  0  0  0  0  0  0  0  0
   38.9030   33.6400   40.7630 C   0  0  0  0  0  0  0  0  0  0  0  0
   38.3540   32.4050   40.9200 N   0  0  0  0  0  0  0  0  0  0  0  0
   38.6800   31.3630   40.1470 C   0  0  0  0  0  0  0  0  0  0  0  0
   39.5780   31.4990   39.1710 N   0  0  0  0  0  0  0  0  0  0  0  0
   40.8880   32.8340   38.1810 H   0  0  0  0  0  0  0  0  0  0  0  0
   40.3480   34.7630   39.5380 H   0  0  0  0  0  0  0  0  0  0  0  0
   38.6500   34.4780   41.3740 H   0  0  0  0  0  0  0  0  0  0  0  0
   35.7970   28.5620   40.5140 O   0  0  0  0  0  0  0  0  0  0  0  0
   34.7430   29.1560   39.8370 C   0  0  0  0  0  0  0  0  0  0  0  0
   34.9480   30.2500   39.8550 H   0  0  0  0  0  0  0  0  0  0  0  0
   33.8290   29.0070   40.4470 H   0  0  0  0  0  0  0  0  0  0  0  0
   34.5520   28.6650   38.4700 C   0  0  0  0  0  3  0  0  0  0  0  0
   35.3010   29.0000   37.4290 C   0  0  0  0  0  3  0  0  0  0  0  0
   36.4690   29.8860   37.2800 C   0  0  0  0  0  2  0  0  0  0  0  0
   36.6780   30.3720   38.2520 H   0  0  0  0  0  0  0  0  0  0  0  0
  2  3  1  0  0  0  0
  2  1  2  1  0  0  0
  3  4  1  0  0  0  0
  5  2  1  0  0  0  0
  6 11  2  0  0  0  0
  6  7  1  0  0  0  0
  7  8  2  0  0  0  0
  8  9  1  0  0  0  0
  8 14  1  0  0  0  0
 10  5  1  0  0  0  0
 10  9  2  0  0  0  0
 11 10  1  0  0  0  0
 12  6  1  0  0  0  0
 13  7  1  0  0  0  0
 15  2  1  0  0  0  0
 16 17  1  0  0  0  0
 16 18  1  0  0  0  0
 16 15  1  0  0  0  0
 19 16  1  0  0  0  0
 20 19  2  0  0  0  0
 21 20  1  0  0  0  0
 21 22  1  0  0  0  0
M  END
>  <minimizedAffinity>
-4.10404682

$$$$

 OpenBabel03252505313D

 22 22  0  0  0  0  0  0  0  0999 V2000
   35.9950   28.3820   41.2790 O   0  0  0  0  0  0  0  0  0  0  0  0
   36.7240   29.7250   41.3000 P   0  0  1  0  0  0  0  0  0  0  0  0
   35.6420   31.0230   41.3420 O   0  0  0  0  0  0  0  0  0  0  0  0
   34.7670   30.7680   41.7010 H   0  0  0  0  0  0  0  0  0  0  0  0
   37.7340   29.7210   42.6610 O   0  0  0  0  0  0  0  0  0  0  0  0
   39.4020   26.7460   43.6790 C   0  0  0  0  0  0  0  0  0  0  0  0
   40.7680   26.9800   43.3800 C   0  0  0  0  0  0  0  0  0  0  0  0
   41.0650   28.2350   42.8040 C   0  0  0  0  0  0  0  0  0  0  0  0
   40.0420   29.1040   42.5850 N   0  0  0  0  0  0  0  0  0  0  0  0
   38.7710   28.8200   42.8910 C   0  0  0  0  0  0  0  0  0  0  0  0
   38.4520   27.6460   43.4370 N   0  0  0  0  0  0  0  0  0  0  0  0
   39.1880   25.7840   44.1190 H   0  0  0  0  0  0  0  0  0  0  0  0
   41.5080   26.2260   43.5920 H   0  0  0  0  0  0  0  0  0  0  0  0
   42.0810   28.4500   42.5640 H   0  0  0  0  0  0  0  0  0  0  0  0
   37.6040   29.8290   39.8800 O   0  0  0  0  0  0  0  0  0  0  0  0
   37.0060   28.9950   38.9480 C   0  0  0  0  0  0  0  0  0  0  0  0
   36.4030   28.2670   39.5350 H   0  0  0  0  0  0  0  0  0  0  0  0
   37.8100   28.4050   38.4640 H   0  0  0  0  0  0  0  0  0  0  0  0
   36.1890   29.6920   37.9510 C   0  0  0  0  0  3  0  0  0  0  0  0
   35.0170   29.2710   37.4980 C   0  0  0  0  0  3  0  0  0  0  0  0
   34.1970   28.0830   37.7950 C   0  0  0  0  0  2  0  0  0  0  0  0
   34.7470   27.4350   38.5040 H   0  0  0  0  0  0  0  0  0  0  0  0
  2  1  2  6  0  0  0
  2  3  1  0  0  0  0
  2  5  1  0  0  0  0
  3  4  1  0  0  0  0
  5 10  1  0  0  0  0
  6 12  1  0  0  0  0
  7 13  1  0  0  0  0
  7  6  2  0  0  0  0
  8  7  1  0  0  0  0
  9  8  2  0  0  0  0
  9 10  1  0  0  0  0
 10 11  2  0  0  0  0
 11  6  1  0  0  0  0
 14  8  1  0  0  0  0
 15  2  1  0  0  0  0
 16 17  1  0  0  0  0
 16 15  1  0  0  0  0
 18 16  1  0  0  0  0
 19 16  1  0  0  0  0
 20 21  1  0  0  0  0
 20 19  2  0  0  0  0
 21 22  1  0  0  0  0
M  END
>  <minimizedAffinity>
-4.09849024

$$$$

 OpenBabel03252505313D

 22 22  0  0  0  0  0  0  0  0999 V2000
   40.9390   25.6720   41.3020 O   0  0  0  0  0  0  0  0  0  0  0  0
   40.9580   25.3200   42.7890 P   0  0  1  0  0  0  0  0  0  0  0  0
   42.4650   24.7250   43.2710 O   0  0  0  0  0  0  0  0  0  0  0  0
   43.1890   25.0130   42.6750 H   0  0  0  0  0  0  0  0  0  0  0  0
   40.5530   26.7300   43.6370 O   0  0  0  0  0  0  0  0  0  0  0  0
   37.4580   28.4550   43.3030 C   0  0  0  0  0  0  0  0  0  0  0  0
   37.7420   29.5370   42.4320 C   0  0  0  0  0  0  0  0  0  0  0  0
   39.0750   29.6230   41.9740 C   0  0  0  0  0  0  0  0  0  0  0  0
   39.9650   28.6830   42.3920 N   0  0  0  0  0  0  0  0  0  0  0  0
   39.6310   27.6850   43.2170 C   0  0  0  0  0  0  0  0  0  0  0  0
   38.3820   27.5700   43.6710 N   0  0  0  0  0  0  0  0  0  0  0  0
   36.4360   28.4000   43.6470 H   0  0  0  0  0  0  0  0  0  0  0  0
   36.9660   30.2330   42.1570 H   0  0  0  0  0  0  0  0  0  0  0  0
   39.3300   30.4230   41.3160 H   0  0  0  0  0  0  0  0  0  0  0  0
   39.8250   24.1110   43.0220 O   0  0  0  0  0  0  0  0  0  0  0  0
   39.0560   24.0220   41.8720 C   0  0  0  0  0  0  0  0  0  0  0  0
   39.1810   22.9790   41.5040 H   0  0  0  0  0  0  0  0  0  0  0  0
   39.5240   24.6740   41.1070 H   0  0  0  0  0  0  0  0  0  0  0  0
   37.6440   24.3610   42.0630 C   0  0  0  0  0  3  0  0  0  0  0  0
   36.9770   25.2700   41.3650 C   0  0  0  0  0  3  0  0  0  0  0  0
   37.3670   26.1720   40.2670 C   0  0  0  0  0  2  0  0  0  0  0  0
   38.4490   26.0500   40.0680 H   0  0  0  0  0  0  0  0  0  0  0  0
  2  1  2  6  0  0  0
  2 15  1  0  0  0  0
  2  3  1  0  0  0  0
  2  5  1  0  0  0  0
  4  3  1  0  0  0  0
  6 12  1  0  0  0  0
  6 11  1  0  0  0  0
  7  6  2  0  0  0  0
  8  9  2  0  0  0  0
  8  7  1  0  0  0  0
  9 10  1  0  0  0  0
 10  5  1  0  0  0  0
 10 11  2  0  0  0  0
 13  7  1  0  0  0  0
 14  8  1  0  0  0  0
 16 19  1  0  0  0  0
 16 15  1  0  0  0  0
 17 16  1  0  0  0  0
 18 16  1  0  0  0  0
 20 19  2  0  0  0  0
 21 20  1  0  0  0  0
 22 21  1  0  0  0  0
M  END
>  <minimizedAffinity>
-3.91867232

$$$$
