
 OpenBabel03242514473D

 29 30  0  0  1  0  0  0  0  0999 V2000
   37.2160   28.1100   40.7660 C   0  0  0  0  0  0  0  0  0  0  0  0
   37.6950   29.3530   41.2100 C   0  0  0  0  0  0  0  0  0  0  0  0
   37.8950   29.5250   42.5690 C   0  0  0  0  0  0  0  0  0  0  0  0
   37.6240   28.4930   43.4280 N   0  0  0  0  0  0  0  0  0  0  0  0
   37.1630   27.3080   42.9550 C   0  0  0  0  0  0  0  0  0  0  0  0
   36.9590   27.1150   41.6340 N   0  0  0  0  0  0  0  0  0  0  0  0
   38.2630   30.4630   42.9790 H   0  0  0  0  0  0  0  0  0  0  0  0
   36.9220   26.4420   43.5540 H   0  0  0  0  0  0  0  0  0  0  0  0
   36.8120   31.3900   40.0460 C   0  0  2  0  0  0  0  0  0  0  0  0
   37.9980   30.4590   40.2430 C   0  0  1  0  0  0  0  0  0  0  0  0
   39.0670   31.2250   40.5910 O   0  0  0  0  0  0  0  0  0  0  0  0
   38.6720   32.4800   40.9390 C   0  0  0  0  0  0  0  0  0  0  0  0
   37.4900   32.7590   40.0270 C   0  0  1  0  0  0  0  0  0  0  0  0
   36.2770   31.2120   39.0870 H   0  0  0  0  0  0  0  0  0  0  0  0
   38.1880   30.0350   39.2490 H   0  0  0  0  0  0  0  0  0  0  0  0
   39.4740   33.2090   40.6840 H   0  0  0  0  0  0  0  0  0  0  0  0
   38.4130   32.6490   41.9850 H   0  0  0  0  0  0  0  0  0  0  0  0
   36.8300   33.5590   40.3930 H   0  0  0  0  0  0  0  0  0  0  0  0
   35.8760   31.3610   41.0410 O   0  0  0  0  0  0  0  0  0  0  0  0
   36.0160   32.0950   41.6810 H   0  0  0  0  0  0  0  0  0  0  0  0
   38.0240   33.0360   38.7750 O   0  0  0  0  0  0  0  0  0  0  0  0
   38.7500   33.7070   38.8290 H   0  0  0  0  0  0  0  0  0  0  0  0
   36.9990   27.9370   39.3010 C   0  0  0  0  0  0  0  0  0  0  0  0
   37.3930   28.8500   38.8070 H   0  0  0  0  0  0  0  0  0  0  0  0
   37.6050   27.1240   38.8550 H   0  0  0  0  0  0  0  0  0  0  0  0
   35.5580   27.8540   38.9520 C   0  0  0  0  0  3  0  0  0  0  0  0
   34.9730   28.7850   38.1620 C   0  0  0  0  0  3  0  0  0  0  0  0
   33.5380   28.8770   37.6960 C   0  0  0  0  0  2  0  0  0  0  0  0
   33.5180   28.8980   36.5950 H   0  0  0  0  0  0  0  0  0  0  0  0
  1  2  2  0  0  0  0
  1  6  1  0  0  0  0
  2  3  1  0  0  0  0
  3  7  1  0  0  0  0
  3  4  2  0  0  0  0
  5  4  1  0  0  0  0
  5  8  1  0  0  0  0
  6  5  2  0  0  0  0
  9 14  1  6  0  0  0
  9 10  1  0  0  0  0
  9 19  1  0  0  0  0
 10 15  1  6  0  0  0
 10 11  1  0  0  0  0
 10  2  1  0  0  0  0
 11 12  1  0  0  0  0
 12 17  1  0  0  0  0
 13  9  1  0  0  0  0
 13 18  1  1  0  0  0
 13 12  1  0  0  0  0
 16 12  1  0  0  0  0
 19 20  1  0  0  0  0
 21 22  1  0  0  0  0
 21 13  1  0  0  0  0
 23  1  1  0  0  0  0
 24 23  1  0  0  0  0
 25 23  1  0  0  0  0
 26 23  1  0  0  0  0
 27 26  2  0  0  0  0
 28 27  1  0  0  0  0
 29 28  1  0  0  0  0
M  END
>  <minimizedAffinity>
-4.97061682

$$$$

 OpenBabel03242514473D

 29 30  0  0  1  0  0  0  0  0999 V2000
   37.7150   26.4140   42.1230 C   0  0  0  0  0  0  0  0  0  0  0  0
   36.9030   27.0630   41.1780 C   0  0  0  0  0  0  0  0  0  0  0  0
   36.6360   26.4040   39.9890 C   0  0  0  0  0  0  0  0  0  0  0  0
   37.1640   25.1590   39.7730 N   0  0  0  0  0  0  0  0  0  0  0  0
   37.9430   24.5700   40.7150 C   0  0  0  0  0  0  0  0  0  0  0  0
   38.2180   25.1900   41.8820 N   0  0  0  0  0  0  0  0  0  0  0  0
   36.0160   26.8510   39.2150 H   0  0  0  0  0  0  0  0  0  0  0  0
   38.4010   23.5940   40.6320 H   0  0  0  0  0  0  0  0  0  0  0  0
   37.2970   29.5360   41.0980 C   0  0  2  0  0  0  0  0  0  0  0  0
   36.3270   28.4200   41.4520 C   0  0  1  0  0  0  0  0  0  0  0  0
   35.1590   28.6700   40.7990 O   0  0  0  0  0  0  0  0  0  0  0  0
   35.3320   29.6220   39.8420 C   0  0  0  0  0  0  0  0  0  0  0  0
   36.3700   30.5560   40.4370 C   0  0  1  0  0  0  0  0  0  0  0  0
   37.7860   29.9830   41.9910 H   0  0  0  0  0  0  0  0  0  0  0  0
   36.1500   28.5340   42.5290 H   0  0  0  0  0  0  0  0  0  0  0  0
   34.3890   30.2010   39.7170 H   0  0  0  0  0  0  0  0  0  0  0  0
   35.6270   29.2820   38.8490 H   0  0  0  0  0  0  0  0  0  0  0  0
   36.8900   31.1710   39.6880 H   0  0  0  0  0  0  0  0  0  0  0  0
   38.2890   29.1920   40.2250 O   0  0  0  0  0  0  0  0  0  0  0  0
   38.0580   29.4520   39.3050 H   0  0  0  0  0  0  0  0  0  0  0  0
   35.7050   31.3190   41.3880 O   0  0  0  0  0  0  0  0  0  0  0  0
   34.8710   31.7090   41.0250 H   0  0  0  0  0  0  0  0  0  0  0  0
   38.0010   27.1330   43.3970 C   0  0  0  0  0  0  0  0  0  0  0  0
   37.6370   28.1750   43.2680 H   0  0  0  0  0  0  0  0  0  0  0  0
   37.4100   26.7620   44.2590 H   0  0  0  0  0  0  0  0  0  0  0  0
   39.4550   27.2230   43.6790 C   0  0  0  0  0  3  0  0  0  0  0  0
   40.2410   28.1160   43.0310 C   0  0  0  0  0  3  0  0  0  0  0  0
   41.7250   28.3610   43.1740 C   0  0  0  0  0  2  0  0  0  0  0  0
   41.8920   29.4170   43.4400 H   0  0  0  0  0  0  0  0  0  0  0  0
  1 23  1  0  0  0  0
  2 10  1  0  0  0  0
  2  1  2  0  0  0  0
  3  2  1  0  0  0  0
  4  3  2  0  0  0  0
  4  5  1  0  0  0  0
  5  6  2  0  0  0  0
  6  1  1  0  0  0  0
  7  3  1  0  0  0  0
  8  5  1  0  0  0  0
  9 10  1  0  0  0  0
  9 14  1  1  0  0  0
 10 15  1  1  0  0  0
 11 10  1  0  0  0  0
 12 13  1  0  0  0  0
 12 11  1  0  0  0  0
 13 18  1  6  0  0  0
 13  9  1  0  0  0  0
 13 21  1  0  0  0  0
 16 12  1  0  0  0  0
 17 12  1  0  0  0  0
 19  9  1  0  0  0  0
 20 19  1  0  0  0  0
 22 21  1  0  0  0  0
 23 26  1  0  0  0  0
 23 25  1  0  0  0  0
 24 23  1  0  0  0  0
 27 28  1  0  0  0  0
 27 26  2  0  0  0  0
 28 29  1  0  0  0  0
M  END
>  <minimizedAffinity>
-4.81450653

$$$$

 OpenBabel03242514473D

 29 30  0  0  1  0  0  0  0  0999 V2000
   36.9640   27.8500   41.2950 C   0  0  0  0  0  0  0  0  0  0  0  0
   37.5410   29.1270   41.3920 C   0  0  0  0  0  0  0  0  0  0  0  0
   38.0640   29.5120   42.6150 C   0  0  0  0  0  0  0  0  0  0  0  0
   38.0060   28.6500   43.6780 N   0  0  0  0  0  0  0  0  0  0  0  0
   37.4400   27.4250   43.5380 C   0  0  0  0  0  0  0  0  0  0  0  0
   36.9220   27.0250   42.3560 N   0  0  0  0  0  0  0  0  0  0  0  0
   38.5240   30.4880   42.7580 H   0  0  0  0  0  0  0  0  0  0  0  0
   37.3490   26.6810   44.3160 H   0  0  0  0  0  0  0  0  0  0  0  0
   36.3920   30.9550   40.1200 C   0  0  2  0  0  0  0  0  0  0  0  0
   37.6050   30.0420   40.2060 C   0  0  1  0  0  0  0  0  0  0  0  0
   38.7140   30.8300   40.1700 O   0  0  0  0  0  0  0  0  0  0  0  0
   38.3880   32.1360   40.3750 C   0  0  0  0  0  0  0  0  0  0  0  0
   37.0290   32.2830   39.7140 C   0  0  1  0  0  0  0  0  0  0  0  0
   35.6590   30.6280   39.3500 H   0  0  0  0  0  0  0  0  0  0  0  0
   37.5740   29.4490   39.2830 H   0  0  0  0  0  0  0  0  0  0  0  0
   39.1030   32.7900   39.8260 H   0  0  0  0  0  0  0  0  0  0  0  0
   38.3670   32.4880   41.4070 H   0  0  0  0  0  0  0  0  0  0  0  0
   36.4560   33.1500   40.0740 H   0  0  0  0  0  0  0  0  0  0  0  0
   35.7020   31.1200   41.2880 O   0  0  0  0  0  0  0  0  0  0  0  0
   35.9710   31.9490   41.7440 H   0  0  0  0  0  0  0  0  0  0  0  0
   37.2660   32.3280   38.3460 O   0  0  0  0  0  0  0  0  0  0  0  0
   37.9750   32.9800   38.1210 H   0  0  0  0  0  0  0  0  0  0  0  0
   36.3990   27.4470   39.9760 C   0  0  0  0  0  0  0  0  0  0  0  0
   35.3060   27.3150   40.1200 H   0  0  0  0  0  0  0  0  0  0  0  0
   36.4600   28.2410   39.2040 H   0  0  0  0  0  0  0  0  0  0  0  0
   36.9270   26.1380   39.5140 C   0  0  0  0  0  3  0  0  0  0  0  0
   36.1520   25.2780   38.8120 C   0  0  0  0  0  3  0  0  0  0  0  0
   36.4990   23.9150   38.2580 C   0  0  0  0  0  2  0  0  0  0  0  0
   36.3230   23.9130   37.1710 H   0  0  0  0  0  0  0  0  0  0  0  0
  1  2  2  0  0  0  0
  1  6  1  0  0  0  0
  2  3  1  0  0  0  0
  3  7  1  0  0  0  0
  3  4  2  0  0  0  0
  5  4  1  0  0  0  0
  5  8  1  0  0  0  0
  6  5  2  0  0  0  0
  9 14  1  6  0  0  0
  9 10  1  0  0  0  0
  9 19  1  0  0  0  0
 10 15  1  6  0  0  0
 10  2  1  0  0  0  0
 11 10  1  0  0  0  0
 11 12  1  0  0  0  0
 12 17  1  0  0  0  0
 13 18  1  1  0  0  0
 13  9  1  0  0  0  0
 13 12  1  0  0  0  0
 16 12  1  0  0  0  0
 19 20  1  0  0  0  0
 21 13  1  0  0  0  0
 22 21  1  0  0  0  0
 23 24  1  0  0  0  0
 23  1  1  0  0  0  0
 25 23  1  0  0  0  0
 26 23  1  0  0  0  0
 27 26  2  0  0  0  0
 28 27  1  0  0  0  0
 29 28  1  0  0  0  0
M  END
>  <minimizedAffinity>
-4.77743387

$$$$

 OpenBabel03242514473D

 29 30  0  0  1  0  0  0  0  0999 V2000
   38.5150   26.3140   42.6200 C   0  0  0  0  0  0  0  0  0  0  0  0
   38.7110   27.6360   42.1880 C   0  0  0  0  0  0  0  0  0  0  0  0
   39.8960   28.2640   42.5360 C   0  0  0  0  0  0  0  0  0  0  0  0
   40.8270   27.5890   43.2800 N   0  0  0  0  0  0  0  0  0  0  0  0
   40.5950   26.3110   43.6750 C   0  0  0  0  0  0  0  0  0  0  0  0
   39.4490   25.6760   43.3490 N   0  0  0  0  0  0  0  0  0  0  0  0
   40.1100   29.2880   42.2340 H   0  0  0  0  0  0  0  0  0  0  0  0
   41.2680   25.7020   44.2610 H   0  0  0  0  0  0  0  0  0  0  0  0
   36.6700   29.0880   42.2190 C   0  0  2  0  0  0  0  0  0  0  0  0
   37.6800   28.3430   41.3610 C   0  0  1  0  0  0  0  0  0  0  0  0
   38.1960   29.2330   40.4700 O   0  0  0  0  0  0  0  0  0  0  0  0
   37.8850   30.5100   40.8250 C   0  0  0  0  0  0  0  0  0  0  0  0
   36.5040   30.3930   41.4430 C   0  0  1  0  0  0  0  0  0  0  0  0
   35.6940   28.5590   42.2960 H   0  0  0  0  0  0  0  0  0  0  0  0
   37.0860   27.6060   40.8060 H   0  0  0  0  0  0  0  0  0  0  0  0
   37.7940   31.1400   39.9110 H   0  0  0  0  0  0  0  0  0  0  0  0
   38.5770   31.0240   41.4940 H   0  0  0  0  0  0  0  0  0  0  0  0
   36.2400   31.2390   42.0950 H   0  0  0  0  0  0  0  0  0  0  0  0
   37.0780   29.3660   43.4930 O   0  0  0  0  0  0  0  0  0  0  0  0
   37.4250   30.2850   43.5610 H   0  0  0  0  0  0  0  0  0  0  0  0
   35.6180   30.2380   40.3840 O   0  0  0  0  0  0  0  0  0  0  0  0
   35.7660   30.9190   39.6810 H   0  0  0  0  0  0  0  0  0  0  0  0
   37.2350   25.6480   42.2450 C   0  0  0  0  0  0  0  0  0  0  0  0
   36.5570   25.7370   43.1200 H   0  0  0  0  0  0  0  0  0  0  0  0
   36.6810   26.1720   41.4390 H   0  0  0  0  0  0  0  0  0  0  0  0
   37.4100   24.1970   41.9890 C   0  0  0  0  0  3  0  0  0  0  0  0
   37.7490   23.7370   40.7610 C   0  0  0  0  0  3  0  0  0  0  0  0
   37.9720   22.3140   40.3030 C   0  0  0  0  0  2  0  0  0  0  0  0
   38.9860   22.2260   39.8810 H   0  0  0  0  0  0  0  0  0  0  0  0
  1  6  1  0  0  0  0
  2  3  1  0  0  0  0
  2  1  2  0  0  0  0
  3  4  2  0  0  0  0
  4  5  1  0  0  0  0
  5  8  1  0  0  0  0
  6  5  2  0  0  0  0
  7  3  1  0  0  0  0
  9 14  1  1  0  0  0
  9 19  1  0  0  0  0
 10 15  1  6  0  0  0
 10  2  1  0  0  0  0
 10  9  1  0  0  0  0
 11 12  1  0  0  0  0
 11 10  1  0  0  0  0
 12 13  1  0  0  0  0
 12 17  1  0  0  0  0
 13 18  1  1  0  0  0
 13  9  1  0  0  0  0
 16 12  1  0  0  0  0
 19 20  1  0  0  0  0
 21 13  1  0  0  0  0
 22 21  1  0  0  0  0
 23  1  1  0  0  0  0
 23 24  1  0  0  0  0
 25 23  1  0  0  0  0
 26 23  1  0  0  0  0
 27 26  2  0  0  0  0
 28 27  1  0  0  0  0
 29 28  1  0  0  0  0
M  END
>  <minimizedAffinity>
-4.7618351

$$$$

 OpenBabel03242514473D

 29 30  0  0  1  0  0  0  0  0999 V2000
   36.2190   30.1140   39.1590 C   0  0  0  0  0  0  0  0  0  0  0  0
   37.0200   31.2280   38.8600 C   0  0  0  0  0  0  0  0  0  0  0  0
   37.4970   31.3560   37.5660 C   0  0  0  0  0  0  0  0  0  0  0  0
   37.1800   30.4070   36.6310 N   0  0  0  0  0  0  0  0  0  0  0  0
   36.4030   29.3460   36.9660 C   0  0  0  0  0  0  0  0  0  0  0  0
   35.9240   29.1980   38.2190 N   0  0  0  0  0  0  0  0  0  0  0  0
   38.1230   32.1950   37.2670 H   0  0  0  0  0  0  0  0  0  0  0  0
   36.1020   28.5510   36.2980 H   0  0  0  0  0  0  0  0  0  0  0  0
   38.6070   31.9300   40.6670 C   0  0  2  0  0  0  0  0  0  0  0  0
   37.3350   32.2600   39.9010 C   0  0  1  0  0  0  0  0  0  0  0  0
   37.4680   33.5230   39.4110 O   0  0  0  0  0  0  0  0  0  0  0  0
   38.7600   33.9430   39.4970 C   0  0  0  0  0  0  0  0  0  0  0  0
   39.2710   33.3020   40.7740 C   0  0  1  0  0  0  0  0  0  0  0  0
   38.4060   31.5190   41.6810 H   0  0  0  0  0  0  0  0  0  0  0  0
   36.5450   32.2680   40.6620 H   0  0  0  0  0  0  0  0  0  0  0  0
   38.7850   35.0470   39.6390 H   0  0  0  0  0  0  0  0  0  0  0  0
   39.4140   33.7190   38.6520 H   0  0  0  0  0  0  0  0  0  0  0  0
   40.3670   33.2350   40.8260 H   0  0  0  0  0  0  0  0  0  0  0  0
   39.4560   31.0630   40.0410 O   0  0  0  0  0  0  0  0  0  0  0  0
   40.1740   31.5450   39.5710 H   0  0  0  0  0  0  0  0  0  0  0  0
   38.7300   34.0400   41.8200 O   0  0  0  0  0  0  0  0  0  0  0  0
   38.8670   35.0110   41.6900 H   0  0  0  0  0  0  0  0  0  0  0  0
   35.7140   29.9830   40.5560 C   0  0  0  0  0  0  0  0  0  0  0  0
   36.3520   30.6330   41.1920 H   0  0  0  0  0  0  0  0  0  0  0  0
   34.6980   30.4010   40.7020 H   0  0  0  0  0  0  0  0  0  0  0  0
   35.8610   28.6020   41.0800 C   0  0  0  0  0  3  0  0  0  0  0  0
   36.6640   28.3350   42.1370 C   0  0  0  0  0  3  0  0  0  0  0  0
   36.9440   27.0120   42.8120 C   0  0  0  0  0  2  0  0  0  0  0  0
   36.6870   27.0920   43.8810 H   0  0  0  0  0  0  0  0  0  0  0  0
  1 23  1  0  0  0  0
  2  1  1  0  0  0  0
  2 10  1  0  0  0  0
  3  2  2  0  0  0  0
  4  5  2  0  0  0  0
  4  3  1  0  0  0  0
  5  6  1  0  0  0  0
  6  1  2  0  0  0  0
  7  3  1  0  0  0  0
  8  5  1  0  0  0  0
  9 13  1  0  0  0  0
  9 14  1  1  0  0  0
 10 15  1  1  0  0  0
 10  9  1  0  0  0  0
 11 12  1  0  0  0  0
 11 10  1  0  0  0  0
 12 16  1  0  0  0  0
 12 13  1  0  0  0  0
 13 18  1  1  0  0  0
 13 21  1  0  0  0  0
 17 12  1  0  0  0  0
 19  9  1  0  0  0  0
 20 19  1  0  0  0  0
 22 21  1  0  0  0  0
 23 25  1  0  0  0  0
 23 26  1  0  0  0  0
 23 24  1  0  0  0  0
 26 27  2  0  0  0  0
 27 28  1  0  0  0  0
 28 29  1  0  0  0  0
M  END
>  <minimizedAffinity>
-4.69878006

$$$$

 OpenBabel03242514473D

 29 30  0  0  1  0  0  0  0  0999 V2000
   36.9970   29.1410   40.9660 C   0  0  0  0  0  0  0  0  0  0  0  0
   37.0610   30.3040   40.1810 C   0  0  0  0  0  0  0  0  0  0  0  0
   36.7700   30.1940   38.8320 C   0  0  0  0  0  0  0  0  0  0  0  0
   36.4340   28.9730   38.3100 N   0  0  0  0  0  0  0  0  0  0  0  0
   36.3850   27.8760   39.1060 C   0  0  0  0  0  0  0  0  0  0  0  0
   36.6640   27.9560   40.4250 N   0  0  0  0  0  0  0  0  0  0  0  0
   36.8010   31.0560   38.1680 H   0  0  0  0  0  0  0  0  0  0  0  0
   36.1310   26.8760   38.7850 H   0  0  0  0  0  0  0  0  0  0  0  0
   38.9190   31.8510   40.8390 C   0  0  2  0  0  0  0  0  0  0  0  0
   37.4160   31.6300   40.7850 C   0  0  1  0  0  0  0  0  0  0  0  0
   36.8670   32.6980   40.1450 O   0  0  0  0  0  0  0  0  0  0  0  0
   37.8260   33.4310   39.5150 C   0  0  0  0  0  0  0  0  0  0  0  0
   39.0330   33.3180   40.4280 C   0  0  1  0  0  0  0  0  0  0  0  0
   39.3410   31.7030   41.8580 H   0  0  0  0  0  0  0  0  0  0  0  0
   37.0920   31.6540   41.8340 H   0  0  0  0  0  0  0  0  0  0  0  0
   37.5210   34.5010   39.4880 H   0  0  0  0  0  0  0  0  0  0  0  0
   38.0760   33.1490   38.4910 H   0  0  0  0  0  0  0  0  0  0  0  0
   39.9870   33.5400   39.9270 H   0  0  0  0  0  0  0  0  0  0  0  0
   39.6530   31.0810   39.9830 O   0  0  0  0  0  0  0  0  0  0  0  0
   39.8710   31.5750   39.1600 H   0  0  0  0  0  0  0  0  0  0  0  0
   38.7850   34.1610   41.5040 O   0  0  0  0  0  0  0  0  0  0  0  0
   38.5000   35.0600   41.2050 H   0  0  0  0  0  0  0  0  0  0  0  0
   37.3180   29.2690   42.4160 C   0  0  0  0  0  0  0  0  0  0  0  0
   37.4070   30.3550   42.6330 H   0  0  0  0  0  0  0  0  0  0  0  0
   36.4950   28.9430   43.0840 H   0  0  0  0  0  0  0  0  0  0  0  0
   38.6270   28.6600   42.7590 C   0  0  0  0  0  3  0  0  0  0  0  0
   38.7070   27.4070   43.2670 C   0  0  0  0  0  3  0  0  0  0  0  0
   39.9300   26.6180   43.6740 C   0  0  0  0  0  2  0  0  0  0  0  0
   39.9520   25.6720   43.1110 H   0  0  0  0  0  0  0  0  0  0  0  0
  1 23  1  0  0  0  0
  2 10  1  0  0  0  0
  2  1  2  0  0  0  0
  3  2  1  0  0  0  0
  4  3  2  0  0  0  0
  4  5  1  0  0  0  0
  5  6  2  0  0  0  0
  6  1  1  0  0  0  0
  7  3  1  0  0  0  0
  8  5  1  0  0  0  0
  9 14  1  1  0  0  0
 10  9  1  0  0  0  0
 10 15  1  1  0  0  0
 11 10  1  0  0  0  0
 12 11  1  0  0  0  0
 12 13  1  0  0  0  0
 13 18  1  6  0  0  0
 13  9  1  0  0  0  0
 13 21  1  0  0  0  0
 16 12  1  0  0  0  0
 17 12  1  0  0  0  0
 19  9  1  0  0  0  0
 20 19  1  0  0  0  0
 22 21  1  0  0  0  0
 23 24  1  0  0  0  0
 23 26  1  0  0  0  0
 23 25  1  0  0  0  0
 26 27  2  0  0  0  0
 27 28  1  0  0  0  0
 29 28  1  0  0  0  0
M  END
>  <minimizedAffinity>
-4.61478806

$$$$

 OpenBabel03242514473D

 29 30  0  0  1  0  0  0  0  0999 V2000
   37.4570   30.5660   40.6730 C   0  0  0  0  0  0  0  0  0  0  0  0
   38.7750   30.9910   40.9070 C   0  0  0  0  0  0  0  0  0  0  0  0
   39.4040   30.5540   42.0620 C   0  0  0  0  0  0  0  0  0  0  0  0
   38.7320   29.7330   42.9280 N   0  0  0  0  0  0  0  0  0  0  0  0
   37.4590   29.3470   42.6600 C   0  0  0  0  0  0  0  0  0  0  0  0
   36.8240   29.7580   41.5420 N   0  0  0  0  0  0  0  0  0  0  0  0
   40.4240   30.8470   42.3030 H   0  0  0  0  0  0  0  0  0  0  0  0
   36.8530   28.7030   43.2820 H   0  0  0  0  0  0  0  0  0  0  0  0
   39.2250   33.3510   40.1960 C   0  0  2  0  0  0  0  0  0  0  0  0
   39.4900   31.8770   39.9320 C   0  0  1  0  0  0  0  0  0  0  0  0
   40.8400   31.7020   39.9060 O   0  0  0  0  0  0  0  0  0  0  0  0
   41.4800   32.7920   40.4110 C   0  0  0  0  0  0  0  0  0  0  0  0
   40.6110   33.9600   39.9830 C   0  0  1  0  0  0  0  0  0  0  0  0
   38.4970   33.7940   39.4820 H   0  0  0  0  0  0  0  0  0  0  0  0
   39.1010   31.7000   38.9210 H   0  0  0  0  0  0  0  0  0  0  0  0
   42.4700   32.9070   39.9130 H   0  0  0  0  0  0  0  0  0  0  0  0
   41.6650   32.8070   41.4860 H   0  0  0  0  0  0  0  0  0  0  0  0
   40.7660   34.8680   40.5840 H   0  0  0  0  0  0  0  0  0  0  0  0
   38.7870   33.6490   41.4550 O   0  0  0  0  0  0  0  0  0  0  0  0
   39.5300   33.9460   42.0280 H   0  0  0  0  0  0  0  0  0  0  0  0
   40.8680   34.1600   38.6330 O   0  0  0  0  0  0  0  0  0  0  0  0
   41.8390   34.2010   38.4490 H   0  0  0  0  0  0  0  0  0  0  0  0
   36.7880   31.0470   39.4310 C   0  0  0  0  0  0  0  0  0  0  0  0
   35.7680   31.3770   39.7210 H   0  0  0  0  0  0  0  0  0  0  0  0
   37.2430   31.9650   39.0080 H   0  0  0  0  0  0  0  0  0  0  0  0
   36.6150   29.9640   38.4300 C   0  0  0  0  0  3  0  0  0  0  0  0
   35.3950   29.4340   38.1740 C   0  0  0  0  0  3  0  0  0  0  0  0
   35.0150   28.3400   37.2030 C   0  0  0  0  0  2  0  0  0  0  0  0
   34.2550   28.7260   36.5050 H   0  0  0  0  0  0  0  0  0  0  0  0
  1  2  2  0  0  0  0
  1  6  1  0  0  0  0
  2  3  1  0  0  0  0
  3  7  1  0  0  0  0
  3  4  2  0  0  0  0
  5  4  1  0  0  0  0
  5  8  1  0  0  0  0
  6  5  2  0  0  0  0
  9 14  1  6  0  0  0
  9 19  1  0  0  0  0
 10 15  1  6  0  0  0
 10  9  1  0  0  0  0
 10  2  1  0  0  0  0
 11 10  1  0  0  0  0
 11 12  1  0  0  0  0
 12 17  1  0  0  0  0
 13  9  1  0  0  0  0
 13 12  1  0  0  0  0
 13 18  1  1  0  0  0
 16 12  1  0  0  0  0
 19 20  1  0  0  0  0
 21 13  1  0  0  0  0
 22 21  1  0  0  0  0
 23 24  1  0  0  0  0
 23  1  1  0  0  0  0
 25 23  1  0  0  0  0
 26 23  1  0  0  0  0
 27 26  2  0  0  0  0
 28 27  1  0  0  0  0
 29 28  1  0  0  0  0
M  END
>  <minimizedAffinity>
-4.59249449

$$$$

 OpenBabel03242514473D

 29 30  0  0  1  0  0  0  0  0999 V2000
   38.7490   31.9080   40.8870 C   0  0  0  0  0  0  0  0  0  0  0  0
   37.7280   31.5500   39.9920 C   0  0  0  0  0  0  0  0  0  0  0  0
   37.0990   32.5610   39.2850 C   0  0  0  0  0  0  0  0  0  0  0  0
   37.4840   33.8610   39.4770 N   0  0  0  0  0  0  0  0  0  0  0  0
   38.4760   34.1610   40.3530 C   0  0  0  0  0  0  0  0  0  0  0  0
   39.1060   33.1940   41.0540 N   0  0  0  0  0  0  0  0  0  0  0  0
   36.3000   32.3520   38.5760 H   0  0  0  0  0  0  0  0  0  0  0  0
   38.8460   35.1540   40.5690 H   0  0  0  0  0  0  0  0  0  0  0  0
   36.2140   29.6910   40.7210 C   0  0  2  0  0  0  0  0  0  0  0  0
   37.3400   30.1160   39.7910 C   0  0  1  0  0  0  0  0  0  0  0  0
   36.9560   29.8150   38.5200 O   0  0  0  0  0  0  0  0  0  0  0  0
   35.6260   29.5330   38.4690 C   0  0  0  0  0  0  0  0  0  0  0  0
   35.3450   28.8450   39.7920 C   0  0  1  0  0  0  0  0  0  0  0  0
   36.5700   29.0780   41.5780 H   0  0  0  0  0  0  0  0  0  0  0  0
   38.1830   29.4660   40.0580 H   0  0  0  0  0  0  0  0  0  0  0  0
   35.4310   28.7970   37.6570 H   0  0  0  0  0  0  0  0  0  0  0  0
   34.9450   30.3710   38.3050 H   0  0  0  0  0  0  0  0  0  0  0  0
   34.2830   28.8620   40.0810 H   0  0  0  0  0  0  0  0  0  0  0  0
   35.4680   30.7120   41.2370 O   0  0  0  0  0  0  0  0  0  0  0  0
   34.6410   30.8440   40.7200 H   0  0  0  0  0  0  0  0  0  0  0  0
   35.8470   27.5560   39.6720 O   0  0  0  0  0  0  0  0  0  0  0  0
   35.5390   27.1210   38.8370 H   0  0  0  0  0  0  0  0  0  0  0  0
   39.4160   30.8130   41.6470 C   0  0  0  0  0  0  0  0  0  0  0  0
   39.0300   30.8590   42.6870 H   0  0  0  0  0  0  0  0  0  0  0  0
   39.1240   29.7970   41.3120 H   0  0  0  0  0  0  0  0  0  0  0  0
   40.8860   31.0010   41.7320 C   0  0  0  0  0  3  0  0  0  0  0  0
   41.5080   31.1430   42.9260 C   0  0  0  0  0  3  0  0  0  0  0  0
   42.9770   31.3410   43.2210 C   0  0  0  0  0  2  0  0  0  0  0  0
   43.3220   30.5380   43.8910 H   0  0  0  0  0  0  0  0  0  0  0  0
  1  6  1  0  0  0  0
  1 23  1  0  0  0  0
  2  1  2  0  0  0  0
  3  4  2  0  0  0  0
  3  2  1  0  0  0  0
  4  5  1  0  0  0  0
  5  8  1  0  0  0  0
  5  6  2  0  0  0  0
  7  3  1  0  0  0  0
  9 19  1  0  0  0  0
  9 14  1  1  0  0  0
 10  2  1  0  0  0  0
 10 15  1  1  0  0  0
 10  9  1  0  0  0  0
 11 10  1  0  0  0  0
 12 11  1  0  0  0  0
 12 13  1  0  0  0  0
 13 18  1  1  0  0  0
 13  9  1  0  0  0  0
 16 12  1  0  0  0  0
 17 12  1  0  0  0  0
 20 19  1  0  0  0  0
 21 13  1  0  0  0  0
 22 21  1  0  0  0  0
 23 26  1  0  0  0  0
 23 24  1  0  0  0  0
 25 23  1  0  0  0  0
 26 27  2  0  0  0  0
 27 28  1  0  0  0  0
 28 29  1  0  0  0  0
M  END
>  <minimizedAffinity>
-4.5285573

$$$$

 OpenBabel03242514473D

 29 30  0  0  1  0  0  0  0  0999 V2000
   36.1400   29.8910   40.6160 C   0  0  0  0  0  0  0  0  0  0  0  0
   37.0430   29.1760   41.4190 C   0  0  0  0  0  0  0  0  0  0  0  0
   38.2210   29.8040   41.7890 C   0  0  0  0  0  0  0  0  0  0  0  0
   38.4660   31.0840   41.3670 N   0  0  0  0  0  0  0  0  0  0  0  0
   37.5630   31.7370   40.5920 C   0  0  0  0  0  0  0  0  0  0  0  0
   36.4080   31.1470   40.2180 N   0  0  0  0  0  0  0  0  0  0  0  0
   38.9640   29.3070   42.4100 H   0  0  0  0  0  0  0  0  0  0  0  0
   37.6700   32.7430   40.2130 H   0  0  0  0  0  0  0  0  0  0  0  0
   37.1500   26.7380   40.8530 C   0  0  2  0  0  0  0  0  0  0  0  0
   36.7390   27.7820   41.8790 C   0  0  1  0  0  0  0  0  0  0  0  0
   37.3230   27.4460   43.0620 O   0  0  0  0  0  0  0  0  0  0  0  0
   38.2900   26.5060   42.8760 C   0  0  0  0  0  0  0  0  0  0  0  0
   37.7570   25.6520   41.7400 C   0  0  1  0  0  0  0  0  0  0  0  0
   36.2870   26.3300   40.2820 H   0  0  0  0  0  0  0  0  0  0  0  0
   35.6540   27.6580   41.9840 H   0  0  0  0  0  0  0  0  0  0  0  0
   38.3610   25.8590   43.7800 H   0  0  0  0  0  0  0  0  0  0  0  0
   39.2980   26.8640   42.6640 H   0  0  0  0  0  0  0  0  0  0  0  0
   38.5360   25.0740   41.2200 H   0  0  0  0  0  0  0  0  0  0  0  0
   38.0780   27.1500   39.9400 O   0  0  0  0  0  0  0  0  0  0  0  0
   38.9840   26.8710   40.2040 H   0  0  0  0  0  0  0  0  0  0  0  0
   36.7700   24.8450   42.2910 O   0  0  0  0  0  0  0  0  0  0  0  0
   37.0850   24.3950   43.1150 H   0  0  0  0  0  0  0  0  0  0  0  0
   34.8770   29.2040   40.2190 C   0  0  0  0  0  0  0  0  0  0  0  0
   34.8720   28.2180   40.7300 H   0  0  0  0  0  0  0  0  0  0  0  0
   33.9620   29.6960   40.6060 H   0  0  0  0  0  0  0  0  0  0  0  0
   34.8220   28.9260   38.7620 C   0  0  0  0  0  3  0  0  0  0  0  0
   33.6410   28.8660   38.1030 C   0  0  0  0  0  3  0  0  0  0  0  0
   33.3760   28.6000   36.6390 C   0  0  0  0  0  2  0  0  0  0  0  0
   32.8050   29.4420   36.2180 H   0  0  0  0  0  0  0  0  0  0  0  0
  1  2  1  0  0  0  0
  2  3  2  0  0  0  0
  2 10  1  0  0  0  0
  3  7  1  0  0  0  0
  4  3  1  0  0  0  0
  5  4  2  0  0  0  0
  6  5  1  0  0  0  0
  6  1  2  0  0  0  0
  8  5  1  0  0  0  0
  9 14  1  6  0  0  0
  9 13  1  0  0  0  0
  9 10  1  0  0  0  0
 10 15  1  1  0  0  0
 10 11  1  0  0  0  0
 12 11  1  0  0  0  0
 12 16  1  0  0  0  0
 13 18  1  6  0  0  0
 13 21  1  0  0  0  0
 13 12  1  0  0  0  0
 17 12  1  0  0  0  0
 19 20  1  0  0  0  0
 19  9  1  0  0  0  0
 21 22  1  0  0  0  0
 23 25  1  0  0  0  0
 23  1  1  0  0  0  0
 23 24  1  0  0  0  0
 26 23  1  0  0  0  0
 27 26  2  0  0  0  0
 28 27  1  0  0  0  0
 29 28  1  0  0  0  0
M  END
>  <minimizedAffinity>
-4.50116014

$$$$
