
 OpenBabel03252509303D

 16 16  0  0  0  0  0  0  0  0999 V2000
   44.5600   35.9720   44.4700 C   0  0  0  0  0  0  0  0  0  0  0  0
   45.3530   35.9370   43.2900 C   0  0  0  0  0  0  0  0  0  0  0  0
   46.2790   34.9110   43.1720 C   0  0  0  0  0  0  0  0  0  0  0  0
   46.3860   33.9960   44.1750 N   0  0  0  0  0  0  0  0  0  0  0  0
   45.6030   34.0660   45.2930 C   0  0  0  0  0  0  0  0  0  0  0  0
   44.7020   35.0550   45.4210 N   0  0  0  0  0  0  0  0  0  0  0  0
   43.8280   36.7690   44.5800 H   0  0  0  0  0  0  0  0  0  0  0  0
   45.1870   36.7110   42.5580 H   0  0  0  0  0  0  0  0  0  0  0  0
   45.7930   33.2760   46.0090 H   0  0  0  0  0  0  0  0  0  0  0  0
   47.0880   34.8850   41.9590 C   0  0  0  0  0  0  0  0  0  0  0  0
   48.0100   34.3380   42.1760 H   0  0  0  0  0  0  0  0  0  0  0  0
   47.3060   35.9130   41.6150 H   0  0  0  0  0  0  0  0  0  0  0  0
   46.4160   34.1870   40.8200 C   0  0  0  0  0  3  0  0  0  0  0  0
   46.9490   33.6990   39.7040 C   0  0  0  0  0  3  0  0  0  0  0  0
   46.2040   33.0130   38.6130 C   0  0  0  0  0  2  0  0  0  0  0  0
   46.3240   31.9090   38.6550 H   0  0  0  0  0  0  0  0  0  0  0  0
  1  7  1  0  0  0  0
  1  6  1  0  0  0  0
  2  1  2  0  0  0  0
  3  2  1  0  0  0  0
  3  4  2  0  0  0  0
  4  5  1  0  0  0  0
  5  6  2  0  0  0  0
  5  9  1  0  0  0  0
  8  2  1  0  0  0  0
 10 11  1  0  0  0  0
 10  3  1  0  0  0  0
 12 10  1  0  0  0  0
 13 10  1  0  0  0  0
 14 13  2  0  0  0  0
 15 16  1  0  0  0  0
 15 14  1  0  0  0  0
M  END
>  <minimizedAffinity>
-3.50888824

>  <minimizedRMSD>
0.191062525

$$$$
