
 OpenBabel03242523433D

 19 19  0  0  1  0  0  0  0  0999 V2000
   46.5710   35.1320   41.9560 C   0  0  1  0  0  0  0  0  0  0  0  0
   46.4200   36.1560   41.5680 H   0  0  0  0  0  0  0  0  0  0  0  0
   45.0640   36.0070   43.6830 C   0  0  0  0  0  0  0  0  0  0  0  0
   45.9790   35.0220   43.2590 C   0  0  0  0  0  0  0  0  0  0  0  0
   46.2460   33.9730   44.1330 C   0  0  0  0  0  0  0  0  0  0  0  0
   45.6140   33.9490   45.3480 N   0  0  0  0  0  0  0  0  0  0  0  0
   44.7450   34.9090   45.7160 C   0  0  0  0  0  0  0  0  0  0  0  0
   44.4600   35.9510   44.8880 N   0  0  0  0  0  0  0  0  0  0  0  0
   44.7870   36.8630   43.0830 H   0  0  0  0  0  0  0  0  0  0  0  0
   46.9350   33.1990   43.8550 H   0  0  0  0  0  0  0  0  0  0  0  0
   44.2430   34.8890   46.6810 H   0  0  0  0  0  0  0  0  0  0  0  0
   48.0540   34.8800   42.0560 C   0  0  0  0  0  0  0  0  0  0  0  0
   48.3120   33.8630   42.3460 H   0  0  0  0  0  0  0  0  0  0  0  0
   48.4570   35.0010   41.0080 H   0  0  0  0  0  0  0  0  0  0  0  0
   48.5470   35.6690   42.6440 H   0  0  0  0  0  0  0  0  0  0  0  0
   45.9790   34.1690   40.9670 C   0  0  0  0  0  3  0  0  0  0  0  0
   44.7050   34.1190   40.5870 C   0  0  0  0  0  3  0  0  0  0  0  0
   44.1590   33.1560   39.6080 C   0  0  0  0  0  2  0  0  0  0  0  0
   43.1880   32.7910   39.9780 H   0  0  0  0  0  0  0  0  0  0  0  0
  1  2  1  6  0  0  0
  1 12  1  0  0  0  0
  1  4  1  0  0  0  0
  3  8  1  0  0  0  0
  4  3  2  0  0  0  0
  4  5  1  0  0  0  0
  5  6  2  0  0  0  0
  6  7  1  0  0  0  0
  7 11  1  0  0  0  0
  8  7  2  0  0  0  0
  9  3  1  0  0  0  0
 10  5  1  0  0  0  0
 12 13  1  0  0  0  0
 12 15  1  0  0  0  0
 14 12  1  0  0  0  0
 16  1  1  0  0  0  0
 17 16  2  0  0  0  0
 18 19  1  0  0  0  0
 18 17  1  0  0  0  0
M  END
>  <minimizedAffinity>
-3.66202974

>  <minimizedRMSD>
0.997716308

$$$$
