
 OpenBabel03252509303D

 16 16  0  0  0  0  0  0  0  0999 V2000
   44.5600   35.9730   44.4700 C   0  0  0  0  0  0  0  0  0  0  0  0
   45.3540   35.9370   43.2900 C   0  0  0  0  0  0  0  0  0  0  0  0
   46.2790   34.9110   43.1730 C   0  0  0  0  0  0  0  0  0  0  0  0
   46.3860   33.9960   44.1760 N   0  0  0  0  0  0  0  0  0  0  0  0
   45.6020   34.0660   45.2940 C   0  0  0  0  0  0  0  0  0  0  0  0
   44.7010   35.0550   45.4210 N   0  0  0  0  0  0  0  0  0  0  0  0
   43.8290   36.7700   44.5800 H   0  0  0  0  0  0  0  0  0  0  0  0
   45.1880   36.7120   42.5580 H   0  0  0  0  0  0  0  0  0  0  0  0
   45.7920   33.2760   46.0090 H   0  0  0  0  0  0  0  0  0  0  0  0
   47.0880   34.8850   41.9600 C   0  0  0  0  0  0  0  0  0  0  0  0
   48.0090   34.3360   42.1760 H   0  0  0  0  0  0  0  0  0  0  0  0
   47.3070   35.9130   41.6160 H   0  0  0  0  0  0  0  0  0  0  0  0
   46.4150   34.1870   40.8200 C   0  0  0  0  0  3  0  0  0  0  0  0
   46.9480   33.6980   39.7050 C   0  0  0  0  0  3  0  0  0  0  0  0
   46.2040   33.0130   38.6120 C   0  0  0  0  0  2  0  0  0  0  0  0
   46.3220   31.9090   38.6540 H   0  0  0  0  0  0  0  0  0  0  0  0
  1  7  1  0  0  0  0
  1  6  1  0  0  0  0
  2  1  2  0  0  0  0
  3  2  1  0  0  0  0
  3  4  2  0  0  0  0
  4  5  1  0  0  0  0
  5  6  2  0  0  0  0
  5  9  1  0  0  0  0
  8  2  1  0  0  0  0
 10 11  1  0  0  0  0
 10  3  1  0  0  0  0
 12 10  1  0  0  0  0
 13 10  1  0  0  0  0
 14 13  2  0  0  0  0
 15 16  1  0  0  0  0
 15 14  1  0  0  0  0
M  END
>  <minimizedAffinity>
-3.50885558

>  <minimizedRMSD>
0.484086394

$$$$
