
 OpenBabel03252508473D

 40 41  0  0  0  0  0  0  0  0999 V2000
   42.9380   32.5340   41.5030 C   0  0  0  0  0  0  0  0  0  0  0  0
   43.5990   31.7070   41.1370 H   0  0  0  0  0  0  0  0  0  0  0  0
   42.4570   32.9830   40.6290 H   0  0  0  0  0  0  0  0  0  0  0  0
   43.6960   34.8980   41.8540 C   0  0  0  0  0  0  0  0  0  0  0  0
   43.8400   33.5390   42.1250 C   0  0  0  0  0  0  0  0  0  0  0  0
   44.8510   33.1630   42.9900 C   0  0  0  0  0  0  0  0  0  0  0  0
   45.6680   34.0990   43.5480 C   0  0  0  0  0  0  0  0  0  0  0  0
   45.5430   35.4360   43.2960 C   0  0  0  0  0  0  0  0  0  0  0  0
   44.5250   35.7810   42.4280 C   0  0  0  0  0  0  0  0  0  0  0  0
   44.9900   32.1250   43.2200 H   0  0  0  0  0  0  0  0  0  0  0  0
   46.4530   33.7660   44.2250 H   0  0  0  0  0  0  0  0  0  0  0  0
   46.1820   36.1970   43.7300 H   0  0  0  0  0  0  0  0  0  0  0  0
   44.3960   36.8420   42.2040 H   0  0  0  0  0  0  0  0  0  0  0  0
   40.4150   36.0650   40.3550 C   0  0  0  0  0  0  0  0  0  0  0  0
   41.3890   35.7580   41.3280 C   0  0  0  0  0  0  0  0  0  0  0  0
   42.6150   35.2500   40.9340 C   0  0  0  0  0  0  0  0  0  0  0  0
   42.8200   35.0720   39.6020 N   0  0  0  0  0  0  0  0  0  0  0  0
   41.8720   35.3730   38.6760 C   0  0  0  0  0  0  0  0  0  0  0  0
   40.6770   35.8680   39.0700 N   0  0  0  0  0  0  0  0  0  0  0  0
   39.4850   36.4570   40.7520 H   0  0  0  0  0  0  0  0  0  0  0  0
   41.2480   35.8920   42.3960 H   0  0  0  0  0  0  0  0  0  0  0  0
   42.1540   35.1870   37.6540 H   0  0  0  0  0  0  0  0  0  0  0  0
   41.9870   31.9610   42.4160 N   0  0  0  0  0  0  0  0  0  0  0  0
   42.2070   30.9730   42.6650 H   0  0  0  0  0  0  0  0  0  0  0  0
   40.3830   32.0920   41.8380 S   0  0  0  0  0  0  0  0  0  0  0  0
   39.6500   33.2080   42.5530 O   0  0  0  0  0  0  0  0  0  0  0  0
   38.7100   33.1880   42.8630 H   0  0  0  0  0  0  0  0  0  0  0  0
   39.6500   30.7990   42.0170 O   0  0  0  0  0  0  0  0  0  0  0  0
   40.0870   29.9050   42.1380 H   0  0  0  0  0  0  0  0  0  0  0  0
   40.4460   32.4650   40.2070 O   0  0  0  0  0  0  0  0  0  0  0  0
   39.1430   32.6310   39.7590 C   0  0  0  0  0  0  0  0  0  0  0  0
   38.7980   33.6310   40.1390 H   0  0  0  0  0  0  0  0  0  0  0  0
   38.4530   31.8330   40.0240 H   0  0  0  0  0  0  0  0  0  0  0  0
   39.1580   32.8120   38.2270 C   0  0  0  0  0  0  0  0  0  0  0  0
   38.6910   33.7710   37.9510 H   0  0  0  0  0  0  0  0  0  0  0  0
   40.1960   32.7200   37.8500 H   0  0  0  0  0  0  0  0  0  0  0  0
   38.3790   31.6570   37.7000 C   0  0  0  0  0  3  0  0  0  0  0  0
   38.8950   30.5730   37.1820 C   0  0  0  0  0  3  0  0  0  0  0  0
   40.3570   30.4210   37.0840 C   0  0  0  0  0  2  0  0  0  0  0  0
   40.5900   29.3210   36.9920 H   0  0  0  0  0  0  0  0  0  0  0  0
  1  5  1  0  0  0  0
  1 23  1  0  0  0  0
  2  1  1  0  0  0  0
  3  1  1  0  0  0  0
  4  5  2  0  0  0  0
  4  9  1  0  0  0  0
  5  6  1  0  0  0  0
  6 10  1  0  0  0  0
  6  7  2  0  0  0  0
  7 11  1  0  0  0  0
  8  7  1  0  0  0  0
  8 12  1  0  0  0  0
  9  8  2  0  0  0  0
 13  9  1  0  0  0  0
 14 20  1  0  0  0  0
 14 15  1  0  0  0  0
 15 21  1  0  0  0  0
 16 15  2  0  0  0  0
 16  4  1  0  0  0  0
 17 16  1  0  0  0  0
 18 19  1  0  0  0  0
 18 17  2  0  0  0  0
 19 14  2  0  0  0  0
 22 18  1  0  0  0  0
 23 24  1  0  0  0  0
 25 28  1  0  0  0  0
 25 23  1  0  0  0  0
 25 26  1  0  0  0  0
 26 27  1  0  0  0  0
 28 29  1  0  0  0  0
 30 25  1  0  0  0  0
 31 33  1  0  0  0  0
 31 32  1  0  0  0  0
 31 30  1  0  0  0  0
 34 31  1  0  0  0  0
 35 34  1  0  0  0  0
 36 34  1  0  0  0  0
 37 34  1  0  0  0  0
 38 37  2  0  0  0  0
 39 38  1  0  0  0  0
 40 39  1  0  0  0  0
M  END
>  <minimizedAffinity>
-5.15691566

>  <minimizedRMSD>
3.01012301

$$$$
