
 OpenBabel03242519293D

 38 40  0  0  0  0  0  0  0  0999 V2000
   37.0440   28.6730   41.7890 C   0  0  0  0  0  0  0  0  0  0  0  0
   35.8220   28.4600   41.1060 C   0  0  0  0  0  0  0  0  0  0  0  0
   35.3170   29.4590   40.2640 C   0  0  0  0  0  0  0  0  0  0  0  0
   36.0600   30.6050   40.1570 N   0  0  0  0  0  0  0  0  0  0  0  0
   37.2470   30.7670   40.8440 C   0  0  0  0  0  0  0  0  0  0  0  0
   37.7110   29.8150   41.6350 N   0  0  0  0  0  0  0  0  0  0  0  0
   35.1810   27.6040   41.1310 H   0  0  0  0  0  0  0  0  0  0  0  0
   34.4020   29.3740   39.7120 H   0  0  0  0  0  0  0  0  0  0  0  0
   37.4680   27.5560   42.6450 C   0  0  0  0  0  0  0  0  0  0  0  0
   38.4910   27.8960   43.6170 C   0  0  0  0  0  0  0  0  0  0  0  0
   39.8040   27.2590   43.3820 C   0  0  0  0  0  0  0  0  0  0  0  0
   39.6490   25.7330   43.3140 C   0  0  0  0  0  0  0  0  0  0  0  0
   38.4910   25.2780   42.4920 C   0  0  0  0  0  0  0  0  0  0  0  0
   37.8990   26.4190   41.6810 C   0  0  0  0  0  0  0  0  0  0  0  0
   36.5380   27.1170   43.1100 H   0  0  0  0  0  0  0  0  0  0  0  0
   38.1500   27.5660   44.6350 H   0  0  0  0  0  0  0  0  0  0  0  0
   38.6380   28.9920   43.7260 H   0  0  0  0  0  0  0  0  0  0  0  0
   40.4480   27.4490   44.2820 H   0  0  0  0  0  0  0  0  0  0  0  0
   40.3510   27.5480   42.4880 H   0  0  0  0  0  0  0  0  0  0  0  0
   40.6260   25.2810   43.0360 H   0  0  0  0  0  0  0  0  0  0  0  0
   39.4640   25.4210   44.3730 H   0  0  0  0  0  0  0  0  0  0  0  0
   38.8740   24.5570   41.7200 H   0  0  0  0  0  0  0  0  0  0  0  0
   37.7120   24.7500   43.0530 H   0  0  0  0  0  0  0  0  0  0  0  0
   38.6720   26.8110   40.9920 H   0  0  0  0  0  0  0  0  0  0  0  0
   36.9900   26.0510   41.1740 H   0  0  0  0  0  0  0  0  0  0  0  0
   37.8900   32.0540   40.6100 C   0  0  0  0  0  0  0  0  0  0  0  0
   37.2090   32.9990   39.9230 N   0  0  0  0  0  0  0  0  0  0  0  0
   37.9830   34.1070   39.8230 C   0  0  0  0  0  0  0  0  0  0  0  0
   39.1570   33.8310   40.4610 N   0  0  0  0  0  0  0  0  0  0  0  0
   39.1050   32.5790   40.9410 N   0  0  0  0  0  0  0  0  0  0  0  0
   37.7190   35.0350   39.3310 H   0  0  0  0  0  0  0  0  0  0  0  0
   40.2990   34.7230   40.6110 C   0  0  0  0  0  0  0  0  0  0  0  0
   40.8540   34.4040   41.5290 H   0  0  0  0  0  0  0  0  0  0  0  0
   39.9770   35.7720   40.7630 H   0  0  0  0  0  0  0  0  0  0  0  0
   41.1850   34.5630   39.4360 C   0  0  0  0  0  3  0  0  0  0  0  0
   41.4820   33.7710   38.4210 C   0  0  0  0  0  3  0  0  0  0  0  0
   42.5080   33.9050   37.3270 C   0  0  0  0  0  2  0  0  0  0  0  0
   42.0320   34.0830   36.3520 H   0  0  0  0  0  0  0  0  0  0  0  0
  1  9  1  0  0  0  0
  2  7  1  0  0  0  0
  2  1  2  0  0  0  0
  3  2  1  0  0  0  0
  4  3  2  0  0  0  0
  4  5  1  0  0  0  0
  5  6  2  0  0  0  0
  6  1  1  0  0  0  0
  8  3  1  0  0  0  0
  9 15  1  0  0  0  0
  9 10  1  0  0  0  0
 10 17  1  0  0  0  0
 10 16  1  0  0  0  0
 11 10  1  0  0  0  0
 11 18  1  0  0  0  0
 12 11  1  0  0  0  0
 12 21  1  0  0  0  0
 13 23  1  0  0  0  0
 13 12  1  0  0  0  0
 14 13  1  0  0  0  0
 14  9  1  0  0  0  0
 19 11  1  0  0  0  0
 20 12  1  0  0  0  0
 22 13  1  0  0  0  0
 24 14  1  0  0  0  0
 25 14  1  0  0  0  0
 26  5  1  0  0  0  0
 26 30  2  0  0  0  0
 27 26  1  0  0  0  0
 28 27  2  0  0  0  0
 28 29  1  0  0  0  0
 29 32  1  0  0  0  0
 29 30  1  0  0  0  0
 31 28  1  0  0  0  0
 32 34  1  0  0  0  0
 32 33  1  0  0  0  0
 35 32  1  0  0  0  0
 36 35  2  0  0  0  0
 37 36  1  0  0  0  0
 38 37  1  0  0  0  0
M  END
>  <minimizedAffinity>
-5.68791437

$$$$

 OpenBabel03242519293D

 38 40  0  0  0  0  0  0  0  0999 V2000
   36.8280   28.1260   41.7150 C   0  0  0  0  0  0  0  0  0  0  0  0
   37.1480   29.4290   42.1690 C   0  0  0  0  0  0  0  0  0  0  0  0
   36.7290   30.5410   41.4300 C   0  0  0  0  0  0  0  0  0  0  0  0
   36.0190   30.2870   40.2860 N   0  0  0  0  0  0  0  0  0  0  0  0
   35.7310   28.9970   39.8820 C   0  0  0  0  0  0  0  0  0  0  0  0
   36.1340   27.9570   40.5920 N   0  0  0  0  0  0  0  0  0  0  0  0
   37.6940   29.7180   43.0430 H   0  0  0  0  0  0  0  0  0  0  0  0
   36.9300   31.5570   41.7060 H   0  0  0  0  0  0  0  0  0  0  0  0
   37.3250   27.0410   42.5730 C   0  0  0  0  0  0  0  0  0  0  0  0
   38.1720   27.4790   43.6670 C   0  0  0  0  0  0  0  0  0  0  0  0
   39.5850   27.0590   43.5620 C   0  0  0  0  0  0  0  0  0  0  0  0
   39.6770   25.5330   43.4220 C   0  0  0  0  0  0  0  0  0  0  0  0
   38.6990   24.9540   42.4570 C   0  0  0  0  0  0  0  0  0  0  0  0
   38.0280   26.0340   41.6250 C   0  0  0  0  0  0  0  0  0  0  0  0
   36.4290   26.4430   42.9120 H   0  0  0  0  0  0  0  0  0  0  0  0
   37.7790   27.0480   44.6270 H   0  0  0  0  0  0  0  0  0  0  0  0
   38.1350   28.5780   43.8310 H   0  0  0  0  0  0  0  0  0  0  0  0
   40.0910   27.2960   44.5360 H   0  0  0  0  0  0  0  0  0  0  0  0
   40.1740   27.4730   42.7460 H   0  0  0  0  0  0  0  0  0  0  0  0
   40.7360   25.2480   43.2420 H   0  0  0  0  0  0  0  0  0  0  0  0
   39.4300   25.1410   44.4410 H   0  0  0  0  0  0  0  0  0  0  0  0
   39.2690   24.3400   41.7090 H   0  0  0  0  0  0  0  0  0  0  0  0
   37.9550   24.2860   42.9070 H   0  0  0  0  0  0  0  0  0  0  0  0
   38.8010   26.5730   41.0430 H   0  0  0  0  0  0  0  0  0  0  0  0
   37.2470   25.5610   41.0040 H   0  0  0  0  0  0  0  0  0  0  0  0
   34.9750   28.9260   38.6390 C   0  0  0  0  0  0  0  0  0  0  0  0
   35.6580   28.8460   37.4730 N   0  0  0  0  0  0  0  0  0  0  0  0
   34.7690   28.7870   36.4520 C   0  0  0  0  0  0  0  0  0  0  0  0
   33.5220   28.8330   37.0060 N   0  0  0  0  0  0  0  0  0  0  0  0
   33.6440   28.9180   38.3400 N   0  0  0  0  0  0  0  0  0  0  0  0
   35.0030   28.7170   35.3980 H   0  0  0  0  0  0  0  0  0  0  0  0
   32.2510   28.7980   36.2960 C   0  0  0  0  0  0  0  0  0  0  0  0
   31.7150   27.8680   36.6140 H   0  0  0  0  0  0  0  0  0  0  0  0
   32.3990   28.7400   35.2000 H   0  0  0  0  0  0  0  0  0  0  0  0
   31.4480   29.9740   36.7020 C   0  0  0  0  0  3  0  0  0  0  0  0
   30.8490   31.0640   36.2550 C   0  0  0  0  0  3  0  0  0  0  0  0
   30.0610   32.1260   36.9750 C   0  0  0  0  0  2  0  0  0  0  0  0
   28.9940   32.0810   36.7120 H   0  0  0  0  0  0  0  0  0  0  0  0
  1  2  1  0  0  0  0
  1  9  1  0  0  0  0
  2  7  1  0  0  0  0
  3  8  1  0  0  0  0
  3  2  2  0  0  0  0
  4  3  1  0  0  0  0
  5  4  2  0  0  0  0
  5  6  1  0  0  0  0
  6  1  2  0  0  0  0
  9 15  1  0  0  0  0
  9 10  1  0  0  0  0
 10 17  1  0  0  0  0
 10 16  1  0  0  0  0
 11 10  1  0  0  0  0
 11 18  1  0  0  0  0
 12 11  1  0  0  0  0
 12 21  1  0  0  0  0
 13 23  1  0  0  0  0
 13 12  1  0  0  0  0
 14 13  1  0  0  0  0
 14  9  1  0  0  0  0
 19 11  1  0  0  0  0
 20 12  1  0  0  0  0
 22 13  1  0  0  0  0
 24 14  1  0  0  0  0
 25 14  1  0  0  0  0
 26  5  1  0  0  0  0
 27 26  1  0  0  0  0
 28 29  1  0  0  0  0
 28 27  2  0  0  0  0
 29 30  1  0  0  0  0
 30 26  2  0  0  0  0
 31 28  1  0  0  0  0
 32 33  1  0  0  0  0
 32 35  1  0  0  0  0
 32 29  1  0  0  0  0
 34 32  1  0  0  0  0
 36 35  2  0  0  0  0
 36 37  1  0  0  0  0
 38 37  1  0  0  0  0
M  END
>  <minimizedAffinity>
-5.50444221

$$$$

 OpenBabel03242519293D

 38 40  0  0  0  0  0  0  0  0999 V2000
   37.5680   30.4500   40.9650 C   0  0  0  0  0  0  0  0  0  0  0  0
   36.5640   30.2560   39.9850 C   0  0  0  0  0  0  0  0  0  0  0  0
   36.6470   30.9390   38.7650 C   0  0  0  0  0  0  0  0  0  0  0  0
   37.7230   31.7710   38.6000 N   0  0  0  0  0  0  0  0  0  0  0  0
   38.6780   31.9280   39.5870 C   0  0  0  0  0  0  0  0  0  0  0  0
   38.5850   31.2750   40.7330 N   0  0  0  0  0  0  0  0  0  0  0  0
   35.6970   29.6310   40.0290 H   0  0  0  0  0  0  0  0  0  0  0  0
   35.9310   30.8460   37.9740 H   0  0  0  0  0  0  0  0  0  0  0  0
   37.3690   29.6820   42.2030 C   0  0  0  0  0  0  0  0  0  0  0  0
   38.5710   29.4920   42.9940 C   0  0  0  0  0  0  0  0  0  0  0  0
   39.0500   28.0960   43.0670 C   0  0  0  0  0  0  0  0  0  0  0  0
   37.9380   27.1800   43.5980 C   0  0  0  0  0  0  0  0  0  0  0  0
   36.6020   27.4330   42.9860 C   0  0  0  0  0  0  0  0  0  0  0  0
   36.7060   28.3460   41.7750 C   0  0  0  0  0  0  0  0  0  0  0  0
   36.5310   30.1770   42.7750 H   0  0  0  0  0  0  0  0  0  0  0  0
   38.3670   29.8190   44.0490 H   0  0  0  0  0  0  0  0  0  0  0  0
   39.4110   30.1440   42.6690 H   0  0  0  0  0  0  0  0  0  0  0  0
   39.8640   28.0480   43.8390 H   0  0  0  0  0  0  0  0  0  0  0  0
   39.4070   27.6370   42.1480 H   0  0  0  0  0  0  0  0  0  0  0  0
   38.2830   26.1250   43.5490 H   0  0  0  0  0  0  0  0  0  0  0  0
   37.8690   27.4230   44.6890 H   0  0  0  0  0  0  0  0  0  0  0  0
   36.2200   26.4620   42.5700 H   0  0  0  0  0  0  0  0  0  0  0  0
   35.8400   27.7950   43.6850 H   0  0  0  0  0  0  0  0  0  0  0  0
   37.3430   27.8600   41.0110 H   0  0  0  0  0  0  0  0  0  0  0  0
   35.6850   28.5790   41.4260 H   0  0  0  0  0  0  0  0  0  0  0  0
   39.7410   32.8590   39.2320 C   0  0  0  0  0  0  0  0  0  0  0  0
   39.8490   34.0110   39.9330 N   0  0  0  0  0  0  0  0  0  0  0  0
   40.8950   34.7210   39.4440 C   0  0  0  0  0  0  0  0  0  0  0  0
   41.4340   33.9880   38.4270 N   0  0  0  0  0  0  0  0  0  0  0  0
   40.7320   32.8520   38.2940 N   0  0  0  0  0  0  0  0  0  0  0  0
   41.2390   35.6860   39.7950 H   0  0  0  0  0  0  0  0  0  0  0  0
   42.5790   34.3490   37.6030 C   0  0  0  0  0  0  0  0  0  0  0  0
   42.6910   35.4610   37.6540 H   0  0  0  0  0  0  0  0  0  0  0  0
   42.4160   34.0780   36.5410 H   0  0  0  0  0  0  0  0  0  0  0  0
   43.7920   33.7190   38.1720 C   0  0  0  0  0  3  0  0  0  0  0  0
   44.2800   33.1130   39.2390 C   0  0  0  0  0  3  0  0  0  0  0  0
   45.6500   32.5530   39.5200 C   0  0  0  0  0  2  0  0  0  0  0  0
   45.6310   31.4540   39.5680 H   0  0  0  0  0  0  0  0  0  0  0  0
  1  9  1  0  0  0  0
  2  7  1  0  0  0  0
  2  1  2  0  0  0  0
  3  2  1  0  0  0  0
  4  3  2  0  0  0  0
  4  5  1  0  0  0  0
  5  6  2  0  0  0  0
  6  1  1  0  0  0  0
  8  3  1  0  0  0  0
  9 15  1  0  0  0  0
  9 10  1  0  0  0  0
 10 11  1  0  0  0  0
 10 16  1  0  0  0  0
 11 12  1  0  0  0  0
 11 18  1  0  0  0  0
 12 21  1  0  0  0  0
 13 12  1  0  0  0  0
 13 23  1  0  0  0  0
 14  9  1  0  0  0  0
 14 13  1  0  0  0  0
 17 10  1  0  0  0  0
 19 11  1  0  0  0  0
 20 12  1  0  0  0  0
 22 13  1  0  0  0  0
 24 14  1  0  0  0  0
 25 14  1  0  0  0  0
 26  5  1  0  0  0  0
 26 27  1  0  0  0  0
 28 31  1  0  0  0  0
 28 27  2  0  0  0  0
 29 28  1  0  0  0  0
 30 29  1  0  0  0  0
 30 26  2  0  0  0  0
 32 33  1  0  0  0  0
 32 35  1  0  0  0  0
 32 29  1  0  0  0  0
 34 32  1  0  0  0  0
 35 36  2  0  0  0  0
 36 37  1  0  0  0  0
 37 38  1  0  0  0  0
M  END
>  <minimizedAffinity>
-5.35137892

$$$$

 OpenBabel03242519293D

 38 40  0  0  0  0  0  0  0  0999 V2000
   37.4590   26.7140   41.8770 C   0  0  0  0  0  0  0  0  0  0  0  0
   38.2560   26.8770   43.0370 C   0  0  0  0  0  0  0  0  0  0  0  0
   38.7740   28.1400   43.3490 C   0  0  0  0  0  0  0  0  0  0  0  0
   38.4670   29.1590   42.4870 N   0  0  0  0  0  0  0  0  0  0  0  0
   37.6850   28.9510   41.3660 C   0  0  0  0  0  0  0  0  0  0  0  0
   37.2030   27.7520   41.0860 N   0  0  0  0  0  0  0  0  0  0  0  0
   38.5440   26.1420   43.7610 H   0  0  0  0  0  0  0  0  0  0  0  0
   39.3830   28.3450   44.2070 H   0  0  0  0  0  0  0  0  0  0  0  0
   36.9780   25.3430   41.6550 C   0  0  0  0  0  0  0  0  0  0  0  0
   37.8700   24.3050   42.1400 C   0  0  0  0  0  0  0  0  0  0  0  0
   38.4910   23.4800   41.0820 C   0  0  0  0  0  0  0  0  0  0  0  0
   37.4070   22.8510   40.1950 C   0  0  0  0  0  0  0  0  0  0  0  0
   36.3220   23.7950   39.8030 C   0  0  0  0  0  0  0  0  0  0  0  0
   36.6850   25.2330   40.1360 C   0  0  0  0  0  0  0  0  0  0  0  0
   35.9380   25.2770   42.0910 H   0  0  0  0  0  0  0  0  0  0  0  0
   37.2900   23.6040   42.7970 H   0  0  0  0  0  0  0  0  0  0  0  0
   38.6690   24.6970   42.8050 H   0  0  0  0  0  0  0  0  0  0  0  0
   39.0060   22.6130   41.5760 H   0  0  0  0  0  0  0  0  0  0  0  0
   39.1880   23.9690   40.4060 H   0  0  0  0  0  0  0  0  0  0  0  0
   37.8940   22.3200   39.3490 H   0  0  0  0  0  0  0  0  0  0  0  0
   36.9520   22.0490   40.8310 H   0  0  0  0  0  0  0  0  0  0  0  0
   36.2370   23.7820   38.6820 H   0  0  0  0  0  0  0  0  0  0  0  0
   35.3300   23.5410   40.1940 H   0  0  0  0  0  0  0  0  0  0  0  0
   37.5990   25.5130   39.5760 H   0  0  0  0  0  0  0  0  0  0  0  0
   35.8120   25.8730   39.9190 H   0  0  0  0  0  0  0  0  0  0  0  0
   37.4740   30.1510   40.5670 C   0  0  0  0  0  0  0  0  0  0  0  0
   37.1010   30.0070   39.2750 N   0  0  0  0  0  0  0  0  0  0  0  0
   36.9580   31.2370   38.7230 C   0  0  0  0  0  0  0  0  0  0  0  0
   37.2500   32.1460   39.6980 N   0  0  0  0  0  0  0  0  0  0  0  0
   37.5660   31.4880   40.8240 N   0  0  0  0  0  0  0  0  0  0  0  0
   36.6670   31.4560   37.7040 H   0  0  0  0  0  0  0  0  0  0  0  0
   37.2330   33.5970   39.5710 C   0  0  0  0  0  0  0  0  0  0  0  0
   36.4490   33.9850   40.2680 H   0  0  0  0  0  0  0  0  0  0  0  0
   36.9530   33.9110   38.5460 H   0  0  0  0  0  0  0  0  0  0  0  0
   38.5500   34.1260   39.9890 C   0  0  0  0  0  3  0  0  0  0  0  0
   39.8560   33.9630   39.8660 C   0  0  0  0  0  3  0  0  0  0  0  0
   41.0100   34.7240   40.4640 C   0  0  0  0  0  2  0  0  0  0  0  0
   41.5510   35.2980   39.6980 H   0  0  0  0  0  0  0  0  0  0  0  0
  1  2  1  0  0  0  0
  2  3  2  0  0  0  0
  2  7  1  0  0  0  0
  3  8  1  0  0  0  0
  4  3  1  0  0  0  0
  5  4  2  0  0  0  0
  6  5  1  0  0  0  0
  6  1  2  0  0  0  0
  9  1  1  0  0  0  0
  9 15  1  0  0  0  0
  9 10  1  0  0  0  0
 10 16  1  0  0  0  0
 10 17  1  0  0  0  0
 11 18  1  0  0  0  0
 11 10  1  0  0  0  0
 12 21  1  0  0  0  0
 12 11  1  0  0  0  0
 13 14  1  0  0  0  0
 13 23  1  0  0  0  0
 13 12  1  0  0  0  0
 14  9  1  0  0  0  0
 19 11  1  0  0  0  0
 20 12  1  0  0  0  0
 22 13  1  0  0  0  0
 24 14  1  0  0  0  0
 25 14  1  0  0  0  0
 26 30  2  0  0  0  0
 26  5  1  0  0  0  0
 27 26  1  0  0  0  0
 28 27  2  0  0  0  0
 28 29  1  0  0  0  0
 29 30  1  0  0  0  0
 31 28  1  0  0  0  0
 32 29  1  0  0  0  0
 32 35  1  0  0  0  0
 32 33  1  0  0  0  0
 34 32  1  0  0  0  0
 36 35  2  0  0  0  0
 36 37  1  0  0  0  0
 38 37  1  0  0  0  0
M  END
>  <minimizedAffinity>
-5.32460928

$$$$

 OpenBabel03242519293D

 38 40  0  0  0  0  0  0  0  0999 V2000
   37.0000   27.9460   41.7830 C   0  0  0  0  0  0  0  0  0  0  0  0
   37.1880   29.2560   42.2880 C   0  0  0  0  0  0  0  0  0  0  0  0
   36.7360   30.3540   41.5460 C   0  0  0  0  0  0  0  0  0  0  0  0
   36.1280   30.0790   40.3490 N   0  0  0  0  0  0  0  0  0  0  0  0
   35.9690   28.7830   39.8980 C   0  0  0  0  0  0  0  0  0  0  0  0
   36.4000   27.7570   40.6100 N   0  0  0  0  0  0  0  0  0  0  0  0
   37.6480   29.5610   43.2050 H   0  0  0  0  0  0  0  0  0  0  0  0
   36.8390   31.3740   41.8590 H   0  0  0  0  0  0  0  0  0  0  0  0
   37.5190   26.8780   42.6490 C   0  0  0  0  0  0  0  0  0  0  0  0
   38.3770   27.3390   43.7260 C   0  0  0  0  0  0  0  0  0  0  0  0
   39.7920   26.9310   43.6070 C   0  0  0  0  0  0  0  0  0  0  0  0
   39.8970   25.4040   43.4870 C   0  0  0  0  0  0  0  0  0  0  0  0
   38.9110   24.8020   42.5440 C   0  0  0  0  0  0  0  0  0  0  0  0
   38.2190   25.8640   41.7060 C   0  0  0  0  0  0  0  0  0  0  0  0
   36.6340   26.2770   43.0090 H   0  0  0  0  0  0  0  0  0  0  0  0
   38.0000   26.9180   44.6970 H   0  0  0  0  0  0  0  0  0  0  0  0
   38.3310   28.4400   43.8750 H   0  0  0  0  0  0  0  0  0  0  0  0
   40.3090   27.1870   44.5710 H   0  0  0  0  0  0  0  0  0  0  0  0
   40.3660   27.3390   42.7780 H   0  0  0  0  0  0  0  0  0  0  0  0
   40.9560   25.1270   43.2970 H   0  0  0  0  0  0  0  0  0  0  0  0
   39.6660   25.0240   44.5150 H   0  0  0  0  0  0  0  0  0  0  0  0
   39.4770   24.1830   41.7970 H   0  0  0  0  0  0  0  0  0  0  0  0
   38.1790   24.1340   43.0130 H   0  0  0  0  0  0  0  0  0  0  0  0
   38.9790   26.4020   41.1060 H   0  0  0  0  0  0  0  0  0  0  0  0
   37.4340   25.3750   41.1030 H   0  0  0  0  0  0  0  0  0  0  0  0
   35.3080   28.6900   38.6020 C   0  0  0  0  0  0  0  0  0  0  0  0
   33.9680   28.8680   38.5490 N   0  0  0  0  0  0  0  0  0  0  0  0
   33.5640   28.7430   37.2620 C   0  0  0  0  0  0  0  0  0  0  0  0
   34.6780   28.4840   36.5170 N   0  0  0  0  0  0  0  0  0  0  0  0
   35.7440   28.4500   37.3320 N   0  0  0  0  0  0  0  0  0  0  0  0
   32.5500   28.8330   36.8930 H   0  0  0  0  0  0  0  0  0  0  0  0
   34.7360   28.2730   35.0780 C   0  0  0  0  0  0  0  0  0  0  0  0
   33.6860   28.1310   34.7170 H   0  0  0  0  0  0  0  0  0  0  0  0
   35.3030   27.3560   34.8240 H   0  0  0  0  0  0  0  0  0  0  0  0
   35.2990   29.4860   34.4420 C   0  0  0  0  0  3  0  0  0  0  0  0
   36.2610   29.9300   33.6530 C   0  0  0  0  0  3  0  0  0  0  0  0
   36.5800   31.3190   33.1640 C   0  0  0  0  0  2  0  0  0  0  0  0
   36.3850   31.4180   32.0870 H   0  0  0  0  0  0  0  0  0  0  0  0
  1  2  1  0  0  0  0
  1  9  1  0  0  0  0
  2  7  1  0  0  0  0
  3  8  1  0  0  0  0
  3  2  2  0  0  0  0
  4  3  1  0  0  0  0
  5  4  2  0  0  0  0
  5  6  1  0  0  0  0
  6  1  2  0  0  0  0
  9 15  1  0  0  0  0
  9 10  1  0  0  0  0
 10 17  1  0  0  0  0
 10 16  1  0  0  0  0
 11 10  1  0  0  0  0
 11 18  1  0  0  0  0
 12 11  1  0  0  0  0
 12 21  1  0  0  0  0
 13 23  1  0  0  0  0
 13 12  1  0  0  0  0
 14 13  1  0  0  0  0
 14  9  1  0  0  0  0
 19 11  1  0  0  0  0
 20 12  1  0  0  0  0
 22 13  1  0  0  0  0
 24 14  1  0  0  0  0
 25 14  1  0  0  0  0
 26  5  1  0  0  0  0
 27 26  1  0  0  0  0
 28 27  2  0  0  0  0
 29 28  1  0  0  0  0
 29 30  1  0  0  0  0
 30 26  2  0  0  0  0
 31 28  1  0  0  0  0
 32 29  1  0  0  0  0
 33 32  1  0  0  0  0
 34 32  1  0  0  0  0
 35 32  1  0  0  0  0
 36 35  2  0  0  0  0
 37 36  1  0  0  0  0
 38 37  1  0  0  0  0
M  END
>  <minimizedAffinity>
-5.23060751

$$$$

 OpenBabel03242519293D

 38 40  0  0  0  0  0  0  0  0999 V2000
   37.0900   29.0160   41.6950 C   0  0  0  0  0  0  0  0  0  0  0  0
   37.6940   28.9880   42.9760 C   0  0  0  0  0  0  0  0  0  0  0  0
   38.0620   27.7610   43.5410 C   0  0  0  0  0  0  0  0  0  0  0  0
   37.8060   26.6410   42.7950 N   0  0  0  0  0  0  0  0  0  0  0  0
   37.2140   26.7180   41.5490 C   0  0  0  0  0  0  0  0  0  0  0  0
   36.8720   27.8850   41.0290 N   0  0  0  0  0  0  0  0  0  0  0  0
   37.9290   29.8080   43.6230 H   0  0  0  0  0  0  0  0  0  0  0  0
   38.5230   27.6560   44.5020 H   0  0  0  0  0  0  0  0  0  0  0  0
   36.7460   30.3610   41.2110 C   0  0  0  0  0  0  0  0  0  0  0  0
   35.9980   30.3810   39.9670 C   0  0  0  0  0  0  0  0  0  0  0  0
   36.7290   30.9470   38.8150 C   0  0  0  0  0  0  0  0  0  0  0  0
   37.2180   32.3650   39.1410 C   0  0  0  0  0  0  0  0  0  0  0  0
   37.8290   32.4980   40.4940 C   0  0  0  0  0  0  0  0  0  0  0  0
   38.0840   31.1410   41.1280 C   0  0  0  0  0  0  0  0  0  0  0  0
   36.2230   30.8990   42.0560 H   0  0  0  0  0  0  0  0  0  0  0  0
   35.0780   31.0090   40.1060 H   0  0  0  0  0  0  0  0  0  0  0  0
   35.6000   29.3820   39.6850 H   0  0  0  0  0  0  0  0  0  0  0  0
   36.0000   31.0740   37.9700 H   0  0  0  0  0  0  0  0  0  0  0  0
   37.5990   30.4030   38.4530 H   0  0  0  0  0  0  0  0  0  0  0  0
   37.8500   32.7320   38.3030 H   0  0  0  0  0  0  0  0  0  0  0  0
   36.2920   32.9950   39.1170 H   0  0  0  0  0  0  0  0  0  0  0  0
   38.8530   32.9450   40.3710 H   0  0  0  0  0  0  0  0  0  0  0  0
   37.2820   33.1550   41.1800 H   0  0  0  0  0  0  0  0  0  0  0  0
   38.7900   30.5720   40.4910 H   0  0  0  0  0  0  0  0  0  0  0  0
   38.4410   31.3000   42.1610 H   0  0  0  0  0  0  0  0  0  0  0  0
   37.0140   25.4220   40.9120 C   0  0  0  0  0  0  0  0  0  0  0  0
   37.5480   24.3270   41.5000 N   0  0  0  0  0  0  0  0  0  0  0  0
   37.2440   23.2400   40.7510 C   0  0  0  0  0  0  0  0  0  0  0  0
   36.5110   23.6810   39.6870 N   0  0  0  0  0  0  0  0  0  0  0  0
   36.3710   25.0130   39.7820 N   0  0  0  0  0  0  0  0  0  0  0  0
   37.5270   22.2150   40.9570 H   0  0  0  0  0  0  0  0  0  0  0  0
   35.9610   22.8700   38.6100 C   0  0  0  0  0  0  0  0  0  0  0  0
   36.4600   21.8700   38.6560 H   0  0  0  0  0  0  0  0  0  0  0  0
   36.1820   23.3090   37.6170 H   0  0  0  0  0  0  0  0  0  0  0  0
   34.5100   22.6910   38.8440 C   0  0  0  0  0  3  0  0  0  0  0  0
   33.5570   22.7690   39.7560 C   0  0  0  0  0  3  0  0  0  0  0  0
   32.0770   22.5030   39.6670 C   0  0  0  0  0  2  0  0  0  0  0  0
   31.4980   23.4340   39.7580 H   0  0  0  0  0  0  0  0  0  0  0  0
  1  2  1  0  0  0  0
  2  3  2  0  0  0  0
  2  7  1  0  0  0  0
  3  8  1  0  0  0  0
  4  3  1  0  0  0  0
  5  4  2  0  0  0  0
  6  5  1  0  0  0  0
  6  1  2  0  0  0  0
  9  1  1  0  0  0  0
  9 15  1  0  0  0  0
 10 16  1  0  0  0  0
 10  9  1  0  0  0  0
 11 12  1  0  0  0  0
 11 10  1  0  0  0  0
 12 13  1  0  0  0  0
 13 14  1  0  0  0  0
 13 23  1  0  0  0  0
 14  9  1  0  0  0  0
 14 25  1  0  0  0  0
 17 10  1  0  0  0  0
 18 11  1  0  0  0  0
 19 11  1  0  0  0  0
 20 12  1  0  0  0  0
 21 12  1  0  0  0  0
 22 13  1  0  0  0  0
 24 14  1  0  0  0  0
 26 27  1  0  0  0  0
 26  5  1  0  0  0  0
 28 31  1  0  0  0  0
 28 27  2  0  0  0  0
 29 30  1  0  0  0  0
 29 28  1  0  0  0  0
 30 26  2  0  0  0  0
 32 33  1  0  0  0  0
 32 35  1  0  0  0  0
 32 29  1  0  0  0  0
 34 32  1  0  0  0  0
 35 36  2  0  0  0  0
 37 36  1  0  0  0  0
 37 38  1  0  0  0  0
M  END
>  <minimizedAffinity>
-5.1667819

$$$$

 OpenBabel03242519293D

 38 40  0  0  0  0  0  0  0  0999 V2000
   38.5400   31.3540   40.3840 C   0  0  0  0  0  0  0  0  0  0  0  0
   37.1910   31.7840   40.4420 C   0  0  0  0  0  0  0  0  0  0  0  0
   36.2200   30.9410   40.9960 C   0  0  0  0  0  0  0  0  0  0  0  0
   36.6520   29.7250   41.4570 N   0  0  0  0  0  0  0  0  0  0  0  0
   37.9800   29.3500   41.3780 C   0  0  0  0  0  0  0  0  0  0  0  0
   38.8850   30.1580   40.8520 N   0  0  0  0  0  0  0  0  0  0  0  0
   36.7680   32.7090   40.1090 H   0  0  0  0  0  0  0  0  0  0  0  0
   35.1810   31.1920   41.0770 H   0  0  0  0  0  0  0  0  0  0  0  0
   39.4630   32.3240   39.7780 C   0  0  0  0  0  0  0  0  0  0  0  0
   40.8670   31.9680   39.8860 C   0  0  0  0  0  0  0  0  0  0  0  0
   41.6640   32.8540   40.7600 C   0  0  0  0  0  0  0  0  0  0  0  0
   41.5400   34.3110   40.2920 C   0  0  0  0  0  0  0  0  0  0  0  0
   40.1470   34.7230   39.9590 C   0  0  0  0  0  0  0  0  0  0  0  0
   39.1320   33.6940   40.4270 C   0  0  0  0  0  0  0  0  0  0  0  0
   39.1250   32.4910   38.7140 H   0  0  0  0  0  0  0  0  0  0  0  0
   41.3330   32.0140   38.8660 H   0  0  0  0  0  0  0  0  0  0  0  0
   41.0230   30.9140   40.2050 H   0  0  0  0  0  0  0  0  0  0  0  0
   42.7470   32.5920   40.6230 H   0  0  0  0  0  0  0  0  0  0  0  0
   41.4320   32.8570   41.8220 H   0  0  0  0  0  0  0  0  0  0  0  0
   42.0620   34.9710   41.0190 H   0  0  0  0  0  0  0  0  0  0  0  0
   42.1480   34.3590   39.3530 H   0  0  0  0  0  0  0  0  0  0  0  0
   39.9040   35.6450   40.5540 H   0  0  0  0  0  0  0  0  0  0  0  0
   39.9860   34.9810   38.9050 H   0  0  0  0  0  0  0  0  0  0  0  0
   39.2020   33.5930   41.5280 H   0  0  0  0  0  0  0  0  0  0  0  0
   38.1340   33.9990   40.0670 H   0  0  0  0  0  0  0  0  0  0  0  0
   38.2470   28.0200   41.9110 C   0  0  0  0  0  0  0  0  0  0  0  0
   38.9930   27.9150   43.0350 N   0  0  0  0  0  0  0  0  0  0  0  0
   39.1150   26.6030   43.3540 C   0  0  0  0  0  0  0  0  0  0  0  0
   38.4300   25.8980   42.4080 N   0  0  0  0  0  0  0  0  0  0  0  0
   37.9000   26.7590   41.5250 N   0  0  0  0  0  0  0  0  0  0  0  0
   39.6520   26.1930   44.1990 H   0  0  0  0  0  0  0  0  0  0  0  0
   38.2810   24.4510   42.3370 C   0  0  0  0  0  0  0  0  0  0  0  0
   38.0770   24.0840   43.3740 H   0  0  0  0  0  0  0  0  0  0  0  0
   39.2120   23.9630   41.9870 H   0  0  0  0  0  0  0  0  0  0  0  0
   37.1150   24.1350   41.4810 C   0  0  0  0  0  3  0  0  0  0  0  0
   36.7470   23.5810   40.3390 C   0  0  0  0  0  3  0  0  0  0  0  0
   35.3870   23.4070   39.7150 C   0  0  0  0  0  2  0  0  0  0  0  0
   35.0820   22.3510   39.7070 H   0  0  0  0  0  0  0  0  0  0  0  0
  1  2  2  0  0  0  0
  1  6  1  0  0  0  0
  2  3  1  0  0  0  0
  3  8  1  0  0  0  0
  3  4  2  0  0  0  0
  5  4  1  0  0  0  0
  5 26  1  0  0  0  0
  6  5  2  0  0  0  0
  7  2  1  0  0  0  0
  9 10  1  0  0  0  0
  9  1  1  0  0  0  0
  9 14  1  0  0  0  0
 10 17  1  0  0  0  0
 10 11  1  0  0  0  0
 11 19  1  0  0  0  0
 12 11  1  0  0  0  0
 12 20  1  0  0  0  0
 13 12  1  0  0  0  0
 13 14  1  0  0  0  0
 13 22  1  0  0  0  0
 14 24  1  0  0  0  0
 15  9  1  0  0  0  0
 16 10  1  0  0  0  0
 18 11  1  0  0  0  0
 21 12  1  0  0  0  0
 23 13  1  0  0  0  0
 25 14  1  0  0  0  0
 26 27  1  0  0  0  0
 27 28  2  0  0  0  0
 28 31  1  0  0  0  0
 29 28  1  0  0  0  0
 30 26  2  0  0  0  0
 30 29  1  0  0  0  0
 32 29  1  0  0  0  0
 32 33  1  0  0  0  0
 34 32  1  0  0  0  0
 35 32  1  0  0  0  0
 36 35  2  0  0  0  0
 37 36  1  0  0  0  0
 38 37  1  0  0  0  0
M  END
>  <minimizedAffinity>
-5.15736675

$$$$

 OpenBabel03242519293D

 38 40  0  0  0  0  0  0  0  0999 V2000
   37.2160   30.1540   40.8980 C   0  0  0  0  0  0  0  0  0  0  0  0
   37.9110   31.3810   40.7670 C   0  0  0  0  0  0  0  0  0  0  0  0
   37.9220   32.0420   39.5330 C   0  0  0  0  0  0  0  0  0  0  0  0
   37.2410   31.4390   38.5080 N   0  0  0  0  0  0  0  0  0  0  0  0
   36.5780   30.2400   38.6830 C   0  0  0  0  0  0  0  0  0  0  0  0
   36.5770   29.6280   39.8560 N   0  0  0  0  0  0  0  0  0  0  0  0
   38.4640   31.9200   41.5080 H   0  0  0  0  0  0  0  0  0  0  0  0
   38.4220   32.9720   39.3530 H   0  0  0  0  0  0  0  0  0  0  0  0
   37.2800   29.5560   42.2390 C   0  0  0  0  0  0  0  0  0  0  0  0
   38.6030   29.5590   42.8370 C   0  0  0  0  0  0  0  0  0  0  0  0
   39.2090   28.2220   43.0070 C   0  0  0  0  0  0  0  0  0  0  0  0
   38.2780   27.3180   43.8280 C   0  0  0  0  0  0  0  0  0  0  0  0
   36.8460   27.3940   43.4200 C   0  0  0  0  0  0  0  0  0  0  0  0
   36.6790   28.1320   42.1020 C   0  0  0  0  0  0  0  0  0  0  0  0
   36.5010   30.0700   42.8750 H   0  0  0  0  0  0  0  0  0  0  0  0
   38.5390   30.0170   43.8610 H   0  0  0  0  0  0  0  0  0  0  0  0
   39.3220   30.2130   42.2960 H   0  0  0  0  0  0  0  0  0  0  0  0
   40.1340   28.3370   43.6330 H   0  0  0  0  0  0  0  0  0  0  0  0
   39.4560   27.6620   42.1080 H   0  0  0  0  0  0  0  0  0  0  0  0
   38.7020   26.2910   43.8580 H   0  0  0  0  0  0  0  0  0  0  0  0
   38.3580   27.7070   44.8750 H   0  0  0  0  0  0  0  0  0  0  0  0
   36.4900   26.3510   43.2010 H   0  0  0  0  0  0  0  0  0  0  0  0
   36.1730   27.7990   44.1850 H   0  0  0  0  0  0  0  0  0  0  0  0
   37.2290   27.5870   41.3110 H   0  0  0  0  0  0  0  0  0  0  0  0
   35.5990   28.2460   41.9010 H   0  0  0  0  0  0  0  0  0  0  0  0
   35.9200   29.7510   37.4790 C   0  0  0  0  0  0  0  0  0  0  0  0
   36.6460   29.6580   36.3410 N   0  0  0  0  0  0  0  0  0  0  0  0
   35.8470   29.1840   35.3540 C   0  0  0  0  0  0  0  0  0  0  0  0
   34.6130   28.9850   35.9010 N   0  0  0  0  0  0  0  0  0  0  0  0
   34.6530   29.3310   37.1970 N   0  0  0  0  0  0  0  0  0  0  0  0
   36.1340   28.9970   34.3270 H   0  0  0  0  0  0  0  0  0  0  0  0
   33.4270   28.4840   35.2190 C   0  0  0  0  0  0  0  0  0  0  0  0
   33.0220   27.6390   35.8300 H   0  0  0  0  0  0  0  0  0  0  0  0
   33.6740   28.0820   34.2160 H   0  0  0  0  0  0  0  0  0  0  0  0
   32.4170   29.5640   35.1670 C   0  0  0  0  0  3  0  0  0  0  0  0
   31.9800   30.5850   34.4520 C   0  0  0  0  0  3  0  0  0  0  0  0
   30.8510   31.5530   34.6920 C   0  0  0  0  0  2  0  0  0  0  0  0
   30.0300   31.3940   33.9790 H   0  0  0  0  0  0  0  0  0  0  0  0
  1  9  1  0  0  0  0
  2  1  1  0  0  0  0
  2  7  1  0  0  0  0
  3  2  2  0  0  0  0
  4  5  2  0  0  0  0
  4  3  1  0  0  0  0
  5  6  1  0  0  0  0
  6  1  2  0  0  0  0
  8  3  1  0  0  0  0
  9 10  1  0  0  0  0
  9 15  1  0  0  0  0
 10 11  1  0  0  0  0
 10 16  1  0  0  0  0
 11 18  1  0  0  0  0
 11 12  1  0  0  0  0
 12 20  1  0  0  0  0
 12 21  1  0  0  0  0
 13 12  1  0  0  0  0
 13 23  1  0  0  0  0
 14  9  1  0  0  0  0
 14 13  1  0  0  0  0
 17 10  1  0  0  0  0
 19 11  1  0  0  0  0
 22 13  1  0  0  0  0
 24 14  1  0  0  0  0
 25 14  1  0  0  0  0
 26  5  1  0  0  0  0
 27 26  1  0  0  0  0
 28 29  1  0  0  0  0
 28 27  2  0  0  0  0
 29 30  1  0  0  0  0
 30 26  2  0  0  0  0
 31 28  1  0  0  0  0
 32 33  1  0  0  0  0
 32 29  1  0  0  0  0
 34 32  1  0  0  0  0
 35 32  1  0  0  0  0
 36 37  1  0  0  0  0
 36 35  2  0  0  0  0
 38 37  1  0  0  0  0
M  END
>  <minimizedAffinity>
-5.13759375

$$$$

 OpenBabel03242519293D

 38 40  0  0  0  0  0  0  0  0999 V2000
   40.6430   32.9220   39.0300 C   0  0  0  0  0  0  0  0  0  0  0  0
   40.3560   34.2280   39.4960 C   0  0  0  0  0  0  0  0  0  0  0  0
   39.4420   34.4050   40.5420 C   0  0  0  0  0  0  0  0  0  0  0  0
   38.8710   33.2710   41.0570 N   0  0  0  0  0  0  0  0  0  0  0  0
   39.1820   32.0160   40.5690 C   0  0  0  0  0  0  0  0  0  0  0  0
   40.0480   31.8660   39.5810 N   0  0  0  0  0  0  0  0  0  0  0  0
   40.7510   35.1620   39.1550 H   0  0  0  0  0  0  0  0  0  0  0  0
   39.1720   35.3580   40.9500 H   0  0  0  0  0  0  0  0  0  0  0  0
   41.6130   32.8660   37.9290 C   0  0  0  0  0  0  0  0  0  0  0  0
   41.5860   31.6320   37.1630 C   0  0  0  0  0  0  0  0  0  0  0  0
   42.7930   30.7910   37.3020 C   0  0  0  0  0  0  0  0  0  0  0  0
   44.0460   31.5960   36.9300 C   0  0  0  0  0  0  0  0  0  0  0  0
   44.0770   32.9690   37.5100 C   0  0  0  0  0  0  0  0  0  0  0  0
   42.9990   33.1560   38.5640 C   0  0  0  0  0  0  0  0  0  0  0  0
   41.4580   33.7880   37.2960 H   0  0  0  0  0  0  0  0  0  0  0  0
   41.4900   31.8820   36.0730 H   0  0  0  0  0  0  0  0  0  0  0  0
   40.6890   31.0110   37.3750 H   0  0  0  0  0  0  0  0  0  0  0  0
   42.7330   29.9700   36.5380 H   0  0  0  0  0  0  0  0  0  0  0  0
   42.9930   30.3530   38.2770 H   0  0  0  0  0  0  0  0  0  0  0  0
   44.9480   30.9800   37.1380 H   0  0  0  0  0  0  0  0  0  0  0  0
   43.9990   31.6930   35.8160 H   0  0  0  0  0  0  0  0  0  0  0  0
   45.0420   33.0880   38.0740 H   0  0  0  0  0  0  0  0  0  0  0  0
   44.0470   33.7780   36.7700 H   0  0  0  0  0  0  0  0  0  0  0  0
   43.1710   32.4360   39.3870 H   0  0  0  0  0  0  0  0  0  0  0  0
   43.0030   34.2130   38.8840 H   0  0  0  0  0  0  0  0  0  0  0  0
   38.4700   30.9340   41.2360 C   0  0  0  0  0  0  0  0  0  0  0  0
   37.4160   30.3700   40.6030 N   0  0  0  0  0  0  0  0  0  0  0  0
   36.9080   29.3920   41.3920 C   0  0  0  0  0  0  0  0  0  0  0  0
   37.6660   29.3600   42.5260 N   0  0  0  0  0  0  0  0  0  0  0  0
   38.6200   30.3000   42.4350 N   0  0  0  0  0  0  0  0  0  0  0  0
   36.0610   28.7570   41.1660 H   0  0  0  0  0  0  0  0  0  0  0  0
   37.4960   28.4690   43.6650 C   0  0  0  0  0  0  0  0  0  0  0  0
   36.4430   28.0930   43.6410 H   0  0  0  0  0  0  0  0  0  0  0  0
   37.6370   29.0050   44.6250 H   0  0  0  0  0  0  0  0  0  0  0  0
   38.4180   27.3210   43.5120 C   0  0  0  0  0  3  0  0  0  0  0  0
   39.6300   26.8790   43.7960 C   0  0  0  0  0  3  0  0  0  0  0  0
   40.3080   25.5730   43.4750 C   0  0  0  0  0  2  0  0  0  0  0  0
   40.4590   24.9670   44.3800 H   0  0  0  0  0  0  0  0  0  0  0  0
  1  2  2  0  0  0  0
  1  6  1  0  0  0  0
  2  3  1  0  0  0  0
  3  8  1  0  0  0  0
  3  4  2  0  0  0  0
  5  4  1  0  0  0  0
  5 26  1  0  0  0  0
  6  5  2  0  0  0  0
  7  2  1  0  0  0  0
  9 14  1  0  0  0  0
  9  1  1  0  0  0  0
 10 11  1  0  0  0  0
 10 17  1  0  0  0  0
 10  9  1  0  0  0  0
 11 19  1  0  0  0  0
 12 20  1  0  0  0  0
 12 11  1  0  0  0  0
 12 13  1  0  0  0  0
 13 22  1  0  0  0  0
 13 14  1  0  0  0  0
 14 25  1  0  0  0  0
 14 24  1  0  0  0  0
 15  9  1  0  0  0  0
 16 10  1  0  0  0  0
 18 11  1  0  0  0  0
 21 12  1  0  0  0  0
 23 13  1  0  0  0  0
 26 30  2  0  0  0  0
 27 26  1  0  0  0  0
 27 28  2  0  0  0  0
 28 29  1  0  0  0  0
 29 32  1  0  0  0  0
 30 29  1  0  0  0  0
 31 28  1  0  0  0  0
 32 34  1  0  0  0  0
 33 32  1  0  0  0  0
 35 32  1  0  0  0  0
 35 36  2  0  0  0  0
 37 36  1  0  0  0  0
 37 38  1  0  0  0  0
M  END
>  <minimizedAffinity>
-5.07469511

$$$$
