
 OpenBabel03242520133D

 29 30  0  0  0  0  0  0  0  0999 V2000
   46.1440   32.5760   46.9440 C   0  0  0  0  0  0  0  0  0  0  0  0
   45.2550   32.6300   47.9640 C   0  0  0  0  0  0  0  0  0  0  0  0
   45.4550   31.8040   49.0520 C   0  0  0  0  0  0  0  0  0  0  0  0
   46.5370   30.9420   49.1010 C   0  0  0  0  0  0  0  0  0  0  0  0
   47.4320   30.9190   48.0210 C   0  0  0  0  0  0  0  0  0  0  0  0
   47.2130   31.7170   47.0050 N   0  0  0  0  0  0  0  0  0  0  0  0
   44.4220   33.3190   47.8860 H   0  0  0  0  0  0  0  0  0  0  0  0
   44.7490   31.8460   49.8640 H   0  0  0  0  0  0  0  0  0  0  0  0
   46.7170   30.2840   49.9420 H   0  0  0  0  0  0  0  0  0  0  0  0
   44.9330   35.0210   44.5290 C   0  0  0  0  0  0  0  0  0  0  0  0
   45.8960   34.9050   43.4990 C   0  0  0  0  0  0  0  0  0  0  0  0
   46.9570   33.9940   43.6270 C   0  0  0  0  0  0  0  0  0  0  0  0
   46.9440   33.2990   44.7640 N   0  0  0  0  0  0  0  0  0  0  0  0
   46.0480   33.4000   45.7320 C   0  0  0  0  0  0  0  0  0  0  0  0
   45.0480   34.2600   45.6080 N   0  0  0  0  0  0  0  0  0  0  0  0
   43.8710   35.9620   44.3440 N   0  0  0  0  0  0  0  0  0  0  0  0
   45.8020   35.5250   42.6180 H   0  0  0  0  0  0  0  0  0  0  0  0
   47.6980   33.8870   42.8630 H   0  0  0  0  0  0  0  0  0  0  0  0
   43.8360   36.5670   45.2030 H   0  0  0  0  0  0  0  0  0  0  0  0
   43.2450   36.0240   43.4930 H   0  0  0  0  0  0  0  0  0  0  0  0
   48.5890   30.0280   48.0250 C   0  0  0  0  0  3  0  0  0  0  0  0
   49.7000   30.2960   48.7100 C   0  0  0  0  0  3  0  0  0  0  0  0
   49.8600   31.5160   49.5240 C   0  0  0  0  0  0  0  0  0  0  0  0
   50.5770   32.1940   48.9860 H   0  0  0  0  0  0  0  0  0  0  0  0
   48.9120   32.0710   49.6020 H   0  0  0  0  0  0  0  0  0  0  0  0
   50.4730   31.2230   50.8480 C   0  0  0  0  0  3  0  0  0  0  0  0
   50.6860   29.9830   51.3310 C   0  0  0  0  0  3  0  0  0  0  0  0
   51.2670   29.4590   52.5950 C   0  0  0  0  0  2  0  0  0  0  0  0
   51.8570   30.2480   53.1180 H   0  0  0  0  0  0  0  0  0  0  0  0
  1  6  2  0  0  0  0
  1  2  1  0  0  0  0
  2  3  2  0  0  0  0
  3  4  1  0  0  0  0
  3  8  1  0  0  0  0
  4  9  1  0  0  0  0
  5 21  1  0  0  0  0
  5  4  2  0  0  0  0
  6  5  1  0  0  0  0
  7  2  1  0  0  0  0
 10 15  1  0  0  0  0
 11 12  1  0  0  0  0
 11 10  2  0  0  0  0
 12 13  2  0  0  0  0
 13 14  1  0  0  0  0
 14  1  1  0  0  0  0
 15 14  2  0  0  0  0
 16 10  1  0  0  0  0
 16 19  1  0  0  0  0
 17 11  1  0  0  0  0
 18 12  1  0  0  0  0
 20 16  1  0  0  0  0
 21 22  2  0  0  0  0
 22 23  1  0  0  0  0
 23 25  1  0  0  0  0
 23 26  1  0  0  0  0
 24 23  1  0  0  0  0
 26 27  2  0  0  0  0
 27 28  1  0  0  0  0
 28 29  1  0  0  0  0
M  END
>  <minimizedAffinity>
-5.98521852

>  <minimizedRMSD>
0.295222551

$$$$
