
 OpenBabel03242520133D

 29 30  0  0  0  0  0  0  0  0999 V2000
   46.1700   32.5830   46.8960 C   0  0  0  0  0  0  0  0  0  0  0  0
   45.3250   32.6680   47.9500 C   0  0  0  0  0  0  0  0  0  0  0  0
   45.5350   31.8300   49.0270 C   0  0  0  0  0  0  0  0  0  0  0  0
   46.5840   30.9260   49.0310 C   0  0  0  0  0  0  0  0  0  0  0  0
   47.4340   30.8730   47.9170 C   0  0  0  0  0  0  0  0  0  0  0  0
   47.2060   31.6820   46.9120 N   0  0  0  0  0  0  0  0  0  0  0  0
   44.5170   33.3900   47.9060 H   0  0  0  0  0  0  0  0  0  0  0  0
   44.8640   31.8970   49.8660 H   0  0  0  0  0  0  0  0  0  0  0  0
   46.7700   30.2590   49.8620 H   0  0  0  0  0  0  0  0  0  0  0  0
   44.9220   35.0370   44.5070 C   0  0  0  0  0  0  0  0  0  0  0  0
   45.8780   34.9350   43.4690 C   0  0  0  0  0  0  0  0  0  0  0  0
   46.9450   34.0300   43.5820 C   0  0  0  0  0  0  0  0  0  0  0  0
   46.9470   33.3260   44.7140 N   0  0  0  0  0  0  0  0  0  0  0  0
   46.0590   33.4150   45.6900 C   0  0  0  0  0  0  0  0  0  0  0  0
   45.0510   34.2690   45.5800 N   0  0  0  0  0  0  0  0  0  0  0  0
   43.8530   35.9720   44.3380 N   0  0  0  0  0  0  0  0  0  0  0  0
   45.7720   35.5600   42.5930 H   0  0  0  0  0  0  0  0  0  0  0  0
   47.6820   33.9330   42.8110 H   0  0  0  0  0  0  0  0  0  0  0  0
   43.8210   36.5710   45.2020 H   0  0  0  0  0  0  0  0  0  0  0  0
   43.2200   36.0360   43.4930 H   0  0  0  0  0  0  0  0  0  0  0  0
   48.5540   29.9380   47.8720 C   0  0  0  0  0  3  0  0  0  0  0  0
   49.6780   30.1290   48.5620 C   0  0  0  0  0  3  0  0  0  0  0  0
   49.8900   31.3030   49.4300 C   0  0  0  0  0  0  0  0  0  0  0  0
   50.7230   31.9120   48.9840 H   0  0  0  0  0  0  0  0  0  0  0  0
   49.0040   31.9560   49.4410 H   0  0  0  0  0  0  0  0  0  0  0  0
   50.3410   30.9100   50.7930 C   0  0  0  0  0  3  0  0  0  0  0  0
   50.4310   29.6390   51.2290 C   0  0  0  0  0  3  0  0  0  0  0  0
   50.8440   29.0220   52.5160 C   0  0  0  0  0  2  0  0  0  0  0  0
   51.4170   29.7470   53.1400 H   0  0  0  0  0  0  0  0  0  0  0  0
  1  6  2  0  0  0  0
  1  2  1  0  0  0  0
  2  3  2  0  0  0  0
  3  4  1  0  0  0  0
  3  8  1  0  0  0  0
  4  9  1  0  0  0  0
  5  4  2  0  0  0  0
  6  5  1  0  0  0  0
  7  2  1  0  0  0  0
 10 15  1  0  0  0  0
 11 12  1  0  0  0  0
 11 10  2  0  0  0  0
 12 13  2  0  0  0  0
 13 14  1  0  0  0  0
 14  1  1  0  0  0  0
 15 14  2  0  0  0  0
 16 10  1  0  0  0  0
 16 19  1  0  0  0  0
 17 11  1  0  0  0  0
 18 12  1  0  0  0  0
 20 16  1  0  0  0  0
 21  5  1  0  0  0  0
 21 22  2  0  0  0  0
 22 23  1  0  0  0  0
 23 25  1  0  0  0  0
 23 26  1  0  0  0  0
 24 23  1  0  0  0  0
 26 27  2  0  0  0  0
 27 28  1  0  0  0  0
 28 29  1  0  0  0  0
M  END
>  <minimizedAffinity>
-6.00273085

>  <minimizedRMSD>
0.517272532

$$$$
