
 OpenBabel03242517143D

 18 18  0  0  0  0  0  0  0  0999 V2000
   44.2960   35.7840   44.2070 C   0  0  0  0  0  0  0  0  0  0  0  0
   44.4080   34.9730   43.0810 C   0  0  0  0  0  0  0  0  0  0  0  0
   45.0330   33.7270   43.2450 C   0  0  0  0  0  0  0  0  0  0  0  0
   45.4960   33.3650   44.4750 N   0  0  0  0  0  0  0  0  0  0  0  0
   45.3590   34.1980   45.5330 C   0  0  0  0  0  0  0  0  0  0  0  0
   44.7660   35.3870   45.3920 N   0  0  0  0  0  0  0  0  0  0  0  0
   43.8060   36.7430   44.0390 H   0  0  0  0  0  0  0  0  0  0  0  0
   45.1460   33.0570   42.4020 H   0  0  0  0  0  0  0  0  0  0  0  0
   45.7250   33.9170   46.5200 H   0  0  0  0  0  0  0  0  0  0  0  0
   43.9120   35.3590   41.7680 C   0  0  0  0  0  0  0  0  0  0  0  0
   42.9060   34.8010   41.1280 C   0  0  0  0  0  0  0  0  0  0  0  0
   42.4680   35.2660   39.7780 C   0  0  0  0  0  0  0  0  0  0  0  0
   43.1230   34.8690   38.9850 H   0  0  0  0  0  0  0  0  0  0  0  0
   42.5040   36.3780   39.6910 H   0  0  0  0  0  0  0  0  0  0  0  0
   41.0560   34.8540   39.5670 C   0  0  0  0  0  0  0  0  0  0  0  0
   39.8940   34.8930   40.2060 C   0  0  0  0  0  0  0  0  0  0  0  0
   38.6360   34.3410   39.6260 C   0  0  0  0  0  0  0  0  0  0  0  0
   38.0400   35.1790   39.2130 H   0  0  0  0  0  0  0  0  0  0  0  0
  1  6  1  0  0  0  0
  2  3  1  0  0  0  0
  2  1  2  0  0  0  0
  3  4  2  0  0  0  0
  4  5  1  0  0  0  0
  5  9  1  0  0  0  0
  6  5  2  0  0  0  0
  7  1  1  0  0  0  0
  8  3  1  0  0  0  0
 10  2  1  0  0  0  0
 11 10  2  0  0  0  0
 12 11  1  0  0  0  0
 13 12  1  0  0  0  0
 14 12  1  0  0  0  0
 15 12  1  0  0  0  0
 15 16  2  0  0  0  0
 17 16  1  0  0  0  0
 18 17  1  0  0  0  0
M  END
>  <minimizedAffinity>
-4.0467205

>  <minimizedRMSD>
1.86415827

$$$$
