
 OpenBabel03242523433D

 19 19  0  0  1  0  0  0  0  0999 V2000
   46.5550   35.1030   42.0380 C   0  0  1  0  0  0  0  0  0  0  0  0
   46.2400   36.1570   41.9280 H   0  0  0  0  0  0  0  0  0  0  0  0
   45.1830   35.2380   44.0670 C   0  0  0  0  0  0  0  0  0  0  0  0
   46.2570   34.6520   43.3670 C   0  0  0  0  0  0  0  0  0  0  0  0
   46.9660   33.6400   44.0080 C   0  0  0  0  0  0  0  0  0  0  0  0
   46.5900   33.2680   45.2710 N   0  0  0  0  0  0  0  0  0  0  0  0
   45.5560   33.8520   45.9060 C   0  0  0  0  0  0  0  0  0  0  0  0
   44.8390   34.8450   45.3110 N   0  0  0  0  0  0  0  0  0  0  0  0
   44.5680   36.0300   43.6630 H   0  0  0  0  0  0  0  0  0  0  0  0
   47.7920   33.1640   43.5160 H   0  0  0  0  0  0  0  0  0  0  0  0
   45.2570   33.5560   46.9090 H   0  0  0  0  0  0  0  0  0  0  0  0
   48.0430   35.0300   41.8050 C   0  0  0  0  0  0  0  0  0  0  0  0
   48.4420   34.0170   41.8050 H   0  0  0  0  0  0  0  0  0  0  0  0
   48.2090   35.4140   40.7570 H   0  0  0  0  0  0  0  0  0  0  0  0
   48.5780   35.7380   42.4580 H   0  0  0  0  0  0  0  0  0  0  0  0
   45.8570   34.2970   40.9810 C   0  0  0  0  0  3  0  0  0  0  0  0
   45.2190   33.1430   41.1670 C   0  0  0  0  0  3  0  0  0  0  0  0
   44.5440   32.3780   40.1000 C   0  0  0  0  0  2  0  0  0  0  0  0
   44.7690   31.3080   40.2360 H   0  0  0  0  0  0  0  0  0  0  0  0
  1  2  1  6  0  0  0
  1  4  1  0  0  0  0
  3  8  1  0  0  0  0
  4  5  1  0  0  0  0
  4  3  2  0  0  0  0
  5  6  2  0  0  0  0
  6  7  1  0  0  0  0
  7 11  1  0  0  0  0
  8  7  2  0  0  0  0
  9  3  1  0  0  0  0
 10  5  1  0  0  0  0
 12  1  1  0  0  0  0
 12 15  1  0  0  0  0
 13 12  1  0  0  0  0
 14 12  1  0  0  0  0
 16 17  2  0  0  0  0
 16  1  1  0  0  0  0
 18 19  1  0  0  0  0
 18 17  1  0  0  0  0
M  END
>  <minimizedAffinity>
-3.41717434

>  <minimizedRMSD>
0.440129608

$$$$
