
 OpenBabel03252508343D

 30 31  0  0  1  0  0  0  0  0999 V2000
   45.4300   34.4570   41.9810 N   0  0  0  0  0  0  0  0  0  0  0  0
   46.7380   34.1660   41.4610 C   0  0  1  0  0  0  0  0  0  0  0  0
   46.8180   34.0640   39.9890 C   0  0  0  0  0  0  0  0  0  0  0  0
   45.7110   33.5050   39.3440 N   0  0  0  0  0  0  0  0  0  0  0  0
   44.4490   33.6310   39.9060 C   0  0  0  0  0  0  0  0  0  0  0  0
   44.4310   34.6910   40.9920 C   0  0  0  0  0  0  0  0  0  0  0  0
   47.1430   33.2250   41.9340 H   0  0  0  0  0  0  0  0  0  0  0  0
   47.0220   35.0740   39.5730 H   0  0  0  0  0  0  0  0  0  0  0  0
   47.7340   33.4520   39.7480 H   0  0  0  0  0  0  0  0  0  0  0  0
   45.8330   33.0260   38.4640 H   0  0  0  0  0  0  0  0  0  0  0  0
   43.7110   33.9560   39.1410 H   0  0  0  0  0  0  0  0  0  0  0  0
   44.0080   32.6880   40.3320 H   0  0  0  0  0  0  0  0  0  0  0  0
   43.4330   34.6160   41.4900 H   0  0  0  0  0  0  0  0  0  0  0  0
   44.4610   35.7010   40.5280 H   0  0  0  0  0  0  0  0  0  0  0  0
   44.6340   35.5980   43.9150 C   0  0  0  0  0  0  0  0  0  0  0  0
   45.2660   34.4830   43.3780 C   0  0  0  0  0  0  0  0  0  0  0  0
   45.6950   33.4650   44.2570 C   0  0  0  0  0  0  0  0  0  0  0  0
   45.4780   33.6030   45.5940 N   0  0  0  0  0  0  0  0  0  0  0  0
   44.8620   34.6970   46.0770 C   0  0  0  0  0  0  0  0  0  0  0  0
   44.4440   35.6830   45.2670 N   0  0  0  0  0  0  0  0  0  0  0  0
   44.2680   36.4310   43.3330 H   0  0  0  0  0  0  0  0  0  0  0  0
   46.1690   32.6460   43.7620 H   0  0  0  0  0  0  0  0  0  0  0  0
   44.7250   34.7380   47.1560 H   0  0  0  0  0  0  0  0  0  0  0  0
   47.6780   35.2620   41.9210 C   0  0  0  0  0  0  0  0  0  0  0  0
   47.4470   35.6000   42.9550 H   0  0  0  0  0  0  0  0  0  0  0  0
   47.5480   36.1130   41.2370 H   0  0  0  0  0  0  0  0  0  0  0  0
   49.1010   34.8350   41.8330 C   0  0  0  0  0  3  0  0  0  0  0  0
   49.5860   33.7580   42.4300 C   0  0  0  0  0  3  0  0  0  0  0  0
   50.9900   33.3100   42.3630 C   0  0  0  0  0  2  0  0  0  0  0  0
   51.1960   32.6180   43.2080 H   0  0  0  0  0  0  0  0  0  0  0  0
  1 16  1  0  0  0  0
  2 24  1  0  0  0  0
  2  7  1  1  0  0  0
  2  1  1  0  0  0  0
  3  2  1  0  0  0  0
  4  5  1  0  0  0  0
  4  3  1  0  0  0  0
  5 12  1  0  0  0  0
  5  6  1  0  0  0  0
  6 13  1  0  0  0  0
  6  1  1  0  0  0  0
  8  3  1  0  0  0  0
  9  3  1  0  0  0  0
 10  4  1  0  0  0  0
 11  5  1  0  0  0  0
 14  6  1  0  0  0  0
 15 20  1  0  0  0  0
 16 15  2  0  0  0  0
 16 17  1  0  0  0  0
 17 18  2  0  0  0  0
 18 19  1  0  0  0  0
 19 23  1  0  0  0  0
 20 19  2  0  0  0  0
 21 15  1  0  0  0  0
 22 17  1  0  0  0  0
 24 25  1  0  0  0  0
 26 24  1  0  0  0  0
 27 24  1  0  0  0  0
 27 28  2  0  0  0  0
 29 28  1  0  0  0  0
 29 30  1  0  0  0  0
M  END
>  <minimizedAffinity>
-4.7080698

>  <minimizedRMSD>
0.422255397

$$$$
