
 OpenBabel03252508473D

 40 41  0  0  0  0  0  0  0  0999 V2000
   43.0100   32.4780   41.6520 C   0  0  0  0  0  0  0  0  0  0  0  0
   43.5830   32.0010   40.8160 H   0  0  0  0  0  0  0  0  0  0  0  0
   42.1220   32.9480   41.2180 H   0  0  0  0  0  0  0  0  0  0  0  0
   43.6770   34.8830   41.9040 C   0  0  0  0  0  0  0  0  0  0  0  0
   43.8940   33.5390   42.2040 C   0  0  0  0  0  0  0  0  0  0  0  0
   44.9590   33.2330   43.0310 C   0  0  0  0  0  0  0  0  0  0  0  0
   45.7570   34.2190   43.5260 C   0  0  0  0  0  0  0  0  0  0  0  0
   45.5600   35.5420   43.2440 C   0  0  0  0  0  0  0  0  0  0  0  0
   44.4900   35.8170   42.4160 C   0  0  0  0  0  0  0  0  0  0  0  0
   45.1550   32.2090   43.2820 H   0  0  0  0  0  0  0  0  0  0  0  0
   46.5860   33.9400   44.1740 H   0  0  0  0  0  0  0  0  0  0  0  0
   46.1840   36.3420   43.6270 H   0  0  0  0  0  0  0  0  0  0  0  0
   44.3030   36.8640   42.1690 H   0  0  0  0  0  0  0  0  0  0  0  0
   40.2600   35.7910   40.5350 C   0  0  0  0  0  0  0  0  0  0  0  0
   41.2880   35.5480   41.4700 C   0  0  0  0  0  0  0  0  0  0  0  0
   42.5400   35.1610   41.0260 C   0  0  0  0  0  0  0  0  0  0  0  0
   42.7180   35.0340   39.6850 N   0  0  0  0  0  0  0  0  0  0  0  0
   41.7180   35.2730   38.7960 C   0  0  0  0  0  0  0  0  0  0  0  0
   40.4970   35.6500   39.2380 N   0  0  0  0  0  0  0  0  0  0  0  0
   39.3120   36.0900   40.9690 H   0  0  0  0  0  0  0  0  0  0  0  0
   41.1690   35.6420   42.5450 H   0  0  0  0  0  0  0  0  0  0  0  0
   41.9830   35.1380   37.7610 H   0  0  0  0  0  0  0  0  0  0  0  0
   42.6780   31.4480   42.5960 N   0  0  0  0  0  0  0  0  0  0  0  0
   43.2350   30.5770   42.4630 H   0  0  0  0  0  0  0  0  0  0  0  0
   41.0040   31.0940   42.5980 S   0  0  0  0  0  0  0  0  0  0  0  0
   40.1920   32.3630   42.4380 O   0  0  0  0  0  0  0  0  0  0  0  0
   39.3530   32.5850   42.9120 H   0  0  0  0  0  0  0  0  0  0  0  0
   40.6140   30.3910   43.8610 O   0  0  0  0  0  0  0  0  0  0  0  0
   41.2490   29.9020   44.4640 H   0  0  0  0  0  0  0  0  0  0  0  0
   40.6830   30.0960   41.2930 O   0  0  0  0  0  0  0  0  0  0  0  0
   39.8920   29.0480   41.7450 C   0  0  0  0  0  0  0  0  0  0  0  0
   39.0280   28.9670   41.0310 H   0  0  0  0  0  0  0  0  0  0  0  0
   39.5630   29.1250   42.7790 H   0  0  0  0  0  0  0  0  0  0  0  0
   40.6530   27.7220   41.5420 C   0  0  0  0  0  0  0  0  0  0  0  0
   40.2040   27.1450   40.7180 H   0  0  0  0  0  0  0  0  0  0  0  0
   41.7290   27.9290   41.3790 H   0  0  0  0  0  0  0  0  0  0  0  0
   40.5210   27.0050   42.8420 C   0  0  0  0  0  3  0  0  0  0  0  0
   41.4530   26.9180   43.7530 C   0  0  0  0  0  3  0  0  0  0  0  0
   42.7630   27.5580   43.5380 C   0  0  0  0  0  2  0  0  0  0  0  0
   43.2510   27.7040   44.5450 H   0  0  0  0  0  0  0  0  0  0  0  0
  1  5  1  0  0  0  0
  1 23  1  0  0  0  0
  2  1  1  0  0  0  0
  3  1  1  0  0  0  0
  4  5  2  0  0  0  0
  4  9  1  0  0  0  0
  5  6  1  0  0  0  0
  6 10  1  0  0  0  0
  6  7  2  0  0  0  0
  7 11  1  0  0  0  0
  8  7  1  0  0  0  0
  8 12  1  0  0  0  0
  9  8  2  0  0  0  0
 13  9  1  0  0  0  0
 14 20  1  0  0  0  0
 14 15  1  0  0  0  0
 15 21  1  0  0  0  0
 16 15  2  0  0  0  0
 16  4  1  0  0  0  0
 17 16  1  0  0  0  0
 18 19  1  0  0  0  0
 18 17  2  0  0  0  0
 19 14  2  0  0  0  0
 22 18  1  0  0  0  0
 23 25  1  0  0  0  0
 24 23  1  0  0  0  0
 25 28  1  0  0  0  0
 26 25  1  0  0  0  0
 26 27  1  0  0  0  0
 28 29  1  0  0  0  0
 30 31  1  0  0  0  0
 30 25  1  0  0  0  0
 31 33  1  0  0  0  0
 32 31  1  0  0  0  0
 34 31  1  0  0  0  0
 34 37  1  0  0  0  0
 35 34  1  0  0  0  0
 36 34  1  0  0  0  0
 37 38  2  0  0  0  0
 39 38  1  0  0  0  0
 39 40  1  0  0  0  0
M  END
>  <minimizedAffinity>
-4.7001276

>  <minimizedRMSD>
0.626425266

$$$$
