
 OpenBabel03242519473D

 33 34  0  0  1  0  0  0  0  0999 V2000
   46.6290   32.9340   46.7430 C   0  0  2  0  0  0  0  0  0  0  0  0
   47.0840   32.8140   45.3440 C   0  0  1  0  0  0  0  0  0  0  0  0
   46.6480   31.4670   44.9510 O   0  0  0  0  0  0  0  0  0  0  0  0
   47.2850   30.7730   45.9980 C   0  0  0  0  0  0  0  0  0  0  0  0
   46.6130   31.4910   47.2220 C   0  0  2  0  0  0  0  0  0  0  0  0
   47.2470   33.5730   47.3830 H   0  0  0  0  0  0  0  0  0  0  0  0
   48.1850   32.7420   45.2700 H   0  0  0  0  0  0  0  0  0  0  0  0
   48.3760   31.0030   46.0520 H   0  0  0  0  0  0  0  0  0  0  0  0
   47.0530   29.7110   45.9930 H   0  0  0  0  0  0  0  0  0  0  0  0
   47.2880   31.2840   48.0810 H   0  0  0  0  0  0  0  0  0  0  0  0
   44.7090   35.2460   43.9910 C   0  0  0  0  0  0  0  0  0  0  0  0
   45.3190   35.6850   42.8140 C   0  0  0  0  0  0  0  0  0  0  0  0
   46.5800   35.1330   42.4660 C   0  0  0  0  0  0  0  0  0  0  0  0
   47.1490   34.1990   43.2870 N   0  0  0  0  0  0  0  0  0  0  0  0
   46.5210   33.8010   44.4200 C   0  0  0  0  0  0  0  0  0  0  0  0
   45.3130   34.3110   44.7800 N   0  0  0  0  0  0  0  0  0  0  0  0
   44.8410   36.4210   42.1950 H   0  0  0  0  0  0  0  0  0  0  0  0
   47.0760   35.4500   41.5670 H   0  0  0  0  0  0  0  0  0  0  0  0
   43.4690   35.7460   44.3940 O   0  0  0  0  0  0  0  0  0  0  0  0
   43.2140   35.7890   45.3500 H   0  0  0  0  0  0  0  0  0  0  0  0
   45.2740   33.4200   46.7650 O   0  0  0  0  0  0  0  0  0  0  0  0
   44.7590   32.6300   46.4490 H   0  0  0  0  0  0  0  0  0  0  0  0
   45.3590   31.0050   47.2970 O   0  0  0  0  0  0  0  0  0  0  0  0
   45.0720   29.9900   48.1640 C   0  0  0  0  0  0  0  0  0  0  0  0
   45.6060   30.0870   49.1020 H   0  0  0  0  0  0  0  0  0  0  0  0
   43.9650   30.2190   48.5490 H   0  0  0  0  0  0  0  0  0  0  0  0
   44.9680   28.6440   47.5800 C   0  0  0  0  0  0  0  0  0  0  0  0
   45.9300   28.1430   47.4180 H   0  0  0  0  0  0  0  0  0  0  0  0
   44.3260   27.9720   48.2010 H   0  0  0  0  0  0  0  0  0  0  0  0
   44.1800   28.8010   46.2990 C   0  0  0  0  0  0  0  0  0  0  0  0
   43.2100   28.1280   45.7400 C   0  0  0  0  0  0  0  0  0  0  0  0
   42.5600   28.4790   44.4250 C   0  0  0  0  0  0  0  0  0  0  0  0
   41.5790   28.9080   44.6590 H   0  0  0  0  0  0  0  0  0  0  0  0
  1 21  1  0  0  0  0
  1  5  1  0  0  0  0
  1  6  1  1  0  0  0
  2  7  1  6  0  0  0
  2  1  1  0  0  0  0
  3  2  1  0  0  0  0
  3  4  1  0  0  0  0
  4  8  1  0  0  0  0
  4  5  1  0  0  0  0
  5 23  1  0  0  0  0
  5 10  1  1  0  0  0
  9  4  1  0  0  0  0
 11 19  1  0  0  0  0
 11 16  1  0  0  0  0
 12 11  2  0  0  0  0
 13 12  1  0  0  0  0
 13 14  2  0  0  0  0
 14 15  1  0  0  0  0
 15 16  2  0  0  0  0
 15  2  1  0  0  0  0
 17 12  1  0  0  0  0
 18 13  1  0  0  0  0
 19 20  1  0  0  0  0
 22 21  1  0  0  0  0
 23 24  1  0  0  0  0
 24 26  1  0  0  0  0
 24 25  1  0  0  0  0
 27 24  1  0  0  0  0
 27 29  1  0  0  0  0
 28 27  1  0  0  0  0
 30 27  1  0  0  0  0
 31 30  2  0  0  0  0
 32 33  1  0  0  0  0
 32 31  1  0  0  0  0
M  END
>  <minimizedAffinity>
-5.10025597

>  <minimizedRMSD>
0.381311268

$$$$
