
 OpenBabel03242517543D

 38 39  0  0  0  0  0  0  0  0999 V2000
   45.3160   34.2510   43.7710 C   0  0  0  0  0  0  0  0  0  0  0  0
   46.4750   34.7560   43.1480 C   0  0  0  0  0  0  0  0  0  0  0  0
   47.6590   34.0820   43.2850 C   0  0  0  0  0  0  0  0  0  0  0  0
   47.6240   32.9610   44.0230 N   0  0  0  0  0  0  0  0  0  0  0  0
   46.5370   32.4880   44.6070 C   0  0  0  0  0  0  0  0  0  0  0  0
   45.3800   33.1320   44.4820 N   0  0  0  0  0  0  0  0  0  0  0  0
   44.3740   34.7760   43.6690 H   0  0  0  0  0  0  0  0  0  0  0  0
   46.3260   35.6630   42.5920 H   0  0  0  0  0  0  0  0  0  0  0  0
   48.9160   34.5130   42.6620 C   0  0  0  0  0  0  0  0  0  0  0  0
   49.5730   34.8670   43.5080 H   0  0  0  0  0  0  0  0  0  0  0  0
   49.4730   33.6870   42.1730 H   0  0  0  0  0  0  0  0  0  0  0  0
   48.7400   35.6670   41.7230 C   0  0  0  0  0  0  0  0  0  0  0  0
   48.0010   36.3790   42.0410 H   0  0  0  0  0  0  0  0  0  0  0  0
   49.7300   36.2280   41.7700 H   0  0  0  0  0  0  0  0  0  0  0  0
   48.6030   35.2670   40.3210 C   0  0  0  0  0  3  0  0  0  0  0  0
   48.0380   34.3450   39.5510 C   0  0  0  0  0  3  0  0  0  0  0  0
   48.2360   34.1920   38.0530 C   0  0  0  0  0  0  0  0  0  0  0  0
   48.4580   33.1090   37.8720 H   0  0  0  0  0  0  0  0  0  0  0  0
   47.3670   34.5770   37.5250 H   0  0  0  0  0  0  0  0  0  0  0  0
   49.1560   34.7760   37.8050 H   0  0  0  0  0  0  0  0  0  0  0  0
   46.5140   31.3370   45.3600 O   0  0  0  0  0  0  0  0  0  0  0  0
   45.4540   30.1580   47.2480 C   0  0  0  0  0  0  0  0  0  0  0  0
   46.0650   31.2210   46.6690 C   0  0  0  0  0  0  0  0  0  0  0  0
   46.2920   32.3450   47.4410 C   0  0  0  0  0  0  0  0  0  0  0  0
   45.9230   32.4200   48.7640 C   0  0  0  0  0  0  0  0  0  0  0  0
   45.3020   31.3290   49.3430 C   0  0  0  0  0  0  0  0  0  0  0  0
   45.0750   30.2020   48.5680 C   0  0  0  0  0  0  0  0  0  0  0  0
   46.7710   33.2390   47.0630 H   0  0  0  0  0  0  0  0  0  0  0  0
   46.1010   33.3060   49.3730 H   0  0  0  0  0  0  0  0  0  0  0  0
   45.0110   31.3840   50.3860 H   0  0  0  0  0  0  0  0  0  0  0  0
   44.5890   29.3480   49.0210 H   0  0  0  0  0  0  0  0  0  0  0  0
   45.1040   28.8170   46.2060 S   0  0  0  0  0  0  0  0  0  0  0  0
   44.2700   29.1370   45.0330 O   0  0  0  0  0  0  0  0  0  0  0  0
   44.2620   27.8310   47.0470 O   0  0  0  0  0  0  0  0  0  0  0  0
   46.5500   27.9600   45.7260 C   0  0  0  0  0  3  0  0  0  0  0  0
   46.7220   26.9450   44.9030 C   0  0  0  0  0  3  0  0  0  0  0  0
   48.0420   26.3190   44.5960 C   0  0  0  0  0  2  0  0  0  0  0  0
   48.6950   26.3030   45.4920 H   0  0  0  0  0  0  0  0  0  0  0  0
  1  6  1  0  0  0  0
  2  3  1  0  0  0  0
  2  1  2  0  0  0  0
  3  4  2  0  0  0  0
  4  5  1  0  0  0  0
  5 21  1  0  0  0  0
  6  5  2  0  0  0  0
  7  1  1  0  0  0  0
  8  2  1  0  0  0  0
  9  3  1  0  0  0  0
  9 10  1  0  0  0  0
 11  9  1  0  0  0  0
 12 14  1  0  0  0  0
 12 13  1  0  0  0  0
 12  9  1  0  0  0  0
 15 12  1  0  0  0  0
 16 15  2  0  0  0  0
 17 16  1  0  0  0  0
 18 17  1  0  0  0  0
 19 17  1  0  0  0  0
 20 17  1  0  0  0  0
 21 23  1  0  0  0  0
 22 27  1  0  0  0  0
 23 22  2  0  0  0  0
 23 24  1  0  0  0  0
 24 25  2  0  0  0  0
 25 26  1  0  0  0  0
 25 29  1  0  0  0  0
 26 30  1  0  0  0  0
 27 31  1  0  0  0  0
 27 26  2  0  0  0  0
 28 24  1  0  0  0  0
 32 34  2  0  0  0  0
 32 22  1  0  0  0  0
 33 32  2  0  0  0  0
 35 32  1  0  0  0  0
 36 35  2  0  0  0  0
 37 36  1  0  0  0  0
 37 38  1  0  0  0  0
M  END
>  <minimizedAffinity>
-5.410254

>  <minimizedRMSD>
0.872204006

$$$$
