
 OpenBabel03242517543D

 38 39  0  0  0  0  0  0  0  0999 V2000
   45.3170   34.2450   43.7690 C   0  0  0  0  0  0  0  0  0  0  0  0
   46.4750   34.7510   43.1460 C   0  0  0  0  0  0  0  0  0  0  0  0
   47.6610   34.0810   43.2840 C   0  0  0  0  0  0  0  0  0  0  0  0
   47.6290   32.9610   44.0240 N   0  0  0  0  0  0  0  0  0  0  0  0
   46.5430   32.4860   44.6080 C   0  0  0  0  0  0  0  0  0  0  0  0
   45.3850   33.1270   44.4830 N   0  0  0  0  0  0  0  0  0  0  0  0
   44.3740   34.7660   43.6660 H   0  0  0  0  0  0  0  0  0  0  0  0
   46.3240   35.6570   42.5880 H   0  0  0  0  0  0  0  0  0  0  0  0
   48.9170   34.5140   42.6610 C   0  0  0  0  0  0  0  0  0  0  0  0
   49.5740   34.8690   43.5060 H   0  0  0  0  0  0  0  0  0  0  0  0
   49.4750   33.6900   42.1710 H   0  0  0  0  0  0  0  0  0  0  0  0
   48.7380   35.6690   41.7220 C   0  0  0  0  0  0  0  0  0  0  0  0
   47.9980   36.3780   42.0400 H   0  0  0  0  0  0  0  0  0  0  0  0
   49.7270   36.2310   41.7690 H   0  0  0  0  0  0  0  0  0  0  0  0
   48.6030   35.2680   40.3200 C   0  0  0  0  0  3  0  0  0  0  0  0
   48.0390   34.3470   39.5490 C   0  0  0  0  0  3  0  0  0  0  0  0
   48.2390   34.1950   38.0510 C   0  0  0  0  0  0  0  0  0  0  0  0
   48.4610   33.1110   37.8700 H   0  0  0  0  0  0  0  0  0  0  0  0
   47.3700   34.5790   37.5230 H   0  0  0  0  0  0  0  0  0  0  0  0
   49.1590   34.7780   37.8050 H   0  0  0  0  0  0  0  0  0  0  0  0
   46.5240   31.3370   45.3640 O   0  0  0  0  0  0  0  0  0  0  0  0
   45.4530   30.1590   47.2460 C   0  0  0  0  0  0  0  0  0  0  0  0
   46.0700   31.2200   46.6710 C   0  0  0  0  0  0  0  0  0  0  0  0
   46.2990   32.3420   47.4450 C   0  0  0  0  0  0  0  0  0  0  0  0
   45.9270   32.4170   48.7670 C   0  0  0  0  0  0  0  0  0  0  0  0
   45.2990   31.3280   49.3430 C   0  0  0  0  0  0  0  0  0  0  0  0
   45.0700   30.2030   48.5650 C   0  0  0  0  0  0  0  0  0  0  0  0
   46.7830   33.2340   47.0700 H   0  0  0  0  0  0  0  0  0  0  0  0
   46.1060   33.3000   49.3780 H   0  0  0  0  0  0  0  0  0  0  0  0
   45.0050   31.3820   50.3850 H   0  0  0  0  0  0  0  0  0  0  0  0
   44.5790   29.3500   49.0150 H   0  0  0  0  0  0  0  0  0  0  0  0
   45.1000   28.8210   46.2020 S   0  0  0  0  0  0  0  0  0  0  0  0
   44.2980   29.1530   45.0080 O   0  0  0  0  0  0  0  0  0  0  0  0
   44.2210   27.8550   47.0270 O   0  0  0  0  0  0  0  0  0  0  0  0
   46.5390   27.9340   45.7560 C   0  0  0  0  0  3  0  0  0  0  0  0
   46.8420   27.2680   44.6600 C   0  0  0  0  0  3  0  0  0  0  0  0
   48.1330   26.5550   44.4330 C   0  0  0  0  0  2  0  0  0  0  0  0
   48.5060   26.0950   45.3720 H   0  0  0  0  0  0  0  0  0  0  0  0
  1  6  1  0  0  0  0
  2  3  1  0  0  0  0
  2  1  2  0  0  0  0
  3  4  2  0  0  0  0
  4  5  1  0  0  0  0
  5 21  1  0  0  0  0
  6  5  2  0  0  0  0
  7  1  1  0  0  0  0
  8  2  1  0  0  0  0
  9  3  1  0  0  0  0
  9 10  1  0  0  0  0
 11  9  1  0  0  0  0
 12 14  1  0  0  0  0
 12 13  1  0  0  0  0
 12  9  1  0  0  0  0
 15 12  1  0  0  0  0
 16 15  2  0  0  0  0
 17 16  1  0  0  0  0
 18 17  1  0  0  0  0
 19 17  1  0  0  0  0
 20 17  1  0  0  0  0
 21 23  1  0  0  0  0
 22 27  1  0  0  0  0
 23 22  2  0  0  0  0
 23 24  1  0  0  0  0
 24 25  2  0  0  0  0
 25 26  1  0  0  0  0
 25 29  1  0  0  0  0
 26 30  1  0  0  0  0
 27 31  1  0  0  0  0
 27 26  2  0  0  0  0
 28 24  1  0  0  0  0
 32 34  2  0  0  0  0
 32 22  1  0  0  0  0
 33 32  2  0  0  0  0
 35 32  1  0  0  0  0
 36 35  2  0  0  0  0
 37 36  1  0  0  0  0
 37 38  1  0  0  0  0
M  END
>  <minimizedAffinity>
-5.39810801

>  <minimizedRMSD>
0.927231312

$$$$
