
 OpenBabel03242517543D

 38 39  0  0  0  0  0  0  0  0999 V2000
   45.3130   34.2540   43.7670 C   0  0  0  0  0  0  0  0  0  0  0  0
   46.4740   34.7590   43.1470 C   0  0  0  0  0  0  0  0  0  0  0  0
   47.6580   34.0840   43.2850 C   0  0  0  0  0  0  0  0  0  0  0  0
   47.6210   32.9630   44.0220 N   0  0  0  0  0  0  0  0  0  0  0  0
   46.5320   32.4890   44.6030 C   0  0  0  0  0  0  0  0  0  0  0  0
   45.3760   33.1340   44.4770 N   0  0  0  0  0  0  0  0  0  0  0  0
   44.3720   34.7790   43.6640 H   0  0  0  0  0  0  0  0  0  0  0  0
   46.3260   35.6670   42.5910 H   0  0  0  0  0  0  0  0  0  0  0  0
   48.9150   34.5160   42.6650 C   0  0  0  0  0  0  0  0  0  0  0  0
   49.5700   34.8710   43.5120 H   0  0  0  0  0  0  0  0  0  0  0  0
   49.4750   33.6900   42.1780 H   0  0  0  0  0  0  0  0  0  0  0  0
   48.7410   35.6690   41.7240 C   0  0  0  0  0  0  0  0  0  0  0  0
   48.0030   36.3820   42.0400 H   0  0  0  0  0  0  0  0  0  0  0  0
   49.7320   36.2280   41.7700 H   0  0  0  0  0  0  0  0  0  0  0  0
   48.6040   35.2660   40.3230 C   0  0  0  0  0  3  0  0  0  0  0  0
   48.0370   34.3450   39.5540 C   0  0  0  0  0  3  0  0  0  0  0  0
   48.2360   34.1890   38.0560 C   0  0  0  0  0  0  0  0  0  0  0  0
   48.4540   33.1040   37.8780 H   0  0  0  0  0  0  0  0  0  0  0  0
   47.3680   34.5750   37.5270 H   0  0  0  0  0  0  0  0  0  0  0  0
   49.1570   34.7690   37.8090 H   0  0  0  0  0  0  0  0  0  0  0  0
   46.5080   31.3380   45.3560 O   0  0  0  0  0  0  0  0  0  0  0  0
   45.4570   30.1570   47.2470 C   0  0  0  0  0  0  0  0  0  0  0  0
   46.0630   31.2220   46.6660 C   0  0  0  0  0  0  0  0  0  0  0  0
   46.2870   32.3480   47.4360 C   0  0  0  0  0  0  0  0  0  0  0  0
   45.9220   32.4230   48.7590 C   0  0  0  0  0  0  0  0  0  0  0  0
   45.3070   31.3310   49.3410 C   0  0  0  0  0  0  0  0  0  0  0  0
   45.0810   30.2020   48.5690 C   0  0  0  0  0  0  0  0  0  0  0  0
   46.7620   33.2430   47.0550 H   0  0  0  0  0  0  0  0  0  0  0  0
   46.0980   33.3100   49.3660 H   0  0  0  0  0  0  0  0  0  0  0  0
   45.0180   31.3860   50.3850 H   0  0  0  0  0  0  0  0  0  0  0  0
   44.6000   29.3470   49.0240 H   0  0  0  0  0  0  0  0  0  0  0  0
   45.1090   28.8140   46.2090 S   0  0  0  0  0  0  0  0  0  0  0  0
   44.2510   29.1250   45.0490 O   0  0  0  0  0  0  0  0  0  0  0  0
   44.2950   27.8140   47.0610 O   0  0  0  0  0  0  0  0  0  0  0  0
   46.5590   27.9780   45.7020 C   0  0  0  0  0  3  0  0  0  0  0  0
   47.1880   27.9570   44.5450 C   0  0  0  0  0  3  0  0  0  0  0  0
   48.4320   27.1790   44.2720 C   0  0  0  0  0  2  0  0  0  0  0  0
   48.4250   26.2110   44.8130 H   0  0  0  0  0  0  0  0  0  0  0  0
  1  6  1  0  0  0  0
  2  3  1  0  0  0  0
  2  1  2  0  0  0  0
  3  4  2  0  0  0  0
  4  5  1  0  0  0  0
  5 21  1  0  0  0  0
  6  5  2  0  0  0  0
  7  1  1  0  0  0  0
  8  2  1  0  0  0  0
  9  3  1  0  0  0  0
  9 10  1  0  0  0  0
 11  9  1  0  0  0  0
 12 14  1  0  0  0  0
 12 13  1  0  0  0  0
 12  9  1  0  0  0  0
 15 12  1  0  0  0  0
 16 15  2  0  0  0  0
 17 16  1  0  0  0  0
 18 17  1  0  0  0  0
 19 17  1  0  0  0  0
 20 17  1  0  0  0  0
 21 23  1  0  0  0  0
 22 27  1  0  0  0  0
 23 22  2  0  0  0  0
 23 24  1  0  0  0  0
 24 25  2  0  0  0  0
 25 26  1  0  0  0  0
 25 29  1  0  0  0  0
 26 30  1  0  0  0  0
 27 31  1  0  0  0  0
 27 26  2  0  0  0  0
 28 24  1  0  0  0  0
 32 34  2  0  0  0  0
 32 22  1  0  0  0  0
 33 32  2  0  0  0  0
 35 32  1  0  0  0  0
 36 35  2  0  0  0  0
 37 36  1  0  0  0  0
 37 38  1  0  0  0  0
M  END
>  <minimizedAffinity>
-5.41400051

>  <minimizedRMSD>
0.951430202

$$$$
