
 OpenBabel03242517553D

 38 39  0  0  0  0  0  0  0  0999 V2000
   45.3110   34.2640   43.7690 C   0  0  0  0  0  0  0  0  0  0  0  0
   46.4730   34.7660   43.1490 C   0  0  0  0  0  0  0  0  0  0  0  0
   47.6550   34.0860   43.2860 C   0  0  0  0  0  0  0  0  0  0  0  0
   47.6140   32.9640   44.0200 N   0  0  0  0  0  0  0  0  0  0  0  0
   46.5240   32.4930   44.6020 C   0  0  0  0  0  0  0  0  0  0  0  0
   45.3700   33.1430   44.4770 N   0  0  0  0  0  0  0  0  0  0  0  0
   44.3720   34.7930   43.6670 H   0  0  0  0  0  0  0  0  0  0  0  0
   46.3290   35.6750   42.5950 H   0  0  0  0  0  0  0  0  0  0  0  0
   48.9140   34.5140   42.6650 C   0  0  0  0  0  0  0  0  0  0  0  0
   49.5700   34.8670   43.5130 H   0  0  0  0  0  0  0  0  0  0  0  0
   49.4700   33.6860   42.1780 H   0  0  0  0  0  0  0  0  0  0  0  0
   48.7430   35.6680   41.7240 C   0  0  0  0  0  0  0  0  0  0  0  0
   48.0080   36.3830   42.0410 H   0  0  0  0  0  0  0  0  0  0  0  0
   49.7360   36.2240   41.7710 H   0  0  0  0  0  0  0  0  0  0  0  0
   48.6050   35.2660   40.3230 C   0  0  0  0  0  3  0  0  0  0  0  0
   48.0370   34.3450   39.5550 C   0  0  0  0  0  3  0  0  0  0  0  0
   48.2340   34.1900   38.0560 C   0  0  0  0  0  0  0  0  0  0  0  0
   48.4540   33.1050   37.8770 H   0  0  0  0  0  0  0  0  0  0  0  0
   47.3650   34.5750   37.5290 H   0  0  0  0  0  0  0  0  0  0  0  0
   49.1550   34.7710   37.8080 H   0  0  0  0  0  0  0  0  0  0  0  0
   46.4950   31.3410   45.3520 O   0  0  0  0  0  0  0  0  0  0  0  0
   45.4580   30.1590   47.2500 C   0  0  0  0  0  0  0  0  0  0  0  0
   46.0550   31.2250   46.6640 C   0  0  0  0  0  0  0  0  0  0  0  0
   46.2770   32.3540   47.4300 C   0  0  0  0  0  0  0  0  0  0  0  0
   45.9160   32.4300   48.7550 C   0  0  0  0  0  0  0  0  0  0  0  0
   45.3080   31.3360   49.3420 C   0  0  0  0  0  0  0  0  0  0  0  0
   45.0860   30.2050   48.5720 C   0  0  0  0  0  0  0  0  0  0  0  0
   46.7450   33.2510   47.0460 H   0  0  0  0  0  0  0  0  0  0  0  0
   46.0890   33.3200   49.3600 H   0  0  0  0  0  0  0  0  0  0  0  0
   45.0230   31.3920   50.3860 H   0  0  0  0  0  0  0  0  0  0  0  0
   44.6110   29.3480   49.0310 H   0  0  0  0  0  0  0  0  0  0  0  0
   45.1130   28.8120   46.2160 S   0  0  0  0  0  0  0  0  0  0  0  0
   44.2410   29.1130   45.0640 O   0  0  0  0  0  0  0  0  0  0  0  0
   44.3170   27.8040   47.0760 O   0  0  0  0  0  0  0  0  0  0  0  0
   46.5660   27.9900   45.6960 C   0  0  0  0  0  3  0  0  0  0  0  0
   47.7770   27.9560   46.2160 C   0  0  0  0  0  3  0  0  0  0  0  0
   48.9230   27.1940   45.6410 C   0  0  0  0  0  2  0  0  0  0  0  0
   48.8960   27.2070   44.5330 H   0  0  0  0  0  0  0  0  0  0  0  0
  1  6  1  0  0  0  0
  2  3  1  0  0  0  0
  2  1  2  0  0  0  0
  3  4  2  0  0  0  0
  4  5  1  0  0  0  0
  5 21  1  0  0  0  0
  6  5  2  0  0  0  0
  7  1  1  0  0  0  0
  8  2  1  0  0  0  0
  9  3  1  0  0  0  0
  9 10  1  0  0  0  0
 11  9  1  0  0  0  0
 12 14  1  0  0  0  0
 12 13  1  0  0  0  0
 12  9  1  0  0  0  0
 15 12  1  0  0  0  0
 16 15  2  0  0  0  0
 17 16  1  0  0  0  0
 18 17  1  0  0  0  0
 19 17  1  0  0  0  0
 20 17  1  0  0  0  0
 21 23  1  0  0  0  0
 22 27  1  0  0  0  0
 23 22  2  0  0  0  0
 23 24  1  0  0  0  0
 24 25  2  0  0  0  0
 25 26  1  0  0  0  0
 25 29  1  0  0  0  0
 26 30  1  0  0  0  0
 27 31  1  0  0  0  0
 27 26  2  0  0  0  0
 28 24  1  0  0  0  0
 32 34  2  0  0  0  0
 32 22  1  0  0  0  0
 33 32  2  0  0  0  0
 35 36  2  0  0  0  0
 35 32  1  0  0  0  0
 37 36  1  0  0  0  0
 38 37  1  0  0  0  0
M  END
>  <minimizedAffinity>
-5.44504976

>  <minimizedRMSD>
0.87127775

$$$$
