
 OpenBabel03242517553D

 38 39  0  0  0  0  0  0  0  0999 V2000
   45.3220   34.2450   43.7670 C   0  0  0  0  0  0  0  0  0  0  0  0
   46.4790   34.7530   43.1420 C   0  0  0  0  0  0  0  0  0  0  0  0
   47.6660   34.0840   43.2810 C   0  0  0  0  0  0  0  0  0  0  0  0
   47.6360   32.9650   44.0210 N   0  0  0  0  0  0  0  0  0  0  0  0
   46.5510   32.4880   44.6070 C   0  0  0  0  0  0  0  0  0  0  0  0
   45.3910   33.1280   44.4810 N   0  0  0  0  0  0  0  0  0  0  0  0
   44.3780   34.7650   43.6640 H   0  0  0  0  0  0  0  0  0  0  0  0
   46.3260   35.6580   42.5830 H   0  0  0  0  0  0  0  0  0  0  0  0
   48.9200   34.5190   42.6560 C   0  0  0  0  0  0  0  0  0  0  0  0
   49.5780   34.8740   43.5010 H   0  0  0  0  0  0  0  0  0  0  0  0
   49.4800   33.6950   42.1660 H   0  0  0  0  0  0  0  0  0  0  0  0
   48.7400   35.6730   41.7170 C   0  0  0  0  0  0  0  0  0  0  0  0
   48.0000   36.3820   42.0360 H   0  0  0  0  0  0  0  0  0  0  0  0
   49.7290   36.2360   41.7620 H   0  0  0  0  0  0  0  0  0  0  0  0
   48.6020   35.2720   40.3160 C   0  0  0  0  0  3  0  0  0  0  0  0
   48.0420   34.3460   39.5470 C   0  0  0  0  0  3  0  0  0  0  0  0
   48.2370   34.1960   38.0480 C   0  0  0  0  0  0  0  0  0  0  0  0
   48.4670   33.1140   37.8660 H   0  0  0  0  0  0  0  0  0  0  0  0
   47.3620   34.5730   37.5240 H   0  0  0  0  0  0  0  0  0  0  0  0
   49.1500   34.7870   37.7980 H   0  0  0  0  0  0  0  0  0  0  0  0
   46.5330   31.3400   45.3630 O   0  0  0  0  0  0  0  0  0  0  0  0
   45.4530   30.1620   47.2400 C   0  0  0  0  0  0  0  0  0  0  0  0
   46.0740   31.2230   46.6690 C   0  0  0  0  0  0  0  0  0  0  0  0
   46.3020   32.3430   47.4450 C   0  0  0  0  0  0  0  0  0  0  0  0
   45.9250   32.4170   48.7660 C   0  0  0  0  0  0  0  0  0  0  0  0
   45.2930   31.3280   49.3370 C   0  0  0  0  0  0  0  0  0  0  0  0
   45.0650   30.2050   48.5580 C   0  0  0  0  0  0  0  0  0  0  0  0
   46.7890   33.2350   47.0730 H   0  0  0  0  0  0  0  0  0  0  0  0
   46.1040   33.2990   49.3780 H   0  0  0  0  0  0  0  0  0  0  0  0
   44.9950   31.3810   50.3780 H   0  0  0  0  0  0  0  0  0  0  0  0
   44.5700   29.3530   49.0040 H   0  0  0  0  0  0  0  0  0  0  0  0
   45.1020   28.8260   46.1920 S   0  0  0  0  0  0  0  0  0  0  0  0
   44.3110   29.1620   44.9930 O   0  0  0  0  0  0  0  0  0  0  0  0
   44.2120   27.8630   47.0100 O   0  0  0  0  0  0  0  0  0  0  0  0
   46.5400   27.9330   45.7570 C   0  0  0  0  0  3  0  0  0  0  0  0
   46.7540   27.0420   44.8090 C   0  0  0  0  0  3  0  0  0  0  0  0
   48.0600   26.3620   44.5670 C   0  0  0  0  0  2  0  0  0  0  0  0
   48.5870   26.1570   45.5210 H   0  0  0  0  0  0  0  0  0  0  0  0
  1  6  1  0  0  0  0
  2  3  1  0  0  0  0
  2  1  2  0  0  0  0
  3  4  2  0  0  0  0
  4  5  1  0  0  0  0
  5 21  1  0  0  0  0
  6  5  2  0  0  0  0
  7  1  1  0  0  0  0
  8  2  1  0  0  0  0
  9  3  1  0  0  0  0
  9 10  1  0  0  0  0
 11  9  1  0  0  0  0
 12 14  1  0  0  0  0
 12 13  1  0  0  0  0
 12  9  1  0  0  0  0
 15 12  1  0  0  0  0
 16 15  2  0  0  0  0
 17 16  1  0  0  0  0
 18 17  1  0  0  0  0
 19 17  1  0  0  0  0
 20 17  1  0  0  0  0
 21 23  1  0  0  0  0
 22 27  1  0  0  0  0
 23 22  2  0  0  0  0
 23 24  1  0  0  0  0
 24 25  2  0  0  0  0
 25 26  1  0  0  0  0
 25 29  1  0  0  0  0
 26 30  1  0  0  0  0
 27 31  1  0  0  0  0
 27 26  2  0  0  0  0
 28 24  1  0  0  0  0
 32 34  2  0  0  0  0
 32 22  1  0  0  0  0
 33 32  2  0  0  0  0
 35 32  1  0  0  0  0
 36 35  2  0  0  0  0
 37 36  1  0  0  0  0
 37 38  1  0  0  0  0
M  END
>  <minimizedAffinity>
-5.41276693

>  <minimizedRMSD>
1.09215057

$$$$
