
 OpenBabel03252507033D

 42 44  0  0  0  0  0  0  0  0999 V2000
   43.3000   32.7370   40.8770 C   0  0  0  0  0  0  0  0  0  0  0  0
   43.2810   32.8540   39.7660 H   0  0  0  0  0  0  0  0  0  0  0  0
   43.7340   31.7240   41.1080 H   0  0  0  0  0  0  0  0  0  0  0  0
   44.1930   33.7130   41.5240 C   0  0  0  0  0  0  0  0  0  0  0  0
   43.6880   34.8710   42.0670 C   0  0  0  0  0  0  0  0  0  0  0  0
   44.5700   35.7630   42.6630 C   0  0  0  0  0  0  0  0  0  0  0  0
   45.9020   35.4400   42.6800 N   0  0  0  0  0  0  0  0  0  0  0  0
   46.3500   34.3100   42.1470 C   0  0  0  0  0  0  0  0  0  0  0  0
   45.4830   33.4710   41.5790 N   0  0  0  0  0  0  0  0  0  0  0  0
   42.6980   35.2830   42.1640 H   0  0  0  0  0  0  0  0  0  0  0  0
   44.3530   36.7140   43.1340 H   0  0  0  0  0  0  0  0  0  0  0  0
   47.7830   34.0380   42.2340 C   0  0  0  0  0  0  0  0  0  0  0  0
   48.2560   32.7290   42.2230 C   0  0  0  0  0  0  0  0  0  0  0  0
   49.6100   32.4850   42.3180 C   0  0  0  0  0  0  0  0  0  0  0  0
   50.3880   33.6010   42.4180 C   0  0  0  0  0  0  0  0  0  0  0  0
   49.9700   34.9270   42.4340 C   0  0  0  0  0  0  0  0  0  0  0  0
   48.6270   35.0930   42.3360 N   0  0  0  0  0  0  0  0  0  0  0  0
   47.5340   31.9090   42.1380 H   0  0  0  0  0  0  0  0  0  0  0  0
   50.0130   31.5010   42.3130 H   0  0  0  0  0  0  0  0  0  0  0  0
   51.4690   33.4690   42.4950 H   0  0  0  0  0  0  0  0  0  0  0  0
   50.6570   35.7540   42.5160 H   0  0  0  0  0  0  0  0  0  0  0  0
   41.9550   32.8510   41.5050 C   0  0  0  0  0  0  0  0  0  0  0  0
   41.9640   32.2580   42.4470 H   0  0  0  0  0  0  0  0  0  0  0  0
   41.9150   33.9240   41.8950 H   0  0  0  0  0  0  0  0  0  0  0  0
   40.9550   32.5260   40.6910 N   0  0  0  0  0  0  0  0  0  0  0  0
   40.5400   31.2580   40.2360 C   0  0  0  0  0  0  0  0  0  0  0  0
   39.2710   31.1100   41.1090 C   0  0  0  0  0  0  0  0  0  0  0  0
   38.2780   32.1310   40.8280 C   0  0  0  0  0  0  0  0  0  0  0  0
   38.6880   33.4120   40.2940 C   0  0  0  0  0  0  0  0  0  0  0  0
   40.1620   33.6840   40.2150 C   0  0  0  0  0  0  0  0  0  0  0  0
   41.2660   30.4850   40.5760 H   0  0  0  0  0  0  0  0  0  0  0  0
   40.3610   31.0820   39.1890 H   0  0  0  0  0  0  0  0  0  0  0  0
   38.9120   30.0680   40.9270 H   0  0  0  0  0  0  0  0  0  0  0  0
   39.6120   31.1440   42.1640 H   0  0  0  0  0  0  0  0  0  0  0  0
   37.6890   32.3340   41.7710 H   0  0  0  0  0  0  0  0  0  0  0  0
   37.4980   31.6980   40.1400 H   0  0  0  0  0  0  0  0  0  0  0  0
   38.0730   34.2080   39.9620 H   0  0  0  0  0  0  0  0  0  0  0  0
   40.7870   35.2250   39.6500 S   0  0  0  0  0  0  0  0  0  0  0  0
   40.7260   35.4340   37.9010 C   0  0  0  0  0  3  0  0  0  0  0  0
   41.1320   36.6100   37.4420 C   0  0  0  0  0  3  0  0  0  0  0  0
   41.1690   37.0140   36.0100 C   0  0  0  0  0  2  0  0  0  0  0  0
   42.2390   37.2380   35.7310 H   0  0  0  0  0  0  0  0  0  0  0  0
  1  3  1  0  0  0  0
  1 22  1  0  0  0  0
  1  4  1  0  0  0  0
  2  1  1  0  0  0  0
  4  9  2  0  0  0  0
  4  5  1  0  0  0  0
  5 10  1  0  0  0  0
  5  6  2  0  0  0  0
  6  7  1  0  0  0  0
  6 11  1  0  0  0  0
  8 12  1  0  0  0  0
  8  7  2  0  0  0  0
  9  8  1  0  0  0  0
 12 17  1  0  0  0  0
 13 12  2  0  0  0  0
 13 14  1  0  0  0  0
 14 15  2  0  0  0  0
 15 16  1  0  0  0  0
 15 20  1  0  0  0  0
 16 21  1  0  0  0  0
 17 16  2  0  0  0  0
 18 13  1  0  0  0  0
 19 14  1  0  0  0  0
 22 24  1  0  0  0  0
 22 23  1  0  0  0  0
 25 22  1  0  0  0  0
 26 31  1  0  0  0  0
 26 25  1  0  0  0  0
 26 27  1  0  0  0  0
 27 34  1  0  0  0  0
 28 27  1  0  0  0  0
 28 35  1  0  0  0  0
 29 28  1  0  0  0  0
 30 29  2  0  0  0  0
 30 25  1  0  0  0  0
 32 26  1  0  0  0  0
 33 27  1  0  0  0  0
 36 28  1  0  0  0  0
 37 29  1  0  0  0  0
 38 30  1  0  0  0  0
 39 38  1  0  0  0  0
 40 39  2  0  0  0  0
 41 40  1  0  0  0  0
 42 41  1  0  0  0  0
M  END
>  <minimizedAffinity>
-5.42201567

>  <minimizedRMSD>
1.03122711

$$$$
