
 OpenBabel03252507033D

 42 44  0  0  0  0  0  0  0  0999 V2000
   43.2460   32.6880   41.6260 C   0  0  0  0  0  0  0  0  0  0  0  0
   43.4340   32.3170   40.5890 H   0  0  0  0  0  0  0  0  0  0  0  0
   43.3580   31.8160   42.3280 H   0  0  0  0  0  0  0  0  0  0  0  0
   44.2490   33.6790   42.0520 C   0  0  0  0  0  0  0  0  0  0  0  0
   43.8600   34.9170   42.5050 C   0  0  0  0  0  0  0  0  0  0  0  0
   44.8420   35.8200   42.8930 C   0  0  0  0  0  0  0  0  0  0  0  0
   46.1520   35.4250   42.8040 N   0  0  0  0  0  0  0  0  0  0  0  0
   46.4870   34.2180   42.3640 C   0  0  0  0  0  0  0  0  0  0  0  0
   45.5250   33.3720   41.9970 N   0  0  0  0  0  0  0  0  0  0  0  0
   42.9060   35.3930   42.6580 H   0  0  0  0  0  0  0  0  0  0  0  0
   44.7220   36.8280   43.2670 H   0  0  0  0  0  0  0  0  0  0  0  0
   47.9070   33.8770   42.3280 C   0  0  0  0  0  0  0  0  0  0  0  0
   48.3130   32.5620   42.1190 C   0  0  0  0  0  0  0  0  0  0  0  0
   49.6560   32.2500   42.0990 C   0  0  0  0  0  0  0  0  0  0  0  0
   50.4930   33.3100   42.2950 C   0  0  0  0  0  0  0  0  0  0  0  0
   50.1430   34.6380   42.5070 C   0  0  0  0  0  0  0  0  0  0  0  0
   48.8060   34.8730   42.5140 N   0  0  0  0  0  0  0  0  0  0  0  0
   47.5470   31.7920   41.9730 H   0  0  0  0  0  0  0  0  0  0  0  0
   50.0080   31.2600   41.9430 H   0  0  0  0  0  0  0  0  0  0  0  0
   51.5690   33.1220   42.2890 H   0  0  0  0  0  0  0  0  0  0  0  0
   50.8740   35.4170   42.6530 H   0  0  0  0  0  0  0  0  0  0  0  0
   41.8950   33.2900   41.8010 C   0  0  0  0  0  0  0  0  0  0  0  0
   41.4890   32.9430   42.7780 H   0  0  0  0  0  0  0  0  0  0  0  0
   42.1020   34.3950   42.0040 H   0  0  0  0  0  0  0  0  0  0  0  0
   41.0730   33.0640   40.7820 N   0  0  0  0  0  0  0  0  0  0  0  0
   40.3530   31.8980   40.4460 C   0  0  0  0  0  0  0  0  0  0  0  0
   38.9450   32.3690   40.8830 C   0  0  0  0  0  0  0  0  0  0  0  0
   38.4820   33.5200   40.1290 C   0  0  0  0  0  0  0  0  0  0  0  0
   39.4390   34.4320   39.5390 C   0  0  0  0  0  0  0  0  0  0  0  0
   40.8860   34.2290   39.8850 C   0  0  0  0  0  0  0  0  0  0  0  0
   40.6490   31.0690   41.1270 H   0  0  0  0  0  0  0  0  0  0  0  0
   40.3800   31.5070   39.4440 H   0  0  0  0  0  0  0  0  0  0  0  0
   38.2930   31.4690   40.7800 H   0  0  0  0  0  0  0  0  0  0  0  0
   39.0120   32.5860   41.9690 H   0  0  0  0  0  0  0  0  0  0  0  0
   37.7970   34.1330   40.7860 H   0  0  0  0  0  0  0  0  0  0  0  0
   37.7880   33.1650   39.3160 H   0  0  0  0  0  0  0  0  0  0  0  0
   39.2490   35.2520   38.8960 H   0  0  0  0  0  0  0  0  0  0  0  0
   42.1370   35.3080   39.2890 S   0  0  0  0  0  0  0  0  0  0  0  0
   42.0050   35.6920   37.5740 C   0  0  0  0  0  3  0  0  0  0  0  0
   41.2250   36.7190   37.2690 C   0  0  0  0  0  3  0  0  0  0  0  0
   40.9630   37.2260   35.8930 C   0  0  0  0  0  2  0  0  0  0  0  0
   41.3290   38.2910   35.8300 H   0  0  0  0  0  0  0  0  0  0  0  0
  1 22  1  0  0  0  0
  1  4  1  0  0  0  0
  1  3  1  0  0  0  0
  2  1  1  0  0  0  0
  4  5  1  0  0  0  0
  5 10  1  0  0  0  0
  5  6  2  0  0  0  0
  6 11  1  0  0  0  0
  7  6  1  0  0  0  0
  8  7  2  0  0  0  0
  9  4  2  0  0  0  0
  9  8  1  0  0  0  0
 12  8  1  0  0  0  0
 12 17  1  0  0  0  0
 13 12  2  0  0  0  0
 14 13  1  0  0  0  0
 14 15  2  0  0  0  0
 15 16  1  0  0  0  0
 16 17  2  0  0  0  0
 16 21  1  0  0  0  0
 18 13  1  0  0  0  0
 19 14  1  0  0  0  0
 20 15  1  0  0  0  0
 22 24  1  0  0  0  0
 22 23  1  0  0  0  0
 25 22  1  0  0  0  0
 26 25  1  0  0  0  0
 26 27  1  0  0  0  0
 26 31  1  0  0  0  0
 27 34  1  0  0  0  0
 28 35  1  0  0  0  0
 28 27  1  0  0  0  0
 29 30  2  0  0  0  0
 29 28  1  0  0  0  0
 30 25  1  0  0  0  0
 32 26  1  0  0  0  0
 33 27  1  0  0  0  0
 36 28  1  0  0  0  0
 37 29  1  0  0  0  0
 38 30  1  0  0  0  0
 39 38  1  0  0  0  0
 40 39  2  0  0  0  0
 41 40  1  0  0  0  0
 42 41  1  0  0  0  0
M  END
>  <minimizedAffinity>
-5.18413067

>  <minimizedRMSD>
0.735276759

$$$$
