
 OpenBabel03252507033D

 42 44  0  0  0  0  0  0  0  0999 V2000
   43.0950   33.0120   41.3960 C   0  0  0  0  0  0  0  0  0  0  0  0
   43.3500   32.5930   40.3920 H   0  0  0  0  0  0  0  0  0  0  0  0
   43.0800   32.1580   42.1300 H   0  0  0  0  0  0  0  0  0  0  0  0
   44.1230   33.9450   41.8870 C   0  0  0  0  0  0  0  0  0  0  0  0
   43.7690   35.1760   42.3870 C   0  0  0  0  0  0  0  0  0  0  0  0
   44.7740   36.0240   42.8350 C   0  0  0  0  0  0  0  0  0  0  0  0
   46.0710   35.5860   42.7560 N   0  0  0  0  0  0  0  0  0  0  0  0
   46.3710   34.3870   42.2690 C   0  0  0  0  0  0  0  0  0  0  0  0
   45.3880   33.5940   41.8450 N   0  0  0  0  0  0  0  0  0  0  0  0
   42.8300   35.6790   42.5420 H   0  0  0  0  0  0  0  0  0  0  0  0
   44.6810   37.0180   43.2520 H   0  0  0  0  0  0  0  0  0  0  0  0
   47.7790   33.9960   42.2470 C   0  0  0  0  0  0  0  0  0  0  0  0
   48.1400   32.6690   42.0330 C   0  0  0  0  0  0  0  0  0  0  0  0
   49.4720   32.3100   42.0260 C   0  0  0  0  0  0  0  0  0  0  0  0
   50.3430   33.3370   42.2410 C   0  0  0  0  0  0  0  0  0  0  0  0
   50.0380   34.6760   42.4600 C   0  0  0  0  0  0  0  0  0  0  0  0
   48.7110   34.9580   42.4520 N   0  0  0  0  0  0  0  0  0  0  0  0
   47.3490   31.9280   41.8720 H   0  0  0  0  0  0  0  0  0  0  0  0
   49.7900   31.3090   41.8660 H   0  0  0  0  0  0  0  0  0  0  0  0
   51.4120   33.1120   42.2460 H   0  0  0  0  0  0  0  0  0  0  0  0
   50.7950   35.4270   42.6210 H   0  0  0  0  0  0  0  0  0  0  0  0
   41.7800   33.7110   41.4270 C   0  0  0  0  0  0  0  0  0  0  0  0
   41.4000   33.6810   42.4740 H   0  0  0  0  0  0  0  0  0  0  0  0
   42.0440   34.8150   41.2980 H   0  0  0  0  0  0  0  0  0  0  0  0
   40.9070   33.2470   40.5390 N   0  0  0  0  0  0  0  0  0  0  0  0
   40.1230   32.0760   40.5730 C   0  0  0  0  0  0  0  0  0  0  0  0
   38.7570   32.7290   40.8930 C   0  0  0  0  0  0  0  0  0  0  0  0
   38.3150   33.6390   39.8510 C   0  0  0  0  0  0  0  0  0  0  0  0
   39.2880   34.2890   38.9980 C   0  0  0  0  0  0  0  0  0  0  0  0
   40.7370   34.1150   39.3490 C   0  0  0  0  0  0  0  0  0  0  0  0
   40.4090   31.4620   41.4570 H   0  0  0  0  0  0  0  0  0  0  0  0
   40.0900   31.4130   39.7260 H   0  0  0  0  0  0  0  0  0  0  0  0
   38.0610   31.8750   41.0710 H   0  0  0  0  0  0  0  0  0  0  0  0
   38.8780   33.2440   41.8680 H   0  0  0  0  0  0  0  0  0  0  0  0
   37.6860   34.4510   40.3210 H   0  0  0  0  0  0  0  0  0  0  0  0
   37.5740   33.1040   39.1940 H   0  0  0  0  0  0  0  0  0  0  0  0
   39.1080   34.8990   38.1510 H   0  0  0  0  0  0  0  0  0  0  0  0
   42.0090   34.9060   38.4340 S   0  0  0  0  0  0  0  0  0  0  0  0
   41.5990   36.5250   37.8730 C   0  0  0  0  0  3  0  0  0  0  0  0
   41.0730   36.6020   36.6580 C   0  0  0  0  0  3  0  0  0  0  0  0
   40.6490   37.8560   35.9770 C   0  0  0  0  0  2  0  0  0  0  0  0
   39.5420   37.7950   35.7720 H   0  0  0  0  0  0  0  0  0  0  0  0
  1 22  1  0  0  0  0
  1  4  1  0  0  0  0
  1  3  1  0  0  0  0
  2  1  1  0  0  0  0
  4  5  1  0  0  0  0
  5 10  1  0  0  0  0
  5  6  2  0  0  0  0
  6 11  1  0  0  0  0
  7  6  1  0  0  0  0
  8  7  2  0  0  0  0
  9  4  2  0  0  0  0
  9  8  1  0  0  0  0
 12  8  1  0  0  0  0
 12 17  1  0  0  0  0
 13 12  2  0  0  0  0
 14 13  1  0  0  0  0
 14 15  2  0  0  0  0
 15 20  1  0  0  0  0
 15 16  1  0  0  0  0
 16 21  1  0  0  0  0
 17 16  2  0  0  0  0
 18 13  1  0  0  0  0
 19 14  1  0  0  0  0
 22 23  1  0  0  0  0
 24 22  1  0  0  0  0
 25 26  1  0  0  0  0
 25 22  1  0  0  0  0
 26 27  1  0  0  0  0
 26 31  1  0  0  0  0
 27 33  1  0  0  0  0
 27 34  1  0  0  0  0
 28 35  1  0  0  0  0
 28 27  1  0  0  0  0
 29 30  2  0  0  0  0
 29 28  1  0  0  0  0
 30 25  1  0  0  0  0
 32 26  1  0  0  0  0
 36 28  1  0  0  0  0
 37 29  1  0  0  0  0
 38 30  1  0  0  0  0
 39 38  1  0  0  0  0
 40 39  2  0  0  0  0
 41 40  1  0  0  0  0
 42 41  1  0  0  0  0
M  END
>  <minimizedAffinity>
-5.25850439

>  <minimizedRMSD>
0.58193785

$$$$
