
 OpenBabel03252505483D

 24 25  0  0  1  0  0  0  0  0999 V2000
   37.2250   26.7390   42.2920 C   0  0  0  0  0  0  0  0  0  0  0  0
   38.0930   27.3030   43.2700 C   0  0  0  0  0  0  0  0  0  0  0  0
   38.2230   28.6930   43.3980 C   0  0  0  0  0  0  0  0  0  0  0  0
   37.4680   29.4310   42.5310 N   0  0  0  0  0  0  0  0  0  0  0  0
   36.6450   28.8480   41.6030 C   0  0  0  0  0  0  0  0  0  0  0  0
   36.5370   27.5370   41.5000 N   0  0  0  0  0  0  0  0  0  0  0  0
   38.6820   26.6850   43.9460 H   0  0  0  0  0  0  0  0  0  0  0  0
   38.8690   29.1480   44.1280 H   0  0  0  0  0  0  0  0  0  0  0  0
   37.1490   25.2710   42.2030 C   0  0  1  0  0  0  0  0  0  0  0  0
   37.8370   24.7450   40.8920 C   0  0  1  0  0  0  0  0  0  0  0  0
   38.2460   24.3840   42.3010 C   0  0  0  0  0  0  0  0  0  0  0  0
   36.0940   24.8900   42.3130 H   0  0  0  0  0  0  0  0  0  0  0  0
   38.4320   25.4430   40.3100 H   0  0  0  0  0  0  0  0  0  0  0  0
   38.1660   23.3520   42.6440 H   0  0  0  0  0  0  0  0  0  0  0  0
   39.2520   24.8220   42.5730 H   0  0  0  0  0  0  0  0  0  0  0  0
   37.0590   23.6610   40.1870 C   0  0  0  0  0  0  0  0  0  0  0  0
   35.7050   23.8180   40.2770 F   0  0  0  0  0  0  0  0  0  0  0  0
   37.4020   23.6780   38.8230 F   0  0  0  0  0  0  0  0  0  0  0  0
   37.4500   22.4070   40.6330 F   0  0  0  0  0  0  0  0  0  0  0  0
   35.9500   29.7540   40.8000 O   0  0  0  0  0  0  0  0  0  0  0  0
   36.3630   31.0730   40.8240 C   0  0  0  0  0  3  0  0  0  0  0  0
   36.8360   31.5750   39.6800 C   0  0  0  0  0  3  0  0  0  0  0  0
   37.3390   32.9530   39.4450 C   0  0  0  0  0  2  0  0  0  0  0  0
   37.0340   33.5590   40.3360 H   0  0  0  0  0  0  0  0  0  0  0  0
  1  2  1  0  0  0  0
  2  3  2  0  0  0  0
  2  7  1  0  0  0  0
  3  8  1  0  0  0  0
  4  3  1  0  0  0  0
  5  4  2  0  0  0  0
  6  5  1  0  0  0  0
  6  1  2  0  0  0  0
  9  1  1  0  0  0  0
  9 11  1  0  0  0  0
  9 12  1  1  0  0  0
 10 13  1  6  0  0  0
 10  9  1  0  0  0  0
 10 11  1  0  0  0  0
 11 15  1  0  0  0  0
 11 14  1  0  0  0  0
 16 17  1  0  0  0  0
 16 19  1  0  0  0  0
 16 10  1  0  0  0  0
 18 16  1  0  0  0  0
 20 21  1  0  0  0  0
 20  5  1  0  0  0  0
 22 21  2  0  0  0  0
 23 22  1  0  0  0  0
 23 24  1  0  0  0  0
M  END
>  <minimizedAffinity>
-4.82726288

$$$$

 OpenBabel03252505483D

 24 25  0  0  1  0  0  0  0  0999 V2000
   36.8480   28.3110   42.0170 C   0  0  0  0  0  0  0  0  0  0  0  0
   37.5370   29.5500   42.1460 C   0  0  0  0  0  0  0  0  0  0  0  0
   37.1240   30.6800   41.4260 C   0  0  0  0  0  0  0  0  0  0  0  0
   36.0380   30.4900   40.6190 N   0  0  0  0  0  0  0  0  0  0  0  0
   35.4030   29.2800   40.5230 C   0  0  0  0  0  0  0  0  0  0  0  0
   35.8090   28.2290   41.2110 N   0  0  0  0  0  0  0  0  0  0  0  0
   38.4010   29.6670   42.7990 H   0  0  0  0  0  0  0  0  0  0  0  0
   37.6240   31.6290   41.5040 H   0  0  0  0  0  0  0  0  0  0  0  0
   37.3460   27.1610   42.7920 C   0  0  1  0  0  0  0  0  0  0  0  0
   38.1610   26.1730   41.8810 C   0  0  1  0  0  0  0  0  0  0  0  0
   38.7030   26.8980   43.0900 C   0  0  0  0  0  0  0  0  0  0  0  0
   36.5250   26.6390   43.3580 H   0  0  0  0  0  0  0  0  0  0  0  0
   38.4280   26.5010   40.8810 H   0  0  0  0  0  0  0  0  0  0  0  0
   39.0360   26.3320   43.9620 H   0  0  0  0  0  0  0  0  0  0  0  0
   39.4650   27.6830   42.8060 H   0  0  0  0  0  0  0  0  0  0  0  0
   37.8520   24.7170   42.1320 C   0  0  0  0  0  0  0  0  0  0  0  0
   36.5520   24.4900   42.4830 F   0  0  0  0  0  0  0  0  0  0  0  0
   38.1090   23.9960   40.9520 F   0  0  0  0  0  0  0  0  0  0  0  0
   38.7260   24.1840   43.0680 F   0  0  0  0  0  0  0  0  0  0  0  0
   34.3140   29.2690   39.6500 O   0  0  0  0  0  0  0  0  0  0  0  0
   34.4590   28.5850   38.4580 C   0  0  0  0  0  3  0  0  0  0  0  0
   35.0180   29.2560   37.4460 C   0  0  0  0  0  3  0  0  0  0  0  0
   35.2840   28.7510   36.0750 C   0  0  0  0  0  2  0  0  0  0  0  0
   35.1440   27.6420   36.1110 H   0  0  0  0  0  0  0  0  0  0  0  0
  1  2  1  0  0  0  0
  1  9  1  0  0  0  0
  2  7  1  0  0  0  0
  3  8  1  0  0  0  0
  3  2  2  0  0  0  0
  4  3  1  0  0  0  0
  5  4  2  0  0  0  0
  5  6  1  0  0  0  0
  6  1  2  0  0  0  0
  9 11  1  0  0  0  0
  9 12  1  1  0  0  0
 10 13  1  6  0  0  0
 10 16  1  0  0  0  0
 10  9  1  0  0  0  0
 10 11  1  0  0  0  0
 11 14  1  0  0  0  0
 15 11  1  0  0  0  0
 16 17  1  0  0  0  0
 16 19  1  0  0  0  0
 18 16  1  0  0  0  0
 20  5  1  0  0  0  0
 21 20  1  0  0  0  0
 22 21  2  0  0  0  0
 23 24  1  0  0  0  0
 23 22  1  0  0  0  0
M  END
>  <minimizedAffinity>
-4.59924889

$$$$

 OpenBabel03252505483D

 24 25  0  0  1  0  0  0  0  0999 V2000
   37.3900   29.0330   41.9570 C   0  0  0  0  0  0  0  0  0  0  0  0
   38.6560   29.1720   42.5940 C   0  0  0  0  0  0  0  0  0  0  0  0
   39.2900   28.0680   43.1800 C   0  0  0  0  0  0  0  0  0  0  0  0
   38.6080   26.8880   43.0880 N   0  0  0  0  0  0  0  0  0  0  0  0
   37.3900   26.7970   42.4650 C   0  0  0  0  0  0  0  0  0  0  0  0
   36.8120   27.8500   41.9200 N   0  0  0  0  0  0  0  0  0  0  0  0
   39.1730   30.1290   42.6510 H   0  0  0  0  0  0  0  0  0  0  0  0
   40.2470   28.1430   43.6670 H   0  0  0  0  0  0  0  0  0  0  0  0
   36.7750   30.2390   41.3760 C   0  0  1  0  0  0  0  0  0  0  0  0
   37.0950   30.3570   39.8420 C   0  0  1  0  0  0  0  0  0  0  0  0
   35.7130   30.2500   40.4420 C   0  0  0  0  0  0  0  0  0  0  0  0
   37.0490   31.1730   41.9420 H   0  0  0  0  0  0  0  0  0  0  0  0
   37.5450   29.5030   39.3450 H   0  0  0  0  0  0  0  0  0  0  0  0
   35.0060   31.0740   40.3340 H   0  0  0  0  0  0  0  0  0  0  0  0
   35.2200   29.2630   40.1950 H   0  0  0  0  0  0  0  0  0  0  0  0
   37.4610   31.7530   39.4020 C   0  0  0  0  0  0  0  0  0  0  0  0
   36.9060   32.7320   40.1780 F   0  0  0  0  0  0  0  0  0  0  0  0
   38.8590   31.8930   39.4730 F   0  0  0  0  0  0  0  0  0  0  0  0
   37.1560   31.9410   38.0620 F   0  0  0  0  0  0  0  0  0  0  0  0
   36.8390   25.5150   42.4670 O   0  0  0  0  0  0  0  0  0  0  0  0
   37.6530   24.4700   42.0740 C   0  0  0  0  0  3  0  0  0  0  0  0
   37.2330   23.7380   41.0380 C   0  0  0  0  0  3  0  0  0  0  0  0
   37.9200   22.5710   40.4270 C   0  0  0  0  0  2  0  0  0  0  0  0
   38.9590   22.5600   40.8430 H   0  0  0  0  0  0  0  0  0  0  0  0
  1  2  1  0  0  0  0
  2  7  1  0  0  0  0
  2  3  2  0  0  0  0
  3  8  1  0  0  0  0
  4  3  1  0  0  0  0
  5 20  1  0  0  0  0
  5  4  2  0  0  0  0
  6  1  2  0  0  0  0
  6  5  1  0  0  0  0
  9 12  1  1  0  0  0
  9  1  1  0  0  0  0
 10 13  1  6  0  0  0
 10 11  1  0  0  0  0
 10  9  1  0  0  0  0
 11  9  1  0  0  0  0
 14 11  1  0  0  0  0
 15 11  1  0  0  0  0
 16 18  1  0  0  0  0
 16 10  1  0  0  0  0
 16 17  1  0  0  0  0
 19 16  1  0  0  0  0
 21 20  1  0  0  0  0
 22 21  2  0  0  0  0
 23 24  1  0  0  0  0
 23 22  1  0  0  0  0
M  END
>  <minimizedAffinity>
-4.57387447

$$$$

 OpenBabel03252505483D

 24 25  0  0  1  0  0  0  0  0999 V2000
   37.0760   30.7590   40.8640 C   0  0  0  0  0  0  0  0  0  0  0  0
   35.9620   30.0820   40.2900 C   0  0  0  0  0  0  0  0  0  0  0  0
   35.5390   28.8430   40.7900 C   0  0  0  0  0  0  0  0  0  0  0  0
   36.2660   28.3610   41.8420 N   0  0  0  0  0  0  0  0  0  0  0  0
   37.3320   29.0450   42.3660 C   0  0  0  0  0  0  0  0  0  0  0  0
   37.7130   30.2110   41.8790 N   0  0  0  0  0  0  0  0  0  0  0  0
   35.4050   30.4950   39.4500 H   0  0  0  0  0  0  0  0  0  0  0  0
   34.7010   28.3100   40.3780 H   0  0  0  0  0  0  0  0  0  0  0  0
   37.4750   32.0500   40.2770 C   0  0  1  0  0  0  0  0  0  0  0  0
   38.6160   31.8620   39.2130 C   0  0  1  0  0  0  0  0  0  0  0  0
   37.2510   32.4490   38.9400 C   0  0  0  0  0  0  0  0  0  0  0  0
   37.7460   32.8110   41.0630 H   0  0  0  0  0  0  0  0  0  0  0  0
   38.8530   30.8530   38.8900 H   0  0  0  0  0  0  0  0  0  0  0  0
   37.1580   33.4890   38.6210 H   0  0  0  0  0  0  0  0  0  0  0  0
   36.6230   31.7720   38.2880 H   0  0  0  0  0  0  0  0  0  0  0  0
   39.7140   32.8930   39.3070 C   0  0  0  0  0  0  0  0  0  0  0  0
   40.4990   32.9550   38.1910 F   0  0  0  0  0  0  0  0  0  0  0  0
   39.1250   34.1590   39.4870 F   0  0  0  0  0  0  0  0  0  0  0  0
   40.4770   32.6940   40.4480 F   0  0  0  0  0  0  0  0  0  0  0  0
   37.9580   28.4030   43.4360 O   0  0  0  0  0  0  0  0  0  0  0  0
   38.1020   27.0310   43.3590 C   0  0  0  0  0  3  0  0  0  0  0  0
   39.3450   26.5650   43.2100 C   0  0  0  0  0  3  0  0  0  0  0  0
   39.7640   25.1440   43.1040 C   0  0  0  0  0  2  0  0  0  0  0  0
   38.8780   24.5290   43.4020 H   0  0  0  0  0  0  0  0  0  0  0  0
  1  6  1  0  0  0  0
  2  3  1  0  0  0  0
  2  1  2  0  0  0  0
  3  4  2  0  0  0  0
  4  5  1  0  0  0  0
  5 20  1  0  0  0  0
  6  5  2  0  0  0  0
  7  2  1  0  0  0  0
  8  3  1  0  0  0  0
  9  1  1  0  0  0  0
  9 12  1  1  0  0  0
 10 13  1  6  0  0  0
 10 16  1  0  0  0  0
 10  9  1  0  0  0  0
 11 10  1  0  0  0  0
 11  9  1  0  0  0  0
 14 11  1  0  0  0  0
 15 11  1  0  0  0  0
 16 18  1  0  0  0  0
 16 19  1  0  0  0  0
 17 16  1  0  0  0  0
 21 20  1  0  0  0  0
 22 21  2  0  0  0  0
 23 22  1  0  0  0  0
 23 24  1  0  0  0  0
M  END
>  <minimizedAffinity>
-4.50940657

$$$$

 OpenBabel03252505483D

 24 25  0  0  1  0  0  0  0  0999 V2000
   39.7910   28.2910   43.0720 C   0  0  0  0  0  0  0  0  0  0  0  0
   41.2100   28.1890   43.1210 C   0  0  0  0  0  0  0  0  0  0  0  0
   42.0210   29.2810   42.7820 C   0  0  0  0  0  0  0  0  0  0  0  0
   41.3490   30.4120   42.4120 N   0  0  0  0  0  0  0  0  0  0  0  0
   39.9800   30.4680   42.3770 C   0  0  0  0  0  0  0  0  0  0  0  0
   39.2370   29.4280   42.7020 N   0  0  0  0  0  0  0  0  0  0  0  0
   41.7140   27.2710   43.4200 H   0  0  0  0  0  0  0  0  0  0  0  0
   43.0950   29.2330   42.8110 H   0  0  0  0  0  0  0  0  0  0  0  0
   39.0010   27.0990   43.4270 C   0  0  1  0  0  0  0  0  0  0  0  0
   38.6240   26.2650   42.1490 C   0  0  1  0  0  0  0  0  0  0  0  0
   39.4400   25.7600   43.3160 C   0  0  0  0  0  0  0  0  0  0  0  0
   38.0980   27.3550   44.0500 H   0  0  0  0  0  0  0  0  0  0  0  0
   39.1090   26.5200   41.2110 H   0  0  0  0  0  0  0  0  0  0  0  0
   39.0620   24.9420   43.9310 H   0  0  0  0  0  0  0  0  0  0  0  0
   40.5200   25.5830   43.0310 H   0  0  0  0  0  0  0  0  0  0  0  0
   37.1990   25.7700   42.1430 C   0  0  0  0  0  0  0  0  0  0  0  0
   37.0680   24.4830   42.5820 F   0  0  0  0  0  0  0  0  0  0  0  0
   36.4360   26.5920   42.9920 F   0  0  0  0  0  0  0  0  0  0  0  0
   36.6290   25.9330   40.8890 F   0  0  0  0  0  0  0  0  0  0  0  0
   39.4660   31.7020   41.9750 O   0  0  0  0  0  0  0  0  0  0  0  0
   39.0300   31.8150   40.6690 C   0  0  0  0  0  3  0  0  0  0  0  0
   37.8410   32.3960   40.4810 C   0  0  0  0  0  3  0  0  0  0  0  0
   37.1540   32.6360   39.1860 C   0  0  0  0  0  2  0  0  0  0  0  0
   37.9140   32.4520   38.3850 H   0  0  0  0  0  0  0  0  0  0  0  0
  1  2  1  0  0  0  0
  1  9  1  0  0  0  0
  2  7  1  0  0  0  0
  3  8  1  0  0  0  0
  3  2  2  0  0  0  0
  4  3  1  0  0  0  0
  5  4  2  0  0  0  0
  5  6  1  0  0  0  0
  6  1  2  0  0  0  0
  9 12  1  1  0  0  0
 10 13  1  6  0  0  0
 10 11  1  0  0  0  0
 10  9  1  0  0  0  0
 11  9  1  0  0  0  0
 11 14  1  0  0  0  0
 15 11  1  0  0  0  0
 16 10  1  0  0  0  0
 16 17  1  0  0  0  0
 16 18  1  0  0  0  0
 19 16  1  0  0  0  0
 20  5  1  0  0  0  0
 21 20  1  0  0  0  0
 22 21  2  0  0  0  0
 23 22  1  0  0  0  0
 24 23  1  0  0  0  0
M  END
>  <minimizedAffinity>
-4.41287088

$$$$

 OpenBabel03252505483D

 24 25  0  0  1  0  0  0  0  0999 V2000
   36.9220   28.5730   41.7400 C   0  0  0  0  0  0  0  0  0  0  0  0
   35.7960   28.9590   40.9570 C   0  0  0  0  0  0  0  0  0  0  0  0
   35.7470   30.2180   40.3430 C   0  0  0  0  0  0  0  0  0  0  0  0
   36.8380   31.0130   40.5550 N   0  0  0  0  0  0  0  0  0  0  0  0
   37.9010   30.6030   41.3160 C   0  0  0  0  0  0  0  0  0  0  0  0
   37.9270   29.4130   41.8850 N   0  0  0  0  0  0  0  0  0  0  0  0
   34.9420   28.3000   40.8090 H   0  0  0  0  0  0  0  0  0  0  0  0
   34.9110   30.5360   39.7460 H   0  0  0  0  0  0  0  0  0  0  0  0
   36.8990   27.2410   42.3690 C   0  0  1  0  0  0  0  0  0  0  0  0
   37.7520   26.2090   41.5450 C   0  0  1  0  0  0  0  0  0  0  0  0
   38.0030   26.6040   42.9820 C   0  0  0  0  0  0  0  0  0  0  0  0
   35.8510   26.8750   42.5560 H   0  0  0  0  0  0  0  0  0  0  0  0
   38.3900   26.5890   40.7530 H   0  0  0  0  0  0  0  0  0  0  0  0
   37.9130   25.8600   43.7750 H   0  0  0  0  0  0  0  0  0  0  0  0
   38.9570   27.1990   43.0960 H   0  0  0  0  0  0  0  0  0  0  0  0
   37.0930   24.8600   41.3910 C   0  0  0  0  0  0  0  0  0  0  0  0
   36.3690   24.4800   42.4850 F   0  0  0  0  0  0  0  0  0  0  0  0
   36.2140   24.9150   40.2940 F   0  0  0  0  0  0  0  0  0  0  0  0
   38.0270   23.8950   41.0460 F   0  0  0  0  0  0  0  0  0  0  0  0
   38.9260   31.5440   41.4260 O   0  0  0  0  0  0  0  0  0  0  0  0
   40.2200   31.0680   41.5270 C   0  0  0  0  0  3  0  0  0  0  0  0
   40.8400   31.2570   42.6950 C   0  0  0  0  0  3  0  0  0  0  0  0
   42.2200   30.8430   43.0550 C   0  0  0  0  0  2  0  0  0  0  0  0
   42.5620   30.1440   42.2510 H   0  0  0  0  0  0  0  0  0  0  0  0
  1  6  1  0  0  0  0
  1  9  1  0  0  0  0
  2  1  2  0  0  0  0
  3  4  2  0  0  0  0
  3  2  1  0  0  0  0
  4  5  1  0  0  0  0
  5 20  1  0  0  0  0
  5  6  2  0  0  0  0
  7  2  1  0  0  0  0
  8  3  1  0  0  0  0
  9 12  1  1  0  0  0
  9 11  1  0  0  0  0
 10 13  1  6  0  0  0
 10  9  1  0  0  0  0
 10 11  1  0  0  0  0
 11 15  1  0  0  0  0
 11 14  1  0  0  0  0
 16 10  1  0  0  0  0
 16 17  1  0  0  0  0
 18 16  1  0  0  0  0
 19 16  1  0  0  0  0
 20 21  1  0  0  0  0
 21 22  2  0  0  0  0
 22 23  1  0  0  0  0
 24 23  1  0  0  0  0
M  END
>  <minimizedAffinity>
-4.40731764

$$$$

 OpenBabel03252505483D

 24 25  0  0  1  0  0  0  0  0999 V2000
   36.9420   28.3610   41.1340 C   0  0  0  0  0  0  0  0  0  0  0  0
   37.4540   29.1490   42.2040 C   0  0  0  0  0  0  0  0  0  0  0  0
   37.8730   28.5500   43.4000 C   0  0  0  0  0  0  0  0  0  0  0  0
   37.7510   27.1890   43.4440 N   0  0  0  0  0  0  0  0  0  0  0  0
   37.2530   26.4680   42.3910 C   0  0  0  0  0  0  0  0  0  0  0  0
   36.8640   27.0530   41.2740 N   0  0  0  0  0  0  0  0  0  0  0  0
   37.5370   30.2320   42.1360 H   0  0  0  0  0  0  0  0  0  0  0  0
   38.2650   29.1190   44.2240 H   0  0  0  0  0  0  0  0  0  0  0  0
   36.5050   29.0580   39.9120 C   0  0  1  0  0  0  0  0  0  0  0  0
   34.9380   29.1410   39.8350 C   0  0  1  0  0  0  0  0  0  0  0  0
   35.8760   30.3240   39.8690 C   0  0  0  0  0  0  0  0  0  0  0  0
   36.9550   28.6110   38.9810 H   0  0  0  0  0  0  0  0  0  0  0  0
   34.3670   28.8680   40.7170 H   0  0  0  0  0  0  0  0  0  0  0  0
   35.9300   31.0020   39.0160 H   0  0  0  0  0  0  0  0  0  0  0  0
   35.7920   30.9020   40.8370 H   0  0  0  0  0  0  0  0  0  0  0  0
   34.3790   28.8470   38.4640 C   0  0  0  0  0  0  0  0  0  0  0  0
   34.5180   27.5400   38.0890 F   0  0  0  0  0  0  0  0  0  0  0  0
   33.0040   29.1460   38.4680 F   0  0  0  0  0  0  0  0  0  0  0  0
   34.9240   29.7020   37.5180 F   0  0  0  0  0  0  0  0  0  0  0  0
   37.1980   25.0910   42.6120 O   0  0  0  0  0  0  0  0  0  0  0  0
   36.9690   24.2780   41.5180 C   0  0  0  0  0  3  0  0  0  0  0  0
   37.9860   23.5100   41.1180 C   0  0  0  0  0  3  0  0  0  0  0  0
   37.9950   22.5560   39.9780 C   0  0  0  0  0  2  0  0  0  0  0  0
   36.9300   22.4300   39.6610 H   0  0  0  0  0  0  0  0  0  0  0  0
  1  6  2  0  0  0  0
  1  2  1  0  0  0  0
  2  3  2  0  0  0  0
  3  4  1  0  0  0  0
  3  8  1  0  0  0  0
  5 20  1  0  0  0  0
  5  4  2  0  0  0  0
  6  5  1  0  0  0  0
  7  2  1  0  0  0  0
  9 12  1  6  0  0  0
  9  1  1  0  0  0  0
 10 11  1  0  0  0  0
 10  9  1  0  0  0  0
 10 13  1  1  0  0  0
 11  9  1  0  0  0  0
 11 15  1  0  0  0  0
 14 11  1  0  0  0  0
 16 18  1  0  0  0  0
 16 10  1  0  0  0  0
 17 16  1  0  0  0  0
 19 16  1  0  0  0  0
 21 20  1  0  0  0  0
 22 21  2  0  0  0  0
 23 22  1  0  0  0  0
 24 23  1  0  0  0  0
M  END
>  <minimizedAffinity>
-4.35813332

$$$$

 OpenBabel03252505483D

 24 25  0  0  1  0  0  0  0  0999 V2000
   37.1990   27.5550   41.6190 C   0  0  0  0  0  0  0  0  0  0  0  0
   36.6790   26.9720   40.4280 C   0  0  0  0  0  0  0  0  0  0  0  0
   36.0380   27.7600   39.4630 C   0  0  0  0  0  0  0  0  0  0  0  0
   35.9590   29.0930   39.7580 N   0  0  0  0  0  0  0  0  0  0  0  0
   36.4720   29.6140   40.9170 C   0  0  0  0  0  0  0  0  0  0  0  0
   37.0730   28.8530   41.8120 N   0  0  0  0  0  0  0  0  0  0  0  0
   36.7580   25.9050   40.2240 H   0  0  0  0  0  0  0  0  0  0  0  0
   35.6360   27.3480   38.5540 H   0  0  0  0  0  0  0  0  0  0  0  0
   37.8470   26.6640   42.5970 C   0  0  1  0  0  0  0  0  0  0  0  0
   39.3680   26.4610   42.2590 C   0  0  1  0  0  0  0  0  0  0  0  0
   38.8270   27.0530   43.5390 C   0  0  0  0  0  0  0  0  0  0  0  0
   37.3010   25.6850   42.7100 H   0  0  0  0  0  0  0  0  0  0  0  0
   39.8150   27.1010   41.5040 H   0  0  0  0  0  0  0  0  0  0  0  0
   38.9940   26.5430   44.4890 H   0  0  0  0  0  0  0  0  0  0  0  0
   39.0630   28.1550   43.6270 H   0  0  0  0  0  0  0  0  0  0  0  0
   39.8380   25.0330   42.4000 C   0  0  0  0  0  0  0  0  0  0  0  0
   39.3230   24.1950   41.4520 F   0  0  0  0  0  0  0  0  0  0  0  0
   41.2400   25.0090   42.2740 F   0  0  0  0  0  0  0  0  0  0  0  0
   39.5900   24.5590   43.6790 F   0  0  0  0  0  0  0  0  0  0  0  0
   36.3010   30.9920   41.0530 O   0  0  0  0  0  0  0  0  0  0  0  0
   36.9470   31.8080   40.1430 C   0  0  0  0  0  3  0  0  0  0  0  0
   37.9990   32.4950   40.5950 C   0  0  0  0  0  3  0  0  0  0  0  0
   38.8570   33.4320   39.8240 C   0  0  0  0  0  2  0  0  0  0  0  0
   38.6030   33.2800   38.7450 H   0  0  0  0  0  0  0  0  0  0  0  0
  1  6  1  0  0  0  0
  1  9  1  0  0  0  0
  2  1  2  0  0  0  0
  3  4  2  0  0  0  0
  3  2  1  0  0  0  0
  4  5  1  0  0  0  0
  5 20  1  0  0  0  0
  5  6  2  0  0  0  0
  7  2  1  0  0  0  0
  8  3  1  0  0  0  0
  9 12  1  1  0  0  0
  9 11  1  0  0  0  0
 10 13  1  6  0  0  0
 10 16  1  0  0  0  0
 10  9  1  0  0  0  0
 10 11  1  0  0  0  0
 11 15  1  0  0  0  0
 11 14  1  0  0  0  0
 16 19  1  0  0  0  0
 17 16  1  0  0  0  0
 18 16  1  0  0  0  0
 21 22  2  0  0  0  0
 21 20  1  0  0  0  0
 23 22  1  0  0  0  0
 24 23  1  0  0  0  0
M  END
>  <minimizedAffinity>
-4.32738686

$$$$

 OpenBabel03252505483D

 24 25  0  0  1  0  0  0  0  0999 V2000
   36.9500   28.1150   41.3180 C   0  0  0  0  0  0  0  0  0  0  0  0
   37.1850   29.1520   42.2650 C   0  0  0  0  0  0  0  0  0  0  0  0
   37.9820   28.9250   43.3950 C   0  0  0  0  0  0  0  0  0  0  0  0
   38.4970   27.6640   43.5020 N   0  0  0  0  0  0  0  0  0  0  0  0
   38.2460   26.6940   42.5670 C   0  0  0  0  0  0  0  0  0  0  0  0
   37.4920   26.9290   41.5110 N   0  0  0  0  0  0  0  0  0  0  0  0
   36.7580   30.1470   42.1500 H   0  0  0  0  0  0  0  0  0  0  0  0
   38.1780   29.6900   44.1270 H   0  0  0  0  0  0  0  0  0  0  0  0
   36.0890   28.4180   40.1630 C   0  0  1  0  0  0  0  0  0  0  0  0
   36.9450   28.7880   38.8980 C   0  0  1  0  0  0  0  0  0  0  0  0
   35.9770   27.6320   38.9920 C   0  0  0  0  0  0  0  0  0  0  0  0
   35.3170   29.2040   40.4000 H   0  0  0  0  0  0  0  0  0  0  0  0
   38.0160   28.6110   38.9350 H   0  0  0  0  0  0  0  0  0  0  0  0
   35.0910   27.6100   38.3560 H   0  0  0  0  0  0  0  0  0  0  0  0
   36.5080   26.6350   38.9770 H   0  0  0  0  0  0  0  0  0  0  0  0
   36.4100   29.9680   38.1230 C   0  0  0  0  0  0  0  0  0  0  0  0
   37.1040   30.2250   36.9750 F   0  0  0  0  0  0  0  0  0  0  0  0
   35.0760   29.7020   37.7660 F   0  0  0  0  0  0  0  0  0  0  0  0
   36.3410   31.0940   38.9310 F   0  0  0  0  0  0  0  0  0  0  0  0
   38.8510   25.4650   42.8380 O   0  0  0  0  0  0  0  0  0  0  0  0
   40.0510   25.4830   43.5240 C   0  0  0  0  0  3  0  0  0  0  0  0
   41.1610   25.3420   42.7940 C   0  0  0  0  0  3  0  0  0  0  0  0
   42.5630   25.3280   43.2870 C   0  0  0  0  0  2  0  0  0  0  0  0
   42.5300   25.6860   44.3470 H   0  0  0  0  0  0  0  0  0  0  0  0
  1  6  2  0  0  0  0
  1  2  1  0  0  0  0
  2  3  2  0  0  0  0
  3  4  1  0  0  0  0
  3  8  1  0  0  0  0
  5 20  1  0  0  0  0
  5  4  2  0  0  0  0
  6  5  1  0  0  0  0
  7  2  1  0  0  0  0
  9 12  1  1  0  0  0
  9  1  1  0  0  0  0
 10 13  1  1  0  0  0
 10 11  1  0  0  0  0
 10  9  1  0  0  0  0
 11  9  1  0  0  0  0
 14 11  1  0  0  0  0
 15 11  1  0  0  0  0
 16 10  1  0  0  0  0
 16 19  1  0  0  0  0
 17 16  1  0  0  0  0
 18 16  1  0  0  0  0
 20 21  1  0  0  0  0
 22 23  1  0  0  0  0
 22 21  2  0  0  0  0
 23 24  1  0  0  0  0
M  END
>  <minimizedAffinity>
-4.2703042

$$$$
