
 OpenBabel03252507033D

 42 44  0  0  0  0  0  0  0  0999 V2000
   43.2450   32.6900   41.6280 C   0  0  0  0  0  0  0  0  0  0  0  0
   43.4330   32.3170   40.5910 H   0  0  0  0  0  0  0  0  0  0  0  0
   43.3570   31.8180   42.3310 H   0  0  0  0  0  0  0  0  0  0  0  0
   44.2480   33.6810   42.0540 C   0  0  0  0  0  0  0  0  0  0  0  0
   43.8590   34.9200   42.5060 C   0  0  0  0  0  0  0  0  0  0  0  0
   44.8420   35.8220   42.8930 C   0  0  0  0  0  0  0  0  0  0  0  0
   46.1520   35.4270   42.8050 N   0  0  0  0  0  0  0  0  0  0  0  0
   46.4860   34.2200   42.3650 C   0  0  0  0  0  0  0  0  0  0  0  0
   45.5240   33.3730   41.9980 N   0  0  0  0  0  0  0  0  0  0  0  0
   42.9060   35.3950   42.6590 H   0  0  0  0  0  0  0  0  0  0  0  0
   44.7220   36.8300   43.2670 H   0  0  0  0  0  0  0  0  0  0  0  0
   47.9060   33.8780   42.3280 C   0  0  0  0  0  0  0  0  0  0  0  0
   48.3110   32.5630   42.1220 C   0  0  0  0  0  0  0  0  0  0  0  0
   49.6550   32.2510   42.1020 C   0  0  0  0  0  0  0  0  0  0  0  0
   50.4920   33.3100   42.2950 C   0  0  0  0  0  0  0  0  0  0  0  0
   50.1420   34.6390   42.5060 C   0  0  0  0  0  0  0  0  0  0  0  0
   48.8060   34.8740   42.5130 N   0  0  0  0  0  0  0  0  0  0  0  0
   47.5450   31.7920   41.9780 H   0  0  0  0  0  0  0  0  0  0  0  0
   50.0060   31.2600   41.9470 H   0  0  0  0  0  0  0  0  0  0  0  0
   51.5680   33.1230   42.2890 H   0  0  0  0  0  0  0  0  0  0  0  0
   50.8740   35.4180   42.6500 H   0  0  0  0  0  0  0  0  0  0  0  0
   41.8940   33.2920   41.8020 C   0  0  0  0  0  0  0  0  0  0  0  0
   41.4870   32.9470   42.7790 H   0  0  0  0  0  0  0  0  0  0  0  0
   42.1010   34.3980   42.0040 H   0  0  0  0  0  0  0  0  0  0  0  0
   41.0720   33.0650   40.7830 N   0  0  0  0  0  0  0  0  0  0  0  0
   40.3530   31.8990   40.4470 C   0  0  0  0  0  0  0  0  0  0  0  0
   38.9450   32.3690   40.8840 C   0  0  0  0  0  0  0  0  0  0  0  0
   38.4810   33.5200   40.1290 C   0  0  0  0  0  0  0  0  0  0  0  0
   39.4380   34.4320   39.5390 C   0  0  0  0  0  0  0  0  0  0  0  0
   40.8840   34.2310   39.8860 C   0  0  0  0  0  0  0  0  0  0  0  0
   40.6500   31.0700   41.1290 H   0  0  0  0  0  0  0  0  0  0  0  0
   40.3800   31.5080   39.4450 H   0  0  0  0  0  0  0  0  0  0  0  0
   38.2930   31.4690   40.7810 H   0  0  0  0  0  0  0  0  0  0  0  0
   39.0110   32.5860   41.9690 H   0  0  0  0  0  0  0  0  0  0  0  0
   37.7960   34.1320   40.7860 H   0  0  0  0  0  0  0  0  0  0  0  0
   37.7880   33.1640   39.3160 H   0  0  0  0  0  0  0  0  0  0  0  0
   39.2470   35.2520   38.8960 H   0  0  0  0  0  0  0  0  0  0  0  0
   42.1350   35.3100   39.2890 S   0  0  0  0  0  0  0  0  0  0  0  0
   42.0040   35.6930   37.5740 C   0  0  0  0  0  3  0  0  0  0  0  0
   41.2250   36.7200   37.2670 C   0  0  0  0  0  3  0  0  0  0  0  0
   40.9630   37.2270   35.8910 C   0  0  0  0  0  2  0  0  0  0  0  0
   41.3310   38.2900   35.8280 H   0  0  0  0  0  0  0  0  0  0  0  0
  1 22  1  0  0  0  0
  1  4  1  0  0  0  0
  1  3  1  0  0  0  0
  2  1  1  0  0  0  0
  4  5  1  0  0  0  0
  5 10  1  0  0  0  0
  5  6  2  0  0  0  0
  6 11  1  0  0  0  0
  7  6  1  0  0  0  0
  8  7  2  0  0  0  0
  9  4  2  0  0  0  0
  9  8  1  0  0  0  0
 12  8  1  0  0  0  0
 12 17  1  0  0  0  0
 13 12  2  0  0  0  0
 14 13  1  0  0  0  0
 14 15  2  0  0  0  0
 15 16  1  0  0  0  0
 16 17  2  0  0  0  0
 16 21  1  0  0  0  0
 18 13  1  0  0  0  0
 19 14  1  0  0  0  0
 20 15  1  0  0  0  0
 22 24  1  0  0  0  0
 22 23  1  0  0  0  0
 25 22  1  0  0  0  0
 26 25  1  0  0  0  0
 26 27  1  0  0  0  0
 26 31  1  0  0  0  0
 27 34  1  0  0  0  0
 28 35  1  0  0  0  0
 28 27  1  0  0  0  0
 29 30  2  0  0  0  0
 29 28  1  0  0  0  0
 30 25  1  0  0  0  0
 32 26  1  0  0  0  0
 33 27  1  0  0  0  0
 36 28  1  0  0  0  0
 37 29  1  0  0  0  0
 38 30  1  0  0  0  0
 39 38  1  0  0  0  0
 40 39  2  0  0  0  0
 41 40  1  0  0  0  0
 42 41  1  0  0  0  0
M  END
>  <minimizedAffinity>
-5.18195248

>  <minimizedRMSD>
0.721830428

$$$$
