
 OpenBabel03252505473D

 24 25  0  0  1  0  0  0  0  0999 V2000
   46.0280   32.8360   44.0960 C   0  0  0  0  0  0  0  0  0  0  0  0
   46.5400   31.6160   43.5690 C   0  0  0  0  0  0  0  0  0  0  0  0
   47.2650   30.7310   44.3800 C   0  0  0  0  0  0  0  0  0  0  0  0
   47.4290   31.1310   45.6760 N   0  0  0  0  0  0  0  0  0  0  0  0
   46.9200   32.3140   46.1440 C   0  0  0  0  0  0  0  0  0  0  0  0
   46.2400   33.1320   45.3630 N   0  0  0  0  0  0  0  0  0  0  0  0
   46.3920   31.3280   42.5290 H   0  0  0  0  0  0  0  0  0  0  0  0
   47.6630   29.8030   44.0090 H   0  0  0  0  0  0  0  0  0  0  0  0
   45.2890   33.7250   43.1840 C   0  0  1  0  0  0  0  0  0  0  0  0
   45.9090   35.1690   43.1720 C   0  0  1  0  0  0  0  0  0  0  0  0
   45.7890   34.2580   41.9730 C   0  0  0  0  0  0  0  0  0  0  0  0
   44.1840   33.7370   43.4010 H   0  0  0  0  0  0  0  0  0  0  0  0
   46.8700   35.3170   43.6540 H   0  0  0  0  0  0  0  0  0  0  0  0
   45.1600   34.5470   41.1290 H   0  0  0  0  0  0  0  0  0  0  0  0
   46.7980   33.8950   41.6160 H   0  0  0  0  0  0  0  0  0  0  0  0
   44.8810   36.2740   43.2030 C   0  0  0  0  0  0  0  0  0  0  0  0
   45.4280   37.5250   43.2340 F   0  0  0  0  0  0  0  0  0  0  0  0
   44.0900   36.1820   42.0430 F   0  0  0  0  0  0  0  0  0  0  0  0
   43.9920   36.0880   44.2510 F   0  0  0  0  0  0  0  0  0  0  0  0
   47.1850   32.5610   47.4920 O   0  0  0  0  0  0  0  0  0  0  0  0
   47.5160   31.4790   48.2850 C   0  0  0  0  0  3  0  0  0  0  0  0
   48.6600   31.5660   48.9690 C   0  0  0  0  0  3  0  0  0  0  0  0
   49.2380   30.5470   49.8850 C   0  0  0  0  0  2  0  0  0  0  0  0
   48.4300   29.7970   50.0750 H   0  0  0  0  0  0  0  0  0  0  0  0
  1  6  1  0  0  0  0
  2  1  2  0  0  0  0
  2  3  1  0  0  0  0
  3  4  2  0  0  0  0
  4  5  1  0  0  0  0
  5 20  1  0  0  0  0
  6  5  2  0  0  0  0
  7  2  1  0  0  0  0
  8  3  1  0  0  0  0
  9 12  1  1  0  0  0
  9  1  1  0  0  0  0
 10  9  1  0  0  0  0
 10 16  1  0  0  0  0
 10 13  1  1  0  0  0
 11 10  1  0  0  0  0
 11  9  1  0  0  0  0
 14 11  1  0  0  0  0
 15 11  1  0  0  0  0
 16 17  1  0  0  0  0
 16 19  1  0  0  0  0
 18 16  1  0  0  0  0
 20 21  1  0  0  0  0
 21 22  2  0  0  0  0
 22 23  1  0  0  0  0
 23 24  1  0  0  0  0
M  END
>  <minimizedAffinity>
-4.48747158

>  <minimizedRMSD>
0.807702243

$$$$
