
 OpenBabel03242523263D

 40 42  0  0  1  0  0  0  0  0999 V2000
   47.5080   32.7770   43.7880 C   0  0  0  0  0  0  0  0  0  0  0  0
   48.4400   33.3410   43.0100 C   0  0  0  0  0  0  0  0  0  0  0  0
   49.2880   32.4480   42.4010 C   0  0  0  0  0  0  0  0  0  0  0  0
   49.1020   31.0770   42.6500 N   0  0  0  0  0  0  0  0  0  0  0  0
   48.1630   30.5920   43.4310 C   0  0  0  0  0  0  0  0  0  0  0  0
   47.2920   31.4600   44.0570 N   0  0  0  0  0  0  0  0  0  0  0  0
   50.1020   32.7160   41.7320 H   0  0  0  0  0  0  0  0  0  0  0  0
   48.1480   29.5130   43.5250 H   0  0  0  0  0  0  0  0  0  0  0  0
   48.7060   34.7460   42.8570 C   0  0  1  0  0  0  0  0  0  0  0  0
   49.7660   35.3110   42.2430 C   0  0  0  0  0  0  0  0  0  0  0  0
   48.5380   35.3060   41.3680 C   0  0  1  0  0  0  0  0  0  0  0  0
   47.9830   35.3400   43.5100 H   0  0  0  0  0  0  0  0  0  0  0  0
   50.6350   34.7050   41.8550 H   0  0  0  0  0  0  0  0  0  0  0  0
   50.1420   36.3500   42.4580 H   0  0  0  0  0  0  0  0  0  0  0  0
   47.9730   36.2420   41.2720 H   0  0  0  0  0  0  0  0  0  0  0  0
   48.4600   34.2900   40.3890 N   0  0  0  0  0  0  0  0  0  0  0  0
   49.2830   33.7770   39.9980 H   0  0  0  0  0  0  0  0  0  0  0  0
   47.2990   33.8260   39.7900 C   0  0  0  0  0  0  0  0  0  0  0  0
   46.2090   33.5200   39.2230 C   0  0  0  0  0  0  0  0  0  0  0  0
   45.3700   32.3720   38.8200 C   0  0  0  0  0  0  0  0  0  0  0  0
   45.6170   32.0350   37.7980 H   0  0  0  0  0  0  0  0  0  0  0  0
   46.4240   33.5010   44.5120 C   0  0  0  0  0  0  0  0  0  0  0  0
   45.8460   33.8890   45.4810 O   0  0  0  0  0  0  0  0  0  0  0  0
   44.3940   31.6720   43.0540 Cl  0  0  0  0  0  0  0  0  0  0  0  0
   44.5390   33.3880   42.7270 C   0  0  0  0  0  0  0  0  0  0  0  0
   45.5010   34.1060   43.4770 C   0  0  0  0  0  0  0  0  0  0  0  0
   45.5020   35.4310   43.1300 C   0  0  0  0  0  0  0  0  0  0  0  0
   44.7780   36.0920   42.2480 C   0  0  0  0  0  0  0  0  0  0  0  0
   43.8570   35.3410   41.5450 C   0  0  0  0  0  0  0  0  0  0  0  0
   43.7250   34.0200   41.7630 C   0  0  0  0  0  0  0  0  0  0  0  0
   46.2230   36.0870   43.6820 H   0  0  0  0  0  0  0  0  0  0  0  0
   44.8590   37.1650   42.0460 H   0  0  0  0  0  0  0  0  0  0  0  0
   43.2360   35.8710   40.7980 H   0  0  0  0  0  0  0  0  0  0  0  0
   42.7810   33.3700   41.0120 O   0  0  0  0  0  0  0  0  0  0  0  0
   40.3980   32.9560   39.9910 O   0  0  0  0  0  0  0  0  0  0  0  0
   41.1170   33.1840   41.2960 P   0  0  0  0  0  0  0  0  0  0  0  0
   40.8840   31.8850   42.3610 O   0  0  0  0  0  0  0  0  0  0  0  0
   41.0000   31.0330   41.8690 H   0  0  0  0  0  0  0  0  0  0  0  0
   40.4610   34.5510   42.0710 O   0  0  0  0  0  0  0  0  0  0  0  0
   41.1900   35.1830   42.2850 H   0  0  0  0  0  0  0  0  0  0  0  0
  1  6  1  0  0  0  0
  1 22  1  0  0  0  0
  2  1  2  0  0  0  0
  3  4  2  0  0  0  0
  3  2  1  0  0  0  0
  4  5  1  0  0  0  0
  5  8  1  0  0  0  0
  5  6  2  0  0  0  0
  7  3  1  0  0  0  0
  9  2  1  0  0  0  0
  9 12  1  1  0  0  0
 10 14  1  0  0  0  0
 10  9  1  0  0  0  0
 11 15  1  6  0  0  0
 11 10  1  0  0  0  0
 11  9  1  0  0  0  0
 13 10  1  0  0  0  0
 16 11  1  0  0  0  0
 17 16  1  0  0  0  0
 18 16  1  0  0  0  0
 19 18  1  0  0  0  0
 20 19  1  0  0  0  0
 21 20  1  0  0  0  0
 22 23  2  0  0  0  0
 25 24  1  0  0  0  0
 25 26  1  0  0  0  0
 26 22  1  0  0  0  0
 27 26  2  0  0  0  0
 27 31  1  0  0  0  0
 28 27  1  0  0  0  0
 29 30  1  0  0  0  0
 29 28  2  0  0  0  0
 30 25  2  0  0  0  0
 32 28  1  0  0  0  0
 33 29  1  0  0  0  0
 34 36  1  0  0  0  0
 34 30  1  0  0  0  0
 35 36  2  0  0  0  0
 36 39  1  0  0  0  0
 36 37  1  0  0  0  0
 38 37  1  0  0  0  0
 39 40  1  0  0  0  0
M  END
>  <minimizedAffinity>
-5.54924631

>  <minimizedRMSD>
0.763449192

$$$$
