
 OpenBabel03242516363D

 39 41  0  0  1  0  0  0  0  0999 V2000
   37.9570   32.1770   40.5960 C   0  0  2  0  0  0  0  0  0  0  0  0
   38.8240   31.6880   39.4030 C   0  0  1  0  0  0  0  0  0  0  0  0
   37.9090   31.8220   38.4020 O   0  0  0  0  0  0  0  0  0  0  0  0
   36.7710   31.1500   38.8920 C   0  0  0  0  0  0  0  0  0  0  0  0
   36.8740   31.1350   40.4330 C   0  0  1  0  0  0  0  0  0  0  0  0
   38.4980   32.1050   41.5420 H   0  0  0  0  0  0  0  0  0  0  0  0
   39.0280   30.6080   39.5870 H   0  0  0  0  0  0  0  0  0  0  0  0
   35.8310   31.6130   38.5530 H   0  0  0  0  0  0  0  0  0  0  0  0
   36.8240   30.1100   38.5140 H   0  0  0  0  0  0  0  0  0  0  0  0
   35.9420   31.4430   40.9330 H   0  0  0  0  0  0  0  0  0  0  0  0
   41.8680   33.6740   38.2960 C   0  0  0  0  0  0  0  0  0  0  0  0
   40.7600   32.8420   38.1400 C   0  0  0  0  0  0  0  0  0  0  0  0
   40.0340   32.5090   39.2690 C   0  0  0  0  0  0  0  0  0  0  0  0
   40.4550   33.0250   40.4780 N   0  0  0  0  0  0  0  0  0  0  0  0
   41.5310   33.8260   40.5860 C   0  0  0  0  0  0  0  0  0  0  0  0
   42.2390   34.1500   39.4830 N   0  0  0  0  0  0  0  0  0  0  0  0
   42.3910   33.8910   37.3590 H   0  0  0  0  0  0  0  0  0  0  0  0
   40.3680   32.4030   37.2410 H   0  0  0  0  0  0  0  0  0  0  0  0
   41.8530   34.2250   41.5330 H   0  0  0  0  0  0  0  0  0  0  0  0
   37.3920   33.3850   40.3220 O   0  0  0  0  0  0  0  0  0  0  0  0
   37.6570   34.1060   40.9260 H   0  0  0  0  0  0  0  0  0  0  0  0
   37.3250   29.9010   40.7980 O   0  0  0  0  0  0  0  0  0  0  0  0
   36.4710   28.1360   42.1080 C   0  0  1  0  0  0  0  0  0  0  0  0
   37.1840   29.5820   42.1470 C   0  0  1  0  0  0  0  0  0  0  0  0
   38.3730   29.1970   42.6440 O   0  0  0  0  0  0  0  0  0  0  0  0
   38.7620   28.2630   41.6420 C   0  0  0  0  0  0  0  0  0  0  0  0
   37.6240   27.2690   41.7010 C   0  0  1  0  0  0  0  0  0  0  0  0
   35.6220   28.1810   41.4520 H   0  0  0  0  0  0  0  0  0  0  0  0
   36.4300   30.1360   42.6930 H   0  0  0  0  0  0  0  0  0  0  0  0
   38.8290   28.7180   40.6520 H   0  0  0  0  0  0  0  0  0  0  0  0
   39.6870   27.7750   41.9860 H   0  0  0  0  0  0  0  0  0  0  0  0
   37.3610   26.8590   40.6930 H   0  0  0  0  0  0  0  0  0  0  0  0
   36.2050   27.8430   43.4500 O   0  0  0  0  0  0  0  0  0  0  0  0
   35.9120   26.9290   43.5850 H   0  0  0  0  0  0  0  0  0  0  0  0
   37.9100   26.3090   42.6520 O   0  0  0  0  0  0  0  0  0  0  0  0
   38.0550   24.9900   42.3110 C   0  0  0  0  0  3  0  0  0  0  0  0
   37.5870   24.0090   41.5960 C   0  0  0  0  0  3  0  0  0  0  0  0
   36.4400   23.9700   40.6670 C   0  0  0  0  0  2  0  0  0  0  0  0
   36.8060   24.2770   39.6560 H   0  0  0  0  0  0  0  0  0  0  0  0
  1  6  1  1  0  0  0
  2  7  1  1  0  0  0
  2  1  1  0  0  0  0
  3  4  1  0  0  0  0
  3  2  1  0  0  0  0
  4  5  1  0  0  0  0
  5  1  1  0  0  0  0
  5 22  1  0  0  0  0
  5 10  1  1  0  0  0
  8  4  1  0  0  0  0
  9  4  1  0  0  0  0
 11 16  1  0  0  0  0
 12 11  2  0  0  0  0
 12 13  1  0  0  0  0
 13  2  1  0  0  0  0
 13 14  2  0  0  0  0
 14 15  1  0  0  0  0
 15 19  1  0  0  0  0
 16 15  2  0  0  0  0
 17 11  1  0  0  0  0
 18 12  1  0  0  0  0
 20  1  1  0  0  0  0
 20 21  1  0  0  0  0
 22 24  1  0  0  0  0
 23 28  1  6  0  0  0
 23 24  1  0  0  0  0
 23 33  1  0  0  0  0
 24 25  1  0  0  0  0
 24 29  1  1  0  0  0
 26 27  1  0  0  0  0
 26 31  1  0  0  0  0
 26 25  1  0  0  0  0
 27 32  1  6  0  0  0
 27 23  1  0  0  0  0
 27 35  1  0  0  0  0
 30 26  1  0  0  0  0
 33 34  1  0  0  0  0
 36 35  1  0  0  0  0
 37 36  2  0  0  0  0
 38 37  1  0  0  0  0
 39 38  1  0  0  0  0
M  END
>  <minimizedAffinity>
-5.6561904

$$$$

 OpenBabel03242516363D

 39 41  0  0  1  0  0  0  0  0999 V2000
   36.7050   30.2120   41.4480 C   0  0  2  0  0  0  0  0  0  0  0  0
   37.6080   30.3580   40.1920 C   0  0  1  0  0  0  0  0  0  0  0  0
   36.6450   30.3040   39.2280 O   0  0  0  0  0  0  0  0  0  0  0  0
   35.9070   29.1480   39.5520 C   0  0  0  0  0  0  0  0  0  0  0  0
   36.1170   28.8760   41.0580 C   0  0  1  0  0  0  0  0  0  0  0  0
   37.2960   30.1820   42.3660 H   0  0  0  0  0  0  0  0  0  0  0  0
   38.2360   29.4400   40.1500 H   0  0  0  0  0  0  0  0  0  0  0  0
   34.8390   29.2480   39.3040 H   0  0  0  0  0  0  0  0  0  0  0  0
   36.3430   28.3150   38.9670 H   0  0  0  0  0  0  0  0  0  0  0  0
   35.1780   28.6770   41.5970 H   0  0  0  0  0  0  0  0  0  0  0  0
   40.2060   33.1190   40.4540 C   0  0  0  0  0  0  0  0  0  0  0  0
   39.7240   31.8100   40.4860 C   0  0  0  0  0  0  0  0  0  0  0  0
   38.3780   31.6080   40.2480 C   0  0  0  0  0  0  0  0  0  0  0  0
   37.5970   32.7170   39.9920 N   0  0  0  0  0  0  0  0  0  0  0  0
   38.1000   33.9640   39.9690 C   0  0  0  0  0  0  0  0  0  0  0  0
   39.4160   34.1610   40.2020 N   0  0  0  0  0  0  0  0  0  0  0  0
   41.2790   33.1980   40.6530 H   0  0  0  0  0  0  0  0  0  0  0  0
   40.2620   30.8990   40.6750 H   0  0  0  0  0  0  0  0  0  0  0  0
   37.4860   34.8260   39.7680 H   0  0  0  0  0  0  0  0  0  0  0  0
   35.6880   31.1170   41.4220 O   0  0  0  0  0  0  0  0  0  0  0  0
   35.6870   31.7510   42.1670 H   0  0  0  0  0  0  0  0  0  0  0  0
   37.0470   27.8840   41.1640 O   0  0  0  0  0  0  0  0  0  0  0  0
   37.3280   25.5520   41.3850 C   0  0  1  0  0  0  0  0  0  0  0  0
   36.7590   26.8850   42.0930 C   0  0  1  0  0  0  0  0  0  0  0  0
   37.6360   26.9520   43.1100 O   0  0  0  0  0  0  0  0  0  0  0  0
   38.8530   27.0270   42.3750 C   0  0  0  0  0  0  0  0  0  0  0  0
   38.8020   25.7430   41.5780 C   0  0  1  0  0  0  0  0  0  0  0  0
   36.9570   25.5040   40.3780 H   0  0  0  0  0  0  0  0  0  0  0  0
   35.7170   26.6050   42.1860 H   0  0  0  0  0  0  0  0  0  0  0  0
   38.8860   27.8940   41.7120 H   0  0  0  0  0  0  0  0  0  0  0  0
   39.6800   26.9720   43.0990 H   0  0  0  0  0  0  0  0  0  0  0  0
   39.2360   25.8580   40.5520 H   0  0  0  0  0  0  0  0  0  0  0  0
   36.9440   24.5140   42.2380 O   0  0  0  0  0  0  0  0  0  0  0  0
   37.3540   23.6660   42.0090 H   0  0  0  0  0  0  0  0  0  0  0  0
   39.3610   24.7240   42.3240 O   0  0  0  0  0  0  0  0  0  0  0  0
   40.5870   24.8680   42.9180 C   0  0  0  0  0  3  0  0  0  0  0  0
   41.8480   25.1280   42.7290 C   0  0  0  0  0  3  0  0  0  0  0  0
   42.5800   25.4360   41.4850 C   0  0  0  0  0  2  0  0  0  0  0  0
   42.5250   26.5410   41.3180 H   0  0  0  0  0  0  0  0  0  0  0  0
  1  6  1  1  0  0  0
  2  7  1  6  0  0  0
  2 13  1  0  0  0  0
  2  1  1  0  0  0  0
  3  4  1  0  0  0  0
  3  2  1  0  0  0  0
  4  5  1  0  0  0  0
  5 22  1  0  0  0  0
  5  1  1  0  0  0  0
  5 10  1  1  0  0  0
  8  4  1  0  0  0  0
  9  4  1  0  0  0  0
 11 12  1  0  0  0  0
 11 17  1  0  0  0  0
 12 18  1  0  0  0  0
 13 12  2  0  0  0  0
 14 13  1  0  0  0  0
 15 14  2  0  0  0  0
 15 16  1  0  0  0  0
 16 11  2  0  0  0  0
 19 15  1  0  0  0  0
 20  1  1  0  0  0  0
 20 21  1  0  0  0  0
 22 24  1  0  0  0  0
 23 28  1  6  0  0  0
 23 27  1  0  0  0  0
 23 24  1  0  0  0  0
 23 33  1  0  0  0  0
 24 29  1  1  0  0  0
 24 25  1  0  0  0  0
 26 31  1  0  0  0  0
 26 25  1  0  0  0  0
 27 32  1  6  0  0  0
 27 35  1  0  0  0  0
 27 26  1  0  0  0  0
 30 26  1  0  0  0  0
 34 33  1  0  0  0  0
 35 36  1  0  0  0  0
 37 36  2  0  0  0  0
 38 37  1  0  0  0  0
 39 38  1  0  0  0  0
M  END
>  <minimizedAffinity>
-5.47472286

$$$$

 OpenBabel03242516363D

 39 41  0  0  1  0  0  0  0  0999 V2000
   36.8490   28.2660   41.7090 C   0  0  2  0  0  0  0  0  0  0  0  0
   38.2630   27.6220   41.7190 C   0  0  1  0  0  0  0  0  0  0  0  0
   38.7160   28.1150   42.9070 O   0  0  0  0  0  0  0  0  0  0  0  0
   38.4680   29.4990   42.8150 C   0  0  0  0  0  0  0  0  0  0  0  0
   37.3330   29.6960   41.7860 C   0  0  1  0  0  0  0  0  0  0  0  0
   36.3080   28.0330   40.7890 H   0  0  0  0  0  0  0  0  0  0  0  0
   38.8250   28.0890   40.8780 H   0  0  0  0  0  0  0  0  0  0  0  0
   38.2140   29.9470   43.7890 H   0  0  0  0  0  0  0  0  0  0  0  0
   39.3950   29.9660   42.4280 H   0  0  0  0  0  0  0  0  0  0  0  0
   36.5380   30.3700   42.1410 H   0  0  0  0  0  0  0  0  0  0  0  0
   38.6680   23.8500   41.9290 C   0  0  0  0  0  0  0  0  0  0  0  0
   39.0180   25.1860   42.1290 C   0  0  0  0  0  0  0  0  0  0  0  0
   38.1690   26.1590   41.6360 C   0  0  0  0  0  0  0  0  0  0  0  0
   37.0290   25.7430   40.9780 N   0  0  0  0  0  0  0  0  0  0  0  0
   36.7270   24.4430   40.8060 C   0  0  0  0  0  0  0  0  0  0  0  0
   37.5570   23.4930   41.2880 N   0  0  0  0  0  0  0  0  0  0  0  0
   39.3890   23.1390   42.3460 H   0  0  0  0  0  0  0  0  0  0  0  0
   39.8800   25.5890   42.6280 H   0  0  0  0  0  0  0  0  0  0  0  0
   35.8360   24.1260   40.2930 H   0  0  0  0  0  0  0  0  0  0  0  0
   36.1900   28.0060   42.8720 O   0  0  0  0  0  0  0  0  0  0  0  0
   35.3620   27.4970   42.7670 H   0  0  0  0  0  0  0  0  0  0  0  0
   37.9110   30.0790   40.6120 O   0  0  0  0  0  0  0  0  0  0  0  0
   37.8360   32.4330   40.7330 C   0  0  1  0  0  0  0  0  0  0  0  0
   37.2880   31.1340   39.9490 C   0  0  1  0  0  0  0  0  0  0  0  0
   37.9000   31.3480   38.7710 O   0  0  0  0  0  0  0  0  0  0  0  0
   39.2560   31.3720   39.2050 C   0  0  0  0  0  0  0  0  0  0  0  0
   39.2340   32.5100   40.1990 C   0  0  1  0  0  0  0  0  0  0  0  0
   37.7110   32.2840   41.7890 H   0  0  0  0  0  0  0  0  0  0  0  0
   36.2270   31.2530   40.1300 H   0  0  0  0  0  0  0  0  0  0  0  0
   39.5550   30.4400   39.6890 H   0  0  0  0  0  0  0  0  0  0  0  0
   39.8750   31.6580   38.3400 H   0  0  0  0  0  0  0  0  0  0  0  0
   39.9090   32.3290   41.0740 H   0  0  0  0  0  0  0  0  0  0  0  0
   37.1320   33.5020   40.1690 O   0  0  0  0  0  0  0  0  0  0  0  0
   37.4750   34.3660   40.4450 H   0  0  0  0  0  0  0  0  0  0  0  0
   39.4670   33.6980   39.5330 O   0  0  0  0  0  0  0  0  0  0  0  0
   40.7400   34.1600   39.3280 C   0  0  0  0  0  3  0  0  0  0  0  0
   41.7970   34.0940   38.5700 C   0  0  0  0  0  3  0  0  0  0  0  0
   42.0510   33.2890   37.3600 C   0  0  0  0  0  2  0  0  0  0  0  0
   41.6910   33.8720   36.4760 H   0  0  0  0  0  0  0  0  0  0  0  0
  1  6  1  6  0  0  0
  1  2  1  0  0  0  0
  1  5  1  0  0  0  0
  1 20  1  0  0  0  0
  2  7  1  6  0  0  0
  2  3  1  0  0  0  0
  4  3  1  0  0  0  0
  4  8  1  0  0  0  0
  5 10  1  1  0  0  0
  5  4  1  0  0  0  0
  9  4  1  0  0  0  0
 11 12  1  0  0  0  0
 11 17  1  0  0  0  0
 12 18  1  0  0  0  0
 13  2  1  0  0  0  0
 13 12  2  0  0  0  0
 14 13  1  0  0  0  0
 15 14  2  0  0  0  0
 15 16  1  0  0  0  0
 16 11  2  0  0  0  0
 19 15  1  0  0  0  0
 21 20  1  0  0  0  0
 22  5  1  0  0  0  0
 23 28  1  1  0  0  0
 24 29  1  6  0  0  0
 24 22  1  0  0  0  0
 24 23  1  0  0  0  0
 25 26  1  0  0  0  0
 25 24  1  0  0  0  0
 26 30  1  0  0  0  0
 26 27  1  0  0  0  0
 27 23  1  0  0  0  0
 27 32  1  1  0  0  0
 31 26  1  0  0  0  0
 33 34  1  0  0  0  0
 33 23  1  0  0  0  0
 35 27  1  0  0  0  0
 36 35  1  0  0  0  0
 37 36  2  0  0  0  0
 38 37  1  0  0  0  0
 39 38  1  0  0  0  0
M  END
>  <minimizedAffinity>
-5.46257019

$$$$

 OpenBabel03242516363D

 39 41  0  0  1  0  0  0  0  0999 V2000
   37.7060   32.0170   40.7350 C   0  0  2  0  0  0  0  0  0  0  0  0
   38.5350   31.2450   39.6720 C   0  0  1  0  0  0  0  0  0  0  0  0
   37.5340   30.9360   38.8000 O   0  0  0  0  0  0  0  0  0  0  0  0
   36.5430   30.3550   39.6160 C   0  0  0  0  0  0  0  0  0  0  0  0
   36.7670   30.8750   41.0530 C   0  0  1  0  0  0  0  0  0  0  0  0
   38.3240   32.3270   41.5800 H   0  0  0  0  0  0  0  0  0  0  0  0
   38.9000   30.3200   40.1730 H   0  0  0  0  0  0  0  0  0  0  0  0
   35.5240   30.5760   39.2610 H   0  0  0  0  0  0  0  0  0  0  0  0
   36.7100   29.2610   39.5950 H   0  0  0  0  0  0  0  0  0  0  0  0
   35.8440   31.2360   41.5330 H   0  0  0  0  0  0  0  0  0  0  0  0
   41.2930   32.9390   37.6810 C   0  0  0  0  0  0  0  0  0  0  0  0
   40.3440   31.9590   37.9710 C   0  0  0  0  0  0  0  0  0  0  0  0
   39.6050   32.0940   39.1320 C   0  0  0  0  0  0  0  0  0  0  0  0
   39.8570   33.1930   39.9290 N   0  0  0  0  0  0  0  0  0  0  0  0
   40.7810   34.1170   39.6130 C   0  0  0  0  0  0  0  0  0  0  0  0
   41.5030   33.9850   38.4790 N   0  0  0  0  0  0  0  0  0  0  0  0
   41.8370   32.7630   36.7480 H   0  0  0  0  0  0  0  0  0  0  0  0
   40.0890   31.0810   37.4070 H   0  0  0  0  0  0  0  0  0  0  0  0
   40.9720   34.9730   40.2390 H   0  0  0  0  0  0  0  0  0  0  0  0
   36.9590   32.9940   40.1510 O   0  0  0  0  0  0  0  0  0  0  0  0
   37.1680   33.9020   40.4500 H   0  0  0  0  0  0  0  0  0  0  0  0
   37.4120   29.8920   41.7440 O   0  0  0  0  0  0  0  0  0  0  0  0
   38.1590   27.6890   41.3540 C   0  0  1  0  0  0  0  0  0  0  0  0
   36.8660   28.6150   41.6260 C   0  0  1  0  0  0  0  0  0  0  0  0
   36.5480   28.1490   42.8460 O   0  0  0  0  0  0  0  0  0  0  0  0
   37.7590   28.4340   43.5370 C   0  0  0  0  0  0  0  0  0  0  0  0
   38.7610   27.6460   42.7250 C   0  0  1  0  0  0  0  0  0  0  0  0
   38.7420   28.1230   40.5640 H   0  0  0  0  0  0  0  0  0  0  0  0
   36.3110   28.4150   40.7180 H   0  0  0  0  0  0  0  0  0  0  0  0
   38.0040   29.4990   43.5270 H   0  0  0  0  0  0  0  0  0  0  0  0
   37.6790   27.9930   44.5420 H   0  0  0  0  0  0  0  0  0  0  0  0
   39.7510   28.1640   42.6450 H   0  0  0  0  0  0  0  0  0  0  0  0
   37.6300   26.4180   41.1090 O   0  0  0  0  0  0  0  0  0  0  0  0
   38.3090   25.7260   41.0790 H   0  0  0  0  0  0  0  0  0  0  0  0
   38.8300   26.3570   43.2180 O   0  0  0  0  0  0  0  0  0  0  0  0
   40.0330   25.7620   43.4900 C   0  0  0  0  0  3  0  0  0  0  0  0
   41.3070   25.9530   43.6800 C   0  0  0  0  0  3  0  0  0  0  0  0
   42.0950   27.2010   43.6600 C   0  0  0  0  0  2  0  0  0  0  0  0
   42.0730   27.6380   44.6890 H   0  0  0  0  0  0  0  0  0  0  0  0
  1  5  1  0  0  0  0
  1  6  1  1  0  0  0
  2  7  1  1  0  0  0
  2  1  1  0  0  0  0
  3  4  1  0  0  0  0
  3  2  1  0  0  0  0
  4  5  1  0  0  0  0
  5 10  1  1  0  0  0
  5 22  1  0  0  0  0
  8  4  1  0  0  0  0
  9  4  1  0  0  0  0
 11 12  2  0  0  0  0
 11 16  1  0  0  0  0
 12 13  1  0  0  0  0
 13  2  1  0  0  0  0
 13 14  2  0  0  0  0
 15 14  1  0  0  0  0
 15 19  1  0  0  0  0
 16 15  2  0  0  0  0
 17 11  1  0  0  0  0
 18 12  1  0  0  0  0
 20 21  1  0  0  0  0
 20  1  1  0  0  0  0
 23 28  1  6  0  0  0
 23 24  1  0  0  0  0
 23 27  1  0  0  0  0
 24 29  1  6  0  0  0
 24 22  1  0  0  0  0
 24 25  1  0  0  0  0
 25 26  1  0  0  0  0
 26 31  1  0  0  0  0
 27 32  1  1  0  0  0
 27 35  1  0  0  0  0
 27 26  1  0  0  0  0
 30 26  1  0  0  0  0
 33 23  1  0  0  0  0
 34 33  1  0  0  0  0
 35 36  1  0  0  0  0
 36 37  2  0  0  0  0
 38 37  1  0  0  0  0
 38 39  1  0  0  0  0
M  END
>  <minimizedAffinity>
-5.40309334

$$$$

 OpenBabel03242516363D

 39 41  0  0  1  0  0  0  0  0999 V2000
   36.6620   30.2200   41.4390 C   0  0  2  0  0  0  0  0  0  0  0  0
   37.4910   30.4600   40.1470 C   0  0  1  0  0  0  0  0  0  0  0  0
   36.5090   30.2650   39.2220 O   0  0  0  0  0  0  0  0  0  0  0  0
   35.9390   29.0300   39.5890 C   0  0  0  0  0  0  0  0  0  0  0  0
   36.2380   28.8120   41.0890 C   0  0  1  0  0  0  0  0  0  0  0  0
   37.2860   30.2830   42.3340 H   0  0  0  0  0  0  0  0  0  0  0  0
   38.2310   29.6300   40.0920 H   0  0  0  0  0  0  0  0  0  0  0  0
   34.8580   28.9870   39.3810 H   0  0  0  0  0  0  0  0  0  0  0  0
   36.4570   28.2490   38.9980 H   0  0  0  0  0  0  0  0  0  0  0  0
   35.3540   28.5040   41.6670 H   0  0  0  0  0  0  0  0  0  0  0  0
   38.3380   34.1600   39.9730 C   0  0  0  0  0  0  0  0  0  0  0  0
   37.5360   33.0260   39.8500 C   0  0  0  0  0  0  0  0  0  0  0  0
   38.0940   31.7990   40.1570 C   0  0  0  0  0  0  0  0  0  0  0  0
   39.4120   31.7780   40.5670 N   0  0  0  0  0  0  0  0  0  0  0  0
   40.1530   32.8960   40.6730 C   0  0  0  0  0  0  0  0  0  0  0  0
   39.6070   34.0940   40.3730 N   0  0  0  0  0  0  0  0  0  0  0  0
   37.8270   35.0920   39.7120 H   0  0  0  0  0  0  0  0  0  0  0  0
   36.5080   32.9580   39.5420 H   0  0  0  0  0  0  0  0  0  0  0  0
   41.1810   32.8720   40.9940 H   0  0  0  0  0  0  0  0  0  0  0  0
   35.5360   30.9860   41.4420 O   0  0  0  0  0  0  0  0  0  0  0  0
   35.4800   31.6270   42.1790 H   0  0  0  0  0  0  0  0  0  0  0  0
   37.2920   27.9510   41.1710 O   0  0  0  0  0  0  0  0  0  0  0  0
   36.9010   25.6260   41.2420 C   0  0  1  0  0  0  0  0  0  0  0  0
   37.1750   26.9450   42.1290 C   0  0  1  0  0  0  0  0  0  0  0  0
   38.3950   26.6180   42.5880 O   0  0  0  0  0  0  0  0  0  0  0  0
   39.0850   26.4620   41.3520 C   0  0  0  0  0  0  0  0  0  0  0  0
   38.2700   25.3740   40.6900 C   0  0  1  0  0  0  0  0  0  0  0  0
   36.1100   25.8300   40.5450 H   0  0  0  0  0  0  0  0  0  0  0  0
   36.2680   26.9520   42.7210 H   0  0  0  0  0  0  0  0  0  0  0  0
   39.0740   27.3740   40.7510 H   0  0  0  0  0  0  0  0  0  0  0  0
   40.0900   26.0760   41.5800 H   0  0  0  0  0  0  0  0  0  0  0  0
   38.1880   25.5140   39.5820 H   0  0  0  0  0  0  0  0  0  0  0  0
   36.6560   24.6200   42.1820 O   0  0  0  0  0  0  0  0  0  0  0  0
   36.6250   23.7350   41.7870 H   0  0  0  0  0  0  0  0  0  0  0  0
   38.7640   24.1420   41.0750 O   0  0  0  0  0  0  0  0  0  0  0  0
   38.7330   23.0670   40.2270 C   0  0  0  0  0  3  0  0  0  0  0  0
   37.9810   22.3060   39.4840 C   0  0  0  0  0  3  0  0  0  0  0  0
   36.5270   22.3530   39.2390 C   0  0  0  0  0  2  0  0  0  0  0  0
   36.3450   23.0440   38.3780 H   0  0  0  0  0  0  0  0  0  0  0  0
  1 20  1  0  0  0  0
  1  6  1  1  0  0  0
  2  7  1  6  0  0  0
  2 13  1  0  0  0  0
  2  1  1  0  0  0  0
  3  4  1  0  0  0  0
  3  2  1  0  0  0  0
  4  5  1  0  0  0  0
  5 22  1  0  0  0  0
  5  1  1  0  0  0  0
  5 10  1  1  0  0  0
  8  4  1  0  0  0  0
  9  4  1  0  0  0  0
 11 16  1  0  0  0  0
 12 11  2  0  0  0  0
 12 13  1  0  0  0  0
 13 14  2  0  0  0  0
 14 15  1  0  0  0  0
 15 19  1  0  0  0  0
 16 15  2  0  0  0  0
 17 11  1  0  0  0  0
 18 12  1  0  0  0  0
 20 21  1  0  0  0  0
 22 24  1  0  0  0  0
 23 28  1  6  0  0  0
 23 24  1  0  0  0  0
 23 33  1  0  0  0  0
 24 25  1  0  0  0  0
 24 29  1  1  0  0  0
 26 31  1  0  0  0  0
 26 25  1  0  0  0  0
 27 32  1  6  0  0  0
 27 35  1  0  0  0  0
 27 23  1  0  0  0  0
 27 26  1  0  0  0  0
 30 26  1  0  0  0  0
 34 33  1  0  0  0  0
 36 35  1  0  0  0  0
 37 36  2  0  0  0  0
 38 37  1  0  0  0  0
 39 38  1  0  0  0  0
M  END
>  <minimizedAffinity>
-5.35018063

$$$$

 OpenBabel03242516363D

 39 41  0  0  1  0  0  0  0  0999 V2000
   38.5120   29.0130   42.4950 C   0  0  2  0  0  0  0  0  0  0  0  0
   37.6600   29.3360   41.2360 C   0  0  1  0  0  0  0  0  0  0  0  0
   36.4280   29.0050   41.7190 O   0  0  0  0  0  0  0  0  0  0  0  0
   36.6100   27.7140   42.2520 C   0  0  0  0  0  0  0  0  0  0  0  0
   38.1120   27.5580   42.5800 C   0  0  1  0  0  0  0  0  0  0  0  0
   39.5770   29.1670   42.3090 H   0  0  0  0  0  0  0  0  0  0  0  0
   37.9680   28.6050   40.4550 H   0  0  0  0  0  0  0  0  0  0  0  0
   35.9810   27.5320   43.1380 H   0  0  0  0  0  0  0  0  0  0  0  0
   36.3350   26.9960   41.4550 H   0  0  0  0  0  0  0  0  0  0  0  0
   38.2960   27.1490   43.5860 H   0  0  0  0  0  0  0  0  0  0  0  0
   37.3870   32.8850   39.9070 C   0  0  0  0  0  0  0  0  0  0  0  0
   36.9870   31.5650   40.1180 C   0  0  0  0  0  0  0  0  0  0  0  0
   37.8280   30.7400   40.8410 C   0  0  0  0  0  0  0  0  0  0  0  0
   39.0100   31.2790   41.3080 N   0  0  0  0  0  0  0  0  0  0  0  0
   39.3600   32.5580   41.0830 C   0  0  0  0  0  0  0  0  0  0  0  0
   38.5370   33.3640   40.3760 N   0  0  0  0  0  0  0  0  0  0  0  0
   36.6700   33.4740   39.3260 H   0  0  0  0  0  0  0  0  0  0  0  0
   36.0890   31.0730   39.7920 H   0  0  0  0  0  0  0  0  0  0  0  0
   40.2830   32.9720   41.4510 H   0  0  0  0  0  0  0  0  0  0  0  0
   38.0030   29.6310   43.5970 O   0  0  0  0  0  0  0  0  0  0  0  0
   38.6080   30.2710   44.0220 H   0  0  0  0  0  0  0  0  0  0  0  0
   38.6750   26.8370   41.5690 O   0  0  0  0  0  0  0  0  0  0  0  0
   38.5680   24.6470   42.4370 C   0  0  1  0  0  0  0  0  0  0  0  0
   39.5550   25.8310   41.9630 C   0  0  1  0  0  0  0  0  0  0  0  0
   40.0680   25.2310   40.8750 O   0  0  0  0  0  0  0  0  0  0  0  0
   38.8700   24.9970   40.1420 C   0  0  0  0  0  0  0  0  0  0  0  0
   38.0880   24.1400   41.1110 C   0  0  1  0  0  0  0  0  0  0  0  0
   37.8380   25.0480   43.1140 H   0  0  0  0  0  0  0  0  0  0  0  0
   40.0880   25.9990   42.8910 H   0  0  0  0  0  0  0  0  0  0  0  0
   38.3310   25.9200   39.9180 H   0  0  0  0  0  0  0  0  0  0  0  0
   39.1350   24.3960   39.2580 H   0  0  0  0  0  0  0  0  0  0  0  0
   36.9890   24.3500   41.0790 H   0  0  0  0  0  0  0  0  0  0  0  0
   39.4230   23.6680   42.9540 O   0  0  0  0  0  0  0  0  0  0  0  0
   38.9700   22.8310   43.1380 H   0  0  0  0  0  0  0  0  0  0  0  0
   38.4220   22.8140   40.9140 O   0  0  0  0  0  0  0  0  0  0  0  0
   37.9010   22.0960   39.8690 C   0  0  0  0  0  3  0  0  0  0  0  0
   36.8610   21.9100   39.1080 C   0  0  0  0  0  3  0  0  0  0  0  0
   35.5460   22.5790   39.1120 C   0  0  0  0  0  2  0  0  0  0  0  0
   35.6190   23.4850   38.4600 H   0  0  0  0  0  0  0  0  0  0  0  0
  1  6  1  6  0  0  0
  1  5  1  0  0  0  0
  1 20  1  0  0  0  0
  2  7  1  6  0  0  0
  2  3  1  0  0  0  0
  2  1  1  0  0  0  0
  3  4  1  0  0  0  0
  4  5  1  0  0  0  0
  4  8  1  0  0  0  0
  5 10  1  1  0  0  0
  9  4  1  0  0  0  0
 11 12  2  0  0  0  0
 11 16  1  0  0  0  0
 12 13  1  0  0  0  0
 13  2  1  0  0  0  0
 13 14  2  0  0  0  0
 15 14  1  0  0  0  0
 15 19  1  0  0  0  0
 16 15  2  0  0  0  0
 17 11  1  0  0  0  0
 18 12  1  0  0  0  0
 20 21  1  0  0  0  0
 22 24  1  0  0  0  0
 22  5  1  0  0  0  0
 23 33  1  0  0  0  0
 23 28  1  1  0  0  0
 24 23  1  0  0  0  0
 24 29  1  1  0  0  0
 25 24  1  0  0  0  0
 26 25  1  0  0  0  0
 26 27  1  0  0  0  0
 27 32  1  6  0  0  0
 27 23  1  0  0  0  0
 30 26  1  0  0  0  0
 31 26  1  0  0  0  0
 33 34  1  0  0  0  0
 35 27  1  0  0  0  0
 36 35  1  0  0  0  0
 37 38  1  0  0  0  0
 37 36  2  0  0  0  0
 39 38  1  0  0  0  0
M  END
>  <minimizedAffinity>
-5.12388897

$$$$

 OpenBabel03242516363D

 39 41  0  0  1  0  0  0  0  0999 V2000
   37.0690   25.7630   41.3240 C   0  0  2  0  0  0  0  0  0  0  0  0
   38.5360   25.5130   40.8760 C   0  0  1  0  0  0  0  0  0  0  0  0
   39.1260   25.4360   42.1020 O   0  0  0  0  0  0  0  0  0  0  0  0
   38.6800   26.5960   42.7660 C   0  0  0  0  0  0  0  0  0  0  0  0
   37.3590   27.0320   42.0920 C   0  0  1  0  0  0  0  0  0  0  0  0
   36.4070   25.9080   40.4690 H   0  0  0  0  0  0  0  0  0  0  0  0
   38.8650   26.4410   40.3550 H   0  0  0  0  0  0  0  0  0  0  0  0
   38.5490   26.4380   43.8480 H   0  0  0  0  0  0  0  0  0  0  0  0
   39.4480   27.3770   42.6000 H   0  0  0  0  0  0  0  0  0  0  0  0
   36.5590   27.2580   42.8130 H   0  0  0  0  0  0  0  0  0  0  0  0
   39.0250   22.8650   38.1950 C   0  0  0  0  0  0  0  0  0  0  0  0
   38.9970   24.1540   38.7280 C   0  0  0  0  0  0  0  0  0  0  0  0
   38.6280   24.3010   40.0520 C   0  0  0  0  0  0  0  0  0  0  0  0
   38.3120   23.1590   40.7610 N   0  0  0  0  0  0  0  0  0  0  0  0
   38.3520   21.9330   40.2100 C   0  0  0  0  0  0  0  0  0  0  0  0
   38.7130   21.7900   38.9160 N   0  0  0  0  0  0  0  0  0  0  0  0
   39.3250   22.8300   37.1430 H   0  0  0  0  0  0  0  0  0  0  0  0
   39.2280   25.0870   38.2470 H   0  0  0  0  0  0  0  0  0  0  0  0
   38.1050   21.0460   40.7690 H   0  0  0  0  0  0  0  0  0  0  0  0
   36.6750   24.8300   42.2340 O   0  0  0  0  0  0  0  0  0  0  0  0
   35.9190   24.2780   41.9510 H   0  0  0  0  0  0  0  0  0  0  0  0
   37.6570   28.0580   41.2440 O   0  0  0  0  0  0  0  0  0  0  0  0
   36.7780   30.2080   41.6520 C   0  0  1  0  0  0  0  0  0  0  0  0
   36.5740   28.8340   40.8330 C   0  0  1  0  0  0  0  0  0  0  0  0
   36.8060   29.3100   39.5980 O   0  0  0  0  0  0  0  0  0  0  0  0
   38.1240   29.8170   39.7770 C   0  0  0  0  0  0  0  0  0  0  0  0
   37.9100   30.8220   40.8870 C   0  0  1  0  0  0  0  0  0  0  0  0
   36.9410   29.9780   42.6890 H   0  0  0  0  0  0  0  0  0  0  0  0
   35.6040   28.5410   41.2170 H   0  0  0  0  0  0  0  0  0  0  0  0
   38.8290   29.0430   40.0870 H   0  0  0  0  0  0  0  0  0  0  0  0
   38.4030   30.3480   38.8550 H   0  0  0  0  0  0  0  0  0  0  0  0
   38.7750   30.8670   41.5960 H   0  0  0  0  0  0  0  0  0  0  0  0
   35.6380   30.9620   41.3550 O   0  0  0  0  0  0  0  0  0  0  0  0
   35.7020   31.8790   41.6640 H   0  0  0  0  0  0  0  0  0  0  0  0
   37.5600   32.0390   40.3340 O   0  0  0  0  0  0  0  0  0  0  0  0
   38.3290   33.1550   40.5250 C   0  0  0  0  0  3  0  0  0  0  0  0
   39.4170   33.7810   40.1790 C   0  0  0  0  0  3  0  0  0  0  0  0
   40.4660   33.4040   39.2130 C   0  0  0  0  0  2  0  0  0  0  0  0
   40.1590   33.7830   38.2060 H   0  0  0  0  0  0  0  0  0  0  0  0
  1  6  1  6  0  0  0
  1  5  1  0  0  0  0
  1 20  1  0  0  0  0
  2  7  1  6  0  0  0
  2  1  1  0  0  0  0
  2  3  1  0  0  0  0
  3  4  1  0  0  0  0
  4  8  1  0  0  0  0
  5  4  1  0  0  0  0
  5 10  1  1  0  0  0
  9  4  1  0  0  0  0
 11 12  2  0  0  0  0
 11 16  1  0  0  0  0
 12 13  1  0  0  0  0
 13 14  2  0  0  0  0
 13  2  1  0  0  0  0
 15 14  1  0  0  0  0
 15 19  1  0  0  0  0
 16 15  2  0  0  0  0
 17 11  1  0  0  0  0
 18 12  1  0  0  0  0
 21 20  1  0  0  0  0
 22  5  1  0  0  0  0
 23 28  1  1  0  0  0
 24 29  1  1  0  0  0
 24 22  1  0  0  0  0
 24 23  1  0  0  0  0
 25 26  1  0  0  0  0
 25 24  1  0  0  0  0
 26 30  1  0  0  0  0
 26 27  1  0  0  0  0
 27 32  1  1  0  0  0
 27 23  1  0  0  0  0
 31 26  1  0  0  0  0
 33 23  1  0  0  0  0
 33 34  1  0  0  0  0
 35 36  1  0  0  0  0
 35 27  1  0  0  0  0
 37 36  2  0  0  0  0
 38 37  1  0  0  0  0
 39 38  1  0  0  0  0
M  END
>  <minimizedAffinity>
-4.96796083

$$$$

 OpenBabel03242516363D

 39 41  0  0  1  0  0  0  0  0999 V2000
   36.8790   29.0420   40.0230 C   0  0  2  0  0  0  0  0  0  0  0  0
   37.8220   28.0550   40.7660 C   0  0  1  0  0  0  0  0  0  0  0  0
   37.8010   28.6260   42.0030 O   0  0  0  0  0  0  0  0  0  0  0  0
   38.0980   29.9810   41.7540 C   0  0  0  0  0  0  0  0  0  0  0  0
   37.7120   30.2750   40.2870 C   0  0  1  0  0  0  0  0  0  0  0  0
   36.7880   28.7910   38.9640 H   0  0  0  0  0  0  0  0  0  0  0  0
   38.8290   28.1810   40.3080 H   0  0  0  0  0  0  0  0  0  0  0  0
   37.5820   30.6600   42.4520 H   0  0  0  0  0  0  0  0  0  0  0  0
   39.1930   30.0970   41.8730 H   0  0  0  0  0  0  0  0  0  0  0  0
   37.1170   31.1940   40.1710 H   0  0  0  0  0  0  0  0  0  0  0  0
   36.3660   24.6720   39.8260 C   0  0  0  0  0  0  0  0  0  0  0  0
   36.7650   25.9940   39.6220 C   0  0  0  0  0  0  0  0  0  0  0  0
   37.3000   26.6840   40.6930 C   0  0  0  0  0  0  0  0  0  0  0  0
   37.4050   26.0170   41.8980 N   0  0  0  0  0  0  0  0  0  0  0  0
   37.0100   24.7420   42.0540 C   0  0  0  0  0  0  0  0  0  0  0  0
   36.4870   24.0680   41.0060 N   0  0  0  0  0  0  0  0  0  0  0  0
   35.9520   24.1940   38.9330 H   0  0  0  0  0  0  0  0  0  0  0  0
   36.7180   26.5800   38.7220 H   0  0  0  0  0  0  0  0  0  0  0  0
   37.0950   24.2280   42.9960 H   0  0  0  0  0  0  0  0  0  0  0  0
   35.7090   29.1990   40.7020 O   0  0  0  0  0  0  0  0  0  0  0  0
   34.9110   28.9210   40.2100 H   0  0  0  0  0  0  0  0  0  0  0  0
   38.8610   30.2540   39.5540 O   0  0  0  0  0  0  0  0  0  0  0  0
   39.8890   31.7900   38.0890 C   0  0  1  0  0  0  0  0  0  0  0  0
   38.7390   30.6680   38.2290 C   0  0  1  0  0  0  0  0  0  0  0  0
   39.2750   29.7400   37.4170 O   0  0  0  0  0  0  0  0  0  0  0  0
   40.5220   29.5360   38.0740 C   0  0  0  0  0  0  0  0  0  0  0  0
   41.1120   30.9270   38.0340 C   0  0  1  0  0  0  0  0  0  0  0  0
   39.8020   32.4850   38.9020 H   0  0  0  0  0  0  0  0  0  0  0  0
   37.8710   31.2730   37.9960 H   0  0  0  0  0  0  0  0  0  0  0  0
   40.3990   29.1960   39.1040 H   0  0  0  0  0  0  0  0  0  0  0  0
   41.1240   28.8680   37.4400 H   0  0  0  0  0  0  0  0  0  0  0  0
   41.7020   31.1690   38.9550 H   0  0  0  0  0  0  0  0  0  0  0  0
   39.7100   32.3130   36.8040 O   0  0  0  0  0  0  0  0  0  0  0  0
   40.4340   32.8960   36.5300 H   0  0  0  0  0  0  0  0  0  0  0  0
   41.8070   31.0910   36.8510 O   0  0  0  0  0  0  0  0  0  0  0  0
   42.4980   30.0530   36.2830 C   0  0  0  0  0  3  0  0  0  0  0  0
   43.5910   29.7000   35.6690 C   0  0  0  0  0  3  0  0  0  0  0  0
   44.7610   30.5040   35.2700 C   0  0  0  0  0  2  0  0  0  0  0  0
   45.4780   30.5190   36.1290 H   0  0  0  0  0  0  0  0  0  0  0  0
  1  6  1  6  0  0  0
  1  5  1  0  0  0  0
  1 20  1  0  0  0  0
  1  2  1  0  0  0  0
  2  7  1  6  0  0  0
  2  3  1  0  0  0  0
  4  9  1  0  0  0  0
  4  3  1  0  0  0  0
  4  8  1  0  0  0  0
  5 10  1  6  0  0  0
  5  4  1  0  0  0  0
 11 16  1  0  0  0  0
 12 11  2  0  0  0  0
 12 13  1  0  0  0  0
 13  2  1  0  0  0  0
 13 14  2  0  0  0  0
 14 15  1  0  0  0  0
 15 19  1  0  0  0  0
 16 15  2  0  0  0  0
 17 11  1  0  0  0  0
 18 12  1  0  0  0  0
 21 20  1  0  0  0  0
 22  5  1  0  0  0  0
 23 24  1  0  0  0  0
 23 28  1  1  0  0  0
 24 29  1  6  0  0  0
 24 22  1  0  0  0  0
 25 26  1  0  0  0  0
 25 24  1  0  0  0  0
 26 30  1  0  0  0  0
 27 26  1  0  0  0  0
 27 23  1  0  0  0  0
 27 32  1  1  0  0  0
 31 26  1  0  0  0  0
 33 23  1  0  0  0  0
 34 33  1  0  0  0  0
 35 27  1  0  0  0  0
 36 35  1  0  0  0  0
 37 36  2  0  0  0  0
 38 37  1  0  0  0  0
 38 39  1  0  0  0  0
M  END
>  <minimizedAffinity>
-4.94649076

$$$$

 OpenBabel03242516363D

 39 41  0  0  1  0  0  0  0  0999 V2000
   37.0280   28.7010   39.3050 C   0  0  2  0  0  0  0  0  0  0  0  0
   37.1130   28.4190   40.8310 C   0  0  1  0  0  0  0  0  0  0  0  0
   35.8800   28.8660   41.2020 O   0  0  0  0  0  0  0  0  0  0  0  0
   35.7990   30.1510   40.6300 C   0  0  0  0  0  0  0  0  0  0  0  0
   36.7830   30.1870   39.4390 C   0  0  1  0  0  0  0  0  0  0  0  0
   37.9620   28.4530   38.7980 H   0  0  0  0  0  0  0  0  0  0  0  0
   37.8980   29.1000   41.2310 H   0  0  0  0  0  0  0  0  0  0  0  0
   34.7750   30.4090   40.3170 H   0  0  0  0  0  0  0  0  0  0  0  0
   36.1380   30.8680   41.4030 H   0  0  0  0  0  0  0  0  0  0  0  0
   36.3390   30.6050   38.5220 H   0  0  0  0  0  0  0  0  0  0  0  0
   37.4250   24.8710   42.1560 C   0  0  0  0  0  0  0  0  0  0  0  0
   37.0910   26.2250   42.1950 C   0  0  0  0  0  0  0  0  0  0  0  0
   37.3720   26.9960   41.0820 C   0  0  0  0  0  0  0  0  0  0  0  0
   37.9670   26.3720   40.0040 N   0  0  0  0  0  0  0  0  0  0  0  0
   38.2730   25.0620   40.0050 C   0  0  0  0  0  0  0  0  0  0  0  0
   37.9970   24.3100   41.0930 N   0  0  0  0  0  0  0  0  0  0  0  0
   37.1720   24.3300   43.0730 H   0  0  0  0  0  0  0  0  0  0  0  0
   36.6290   26.7830   42.9890 H   0  0  0  0  0  0  0  0  0  0  0  0
   38.7350   24.5820   39.1600 H   0  0  0  0  0  0  0  0  0  0  0  0
   35.8980   28.1590   38.7740 O   0  0  0  0  0  0  0  0  0  0  0  0
   36.0540   27.4810   38.0870 H   0  0  0  0  0  0  0  0  0  0  0  0
   37.9090   30.8300   39.8620 O   0  0  0  0  0  0  0  0  0  0  0  0
   38.9240   32.5210   41.1550 C   0  0  1  0  0  0  0  0  0  0  0  0
   37.7780   32.2030   40.0670 C   0  0  1  0  0  0  0  0  0  0  0  0
   38.3110   32.8640   39.0250 O   0  0  0  0  0  0  0  0  0  0  0  0
   39.5620   32.1910   38.9270 C   0  0  0  0  0  0  0  0  0  0  0  0
   40.1500   32.4490   40.2960 C   0  0  1  0  0  0  0  0  0  0  0  0
   38.8410   31.8240   41.9680 H   0  0  0  0  0  0  0  0  0  0  0  0
   36.9080   32.5210   40.6280 H   0  0  0  0  0  0  0  0  0  0  0  0
   39.4460   31.1200   38.7500 H   0  0  0  0  0  0  0  0  0  0  0  0
   40.1630   32.7180   38.1700 H   0  0  0  0  0  0  0  0  0  0  0  0
   40.7440   31.5800   40.6780 H   0  0  0  0  0  0  0  0  0  0  0  0
   38.7370   33.8700   41.4730 O   0  0  0  0  0  0  0  0  0  0  0  0
   39.4590   34.2350   42.0070 H   0  0  0  0  0  0  0  0  0  0  0  0
   40.8370   33.6470   40.2760 O   0  0  0  0  0  0  0  0  0  0  0  0
   42.1400   33.7130   39.8550 C   0  0  0  0  0  3  0  0  0  0  0  0
   42.9310   33.8790   38.8350 C   0  0  0  0  0  3  0  0  0  0  0  0
   42.6150   34.1130   37.4130 C   0  0  0  0  0  2  0  0  0  0  0  0
   42.5040   35.2160   37.2610 H   0  0  0  0  0  0  0  0  0  0  0  0
  1  6  1  6  0  0  0
  1  5  1  0  0  0  0
  1  2  1  0  0  0  0
  2 13  1  0  0  0  0
  2  3  1  0  0  0  0
  2  7  1  1  0  0  0
  4  3  1  0  0  0  0
  4  9  1  0  0  0  0
  5 10  1  6  0  0  0
  5 22  1  0  0  0  0
  5  4  1  0  0  0  0
  8  4  1  0  0  0  0
 11 12  1  0  0  0  0
 11 17  1  0  0  0  0
 12 18  1  0  0  0  0
 13 12  2  0  0  0  0
 14 15  2  0  0  0  0
 14 13  1  0  0  0  0
 15 16  1  0  0  0  0
 16 11  2  0  0  0  0
 19 15  1  0  0  0  0
 20  1  1  0  0  0  0
 21 20  1  0  0  0  0
 22 24  1  0  0  0  0
 23 33  1  0  0  0  0
 23 28  1  1  0  0  0
 24 29  1  1  0  0  0
 24 23  1  0  0  0  0
 25 24  1  0  0  0  0
 26 25  1  0  0  0  0
 26 27  1  0  0  0  0
 27 32  1  1  0  0  0
 27 23  1  0  0  0  0
 30 26  1  0  0  0  0
 31 26  1  0  0  0  0
 33 34  1  0  0  0  0
 35 27  1  0  0  0  0
 36 35  1  0  0  0  0
 37 36  2  0  0  0  0
 38 37  1  0  0  0  0
 39 38  1  0  0  0  0
M  END
>  <minimizedAffinity>
-4.94399738

$$$$
