
 OpenBabel03252501343D

 20 20  0  0  0  0  0  0  0  0999 V2000
   45.7810   34.7150   43.8820 C   0  0  0  0  0  0  0  0  0  0  0  0
   45.3120   34.5060   45.1560 C   0  0  0  0  0  0  0  0  0  0  0  0
   45.9520   33.4910   45.8670 C   0  0  0  0  0  0  0  0  0  0  0  0
   46.9500   32.8200   45.2630 N   0  0  0  0  0  0  0  0  0  0  0  0
   47.3720   33.0600   44.0180 C   0  0  0  0  0  0  0  0  0  0  0  0
   46.7770   34.0400   43.2870 N   0  0  0  0  0  0  0  0  0  0  0  0
   45.5920   33.3160   46.8730 H   0  0  0  0  0  0  0  0  0  0  0  0
   48.1850   32.4540   43.6380 H   0  0  0  0  0  0  0  0  0  0  0  0
   44.1550   35.1550   42.2380 C   0  0  0  0  0  0  0  0  0  0  0  0
   43.9370   33.9430   42.5560 O   0  0  0  0  0  0  0  0  0  0  0  0
   45.2580   35.7180   42.9580 N   0  0  0  0  0  0  0  0  0  0  0  0
   45.5590   36.6890   42.7790 H   0  0  0  0  0  0  0  0  0  0  0  0
   43.4430   35.9060   41.3060 O   0  0  0  0  0  0  0  0  0  0  0  0
   42.2400   35.4000   40.7960 C   0  0  0  0  0  3  0  0  0  0  0  0
   41.0290   35.8780   40.8610 C   0  0  0  0  0  3  0  0  0  0  0  0
   39.8160   35.2530   40.2800 C   0  0  0  0  0  2  0  0  0  0  0  0
   40.0670   34.1820   40.0410 H   0  0  0  0  0  0  0  0  0  0  0  0
   44.2540   35.3110   45.6200 N   0  0  0  0  0  0  0  0  0  0  0  0
   43.5290   34.9180   46.2710 H   0  0  0  0  0  0  0  0  0  0  0  0
   44.2030   36.3070   45.3070 H   0  0  0  0  0  0  0  0  0  0  0  0
  1  2  1  0  0  0  0
  2 18  1  0  0  0  0
  2  3  2  0  0  0  0
  3  7  1  0  0  0  0
  4  3  1  0  0  0  0
  5  4  2  0  0  0  0
  6  1  2  0  0  0  0
  6  5  1  0  0  0  0
  8  5  1  0  0  0  0
  9 10  2  0  0  0  0
  9 11  1  0  0  0  0
 11  1  1  0  0  0  0
 12 11  1  0  0  0  0
 13  9  1  0  0  0  0
 14 15  2  0  0  0  0
 14 13  1  0  0  0  0
 16 15  1  0  0  0  0
 17 16  1  0  0  0  0
 18 19  1  0  0  0  0
 20 18  1  0  0  0  0
M  END
>  <minimizedAffinity>
-4.56380033

>  <minimizedRMSD>
0.819593251

$$$$
