
 OpenBabel03252505493D

 17 17  0  0  0  0  0  0  0  0999 V2000
   45.2560   34.7910   44.7640 C   0  0  0  0  0  0  0  0  0  0  0  0
   46.1410   34.6110   43.6970 C   0  0  0  0  0  0  0  0  0  0  0  0
   47.0690   33.5740   43.8230 C   0  0  0  0  0  0  0  0  0  0  0  0
   47.0740   32.8120   44.9380 N   0  0  0  0  0  0  0  0  0  0  0  0
   46.2010   33.0230   45.9390 C   0  0  0  0  0  0  0  0  0  0  0  0
   45.2870   34.0070   45.8700 N   0  0  0  0  0  0  0  0  0  0  0  0
   44.4870   35.5680   44.7800 H   0  0  0  0  0  0  0  0  0  0  0  0
   47.7300   33.4710   42.9830 H   0  0  0  0  0  0  0  0  0  0  0  0
   46.0040   35.5320   42.5330 C   0  0  0  0  0  0  0  0  0  0  0  0
   45.3970   36.6570   43.0020 F   0  0  0  0  0  0  0  0  0  0  0  0
   45.1940   34.8910   41.6030 F   0  0  0  0  0  0  0  0  0  0  0  0
   47.2620   35.7280   42.0140 F   0  0  0  0  0  0  0  0  0  0  0  0
   46.2060   32.2410   47.0760 O   0  0  0  0  0  0  0  0  0  0  0  0
   45.2920   32.3810   48.0950 C   0  0  0  0  0  3  0  0  0  0  0  0
   45.4320   31.6810   49.2220 C   0  0  0  0  0  3  0  0  0  0  0  0
   46.6280   30.7720   49.2620 C   0  0  0  0  0  2  0  0  0  0  0  0
   46.8300   30.4470   50.3110 H   0  0  0  0  0  0  0  0  0  0  0  0
  1  7  1  0  0  0  0
  1  6  1  0  0  0  0
  2  3  1  0  0  0  0
  2  1  2  0  0  0  0
  3  4  2  0  0  0  0
  4  5  1  0  0  0  0
  5 13  1  0  0  0  0
  6  5  2  0  0  0  0
  8  3  1  0  0  0  0
  9 10  1  0  0  0  0
  9  2  1  0  0  0  0
 11  9  1  0  0  0  0
 12  9  1  0  0  0  0
 13 14  1  0  0  0  0
 14 15  2  0  0  0  0
 15 16  1  0  0  0  0
 16 17  1  0  0  0  0
M  END
>  <minimizedAffinity>
-4.4273839

>  <minimizedRMSD>
0.728103936

$$$$
