
 OpenBabel03252505493D

 17 17  0  0  0  0  0  0  0  0999 V2000
   45.1330   34.6660   45.1790 C   0  0  0  0  0  0  0  0  0  0  0  0
   45.9470   34.5510   44.0490 C   0  0  0  0  0  0  0  0  0  0  0  0
   46.9060   33.5350   44.0680 C   0  0  0  0  0  0  0  0  0  0  0  0
   47.0040   32.7290   45.1470 N   0  0  0  0  0  0  0  0  0  0  0  0
   46.1980   32.8770   46.2140 C   0  0  0  0  0  0  0  0  0  0  0  0
   45.2590   33.8390   46.2470 N   0  0  0  0  0  0  0  0  0  0  0  0
   44.3490   35.4210   45.2800 H   0  0  0  0  0  0  0  0  0  0  0  0
   47.5090   33.4830   43.1810 H   0  0  0  0  0  0  0  0  0  0  0  0
   45.7090   35.5150   42.9360 C   0  0  0  0  0  0  0  0  0  0  0  0
   45.1840   36.6360   43.5030 F   0  0  0  0  0  0  0  0  0  0  0  0
   44.7870   34.9240   42.0790 F   0  0  0  0  0  0  0  0  0  0  0  0
   46.9080   35.7010   42.2900 F   0  0  0  0  0  0  0  0  0  0  0  0
   46.2990   32.0510   47.3130 O   0  0  0  0  0  0  0  0  0  0  0  0
   45.8630   32.4050   48.5700 C   0  0  0  0  0  2  0  0  0  0  0  0
   45.2680   31.5030   49.3530 C   0  0  0  0  0  2  0  0  0  0  0  0
   45.1310   30.1330   48.7520 C   0  0  0  0  0  2  0  0  0  0  0  0
   44.8920   29.3850   49.5490 H   0  0  0  0  0  0  0  0  0  0  0  0
  1  7  1  0  0  0  0
  1  6  1  0  0  0  0
  2  3  1  0  0  0  0
  2  1  2  0  0  0  0
  3  4  2  0  0  0  0
  4  5  1  0  0  0  0
  5  6  2  0  0  0  0
  5 13  1  0  0  0  0
  8  3  1  0  0  0  0
  9 10  1  0  0  0  0
  9  2  1  0  0  0  0
 11  9  1  0  0  0  0
 12  9  1  0  0  0  0
 13 14  1  0  0  0  0
 14 15  1  0  0  0  0
 16 15  1  0  0  0  0
 16 17  1  0  0  0  0
M  END
>  <minimizedAffinity>
-4.63915014

>  <minimizedRMSD>
1.10175419

$$$$
