
 OpenBabel03242510303D

 30 31  0  0  1  0  0  0  0  0999 V2000
   36.7580   31.1300   39.1240 C   0  0  1  0  0  0  0  0  0  0  0  0
   37.1140   30.0310   38.1880 C   0  0  0  0  0  0  0  0  0  0  0  0
   35.8350   29.2870   37.8790 C   0  0  0  0  0  0  0  0  0  0  0  0
   35.3840   28.5970   39.1120 C   0  0  0  0  0  0  0  0  0  0  0  0
   35.3170   29.4400   40.3230 C   0  0  0  0  0  0  0  0  0  0  0  0
   36.3020   30.5270   40.4560 C   0  0  1  0  0  0  0  0  0  0  0  0
   35.8370   31.6490   38.7240 H   0  0  0  0  0  0  0  0  0  0  0  0
   37.8490   29.3390   38.6550 H   0  0  0  0  0  0  0  0  0  0  0  0
   37.5400   30.4600   37.2510 H   0  0  0  0  0  0  0  0  0  0  0  0
   36.0770   28.5150   37.1060 H   0  0  0  0  0  0  0  0  0  0  0  0
   35.0900   29.9910   37.4680 H   0  0  0  0  0  0  0  0  0  0  0  0
   34.3710   28.1690   38.9260 H   0  0  0  0  0  0  0  0  0  0  0  0
   36.0360   27.7050   39.2910 H   0  0  0  0  0  0  0  0  0  0  0  0
   35.4240   28.7420   41.2060 H   0  0  0  0  0  0  0  0  0  0  0  0
   34.2840   29.8600   40.4270 H   0  0  0  0  0  0  0  0  0  0  0  0
   35.8310   31.4010   40.9890 H   0  0  0  0  0  0  0  0  0  0  0  0
   38.7450   34.1610   40.3030 C   0  0  0  0  0  0  0  0  0  0  0  0
   37.6990   33.2780   40.0710 C   0  0  0  0  0  0  0  0  0  0  0  0
   37.8510   32.0640   39.3900 C   0  0  0  0  0  0  0  0  0  0  0  0
   39.1060   31.8150   38.9700 N   0  0  0  0  0  0  0  0  0  0  0  0
   40.1310   32.6450   39.1760 C   0  0  0  0  0  0  0  0  0  0  0  0
   39.9540   33.8180   39.8420 N   0  0  0  0  0  0  0  0  0  0  0  0
   38.5560   35.0680   40.8290 H   0  0  0  0  0  0  0  0  0  0  0  0
   36.7250   33.5590   40.4430 H   0  0  0  0  0  0  0  0  0  0  0  0
   41.0800   32.3170   38.7830 H   0  0  0  0  0  0  0  0  0  0  0  0
   37.4210   30.1670   41.1750 O   0  0  0  0  0  0  0  0  0  0  0  0
   37.3250   29.3290   42.2780 C   0  0  0  0  0  3  0  0  0  0  0  0
   38.2750   28.4450   42.4980 C   0  0  0  0  0  3  0  0  0  0  0  0
   38.1760   27.5430   43.6790 C   0  0  0  0  0  2  0  0  0  0  0  0
   39.1390   27.0180   43.8580 H   0  0  0  0  0  0  0  0  0  0  0  0
  1  7  1  6  0  0  0
  1 19  1  0  0  0  0
  1  6  1  0  0  0  0
  2  8  1  0  0  0  0
  2  1  1  0  0  0  0
  3  2  1  0  0  0  0
  3  4  1  0  0  0  0
  4 13  1  0  0  0  0
  4  5  1  0  0  0  0
  5 15  1  0  0  0  0
  5  6  1  0  0  0  0
  5 14  1  0  0  0  0
  6 16  1  1  0  0  0
  6 26  1  0  0  0  0
  9  2  1  0  0  0  0
 10  3  1  0  0  0  0
 11  3  1  0  0  0  0
 12  4  1  0  0  0  0
 17 23  1  0  0  0  0
 18 17  1  0  0  0  0
 18 24  1  0  0  0  0
 19 18  2  0  0  0  0
 20 21  2  0  0  0  0
 20 19  1  0  0  0  0
 21 22  1  0  0  0  0
 22 17  2  0  0  0  0
 25 21  1  0  0  0  0
 26 27  1  0  0  0  0
 27 28  2  0  0  0  0
 28 29  1  0  0  0  0
 29 30  1  0  0  0  0
M  END
>  <minimizedAffinity>
-4.69308758

$$$$

 OpenBabel03242510303D

 30 31  0  0  1  0  0  0  0  0999 V2000
   38.4210   29.0300   41.5680 C   0  0  1  0  0  0  0  0  0  0  0  0
   38.3240   29.2500   43.0350 C   0  0  0  0  0  0  0  0  0  0  0  0
   38.2490   27.8840   43.6790 C   0  0  0  0  0  0  0  0  0  0  0  0
   36.9540   27.2620   43.3080 C   0  0  0  0  0  0  0  0  0  0  0  0
   36.6360   27.2700   41.8650 C   0  0  0  0  0  0  0  0  0  0  0  0
   37.1130   28.4120   41.0660 C   0  0  1  0  0  0  0  0  0  0  0  0
   39.1960   28.2290   41.3820 H   0  0  0  0  0  0  0  0  0  0  0  0
   37.4130   29.8360   43.2870 H   0  0  0  0  0  0  0  0  0  0  0  0
   39.2320   29.7890   43.3950 H   0  0  0  0  0  0  0  0  0  0  0  0
   38.2660   28.0370   44.7880 H   0  0  0  0  0  0  0  0  0  0  0  0
   39.1290   27.2870   43.3810 H   0  0  0  0  0  0  0  0  0  0  0  0
   36.9580   26.2030   43.6600 H   0  0  0  0  0  0  0  0  0  0  0  0
   36.1330   27.7480   43.8930 H   0  0  0  0  0  0  0  0  0  0  0  0
   35.5100   27.2150   41.7840 H   0  0  0  0  0  0  0  0  0  0  0  0
   36.9940   26.3160   41.4010 H   0  0  0  0  0  0  0  0  0  0  0  0
   37.3730   28.0630   40.0270 H   0  0  0  0  0  0  0  0  0  0  0  0
   39.1860   31.4290   38.7080 C   0  0  0  0  0  0  0  0  0  0  0  0
   38.9240   30.2670   39.4210 C   0  0  0  0  0  0  0  0  0  0  0  0
   38.6830   30.2460   40.7990 C   0  0  0  0  0  0  0  0  0  0  0  0
   38.7240   31.4560   41.3900 N   0  0  0  0  0  0  0  0  0  0  0  0
   38.9740   32.5900   40.7320 C   0  0  0  0  0  0  0  0  0  0  0  0
   39.2050   32.5800   39.3910 N   0  0  0  0  0  0  0  0  0  0  0  0
   39.3610   31.3700   37.6580 H   0  0  0  0  0  0  0  0  0  0  0  0
   38.9110   29.3410   38.8660 H   0  0  0  0  0  0  0  0  0  0  0  0
   38.9770   33.4840   41.3330 H   0  0  0  0  0  0  0  0  0  0  0  0
   36.1800   29.4170   40.9360 O   0  0  0  0  0  0  0  0  0  0  0  0
   35.0430   29.2430   40.1570 C   0  0  0  0  0  3  0  0  0  0  0  0
   35.1770   28.9880   38.8720 C   0  0  0  0  0  3  0  0  0  0  0  0
   33.9610   28.8010   38.0330 C   0  0  0  0  0  2  0  0  0  0  0  0
   34.2260   28.3790   37.0410 H   0  0  0  0  0  0  0  0  0  0  0  0
  1  7  1  6  0  0  0
  1  2  1  0  0  0  0
  2  8  1  0  0  0  0
  2  9  1  0  0  0  0
  2  3  1  0  0  0  0
  3 10  1  0  0  0  0
  4 12  1  0  0  0  0
  4  3  1  0  0  0  0
  4 13  1  0  0  0  0
  5  4  1  0  0  0  0
  6 16  1  6  0  0  0
  6  1  1  0  0  0  0
  6  5  1  0  0  0  0
 11  3  1  0  0  0  0
 14  5  1  0  0  0  0
 15  5  1  0  0  0  0
 17 22  2  0  0  0  0
 17 18  1  0  0  0  0
 18 19  2  0  0  0  0
 19 20  1  0  0  0  0
 19  1  1  0  0  0  0
 21 25  1  0  0  0  0
 21 20  2  0  0  0  0
 22 21  1  0  0  0  0
 23 17  1  0  0  0  0
 24 18  1  0  0  0  0
 26  6  1  0  0  0  0
 27 26  1  0  0  0  0
 28 27  2  0  0  0  0
 29 28  1  0  0  0  0
 30 29  1  0  0  0  0
M  END
>  <minimizedAffinity>
-4.38746834

$$$$

 OpenBabel03242510303D

 30 31  0  0  1  0  0  0  0  0999 V2000
   36.2910   28.1030   41.1140 C   0  0  1  0  0  0  0  0  0  0  0  0
   37.1810   26.9490   41.4080 C   0  0  0  0  0  0  0  0  0  0  0  0
   37.3710   26.9140   42.9080 C   0  0  0  0  0  0  0  0  0  0  0  0
   38.1590   28.1060   43.3080 C   0  0  0  0  0  0  0  0  0  0  0  0
   37.6640   29.3980   42.7900 C   0  0  0  0  0  0  0  0  0  0  0  0
   37.0210   29.4020   41.4640 C   0  0  1  0  0  0  0  0  0  0  0  0
   35.4210   28.0700   41.8350 H   0  0  0  0  0  0  0  0  0  0  0  0
   38.1650   27.0720   40.9060 H   0  0  0  0  0  0  0  0  0  0  0  0
   36.6970   26.0050   41.0660 H   0  0  0  0  0  0  0  0  0  0  0  0
   37.9670   25.9960   43.1470 H   0  0  0  0  0  0  0  0  0  0  0  0
   36.3870   26.8480   43.4030 H   0  0  0  0  0  0  0  0  0  0  0  0
   38.1770   28.1590   44.4220 H   0  0  0  0  0  0  0  0  0  0  0  0
   39.2290   27.9510   43.0180 H   0  0  0  0  0  0  0  0  0  0  0  0
   38.5530   30.0960   42.7650 H   0  0  0  0  0  0  0  0  0  0  0  0
   36.9720   29.8580   43.5400 H   0  0  0  0  0  0  0  0  0  0  0  0
   36.2010   30.1750   41.4450 H   0  0  0  0  0  0  0  0  0  0  0  0
   34.4070   29.0520   37.9390 C   0  0  0  0  0  0  0  0  0  0  0  0
   34.8190   29.0020   39.2650 C   0  0  0  0  0  0  0  0  0  0  0  0
   35.8550   28.1790   39.7200 C   0  0  0  0  0  0  0  0  0  0  0  0
   36.4310   27.4280   38.7620 N   0  0  0  0  0  0  0  0  0  0  0  0
   36.0570   27.4530   37.4810 C   0  0  0  0  0  0  0  0  0  0  0  0
   35.0460   28.2640   37.0660 N   0  0  0  0  0  0  0  0  0  0  0  0
   33.6100   29.7030   37.6640 H   0  0  0  0  0  0  0  0  0  0  0  0
   34.3000   29.6390   39.9660 H   0  0  0  0  0  0  0  0  0  0  0  0
   36.6070   26.7970   36.8240 H   0  0  0  0  0  0  0  0  0  0  0  0
   37.8880   29.7040   40.4360 O   0  0  0  0  0  0  0  0  0  0  0  0
   38.1350   31.0210   40.0700 C   0  0  0  0  0  3  0  0  0  0  0  0
   37.1260   31.8620   39.9770 C   0  0  0  0  0  3  0  0  0  0  0  0
   37.3860   33.2750   39.5850 C   0  0  0  0  0  2  0  0  0  0  0  0
   36.4900   33.9060   39.7640 H   0  0  0  0  0  0  0  0  0  0  0  0
  1  2  1  0  0  0  0
  1  6  1  0  0  0  0
  1  7  1  1  0  0  0
  2  3  1  0  0  0  0
  3 10  1  0  0  0  0
  3  4  1  0  0  0  0
  3 11  1  0  0  0  0
  4 12  1  0  0  0  0
  5  4  1  0  0  0  0
  5 15  1  0  0  0  0
  6 16  1  1  0  0  0
  6  5  1  0  0  0  0
  8  2  1  0  0  0  0
  9  2  1  0  0  0  0
 13  4  1  0  0  0  0
 14  5  1  0  0  0  0
 17 18  1  0  0  0  0
 18 19  2  0  0  0  0
 18 24  1  0  0  0  0
 19  1  1  0  0  0  0
 20 19  1  0  0  0  0
 21 20  2  0  0  0  0
 22 21  1  0  0  0  0
 22 17  2  0  0  0  0
 23 17  1  0  0  0  0
 25 21  1  0  0  0  0
 26  6  1  0  0  0  0
 27 26  1  0  0  0  0
 28 27  2  0  0  0  0
 29 30  1  0  0  0  0
 29 28  1  0  0  0  0
M  END
>  <minimizedAffinity>
-4.32708788

$$$$

 OpenBabel03242510303D

 30 31  0  0  1  0  0  0  0  0999 V2000
   38.9290   28.6420   41.7740 C   0  0  1  0  0  0  0  0  0  0  0  0
   38.8340   28.3520   43.2290 C   0  0  0  0  0  0  0  0  0  0  0  0
   37.9290   27.1500   43.3780 C   0  0  0  0  0  0  0  0  0  0  0  0
   36.5540   27.5480   42.9850 C   0  0  0  0  0  0  0  0  0  0  0  0
   36.4390   28.2360   41.6830 C   0  0  0  0  0  0  0  0  0  0  0  0
   37.5580   29.0960   41.2620 C   0  0  1  0  0  0  0  0  0  0  0  0
   39.1190   27.6690   41.2320 H   0  0  0  0  0  0  0  0  0  0  0  0
   38.4040   29.2190   43.7760 H   0  0  0  0  0  0  0  0  0  0  0  0
   39.8470   28.1160   43.6300 H   0  0  0  0  0  0  0  0  0  0  0  0
   37.9230   26.8700   44.4620 H   0  0  0  0  0  0  0  0  0  0  0  0
   38.3320   26.3100   42.7870 H   0  0  0  0  0  0  0  0  0  0  0  0
   35.9180   26.6330   42.9570 H   0  0  0  0  0  0  0  0  0  0  0  0
   36.1080   28.1740   43.8000 H   0  0  0  0  0  0  0  0  0  0  0  0
   35.4980   28.8610   41.7320 H   0  0  0  0  0  0  0  0  0  0  0  0
   36.2290   27.4820   40.8830 H   0  0  0  0  0  0  0  0  0  0  0  0
   37.6700   29.0490   40.1420 H   0  0  0  0  0  0  0  0  0  0  0  0
   41.4600   31.4800   42.0300 C   0  0  0  0  0  0  0  0  0  0  0  0
   40.5390   30.4990   42.3720 C   0  0  0  0  0  0  0  0  0  0  0  0
   39.9120   29.6700   41.4330 C   0  0  0  0  0  0  0  0  0  0  0  0
   40.2760   29.8990   40.1570 N   0  0  0  0  0  0  0  0  0  0  0  0
   41.1570   30.8350   39.7990 C   0  0  0  0  0  0  0  0  0  0  0  0
   41.7510   31.6270   40.7320 N   0  0  0  0  0  0  0  0  0  0  0  0
   41.8980   32.0750   42.7980 H   0  0  0  0  0  0  0  0  0  0  0  0
   40.3060   30.3840   43.4200 H   0  0  0  0  0  0  0  0  0  0  0  0
   41.3520   30.9080   38.7400 H   0  0  0  0  0  0  0  0  0  0  0  0
   37.3870   30.4210   41.5980 O   0  0  0  0  0  0  0  0  0  0  0  0
   36.9260   31.3420   40.6670 C   0  0  0  0  0  3  0  0  0  0  0  0
   37.6570   32.4020   40.3930 C   0  0  0  0  0  3  0  0  0  0  0  0
   37.1670   33.3920   39.3960 C   0  0  0  0  0  2  0  0  0  0  0  0
   37.9750   34.0990   39.1090 H   0  0  0  0  0  0  0  0  0  0  0  0
  1  7  1  6  0  0  0
  1  2  1  0  0  0  0
  2  3  1  0  0  0  0
  2  9  1  0  0  0  0
  2  8  1  0  0  0  0
  3 10  1  0  0  0  0
  4  3  1  0  0  0  0
  4 13  1  0  0  0  0
  5 14  1  0  0  0  0
  5  4  1  0  0  0  0
  6 16  1  6  0  0  0
  6 26  1  0  0  0  0
  6  5  1  0  0  0  0
  6  1  1  0  0  0  0
 11  3  1  0  0  0  0
 12  4  1  0  0  0  0
 15  5  1  0  0  0  0
 17 18  1  0  0  0  0
 17 23  1  0  0  0  0
 18 24  1  0  0  0  0
 19  1  1  0  0  0  0
 19 18  2  0  0  0  0
 20 19  1  0  0  0  0
 21 20  2  0  0  0  0
 21 22  1  0  0  0  0
 22 17  2  0  0  0  0
 25 21  1  0  0  0  0
 27 26  1  0  0  0  0
 28 27  2  0  0  0  0
 29 28  1  0  0  0  0
 30 29  1  0  0  0  0
M  END
>  <minimizedAffinity>
-4.27942228

$$$$

 OpenBabel03242510303D

 30 31  0  0  1  0  0  0  0  0999 V2000
   37.2170   26.8260   42.0970 C   0  0  1  0  0  0  0  0  0  0  0  0
   37.0620   25.6000   41.2710 C   0  0  0  0  0  0  0  0  0  0  0  0
   37.3370   24.4220   42.1800 C   0  0  0  0  0  0  0  0  0  0  0  0
   38.7730   24.4440   42.5530 C   0  0  0  0  0  0  0  0  0  0  0  0
   39.2780   25.7340   43.0640 C   0  0  0  0  0  0  0  0  0  0  0  0
   38.6830   26.9670   42.5180 C   0  0  1  0  0  0  0  0  0  0  0  0
   36.6630   26.6690   43.0700 H   0  0  0  0  0  0  0  0  0  0  0  0
   37.7850   25.6010   40.4260 H   0  0  0  0  0  0  0  0  0  0  0  0
   36.0200   25.5410   40.8790 H   0  0  0  0  0  0  0  0  0  0  0  0
   37.1360   23.4930   41.5890 H   0  0  0  0  0  0  0  0  0  0  0  0
   36.6540   24.4590   43.0460 H   0  0  0  0  0  0  0  0  0  0  0  0
   38.9460   23.6660   43.3330 H   0  0  0  0  0  0  0  0  0  0  0  0
   39.3830   24.1030   41.6780 H   0  0  0  0  0  0  0  0  0  0  0  0
   40.3900   25.7470   42.8630 H   0  0  0  0  0  0  0  0  0  0  0  0
   39.1980   25.7470   44.1810 H   0  0  0  0  0  0  0  0  0  0  0  0
   38.6490   27.7570   43.3200 H   0  0  0  0  0  0  0  0  0  0  0  0
   35.9260   29.2820   39.4840 C   0  0  0  0  0  0  0  0  0  0  0  0
   36.2930   28.1030   40.1190 C   0  0  0  0  0  0  0  0  0  0  0  0
   36.8110   28.0570   41.4190 C   0  0  0  0  0  0  0  0  0  0  0  0
   36.9280   29.2590   42.0150 N   0  0  0  0  0  0  0  0  0  0  0  0
   36.5850   30.4080   41.4300 C   0  0  0  0  0  0  0  0  0  0  0  0
   36.0840   30.4230   40.1650 N   0  0  0  0  0  0  0  0  0  0  0  0
   35.5390   29.2410   38.4920 H   0  0  0  0  0  0  0  0  0  0  0  0
   36.1660   27.1840   39.5660 H   0  0  0  0  0  0  0  0  0  0  0  0
   36.7340   31.2950   42.0250 H   0  0  0  0  0  0  0  0  0  0  0  0
   39.3900   27.4920   41.4580 O   0  0  0  0  0  0  0  0  0  0  0  0
   40.5280   28.2600   41.6680 C   0  0  0  0  0  3  0  0  0  0  0  0
   40.4950   29.2320   42.5550 C   0  0  0  0  0  3  0  0  0  0  0  0
   41.7130   30.0570   42.7820 C   0  0  0  0  0  2  0  0  0  0  0  0
   41.6070   30.6760   43.6980 H   0  0  0  0  0  0  0  0  0  0  0  0
  1  6  1  0  0  0  0
  1  7  1  1  0  0  0
  2  1  1  0  0  0  0
  2  3  1  0  0  0  0
  3  4  1  0  0  0  0
  3 11  1  0  0  0  0
  4  5  1  0  0  0  0
  4 12  1  0  0  0  0
  5 15  1  0  0  0  0
  6  5  1  0  0  0  0
  6 16  1  1  0  0  0
  8  2  1  0  0  0  0
  9  2  1  0  0  0  0
 10  3  1  0  0  0  0
 13  4  1  0  0  0  0
 14  5  1  0  0  0  0
 17 18  2  0  0  0  0
 17 22  1  0  0  0  0
 18 19  1  0  0  0  0
 19 20  2  0  0  0  0
 19  1  1  0  0  0  0
 21 20  1  0  0  0  0
 21 25  1  0  0  0  0
 22 21  2  0  0  0  0
 23 17  1  0  0  0  0
 24 18  1  0  0  0  0
 26 27  1  0  0  0  0
 26  6  1  0  0  0  0
 27 28  2  0  0  0  0
 28 29  1  0  0  0  0
 29 30  1  0  0  0  0
M  END
>  <minimizedAffinity>
-4.20058489

$$$$

 OpenBabel03242510303D

 30 31  0  0  1  0  0  0  0  0999 V2000
   37.0940   30.3710   40.9980 C   0  0  1  0  0  0  0  0  0  0  0  0
   38.0760   31.4800   40.8700 C   0  0  0  0  0  0  0  0  0  0  0  0
   37.4100   32.5620   40.0500 C   0  0  0  0  0  0  0  0  0  0  0  0
   37.2320   32.0590   38.6660 C   0  0  0  0  0  0  0  0  0  0  0  0
   36.5940   30.7310   38.5490 C   0  0  0  0  0  0  0  0  0  0  0  0
   36.8550   29.7510   39.6180 C   0  0  1  0  0  0  0  0  0  0  0  0
   36.0940   30.8150   41.2790 H   0  0  0  0  0  0  0  0  0  0  0  0
   38.9990   31.1320   40.3570 H   0  0  0  0  0  0  0  0  0  0  0  0
   38.3300   31.8730   41.8820 H   0  0  0  0  0  0  0  0  0  0  0  0
   38.1080   33.4370   40.0250 H   0  0  0  0  0  0  0  0  0  0  0  0
   36.4660   32.8640   40.5360 H   0  0  0  0  0  0  0  0  0  0  0  0
   36.6150   32.7950   38.1000 H   0  0  0  0  0  0  0  0  0  0  0  0
   38.2230   32.0650   38.1450 H   0  0  0  0  0  0  0  0  0  0  0  0
   36.9370   30.2960   37.5640 H   0  0  0  0  0  0  0  0  0  0  0  0
   35.4890   30.8600   38.4260 H   0  0  0  0  0  0  0  0  0  0  0  0
   35.9400   29.1120   39.7750 H   0  0  0  0  0  0  0  0  0  0  0  0
   39.1960   28.1300   43.2520 C   0  0  0  0  0  0  0  0  0  0  0  0
   38.8150   29.1520   42.3930 C   0  0  0  0  0  0  0  0  0  0  0  0
   37.5090   29.3100   41.9150 C   0  0  0  0  0  0  0  0  0  0  0  0
   36.6380   28.3830   42.3570 N   0  0  0  0  0  0  0  0  0  0  0  0
   36.9750   27.3890   43.1820 C   0  0  0  0  0  0  0  0  0  0  0  0
   38.2520   27.2600   43.6320 N   0  0  0  0  0  0  0  0  0  0  0  0
   40.2090   28.0710   43.5770 H   0  0  0  0  0  0  0  0  0  0  0  0
   39.5800   29.8510   42.0880 H   0  0  0  0  0  0  0  0  0  0  0  0
   36.1740   26.7200   43.4540 H   0  0  0  0  0  0  0  0  0  0  0  0
   37.9020   28.9010   39.3370 O   0  0  0  0  0  0  0  0  0  0  0  0
   37.6740   27.6140   38.8650 C   0  0  0  0  0  3  0  0  0  0  0  0
   36.4900   27.0660   39.0400 C   0  0  0  0  0  3  0  0  0  0  0  0
   36.2400   25.6870   38.5360 C   0  0  0  0  0  2  0  0  0  0  0  0
   35.1550   25.4500   38.5540 H   0  0  0  0  0  0  0  0  0  0  0  0
  1  7  1  1  0  0  0
  1 19  1  0  0  0  0
  2  1  1  0  0  0  0
  2  9  1  0  0  0  0
  3 11  1  0  0  0  0
  3  2  1  0  0  0  0
  4  3  1  0  0  0  0
  5  4  1  0  0  0  0
  5  6  1  0  0  0  0
  6 16  1  1  0  0  0
  6  1  1  0  0  0  0
  8  2  1  0  0  0  0
 10  3  1  0  0  0  0
 12  4  1  0  0  0  0
 13  4  1  0  0  0  0
 14  5  1  0  0  0  0
 15  5  1  0  0  0  0
 17 23  1  0  0  0  0
 17 22  1  0  0  0  0
 18 17  2  0  0  0  0
 19 20  2  0  0  0  0
 19 18  1  0  0  0  0
 20 21  1  0  0  0  0
 21 25  1  0  0  0  0
 21 22  2  0  0  0  0
 24 18  1  0  0  0  0
 26  6  1  0  0  0  0
 27 28  2  0  0  0  0
 27 26  1  0  0  0  0
 29 30  1  0  0  0  0
 29 28  1  0  0  0  0
M  END
>  <minimizedAffinity>
-4.16682816

$$$$

 OpenBabel03242510303D

 30 31  0  0  1  0  0  0  0  0999 V2000
   37.0830   28.1220   39.6560 C   0  0  1  0  0  0  0  0  0  0  0  0
   35.6180   28.2560   39.4440 C   0  0  0  0  0  0  0  0  0  0  0  0
   35.3940   28.2960   37.9490 C   0  0  0  0  0  0  0  0  0  0  0  0
   35.9650   29.5600   37.4230 C   0  0  0  0  0  0  0  0  0  0  0  0
   37.3540   29.8500   37.8360 C   0  0  0  0  0  0  0  0  0  0  0  0
   37.7790   29.3980   39.1720 C   0  0  1  0  0  0  0  0  0  0  0  0
   37.4680   27.3160   38.9640 H   0  0  0  0  0  0  0  0  0  0  0  0
   35.2370   29.1920   39.9080 H   0  0  0  0  0  0  0  0  0  0  0  0
   35.0940   27.3750   39.8820 H   0  0  0  0  0  0  0  0  0  0  0  0
   34.2870   28.3060   37.7790 H   0  0  0  0  0  0  0  0  0  0  0  0
   35.8250   27.3900   37.4880 H   0  0  0  0  0  0  0  0  0  0  0  0
   35.9300   29.5260   36.3090 H   0  0  0  0  0  0  0  0  0  0  0  0
   35.2890   30.4090   37.6980 H   0  0  0  0  0  0  0  0  0  0  0  0
   37.4800   30.9720   37.7750 H   0  0  0  0  0  0  0  0  0  0  0  0
   38.0610   29.4500   37.0660 H   0  0  0  0  0  0  0  0  0  0  0  0
   38.8670   29.1050   39.1420 H   0  0  0  0  0  0  0  0  0  0  0  0
   36.9470   27.6890   43.4400 C   0  0  0  0  0  0  0  0  0  0  0  0
   36.5660   27.8990   42.1220 C   0  0  0  0  0  0  0  0  0  0  0  0
   37.4650   27.8880   41.0490 C   0  0  0  0  0  0  0  0  0  0  0  0
   38.7450   27.6570   41.3970 N   0  0  0  0  0  0  0  0  0  0  0  0
   39.1410   27.4540   42.6550 C   0  0  0  0  0  0  0  0  0  0  0  0
   38.2450   27.4690   43.6790 N   0  0  0  0  0  0  0  0  0  0  0  0
   36.2070   27.7110   44.2070 H   0  0  0  0  0  0  0  0  0  0  0  0
   35.5180   28.0770   41.9340 H   0  0  0  0  0  0  0  0  0  0  0  0
   40.1980   27.2820   42.7870 H   0  0  0  0  0  0  0  0  0  0  0  0
   37.6440   30.3620   40.1460 O   0  0  0  0  0  0  0  0  0  0  0  0
   38.2490   31.6060   40.0120 C   0  0  0  0  0  3  0  0  0  0  0  0
   37.5230   32.6940   40.1610 C   0  0  0  0  0  3  0  0  0  0  0  0
   38.1670   34.0280   40.0180 C   0  0  0  0  0  2  0  0  0  0  0  0
   37.4960   34.8330   40.3850 H   0  0  0  0  0  0  0  0  0  0  0  0
  1  7  1  6  0  0  0
  1 19  1  0  0  0  0
  2  1  1  0  0  0  0
  2  9  1  0  0  0  0
  2  8  1  0  0  0  0
  3  2  1  0  0  0  0
  4 13  1  0  0  0  0
  4  5  1  0  0  0  0
  4  3  1  0  0  0  0
  5  6  1  0  0  0  0
  6 16  1  6  0  0  0
  6  1  1  0  0  0  0
  6 26  1  0  0  0  0
 10  3  1  0  0  0  0
 11  3  1  0  0  0  0
 12  4  1  0  0  0  0
 14  5  1  0  0  0  0
 15  5  1  0  0  0  0
 17 22  1  0  0  0  0
 17 23  1  0  0  0  0
 18 17  2  0  0  0  0
 19 20  2  0  0  0  0
 19 18  1  0  0  0  0
 20 21  1  0  0  0  0
 21 25  1  0  0  0  0
 21 22  2  0  0  0  0
 24 18  1  0  0  0  0
 27 26  1  0  0  0  0
 27 28  2  0  0  0  0
 29 28  1  0  0  0  0
 29 30  1  0  0  0  0
M  END
>  <minimizedAffinity>
-4.14319134

$$$$

 OpenBabel03242510303D

 30 31  0  0  1  0  0  0  0  0999 V2000
   37.8590   29.8860   41.6530 C   0  0  1  0  0  0  0  0  0  0  0  0
   37.3280   28.7520   40.8520 C   0  0  0  0  0  0  0  0  0  0  0  0
   36.1330   28.2070   41.6030 C   0  0  0  0  0  0  0  0  0  0  0  0
   36.6150   27.5840   42.8600 C   0  0  0  0  0  0  0  0  0  0  0  0
   37.5160   28.4200   43.6800 C   0  0  0  0  0  0  0  0  0  0  0  0
   38.4160   29.3490   42.9750 C   0  0  1  0  0  0  0  0  0  0  0  0
   36.9880   30.5370   41.9630 H   0  0  0  0  0  0  0  0  0  0  0  0
   38.0960   27.9560   40.7380 H   0  0  0  0  0  0  0  0  0  0  0  0
   37.0090   29.1180   39.8490 H   0  0  0  0  0  0  0  0  0  0  0  0
   35.6730   27.4110   40.9640 H   0  0  0  0  0  0  0  0  0  0  0  0
   35.3990   29.0150   41.7630 H   0  0  0  0  0  0  0  0  0  0  0  0
   35.7300   27.3110   43.4810 H   0  0  0  0  0  0  0  0  0  0  0  0
   37.1010   26.6040   42.6200 H   0  0  0  0  0  0  0  0  0  0  0  0
   38.1400   27.7100   44.2990 H   0  0  0  0  0  0  0  0  0  0  0  0
   36.9130   28.9870   44.4330 H   0  0  0  0  0  0  0  0  0  0  0  0
   38.5580   30.2800   43.5940 H   0  0  0  0  0  0  0  0  0  0  0  0
   40.5390   30.9790   39.1730 C   0  0  0  0  0  0  0  0  0  0  0  0
   39.5290   30.2510   39.7900 C   0  0  0  0  0  0  0  0  0  0  0  0
   38.9120   30.6470   40.9820 C   0  0  0  0  0  0  0  0  0  0  0  0
   39.3780   31.8020   41.4940 N   0  0  0  0  0  0  0  0  0  0  0  0
   40.3480   32.5220   40.9250 C   0  0  0  0  0  0  0  0  0  0  0  0
   40.9300   32.1140   39.7650 N   0  0  0  0  0  0  0  0  0  0  0  0
   40.9630   30.6170   38.2660 H   0  0  0  0  0  0  0  0  0  0  0  0
   39.2180   29.3360   39.3100 H   0  0  0  0  0  0  0  0  0  0  0  0
   40.6210   33.4260   41.4460 H   0  0  0  0  0  0  0  0  0  0  0  0
   39.6680   28.8250   42.7370 O   0  0  0  0  0  0  0  0  0  0  0  0
   40.0700   27.6350   43.3290 C   0  0  0  0  0  3  0  0  0  0  0  0
   40.4150   26.6200   42.5640 C   0  0  0  0  0  3  0  0  0  0  0  0
   40.8470   25.3420   43.1940 C   0  0  0  0  0  2  0  0  0  0  0  0
   41.3130   24.6690   42.4450 H   0  0  0  0  0  0  0  0  0  0  0  0
  1  7  1  1  0  0  0
  1  6  1  0  0  0  0
  2  3  1  0  0  0  0
  2  1  1  0  0  0  0
  3 11  1  0  0  0  0
  3  4  1  0  0  0  0
  4 12  1  0  0  0  0
  4  5  1  0  0  0  0
  5 14  1  0  0  0  0
  5 15  1  0  0  0  0
  6 16  1  1  0  0  0
  6  5  1  0  0  0  0
  8  2  1  0  0  0  0
  9  2  1  0  0  0  0
 10  3  1  0  0  0  0
 13  4  1  0  0  0  0
 17 22  2  0  0  0  0
 17 18  1  0  0  0  0
 18 19  2  0  0  0  0
 19 20  1  0  0  0  0
 19  1  1  0  0  0  0
 21 25  1  0  0  0  0
 21 20  2  0  0  0  0
 22 21  1  0  0  0  0
 23 17  1  0  0  0  0
 24 18  1  0  0  0  0
 26  6  1  0  0  0  0
 26 27  1  0  0  0  0
 28 29  1  0  0  0  0
 28 27  2  0  0  0  0
 30 29  1  0  0  0  0
M  END
>  <minimizedAffinity>
-4.14001083

$$$$

 OpenBabel03242510303D

 30 31  0  0  1  0  0  0  0  0999 V2000
   36.8700   28.1280   40.7830 C   0  0  1  0  0  0  0  0  0  0  0  0
   37.5990   27.0360   40.0860 C   0  0  0  0  0  0  0  0  0  0  0  0
   36.9460   25.7380   40.5030 C   0  0  0  0  0  0  0  0  0  0  0  0
   37.2240   25.5140   41.9420 C   0  0  0  0  0  0  0  0  0  0  0  0
   36.9260   26.6550   42.8320 C   0  0  0  0  0  0  0  0  0  0  0  0
   37.1130   28.0120   42.2910 C   0  0  1  0  0  0  0  0  0  0  0  0
   35.7610   27.9420   40.6660 H   0  0  0  0  0  0  0  0  0  0  0  0
   38.6720   27.0300   40.3790 H   0  0  0  0  0  0  0  0  0  0  0  0
   37.5080   27.1690   38.9830 H   0  0  0  0  0  0  0  0  0  0  0  0
   37.4300   24.9180   39.9140 H   0  0  0  0  0  0  0  0  0  0  0  0
   35.8700   25.7730   40.2600 H   0  0  0  0  0  0  0  0  0  0  0  0
   36.6270   24.6370   42.2850 H   0  0  0  0  0  0  0  0  0  0  0  0
   38.2900   25.1910   42.0630 H   0  0  0  0  0  0  0  0  0  0  0  0
   37.5840   26.5330   43.7430 H   0  0  0  0  0  0  0  0  0  0  0  0
   35.8840   26.5530   43.2280 H   0  0  0  0  0  0  0  0  0  0  0  0
   36.3420   28.7040   42.7330 H   0  0  0  0  0  0  0  0  0  0  0  0
   36.9530   31.9070   40.3000 C   0  0  0  0  0  0  0  0  0  0  0  0
   36.5810   30.6400   40.7270 C   0  0  0  0  0  0  0  0  0  0  0  0
   37.2570   29.4720   40.3550 C   0  0  0  0  0  0  0  0  0  0  0  0
   38.3090   29.6730   39.5390 N   0  0  0  0  0  0  0  0  0  0  0  0
   38.6890   30.8790   39.1100 C   0  0  0  0  0  0  0  0  0  0  0  0
   38.0140   31.9980   39.4890 N   0  0  0  0  0  0  0  0  0  0  0  0
   36.3920   32.7530   40.6240 H   0  0  0  0  0  0  0  0  0  0  0  0
   35.7240   30.5720   41.3800 H   0  0  0  0  0  0  0  0  0  0  0  0
   39.5500   30.8900   38.4600 H   0  0  0  0  0  0  0  0  0  0  0  0
   38.3510   28.5480   42.5730 O   0  0  0  0  0  0  0  0  0  0  0  0
   39.2740   27.8520   43.3430 C   0  0  0  0  0  3  0  0  0  0  0  0
   40.4780   27.6300   42.8590 C   0  0  0  0  0  3  0  0  0  0  0  0
   41.4710   26.8850   43.6800 C   0  0  0  0  0  2  0  0  0  0  0  0
   42.4890   26.9690   43.2440 H   0  0  0  0  0  0  0  0  0  0  0  0
  1  7  1  6  0  0  0
  1  6  1  0  0  0  0
  2  8  1  0  0  0  0
  2  3  1  0  0  0  0
  2  1  1  0  0  0  0
  3  4  1  0  0  0  0
  4 13  1  0  0  0  0
  4 12  1  0  0  0  0
  4  5  1  0  0  0  0
  5 15  1  0  0  0  0
  5 14  1  0  0  0  0
  6 26  1  0  0  0  0
  6 16  1  1  0  0  0
  6  5  1  0  0  0  0
  9  2  1  0  0  0  0
 10  3  1  0  0  0  0
 11  3  1  0  0  0  0
 17 23  1  0  0  0  0
 17 18  1  0  0  0  0
 18 24  1  0  0  0  0
 19 18  2  0  0  0  0
 19  1  1  0  0  0  0
 20 19  1  0  0  0  0
 21 22  1  0  0  0  0
 21 20  2  0  0  0  0
 22 17  2  0  0  0  0
 25 21  1  0  0  0  0
 26 27  1  0  0  0  0
 28 27  2  0  0  0  0
 28 29  1  0  0  0  0
 30 29  1  0  0  0  0
M  END
>  <minimizedAffinity>
-4.13230705

$$$$
