
 OpenBabel03252504273D

 17 17  0  0  0  0  0  0  0  0999 V2000
   38.9240   30.9590   41.5690 C   0  0  0  0  0  0  0  0  0  0  0  0
   37.8990   30.0750   41.8980 C   0  0  0  0  0  0  0  0  0  0  0  0
   36.6550   30.3240   41.3520 C   0  0  0  0  0  0  0  0  0  0  0  0
   36.5180   31.3850   40.5550 N   0  0  0  0  0  0  0  0  0  0  0  0
   37.5090   32.2310   40.2440 C   0  0  0  0  0  0  0  0  0  0  0  0
   38.7730   32.0390   40.7540 N   0  0  0  0  0  0  0  0  0  0  0  0
   39.9460   30.8570   41.9430 H   0  0  0  0  0  0  0  0  0  0  0  0
   35.8800   29.6220   41.6240 H   0  0  0  0  0  0  0  0  0  0  0  0
   37.3480   33.0660   39.6020 H   0  0  0  0  0  0  0  0  0  0  0  0
   38.2820   28.9810   42.7910 C   0  0  0  0  0  0  0  0  0  0  0  0
   39.0290   29.3510   43.5490 H   0  0  0  0  0  0  0  0  0  0  0  0
   38.8110   28.1790   42.2370 H   0  0  0  0  0  0  0  0  0  0  0  0
   37.2170   28.4150   43.4760 O   0  0  0  0  0  0  0  0  0  0  0  0
   36.6590   27.1830   43.2380 C   0  0  0  0  0  3  0  0  0  0  0  0
   37.3220   26.2690   42.5090 C   0  0  0  0  0  3  0  0  0  0  0  0
   36.9170   24.8830   42.1260 C   0  0  0  0  0  2  0  0  0  0  0  0
   36.7280   24.9000   41.0360 H   0  0  0  0  0  0  0  0  0  0  0  0
  1  2  1  0  0  0  0
  1  7  1  0  0  0  0
  2 10  1  0  0  0  0
  3  8  1  0  0  0  0
  3  2  2  0  0  0  0
  4  3  1  0  0  0  0
  5  4  2  0  0  0  0
  5  6  1  0  0  0  0
  6  1  2  0  0  0  0
  9  5  1  0  0  0  0
 10 13  1  0  0  0  0
 10 11  1  0  0  0  0
 12 10  1  0  0  0  0
 14 13  1  0  0  0  0
 15 14  2  0  0  0  0
 16 15  1  0  0  0  0
 17 16  1  0  0  0  0
M  END
>  <minimizedAffinity>
-3.42298031

$$$$

 OpenBabel03252504273D

 17 17  0  0  0  0  0  0  0  0999 V2000
   36.4620   30.1840   38.7150 C   0  0  0  0  0  0  0  0  0  0  0  0
   36.1610   30.0630   40.0700 C   0  0  0  0  0  0  0  0  0  0  0  0
   36.4950   31.1270   40.8850 C   0  0  0  0  0  0  0  0  0  0  0  0
   37.0790   32.1890   40.3270 N   0  0  0  0  0  0  0  0  0  0  0  0
   37.3650   32.2970   39.0230 C   0  0  0  0  0  0  0  0  0  0  0  0
   37.0580   31.2730   38.1570 N   0  0  0  0  0  0  0  0  0  0  0  0
   36.2430   29.4050   37.9810 H   0  0  0  0  0  0  0  0  0  0  0  0
   36.2490   31.0050   41.9300 H   0  0  0  0  0  0  0  0  0  0  0  0
   37.8330   33.1680   38.6260 H   0  0  0  0  0  0  0  0  0  0  0  0
   35.5200   28.8060   40.4560 C   0  0  0  0  0  0  0  0  0  0  0  0
   35.7480   28.0100   39.6910 H   0  0  0  0  0  0  0  0  0  0  0  0
   34.4160   28.9010   40.4490 H   0  0  0  0  0  0  0  0  0  0  0  0
   35.9130   28.3320   41.6990 O   0  0  0  0  0  0  0  0  0  0  0  0
   37.0450   27.6030   41.9710 C   0  0  0  0  0  3  0  0  0  0  0  0
   37.6870   27.7630   43.1410 C   0  0  0  0  0  3  0  0  0  0  0  0
   38.9200   27.0890   43.6490 C   0  0  0  0  0  2  0  0  0  0  0  0
   39.7150   27.8580   43.6670 H   0  0  0  0  0  0  0  0  0  0  0  0
  1  2  1  0  0  0  0
  2 10  1  0  0  0  0
  2  3  2  0  0  0  0
  3  8  1  0  0  0  0
  4  3  1  0  0  0  0
  5  4  2  0  0  0  0
  6  1  2  0  0  0  0
  6  5  1  0  0  0  0
  7  1  1  0  0  0  0
  9  5  1  0  0  0  0
 10 13  1  0  0  0  0
 11 10  1  0  0  0  0
 12 10  1  0  0  0  0
 13 14  1  0  0  0  0
 14 15  2  0  0  0  0
 15 16  1  0  0  0  0
 16 17  1  0  0  0  0
M  END
>  <minimizedAffinity>
-3.37214446

$$$$

 OpenBabel03252504273D

 17 17  0  0  0  0  0  0  0  0999 V2000
   36.5740   27.9740   42.0860 C   0  0  0  0  0  0  0  0  0  0  0  0
   37.0230   29.2750   41.8710 C   0  0  0  0  0  0  0  0  0  0  0  0
   38.2230   29.6290   42.4570 C   0  0  0  0  0  0  0  0  0  0  0  0
   38.8650   28.7130   43.1830 N   0  0  0  0  0  0  0  0  0  0  0  0
   38.4240   27.4640   43.3840 C   0  0  0  0  0  0  0  0  0  0  0  0
   37.2370   27.0460   42.8280 N   0  0  0  0  0  0  0  0  0  0  0  0
   35.6390   27.5880   41.6700 H   0  0  0  0  0  0  0  0  0  0  0  0
   38.5470   30.6440   42.2740 H   0  0  0  0  0  0  0  0  0  0  0  0
   38.9750   26.7670   43.9740 H   0  0  0  0  0  0  0  0  0  0  0  0
   36.1530   30.1070   41.0400 C   0  0  0  0  0  0  0  0  0  0  0  0
   35.1210   30.1510   41.4920 H   0  0  0  0  0  0  0  0  0  0  0  0
   36.0060   29.6560   40.0380 H   0  0  0  0  0  0  0  0  0  0  0  0
   36.6060   31.4080   40.8760 O   0  0  0  0  0  0  0  0  0  0  0  0
   37.0000   31.9900   39.6960 C   0  0  0  0  0  3  0  0  0  0  0  0
   37.3100   31.2240   38.6350 C   0  0  0  0  0  3  0  0  0  0  0  0
   37.7580   31.6300   37.2680 C   0  0  0  0  0  2  0  0  0  0  0  0
   38.8170   31.3250   37.1810 H   0  0  0  0  0  0  0  0  0  0  0  0
  1  6  1  0  0  0  0
  2  1  2  0  0  0  0
  2  3  1  0  0  0  0
  3  4  2  0  0  0  0
  4  5  1  0  0  0  0
  5  9  1  0  0  0  0
  6  5  2  0  0  0  0
  7  1  1  0  0  0  0
  8  3  1  0  0  0  0
 10 11  1  0  0  0  0
 10  2  1  0  0  0  0
 12 10  1  0  0  0  0
 13 10  1  0  0  0  0
 14 13  1  0  0  0  0
 15 14  2  0  0  0  0
 16 15  1  0  0  0  0
 17 16  1  0  0  0  0
M  END
>  <minimizedAffinity>
-3.36699772

$$$$

 OpenBabel03252504273D

 17 17  0  0  0  0  0  0  0  0999 V2000
   37.4190   30.3970   41.4210 C   0  0  0  0  0  0  0  0  0  0  0  0
   38.5650   30.1270   42.1640 C   0  0  0  0  0  0  0  0  0  0  0  0
   39.5810   31.0610   42.1140 C   0  0  0  0  0  0  0  0  0  0  0  0
   39.4000   32.1490   41.3640 N   0  0  0  0  0  0  0  0  0  0  0  0
   38.2940   32.4010   40.6520 C   0  0  0  0  0  0  0  0  0  0  0  0
   37.2450   31.5110   40.6580 N   0  0  0  0  0  0  0  0  0  0  0  0
   36.5550   29.7280   41.3880 H   0  0  0  0  0  0  0  0  0  0  0  0
   40.4580   30.8250   42.7010 H   0  0  0  0  0  0  0  0  0  0  0  0
   38.1980   33.2870   40.0670 H   0  0  0  0  0  0  0  0  0  0  0  0
   38.5410   28.8700   42.9130 C   0  0  0  0  0  0  0  0  0  0  0  0
   39.2060   28.9530   43.8190 H   0  0  0  0  0  0  0  0  0  0  0  0
   38.9730   28.0410   42.3170 H   0  0  0  0  0  0  0  0  0  0  0  0
   37.2760   28.4930   43.3410 O   0  0  0  0  0  0  0  0  0  0  0  0
   36.7120   27.2470   43.2160 C   0  0  0  0  0  3  0  0  0  0  0  0
   37.3000   26.3130   42.4490 C   0  0  0  0  0  3  0  0  0  0  0  0
   36.8740   24.9080   42.1680 C   0  0  0  0  0  2  0  0  0  0  0  0
   36.5600   24.8810   41.1070 H   0  0  0  0  0  0  0  0  0  0  0  0
  1  2  1  0  0  0  0
  2 10  1  0  0  0  0
  3  2  2  0  0  0  0
  3  8  1  0  0  0  0
  4  3  1  0  0  0  0
  5  6  1  0  0  0  0
  5  4  2  0  0  0  0
  6  1  2  0  0  0  0
  7  1  1  0  0  0  0
  9  5  1  0  0  0  0
 10 13  1  0  0  0  0
 10 11  1  0  0  0  0
 12 10  1  0  0  0  0
 14 13  1  0  0  0  0
 15 14  2  0  0  0  0
 16 15  1  0  0  0  0
 17 16  1  0  0  0  0
M  END
>  <minimizedAffinity>
-3.36553788

$$$$

 OpenBabel03252504273D

 17 17  0  0  0  0  0  0  0  0999 V2000
   37.6140   26.1040   42.5750 C   0  0  0  0  0  0  0  0  0  0  0  0
   38.1990   27.1650   43.2630 C   0  0  0  0  0  0  0  0  0  0  0  0
   39.5050   26.9990   43.6790 C   0  0  0  0  0  0  0  0  0  0  0  0
   40.1150   25.8460   43.4000 N   0  0  0  0  0  0  0  0  0  0  0  0
   39.5450   24.8310   42.7380 C   0  0  0  0  0  0  0  0  0  0  0  0
   38.2460   24.9310   42.2950 N   0  0  0  0  0  0  0  0  0  0  0  0
   36.5880   26.1260   42.2000 H   0  0  0  0  0  0  0  0  0  0  0  0
   39.9320   27.8390   44.2100 H   0  0  0  0  0  0  0  0  0  0  0  0
   40.0750   23.9280   42.5400 H   0  0  0  0  0  0  0  0  0  0  0  0
   37.3390   28.3330   43.4540 C   0  0  0  0  0  0  0  0  0  0  0  0
   37.4150   28.6920   44.5200 H   0  0  0  0  0  0  0  0  0  0  0  0
   36.2710   28.0700   43.3180 H   0  0  0  0  0  0  0  0  0  0  0  0
   37.6420   29.3980   42.6190 O   0  0  0  0  0  0  0  0  0  0  0  0
   36.9260   29.7960   41.5160 C   0  0  0  0  0  3  0  0  0  0  0  0
   35.9020   29.0500   41.0690 C   0  0  0  0  0  3  0  0  0  0  0  0
   34.9940   29.2810   39.9050 C   0  0  0  0  0  2  0  0  0  0  0  0
   35.2460   28.5110   39.1510 H   0  0  0  0  0  0  0  0  0  0  0  0
  1  2  1  0  0  0  0
  2 10  1  0  0  0  0
  2  3  2  0  0  0  0
  3  8  1  0  0  0  0
  4  3  1  0  0  0  0
  5  4  2  0  0  0  0
  6  1  2  0  0  0  0
  6  5  1  0  0  0  0
  7  1  1  0  0  0  0
  9  5  1  0  0  0  0
 10 11  1  0  0  0  0
 12 10  1  0  0  0  0
 13 10  1  0  0  0  0
 14 13  1  0  0  0  0
 15 14  2  0  0  0  0
 16 15  1  0  0  0  0
 17 16  1  0  0  0  0
M  END
>  <minimizedAffinity>
-3.35288143

$$$$

 OpenBabel03252504273D

 17 17  0  0  0  0  0  0  0  0999 V2000
   36.9650   31.5330   40.2660 C   0  0  0  0  0  0  0  0  0  0  0  0
   37.8290   30.8040   41.0780 C   0  0  0  0  0  0  0  0  0  0  0  0
   39.0140   31.4140   41.4410 C   0  0  0  0  0  0  0  0  0  0  0  0
   39.2520   32.6470   40.9930 N   0  0  0  0  0  0  0  0  0  0  0  0
   38.4150   33.3410   40.2110 C   0  0  0  0  0  0  0  0  0  0  0  0
   37.2170   32.7930   39.8140 N   0  0  0  0  0  0  0  0  0  0  0  0
   36.0020   31.1490   39.9190 H   0  0  0  0  0  0  0  0  0  0  0  0
   39.6650   30.8240   42.0720 H   0  0  0  0  0  0  0  0  0  0  0  0
   38.6500   34.3260   39.8780 H   0  0  0  0  0  0  0  0  0  0  0  0
   37.3600   29.4680   41.4480 C   0  0  0  0  0  0  0  0  0  0  0  0
   38.0830   28.6910   41.0690 H   0  0  0  0  0  0  0  0  0  0  0  0
   36.3990   29.2300   40.9500 H   0  0  0  0  0  0  0  0  0  0  0  0
   37.2070   29.2830   42.8140 O   0  0  0  0  0  0  0  0  0  0  0  0
   37.9070   28.4000   43.5990 C   0  0  0  0  0  3  0  0  0  0  0  0
   38.7240   27.4950   43.0340 C   0  0  0  0  0  3  0  0  0  0  0  0
   39.5750   26.4480   43.6790 C   0  0  0  0  0  2  0  0  0  0  0  0
   39.1190   25.4730   43.4260 H   0  0  0  0  0  0  0  0  0  0  0  0
  1  2  1  0  0  0  0
  2  3  2  0  0  0  0
  2 10  1  0  0  0  0
  3  8  1  0  0  0  0
  4  3  1  0  0  0  0
  5  4  2  0  0  0  0
  6  5  1  0  0  0  0
  6  1  2  0  0  0  0
  7  1  1  0  0  0  0
  9  5  1  0  0  0  0
 10 13  1  0  0  0  0
 11 10  1  0  0  0  0
 12 10  1  0  0  0  0
 13 14  1  0  0  0  0
 15 14  2  0  0  0  0
 15 16  1  0  0  0  0
 17 16  1  0  0  0  0
M  END
>  <minimizedAffinity>
-3.20709372

$$$$

 OpenBabel03252504273D

 17 17  0  0  0  0  0  0  0  0999 V2000
   36.2040   28.3930   41.7290 C   0  0  0  0  0  0  0  0  0  0  0  0
   37.2790   29.0570   42.3150 C   0  0  0  0  0  0  0  0  0  0  0  0
   37.6320   30.2790   41.7750 C   0  0  0  0  0  0  0  0  0  0  0  0
   36.9300   30.7360   40.7370 N   0  0  0  0  0  0  0  0  0  0  0  0
   35.8980   30.0900   40.1790 C   0  0  0  0  0  0  0  0  0  0  0  0
   35.4940   28.8700   40.6700 N   0  0  0  0  0  0  0  0  0  0  0  0
   35.8390   27.4230   42.0740 H   0  0  0  0  0  0  0  0  0  0  0  0
   38.4690   30.7710   42.2500 H   0  0  0  0  0  0  0  0  0  0  0  0
   35.3670   30.4980   39.3500 H   0  0  0  0  0  0  0  0  0  0  0  0
   37.9000   28.3640   43.4440 C   0  0  0  0  0  0  0  0  0  0  0  0
   37.4250   27.3510   43.5780 H   0  0  0  0  0  0  0  0  0  0  0  0
   37.7070   28.8980   44.3960 H   0  0  0  0  0  0  0  0  0  0  0  0
   39.2690   28.1830   43.3090 O   0  0  0  0  0  0  0  0  0  0  0  0
   39.9400   26.9860   43.3670 C   0  0  0  0  0  3  0  0  0  0  0  0
   39.3000   25.8370   43.0920 C   0  0  0  0  0  3  0  0  0  0  0  0
   39.8190   24.4360   43.0910 C   0  0  0  0  0  2  0  0  0  0  0  0
   39.3460   23.9240   43.9500 H   0  0  0  0  0  0  0  0  0  0  0  0
  1  7  1  0  0  0  0
  1  2  1  0  0  0  0
  2 10  1  0  0  0  0
  3  8  1  0  0  0  0
  3  2  2  0  0  0  0
  4  3  1  0  0  0  0
  5  6  1  0  0  0  0
  5  4  2  0  0  0  0
  6  1  2  0  0  0  0
  9  5  1  0  0  0  0
 10 11  1  0  0  0  0
 10 12  1  0  0  0  0
 13 14  1  0  0  0  0
 13 10  1  0  0  0  0
 15 14  2  0  0  0  0
 16 15  1  0  0  0  0
 16 17  1  0  0  0  0
M  END
>  <minimizedAffinity>
-3.15242386

$$$$

 OpenBabel03252504273D

 17 17  0  0  0  0  0  0  0  0999 V2000
   36.7290   27.5980   42.0470 C   0  0  0  0  0  0  0  0  0  0  0  0
   36.5450   27.5780   40.6670 C   0  0  0  0  0  0  0  0  0  0  0  0
   36.8560   26.4040   40.0080 C   0  0  0  0  0  0  0  0  0  0  0  0
   37.3090   25.3780   40.7300 N   0  0  0  0  0  0  0  0  0  0  0  0
   37.4830   25.4060   42.0580 C   0  0  0  0  0  0  0  0  0  0  0  0
   37.1910   26.5440   42.7740 N   0  0  0  0  0  0  0  0  0  0  0  0
   36.5140   28.4720   42.6670 H   0  0  0  0  0  0  0  0  0  0  0  0
   36.7040   26.4180   38.9380 H   0  0  0  0  0  0  0  0  0  0  0  0
   37.8480   24.5580   42.5900 H   0  0  0  0  0  0  0  0  0  0  0  0
   36.0370   28.8220   40.0870 C   0  0  0  0  0  0  0  0  0  0  0  0
   35.0470   28.6320   39.5830 H   0  0  0  0  0  0  0  0  0  0  0  0
   36.7030   29.1880   39.2800 H   0  0  0  0  0  0  0  0  0  0  0  0
   35.8610   29.8430   41.0100 O   0  0  0  0  0  0  0  0  0  0  0  0
   36.3590   31.1190   40.9170 C   0  0  0  0  0  3  0  0  0  0  0  0
   36.8000   31.5880   39.7370 C   0  0  0  0  0  3  0  0  0  0  0  0
   37.3760   32.9260   39.4010 C   0  0  0  0  0  2  0  0  0  0  0  0
   38.4470   32.7610   39.1830 H   0  0  0  0  0  0  0  0  0  0  0  0
  1  7  1  0  0  0  0
  1  6  1  0  0  0  0
  2  1  2  0  0  0  0
  3  2  1  0  0  0  0
  3  4  2  0  0  0  0
  4  5  1  0  0  0  0
  5  9  1  0  0  0  0
  5  6  2  0  0  0  0
  8  3  1  0  0  0  0
 10  2  1  0  0  0  0
 10 13  1  0  0  0  0
 11 10  1  0  0  0  0
 12 10  1  0  0  0  0
 14 13  1  0  0  0  0
 15 14  2  0  0  0  0
 16 15  1  0  0  0  0
 17 16  1  0  0  0  0
M  END
>  <minimizedAffinity>
-3.12671328

$$$$

 OpenBabel03252504273D

 17 17  0  0  0  0  0  0  0  0999 V2000
   36.0360   29.6530   38.6580 C   0  0  0  0  0  0  0  0  0  0  0  0
   36.5990   30.7920   39.2280 C   0  0  0  0  0  0  0  0  0  0  0  0
   37.3550   31.5990   38.4000 C   0  0  0  0  0  0  0  0  0  0  0  0
   37.4970   31.2380   37.1240 N   0  0  0  0  0  0  0  0  0  0  0  0
   36.9520   30.1390   36.5850 C   0  0  0  0  0  0  0  0  0  0  0  0
   36.1870   29.2930   37.3540 N   0  0  0  0  0  0  0  0  0  0  0  0
   35.4200   28.9450   39.2190 H   0  0  0  0  0  0  0  0  0  0  0  0
   37.7790   32.4770   38.8690 H   0  0  0  0  0  0  0  0  0  0  0  0
   37.0950   29.8930   35.5580 H   0  0  0  0  0  0  0  0  0  0  0  0
   36.3090   30.9880   40.6490 C   0  0  0  0  0  0  0  0  0  0  0  0
   35.3090   31.4950   40.7680 H   0  0  0  0  0  0  0  0  0  0  0  0
   37.0380   31.6820   41.1130 H   0  0  0  0  0  0  0  0  0  0  0  0
   36.2850   29.8130   41.3860 O   0  0  0  0  0  0  0  0  0  0  0  0
   37.3180   29.2990   42.1310 C   0  0  0  0  0  3  0  0  0  0  0  0
   37.1550   28.1530   42.8130 C   0  0  0  0  0  3  0  0  0  0  0  0
   38.1240   27.4160   43.6800 C   0  0  0  0  0  2  0  0  0  0  0  0
   37.7570   27.5160   44.7180 H   0  0  0  0  0  0  0  0  0  0  0  0
  1  7  1  0  0  0  0
  1  2  1  0  0  0  0
  2 10  1  0  0  0  0
  3  8  1  0  0  0  0
  3  2  2  0  0  0  0
  4  3  1  0  0  0  0
  5  4  2  0  0  0  0
  5  6  1  0  0  0  0
  6  1  2  0  0  0  0
  9  5  1  0  0  0  0
 10 11  1  0  0  0  0
 10 12  1  0  0  0  0
 10 13  1  0  0  0  0
 13 14  1  0  0  0  0
 14 15  2  0  0  0  0
 15 16  1  0  0  0  0
 16 17  1  0  0  0  0
M  END
>  <minimizedAffinity>
-3.12286234

$$$$
