
 OpenBabel03252505093D

 39 41  0  0  1  0  0  0  0  0999 V2000
   44.5620   35.5770   44.6010 C   0  0  0  0  0  0  0  0  0  0  0  0
   45.2360   35.6040   43.3620 C   0  0  0  0  0  0  0  0  0  0  0  0
   46.3400   34.7080   43.1850 C   0  0  0  0  0  0  0  0  0  0  0  0
   46.6810   33.8880   44.2080 N   0  0  0  0  0  0  0  0  0  0  0  0
   46.0170   33.8920   45.3700 C   0  0  0  0  0  0  0  0  0  0  0  0
   44.9500   34.7390   45.5760 N   0  0  0  0  0  0  0  0  0  0  0  0
   43.7280   36.2310   44.7790 H   0  0  0  0  0  0  0  0  0  0  0  0
   44.9240   36.2800   42.5750 H   0  0  0  0  0  0  0  0  0  0  0  0
   46.4340   32.9760   46.4670 C   0  0  2  0  0  0  0  0  0  0  0  0
   46.9500   31.7380   45.7600 C   0  0  0  0  0  0  0  0  0  0  0  0
   46.0720   30.5640   45.7760 C   0  0  0  0  0  0  0  0  0  0  0  0
   45.7940   30.3050   47.2590 C   0  0  0  0  0  0  0  0  0  0  0  0
   44.9890   31.3720   47.8760 C   0  0  0  0  0  0  0  0  0  0  0  0
   45.3840   32.7340   47.4110 C   0  0  0  0  0  0  0  0  0  0  0  0
   47.2990   33.4740   46.9530 H   0  0  0  0  0  0  0  0  0  0  0  0
   47.2410   31.9330   44.7060 H   0  0  0  0  0  0  0  0  0  0  0  0
   47.9170   31.4350   46.2440 H   0  0  0  0  0  0  0  0  0  0  0  0
   46.6370   29.6950   45.4310 H   0  0  0  0  0  0  0  0  0  0  0  0
   45.1460   30.7140   45.2110 H   0  0  0  0  0  0  0  0  0  0  0  0
   45.2010   29.3980   47.3400 H   0  0  0  0  0  0  0  0  0  0  0  0
   46.7760   30.2610   47.7590 H   0  0  0  0  0  0  0  0  0  0  0  0
   44.1940   31.3530   48.5770 H   0  0  0  0  0  0  0  0  0  0  0  0
   44.6860   33.8750   47.9220 N   0  0  0  0  0  0  0  0  0  0  0  0
   43.6520   33.8380   47.7160 H   0  0  0  0  0  0  0  0  0  0  0  0
   45.3000   34.5590   48.4130 H   0  0  0  0  0  0  0  0  0  0  0  0
   47.0480   34.7100   41.9190 C   0  0  0  0  0  0  0  0  0  0  0  0
   48.1780   35.4350   41.8020 C   0  0  0  0  0  0  0  0  0  0  0  0
   48.8230   35.4030   40.5560 C   0  0  0  0  0  0  0  0  0  0  0  0
   48.2400   34.6380   39.5830 C   0  0  0  0  0  0  0  0  0  0  0  0
   47.1050   33.9080   39.6990 C   0  0  0  0  0  0  0  0  0  0  0  0
   46.5120   33.9660   40.9170 N   0  0  0  0  0  0  0  0  0  0  0  0
   48.5680   36.0170   42.6370 H   0  0  0  0  0  0  0  0  0  0  0  0
   49.7280   35.9710   40.4300 H   0  0  0  0  0  0  0  0  0  0  0  0
   48.7780   34.6450   38.6360 H   0  0  0  0  0  0  0  0  0  0  0  0
   46.5720   33.1530   38.6570 O   0  0  0  0  0  0  0  0  0  0  0  0
   46.8830   33.3480   37.3430 C   0  0  0  0  0  3  0  0  0  0  0  0
   47.6880   32.5720   36.6540 C   0  0  0  0  0  3  0  0  0  0  0  0
   48.2150   32.5020   35.2780 C   0  0  0  0  0  2  0  0  0  0  0  0
   48.0160   31.5090   34.7980 H   0  0  0  0  0  0  0  0  0  0  0  0
  1  7  1  0  0  0  0
  1  6  1  0  0  0  0
  2  1  2  0  0  0  0
  3  2  1  0  0  0  0
  3  4  2  0  0  0  0
  4  5  1  0  0  0  0
  5  6  2  0  0  0  0
  5  9  1  0  0  0  0
  8  2  1  0  0  0  0
  9 15  1  1  0  0  0
  9 14  1  0  0  0  0
 10 11  1  0  0  0  0
 10 17  1  0  0  0  0
 10  9  1  0  0  0  0
 11 12  1  0  0  0  0
 12 20  1  0  0  0  0
 12 21  1  0  0  0  0
 12 13  1  0  0  0  0
 13 22  1  0  0  0  0
 14 13  2  0  0  0  0
 14 23  1  0  0  0  0
 16 10  1  0  0  0  0
 18 11  1  0  0  0  0
 19 11  1  0  0  0  0
 23 25  1  0  0  0  0
 24 23  1  0  0  0  0
 26  3  1  0  0  0  0
 27 26  1  0  0  0  0
 27 32  1  0  0  0  0
 28 27  2  0  0  0  0
 29 30  2  0  0  0  0
 29 28  1  0  0  0  0
 30 31  1  0  0  0  0
 31 26  2  0  0  0  0
 33 28  1  0  0  0  0
 34 29  1  0  0  0  0
 35 30  1  0  0  0  0
 36 35  1  0  0  0  0
 37 36  2  0  0  0  0
 38 37  1  0  0  0  0
 39 38  1  0  0  0  0
M  END
>  <minimizedAffinity>
-6.88719893

>  <minimizedRMSD>
0.411308527

$$$$
