
 OpenBabel03252505103D

 39 41  0  0  1  0  0  0  0  0999 V2000
   44.5600   35.5610   44.6110 C   0  0  0  0  0  0  0  0  0  0  0  0
   45.2430   35.6000   43.3780 C   0  0  0  0  0  0  0  0  0  0  0  0
   46.3560   34.7140   43.2050 C   0  0  0  0  0  0  0  0  0  0  0  0
   46.6950   33.8910   44.2270 N   0  0  0  0  0  0  0  0  0  0  0  0
   46.0200   33.8830   45.3830 C   0  0  0  0  0  0  0  0  0  0  0  0
   44.9460   34.7210   45.5850 N   0  0  0  0  0  0  0  0  0  0  0  0
   43.7190   36.2080   44.7850 H   0  0  0  0  0  0  0  0  0  0  0  0
   44.9330   36.2790   42.5920 H   0  0  0  0  0  0  0  0  0  0  0  0
   46.4350   32.9640   46.4780 C   0  0  2  0  0  0  0  0  0  0  0  0
   46.9470   31.7260   45.7690 C   0  0  0  0  0  0  0  0  0  0  0  0
   46.0650   30.5540   45.7840 C   0  0  0  0  0  0  0  0  0  0  0  0
   45.7870   30.2930   47.2660 C   0  0  0  0  0  0  0  0  0  0  0  0
   44.9850   31.3620   47.8850 C   0  0  0  0  0  0  0  0  0  0  0  0
   45.3840   32.7240   47.4220 C   0  0  0  0  0  0  0  0  0  0  0  0
   47.3020   33.4590   46.9650 H   0  0  0  0  0  0  0  0  0  0  0  0
   47.2380   31.9220   44.7150 H   0  0  0  0  0  0  0  0  0  0  0  0
   47.9130   31.4190   46.2520 H   0  0  0  0  0  0  0  0  0  0  0  0
   46.6270   29.6840   45.4370 H   0  0  0  0  0  0  0  0  0  0  0  0
   45.1390   30.7080   45.2190 H   0  0  0  0  0  0  0  0  0  0  0  0
   45.1910   29.3880   47.3460 H   0  0  0  0  0  0  0  0  0  0  0  0
   46.7690   30.2450   47.7660 H   0  0  0  0  0  0  0  0  0  0  0  0
   44.1900   31.3440   48.5860 H   0  0  0  0  0  0  0  0  0  0  0  0
   44.6900   33.8660   47.9350 N   0  0  0  0  0  0  0  0  0  0  0  0
   43.6560   33.8320   47.7300 H   0  0  0  0  0  0  0  0  0  0  0  0
   45.3060   34.5470   48.4270 H   0  0  0  0  0  0  0  0  0  0  0  0
   47.0750   34.7280   41.9450 C   0  0  0  0  0  0  0  0  0  0  0  0
   48.1950   35.4710   41.8400 C   0  0  0  0  0  0  0  0  0  0  0  0
   48.8520   35.4500   40.5990 C   0  0  0  0  0  0  0  0  0  0  0  0
   48.2880   34.6790   39.6210 C   0  0  0  0  0  0  0  0  0  0  0  0
   47.1630   33.9320   39.7250 C   0  0  0  0  0  0  0  0  0  0  0  0
   46.5580   33.9790   40.9380 N   0  0  0  0  0  0  0  0  0  0  0  0
   48.5690   36.0560   42.6790 H   0  0  0  0  0  0  0  0  0  0  0  0
   49.7500   36.0310   40.4820 H   0  0  0  0  0  0  0  0  0  0  0  0
   48.8340   34.6950   38.6780 H   0  0  0  0  0  0  0  0  0  0  0  0
   46.6500   33.1710   38.6770 O   0  0  0  0  0  0  0  0  0  0  0  0
   47.4250   32.5390   37.7490 C   0  0  0  0  0  3  0  0  0  0  0  0
   47.6440   32.9960   36.5380 C   0  0  0  0  0  3  0  0  0  0  0  0
   48.3960   32.5830   35.3390 C   0  0  0  0  0  2  0  0  0  0  0  0
   49.1080   33.3740   34.9900 H   0  0  0  0  0  0  0  0  0  0  0  0
  1  7  1  0  0  0  0
  1  6  1  0  0  0  0
  2  1  2  0  0  0  0
  3  2  1  0  0  0  0
  3  4  2  0  0  0  0
  4  5  1  0  0  0  0
  5  6  2  0  0  0  0
  5  9  1  0  0  0  0
  8  2  1  0  0  0  0
  9 15  1  1  0  0  0
  9 14  1  0  0  0  0
 10 11  1  0  0  0  0
 10 17  1  0  0  0  0
 10  9  1  0  0  0  0
 11 12  1  0  0  0  0
 12 20  1  0  0  0  0
 12 21  1  0  0  0  0
 12 13  1  0  0  0  0
 13 22  1  0  0  0  0
 14 13  2  0  0  0  0
 14 23  1  0  0  0  0
 16 10  1  0  0  0  0
 18 11  1  0  0  0  0
 19 11  1  0  0  0  0
 23 25  1  0  0  0  0
 24 23  1  0  0  0  0
 26  3  1  0  0  0  0
 27 26  1  0  0  0  0
 27 32  1  0  0  0  0
 28 27  2  0  0  0  0
 29 30  2  0  0  0  0
 29 28  1  0  0  0  0
 30 31  1  0  0  0  0
 31 26  2  0  0  0  0
 33 28  1  0  0  0  0
 34 29  1  0  0  0  0
 35 30  1  0  0  0  0
 36 35  1  0  0  0  0
 37 36  2  0  0  0  0
 38 37  1  0  0  0  0
 39 38  1  0  0  0  0
M  END
>  <minimizedAffinity>
-6.85071754

>  <minimizedRMSD>
0.497159272

$$$$
