
 OpenBabel03252505113D

 39 41  0  0  1  0  0  0  0  0999 V2000
   44.5590   35.5710   44.5970 C   0  0  0  0  0  0  0  0  0  0  0  0
   45.2370   35.6020   43.3600 C   0  0  0  0  0  0  0  0  0  0  0  0
   46.3450   34.7110   43.1860 C   0  0  0  0  0  0  0  0  0  0  0  0
   46.6860   33.8910   44.2090 N   0  0  0  0  0  0  0  0  0  0  0  0
   46.0170   33.8910   45.3680 C   0  0  0  0  0  0  0  0  0  0  0  0
   44.9470   34.7330   45.5720 N   0  0  0  0  0  0  0  0  0  0  0  0
   43.7220   36.2220   44.7730 H   0  0  0  0  0  0  0  0  0  0  0  0
   44.9250   36.2780   42.5730 H   0  0  0  0  0  0  0  0  0  0  0  0
   46.4340   32.9740   46.4660 C   0  0  2  0  0  0  0  0  0  0  0  0
   46.9480   31.7360   45.7590 C   0  0  0  0  0  0  0  0  0  0  0  0
   46.0700   30.5620   45.7760 C   0  0  0  0  0  0  0  0  0  0  0  0
   45.7920   30.3040   47.2580 C   0  0  0  0  0  0  0  0  0  0  0  0
   44.9880   31.3720   47.8750 C   0  0  0  0  0  0  0  0  0  0  0  0
   45.3830   32.7340   47.4100 C   0  0  0  0  0  0  0  0  0  0  0  0
   47.2990   33.4720   46.9510 H   0  0  0  0  0  0  0  0  0  0  0  0
   47.2390   31.9300   44.7040 H   0  0  0  0  0  0  0  0  0  0  0  0
   47.9160   31.4320   46.2420 H   0  0  0  0  0  0  0  0  0  0  0  0
   46.6330   29.6930   45.4310 H   0  0  0  0  0  0  0  0  0  0  0  0
   45.1430   30.7130   45.2100 H   0  0  0  0  0  0  0  0  0  0  0  0
   45.1980   29.3970   47.3400 H   0  0  0  0  0  0  0  0  0  0  0  0
   46.7730   30.2590   47.7580 H   0  0  0  0  0  0  0  0  0  0  0  0
   44.1930   31.3540   48.5770 H   0  0  0  0  0  0  0  0  0  0  0  0
   44.6860   33.8750   47.9210 N   0  0  0  0  0  0  0  0  0  0  0  0
   43.6530   33.8380   47.7150 H   0  0  0  0  0  0  0  0  0  0  0  0
   45.3010   34.5590   48.4110 H   0  0  0  0  0  0  0  0  0  0  0  0
   47.0570   34.7170   41.9220 C   0  0  0  0  0  0  0  0  0  0  0  0
   48.1850   35.4470   41.8110 C   0  0  0  0  0  0  0  0  0  0  0  0
   48.8350   35.4180   40.5660 C   0  0  0  0  0  0  0  0  0  0  0  0
   48.2580   34.6530   39.5910 C   0  0  0  0  0  0  0  0  0  0  0  0
   47.1250   33.9180   39.7010 C   0  0  0  0  0  0  0  0  0  0  0  0
   46.5280   33.9720   40.9170 N   0  0  0  0  0  0  0  0  0  0  0  0
   48.5700   36.0290   42.6470 H   0  0  0  0  0  0  0  0  0  0  0  0
   49.7380   35.9900   40.4440 H   0  0  0  0  0  0  0  0  0  0  0  0
   48.7990   34.6630   38.6450 H   0  0  0  0  0  0  0  0  0  0  0  0
   46.5990   33.1620   38.6570 O   0  0  0  0  0  0  0  0  0  0  0  0
   46.9070   33.3650   37.3430 C   0  0  0  0  0  3  0  0  0  0  0  0
   47.7660   32.6370   36.6670 C   0  0  0  0  0  3  0  0  0  0  0  0
   48.3080   32.5870   35.2970 C   0  0  0  0  0  2  0  0  0  0  0  0
   48.1770   31.5790   34.8250 H   0  0  0  0  0  0  0  0  0  0  0  0
  1  7  1  0  0  0  0
  1  6  1  0  0  0  0
  2  1  2  0  0  0  0
  3  2  1  0  0  0  0
  3  4  2  0  0  0  0
  4  5  1  0  0  0  0
  5  6  2  0  0  0  0
  5  9  1  0  0  0  0
  8  2  1  0  0  0  0
  9 15  1  1  0  0  0
  9 14  1  0  0  0  0
 10 11  1  0  0  0  0
 10 17  1  0  0  0  0
 10  9  1  0  0  0  0
 11 12  1  0  0  0  0
 12 20  1  0  0  0  0
 12 21  1  0  0  0  0
 12 13  1  0  0  0  0
 13 22  1  0  0  0  0
 14 13  2  0  0  0  0
 14 23  1  0  0  0  0
 16 10  1  0  0  0  0
 18 11  1  0  0  0  0
 19 11  1  0  0  0  0
 23 25  1  0  0  0  0
 24 23  1  0  0  0  0
 26  3  1  0  0  0  0
 27 26  1  0  0  0  0
 27 32  1  0  0  0  0
 28 27  2  0  0  0  0
 29 30  2  0  0  0  0
 29 28  1  0  0  0  0
 30 31  1  0  0  0  0
 31 26  2  0  0  0  0
 33 28  1  0  0  0  0
 34 29  1  0  0  0  0
 35 30  1  0  0  0  0
 36 35  1  0  0  0  0
 37 36  2  0  0  0  0
 38 37  1  0  0  0  0
 39 38  1  0  0  0  0
M  END
>  <minimizedAffinity>
-6.91145277

>  <minimizedRMSD>
0.304269522

$$$$
