
 OpenBabel03242516313D

 26 27  0  0  1  0  0  0  0  0999 V2000
   48.2070   34.8650   42.2300 C   0  0  2  0  0  0  0  0  0  0  0  0
   46.8770   34.1080   42.3420 C   0  0  1  0  0  0  0  0  0  0  0  0
   47.3710   32.8270   42.4950 O   0  0  0  0  0  0  0  0  0  0  0  0
   48.2650   32.6750   41.4380 C   0  0  0  0  0  0  0  0  0  0  0  0
   48.7300   34.0570   41.0220 C   0  0  1  0  0  0  0  0  0  0  0  0
   48.0820   35.9180   41.9820 H   0  0  0  0  0  0  0  0  0  0  0  0
   46.3560   34.2740   41.3940 H   0  0  0  0  0  0  0  0  0  0  0  0
   47.8760   32.0680   40.6050 H   0  0  0  0  0  0  0  0  0  0  0  0
   49.1540   32.1230   41.8530 H   0  0  0  0  0  0  0  0  0  0  0  0
   49.8290   34.1310   40.9410 H   0  0  0  0  0  0  0  0  0  0  0  0
   44.4940   35.9260   44.6630 C   0  0  0  0  0  0  0  0  0  0  0  0
   45.1960   35.6810   43.4860 C   0  0  0  0  0  0  0  0  0  0  0  0
   46.0550   34.5860   43.4430 C   0  0  0  0  0  0  0  0  0  0  0  0
   46.1580   33.8110   44.5720 N   0  0  0  0  0  0  0  0  0  0  0  0
   45.4640   34.0750   45.6970 C   0  0  0  0  0  0  0  0  0  0  0  0
   44.6260   35.1380   45.7440 N   0  0  0  0  0  0  0  0  0  0  0  0
   43.8470   36.8040   44.6040 H   0  0  0  0  0  0  0  0  0  0  0  0
   45.1640   36.2430   42.5710 H   0  0  0  0  0  0  0  0  0  0  0  0
   45.5640   33.4460   46.5730 H   0  0  0  0  0  0  0  0  0  0  0  0
   49.0200   34.5620   43.2770 O   0  0  0  0  0  0  0  0  0  0  0  0
   48.6510   34.6730   44.1800 H   0  0  0  0  0  0  0  0  0  0  0  0
   48.0420   34.5350   39.9130 O   0  0  0  0  0  0  0  0  0  0  0  0
   47.7020   33.8640   38.7740 C   0  0  0  0  0  0  0  0  0  0  0  0
   48.5260   34.0780   37.7540 C   0  0  0  0  0  0  0  0  0  0  0  0
   48.4120   33.4800   36.3770 C   0  0  0  0  0  0  0  0  0  0  0  0
   48.2230   34.3230   35.6490 H   0  0  0  0  0  0  0  0  0  0  0  0
  1  6  1  6  0  0  0
  1  2  1  0  0  0  0
  1 20  1  0  0  0  0
  2  7  1  6  0  0  0
  2  3  1  0  0  0  0
  2 13  1  0  0  0  0
  4  9  1  0  0  0  0
  4  3  1  0  0  0  0
  5 10  1  6  0  0  0
  5  4  1  0  0  0  0
  5  1  1  0  0  0  0
  8  4  1  0  0  0  0
 11 16  1  0  0  0  0
 12 11  2  0  0  0  0
 13 12  1  0  0  0  0
 13 14  2  0  0  0  0
 14 15  1  0  0  0  0
 15 16  2  0  0  0  0
 15 19  1  0  0  0  0
 17 11  1  0  0  0  0
 18 12  1  0  0  0  0
 20 21  1  0  0  0  0
 22  5  1  0  0  0  0
 23 22  1  0  0  0  0
 24 23  1  0  0  0  0
 25 24  1  0  0  0  0
 26 25  1  0  0  0  0
M  END
>  <minimizedAffinity>
-4.78774452

>  <minimizedRMSD>
0.768975854

$$$$
