
 OpenBabel03252505103D

 39 41  0  0  1  0  0  0  0  0999 V2000
   44.5730   35.5980   44.6140 C   0  0  0  0  0  0  0  0  0  0  0  0
   45.2250   35.6040   43.3640 C   0  0  0  0  0  0  0  0  0  0  0  0
   46.3130   34.6890   43.1770 C   0  0  0  0  0  0  0  0  0  0  0  0
   46.6580   33.8720   44.2010 N   0  0  0  0  0  0  0  0  0  0  0  0
   46.0130   33.8970   45.3730 C   0  0  0  0  0  0  0  0  0  0  0  0
   44.9640   34.7620   45.5900 N   0  0  0  0  0  0  0  0  0  0  0  0
   43.7520   36.2670   44.8000 H   0  0  0  0  0  0  0  0  0  0  0  0
   44.9110   36.2780   42.5760 H   0  0  0  0  0  0  0  0  0  0  0  0
   46.4340   32.9830   46.4720 C   0  0  2  0  0  0  0  0  0  0  0  0
   46.9550   31.7470   45.7660 C   0  0  0  0  0  0  0  0  0  0  0  0
   46.0820   30.5690   45.7830 C   0  0  0  0  0  0  0  0  0  0  0  0
   45.8050   30.3100   47.2650 C   0  0  0  0  0  0  0  0  0  0  0  0
   44.9950   31.3740   47.8810 C   0  0  0  0  0  0  0  0  0  0  0  0
   45.3840   32.7380   47.4150 C   0  0  0  0  0  0  0  0  0  0  0  0
   47.2970   33.4860   46.9570 H   0  0  0  0  0  0  0  0  0  0  0  0
   47.2460   31.9420   44.7110 H   0  0  0  0  0  0  0  0  0  0  0  0
   47.9240   31.4490   46.2500 H   0  0  0  0  0  0  0  0  0  0  0  0
   46.6510   29.7020   45.4380 H   0  0  0  0  0  0  0  0  0  0  0  0
   45.1550   30.7150   45.2170 H   0  0  0  0  0  0  0  0  0  0  0  0
   45.2160   29.4000   47.3470 H   0  0  0  0  0  0  0  0  0  0  0  0
   46.7870   30.2700   47.7660 H   0  0  0  0  0  0  0  0  0  0  0  0
   44.2000   31.3520   48.5820 H   0  0  0  0  0  0  0  0  0  0  0  0
   44.6810   33.8760   47.9250 N   0  0  0  0  0  0  0  0  0  0  0  0
   43.6480   33.8340   47.7190 H   0  0  0  0  0  0  0  0  0  0  0  0
   45.2930   34.5630   48.4160 H   0  0  0  0  0  0  0  0  0  0  0  0
   46.9990   34.6680   41.8990 C   0  0  0  0  0  0  0  0  0  0  0  0
   48.1430   35.3690   41.7600 C   0  0  0  0  0  0  0  0  0  0  0  0
   48.7660   35.3160   40.5030 C   0  0  0  0  0  0  0  0  0  0  0  0
   48.1500   34.5590   39.5450 C   0  0  0  0  0  0  0  0  0  0  0  0
   47.0020   33.8540   39.6830 C   0  0  0  0  0  0  0  0  0  0  0  0
   46.4300   33.9310   40.9100 N   0  0  0  0  0  0  0  0  0  0  0  0
   48.5580   35.9470   42.5850 H   0  0  0  0  0  0  0  0  0  0  0  0
   49.6810   35.8630   40.3580 H   0  0  0  0  0  0  0  0  0  0  0  0
   48.6720   34.5500   38.5880 H   0  0  0  0  0  0  0  0  0  0  0  0
   46.4360   33.1050   38.6540 O   0  0  0  0  0  0  0  0  0  0  0  0
   46.7580   33.2590   37.3380 C   0  0  0  0  0  3  0  0  0  0  0  0
   46.8260   32.2700   36.4760 C   0  0  0  0  0  3  0  0  0  0  0  0
   47.1320   32.0960   35.0440 C   0  0  0  0  0  2  0  0  0  0  0  0
   46.3100   31.5670   34.4950 H   0  0  0  0  0  0  0  0  0  0  0  0
  1  7  1  0  0  0  0
  1  6  1  0  0  0  0
  2  1  2  0  0  0  0
  3  2  1  0  0  0  0
  3  4  2  0  0  0  0
  4  5  1  0  0  0  0
  5  6  2  0  0  0  0
  5  9  1  0  0  0  0
  8  2  1  0  0  0  0
  9 15  1  1  0  0  0
  9 14  1  0  0  0  0
 10 11  1  0  0  0  0
 10 17  1  0  0  0  0
 10  9  1  0  0  0  0
 11 12  1  0  0  0  0
 12 20  1  0  0  0  0
 12 21  1  0  0  0  0
 12 13  1  0  0  0  0
 13 22  1  0  0  0  0
 14 13  2  0  0  0  0
 14 23  1  0  0  0  0
 16 10  1  0  0  0  0
 18 11  1  0  0  0  0
 19 11  1  0  0  0  0
 23 25  1  0  0  0  0
 24 23  1  0  0  0  0
 26  3  1  0  0  0  0
 27 26  1  0  0  0  0
 27 32  1  0  0  0  0
 28 27  2  0  0  0  0
 29 30  2  0  0  0  0
 29 28  1  0  0  0  0
 30 31  1  0  0  0  0
 31 26  2  0  0  0  0
 33 28  1  0  0  0  0
 34 29  1  0  0  0  0
 35 30  1  0  0  0  0
 36 35  1  0  0  0  0
 37 36  2  0  0  0  0
 38 37  1  0  0  0  0
 39 38  1  0  0  0  0
M  END
>  <minimizedAffinity>
-6.8430562

>  <minimizedRMSD>
0.191928059

$$$$
