
 OpenBabel03242514193D

 44 45  0  0  0  0  0  0  0  0999 V2000
   46.1610   34.5630   43.6160 C   0  0  0  0  0  0  0  0  0  0  0  0
   46.1510   33.7930   44.7530 C   0  0  0  0  0  0  0  0  0  0  0  0
   45.3210   34.1760   45.7630 C   0  0  0  0  0  0  0  0  0  0  0  0
   44.5490   35.2880   45.6080 N   0  0  0  0  0  0  0  0  0  0  0  0
   44.5580   36.0260   44.5210 C   0  0  0  0  0  0  0  0  0  0  0  0
   45.3630   35.6500   43.5450 N   0  0  0  0  0  0  0  0  0  0  0  0
   45.1580   33.7230   46.7270 H   0  0  0  0  0  0  0  0  0  0  0  0
   43.9380   36.9190   44.3940 H   0  0  0  0  0  0  0  0  0  0  0  0
   47.0020   34.1060   42.5020 C   0  0  0  0  0  0  0  0  0  0  0  0
   48.3900   34.6690   42.5880 C   0  0  0  0  0  0  0  0  0  0  0  0
   48.7040   35.5680   41.4770 C   0  0  0  0  0  0  0  0  0  0  0  0
   48.5050   34.8900   40.1370 C   0  0  0  0  0  0  0  0  0  0  0  0
   47.2580   34.1000   40.0500 C   0  0  0  0  0  0  0  0  0  0  0  0
   46.3300   34.3920   41.2080 C   0  0  0  0  0  0  0  0  0  0  0  0
   47.1750   33.0200   42.6230 H   0  0  0  0  0  0  0  0  0  0  0  0
   49.1660   33.8860   42.6440 H   0  0  0  0  0  0  0  0  0  0  0  0
   48.4690   35.2290   43.5410 H   0  0  0  0  0  0  0  0  0  0  0  0
   48.2030   36.5530   41.5220 H   0  0  0  0  0  0  0  0  0  0  0  0
   49.8040   35.8160   41.5290 H   0  0  0  0  0  0  0  0  0  0  0  0
   48.4320   35.7180   39.3820 H   0  0  0  0  0  0  0  0  0  0  0  0
   49.3990   34.2510   39.9570 H   0  0  0  0  0  0  0  0  0  0  0  0
   47.4780   32.9990   40.0810 H   0  0  0  0  0  0  0  0  0  0  0  0
   46.6660   34.2700   39.1240 H   0  0  0  0  0  0  0  0  0  0  0  0
   46.1410   35.5000   41.1490 H   0  0  0  0  0  0  0  0  0  0  0  0
   45.3750   33.8560   41.0720 H   0  0  0  0  0  0  0  0  0  0  0  0
   46.8250   32.6950   45.0800 O   0  0  0  0  0  0  0  0  0  0  0  0
   47.2660   32.1600   46.2650 C   0  0  0  0  0  0  0  0  0  0  0  0
   46.8480   32.5730   47.1910 H   0  0  0  0  0  0  0  0  0  0  0  0
   48.3730   32.3760   46.3330 H   0  0  0  0  0  0  0  0  0  0  0  0
   47.1720   30.6510   46.3410 C   0  0  0  0  0  0  0  0  0  0  0  0
   47.1680   30.3530   47.3960 H   0  0  0  0  0  0  0  0  0  0  0  0
   48.0810   30.2200   45.8340 H   0  0  0  0  0  0  0  0  0  0  0  0
   46.0390   30.1360   45.6050 N   0  0  0  0  0  0  0  0  0  0  0  0
   45.5410   30.8590   45.0830 H   0  0  0  0  0  0  0  0  0  0  0  0
   44.8450   29.6390   46.7780 S   0  0  0  0  0  0  0  0  0  0  0  0
   43.6220   29.1020   46.0970 O   0  0  0  0  0  0  0  0  0  0  0  0
   43.6290   28.3000   45.5190 H   0  0  0  0  0  0  0  0  0  0  0  0
   44.5050   30.8470   47.5960 O   0  0  0  0  0  0  0  0  0  0  0  0
   44.2700   30.7660   48.5530 H   0  0  0  0  0  0  0  0  0  0  0  0
   45.4760   28.4980   47.8150 O   0  0  0  0  0  0  0  0  0  0  0  0
   45.9440   27.2600   47.4750 C   0  0  0  0  0  3  0  0  0  0  0  0
   46.9840   26.4720   47.2480 C   0  0  0  0  0  3  0  0  0  0  0  0
   46.8790   25.0570   46.8690 C   0  0  0  0  0  2  0  0  0  0  0  0
   47.0180   24.3360   47.6880 H   0  0  0  0  0  0  0  0  0  0  0  0
  1  2  1  0  0  0  0
  2 26  1  0  0  0  0
  2  3  2  0  0  0  0
  3  7  1  0  0  0  0
  4  3  1  0  0  0  0
  5  4  2  0  0  0  0
  6  1  2  0  0  0  0
  6  5  1  0  0  0  0
  8  5  1  0  0  0  0
  9 10  1  0  0  0  0
  9 15  1  0  0  0  0
  9  1  1  0  0  0  0
 10 16  1  0  0  0  0
 10 17  1  0  0  0  0
 11 18  1  0  0  0  0
 11 19  1  0  0  0  0
 11 10  1  0  0  0  0
 12 11  1  0  0  0  0
 13 22  1  0  0  0  0
 13 12  1  0  0  0  0
 13 14  1  0  0  0  0
 14  9  1  0  0  0  0
 20 12  1  0  0  0  0
 21 12  1  0  0  0  0
 23 13  1  0  0  0  0
 24 14  1  0  0  0  0
 25 14  1  0  0  0  0
 26 27  1  0  0  0  0
 27 29  1  0  0  0  0
 27 30  1  0  0  0  0
 27 28  1  0  0  0  0
 30 31  1  0  0  0  0
 32 30  1  0  0  0  0
 33 30  1  0  0  0  0
 33 35  1  0  0  0  0
 34 33  1  0  0  0  0
 35 38  1  0  0  0  0
 35 40  1  0  0  0  0
 36 35  1  0  0  0  0
 37 36  1  0  0  0  0
 38 39  1  0  0  0  0
 41 40  1  0  0  0  0
 42 41  2  0  0  0  0
 43 42  1  0  0  0  0
 43 44  1  0  0  0  0
M  END
>  <minimizedAffinity>
-5.27823687

>  <minimizedRMSD>
0.921012521

$$$$
