
 OpenBabel03242514193D

 44 45  0  0  0  0  0  0  0  0999 V2000
   46.1270   34.5450   43.6290 C   0  0  0  0  0  0  0  0  0  0  0  0
   46.1110   33.7820   44.7710 C   0  0  0  0  0  0  0  0  0  0  0  0
   45.2950   34.1870   45.7840 C   0  0  0  0  0  0  0  0  0  0  0  0
   44.5420   35.3120   45.6270 N   0  0  0  0  0  0  0  0  0  0  0  0
   44.5580   36.0430   44.5360 C   0  0  0  0  0  0  0  0  0  0  0  0
   45.3490   35.6460   43.5570 N   0  0  0  0  0  0  0  0  0  0  0  0
   45.1310   33.7420   46.7520 H   0  0  0  0  0  0  0  0  0  0  0  0
   43.9530   36.9470   44.4070 H   0  0  0  0  0  0  0  0  0  0  0  0
   46.9520   34.0660   42.5120 C   0  0  0  0  0  0  0  0  0  0  0  0
   48.3450   34.6160   42.5750 C   0  0  0  0  0  0  0  0  0  0  0  0
   48.6560   35.4970   41.4500 C   0  0  0  0  0  0  0  0  0  0  0  0
   48.4370   34.8050   40.1210 C   0  0  0  0  0  0  0  0  0  0  0  0
   47.1810   34.0260   40.0580 C   0  0  0  0  0  0  0  0  0  0  0  0
   46.2680   34.3410   41.2220 C   0  0  0  0  0  0  0  0  0  0  0  0
   47.1160   32.9790   42.6450 H   0  0  0  0  0  0  0  0  0  0  0  0
   49.1150   33.8270   42.6330 H   0  0  0  0  0  0  0  0  0  0  0  0
   48.4400   35.1880   43.5210 H   0  0  0  0  0  0  0  0  0  0  0  0
   48.1650   36.4880   41.4880 H   0  0  0  0  0  0  0  0  0  0  0  0
   49.7590   35.7360   41.4870 H   0  0  0  0  0  0  0  0  0  0  0  0
   48.3630   35.6240   39.3560 H   0  0  0  0  0  0  0  0  0  0  0  0
   49.3230   34.1540   39.9400 H   0  0  0  0  0  0  0  0  0  0  0  0
   47.3910   32.9240   40.1000 H   0  0  0  0  0  0  0  0  0  0  0  0
   46.5800   34.1900   39.1350 H   0  0  0  0  0  0  0  0  0  0  0  0
   46.0900   35.4500   41.1500 H   0  0  0  0  0  0  0  0  0  0  0  0
   45.3070   33.8130   41.1020 H   0  0  0  0  0  0  0  0  0  0  0  0
   46.7670   32.6730   45.1000 O   0  0  0  0  0  0  0  0  0  0  0  0
   47.2490   32.1610   46.2780 C   0  0  0  0  0  0  0  0  0  0  0  0
   46.8570   32.5860   47.2110 H   0  0  0  0  0  0  0  0  0  0  0  0
   48.3550   32.3860   46.3070 H   0  0  0  0  0  0  0  0  0  0  0  0
   47.1680   30.6530   46.3820 C   0  0  0  0  0  0  0  0  0  0  0  0
   47.1430   30.3750   47.4420 H   0  0  0  0  0  0  0  0  0  0  0  0
   48.0920   30.2220   45.9040 H   0  0  0  0  0  0  0  0  0  0  0  0
   46.0580   30.1120   45.6310 N   0  0  0  0  0  0  0  0  0  0  0  0
   45.5660   30.8190   45.0820 H   0  0  0  0  0  0  0  0  0  0  0  0
   44.8400   29.6300   46.7850 S   0  0  0  0  0  0  0  0  0  0  0  0
   43.6190   29.1120   46.0870 O   0  0  0  0  0  0  0  0  0  0  0  0
   43.6230   28.3120   45.5070 H   0  0  0  0  0  0  0  0  0  0  0  0
   44.5060   30.8420   47.6020 O   0  0  0  0  0  0  0  0  0  0  0  0
   44.2560   30.7620   48.5550 H   0  0  0  0  0  0  0  0  0  0  0  0
   45.4390   28.4780   47.8290 O   0  0  0  0  0  0  0  0  0  0  0  0
   45.9270   27.2470   47.4900 C   0  0  0  0  0  3  0  0  0  0  0  0
   46.9790   26.4820   47.2400 C   0  0  0  0  0  3  0  0  0  0  0  0
   46.8960   25.0610   46.8810 C   0  0  0  0  0  2  0  0  0  0  0  0
   47.0770   24.3530   47.7040 H   0  0  0  0  0  0  0  0  0  0  0  0
  1  2  1  0  0  0  0
  2 26  1  0  0  0  0
  2  3  2  0  0  0  0
  3  7  1  0  0  0  0
  4  3  1  0  0  0  0
  5  4  2  0  0  0  0
  6  1  2  0  0  0  0
  6  5  1  0  0  0  0
  8  5  1  0  0  0  0
  9 10  1  0  0  0  0
  9 15  1  0  0  0  0
  9  1  1  0  0  0  0
 10 16  1  0  0  0  0
 10 17  1  0  0  0  0
 11 19  1  0  0  0  0
 11 18  1  0  0  0  0
 11 10  1  0  0  0  0
 12 11  1  0  0  0  0
 13 22  1  0  0  0  0
 13 12  1  0  0  0  0
 13 14  1  0  0  0  0
 14  9  1  0  0  0  0
 20 12  1  0  0  0  0
 21 12  1  0  0  0  0
 23 13  1  0  0  0  0
 24 14  1  0  0  0  0
 25 14  1  0  0  0  0
 26 27  1  0  0  0  0
 27 29  1  0  0  0  0
 27 30  1  0  0  0  0
 27 28  1  0  0  0  0
 30 31  1  0  0  0  0
 32 30  1  0  0  0  0
 33 30  1  0  0  0  0
 33 35  1  0  0  0  0
 34 33  1  0  0  0  0
 35 38  1  0  0  0  0
 35 40  1  0  0  0  0
 36 35  1  0  0  0  0
 37 36  1  0  0  0  0
 38 39  1  0  0  0  0
 41 40  1  0  0  0  0
 42 41  2  0  0  0  0
 43 42  1  0  0  0  0
 43 44  1  0  0  0  0
M  END
>  <minimizedAffinity>
-5.26960421

>  <minimizedRMSD>
0.938070655

$$$$
