
 OpenBabel03242514193D

 44 45  0  0  0  0  0  0  0  0999 V2000
   46.1630   34.5690   43.6080 C   0  0  0  0  0  0  0  0  0  0  0  0
   46.1570   33.8010   44.7480 C   0  0  0  0  0  0  0  0  0  0  0  0
   45.3260   34.1850   45.7570 C   0  0  0  0  0  0  0  0  0  0  0  0
   44.5500   35.2940   45.5990 N   0  0  0  0  0  0  0  0  0  0  0  0
   44.5560   36.0280   44.5110 C   0  0  0  0  0  0  0  0  0  0  0  0
   45.3620   35.6530   43.5350 N   0  0  0  0  0  0  0  0  0  0  0  0
   45.1650   33.7340   46.7230 H   0  0  0  0  0  0  0  0  0  0  0  0
   43.9320   36.9190   44.3810 H   0  0  0  0  0  0  0  0  0  0  0  0
   47.0050   34.1120   42.4960 C   0  0  0  0  0  0  0  0  0  0  0  0
   48.3920   34.6760   42.5810 C   0  0  0  0  0  0  0  0  0  0  0  0
   48.7060   35.5740   41.4690 C   0  0  0  0  0  0  0  0  0  0  0  0
   48.5080   34.8950   40.1300 C   0  0  0  0  0  0  0  0  0  0  0  0
   47.2620   34.1030   40.0430 C   0  0  0  0  0  0  0  0  0  0  0  0
   46.3330   34.3940   41.2010 C   0  0  0  0  0  0  0  0  0  0  0  0
   47.1800   33.0250   42.6180 H   0  0  0  0  0  0  0  0  0  0  0  0
   49.1700   33.8950   42.6380 H   0  0  0  0  0  0  0  0  0  0  0  0
   48.4700   35.2380   43.5340 H   0  0  0  0  0  0  0  0  0  0  0  0
   48.2030   36.5580   41.5130 H   0  0  0  0  0  0  0  0  0  0  0  0
   49.8050   35.8240   41.5210 H   0  0  0  0  0  0  0  0  0  0  0  0
   48.4340   35.7220   39.3740 H   0  0  0  0  0  0  0  0  0  0  0  0
   49.4030   34.2560   39.9510 H   0  0  0  0  0  0  0  0  0  0  0  0
   47.4830   33.0020   40.0760 H   0  0  0  0  0  0  0  0  0  0  0  0
   46.6700   34.2700   39.1170 H   0  0  0  0  0  0  0  0  0  0  0  0
   46.1430   35.5020   41.1400 H   0  0  0  0  0  0  0  0  0  0  0  0
   45.3790   33.8570   41.0650 H   0  0  0  0  0  0  0  0  0  0  0  0
   46.8350   32.7070   45.0770 O   0  0  0  0  0  0  0  0  0  0  0  0
   47.2570   32.1640   46.2660 C   0  0  0  0  0  0  0  0  0  0  0  0
   46.8240   32.5700   47.1880 H   0  0  0  0  0  0  0  0  0  0  0  0
   48.3620   32.3810   46.3530 H   0  0  0  0  0  0  0  0  0  0  0  0
   47.1630   30.6540   46.3300 C   0  0  0  0  0  0  0  0  0  0  0  0
   47.1680   30.3480   47.3820 H   0  0  0  0  0  0  0  0  0  0  0  0
   48.0680   30.2280   45.8120 H   0  0  0  0  0  0  0  0  0  0  0  0
   46.0250   30.1460   45.5990 N   0  0  0  0  0  0  0  0  0  0  0  0
   45.5140   30.8760   45.0990 H   0  0  0  0  0  0  0  0  0  0  0  0
   44.8510   29.6150   46.7770 S   0  0  0  0  0  0  0  0  0  0  0  0
   43.6260   29.0760   46.1020 O   0  0  0  0  0  0  0  0  0  0  0  0
   43.6350   28.2850   45.5100 H   0  0  0  0  0  0  0  0  0  0  0  0
   44.5070   30.8050   47.6210 O   0  0  0  0  0  0  0  0  0  0  0  0
   44.2850   30.7050   48.5790 H   0  0  0  0  0  0  0  0  0  0  0  0
   45.5070   28.4630   47.7860 O   0  0  0  0  0  0  0  0  0  0  0  0
   45.8870   27.1980   47.4380 C   0  0  0  0  0  3  0  0  0  0  0  0
   46.6130   26.1240   47.7120 C   0  0  0  0  0  3  0  0  0  0  0  0
   46.6310   24.9090   46.8870 C   0  0  0  0  0  2  0  0  0  0  0  0
   45.9980   24.0840   47.2450 H   0  0  0  0  0  0  0  0  0  0  0  0
  1  2  1  0  0  0  0
  2 26  1  0  0  0  0
  2  3  2  0  0  0  0
  3  7  1  0  0  0  0
  4  3  1  0  0  0  0
  5  4  2  0  0  0  0
  6  1  2  0  0  0  0
  6  5  1  0  0  0  0
  8  5  1  0  0  0  0
  9 10  1  0  0  0  0
  9 15  1  0  0  0  0
  9  1  1  0  0  0  0
 10 16  1  0  0  0  0
 10 17  1  0  0  0  0
 11 18  1  0  0  0  0
 11 19  1  0  0  0  0
 11 10  1  0  0  0  0
 12 11  1  0  0  0  0
 13 22  1  0  0  0  0
 13 12  1  0  0  0  0
 13 14  1  0  0  0  0
 14  9  1  0  0  0  0
 20 12  1  0  0  0  0
 21 12  1  0  0  0  0
 23 13  1  0  0  0  0
 24 14  1  0  0  0  0
 25 14  1  0  0  0  0
 26 27  1  0  0  0  0
 27 30  1  0  0  0  0
 27 29  1  0  0  0  0
 27 28  1  0  0  0  0
 30 31  1  0  0  0  0
 32 30  1  0  0  0  0
 33 30  1  0  0  0  0
 33 35  1  0  0  0  0
 34 33  1  0  0  0  0
 35 38  1  0  0  0  0
 35 40  1  0  0  0  0
 36 35  1  0  0  0  0
 37 36  1  0  0  0  0
 38 39  1  0  0  0  0
 41 42  2  0  0  0  0
 41 40  1  0  0  0  0
 43 44  1  0  0  0  0
 43 42  1  0  0  0  0
M  END
>  <minimizedAffinity>
-5.29739952

>  <minimizedRMSD>
0.981762707

$$$$
