
 OpenBabel03242514213D

 44 45  0  0  0  0  0  0  0  0999 V2000
   39.1410   25.7570   42.3070 C   0  0  0  0  0  0  0  0  0  0  0  0
   39.2970   26.8070   43.1790 C   0  0  0  0  0  0  0  0  0  0  0  0
   40.5440   27.0260   43.6800 C   0  0  0  0  0  0  0  0  0  0  0  0
   41.5690   26.2100   43.3030 N   0  0  0  0  0  0  0  0  0  0  0  0
   41.4210   25.2060   42.4700 C   0  0  0  0  0  0  0  0  0  0  0  0
   40.2100   24.9970   41.9870 N   0  0  0  0  0  0  0  0  0  0  0  0
   40.8850   27.7830   44.3680 H   0  0  0  0  0  0  0  0  0  0  0  0
   42.2420   24.5490   42.1660 H   0  0  0  0  0  0  0  0  0  0  0  0
   37.8110   25.5690   41.7130 C   0  0  0  0  0  0  0  0  0  0  0  0
   37.3230   24.1610   41.8790 C   0  0  0  0  0  0  0  0  0  0  0  0
   37.1720   23.4610   40.6020 C   0  0  0  0  0  0  0  0  0  0  0  0
   36.2580   24.2140   39.6590 C   0  0  0  0  0  0  0  0  0  0  0  0
   36.5150   25.6700   39.6180 C   0  0  0  0  0  0  0  0  0  0  0  0
   37.8170   26.0270   40.3000 C   0  0  0  0  0  0  0  0  0  0  0  0
   37.0810   26.1480   42.3100 H   0  0  0  0  0  0  0  0  0  0  0  0
   36.3710   24.1000   42.4340 H   0  0  0  0  0  0  0  0  0  0  0  0
   38.0620   23.6190   42.5040 H   0  0  0  0  0  0  0  0  0  0  0  0
   38.1230   23.1730   40.1170 H   0  0  0  0  0  0  0  0  0  0  0  0
   36.6560   22.4780   40.8020 H   0  0  0  0  0  0  0  0  0  0  0  0
   36.4720   23.8070   38.6340 H   0  0  0  0  0  0  0  0  0  0  0  0
   35.2120   23.9990   39.9740 H   0  0  0  0  0  0  0  0  0  0  0  0
   35.7050   26.2350   40.1530 H   0  0  0  0  0  0  0  0  0  0  0  0
   36.5680   26.1030   38.5950 H   0  0  0  0  0  0  0  0  0  0  0  0
   38.5990   25.4380   39.7440 H   0  0  0  0  0  0  0  0  0  0  0  0
   38.0240   27.1040   40.1790 H   0  0  0  0  0  0  0  0  0  0  0  0
   38.4280   27.6940   43.6550 O   0  0  0  0  0  0  0  0  0  0  0  0
   38.1780   29.0200   43.4030 C   0  0  0  0  0  0  0  0  0  0  0  0
   39.0190   29.7180   43.4930 H   0  0  0  0  0  0  0  0  0  0  0  0
   37.4370   29.3680   44.1810 H   0  0  0  0  0  0  0  0  0  0  0  0
   37.4900   29.2840   42.0810 C   0  0  0  0  0  0  0  0  0  0  0  0
   36.4160   29.3970   42.2610 H   0  0  0  0  0  0  0  0  0  0  0  0
   37.6660   28.3940   41.4140 H   0  0  0  0  0  0  0  0  0  0  0  0
   38.0670   30.4100   41.3810 N   0  0  0  0  0  0  0  0  0  0  0  0
   38.4010   31.1420   42.0100 H   0  0  0  0  0  0  0  0  0  0  0  0
   36.7670   31.2140   40.5380 S   0  0  0  0  0  0  0  0  0  0  0  0
   36.9700   32.6990   40.5370 O   0  0  0  0  0  0  0  0  0  0  0  0
   37.7430   33.1410   40.1090 H   0  0  0  0  0  0  0  0  0  0  0  0
   35.4960   30.8570   41.2480 O   0  0  0  0  0  0  0  0  0  0  0  0
   34.6450   30.7580   40.7550 H   0  0  0  0  0  0  0  0  0  0  0  0
   36.6380   30.6490   38.9760 O   0  0  0  0  0  0  0  0  0  0  0  0
   35.8380   29.6280   38.5430 C   0  0  0  0  0  3  0  0  0  0  0  0
   34.8670   29.2210   37.7400 C   0  0  0  0  0  3  0  0  0  0  0  0
   34.3530   27.8460   37.7010 C   0  0  0  0  0  2  0  0  0  0  0  0
   34.7470   27.2170   36.8900 H   0  0  0  0  0  0  0  0  0  0  0  0
  1  2  1  0  0  0  0
  2 26  1  0  0  0  0
  2  3  2  0  0  0  0
  3  7  1  0  0  0  0
  4  3  1  0  0  0  0
  5  4  2  0  0  0  0
  6  1  2  0  0  0  0
  6  5  1  0  0  0  0
  8  5  1  0  0  0  0
  9 10  1  0  0  0  0
  9  1  1  0  0  0  0
  9 15  1  0  0  0  0
 10 16  1  0  0  0  0
 10 17  1  0  0  0  0
 11 19  1  0  0  0  0
 11 10  1  0  0  0  0
 12 21  1  0  0  0  0
 12 11  1  0  0  0  0
 13 12  1  0  0  0  0
 13 22  1  0  0  0  0
 13 14  1  0  0  0  0
 14  9  1  0  0  0  0
 18 11  1  0  0  0  0
 20 12  1  0  0  0  0
 23 13  1  0  0  0  0
 24 14  1  0  0  0  0
 25 14  1  0  0  0  0
 27 28  1  0  0  0  0
 27 26  1  0  0  0  0
 27 29  1  0  0  0  0
 30 31  1  0  0  0  0
 30 27  1  0  0  0  0
 32 30  1  0  0  0  0
 33 34  1  0  0  0  0
 33 30  1  0  0  0  0
 35 38  1  0  0  0  0
 35 33  1  0  0  0  0
 36 35  1  0  0  0  0
 37 36  1  0  0  0  0
 39 38  1  0  0  0  0
 40 35  1  0  0  0  0
 41 40  1  0  0  0  0
 42 41  2  0  0  0  0
 43 42  1  0  0  0  0
 44 43  1  0  0  0  0
M  END
>  <minimizedAffinity>
-5.52592754

$$$$

 OpenBabel03242514213D

 44 45  0  0  0  0  0  0  0  0999 V2000
   38.1070   27.4720   41.9440 C   0  0  0  0  0  0  0  0  0  0  0  0
   37.7610   28.7990   42.0310 C   0  0  0  0  0  0  0  0  0  0  0  0
   38.7240   29.6720   42.4370 C   0  0  0  0  0  0  0  0  0  0  0  0
   39.9680   29.2040   42.7350 N   0  0  0  0  0  0  0  0  0  0  0  0
   40.3000   27.9360   42.6520 C   0  0  0  0  0  0  0  0  0  0  0  0
   39.3640   27.0930   42.2580 N   0  0  0  0  0  0  0  0  0  0  0  0
   38.6690   30.7400   42.5720 H   0  0  0  0  0  0  0  0  0  0  0  0
   41.2990   27.5570   42.8900 H   0  0  0  0  0  0  0  0  0  0  0  0
   37.0870   26.5440   41.4370 C   0  0  0  0  0  0  0  0  0  0  0  0
   36.9400   25.3430   42.3230 C   0  0  0  0  0  0  0  0  0  0  0  0
   37.3330   24.1000   41.6580 C   0  0  0  0  0  0  0  0  0  0  0  0
   36.5620   23.8880   40.3720 C   0  0  0  0  0  0  0  0  0  0  0  0
   36.4480   25.1050   39.5400 C   0  0  0  0  0  0  0  0  0  0  0  0
   37.3750   26.2000   40.0200 C   0  0  0  0  0  0  0  0  0  0  0  0
   36.0980   27.0330   41.5290 H   0  0  0  0  0  0  0  0  0  0  0  0
   35.9180   25.2270   42.7210 H   0  0  0  0  0  0  0  0  0  0  0  0
   37.5850   25.4980   43.2120 H   0  0  0  0  0  0  0  0  0  0  0  0
   38.4220   23.9760   41.5150 H   0  0  0  0  0  0  0  0  0  0  0  0
   37.0430   23.2390   42.3280 H   0  0  0  0  0  0  0  0  0  0  0  0
   37.1490   23.1320   39.7830 H   0  0  0  0  0  0  0  0  0  0  0  0
   35.5580   23.4960   40.6520 H   0  0  0  0  0  0  0  0  0  0  0  0
   35.4060   25.5220   39.5810 H   0  0  0  0  0  0  0  0  0  0  0  0
   36.6760   24.9530   38.4620 H   0  0  0  0  0  0  0  0  0  0  0  0
   38.4020   25.7420   39.9740 H   0  0  0  0  0  0  0  0  0  0  0  0
   37.3320   27.0610   39.3320 H   0  0  0  0  0  0  0  0  0  0  0  0
   36.6160   29.4290   41.7890 O   0  0  0  0  0  0  0  0  0  0  0  0
   35.9830   29.8610   40.6490 C   0  0  0  0  0  0  0  0  0  0  0  0
   34.9250   30.1360   40.7330 H   0  0  0  0  0  0  0  0  0  0  0  0
   35.9950   28.9980   39.9200 H   0  0  0  0  0  0  0  0  0  0  0  0
   36.7010   30.9780   39.9220 C   0  0  0  0  0  0  0  0  0  0  0  0
   36.2880   31.0610   38.9110 H   0  0  0  0  0  0  0  0  0  0  0  0
   37.7920   30.7060   39.8590 H   0  0  0  0  0  0  0  0  0  0  0  0
   36.6560   32.2240   40.6540 N   0  0  0  0  0  0  0  0  0  0  0  0
   35.8510   32.8020   40.4080 H   0  0  0  0  0  0  0  0  0  0  0  0
   37.9940   33.1980   40.0990 S   0  0  0  0  0  0  0  0  0  0  0  0
   38.6270   33.9340   41.2410 O   0  0  0  0  0  0  0  0  0  0  0  0
   39.0580   33.4820   42.0070 H   0  0  0  0  0  0  0  0  0  0  0  0
   37.4450   34.1610   39.0900 O   0  0  0  0  0  0  0  0  0  0  0  0
   37.9880   34.4570   38.3190 H   0  0  0  0  0  0  0  0  0  0  0  0
   39.1270   32.2560   39.3210 O   0  0  0  0  0  0  0  0  0  0  0  0
   40.4040   32.6190   38.9990 C   0  0  0  0  0  3  0  0  0  0  0  0
   41.2110   33.4600   38.3700 C   0  0  0  0  0  3  0  0  0  0  0  0
   42.6750   33.3490   38.3670 C   0  0  0  0  0  2  0  0  0  0  0  0
   43.2010   34.0020   39.0790 H   0  0  0  0  0  0  0  0  0  0  0  0
  1  2  2  0  0  0  0
  1  6  1  0  0  0  0
  2  3  1  0  0  0  0
  3  7  1  0  0  0  0
  3  4  2  0  0  0  0
  5  4  1  0  0  0  0
  5  8  1  0  0  0  0
  6  5  2  0  0  0  0
  9 15  1  0  0  0  0
  9  1  1  0  0  0  0
  9 10  1  0  0  0  0
 10 16  1  0  0  0  0
 10 17  1  0  0  0  0
 11 10  1  0  0  0  0
 11 19  1  0  0  0  0
 12 21  1  0  0  0  0
 12 11  1  0  0  0  0
 13 22  1  0  0  0  0
 13 14  1  0  0  0  0
 13 12  1  0  0  0  0
 14  9  1  0  0  0  0
 18 11  1  0  0  0  0
 20 12  1  0  0  0  0
 23 13  1  0  0  0  0
 24 14  1  0  0  0  0
 25 14  1  0  0  0  0
 26  2  1  0  0  0  0
 27 28  1  0  0  0  0
 27 26  1  0  0  0  0
 29 27  1  0  0  0  0
 30 27  1  0  0  0  0
 30 33  1  0  0  0  0
 31 30  1  0  0  0  0
 32 30  1  0  0  0  0
 34 33  1  0  0  0  0
 35 33  1  0  0  0  0
 35 36  1  0  0  0  0
 36 37  1  0  0  0  0
 38 35  1  0  0  0  0
 39 38  1  0  0  0  0
 40 35  1  0  0  0  0
 41 40  1  0  0  0  0
 42 41  2  0  0  0  0
 43 42  1  0  0  0  0
 43 44  1  0  0  0  0
M  END
>  <minimizedAffinity>
-5.43648005

$$$$

 OpenBabel03242514213D

 44 45  0  0  0  0  0  0  0  0999 V2000
   38.3310   25.6840   42.1120 C   0  0  0  0  0  0  0  0  0  0  0  0
   38.3370   26.7910   42.9260 C   0  0  0  0  0  0  0  0  0  0  0  0
   39.4510   27.0090   43.6790 C   0  0  0  0  0  0  0  0  0  0  0  0
   40.4950   26.1370   43.5970 N   0  0  0  0  0  0  0  0  0  0  0  0
   40.4900   25.0790   42.8190 C   0  0  0  0  0  0  0  0  0  0  0  0
   39.4090   24.8710   42.0910 N   0  0  0  0  0  0  0  0  0  0  0  0
   39.6650   27.8040   44.3750 H   0  0  0  0  0  0  0  0  0  0  0  0
   41.3280   24.3770   42.7500 H   0  0  0  0  0  0  0  0  0  0  0  0
   37.1590   25.4920   41.2490 C   0  0  0  0  0  0  0  0  0  0  0  0
   36.6550   24.0810   41.3020 C   0  0  0  0  0  0  0  0  0  0  0  0
   36.7830   23.3860   40.0210 C   0  0  0  0  0  0  0  0  0  0  0  0
   36.0860   24.1390   38.9070 C   0  0  0  0  0  0  0  0  0  0  0  0
   36.3370   25.5960   38.9260 C   0  0  0  0  0  0  0  0  0  0  0  0
   37.4630   25.9560   39.8700 C   0  0  0  0  0  0  0  0  0  0  0  0
   36.3150   26.0650   41.6790 H   0  0  0  0  0  0  0  0  0  0  0  0
   35.6070   24.0120   41.6420 H   0  0  0  0  0  0  0  0  0  0  0  0
   37.2470   23.5390   42.0690 H   0  0  0  0  0  0  0  0  0  0  0  0
   37.8170   23.1040   39.7480 H   0  0  0  0  0  0  0  0  0  0  0  0
   36.2410   22.3990   40.1030 H   0  0  0  0  0  0  0  0  0  0  0  0
   36.5150   23.7370   37.9500 H   0  0  0  0  0  0  0  0  0  0  0  0
   34.9980   23.9170   38.9910 H   0  0  0  0  0  0  0  0  0  0  0  0
   35.4280   26.1540   39.2790 H   0  0  0  0  0  0  0  0  0  0  0  0
   36.6040   26.0340   37.9390 H   0  0  0  0  0  0  0  0  0  0  0  0
   38.3480   25.3730   39.4920 H   0  0  0  0  0  0  0  0  0  0  0  0
   37.6850   27.0350   39.8000 H   0  0  0  0  0  0  0  0  0  0  0  0
   37.4260   27.7350   43.1370 O   0  0  0  0  0  0  0  0  0  0  0  0
   37.3180   29.0570   42.7830 C   0  0  0  0  0  0  0  0  0  0  0  0
   38.2250   29.6710   42.8440 H   0  0  0  0  0  0  0  0  0  0  0  0
   36.6020   29.5360   43.5130 H   0  0  0  0  0  0  0  0  0  0  0  0
   36.6860   29.2910   41.4270 C   0  0  0  0  0  0  0  0  0  0  0  0
   35.9650   28.4890   41.2340 H   0  0  0  0  0  0  0  0  0  0  0  0
   37.5020   29.2540   40.6520 H   0  0  0  0  0  0  0  0  0  0  0  0
   36.1070   30.6100   41.3150 N   0  0  0  0  0  0  0  0  0  0  0  0
   35.1900   30.6060   40.8640 H   0  0  0  0  0  0  0  0  0  0  0  0
   37.0760   31.5040   40.1710 S   0  0  0  0  0  0  0  0  0  0  0  0
   38.5340   31.2130   40.3650 O   0  0  0  0  0  0  0  0  0  0  0  0
   38.9290   30.3140   40.2500 H   0  0  0  0  0  0  0  0  0  0  0  0
   36.7940   32.9580   40.3990 O   0  0  0  0  0  0  0  0  0  0  0  0
   36.8030   33.6040   39.6500 H   0  0  0  0  0  0  0  0  0  0  0  0
   36.6220   31.1490   38.6070 O   0  0  0  0  0  0  0  0  0  0  0  0
   37.1280   30.1550   37.8190 C   0  0  0  0  0  3  0  0  0  0  0  0
   37.7710   29.0010   37.7350 C   0  0  0  0  0  3  0  0  0  0  0  0
   38.0720   28.3140   36.4720 C   0  0  0  0  0  2  0  0  0  0  0  0
   37.3870   27.4960   36.2040 H   0  0  0  0  0  0  0  0  0  0  0  0
  1  2  1  0  0  0  0
  2 26  1  0  0  0  0
  2  3  2  0  0  0  0
  3  7  1  0  0  0  0
  4  3  1  0  0  0  0
  5  4  2  0  0  0  0
  6  1  2  0  0  0  0
  6  5  1  0  0  0  0
  8  5  1  0  0  0  0
  9 10  1  0  0  0  0
  9 15  1  0  0  0  0
  9  1  1  0  0  0  0
 10 16  1  0  0  0  0
 10 17  1  0  0  0  0
 11 19  1  0  0  0  0
 11 10  1  0  0  0  0
 12 13  1  0  0  0  0
 12 21  1  0  0  0  0
 12 11  1  0  0  0  0
 13 22  1  0  0  0  0
 13 14  1  0  0  0  0
 14  9  1  0  0  0  0
 18 11  1  0  0  0  0
 20 12  1  0  0  0  0
 23 13  1  0  0  0  0
 24 14  1  0  0  0  0
 25 14  1  0  0  0  0
 27 28  1  0  0  0  0
 27 26  1  0  0  0  0
 27 29  1  0  0  0  0
 30 27  1  0  0  0  0
 31 30  1  0  0  0  0
 32 30  1  0  0  0  0
 33 30  1  0  0  0  0
 34 33  1  0  0  0  0
 35 36  1  0  0  0  0
 35 38  1  0  0  0  0
 35 33  1  0  0  0  0
 37 36  1  0  0  0  0
 39 38  1  0  0  0  0
 40 35  1  0  0  0  0
 41 40  1  0  0  0  0
 42 41  2  0  0  0  0
 43 42  1  0  0  0  0
 44 43  1  0  0  0  0
M  END
>  <minimizedAffinity>
-5.16057825

$$$$

 OpenBabel03242514213D

 44 45  0  0  0  0  0  0  0  0999 V2000
   38.1010   28.0240   41.9180 C   0  0  0  0  0  0  0  0  0  0  0  0
   37.8240   29.3580   41.7430 C   0  0  0  0  0  0  0  0  0  0  0  0
   38.7900   30.2510   42.0960 C   0  0  0  0  0  0  0  0  0  0  0  0
   39.9720   29.7940   42.5980 N   0  0  0  0  0  0  0  0  0  0  0  0
   40.2380   28.5190   42.7660 C   0  0  0  0  0  0  0  0  0  0  0  0
   39.2990   27.6570   42.4220 N   0  0  0  0  0  0  0  0  0  0  0  0
   38.7820   31.3280   42.0420 H   0  0  0  0  0  0  0  0  0  0  0  0
   41.1870   28.1490   43.1680 H   0  0  0  0  0  0  0  0  0  0  0  0
   37.0860   27.0630   41.4700 C   0  0  0  0  0  0  0  0  0  0  0  0
   36.8130   26.0180   42.5100 C   0  0  0  0  0  0  0  0  0  0  0  0
   37.2020   24.6750   42.0770 C   0  0  0  0  0  0  0  0  0  0  0  0
   36.5300   24.2920   40.7750 C   0  0  0  0  0  0  0  0  0  0  0  0
   36.5390   25.3700   39.7630 C   0  0  0  0  0  0  0  0  0  0  0  0
   37.4720   26.4950   40.1520 C   0  0  0  0  0  0  0  0  0  0  0  0
   36.1160   27.5920   41.4000 H   0  0  0  0  0  0  0  0  0  0  0  0
   35.7570   25.9980   42.8300 H   0  0  0  0  0  0  0  0  0  0  0  0
   37.3900   26.2870   43.4180 H   0  0  0  0  0  0  0  0  0  0  0  0
   38.2930   24.4950   42.0500 H   0  0  0  0  0  0  0  0  0  0  0  0
   36.8210   23.9380   42.8420 H   0  0  0  0  0  0  0  0  0  0  0  0
   37.1280   23.4370   40.3610 H   0  0  0  0  0  0  0  0  0  0  0  0
   35.4890   23.9810   41.0230 H   0  0  0  0  0  0  0  0  0  0  0  0
   35.5170   25.8220   39.6500 H   0  0  0  0  0  0  0  0  0  0  0  0
   36.8460   25.0460   38.7440 H   0  0  0  0  0  0  0  0  0  0  0  0
   38.4780   26.0030   40.2640 H   0  0  0  0  0  0  0  0  0  0  0  0
   37.5240   27.2410   39.3400 H   0  0  0  0  0  0  0  0  0  0  0  0
   36.7450   29.9810   41.2780 O   0  0  0  0  0  0  0  0  0  0  0  0
   36.5410   31.1210   40.5410 C   0  0  0  0  0  0  0  0  0  0  0  0
   37.0800   32.0250   40.8500 H   0  0  0  0  0  0  0  0  0  0  0  0
   35.4500   31.3920   40.6490 H   0  0  0  0  0  0  0  0  0  0  0  0
   36.7400   30.9430   39.0510 C   0  0  0  0  0  0  0  0  0  0  0  0
   35.7680   30.7370   38.5900 H   0  0  0  0  0  0  0  0  0  0  0  0
   37.4230   30.0620   38.8940 H   0  0  0  0  0  0  0  0  0  0  0  0
   37.4210   32.0700   38.4530 N   0  0  0  0  0  0  0  0  0  0  0  0
   36.9180   32.4610   37.6540 H   0  0  0  0  0  0  0  0  0  0  0  0
   38.8760   31.4580   37.7080 S   0  0  0  0  0  0  0  0  0  0  0  0
   39.3620   32.3910   36.6410 O   0  0  0  0  0  0  0  0  0  0  0  0
   39.6470   33.3210   36.8200 H   0  0  0  0  0  0  0  0  0  0  0  0
   38.5400   30.1190   37.1240 O   0  0  0  0  0  0  0  0  0  0  0  0
   39.2100   29.3920   37.0930 H   0  0  0  0  0  0  0  0  0  0  0  0
   40.0660   31.2170   38.8500 O   0  0  0  0  0  0  0  0  0  0  0  0
   40.7500   32.1860   39.5290 C   0  0  0  0  0  3  0  0  0  0  0  0
   40.8470   32.9510   40.6050 C   0  0  0  0  0  3  0  0  0  0  0  0
   41.9190   33.9290   40.8260 C   0  0  0  0  0  2  0  0  0  0  0  0
   42.7390   33.5940   41.4780 H   0  0  0  0  0  0  0  0  0  0  0  0
  1  6  1  0  0  0  0
  2  1  2  0  0  0  0
  2  3  1  0  0  0  0
  3  4  2  0  0  0  0
  4  5  1  0  0  0  0
  5  8  1  0  0  0  0
  6  5  2  0  0  0  0
  7  3  1  0  0  0  0
  9  1  1  0  0  0  0
  9 10  1  0  0  0  0
 10 16  1  0  0  0  0
 10 17  1  0  0  0  0
 11 10  1  0  0  0  0
 11 19  1  0  0  0  0
 12 21  1  0  0  0  0
 12 11  1  0  0  0  0
 13 14  1  0  0  0  0
 13 12  1  0  0  0  0
 14 24  1  0  0  0  0
 14  9  1  0  0  0  0
 15  9  1  0  0  0  0
 18 11  1  0  0  0  0
 20 12  1  0  0  0  0
 22 13  1  0  0  0  0
 23 13  1  0  0  0  0
 25 14  1  0  0  0  0
 26  2  1  0  0  0  0
 27 29  1  0  0  0  0
 27 28  1  0  0  0  0
 27 26  1  0  0  0  0
 30 27  1  0  0  0  0
 31 30  1  0  0  0  0
 32 30  1  0  0  0  0
 33 30  1  0  0  0  0
 34 33  1  0  0  0  0
 35 33  1  0  0  0  0
 35 40  1  0  0  0  0
 36 37  1  0  0  0  0
 36 35  1  0  0  0  0
 38 35  1  0  0  0  0
 39 38  1  0  0  0  0
 40 41  1  0  0  0  0
 41 42  2  0  0  0  0
 42 43  1  0  0  0  0
 43 44  1  0  0  0  0
M  END
>  <minimizedAffinity>
-5.12896156

$$$$

 OpenBabel03242514213D

 44 45  0  0  0  0  0  0  0  0999 V2000
   37.4510   29.6810   40.3610 C   0  0  0  0  0  0  0  0  0  0  0  0
   37.3210   31.0060   40.0240 C   0  0  0  0  0  0  0  0  0  0  0  0
   36.8970   31.2940   38.7620 C   0  0  0  0  0  0  0  0  0  0  0  0
   36.6220   30.2750   37.9000 N   0  0  0  0  0  0  0  0  0  0  0  0
   36.7460   29.0070   38.2210 C   0  0  0  0  0  0  0  0  0  0  0  0
   37.1580   28.7330   39.4450 N   0  0  0  0  0  0  0  0  0  0  0  0
   36.7280   32.2510   38.2960 H   0  0  0  0  0  0  0  0  0  0  0  0
   36.5260   28.1860   37.5310 H   0  0  0  0  0  0  0  0  0  0  0  0
   37.8390   29.3740   41.7430 C   0  0  0  0  0  0  0  0  0  0  0  0
   39.2750   28.9540   41.8360 C   0  0  0  0  0  0  0  0  0  0  0  0
   39.4310   27.5660   42.2740 C   0  0  0  0  0  0  0  0  0  0  0  0
   38.7360   27.3160   43.5950 C   0  0  0  0  0  0  0  0  0  0  0  0
   37.3860   27.9160   43.6800 C   0  0  0  0  0  0  0  0  0  0  0  0
   36.8970   28.3840   42.3270 C   0  0  0  0  0  0  0  0  0  0  0  0
   37.8260   30.3170   42.3240 H   0  0  0  0  0  0  0  0  0  0  0  0
   39.8700   29.6050   42.5000 H   0  0  0  0  0  0  0  0  0  0  0  0
   39.7270   29.0700   40.8300 H   0  0  0  0  0  0  0  0  0  0  0  0
   39.1620   26.8080   41.5140 H   0  0  0  0  0  0  0  0  0  0  0  0
   40.5270   27.3820   42.4700 H   0  0  0  0  0  0  0  0  0  0  0  0
   38.6130   26.2020   43.6720 H   0  0  0  0  0  0  0  0  0  0  0  0
   39.4020   27.7110   44.3960 H   0  0  0  0  0  0  0  0  0  0  0  0
   37.3900   28.8160   44.3510 H   0  0  0  0  0  0  0  0  0  0  0  0
   36.6010   27.2370   44.0790 H   0  0  0  0  0  0  0  0  0  0  0  0
   36.9170   27.4610   41.6840 H   0  0  0  0  0  0  0  0  0  0  0  0
   35.8580   28.7470   42.4050 H   0  0  0  0  0  0  0  0  0  0  0  0
   37.5420   32.1180   40.7190 O   0  0  0  0  0  0  0  0  0  0  0  0
   38.5150   33.0860   40.6930 C   0  0  0  0  0  0  0  0  0  0  0  0
   38.7670   33.5730   41.6430 H   0  0  0  0  0  0  0  0  0  0  0  0
   38.1310   33.9230   40.0390 H   0  0  0  0  0  0  0  0  0  0  0  0
   39.8070   32.6540   40.0320 C   0  0  0  0  0  0  0  0  0  0  0  0
   39.7300   31.5910   39.7740 H   0  0  0  0  0  0  0  0  0  0  0  0
   40.6420   32.7980   40.7730 H   0  0  0  0  0  0  0  0  0  0  0  0
   40.1460   33.4870   38.9000 N   0  0  0  0  0  0  0  0  0  0  0  0
   39.3330   33.9410   38.4820 H   0  0  0  0  0  0  0  0  0  0  0  0
   40.6760   32.4260   37.6190 S   0  0  0  0  0  0  0  0  0  0  0  0
   41.8900   32.9790   36.9370 O   0  0  0  0  0  0  0  0  0  0  0  0
   42.7530   33.1260   37.3970 H   0  0  0  0  0  0  0  0  0  0  0  0
   39.5370   32.3050   36.6520 O   0  0  0  0  0  0  0  0  0  0  0  0
   39.3770   31.4660   36.1540 H   0  0  0  0  0  0  0  0  0  0  0  0
   40.9900   30.8990   38.2090 O   0  0  0  0  0  0  0  0  0  0  0  0
   40.5620   29.7170   37.6750 C   0  0  0  0  0  3  0  0  0  0  0  0
   40.4010   28.4100   37.8160 C   0  0  0  0  0  3  0  0  0  0  0  0
   39.8160   27.5370   36.7910 C   0  0  0  0  0  2  0  0  0  0  0  0
   38.7560   27.2810   36.9350 H   0  0  0  0  0  0  0  0  0  0  0  0
  1  9  1  0  0  0  0
  2  1  1  0  0  0  0
  2 26  1  0  0  0  0
  3  2  2  0  0  0  0
  4  5  2  0  0  0  0
  4  3  1  0  0  0  0
  5  6  1  0  0  0  0
  6  1  2  0  0  0  0
  7  3  1  0  0  0  0
  8  5  1  0  0  0  0
  9 10  1  0  0  0  0
  9 15  1  0  0  0  0
  9 14  1  0  0  0  0
 10 11  1  0  0  0  0
 10 16  1  0  0  0  0
 11 19  1  0  0  0  0
 11 12  1  0  0  0  0
 12 20  1  0  0  0  0
 12 13  1  0  0  0  0
 12 21  1  0  0  0  0
 13 23  1  0  0  0  0
 13 22  1  0  0  0  0
 14 25  1  0  0  0  0
 14 13  1  0  0  0  0
 17 10  1  0  0  0  0
 18 11  1  0  0  0  0
 24 14  1  0  0  0  0
 27 26  1  0  0  0  0
 27 28  1  0  0  0  0
 29 27  1  0  0  0  0
 30 27  1  0  0  0  0
 30 32  1  0  0  0  0
 31 30  1  0  0  0  0
 33 30  1  0  0  0  0
 34 33  1  0  0  0  0
 35 40  1  0  0  0  0
 35 33  1  0  0  0  0
 36 37  1  0  0  0  0
 36 35  1  0  0  0  0
 38 35  1  0  0  0  0
 39 38  1  0  0  0  0
 41 42  2  0  0  0  0
 41 40  1  0  0  0  0
 43 44  1  0  0  0  0
 43 42  1  0  0  0  0
M  END
>  <minimizedAffinity>
-5.08526516

$$$$

 OpenBabel03242514213D

 44 45  0  0  0  0  0  0  0  0999 V2000
   37.6130   29.8430   41.5550 C   0  0  0  0  0  0  0  0  0  0  0  0
   38.9440   30.0860   41.7940 C   0  0  0  0  0  0  0  0  0  0  0  0
   39.5830   29.2630   42.6710 C   0  0  0  0  0  0  0  0  0  0  0  0
   38.8910   28.2510   43.2660 N   0  0  0  0  0  0  0  0  0  0  0  0
   37.6190   28.0180   43.0380 C   0  0  0  0  0  0  0  0  0  0  0  0
   37.0030   28.8170   42.1860 N   0  0  0  0  0  0  0  0  0  0  0  0
   40.6110   29.2740   42.9990 H   0  0  0  0  0  0  0  0  0  0  0  0
   37.0600   27.2050   43.5130 H   0  0  0  0  0  0  0  0  0  0  0  0
   36.9460   30.6860   40.5550 C   0  0  0  0  0  0  0  0  0  0  0  0
   37.0030   30.0750   39.1860 C   0  0  0  0  0  0  0  0  0  0  0  0
   37.7890   30.8720   38.2440 C   0  0  0  0  0  0  0  0  0  0  0  0
   37.2750   32.2930   38.1510 C   0  0  0  0  0  0  0  0  0  0  0  0
   36.9560   32.8970   39.4630 C   0  0  0  0  0  0  0  0  0  0  0  0
   37.4950   32.0650   40.6060 C   0  0  0  0  0  0  0  0  0  0  0  0
   35.8600   30.6870   40.7720 H   0  0  0  0  0  0  0  0  0  0  0  0
   36.0030   29.8960   38.7550 H   0  0  0  0  0  0  0  0  0  0  0  0
   37.4640   29.0700   39.2840 H   0  0  0  0  0  0  0  0  0  0  0  0
   38.8820   30.8360   38.4060 H   0  0  0  0  0  0  0  0  0  0  0  0
   37.6490   30.4320   37.2130 H   0  0  0  0  0  0  0  0  0  0  0  0
   38.1100   32.8930   37.6990 H   0  0  0  0  0  0  0  0  0  0  0  0
   36.3790   32.2750   37.4890 H   0  0  0  0  0  0  0  0  0  0  0  0
   35.8450   32.9690   39.6120 H   0  0  0  0  0  0  0  0  0  0  0  0
   37.3540   33.9250   39.6090 H   0  0  0  0  0  0  0  0  0  0  0  0
   38.6030   32.0080   40.4180 H   0  0  0  0  0  0  0  0  0  0  0  0
   37.3190   32.5820   41.5650 H   0  0  0  0  0  0  0  0  0  0  0  0
   39.7710   31.0120   41.3180 O   0  0  0  0  0  0  0  0  0  0  0  0
   40.8070   30.9970   40.4180 C   0  0  0  0  0  0  0  0  0  0  0  0
   40.9810   30.0670   39.8630 H   0  0  0  0  0  0  0  0  0  0  0  0
   41.7570   31.1560   41.0080 H   0  0  0  0  0  0  0  0  0  0  0  0
   40.7860   32.1380   39.4230 C   0  0  0  0  0  0  0  0  0  0  0  0
   40.2400   32.9790   39.8670 H   0  0  0  0  0  0  0  0  0  0  0  0
   40.2440   31.7860   38.5010 H   0  0  0  0  0  0  0  0  0  0  0  0
   42.1120   32.4990   38.9770 N   0  0  0  0  0  0  0  0  0  0  0  0
   42.4050   33.4220   39.3020 H   0  0  0  0  0  0  0  0  0  0  0  0
   42.0320   32.7250   37.2480 S   0  0  0  0  0  0  0  0  0  0  0  0
   42.4050   34.1280   36.8760 O   0  0  0  0  0  0  0  0  0  0  0  0
   43.2960   34.5180   37.0520 H   0  0  0  0  0  0  0  0  0  0  0  0
   40.6230   32.4260   36.8320 O   0  0  0  0  0  0  0  0  0  0  0  0
   40.4250   32.0180   35.9540 H   0  0  0  0  0  0  0  0  0  0  0  0
   43.0220   31.6370   36.4640 O   0  0  0  0  0  0  0  0  0  0  0  0
   42.8910   30.2770   36.4550 C   0  0  0  0  0  3  0  0  0  0  0  0
   42.8590   29.1530   35.7570 C   0  0  0  0  0  3  0  0  0  0  0  0
   42.6650   27.8220   36.3460 C   0  0  0  0  0  2  0  0  0  0  0  0
   43.5830   27.2340   36.4980 H   0  0  0  0  0  0  0  0  0  0  0  0
  1  2  2  0  0  0  0
  1  6  1  0  0  0  0
  2  3  1  0  0  0  0
  3  7  1  0  0  0  0
  3  4  2  0  0  0  0
  5  4  1  0  0  0  0
  5  8  1  0  0  0  0
  6  5  2  0  0  0  0
  9 14  1  0  0  0  0
  9 15  1  0  0  0  0
  9  1  1  0  0  0  0
 10 17  1  0  0  0  0
 10  9  1  0  0  0  0
 11 18  1  0  0  0  0
 11 10  1  0  0  0  0
 12 11  1  0  0  0  0
 12 13  1  0  0  0  0
 13 23  1  0  0  0  0
 13 22  1  0  0  0  0
 13 14  1  0  0  0  0
 14 25  1  0  0  0  0
 16 10  1  0  0  0  0
 19 11  1  0  0  0  0
 20 12  1  0  0  0  0
 21 12  1  0  0  0  0
 24 14  1  0  0  0  0
 26  2  1  0  0  0  0
 27 29  1  0  0  0  0
 27 26  1  0  0  0  0
 28 27  1  0  0  0  0
 30 31  1  0  0  0  0
 30 27  1  0  0  0  0
 32 30  1  0  0  0  0
 33 34  1  0  0  0  0
 33 30  1  0  0  0  0
 35 33  1  0  0  0  0
 36 37  1  0  0  0  0
 36 35  1  0  0  0  0
 38 35  1  0  0  0  0
 39 38  1  0  0  0  0
 40 35  1  0  0  0  0
 41 40  1  0  0  0  0
 42 43  1  0  0  0  0
 42 41  2  0  0  0  0
 43 44  1  0  0  0  0
M  END
>  <minimizedAffinity>
-5.0221467

$$$$

 OpenBabel03242514213D

 44 45  0  0  0  0  0  0  0  0999 V2000
   37.0560   28.7910   41.1370 C   0  0  0  0  0  0  0  0  0  0  0  0
   38.0610   29.6720   41.4540 C   0  0  0  0  0  0  0  0  0  0  0  0
   38.5240   29.6610   42.7350 C   0  0  0  0  0  0  0  0  0  0  0  0
   37.9820   28.7920   43.6350 N   0  0  0  0  0  0  0  0  0  0  0  0
   37.0210   27.9500   43.3330 C   0  0  0  0  0  0  0  0  0  0  0  0
   36.5750   27.9640   42.0900 N   0  0  0  0  0  0  0  0  0  0  0  0
   39.2960   30.2590   43.1910 H   0  0  0  0  0  0  0  0  0  0  0  0
   36.5830   27.2510   44.0530 H   0  0  0  0  0  0  0  0  0  0  0  0
   36.6100   28.7550   39.7390 C   0  0  0  0  0  0  0  0  0  0  0  0
   35.4850   29.7140   39.4900 C   0  0  0  0  0  0  0  0  0  0  0  0
   34.2380   29.0400   39.1250 C   0  0  0  0  0  0  0  0  0  0  0  0
   34.4230   28.1410   37.9210 C   0  0  0  0  0  0  0  0  0  0  0  0
   35.6560   27.3260   37.9710 C   0  0  0  0  0  0  0  0  0  0  0  0
   36.2920   27.3590   39.3430 C   0  0  0  0  0  0  0  0  0  0  0  0
   37.4210   29.1670   39.1070 H   0  0  0  0  0  0  0  0  0  0  0  0
   35.7240   30.4650   38.7170 H   0  0  0  0  0  0  0  0  0  0  0  0
   35.3230   30.2940   40.4220 H   0  0  0  0  0  0  0  0  0  0  0  0
   33.7330   28.5180   39.9590 H   0  0  0  0  0  0  0  0  0  0  0  0
   33.4970   29.8270   38.8030 H   0  0  0  0  0  0  0  0  0  0  0  0
   33.5510   27.4320   37.9300 H   0  0  0  0  0  0  0  0  0  0  0  0
   34.4090   28.7940   37.0180 H   0  0  0  0  0  0  0  0  0  0  0  0
   36.4230   27.7150   37.2490 H   0  0  0  0  0  0  0  0  0  0  0  0
   35.5120   26.2520   37.7180 H   0  0  0  0  0  0  0  0  0  0  0  0
   35.4940   26.9720   40.0350 H   0  0  0  0  0  0  0  0  0  0  0  0
   37.1580   26.6760   39.3750 H   0  0  0  0  0  0  0  0  0  0  0  0
   38.7010   30.5790   40.7230 O   0  0  0  0  0  0  0  0  0  0  0  0
   38.9330   31.9260   40.8570 C   0  0  0  0  0  0  0  0  0  0  0  0
   38.9270   32.3400   41.8720 H   0  0  0  0  0  0  0  0  0  0  0  0
   38.0890   32.4590   40.3290 H   0  0  0  0  0  0  0  0  0  0  0  0
   40.1840   32.4160   40.1590 C   0  0  0  0  0  0  0  0  0  0  0  0
   40.8180   31.5520   39.9290 H   0  0  0  0  0  0  0  0  0  0  0  0
   40.7290   33.1030   40.8640 H   0  0  0  0  0  0  0  0  0  0  0  0
   39.8800   33.2190   38.9960 N   0  0  0  0  0  0  0  0  0  0  0  0
   38.8830   33.2410   38.7760 H   0  0  0  0  0  0  0  0  0  0  0  0
   40.5450   32.3920   37.6100 S   0  0  0  0  0  0  0  0  0  0  0  0
   41.7090   33.1490   37.0450 O   0  0  0  0  0  0  0  0  0  0  0  0
   42.5420   33.3220   37.5490 H   0  0  0  0  0  0  0  0  0  0  0  0
   39.4470   32.2820   36.5960 O   0  0  0  0  0  0  0  0  0  0  0  0
   39.3860   31.5020   35.9920 H   0  0  0  0  0  0  0  0  0  0  0  0
   41.0060   30.8420   38.0130 O   0  0  0  0  0  0  0  0  0  0  0  0
   40.4550   29.6820   37.5460 C   0  0  0  0  0  3  0  0  0  0  0  0
   39.4720   28.7970   37.6080 C   0  0  0  0  0  3  0  0  0  0  0  0
   39.3890   27.5980   36.7650 C   0  0  0  0  0  2  0  0  0  0  0  0
   38.7250   27.6790   35.8910 H   0  0  0  0  0  0  0  0  0  0  0  0
  1  2  2  0  0  0  0
  1  6  1  0  0  0  0
  2  3  1  0  0  0  0
  3  7  1  0  0  0  0
  3  4  2  0  0  0  0
  5  4  1  0  0  0  0
  5  8  1  0  0  0  0
  6  5  2  0  0  0  0
  9  1  1  0  0  0  0
 10  9  1  0  0  0  0
 10 17  1  0  0  0  0
 11 10  1  0  0  0  0
 11 18  1  0  0  0  0
 12 20  1  0  0  0  0
 12 13  1  0  0  0  0
 12 11  1  0  0  0  0
 13 14  1  0  0  0  0
 14 25  1  0  0  0  0
 14  9  1  0  0  0  0
 14 24  1  0  0  0  0
 15  9  1  0  0  0  0
 16 10  1  0  0  0  0
 19 11  1  0  0  0  0
 21 12  1  0  0  0  0
 22 13  1  0  0  0  0
 23 13  1  0  0  0  0
 26 27  1  0  0  0  0
 26  2  1  0  0  0  0
 27 28  1  0  0  0  0
 29 27  1  0  0  0  0
 30 27  1  0  0  0  0
 30 32  1  0  0  0  0
 31 30  1  0  0  0  0
 33 30  1  0  0  0  0
 34 33  1  0  0  0  0
 35 40  1  0  0  0  0
 35 33  1  0  0  0  0
 36 37  1  0  0  0  0
 36 35  1  0  0  0  0
 38 35  1  0  0  0  0
 39 38  1  0  0  0  0
 41 42  2  0  0  0  0
 41 40  1  0  0  0  0
 43 42  1  0  0  0  0
 44 43  1  0  0  0  0
M  END
>  <minimizedAffinity>
-4.99548388

$$$$

 OpenBabel03242514213D

 44 45  0  0  0  0  0  0  0  0999 V2000
   37.7000   31.6880   39.9920 C   0  0  0  0  0  0  0  0  0  0  0  0
   38.8660   31.8520   40.6990 C   0  0  0  0  0  0  0  0  0  0  0  0
   39.3350   33.1220   40.8490 C   0  0  0  0  0  0  0  0  0  0  0  0
   38.6400   34.1600   40.3020 N   0  0  0  0  0  0  0  0  0  0  0  0
   37.5250   34.0040   39.6260 C   0  0  0  0  0  0  0  0  0  0  0  0
   37.0750   32.7710   39.4840 N   0  0  0  0  0  0  0  0  0  0  0  0
   40.2170   33.4730   41.3580 H   0  0  0  0  0  0  0  0  0  0  0  0
   36.9650   34.8350   39.1870 H   0  0  0  0  0  0  0  0  0  0  0  0
   37.1600   30.3250   39.8950 C   0  0  0  0  0  0  0  0  0  0  0  0
   37.0510   29.8720   38.4700 C   0  0  0  0  0  0  0  0  0  0  0  0
   35.6660   29.6500   38.0530 C   0  0  0  0  0  0  0  0  0  0  0  0
   34.9610   28.6650   38.9610 C   0  0  0  0  0  0  0  0  0  0  0  0
   35.2170   28.8950   40.3990 C   0  0  0  0  0  0  0  0  0  0  0  0
   35.8790   30.2320   40.6420 C   0  0  0  0  0  0  0  0  0  0  0  0
   37.9100   29.6260   40.3130 H   0  0  0  0  0  0  0  0  0  0  0  0
   37.6360   28.9590   38.2640 H   0  0  0  0  0  0  0  0  0  0  0  0
   37.5000   30.6580   37.8300 H   0  0  0  0  0  0  0  0  0  0  0  0
   35.0740   30.5720   37.9020 H   0  0  0  0  0  0  0  0  0  0  0  0
   35.6820   29.1630   37.0340 H   0  0  0  0  0  0  0  0  0  0  0  0
   33.8620   28.8180   38.7860 H   0  0  0  0  0  0  0  0  0  0  0  0
   35.2850   27.6440   38.6530 H   0  0  0  0  0  0  0  0  0  0  0  0
   35.9070   28.1110   40.8140 H   0  0  0  0  0  0  0  0  0  0  0  0
   34.3080   28.8740   41.0410 H   0  0  0  0  0  0  0  0  0  0  0  0
   35.1650   30.9860   40.2080 H   0  0  0  0  0  0  0  0  0  0  0  0
   35.9790   30.4140   41.7270 H   0  0  0  0  0  0  0  0  0  0  0  0
   39.6700   30.9740   41.2920 O   0  0  0  0  0  0  0  0  0  0  0  0
   40.7180   30.1960   40.8660 C   0  0  0  0  0  0  0  0  0  0  0  0
   41.7320   30.5600   41.0710 H   0  0  0  0  0  0  0  0  0  0  0  0
   40.6560   30.1500   39.7390 H   0  0  0  0  0  0  0  0  0  0  0  0
   40.6410   28.7500   41.3080 C   0  0  0  0  0  0  0  0  0  0  0  0
   41.0410   28.6740   42.3260 H   0  0  0  0  0  0  0  0  0  0  0  0
   41.2780   28.1390   40.6090 H   0  0  0  0  0  0  0  0  0  0  0  0
   39.3050   28.2120   41.1850 N   0  0  0  0  0  0  0  0  0  0  0  0
   38.6520   28.8640   40.7490 H   0  0  0  0  0  0  0  0  0  0  0  0
   38.6570   28.0640   42.7990 S   0  0  0  0  0  0  0  0  0  0  0  0
   38.1350   29.3820   43.2860 O   0  0  0  0  0  0  0  0  0  0  0  0
   37.3900   29.8660   42.8530 H   0  0  0  0  0  0  0  0  0  0  0  0
   39.7730   27.5820   43.6770 O   0  0  0  0  0  0  0  0  0  0  0  0
   39.5960   26.9860   44.4460 H   0  0  0  0  0  0  0  0  0  0  0  0
   37.4540   26.9140   42.8490 O   0  0  0  0  0  0  0  0  0  0  0  0
   37.4220   25.7380   42.1530 C   0  0  0  0  0  3  0  0  0  0  0  0
   36.8180   24.5840   41.9180 C   0  0  0  0  0  3  0  0  0  0  0  0
   37.2870   23.5920   40.9420 C   0  0  0  0  0  2  0  0  0  0  0  0
   36.7720   23.6040   39.9700 H   0  0  0  0  0  0  0  0  0  0  0  0
  1  2  1  0  0  0  0
  2  3  2  0  0  0  0
  2 26  1  0  0  0  0
  3  7  1  0  0  0  0
  4  3  1  0  0  0  0
  5  4  2  0  0  0  0
  6  5  1  0  0  0  0
  6  1  2  0  0  0  0
  8  5  1  0  0  0  0
  9  1  1  0  0  0  0
  9 15  1  0  0  0  0
  9 14  1  0  0  0  0
 10  9  1  0  0  0  0
 11 10  1  0  0  0  0
 11 12  1  0  0  0  0
 12 13  1  0  0  0  0
 13 14  1  0  0  0  0
 13 22  1  0  0  0  0
 13 23  1  0  0  0  0
 14 25  1  0  0  0  0
 16 10  1  0  0  0  0
 17 10  1  0  0  0  0
 18 11  1  0  0  0  0
 19 11  1  0  0  0  0
 20 12  1  0  0  0  0
 21 12  1  0  0  0  0
 24 14  1  0  0  0  0
 27 28  1  0  0  0  0
 27 26  1  0  0  0  0
 27 30  1  0  0  0  0
 29 27  1  0  0  0  0
 30 31  1  0  0  0  0
 32 30  1  0  0  0  0
 33 30  1  0  0  0  0
 33 35  1  0  0  0  0
 34 33  1  0  0  0  0
 35 40  1  0  0  0  0
 35 36  1  0  0  0  0
 35 38  1  0  0  0  0
 37 36  1  0  0  0  0
 38 39  1  0  0  0  0
 41 40  1  0  0  0  0
 42 41  2  0  0  0  0
 43 42  1  0  0  0  0
 44 43  1  0  0  0  0
M  END
>  <minimizedAffinity>
-4.92129898

$$$$

 OpenBabel03242514213D

 44 45  0  0  0  0  0  0  0  0999 V2000
   38.4890   27.9170   42.1030 C   0  0  0  0  0  0  0  0  0  0  0  0
   38.2850   29.2630   42.2840 C   0  0  0  0  0  0  0  0  0  0  0  0
   39.3450   30.0070   42.7060 C   0  0  0  0  0  0  0  0  0  0  0  0
   40.5440   29.3980   42.9270 N   0  0  0  0  0  0  0  0  0  0  0  0
   40.7400   28.1110   42.7550 C   0  0  0  0  0  0  0  0  0  0  0  0
   39.7100   27.3940   42.3450 N   0  0  0  0  0  0  0  0  0  0  0  0
   39.4050   31.0640   42.9080 H   0  0  0  0  0  0  0  0  0  0  0  0
   41.7020   27.6180   42.9310 H   0  0  0  0  0  0  0  0  0  0  0  0
   37.3650   27.1320   41.5790 C   0  0  0  0  0  0  0  0  0  0  0  0
   37.0400   25.9660   42.4650 C   0  0  0  0  0  0  0  0  0  0  0  0
   37.2750   24.6780   41.8120 C   0  0  0  0  0  0  0  0  0  0  0  0
   36.5080   24.5630   40.5120 C   0  0  0  0  0  0  0  0  0  0  0  0
   36.5740   25.7800   39.6740 C   0  0  0  0  0  0  0  0  0  0  0  0
   37.6300   26.7430   40.1690 C   0  0  0  0  0  0  0  0  0  0  0  0
   36.4490   27.7490   41.6490 H   0  0  0  0  0  0  0  0  0  0  0  0
   36.0040   25.9910   42.8430 H   0  0  0  0  0  0  0  0  0  0  0  0
   37.6830   26.0390   43.3660 H   0  0  0  0  0  0  0  0  0  0  0  0
   38.3400   24.4070   41.6910 H   0  0  0  0  0  0  0  0  0  0  0  0
   36.8600   23.8680   42.4800 H   0  0  0  0  0  0  0  0  0  0  0  0
   36.9990   23.7330   39.9380 H   0  0  0  0  0  0  0  0  0  0  0  0
   35.4540   24.3120   40.7730 H   0  0  0  0  0  0  0  0  0  0  0  0
   35.5970   26.3340   39.6930 H   0  0  0  0  0  0  0  0  0  0  0  0
   36.8000   25.5920   38.6010 H   0  0  0  0  0  0  0  0  0  0  0  0
   38.5870   26.1520   40.1440 H   0  0  0  0  0  0  0  0  0  0  0  0
   37.7170   27.5980   39.4770 H   0  0  0  0  0  0  0  0  0  0  0  0
   37.2040   30.0210   42.1230 O   0  0  0  0  0  0  0  0  0  0  0  0
   36.5430   30.5260   41.0320 C   0  0  0  0  0  0  0  0  0  0  0  0
   35.5770   31.0150   41.2090 H   0  0  0  0  0  0  0  0  0  0  0  0
   36.2970   29.6500   40.3610 H   0  0  0  0  0  0  0  0  0  0  0  0
   37.3790   31.4420   40.1640 C   0  0  0  0  0  0  0  0  0  0  0  0
   37.9280   32.1340   40.8130 H   0  0  0  0  0  0  0  0  0  0  0  0
   36.6810   32.0260   39.5010 H   0  0  0  0  0  0  0  0  0  0  0  0
   38.2410   30.7070   39.2660 N   0  0  0  0  0  0  0  0  0  0  0  0
   39.2330   30.8280   39.4770 H   0  0  0  0  0  0  0  0  0  0  0  0
   38.1040   31.4530   37.6940 S   0  0  0  0  0  0  0  0  0  0  0  0
   39.4580   31.7450   37.1230 O   0  0  0  0  0  0  0  0  0  0  0  0
   40.1240   31.0450   36.9160 H   0  0  0  0  0  0  0  0  0  0  0  0
   37.3240   32.7200   37.8760 O   0  0  0  0  0  0  0  0  0  0  0  0
   36.7180   33.0530   37.1690 H   0  0  0  0  0  0  0  0  0  0  0  0
   37.2380   30.4820   36.6530 O   0  0  0  0  0  0  0  0  0  0  0  0
   36.1990   29.6570   36.9840 C   0  0  0  0  0  3  0  0  0  0  0  0
   35.4760   29.0810   37.9320 C   0  0  0  0  0  3  0  0  0  0  0  0
   34.3440   28.1830   37.6740 C   0  0  0  0  0  2  0  0  0  0  0  0
   33.3480   28.6430   37.7480 H   0  0  0  0  0  0  0  0  0  0  0  0
  1  2  2  0  0  0  0
  1  6  1  0  0  0  0
  2  3  1  0  0  0  0
  3  7  1  0  0  0  0
  3  4  2  0  0  0  0
  5  4  1  0  0  0  0
  5  8  1  0  0  0  0
  6  5  2  0  0  0  0
  9 15  1  0  0  0  0
  9  1  1  0  0  0  0
  9 10  1  0  0  0  0
 10 16  1  0  0  0  0
 10 17  1  0  0  0  0
 11 10  1  0  0  0  0
 11 19  1  0  0  0  0
 12 21  1  0  0  0  0
 12 11  1  0  0  0  0
 13 22  1  0  0  0  0
 13 14  1  0  0  0  0
 13 12  1  0  0  0  0
 14  9  1  0  0  0  0
 18 11  1  0  0  0  0
 20 12  1  0  0  0  0
 23 13  1  0  0  0  0
 24 14  1  0  0  0  0
 25 14  1  0  0  0  0
 26  2  1  0  0  0  0
 27 28  1  0  0  0  0
 27 26  1  0  0  0  0
 29 27  1  0  0  0  0
 30 31  1  0  0  0  0
 30 27  1  0  0  0  0
 32 30  1  0  0  0  0
 33 34  1  0  0  0  0
 33 30  1  0  0  0  0
 35 38  1  0  0  0  0
 35 33  1  0  0  0  0
 36 35  1  0  0  0  0
 37 36  1  0  0  0  0
 39 38  1  0  0  0  0
 40 41  1  0  0  0  0
 40 35  1  0  0  0  0
 41 42  2  0  0  0  0
 43 44  1  0  0  0  0
 43 42  1  0  0  0  0
M  END
>  <minimizedAffinity>
-4.84426594

$$$$
