
 OpenBabel03252504083D

 17 17  0  0  0  0  0  0  0  0999 V2000
   38.9060   28.4900   42.9220 C   0  0  0  0  0  0  0  0  0  0  0  0
   37.7070   28.7460   42.2440 C   0  0  0  0  0  0  0  0  0  0  0  0
   37.6230   29.9260   41.4950 C   0  0  0  0  0  0  0  0  0  0  0  0
   38.6910   30.7570   41.4610 N   0  0  0  0  0  0  0  0  0  0  0  0
   39.8240   30.4710   42.1290 C   0  0  0  0  0  0  0  0  0  0  0  0
   39.9460   29.3370   42.8670 N   0  0  0  0  0  0  0  0  0  0  0  0
   36.7010   30.1270   40.9700 H   0  0  0  0  0  0  0  0  0  0  0  0
   40.5970   31.1950   42.0310 H   0  0  0  0  0  0  0  0  0  0  0  0
   36.5990   27.7670   42.3510 C   0  0  0  0  0  0  0  0  0  0  0  0
   36.2110   27.6290   43.6770 F   0  0  0  0  0  0  0  0  0  0  0  0
   35.5070   28.2790   41.6680 F   0  0  0  0  0  0  0  0  0  0  0  0
   36.9080   26.5240   41.8800 F   0  0  0  0  0  0  0  0  0  0  0  0
   38.9880   27.3410   43.6470 O   0  0  0  0  0  0  0  0  0  0  0  0
   40.2370   26.7120   43.6800 C   0  0  0  0  0  3  0  0  0  0  0  0
   40.5150   25.4740   43.3660 C   0  0  0  0  0  3  0  0  0  0  0  0
   39.4110   24.6060   42.9210 C   0  0  0  0  0  2  0  0  0  0  0  0
   38.8880   24.2010   43.8180 H   0  0  0  0  0  0  0  0  0  0  0  0
  1 13  1  0  0  0  0
  2  9  1  0  0  0  0
  2  1  2  0  0  0  0
  3  2  1  0  0  0  0
  4  3  2  0  0  0  0
  4  5  1  0  0  0  0
  5  6  2  0  0  0  0
  6  1  1  0  0  0  0
  7  3  1  0  0  0  0
  8  5  1  0  0  0  0
  9 10  1  0  0  0  0
 11  9  1  0  0  0  0
 12  9  1  0  0  0  0
 13 14  1  0  0  0  0
 15 14  2  0  0  0  0
 16 15  1  0  0  0  0
 16 17  1  0  0  0  0
M  END
>  <minimizedAffinity>
-4.08634806

$$$$

 OpenBabel03252504083D

 17 17  0  0  0  0  0  0  0  0999 V2000
   39.1380   27.4230   43.2670 C   0  0  0  0  0  0  0  0  0  0  0  0
   38.4910   26.2400   42.8880 C   0  0  0  0  0  0  0  0  0  0  0  0
   39.2470   25.0620   42.8720 C   0  0  0  0  0  0  0  0  0  0  0  0
   40.5550   25.1180   43.2190 N   0  0  0  0  0  0  0  0  0  0  0  0
   41.1360   26.2790   43.5760 C   0  0  0  0  0  0  0  0  0  0  0  0
   40.4370   27.4440   43.6040 N   0  0  0  0  0  0  0  0  0  0  0  0
   38.7530   24.1470   42.5810 H   0  0  0  0  0  0  0  0  0  0  0  0
   42.1670   26.2050   43.8280 H   0  0  0  0  0  0  0  0  0  0  0  0
   37.0540   26.2920   42.5260 C   0  0  0  0  0  0  0  0  0  0  0  0
   36.9010   26.8340   41.2570 F   0  0  0  0  0  0  0  0  0  0  0  0
   36.5800   24.9910   42.4630 F   0  0  0  0  0  0  0  0  0  0  0  0
   36.2910   27.0290   43.3850 F   0  0  0  0  0  0  0  0  0  0  0  0
   38.4020   28.5670   43.2860 O   0  0  0  0  0  0  0  0  0  0  0  0
   38.8810   29.6310   42.5140 C   0  0  0  0  0  3  0  0  0  0  0  0
   38.2120   30.3680   41.6680 C   0  0  0  0  0  3  0  0  0  0  0  0
   36.7820   30.0760   41.4740 C   0  0  0  0  0  2  0  0  0  0  0  0
   36.6800   29.2430   40.7400 H   0  0  0  0  0  0  0  0  0  0  0  0
  1 13  1  0  0  0  0
  1  6  1  0  0  0  0
  2  1  2  0  0  0  0
  3  2  1  0  0  0  0
  3  4  2  0  0  0  0
  4  5  1  0  0  0  0
  5  6  2  0  0  0  0
  5  8  1  0  0  0  0
  7  3  1  0  0  0  0
  9  2  1  0  0  0  0
  9 12  1  0  0  0  0
 10  9  1  0  0  0  0
 11  9  1  0  0  0  0
 14 13  1  0  0  0  0
 15 14  2  0  0  0  0
 16 15  1  0  0  0  0
 17 16  1  0  0  0  0
M  END
>  <minimizedAffinity>
-4.06628323

$$$$

 OpenBabel03252504083D

 17 17  0  0  0  0  0  0  0  0999 V2000
   38.2060   29.1200   42.4500 C   0  0  0  0  0  0  0  0  0  0  0  0
   38.4530   27.7570   42.6560 C   0  0  0  0  0  0  0  0  0  0  0  0
   39.7780   27.3620   42.8760 C   0  0  0  0  0  0  0  0  0  0  0  0
   40.7500   28.3040   42.8780 N   0  0  0  0  0  0  0  0  0  0  0  0
   40.4670   29.6050   42.6750 C   0  0  0  0  0  0  0  0  0  0  0  0
   39.1940   30.0280   42.4580 N   0  0  0  0  0  0  0  0  0  0  0  0
   39.9730   26.3130   43.0360 H   0  0  0  0  0  0  0  0  0  0  0  0
   41.3080   30.2560   42.6980 H   0  0  0  0  0  0  0  0  0  0  0  0
   37.3140   26.8090   42.6320 C   0  0  0  0  0  0  0  0  0  0  0  0
   36.7400   26.7850   41.3670 F   0  0  0  0  0  0  0  0  0  0  0  0
   37.8080   25.5360   42.8690 F   0  0  0  0  0  0  0  0  0  0  0  0
   36.3260   27.1040   43.5270 F   0  0  0  0  0  0  0  0  0  0  0  0
   36.9180   29.5030   42.2400 O   0  0  0  0  0  0  0  0  0  0  0  0
   36.7010   30.4270   41.2120 C   0  0  0  0  0  3  0  0  0  0  0  0
   35.8310   30.3490   40.2390 C   0  0  0  0  0  3  0  0  0  0  0  0
   34.9570   29.1650   40.1840 C   0  0  0  0  0  2  0  0  0  0  0  0
   35.5060   28.3350   39.6810 H   0  0  0  0  0  0  0  0  0  0  0  0
  1  6  2  0  0  0  0
  1  2  1  0  0  0  0
  2  3  2  0  0  0  0
  3  4  1  0  0  0  0
  3  7  1  0  0  0  0
  5  8  1  0  0  0  0
  5  4  2  0  0  0  0
  6  5  1  0  0  0  0
  9  2  1  0  0  0  0
  9 11  1  0  0  0  0
  9 12  1  0  0  0  0
 10  9  1  0  0  0  0
 13  1  1  0  0  0  0
 14 13  1  0  0  0  0
 15 14  2  0  0  0  0
 16 15  1  0  0  0  0
 17 16  1  0  0  0  0
M  END
>  <minimizedAffinity>
-4.03659201

$$$$

 OpenBabel03252504083D

 17 17  0  0  0  0  0  0  0  0999 V2000
   36.9430   30.6040   40.7880 C   0  0  0  0  0  0  0  0  0  0  0  0
   36.3770   30.0530   39.6300 C   0  0  0  0  0  0  0  0  0  0  0  0
   36.6400   30.6900   38.4120 C   0  0  0  0  0  0  0  0  0  0  0  0
   37.4200   31.7970   38.4060 N   0  0  0  0  0  0  0  0  0  0  0  0
   37.9430   32.2920   39.5440 C   0  0  0  0  0  0  0  0  0  0  0  0
   37.7110   31.7030   40.7460 N   0  0  0  0  0  0  0  0  0  0  0  0
   36.2070   30.2690   37.5170 H   0  0  0  0  0  0  0  0  0  0  0  0
   38.5390   33.1640   39.4210 H   0  0  0  0  0  0  0  0  0  0  0  0
   35.5370   28.8380   39.7500 C   0  0  0  0  0  0  0  0  0  0  0  0
   34.9320   28.5540   38.5320 F   0  0  0  0  0  0  0  0  0  0  0  0
   36.3690   27.7680   40.0400 F   0  0  0  0  0  0  0  0  0  0  0  0
   34.5500   28.9340   40.6880 F   0  0  0  0  0  0  0  0  0  0  0  0
   36.6890   29.9830   41.9710 O   0  0  0  0  0  0  0  0  0  0  0  0
   37.7850   29.4050   42.6210 C   0  0  0  0  0  3  0  0  0  0  0  0
   37.8180   28.2760   43.2780 C   0  0  0  0  0  3  0  0  0  0  0  0
   36.5770   27.4880   43.3680 C   0  0  0  0  0  2  0  0  0  0  0  0
   35.9560   27.8880   44.2020 H   0  0  0  0  0  0  0  0  0  0  0  0
  1 13  1  0  0  0  0
  2  9  1  0  0  0  0
  2  1  2  0  0  0  0
  3  2  1  0  0  0  0
  4  3  2  0  0  0  0
  4  5  1  0  0  0  0
  5  6  2  0  0  0  0
  6  1  1  0  0  0  0
  7  3  1  0  0  0  0
  8  5  1  0  0  0  0
  9 11  1  0  0  0  0
  9 12  1  0  0  0  0
 10  9  1  0  0  0  0
 13 14  1  0  0  0  0
 14 15  2  0  0  0  0
 15 16  1  0  0  0  0
 16 17  1  0  0  0  0
M  END
>  <minimizedAffinity>
-4.02794218

$$$$

 OpenBabel03252504083D

 17 17  0  0  0  0  0  0  0  0999 V2000
   38.5510   30.2870   41.7960 C   0  0  0  0  0  0  0  0  0  0  0  0
   38.2430   31.3310   40.9130 C   0  0  0  0  0  0  0  0  0  0  0  0
   39.2310   32.2930   40.6740 C   0  0  0  0  0  0  0  0  0  0  0  0
   40.4260   32.1740   41.2990 N   0  0  0  0  0  0  0  0  0  0  0  0
   40.6780   31.1550   42.1410 C   0  0  0  0  0  0  0  0  0  0  0  0
   39.7460   30.2010   42.4000 N   0  0  0  0  0  0  0  0  0  0  0  0
   38.9980   33.0980   39.9930 H   0  0  0  0  0  0  0  0  0  0  0  0
   41.6490   31.1620   42.5760 H   0  0  0  0  0  0  0  0  0  0  0  0
   36.9020   31.3640   40.2820 C   0  0  0  0  0  0  0  0  0  0  0  0
   36.7140   30.2320   39.4990 F   0  0  0  0  0  0  0  0  0  0  0  0
   35.9520   31.3120   41.2910 F   0  0  0  0  0  0  0  0  0  0  0  0
   36.6870   32.4540   39.4900 F   0  0  0  0  0  0  0  0  0  0  0  0
   37.5910   29.3510   42.0260 O   0  0  0  0  0  0  0  0  0  0  0  0
   37.5270   28.8280   43.3220 C   0  0  0  0  0  3  0  0  0  0  0  0
   37.2750   27.5950   43.6730 C   0  0  0  0  0  3  0  0  0  0  0  0
   37.0240   26.6080   42.6090 C   0  0  0  0  0  2  0  0  0  0  0  0
   35.9560   26.6760   42.2980 H   0  0  0  0  0  0  0  0  0  0  0  0
  1 13  1  0  0  0  0
  1  6  1  0  0  0  0
  2  1  2  0  0  0  0
  3  2  1  0  0  0  0
  3  4  2  0  0  0  0
  4  5  1  0  0  0  0
  5  6  2  0  0  0  0
  5  8  1  0  0  0  0
  7  3  1  0  0  0  0
  9  2  1  0  0  0  0
  9 11  1  0  0  0  0
 10  9  1  0  0  0  0
 12  9  1  0  0  0  0
 13 14  1  0  0  0  0
 14 15  2  0  0  0  0
 16 15  1  0  0  0  0
 17 16  1  0  0  0  0
M  END
>  <minimizedAffinity>
-3.99246716

$$$$

 OpenBabel03252504083D

 17 17  0  0  0  0  0  0  0  0999 V2000
   38.2190   30.7010   41.0900 C   0  0  0  0  0  0  0  0  0  0  0  0
   37.1930   30.9170   40.1610 C   0  0  0  0  0  0  0  0  0  0  0  0
   37.0740   32.1980   39.6100 C   0  0  0  0  0  0  0  0  0  0  0  0
   37.9450   33.1600   39.9950 N   0  0  0  0  0  0  0  0  0  0  0  0
   38.9170   32.9080   40.8930 C   0  0  0  0  0  0  0  0  0  0  0  0
   39.0650   31.6780   41.4510 N   0  0  0  0  0  0  0  0  0  0  0  0
   36.2860   32.3690   38.8920 H   0  0  0  0  0  0  0  0  0  0  0  0
   39.5420   33.7370   41.1220 H   0  0  0  0  0  0  0  0  0  0  0  0
   36.2940   29.7920   39.8100 C   0  0  0  0  0  0  0  0  0  0  0  0
   35.3300   29.6260   40.7980 F   0  0  0  0  0  0  0  0  0  0  0  0
   35.6180   30.1280   38.6480 F   0  0  0  0  0  0  0  0  0  0  0  0
   36.9330   28.5960   39.6530 F   0  0  0  0  0  0  0  0  0  0  0  0
   38.3350   29.4550   41.6230 O   0  0  0  0  0  0  0  0  0  0  0  0
   38.1930   29.3530   43.0120 C   0  0  0  0  0  3  0  0  0  0  0  0
   37.4760   28.4880   43.6790 C   0  0  0  0  0  3  0  0  0  0  0  0
   36.7140   27.4850   42.9170 C   0  0  0  0  0  2  0  0  0  0  0  0
   35.7510   27.9390   42.5860 H   0  0  0  0  0  0  0  0  0  0  0  0
  1  6  1  0  0  0  0
  1 13  1  0  0  0  0
  2  1  2  0  0  0  0
  3  4  2  0  0  0  0
  3  2  1  0  0  0  0
  4  5  1  0  0  0  0
  5  8  1  0  0  0  0
  5  6  2  0  0  0  0
  7  3  1  0  0  0  0
  9  2  1  0  0  0  0
  9 10  1  0  0  0  0
 11  9  1  0  0  0  0
 12  9  1  0  0  0  0
 13 14  1  0  0  0  0
 14 15  2  0  0  0  0
 16 15  1  0  0  0  0
 17 16  1  0  0  0  0
M  END
>  <minimizedAffinity>
-3.97373939

$$$$

 OpenBabel03252504083D

 17 17  0  0  0  0  0  0  0  0999 V2000
   38.6080   26.2040   42.7410 C   0  0  0  0  0  0  0  0  0  0  0  0
   38.2440   27.5540   42.6540 C   0  0  0  0  0  0  0  0  0  0  0  0
   39.2330   28.5120   42.9080 C   0  0  0  0  0  0  0  0  0  0  0  0
   40.4820   28.0960   43.2240 N   0  0  0  0  0  0  0  0  0  0  0  0
   40.7880   26.7870   43.2970 C   0  0  0  0  0  0  0  0  0  0  0  0
   39.8570   25.8270   43.0570 N   0  0  0  0  0  0  0  0  0  0  0  0
   38.9570   29.5540   42.8420 H   0  0  0  0  0  0  0  0  0  0  0  0
   41.7980   26.5760   43.5530 H   0  0  0  0  0  0  0  0  0  0  0  0
   36.8460   27.8990   42.3010 C   0  0  0  0  0  0  0  0  0  0  0  0
   36.4730   27.2420   41.1350 F   0  0  0  0  0  0  0  0  0  0  0  0
   36.0200   27.4240   43.3070 F   0  0  0  0  0  0  0  0  0  0  0  0
   36.6340   29.2330   42.1090 F   0  0  0  0  0  0  0  0  0  0  0  0
   37.6480   25.2740   42.4900 O   0  0  0  0  0  0  0  0  0  0  0  0
   38.0720   24.0860   41.8840 C   0  0  0  0  0  3  0  0  0  0  0  0
   37.4770   23.4220   40.9290 C   0  0  0  0  0  3  0  0  0  0  0  0
   36.2090   23.9530   40.4000 C   0  0  0  0  0  2  0  0  0  0  0  0
   35.3770   23.6270   41.0650 H   0  0  0  0  0  0  0  0  0  0  0  0
  1  6  1  0  0  0  0
  2  1  2  0  0  0  0
  2  3  1  0  0  0  0
  3  4  2  0  0  0  0
  4  5  1  0  0  0  0
  5  8  1  0  0  0  0
  6  5  2  0  0  0  0
  7  3  1  0  0  0  0
  9  2  1  0  0  0  0
  9 11  1  0  0  0  0
 10  9  1  0  0  0  0
 12  9  1  0  0  0  0
 13  1  1  0  0  0  0
 14 13  1  0  0  0  0
 15 14  2  0  0  0  0
 16 15  1  0  0  0  0
 16 17  1  0  0  0  0
M  END
>  <minimizedAffinity>
-3.91627693

$$$$

 OpenBabel03252504083D

 17 17  0  0  0  0  0  0  0  0999 V2000
   38.4150   29.6370   41.4310 C   0  0  0  0  0  0  0  0  0  0  0  0
   37.1000   29.1710   41.5600 C   0  0  0  0  0  0  0  0  0  0  0  0
   36.8680   28.1200   42.4540 C   0  0  0  0  0  0  0  0  0  0  0  0
   37.9110   27.6070   43.1470 N   0  0  0  0  0  0  0  0  0  0  0  0
   39.1600   28.0850   42.9910 C   0  0  0  0  0  0  0  0  0  0  0  0
   39.4270   29.1040   42.1330 N   0  0  0  0  0  0  0  0  0  0  0  0
   35.8560   27.7590   42.5580 H   0  0  0  0  0  0  0  0  0  0  0  0
   39.9010   27.6070   43.5850 H   0  0  0  0  0  0  0  0  0  0  0  0
   36.0320   29.8060   40.7510 C   0  0  0  0  0  0  0  0  0  0  0  0
   34.8590   29.0680   40.8470 F   0  0  0  0  0  0  0  0  0  0  0  0
   35.7630   31.0510   41.2970 F   0  0  0  0  0  0  0  0  0  0  0  0
   36.3350   29.9290   39.4260 F   0  0  0  0  0  0  0  0  0  0  0  0
   38.6400   30.6610   40.5630 O   0  0  0  0  0  0  0  0  0  0  0  0
   39.0600   31.8730   41.1220 C   0  0  0  0  0  3  0  0  0  0  0  0
   38.6630   33.0770   40.8060 C   0  0  0  0  0  3  0  0  0  0  0  0
   37.6560   33.2180   39.7400 C   0  0  0  0  0  2  0  0  0  0  0  0
   38.1710   33.1910   38.7520 H   0  0  0  0  0  0  0  0  0  0  0  0
  1  2  2  0  0  0  0
  1  6  1  0  0  0  0
  2  3  1  0  0  0  0
  3  7  1  0  0  0  0
  3  4  2  0  0  0  0
  5  4  1  0  0  0  0
  5  8  1  0  0  0  0
  6  5  2  0  0  0  0
  9 10  1  0  0  0  0
  9 11  1  0  0  0  0
  9  2  1  0  0  0  0
 12  9  1  0  0  0  0
 13 14  1  0  0  0  0
 13  1  1  0  0  0  0
 15 14  2  0  0  0  0
 16 15  1  0  0  0  0
 17 16  1  0  0  0  0
M  END
>  <minimizedAffinity>
-3.86838722

$$$$

 OpenBabel03252504083D

 17 17  0  0  0  0  0  0  0  0999 V2000
   36.5240   29.4220   40.9680 C   0  0  0  0  0  0  0  0  0  0  0  0
   36.0770   29.7640   39.6850 C   0  0  0  0  0  0  0  0  0  0  0  0
   36.7330   30.8110   39.0260 C   0  0  0  0  0  0  0  0  0  0  0  0
   37.7570   31.4380   39.6510 N   0  0  0  0  0  0  0  0  0  0  0  0
   38.1530   31.0760   40.8860 C   0  0  0  0  0  0  0  0  0  0  0  0
   37.5420   30.0650   41.5580 N   0  0  0  0  0  0  0  0  0  0  0  0
   36.3930   31.0780   38.0370 H   0  0  0  0  0  0  0  0  0  0  0  0
   38.9670   31.6370   41.2790 H   0  0  0  0  0  0  0  0  0  0  0  0
   34.9450   29.0110   39.0940 C   0  0  0  0  0  0  0  0  0  0  0  0
   34.6440   29.5140   37.8350 F   0  0  0  0  0  0  0  0  0  0  0  0
   35.3510   27.6990   38.9120 F   0  0  0  0  0  0  0  0  0  0  0  0
   33.8020   29.0510   39.8390 F   0  0  0  0  0  0  0  0  0  0  0  0
   35.8880   28.4030   41.6060 O   0  0  0  0  0  0  0  0  0  0  0  0
   36.6150   27.7360   42.5980 C   0  0  0  0  0  3  0  0  0  0  0  0
   37.2350   26.5890   42.4970 C   0  0  0  0  0  3  0  0  0  0  0  0
   37.1840   25.8840   41.2060 C   0  0  0  0  0  2  0  0  0  0  0  0
   36.2320   25.3090   41.1460 H   0  0  0  0  0  0  0  0  0  0  0  0
  1  6  1  0  0  0  0
  1 13  1  0  0  0  0
  2  1  2  0  0  0  0
  3  4  2  0  0  0  0
  3  2  1  0  0  0  0
  4  5  1  0  0  0  0
  5  8  1  0  0  0  0
  5  6  2  0  0  0  0
  7  3  1  0  0  0  0
  9  2  1  0  0  0  0
  9 12  1  0  0  0  0
 10  9  1  0  0  0  0
 11  9  1  0  0  0  0
 13 14  1  0  0  0  0
 15 14  2  0  0  0  0
 16 15  1  0  0  0  0
 17 16  1  0  0  0  0
M  END
>  <minimizedAffinity>
-3.80686665

$$$$
