
 OpenBabel03242514193D

 44 45  0  0  0  0  0  0  0  0999 V2000
   46.1270   34.5420   43.6320 C   0  0  0  0  0  0  0  0  0  0  0  0
   46.1090   33.7770   44.7730 C   0  0  0  0  0  0  0  0  0  0  0  0
   45.2940   34.1820   45.7860 C   0  0  0  0  0  0  0  0  0  0  0  0
   44.5430   35.3080   45.6310 N   0  0  0  0  0  0  0  0  0  0  0  0
   44.5590   36.0400   44.5410 C   0  0  0  0  0  0  0  0  0  0  0  0
   45.3500   35.6440   43.5610 N   0  0  0  0  0  0  0  0  0  0  0  0
   45.1290   33.7360   46.7540 H   0  0  0  0  0  0  0  0  0  0  0  0
   43.9550   36.9450   44.4130 H   0  0  0  0  0  0  0  0  0  0  0  0
   46.9510   34.0630   42.5150 C   0  0  0  0  0  0  0  0  0  0  0  0
   48.3450   34.6130   42.5780 C   0  0  0  0  0  0  0  0  0  0  0  0
   48.6560   35.4950   41.4530 C   0  0  0  0  0  0  0  0  0  0  0  0
   48.4360   34.8030   40.1240 C   0  0  0  0  0  0  0  0  0  0  0  0
   47.1790   34.0250   40.0600 C   0  0  0  0  0  0  0  0  0  0  0  0
   46.2670   34.3400   41.2250 C   0  0  0  0  0  0  0  0  0  0  0  0
   47.1140   32.9760   42.6470 H   0  0  0  0  0  0  0  0  0  0  0  0
   49.1140   33.8230   42.6350 H   0  0  0  0  0  0  0  0  0  0  0  0
   48.4400   35.1840   43.5240 H   0  0  0  0  0  0  0  0  0  0  0  0
   48.1650   36.4850   41.4920 H   0  0  0  0  0  0  0  0  0  0  0  0
   49.7580   35.7330   41.4900 H   0  0  0  0  0  0  0  0  0  0  0  0
   48.3620   35.6230   39.3600 H   0  0  0  0  0  0  0  0  0  0  0  0
   49.3210   34.1530   39.9420 H   0  0  0  0  0  0  0  0  0  0  0  0
   47.3890   32.9220   40.1020 H   0  0  0  0  0  0  0  0  0  0  0  0
   46.5790   34.1890   39.1380 H   0  0  0  0  0  0  0  0  0  0  0  0
   46.0890   35.4490   41.1540 H   0  0  0  0  0  0  0  0  0  0  0  0
   45.3050   33.8120   41.1050 H   0  0  0  0  0  0  0  0  0  0  0  0
   46.7650   32.6680   45.1010 O   0  0  0  0  0  0  0  0  0  0  0  0
   47.2530   32.1570   46.2780 C   0  0  0  0  0  0  0  0  0  0  0  0
   46.8710   32.5880   47.2110 H   0  0  0  0  0  0  0  0  0  0  0  0
   48.3610   32.3780   46.2970 H   0  0  0  0  0  0  0  0  0  0  0  0
   47.1670   30.6500   46.3870 C   0  0  0  0  0  0  0  0  0  0  0  0
   47.1370   30.3770   47.4480 H   0  0  0  0  0  0  0  0  0  0  0  0
   48.0910   30.2140   45.9150 H   0  0  0  0  0  0  0  0  0  0  0  0
   46.0570   30.1100   45.6340 N   0  0  0  0  0  0  0  0  0  0  0  0
   45.5700   30.8170   45.0800 H   0  0  0  0  0  0  0  0  0  0  0  0
   44.8330   29.6370   46.7860 S   0  0  0  0  0  0  0  0  0  0  0  0
   43.6120   29.1240   46.0850 O   0  0  0  0  0  0  0  0  0  0  0  0
   43.6130   28.3220   45.5070 H   0  0  0  0  0  0  0  0  0  0  0  0
   44.5030   30.8530   47.5990 O   0  0  0  0  0  0  0  0  0  0  0  0
   44.2510   30.7770   48.5520 H   0  0  0  0  0  0  0  0  0  0  0  0
   45.4240   28.4840   47.8340 O   0  0  0  0  0  0  0  0  0  0  0  0
   45.9210   27.2570   47.4970 C   0  0  0  0  0  3  0  0  0  0  0  0
   46.9770   26.5070   47.2190 C   0  0  0  0  0  3  0  0  0  0  0  0
   46.9070   25.0770   46.8900 C   0  0  0  0  0  2  0  0  0  0  0  0
   47.1360   24.3890   47.7170 H   0  0  0  0  0  0  0  0  0  0  0  0
  1  2  1  0  0  0  0
  2 26  1  0  0  0  0
  2  3  2  0  0  0  0
  3  7  1  0  0  0  0
  4  3  1  0  0  0  0
  5  4  2  0  0  0  0
  6  1  2  0  0  0  0
  6  5  1  0  0  0  0
  8  5  1  0  0  0  0
  9 10  1  0  0  0  0
  9 15  1  0  0  0  0
  9  1  1  0  0  0  0
 10 16  1  0  0  0  0
 10 17  1  0  0  0  0
 11 19  1  0  0  0  0
 11 18  1  0  0  0  0
 11 10  1  0  0  0  0
 12 11  1  0  0  0  0
 13 22  1  0  0  0  0
 13 12  1  0  0  0  0
 13 14  1  0  0  0  0
 14  9  1  0  0  0  0
 20 12  1  0  0  0  0
 21 12  1  0  0  0  0
 23 13  1  0  0  0  0
 24 14  1  0  0  0  0
 25 14  1  0  0  0  0
 26 27  1  0  0  0  0
 27 29  1  0  0  0  0
 27 30  1  0  0  0  0
 27 28  1  0  0  0  0
 30 31  1  0  0  0  0
 32 30  1  0  0  0  0
 33 30  1  0  0  0  0
 33 35  1  0  0  0  0
 34 33  1  0  0  0  0
 35 38  1  0  0  0  0
 35 40  1  0  0  0  0
 36 35  1  0  0  0  0
 37 36  1  0  0  0  0
 38 39  1  0  0  0  0
 41 40  1  0  0  0  0
 42 41  2  0  0  0  0
 43 42  1  0  0  0  0
 43 44  1  0  0  0  0
M  END
>  <minimizedAffinity>
-5.2633028

>  <minimizedRMSD>
0.931117952

$$$$
