
 OpenBabel03252504083D

 17 17  0  0  0  0  0  0  0  0999 V2000
   46.0240   32.7650   44.1460 C   0  0  0  0  0  0  0  0  0  0  0  0
   47.1800   32.6700   43.3600 C   0  0  0  0  0  0  0  0  0  0  0  0
   48.0990   31.6620   43.6750 C   0  0  0  0  0  0  0  0  0  0  0  0
   47.8340   30.8350   44.7130 N   0  0  0  0  0  0  0  0  0  0  0  0
   46.7100   30.9630   45.4430 C   0  0  0  0  0  0  0  0  0  0  0  0
   45.7930   31.9280   45.1700 N   0  0  0  0  0  0  0  0  0  0  0  0
   48.9910   31.5840   43.0710 H   0  0  0  0  0  0  0  0  0  0  0  0
   46.6060   30.2590   46.2340 H   0  0  0  0  0  0  0  0  0  0  0  0
   47.3710   33.6290   42.2460 C   0  0  0  0  0  0  0  0  0  0  0  0
   46.1900   33.7670   41.5280 F   0  0  0  0  0  0  0  0  0  0  0  0
   47.6510   34.8720   42.7940 F   0  0  0  0  0  0  0  0  0  0  0  0
   48.3500   33.2720   41.3660 F   0  0  0  0  0  0  0  0  0  0  0  0
   45.1300   33.7420   43.8390 O   0  0  0  0  0  0  0  0  0  0  0  0
   44.9130   34.7210   44.8150 C   0  0  0  0  0  3  0  0  0  0  0  0
   44.7950   36.0110   44.6390 C   0  0  0  0  0  3  0  0  0  0  0  0
   44.8990   36.5360   43.2670 C   0  0  0  0  0  2  0  0  0  0  0  0
   45.9760   36.6570   43.0070 H   0  0  0  0  0  0  0  0  0  0  0  0
  1  6  1  0  0  0  0
  2  3  1  0  0  0  0
  2  1  2  0  0  0  0
  3  4  2  0  0  0  0
  4  5  1  0  0  0  0
  5  8  1  0  0  0  0
  6  5  2  0  0  0  0
  7  3  1  0  0  0  0
  9 11  1  0  0  0  0
  9  2  1  0  0  0  0
 10  9  1  0  0  0  0
 12  9  1  0  0  0  0
 13  1  1  0  0  0  0
 13 14  1  0  0  0  0
 15 14  2  0  0  0  0
 16 15  1  0  0  0  0
 17 16  1  0  0  0  0
M  END
>  <minimizedAffinity>
-3.05404663

>  <minimizedRMSD>
2.59778905

$$$$
