
 OpenBabel03252505413D

 27 29  0  0  1  0  0  0  0  0999 V2000
   37.5830   28.8870   43.0510 C   0  0  1  0  0  0  0  0  0  0  0  0
   36.7410   27.7680   43.6790 C   0  0  0  0  0  0  0  0  0  0  0  0
   38.1230   27.5340   43.1640 C   0  0  1  0  0  0  0  0  0  0  0  0
   37.9350   29.6760   43.7530 H   0  0  0  0  0  0  0  0  0  0  0  0
   35.8520   27.4560   43.1110 H   0  0  0  0  0  0  0  0  0  0  0  0
   36.5680   27.8980   44.7660 H   0  0  0  0  0  0  0  0  0  0  0  0
   38.8890   27.3730   43.9810 H   0  0  0  0  0  0  0  0  0  0  0  0
   37.0420   29.4550   41.8000 C   0  0  0  0  0  0  0  0  0  0  0  0
   35.9140   28.7960   41.2490 C   0  0  0  0  0  0  0  0  0  0  0  0
   35.3710   29.3170   40.0870 C   0  0  0  0  0  0  0  0  0  0  0  0
   35.9550   30.4310   39.5440 N   0  0  0  0  0  0  0  0  0  0  0  0
   37.0250   31.0220   40.1020 C   0  0  0  0  0  0  0  0  0  0  0  0
   37.5610   30.5250   41.2310 N   0  0  0  0  0  0  0  0  0  0  0  0
   35.4240   27.9110   41.6350 H   0  0  0  0  0  0  0  0  0  0  0  0
   34.5150   28.8570   39.6260 H   0  0  0  0  0  0  0  0  0  0  0  0
   37.5060   32.2240   39.3510 C   0  0  0  0  0  0  0  0  0  0  0  0
   36.9260   33.3790   39.8100 F   0  0  0  0  0  0  0  0  0  0  0  0
   37.2160   32.0850   37.9920 F   0  0  0  0  0  0  0  0  0  0  0  0
   38.8950   32.2810   39.4380 F   0  0  0  0  0  0  0  0  0  0  0  0
   38.1300   26.5330   42.0620 C   0  0  0  0  0  0  0  0  0  0  0  0
   37.3090   25.4270   42.1470 C   0  0  0  0  0  0  0  0  0  0  0  0
   36.5940   25.0970   42.9160 H   0  0  0  0  0  0  0  0  0  0  0  0
   37.4970   24.6560   41.0070 C   0  0  0  0  0  0  0  0  0  0  0  0
   37.0520   23.7200   40.6880 H   0  0  0  0  0  0  0  0  0  0  0  0
   38.4310   25.3460   40.2870 C   0  0  0  0  0  0  0  0  0  0  0  0
   38.8220   25.0330   39.3280 H   0  0  0  0  0  0  0  0  0  0  0  0
   38.7670   26.4160   40.9260 O   0  0  0  0  0  0  0  0  0  0  0  0
  1  3  1  0  0  0  0
  1  2  1  0  0  0  0
  1  4  1  1  0  0  0
  2  6  1  0  0  0  0
  3  2  1  0  0  0  0
  3  7  1  1  0  0  0
  5  2  1  0  0  0  0
  8  1  1  0  0  0  0
  9 14  1  0  0  0  0
  9  8  1  0  0  0  0
 10  9  2  0  0  0  0
 11 10  1  0  0  0  0
 11 12  2  0  0  0  0
 12 13  1  0  0  0  0
 13  8  2  0  0  0  0
 15 10  1  0  0  0  0
 16 19  1  0  0  0  0
 16 17  1  0  0  0  0
 16 12  1  0  0  0  0
 18 16  1  0  0  0  0
 20 21  2  0  0  0  0
 20  3  1  0  0  0  0
 21 22  1  0  0  0  0
 23 21  1  0  0  0  0
 24 23  1  0  0  0  0
 25 27  1  0  0  0  0
 25 23  2  0  0  0  0
 26 25  1  0  0  0  0
 27 20  1  0  0  0  0
M  END
>  <minimizedAffinity>
-5.18857574

$$$$

 OpenBabel03252505413D

 27 29  0  0  1  0  0  0  0  0999 V2000
   36.8700   25.3870   42.3430 C   0  0  1  0  0  0  0  0  0  0  0  0
   37.1450   24.7220   40.9870 C   0  0  0  0  0  0  0  0  0  0  0  0
   37.9850   24.4550   42.1920 C   0  0  1  0  0  0  0  0  0  0  0  0
   35.9450   25.0540   42.8640 H   0  0  0  0  0  0  0  0  0  0  0  0
   37.4860   25.3890   40.1820 H   0  0  0  0  0  0  0  0  0  0  0  0
   36.3650   23.9960   40.6820 H   0  0  0  0  0  0  0  0  0  0  0  0
   37.8300   23.4240   42.6330 H   0  0  0  0  0  0  0  0  0  0  0  0
   37.0240   26.8560   42.3640 C   0  0  0  0  0  0  0  0  0  0  0  0
   37.8140   27.3890   43.4130 C   0  0  0  0  0  0  0  0  0  0  0  0
   37.9930   28.7620   43.4480 C   0  0  0  0  0  0  0  0  0  0  0  0
   37.3980   29.5150   42.4710 N   0  0  0  0  0  0  0  0  0  0  0  0
   36.6560   28.9660   41.4960 C   0  0  0  0  0  0  0  0  0  0  0  0
   36.4750   27.6340   41.4510 N   0  0  0  0  0  0  0  0  0  0  0  0
   38.2960   26.8370   44.2100 H   0  0  0  0  0  0  0  0  0  0  0  0
   38.5830   29.2200   44.2220 H   0  0  0  0  0  0  0  0  0  0  0  0
   36.0980   29.9660   40.5320 C   0  0  0  0  0  0  0  0  0  0  0  0
   36.8930   30.1060   39.4230 F   0  0  0  0  0  0  0  0  0  0  0  0
   35.9710   31.2100   41.1540 F   0  0  0  0  0  0  0  0  0  0  0  0
   34.8040   29.5810   40.1860 F   0  0  0  0  0  0  0  0  0  0  0  0
   39.4000   24.8600   41.9690 C   0  0  0  0  0  0  0  0  0  0  0  0
   40.3160   24.7110   42.9900 C   0  0  0  0  0  0  0  0  0  0  0  0
   40.2180   24.3280   44.0180 H   0  0  0  0  0  0  0  0  0  0  0  0
   41.5510   25.1540   42.5350 C   0  0  0  0  0  0  0  0  0  0  0  0
   42.5210   25.2060   43.0180 H   0  0  0  0  0  0  0  0  0  0  0  0
   41.3120   25.5490   41.2500 C   0  0  0  0  0  0  0  0  0  0  0  0
   42.0610   25.9550   40.5820 H   0  0  0  0  0  0  0  0  0  0  0  0
   40.0670   25.3640   40.9640 O   0  0  0  0  0  0  0  0  0  0  0  0
  1  8  1  0  0  0  0
  1  4  1  1  0  0  0
  2  3  1  0  0  0  0
  2  1  1  0  0  0  0
  3  1  1  0  0  0  0
  3  7  1  1  0  0  0
  5  2  1  0  0  0  0
  6  2  1  0  0  0  0
  8  9  1  0  0  0  0
  9 10  2  0  0  0  0
  9 14  1  0  0  0  0
 10 15  1  0  0  0  0
 11 10  1  0  0  0  0
 12 11  2  0  0  0  0
 13 12  1  0  0  0  0
 13  8  2  0  0  0  0
 16 18  1  0  0  0  0
 16 12  1  0  0  0  0
 17 16  1  0  0  0  0
 19 16  1  0  0  0  0
 20  3  1  0  0  0  0
 20 21  2  0  0  0  0
 21 22  1  0  0  0  0
 23 21  1  0  0  0  0
 23 24  1  0  0  0  0
 25 23  2  0  0  0  0
 26 25  1  0  0  0  0
 27 25  1  0  0  0  0
 27 20  1  0  0  0  0
M  END
>  <minimizedAffinity>
-5.13200712

$$$$

 OpenBabel03252505413D

 27 29  0  0  1  0  0  0  0  0999 V2000
   37.5390   28.4480   43.1710 C   0  0  1  0  0  0  0  0  0  0  0  0
   36.5400   27.3990   43.6800 C   0  0  0  0  0  0  0  0  0  0  0  0
   37.9180   27.0380   43.2340 C   0  0  1  0  0  0  0  0  0  0  0  0
   37.9290   29.1530   43.9380 H   0  0  0  0  0  0  0  0  0  0  0  0
   35.6610   27.2210   43.0430 H   0  0  0  0  0  0  0  0  0  0  0  0
   36.3120   27.4900   44.7600 H   0  0  0  0  0  0  0  0  0  0  0  0
   38.6070   26.7480   44.0830 H   0  0  0  0  0  0  0  0  0  0  0  0
   37.1450   29.1390   41.9270 C   0  0  0  0  0  0  0  0  0  0  0  0
   37.8770   30.3090   41.6010 C   0  0  0  0  0  0  0  0  0  0  0  0
   37.5440   30.9690   40.4300 C   0  0  0  0  0  0  0  0  0  0  0  0
   36.5330   30.4520   39.6630 N   0  0  0  0  0  0  0  0  0  0  0  0
   35.8670   29.3390   40.0120 C   0  0  0  0  0  0  0  0  0  0  0  0
   36.1800   28.6900   41.1470 N   0  0  0  0  0  0  0  0  0  0  0  0
   38.6750   30.7590   42.1770 H   0  0  0  0  0  0  0  0  0  0  0  0
   38.0670   31.8610   40.1340 H   0  0  0  0  0  0  0  0  0  0  0  0
   34.8020   28.9470   39.0360 C   0  0  0  0  0  0  0  0  0  0  0  0
   34.8890   27.6220   38.6900 F   0  0  0  0  0  0  0  0  0  0  0  0
   34.9070   29.7220   37.8790 F   0  0  0  0  0  0  0  0  0  0  0  0
   33.5580   29.2500   39.5840 F   0  0  0  0  0  0  0  0  0  0  0  0
   37.8860   26.1030   42.0750 C   0  0  0  0  0  0  0  0  0  0  0  0
   36.9870   25.0560   42.0750 C   0  0  0  0  0  0  0  0  0  0  0  0
   36.2280   24.7360   42.8060 H   0  0  0  0  0  0  0  0  0  0  0  0
   37.1540   24.3390   40.8980 C   0  0  0  0  0  0  0  0  0  0  0  0
   36.6520   23.4580   40.5130 H   0  0  0  0  0  0  0  0  0  0  0  0
   38.1540   24.9990   40.2420 C   0  0  0  0  0  0  0  0  0  0  0  0
   38.5500   24.7140   39.2760 H   0  0  0  0  0  0  0  0  0  0  0  0
   38.5470   26.0040   40.9510 O   0  0  0  0  0  0  0  0  0  0  0  0
  1  3  1  0  0  0  0
  1  2  1  0  0  0  0
  1  4  1  1  0  0  0
  2  6  1  0  0  0  0
  3  2  1  0  0  0  0
  3  7  1  1  0  0  0
  5  2  1  0  0  0  0
  8  1  1  0  0  0  0
  9  8  1  0  0  0  0
  9 14  1  0  0  0  0
 10  9  2  0  0  0  0
 11 12  2  0  0  0  0
 11 10  1  0  0  0  0
 12 13  1  0  0  0  0
 13  8  2  0  0  0  0
 15 10  1  0  0  0  0
 16 19  1  0  0  0  0
 16 12  1  0  0  0  0
 17 16  1  0  0  0  0
 18 16  1  0  0  0  0
 20 21  2  0  0  0  0
 20  3  1  0  0  0  0
 21 22  1  0  0  0  0
 23 21  1  0  0  0  0
 24 23  1  0  0  0  0
 25 23  2  0  0  0  0
 25 27  1  0  0  0  0
 26 25  1  0  0  0  0
 27 20  1  0  0  0  0
M  END
>  <minimizedAffinity>
-5.07665586

$$$$

 OpenBabel03252505413D

 27 29  0  0  1  0  0  0  0  0999 V2000
   38.0010   28.3010   43.5410 C   0  0  1  0  0  0  0  0  0  0  0  0
   38.8050   29.4260   42.8750 C   0  0  0  0  0  0  0  0  0  0  0  0
   37.3360   29.2610   42.6640 C   0  0  1  0  0  0  0  0  0  0  0  0
   37.8730   28.3880   44.6430 H   0  0  0  0  0  0  0  0  0  0  0  0
   39.5370   29.1130   42.1160 H   0  0  0  0  0  0  0  0  0  0  0  0
   39.1810   30.1860   43.5890 H   0  0  0  0  0  0  0  0  0  0  0  0
   36.7130   30.0530   43.1780 H   0  0  0  0  0  0  0  0  0  0  0  0
   38.3760   26.9330   43.1300 C   0  0  0  0  0  0  0  0  0  0  0  0
   39.5780   26.4200   43.6800 C   0  0  0  0  0  0  0  0  0  0  0  0
   39.9460   25.1320   43.3280 C   0  0  0  0  0  0  0  0  0  0  0  0
   39.1290   24.4380   42.4760 N   0  0  0  0  0  0  0  0  0  0  0  0
   37.9980   24.9650   41.9790 C   0  0  0  0  0  0  0  0  0  0  0  0
   37.6300   26.2150   42.3120 N   0  0  0  0  0  0  0  0  0  0  0  0
   40.2590   26.9320   44.3470 H   0  0  0  0  0  0  0  0  0  0  0  0
   40.8480   24.6930   43.7160 H   0  0  0  0  0  0  0  0  0  0  0  0
   37.2540   24.0390   41.0680 C   0  0  0  0  0  0  0  0  0  0  0  0
   35.9330   23.9280   41.4210 F   0  0  0  0  0  0  0  0  0  0  0  0
   37.8360   22.7700   41.0990 F   0  0  0  0  0  0  0  0  0  0  0  0
   37.3960   24.4900   39.7580 F   0  0  0  0  0  0  0  0  0  0  0  0
   37.0180   29.0150   41.2300 C   0  0  0  0  0  0  0  0  0  0  0  0
   35.7020   28.8720   40.8430 C   0  0  0  0  0  0  0  0  0  0  0  0
   34.7590   28.9010   41.4120 H   0  0  0  0  0  0  0  0  0  0  0  0
   35.6710   28.6560   39.4720 C   0  0  0  0  0  0  0  0  0  0  0  0
   34.8470   28.4960   38.7850 H   0  0  0  0  0  0  0  0  0  0  0  0
   36.9850   28.6810   39.1000 C   0  0  0  0  0  0  0  0  0  0  0  0
   37.3400   28.5460   38.0860 H   0  0  0  0  0  0  0  0  0  0  0  0
   37.7250   28.8900   40.1360 O   0  0  0  0  0  0  0  0  0  0  0  0
  1  4  1  1  0  0  0
  2  1  1  0  0  0  0
  2  6  1  0  0  0  0
  3  2  1  0  0  0  0
  3  7  1  1  0  0  0
  3  1  1  0  0  0  0
  5  2  1  0  0  0  0
  8  1  1  0  0  0  0
  8  9  1  0  0  0  0
  9 14  1  0  0  0  0
 10  9  2  0  0  0  0
 10 15  1  0  0  0  0
 11 10  1  0  0  0  0
 12 13  1  0  0  0  0
 12 11  2  0  0  0  0
 13  8  2  0  0  0  0
 16 18  1  0  0  0  0
 16 17  1  0  0  0  0
 16 12  1  0  0  0  0
 19 16  1  0  0  0  0
 20  3  1  0  0  0  0
 21 20  2  0  0  0  0
 21 22  1  0  0  0  0
 23 21  1  0  0  0  0
 24 23  1  0  0  0  0
 25 23  2  0  0  0  0
 25 27  1  0  0  0  0
 26 25  1  0  0  0  0
 27 20  1  0  0  0  0
M  END
>  <minimizedAffinity>
-5.05672455

$$$$

 OpenBabel03252505413D

 27 29  0  0  1  0  0  0  0  0999 V2000
   38.2120   29.5860   38.1870 C   0  0  1  0  0  0  0  0  0  0  0  0
   37.5650   30.5680   37.2010 C   0  0  0  0  0  0  0  0  0  0  0  0
   38.8050   30.9020   37.9620 C   0  0  1  0  0  0  0  0  0  0  0  0
   38.6850   28.6880   37.7310 H   0  0  0  0  0  0  0  0  0  0  0  0
   36.5830   30.9680   37.4910 H   0  0  0  0  0  0  0  0  0  0  0  0
   37.6340   30.2450   36.1430 H   0  0  0  0  0  0  0  0  0  0  0  0
   39.7380   30.9210   37.3220 H   0  0  0  0  0  0  0  0  0  0  0  0
   37.3890   29.2450   39.3650 C   0  0  0  0  0  0  0  0  0  0  0  0
   35.9840   29.2400   39.1680 C   0  0  0  0  0  0  0  0  0  0  0  0
   35.1860   28.9050   40.2490 C   0  0  0  0  0  0  0  0  0  0  0  0
   35.8010   28.6000   41.4350 N   0  0  0  0  0  0  0  0  0  0  0  0
   37.1370   28.6180   41.5750 C   0  0  0  0  0  0  0  0  0  0  0  0
   37.9220   28.9420   40.5330 N   0  0  0  0  0  0  0  0  0  0  0  0
   35.4540   29.4820   38.2560 H   0  0  0  0  0  0  0  0  0  0  0  0
   34.1150   28.8860   40.1560 H   0  0  0  0  0  0  0  0  0  0  0  0
   37.6000   28.2540   42.9500 C   0  0  0  0  0  0  0  0  0  0  0  0
   38.1000   29.3380   43.6250 F   0  0  0  0  0  0  0  0  0  0  0  0
   38.5940   27.2750   42.8750 F   0  0  0  0  0  0  0  0  0  0  0  0
   36.5410   27.6670   43.6390 F   0  0  0  0  0  0  0  0  0  0  0  0
   38.5990   32.0830   38.8450 C   0  0  0  0  0  0  0  0  0  0  0  0
   37.3860   32.7400   38.8250 C   0  0  0  0  0  0  0  0  0  0  0  0
   36.4630   32.5660   38.2500 H   0  0  0  0  0  0  0  0  0  0  0  0
   37.4460   33.7930   39.7280 C   0  0  0  0  0  0  0  0  0  0  0  0
   36.7150   34.5430   40.0100 H   0  0  0  0  0  0  0  0  0  0  0  0
   38.7050   33.7150   40.2500 C   0  0  0  0  0  0  0  0  0  0  0  0
   39.1050   34.3890   40.9970 H   0  0  0  0  0  0  0  0  0  0  0  0
   39.3340   32.7210   39.7190 O   0  0  0  0  0  0  0  0  0  0  0  0
  1  4  1  6  0  0  0
  1  8  1  0  0  0  0
  2  5  1  0  0  0  0
  2  3  1  0  0  0  0
  2  1  1  0  0  0  0
  3  7  1  6  0  0  0
  3  1  1  0  0  0  0
  3 20  1  0  0  0  0
  6  2  1  0  0  0  0
  8 13  1  0  0  0  0
  9  8  2  0  0  0  0
  9 10  1  0  0  0  0
 10 11  2  0  0  0  0
 11 12  1  0  0  0  0
 12 16  1  0  0  0  0
 13 12  2  0  0  0  0
 14  9  1  0  0  0  0
 15 10  1  0  0  0  0
 16 17  1  0  0  0  0
 16 19  1  0  0  0  0
 18 16  1  0  0  0  0
 20 27  1  0  0  0  0
 21 20  2  0  0  0  0
 21 23  1  0  0  0  0
 22 21  1  0  0  0  0
 23 24  1  0  0  0  0
 23 25  2  0  0  0  0
 25 26  1  0  0  0  0
 27 25  1  0  0  0  0
M  END
>  <minimizedAffinity>
-4.88306189

$$$$

 OpenBabel03252505413D

 27 29  0  0  1  0  0  0  0  0999 V2000
   37.2770   28.6180   43.4130 C   0  0  1  0  0  0  0  0  0  0  0  0
   36.6930   27.3550   42.7670 C   0  0  0  0  0  0  0  0  0  0  0  0
   37.8730   27.3120   43.6800 C   0  0  1  0  0  0  0  0  0  0  0  0
   36.6420   29.0990   44.1900 H   0  0  0  0  0  0  0  0  0  0  0  0
   36.8030   27.2750   41.6750 H   0  0  0  0  0  0  0  0  0  0  0  0
   35.6870   27.0860   43.1460 H   0  0  0  0  0  0  0  0  0  0  0  0
   37.6450   26.8620   44.6930 H   0  0  0  0  0  0  0  0  0  0  0  0
   37.8430   29.6030   42.4690 C   0  0  0  0  0  0  0  0  0  0  0  0
   39.1140   30.1340   42.8030 C   0  0  0  0  0  0  0  0  0  0  0  0
   39.6800   31.0450   41.9270 C   0  0  0  0  0  0  0  0  0  0  0  0
   38.9780   31.3750   40.7970 N   0  0  0  0  0  0  0  0  0  0  0  0
   37.7750   30.8450   40.5210 C   0  0  0  0  0  0  0  0  0  0  0  0
   37.2150   29.9600   41.3640 N   0  0  0  0  0  0  0  0  0  0  0  0
   39.7000   29.9120   43.6850 H   0  0  0  0  0  0  0  0  0  0  0  0
   40.6420   31.4800   42.1310 H   0  0  0  0  0  0  0  0  0  0  0  0
   37.1830   31.3390   39.2380 C   0  0  0  0  0  0  0  0  0  0  0  0
   38.0810   31.2770   38.2040 F   0  0  0  0  0  0  0  0  0  0  0  0
   36.7570   32.6610   39.3860 F   0  0  0  0  0  0  0  0  0  0  0  0
   36.0340   30.6000   38.9620 F   0  0  0  0  0  0  0  0  0  0  0  0
   39.0770   26.7750   42.9870 C   0  0  0  0  0  0  0  0  0  0  0  0
   40.2660   26.6710   43.6780 C   0  0  0  0  0  0  0  0  0  0  0  0
   40.5390   26.9200   44.7160 H   0  0  0  0  0  0  0  0  0  0  0  0
   41.2240   26.1470   42.8210 C   0  0  0  0  0  0  0  0  0  0  0  0
   42.2730   25.9110   42.9690 H   0  0  0  0  0  0  0  0  0  0  0  0
   40.5550   25.9610   41.6450 C   0  0  0  0  0  0  0  0  0  0  0  0
   40.9980   25.5610   40.7420 H   0  0  0  0  0  0  0  0  0  0  0  0
   39.3270   26.3330   41.7820 O   0  0  0  0  0  0  0  0  0  0  0  0
  1  3  1  0  0  0  0
  1  4  1  1  0  0  0
  2  6  1  0  0  0  0
  2  1  1  0  0  0  0
  2  3  1  0  0  0  0
  3  7  1  1  0  0  0
  5  2  1  0  0  0  0
  8  9  1  0  0  0  0
  8  1  1  0  0  0  0
  9 14  1  0  0  0  0
 10 15  1  0  0  0  0
 10  9  2  0  0  0  0
 11 10  1  0  0  0  0
 12 11  2  0  0  0  0
 12 13  1  0  0  0  0
 13  8  2  0  0  0  0
 16 18  1  0  0  0  0
 16 12  1  0  0  0  0
 17 16  1  0  0  0  0
 19 16  1  0  0  0  0
 20 21  2  0  0  0  0
 20  3  1  0  0  0  0
 21 22  1  0  0  0  0
 23 24  1  0  0  0  0
 23 21  1  0  0  0  0
 25 27  1  0  0  0  0
 25 23  2  0  0  0  0
 26 25  1  0  0  0  0
 27 20  1  0  0  0  0
M  END
>  <minimizedAffinity>
-4.87897158

$$$$

 OpenBabel03252505413D

 27 29  0  0  1  0  0  0  0  0999 V2000
   38.2910   27.6880   42.7000 C   0  0  1  0  0  0  0  0  0  0  0  0
   36.9340   27.8190   43.4060 C   0  0  0  0  0  0  0  0  0  0  0  0
   37.0770   27.1830   42.0630 C   0  0  1  0  0  0  0  0  0  0  0  0
   39.0060   26.9700   43.1610 H   0  0  0  0  0  0  0  0  0  0  0  0
   36.5470   28.8420   43.5230 H   0  0  0  0  0  0  0  0  0  0  0  0
   36.8420   27.1880   44.3120 H   0  0  0  0  0  0  0  0  0  0  0  0
   36.9420   26.0600   42.0770 H   0  0  0  0  0  0  0  0  0  0  0  0
   38.9380   28.9660   42.3410 C   0  0  0  0  0  0  0  0  0  0  0  0
   40.3060   29.0970   42.6930 C   0  0  0  0  0  0  0  0  0  0  0  0
   40.9460   30.2770   42.3520 C   0  0  0  0  0  0  0  0  0  0  0  0
   40.2210   31.2390   41.6980 N   0  0  0  0  0  0  0  0  0  0  0  0
   38.9260   31.0700   41.3850 C   0  0  0  0  0  0  0  0  0  0  0  0
   38.2930   29.9290   41.7110 N   0  0  0  0  0  0  0  0  0  0  0  0
   40.9150   28.3720   43.2160 H   0  0  0  0  0  0  0  0  0  0  0  0
   41.9820   30.4300   42.5950 H   0  0  0  0  0  0  0  0  0  0  0  0
   38.3240   32.2410   40.6730 C   0  0  0  0  0  0  0  0  0  0  0  0
   38.7370   32.3120   39.3670 F   0  0  0  0  0  0  0  0  0  0  0  0
   38.6760   33.4270   41.3220 F   0  0  0  0  0  0  0  0  0  0  0  0
   36.9360   32.1560   40.7650 F   0  0  0  0  0  0  0  0  0  0  0  0
   36.2990   27.9180   41.0280 C   0  0  0  0  0  0  0  0  0  0  0  0
   36.4860   27.6140   39.6960 C   0  0  0  0  0  0  0  0  0  0  0  0
   37.1420   26.8860   39.1920 H   0  0  0  0  0  0  0  0  0  0  0  0
   35.6520   28.4270   38.9410 C   0  0  0  0  0  0  0  0  0  0  0  0
   35.4950   28.5040   37.8700 H   0  0  0  0  0  0  0  0  0  0  0  0
   34.9970   29.1870   39.8680 C   0  0  0  0  0  0  0  0  0  0  0  0
   34.2580   29.9420   39.6330 H   0  0  0  0  0  0  0  0  0  0  0  0
   35.3960   28.8650   41.0520 O   0  0  0  0  0  0  0  0  0  0  0  0
  1  4  1  1  0  0  0
  1  2  1  0  0  0  0
  2  5  1  0  0  0  0
  2  6  1  0  0  0  0
  3  7  1  6  0  0  0
  3  1  1  0  0  0  0
  3  2  1  0  0  0  0
  8  9  1  0  0  0  0
  8  1  1  0  0  0  0
  9 14  1  0  0  0  0
 10 15  1  0  0  0  0
 10  9  2  0  0  0  0
 11 10  1  0  0  0  0
 12 11  2  0  0  0  0
 12 13  1  0  0  0  0
 13  8  2  0  0  0  0
 16 19  1  0  0  0  0
 16 18  1  0  0  0  0
 16 12  1  0  0  0  0
 17 16  1  0  0  0  0
 20 27  1  0  0  0  0
 20  3  1  0  0  0  0
 21 20  2  0  0  0  0
 22 21  1  0  0  0  0
 23 21  1  0  0  0  0
 23 25  2  0  0  0  0
 24 23  1  0  0  0  0
 25 27  1  0  0  0  0
 26 25  1  0  0  0  0
M  END
>  <minimizedAffinity>
-4.78715515

$$$$

 OpenBabel03252505413D

 27 29  0  0  1  0  0  0  0  0999 V2000
   38.8360   28.8640   42.9470 C   0  0  1  0  0  0  0  0  0  0  0  0
   37.4810   28.4620   43.5460 C   0  0  0  0  0  0  0  0  0  0  0  0
   38.6500   27.5340   43.5210 C   0  0  1  0  0  0  0  0  0  0  0  0
   39.4050   29.6310   43.5180 H   0  0  0  0  0  0  0  0  0  0  0  0
   36.6490   28.3620   42.8340 H   0  0  0  0  0  0  0  0  0  0  0  0
   37.2250   29.0090   44.4750 H   0  0  0  0  0  0  0  0  0  0  0  0
   39.1150   27.3650   44.5390 H   0  0  0  0  0  0  0  0  0  0  0  0
   38.8240   29.1430   41.4970 C   0  0  0  0  0  0  0  0  0  0  0  0
   39.8660   28.5540   40.7370 C   0  0  0  0  0  0  0  0  0  0  0  0
   39.8710   28.7820   39.3710 C   0  0  0  0  0  0  0  0  0  0  0  0
   38.8730   29.5580   38.8420 N   0  0  0  0  0  0  0  0  0  0  0  0
   37.9060   30.0960   39.6030 C   0  0  0  0  0  0  0  0  0  0  0  0
   37.8900   29.8830   40.9300 N   0  0  0  0  0  0  0  0  0  0  0  0
   40.6780   27.9430   41.1090 H   0  0  0  0  0  0  0  0  0  0  0  0
   40.6370   28.3590   38.7460 H   0  0  0  0  0  0  0  0  0  0  0  0
   36.9160   30.9080   38.8270 C   0  0  0  0  0  0  0  0  0  0  0  0
   35.8150   30.1700   38.4740 F   0  0  0  0  0  0  0  0  0  0  0  0
   37.5130   31.4090   37.6680 F   0  0  0  0  0  0  0  0  0  0  0  0
   36.5610   32.0230   39.5830 F   0  0  0  0  0  0  0  0  0  0  0  0
   38.3530   26.3070   42.7310 C   0  0  0  0  0  0  0  0  0  0  0  0
   37.0460   26.0110   42.4050 C   0  0  0  0  0  0  0  0  0  0  0  0
   36.0980   26.5280   42.6200 H   0  0  0  0  0  0  0  0  0  0  0  0
   37.0360   24.8320   41.6730 C   0  0  0  0  0  0  0  0  0  0  0  0
   36.2230   24.2630   41.2320 H   0  0  0  0  0  0  0  0  0  0  0  0
   38.3510   24.4740   41.5960 C   0  0  0  0  0  0  0  0  0  0  0  0
   38.7210   23.5910   41.0900 H   0  0  0  0  0  0  0  0  0  0  0  0
   39.0740   25.3460   42.2150 O   0  0  0  0  0  0  0  0  0  0  0  0
  1  4  1  1  0  0  0
  1  3  1  0  0  0  0
  1  2  1  0  0  0  0
  2  6  1  0  0  0  0
  3  2  1  0  0  0  0
  3  7  1  1  0  0  0
  5  2  1  0  0  0  0
  8  1  1  0  0  0  0
  9 14  1  0  0  0  0
  9  8  2  0  0  0  0
 10  9  1  0  0  0  0
 11 10  2  0  0  0  0
 11 12  1  0  0  0  0
 12 13  2  0  0  0  0
 13  8  1  0  0  0  0
 15 10  1  0  0  0  0
 16 19  1  0  0  0  0
 16 12  1  0  0  0  0
 17 16  1  0  0  0  0
 18 16  1  0  0  0  0
 20  3  1  0  0  0  0
 21 22  1  0  0  0  0
 21 20  2  0  0  0  0
 23 21  1  0  0  0  0
 24 23  1  0  0  0  0
 25 23  2  0  0  0  0
 25 27  1  0  0  0  0
 26 25  1  0  0  0  0
 27 20  1  0  0  0  0
M  END
>  <minimizedAffinity>
-4.7797823

$$$$

 OpenBabel03252505413D

 27 29  0  0  1  0  0  0  0  0999 V2000
   35.5390   29.7480   39.7070 C   0  0  1  0  0  0  0  0  0  0  0  0
   35.7530   28.2460   39.4750 C   0  0  0  0  0  0  0  0  0  0  0  0
   35.5320   28.8200   40.8350 C   0  0  1  0  0  0  0  0  0  0  0  0
   34.5760   30.1610   39.3320 H   0  0  0  0  0  0  0  0  0  0  0  0
   36.7540   27.9490   39.1290 H   0  0  0  0  0  0  0  0  0  0  0  0
   34.9180   27.7560   38.9360 H   0  0  0  0  0  0  0  0  0  0  0  0
   34.5160   28.5770   41.2690 H   0  0  0  0  0  0  0  0  0  0  0  0
   36.6880   30.6080   39.3560 C   0  0  0  0  0  0  0  0  0  0  0  0
   37.0200   30.6810   37.9800 C   0  0  0  0  0  0  0  0  0  0  0  0
   38.0800   31.4950   37.6180 C   0  0  0  0  0  0  0  0  0  0  0  0
   38.7380   32.1760   38.6080 N   0  0  0  0  0  0  0  0  0  0  0  0
   38.3880   32.0750   39.9000 C   0  0  0  0  0  0  0  0  0  0  0  0
   37.3600   31.2880   40.2650 N   0  0  0  0  0  0  0  0  0  0  0  0
   36.5370   30.1560   37.1650 H   0  0  0  0  0  0  0  0  0  0  0  0
   38.3750   31.5870   36.5880 H   0  0  0  0  0  0  0  0  0  0  0  0
   39.2360   32.9010   40.8170 C   0  0  0  0  0  0  0  0  0  0  0  0
   38.6410   34.0990   41.1230 F   0  0  0  0  0  0  0  0  0  0  0  0
   40.4740   33.1530   40.2230 F   0  0  0  0  0  0  0  0  0  0  0  0
   39.5090   32.1600   41.9640 F   0  0  0  0  0  0  0  0  0  0  0  0
   36.6960   28.5670   41.7270 C   0  0  0  0  0  0  0  0  0  0  0  0
   37.5540   27.5240   41.4430 C   0  0  0  0  0  0  0  0  0  0  0  0
   37.5630   26.7780   40.6320 H   0  0  0  0  0  0  0  0  0  0  0  0
   38.5470   27.4990   42.4120 C   0  0  0  0  0  0  0  0  0  0  0  0
   39.4020   26.8460   42.5520 H   0  0  0  0  0  0  0  0  0  0  0  0
   38.2330   28.5400   43.2400 C   0  0  0  0  0  0  0  0  0  0  0  0
   38.8010   28.8210   44.1170 H   0  0  0  0  0  0  0  0  0  0  0  0
   37.1660   29.1260   42.8120 O   0  0  0  0  0  0  0  0  0  0  0  0
  1  4  1  6  0  0  0
  1  3  1  0  0  0  0
  2  1  1  0  0  0  0
  2  3  1  0  0  0  0
  3  7  1  1  0  0  0
  3 20  1  0  0  0  0
  5  2  1  0  0  0  0
  6  2  1  0  0  0  0
  8  1  1  0  0  0  0
  8 13  1  0  0  0  0
  9  8  2  0  0  0  0
 10  9  1  0  0  0  0
 10 11  2  0  0  0  0
 11 12  1  0  0  0  0
 12 13  2  0  0  0  0
 12 16  1  0  0  0  0
 14  9  1  0  0  0  0
 15 10  1  0  0  0  0
 16 17  1  0  0  0  0
 16 19  1  0  0  0  0
 18 16  1  0  0  0  0
 20 27  1  0  0  0  0
 21 20  2  0  0  0  0
 21 23  1  0  0  0  0
 22 21  1  0  0  0  0
 23 24  1  0  0  0  0
 23 25  2  0  0  0  0
 25 26  1  0  0  0  0
 27 25  1  0  0  0  0
M  END
>  <minimizedAffinity>
-4.74948406

$$$$
