
 OpenBabel03252508463D

 44 46  0  0  0  0  0  0  0  0999 V2000
   42.9790   32.5320   41.5200 C   0  0  0  0  0  0  0  0  0  0  0  0
   43.6010   31.7390   41.0060 H   0  0  0  0  0  0  0  0  0  0  0  0
   42.3730   33.0390   40.7340 H   0  0  0  0  0  0  0  0  0  0  0  0
   43.6940   34.9030   41.8330 C   0  0  0  0  0  0  0  0  0  0  0  0
   43.8640   33.5570   42.1360 C   0  0  0  0  0  0  0  0  0  0  0  0
   44.8630   33.2190   43.0100 C   0  0  0  0  0  0  0  0  0  0  0  0
   45.6640   34.1760   43.5660 C   0  0  0  0  0  0  0  0  0  0  0  0
   45.5110   35.5000   43.2800 C   0  0  0  0  0  0  0  0  0  0  0  0
   44.4920   35.8150   42.3900 C   0  0  0  0  0  0  0  0  0  0  0  0
   44.9850   32.1600   43.2400 H   0  0  0  0  0  0  0  0  0  0  0  0
   46.4590   33.9200   44.2600 H   0  0  0  0  0  0  0  0  0  0  0  0
   46.0980   36.3220   43.6710 H   0  0  0  0  0  0  0  0  0  0  0  0
   44.3130   36.8520   42.1160 H   0  0  0  0  0  0  0  0  0  0  0  0
   40.4110   35.9980   40.3010 C   0  0  0  0  0  0  0  0  0  0  0  0
   41.3850   35.7310   41.2810 C   0  0  0  0  0  0  0  0  0  0  0  0
   42.6140   35.2170   40.8930 C   0  0  0  0  0  0  0  0  0  0  0  0
   42.8100   34.9980   39.5660 N   0  0  0  0  0  0  0  0  0  0  0  0
   41.8650   35.2610   38.6350 C   0  0  0  0  0  0  0  0  0  0  0  0
   40.6770   35.7570   39.0120 N   0  0  0  0  0  0  0  0  0  0  0  0
   39.4550   36.4000   40.6170 H   0  0  0  0  0  0  0  0  0  0  0  0
   41.2150   35.9090   42.3320 H   0  0  0  0  0  0  0  0  0  0  0  0
   42.1190   35.0500   37.5940 H   0  0  0  0  0  0  0  0  0  0  0  0
   42.0460   31.9300   42.4370 N   0  0  0  0  0  0  0  0  0  0  0  0
   42.0790   32.4550   43.3450 H   0  0  0  0  0  0  0  0  0  0  0  0
   40.4280   32.0670   41.8890 S   0  0  0  0  0  0  0  0  0  0  0  0
   39.7000   33.1560   42.6220 O   0  0  0  0  0  0  0  0  0  0  0  0
   39.0680   33.8190   42.2150 H   0  0  0  0  0  0  0  0  0  0  0  0
   39.7070   30.7740   42.0300 O   0  0  0  0  0  0  0  0  0  0  0  0
   39.4570   30.4430   42.9510 H   0  0  0  0  0  0  0  0  0  0  0  0
   40.4910   32.4550   40.2600 O   0  0  0  0  0  0  0  0  0  0  0  0
   40.0310   31.3900   39.5210 C   0  0  0  0  0  0  0  0  0  0  0  0
   38.9960   31.5440   39.2010 H   0  0  0  0  0  0  0  0  0  0  0  0
   40.0670   30.4140   40.0220 H   0  0  0  0  0  0  0  0  0  0  0  0
   40.9350   31.2080   38.2900 C   0  0  0  0  0  0  0  0  0  0  0  0
   41.3980   32.1460   37.9920 H   0  0  0  0  0  0  0  0  0  0  0  0
   41.7500   30.4960   38.5970 H   0  0  0  0  0  0  0  0  0  0  0  0
   40.1630   30.5900   37.1980 C   0  0  0  0  0  0  0  0  0  0  0  0
   40.6260   29.6780   36.2890 C   0  0  0  0  0  0  0  0  0  0  0  0
   41.6290   29.2520   36.2130 H   0  0  0  0  0  0  0  0  0  0  0  0
   39.5430   29.3870   35.4570 C   0  0  0  0  0  0  0  0  0  0  0  0
   39.6540   28.6750   34.6370 H   0  0  0  0  0  0  0  0  0  0  0  0
   38.4800   30.1550   35.9250 C   0  0  0  0  0  0  0  0  0  0  0  0
   37.5640   30.0290   35.3670 H   0  0  0  0  0  0  0  0  0  0  0  0
   38.8850   30.8530   36.9540 O   0  0  0  0  0  0  0  0  0  0  0  0
  1  5  1  0  0  0  0
  1 23  1  0  0  0  0
  2  1  1  0  0  0  0
  3  1  1  0  0  0  0
  4  5  2  0  0  0  0
  4  9  1  0  0  0  0
  5  6  1  0  0  0  0
  6 10  1  0  0  0  0
  6  7  2  0  0  0  0
  7 11  1  0  0  0  0
  8  7  1  0  0  0  0
  8 12  1  0  0  0  0
  9  8  2  0  0  0  0
 13  9  1  0  0  0  0
 14 20  1  0  0  0  0
 14 15  1  0  0  0  0
 15 21  1  0  0  0  0
 16 15  2  0  0  0  0
 16  4  1  0  0  0  0
 17 16  1  0  0  0  0
 18 19  1  0  0  0  0
 18 17  2  0  0  0  0
 19 14  2  0  0  0  0
 22 18  1  0  0  0  0
 23 24  1  0  0  0  0
 25 28  1  0  0  0  0
 25 23  1  0  0  0  0
 25 26  1  0  0  0  0
 27 26  1  0  0  0  0
 28 29  1  0  0  0  0
 30 25  1  0  0  0  0
 31 33  1  0  0  0  0
 31 30  1  0  0  0  0
 32 31  1  0  0  0  0
 34 36  1  0  0  0  0
 34 31  1  0  0  0  0
 35 34  1  0  0  0  0
 37 34  1  0  0  0  0
 38 37  2  0  0  0  0
 39 38  1  0  0  0  0
 40 42  2  0  0  0  0
 40 38  1  0  0  0  0
 41 40  1  0  0  0  0
 42 44  1  0  0  0  0
 43 42  1  0  0  0  0
 44 37  1  0  0  0  0
M  END
>  <minimizedAffinity>
-5.12925673

>  <minimizedRMSD>
2.22917342

$$$$
