
 OpenBabel03242511063D

 26 28  0  0  1  0  0  0  0  0999 V2000
   46.0080   31.8990   45.2280 C   0  0  1  0  0  0  0  0  0  0  0  0
   45.5390   33.2190   44.6920 C   0  0  0  0  0  0  0  0  0  0  0  0
   47.0320   32.8570   44.7970 C   0  0  2  0  0  0  0  0  0  0  0  0
   45.7550   31.0370   44.5800 H   0  0  0  0  0  0  0  0  0  0  0  0
   45.1070   33.8810   45.4710 H   0  0  0  0  0  0  0  0  0  0  0  0
   45.0950   33.2590   43.6940 H   0  0  0  0  0  0  0  0  0  0  0  0
   47.5610   33.5110   45.5350 H   0  0  0  0  0  0  0  0  0  0  0  0
   45.9450   32.3020   48.9180 C   0  0  0  0  0  0  0  0  0  0  0  0
   45.5130   30.9930   49.3300 C   0  0  0  0  0  0  0  0  0  0  0  0
   45.2510   30.0160   48.3190 C   0  0  0  0  0  0  0  0  0  0  0  0
   45.4130   30.3460   47.0350 N   0  0  0  0  0  0  0  0  0  0  0  0
   45.8280   31.6070   46.6780 C   0  0  0  0  0  0  0  0  0  0  0  0
   46.0860   32.5650   47.6170 N   0  0  0  0  0  0  0  0  0  0  0  0
   46.1350   33.0160   49.7050 H   0  0  0  0  0  0  0  0  0  0  0  0
   45.3790   30.7180   50.3630 H   0  0  0  0  0  0  0  0  0  0  0  0
   44.9290   29.0500   48.6810 H   0  0  0  0  0  0  0  0  0  0  0  0
   47.7380   32.7410   43.5650 N   0  0  0  0  0  0  0  0  0  0  0  0
   47.7780   31.7890   43.1740 H   0  0  0  0  0  0  0  0  0  0  0  0
   48.3510   33.8430   42.9050 C   0  0  0  0  0  0  0  0  0  0  0  0
   47.7190   34.7290   42.0580 C   0  0  0  0  0  0  0  0  0  0  0  0
   46.6820   34.7660   41.7380 H   0  0  0  0  0  0  0  0  0  0  0  0
   48.6820   35.6440   41.6380 C   0  0  0  0  0  0  0  0  0  0  0  0
   48.6050   36.5030   40.9680 H   0  0  0  0  0  0  0  0  0  0  0  0
   49.8460   35.2440   42.2680 C   0  0  0  0  0  0  0  0  0  0  0  0
   50.8410   35.7030   42.2010 H   0  0  0  0  0  0  0  0  0  0  0  0
   49.6120   34.1760   43.0100 O   0  0  0  0  0  0  0  0  0  0  0  0
  1  4  1  6  0  0  0
  1 12  1  0  0  0  0
  2  3  1  0  0  0  0
  2  1  1  0  0  0  0
  2  5  1  0  0  0  0
  3  1  1  0  0  0  0
  3  7  1  1  0  0  0
  6  2  1  0  0  0  0
  8  9  1  0  0  0  0
  8 14  1  0  0  0  0
  9 15  1  0  0  0  0
 10 16  1  0  0  0  0
 10  9  2  0  0  0  0
 11 10  1  0  0  0  0
 12 11  2  0  0  0  0
 12 13  1  0  0  0  0
 13  8  2  0  0  0  0
 17  3  1  0  0  0  0
 18 17  1  0  0  0  0
 19 26  1  0  0  0  0
 19 17  1  0  0  0  0
 20 19  2  0  0  0  0
 21 20  1  0  0  0  0
 22 20  1  0  0  0  0
 22 24  2  0  0  0  0
 23 22  1  0  0  0  0
 24 26  1  0  0  0  0
 25 24  1  0  0  0  0
M  END
>  <minimizedAffinity>
-4.49262667

>  <minimizedRMSD>
6.5908432

$$$$
