
 OpenBabel03252509263D

 29 31  0  0  1  0  0  0  0  0999 V2000
   46.5890   35.0880   41.9120 C   0  0  1  0  0  0  0  0  0  0  0  0
   48.1270   35.2970   41.9150 C   0  0  0  0  0  0  0  0  0  0  0  0
   47.3610   34.0890   41.2950 C   0  0  2  0  0  0  0  0  0  0  0  0
   46.0880   35.9070   41.3750 H   0  0  0  0  0  0  0  0  0  0  0  0
   48.5440   35.9520   41.1370 H   0  0  0  0  0  0  0  0  0  0  0  0
   48.6910   35.0680   42.8230 H   0  0  0  0  0  0  0  0  0  0  0  0
   47.5150   33.1150   41.8430 H   0  0  0  0  0  0  0  0  0  0  0  0
   44.6580   35.4050   45.1080 C   0  0  0  0  0  0  0  0  0  0  0  0
   45.1310   35.7090   43.8040 C   0  0  0  0  0  0  0  0  0  0  0  0
   46.0750   34.8660   43.3100 C   0  0  0  0  0  0  0  0  0  0  0  0
   46.5380   33.7940   44.0350 N   0  0  0  0  0  0  0  0  0  0  0  0
   46.0620   33.5410   45.2740 C   0  0  0  0  0  0  0  0  0  0  0  0
   45.1190   34.3510   45.8100 N   0  0  0  0  0  0  0  0  0  0  0  0
   43.9000   36.0660   45.5220 H   0  0  0  0  0  0  0  0  0  0  0  0
   46.3980   32.7130   45.8760 H   0  0  0  0  0  0  0  0  0  0  0  0
   44.6600   36.8320   43.0860 N   0  0  0  0  0  0  0  0  0  0  0  0
   43.7760   37.0350   42.5740 H   0  0  0  0  0  0  0  0  0  0  0  0
   45.4670   37.5200   43.1710 H   0  0  0  0  0  0  0  0  0  0  0  0
   47.3920   33.9130   39.7950 C   0  0  0  0  0  0  0  0  0  0  0  0
   48.3240   33.4290   39.5030 H   0  0  0  0  0  0  0  0  0  0  0  0
   47.2700   34.8770   39.2610 H   0  0  0  0  0  0  0  0  0  0  0  0
   46.2410   33.0050   39.4850 C   0  0  0  0  0  0  0  0  0  0  0  0
   45.4560   33.0050   38.3560 C   0  0  0  0  0  0  0  0  0  0  0  0
   45.5680   33.6700   37.5270 H   0  0  0  0  0  0  0  0  0  0  0  0
   44.5260   31.9900   38.5260 C   0  0  0  0  0  0  0  0  0  0  0  0
   43.7520   31.7160   37.8170 H   0  0  0  0  0  0  0  0  0  0  0  0
   44.8000   31.4210   39.7650 C   0  0  0  0  0  0  0  0  0  0  0  0
   44.1960   30.6010   40.1160 H   0  0  0  0  0  0  0  0  0  0  0  0
   45.8170   32.0510   40.2940 O   0  0  0  0  0  0  0  0  0  0  0  0
  1  4  1  6  0  0  0
  1  2  1  0  0  0  0
  1 10  1  0  0  0  0
  2  6  1  0  0  0  0
  3  7  1  1  0  0  0
  3  1  1  0  0  0  0
  3  2  1  0  0  0  0
  5  2  1  0  0  0  0
  8 14  1  0  0  0  0
  8 13  1  0  0  0  0
  9  8  2  0  0  0  0
 10  9  1  0  0  0  0
 10 11  2  0  0  0  0
 11 12  1  0  0  0  0
 12 13  2  0  0  0  0
 12 15  1  0  0  0  0
 16 18  1  0  0  0  0
 16  9  1  0  0  0  0
 17 16  1  0  0  0  0
 19  3  1  0  0  0  0
 20 19  1  0  0  0  0
 21 19  1  0  0  0  0
 22 19  1  0  0  0  0
 22 29  1  0  0  0  0
 23 25  1  0  0  0  0
 23 22  2  0  0  0  0
 24 23  1  0  0  0  0
 25 27  2  0  0  0  0
 26 25  1  0  0  0  0
 27 28  1  0  0  0  0
 27 29  1  0  0  0  0
M  END
>  <minimizedAffinity>
-4.38468313

>  <minimizedRMSD>
0.698474944

$$$$
