
 OpenBabel03242519383D

 26 27  0  0  0  0  0  0  0  0999 V2000
   48.1320   32.8910   41.7050 O   0  0  0  0  0  0  0  0  0  0  0  0
   47.1660   33.9770   41.2480 P   0  0  2  0  0  0  0  0  0  0  0  0
   45.6230   33.6700   41.9460 O   0  0  0  0  0  0  0  0  0  0  0  0
   44.4110   35.8540   44.6300 C   0  0  0  0  0  0  0  0  0  0  0  0
   44.6850   35.3760   43.3250 C   0  0  0  0  0  0  0  0  0  0  0  0
   45.3440   34.1560   43.2200 C   0  0  0  0  0  0  0  0  0  0  0  0
   45.6920   33.4830   44.3580 N   0  0  0  0  0  0  0  0  0  0  0  0
   45.4060   33.9820   45.5740 C   0  0  0  0  0  0  0  0  0  0  0  0
   44.7730   35.1540   45.7250 N   0  0  0  0  0  0  0  0  0  0  0  0
   43.8950   36.8080   44.7520 H   0  0  0  0  0  0  0  0  0  0  0  0
   44.3700   35.9830   42.4830 H   0  0  0  0  0  0  0  0  0  0  0  0
   45.7180   33.3830   46.4240 H   0  0  0  0  0  0  0  0  0  0  0  0
   46.9950   34.0420   39.5850 O   0  0  0  0  0  0  0  0  0  0  0  0
   47.8980   33.5440   38.6580 C   0  0  0  0  0  0  0  0  0  0  0  0
   48.8490   32.5460   38.6980 C   0  0  0  0  0  0  0  0  0  0  0  0
   49.0160   31.9590   39.5870 H   0  0  0  0  0  0  0  0  0  0  0  0
   49.4290   32.5430   37.4270 C   0  0  0  0  0  0  0  0  0  0  0  0
   50.2170   31.8560   37.1590 H   0  0  0  0  0  0  0  0  0  0  0  0
   48.7830   33.5350   36.7260 C   0  0  0  0  0  0  0  0  0  0  0  0
   49.0160   33.7780   35.6940 H   0  0  0  0  0  0  0  0  0  0  0  0
   47.8730   34.1290   37.4630 O   0  0  0  0  0  0  0  0  0  0  0  0
   47.7180   35.4440   41.8730 O   0  0  0  0  0  0  0  0  0  0  0  0
   48.9910   35.7540   41.4400 C   0  0  0  0  0  0  0  0  0  0  0  0
   49.4460   36.9650   41.9350 F   0  0  0  0  0  0  0  0  0  0  0  0
   49.8430   34.7100   41.6920 F   0  0  0  0  0  0  0  0  0  0  0  0
   48.9030   35.9120   40.0530 F   0  0  0  0  0  0  0  0  0  0  0  0
  2  1  2  1  0  0  0
  2 22  1  0  0  0  0
  2  3  1  0  0  0  0
  3  6  1  0  0  0  0
  4 10  1  0  0  0  0
  4  9  1  0  0  0  0
  5  4  2  0  0  0  0
  6  5  1  0  0  0  0
  6  7  2  0  0  0  0
  7  8  1  0  0  0  0
  8  9  2  0  0  0  0
  8 12  1  0  0  0  0
 11  5  1  0  0  0  0
 13  2  1  0  0  0  0
 14 15  2  0  0  0  0
 14 13  1  0  0  0  0
 15 16  1  0  0  0  0
 17 15  1  0  0  0  0
 18 17  1  0  0  0  0
 19 17  2  0  0  0  0
 19 21  1  0  0  0  0
 20 19  1  0  0  0  0
 21 14  1  0  0  0  0
 23 25  1  0  0  0  0
 23 22  1  0  0  0  0
 23 24  1  0  0  0  0
 26 23  1  0  0  0  0
M  END
>  <minimizedAffinity>
-5.28392744

>  <minimizedRMSD>
0.51567775

$$$$
