
 OpenBabel03242523443D

 30 32  0  0  1  0  0  0  0  0999 V2000
   45.3140   34.9950   42.0950 C   0  0  2  0  0  0  0  0  0  0  0  0
   45.5290   36.0530   41.9980 H   0  0  0  0  0  0  0  0  0  0  0  0
   44.6620   35.6520   44.3790 C   0  0  0  0  0  0  0  0  0  0  0  0
   45.2250   34.6690   43.5310 C   0  0  0  0  0  0  0  0  0  0  0  0
   45.6680   33.4730   44.1230 C   0  0  0  0  0  0  0  0  0  0  0  0
   45.5130   33.3730   45.4550 N   0  0  0  0  0  0  0  0  0  0  0  0
   44.9820   34.3140   46.2190 C   0  0  0  0  0  0  0  0  0  0  0  0
   44.5450   35.4740   45.6930 N   0  0  0  0  0  0  0  0  0  0  0  0
   44.3120   36.5860   43.9420 H   0  0  0  0  0  0  0  0  0  0  0  0
   46.0960   32.7260   43.4730 H   0  0  0  0  0  0  0  0  0  0  0  0
   44.8730   34.1960   47.2890 H   0  0  0  0  0  0  0  0  0  0  0  0
   43.9880   34.6780   41.4810 C   0  0  0  0  0  0  0  0  0  0  0  0
   42.9520   35.5110   41.1340 C   0  0  0  0  0  0  0  0  0  0  0  0
   41.9460   34.7810   40.5980 N   0  0  0  0  0  0  0  0  0  0  0  0
   42.3570   33.4810   40.6110 C   0  0  0  0  0  0  0  0  0  0  0  0
   43.5900   33.4300   41.1460 N   0  0  0  0  0  0  0  0  0  0  0  0
   43.0020   36.5850   41.2940 H   0  0  0  0  0  0  0  0  0  0  0  0
   41.0230   35.1730   40.2440 H   0  0  0  0  0  0  0  0  0  0  0  0
   41.7690   32.6500   40.2450 H   0  0  0  0  0  0  0  0  0  0  0  0
   46.3690   34.1250   41.5010 C   0  0  0  0  0  0  0  0  0  0  0  0
   46.2730   34.1270   40.3700 H   0  0  0  0  0  0  0  0  0  0  0  0
   46.2760   33.0620   41.7850 H   0  0  0  0  0  0  0  0  0  0  0  0
   47.7250   34.6810   41.7480 C   0  0  0  0  0  0  0  0  0  0  0  0
   48.6810   33.7430   42.1530 C   0  0  0  0  0  0  0  0  0  0  0  0
   48.6510   32.6570   42.3340 H   0  0  0  0  0  0  0  0  0  0  0  0
   49.8970   34.3790   42.3500 C   0  0  0  0  0  0  0  0  0  0  0  0
   50.8560   33.9750   42.6630 H   0  0  0  0  0  0  0  0  0  0  0  0
   49.6010   35.6880   42.0480 C   0  0  0  0  0  0  0  0  0  0  0  0
   50.3100   36.5160   42.0840 H   0  0  0  0  0  0  0  0  0  0  0  0
   48.3570   35.8180   41.7100 O   0  0  0  0  0  0  0  0  0  0  0  0
  1  2  1  6  0  0  0
  1  4  1  0  0  0  0
  3  8  1  0  0  0  0
  4  5  1  0  0  0  0
  4  3  2  0  0  0  0
  5  6  2  0  0  0  0
  6  7  1  0  0  0  0
  7 11  1  0  0  0  0
  8  7  2  0  0  0  0
  9  3  1  0  0  0  0
 10  5  1  0  0  0  0
 12  1  1  0  0  0  0
 13 17  1  0  0  0  0
 13 12  2  0  0  0  0
 14 15  1  0  0  0  0
 14 13  1  0  0  0  0
 15 16  2  0  0  0  0
 16 12  1  0  0  0  0
 18 14  1  0  0  0  0
 19 15  1  0  0  0  0
 20 23  1  0  0  0  0
 20 22  1  0  0  0  0
 20  1  1  0  0  0  0
 21 20  1  0  0  0  0
 23 24  2  0  0  0  0
 24 25  1  0  0  0  0
 24 26  1  0  0  0  0
 26 27  1  0  0  0  0
 28 29  1  0  0  0  0
 28 26  2  0  0  0  0
 30 23  1  0  0  0  0
 30 28  1  0  0  0  0
M  END
>  <minimizedAffinity>
-4.8082304

>  <minimizedRMSD>
3.39566422

$$$$
