
 OpenBabel03252509003D

 44 46  0  0  1  0  0  0  0  0999 V2000
   46.8270   34.3900   43.3610 N   0  0  0  0  0  0  0  0  0  0  0  0
   46.3910   35.5840   42.7330 C   0  0  0  0  0  0  0  0  0  0  0  0
   44.9110   35.8770   42.8710 C   0  0  0  0  0  0  0  0  0  0  0  0
   44.2960   35.4000   44.1590 C   0  0  0  0  0  0  0  0  0  0  0  0
   45.3390   34.8330   45.0920 C   0  0  0  0  0  0  0  0  0  0  0  0
   46.0100   33.6960   44.2360 C   0  0  2  0  0  0  0  0  0  0  0  0
   46.6510   35.6960   41.6740 H   0  0  0  0  0  0  0  0  0  0  0  0
   46.9260   36.4260   43.2510 H   0  0  0  0  0  0  0  0  0  0  0  0
   44.3560   35.5230   41.9770 H   0  0  0  0  0  0  0  0  0  0  0  0
   44.7710   36.9870   42.8590 H   0  0  0  0  0  0  0  0  0  0  0  0
   43.7730   36.1890   44.7190 H   0  0  0  0  0  0  0  0  0  0  0  0
   43.5720   34.6000   43.9410 H   0  0  0  0  0  0  0  0  0  0  0  0
   44.8380   34.3870   45.9600 H   0  0  0  0  0  0  0  0  0  0  0  0
   46.1370   35.5280   45.3490 H   0  0  0  0  0  0  0  0  0  0  0  0
   45.2000   33.0700   43.8110 H   0  0  0  0  0  0  0  0  0  0  0  0
   47.8240   33.6660   42.6230 C   0  0  0  0  0  0  0  0  0  0  0  0
   48.5010   34.4120   42.1480 H   0  0  0  0  0  0  0  0  0  0  0  0
   48.4300   33.0210   43.2920 H   0  0  0  0  0  0  0  0  0  0  0  0
   47.1310   32.7890   41.6240 C   0  0  0  0  0  0  0  0  0  0  0  0
   46.0550   33.0890   41.5040 H   0  0  0  0  0  0  0  0  0  0  0  0
   47.1260   31.7210   41.9030 H   0  0  0  0  0  0  0  0  0  0  0  0
   49.2710   32.1550   38.6050 C   0  0  0  0  0  0  0  0  0  0  0  0
   48.6590   32.0010   39.8630 C   0  0  0  0  0  0  0  0  0  0  0  0
   47.7720   32.9610   40.2960 C   0  0  0  0  0  0  0  0  0  0  0  0
   47.5380   33.9990   39.4870 N   0  0  0  0  0  0  0  0  0  0  0  0
   48.1280   34.1390   38.2870 C   0  0  0  0  0  0  0  0  0  0  0  0
   49.0030   33.2130   37.8350 N   0  0  0  0  0  0  0  0  0  0  0  0
   49.9640   31.4570   38.2050 H   0  0  0  0  0  0  0  0  0  0  0  0
   48.9370   31.1150   40.4150 H   0  0  0  0  0  0  0  0  0  0  0  0
   47.9130   35.0000   37.6530 H   0  0  0  0  0  0  0  0  0  0  0  0
   46.7430   33.0210   45.2000 O   0  0  0  0  0  0  0  0  0  0  0  0
   45.3310   30.9780   44.2470 O   0  0  0  0  0  0  0  0  0  0  0  0
   46.2610   31.4190   45.3830 P   0  0  2  0  0  0  0  0  0  0  0  0
   45.2710   31.3850   46.7820 O   0  0  0  0  0  0  0  0  0  0  0  0
   45.6710   31.9770   47.4770 H   0  0  0  0  0  0  0  0  0  0  0  0
   47.5210   30.3800   45.6260 O   0  0  0  0  0  0  0  0  0  0  0  0
   48.5720   30.0510   44.8140 C   0  0  0  0  0  0  0  0  0  0  0  0
   49.5690   29.1720   45.2510 C   0  0  0  0  0  0  0  0  0  0  0  0
   49.6550   28.6650   46.2050 H   0  0  0  0  0  0  0  0  0  0  0  0
   50.4540   29.0790   44.1740 C   0  0  0  0  0  0  0  0  0  0  0  0
   51.3470   28.4400   44.2490 H   0  0  0  0  0  0  0  0  0  0  0  0
   49.9480   29.8970   43.1610 C   0  0  0  0  0  0  0  0  0  0  0  0
   50.5310   29.9300   42.2500 H   0  0  0  0  0  0  0  0  0  0  0  0
   48.8410   30.4450   43.5870 O   0  0  0  0  0  0  0  0  0  0  0  0
  1  6  1  0  0  0  0
  2  3  1  0  0  0  0
  2  8  1  0  0  0  0
  2  1  1  0  0  0  0
  3  4  1  0  0  0  0
  4 11  1  0  0  0  0
  4  5  1  0  0  0  0
  5 14  1  0  0  0  0
  5 13  1  0  0  0  0
  6 15  1  6  0  0  0
  6  5  1  0  0  0  0
  6 31  1  0  0  0  0
  7  2  1  0  0  0  0
  9  3  1  0  0  0  0
 10  3  1  0  0  0  0
 12  4  1  0  0  0  0
 16 18  1  0  0  0  0
 16  1  1  0  0  0  0
 17 16  1  0  0  0  0
 19 21  1  0  0  0  0
 19 16  1  0  0  0  0
 20 19  1  0  0  0  0
 22 23  1  0  0  0  0
 23 24  2  0  0  0  0
 23 29  1  0  0  0  0
 24 19  1  0  0  0  0
 25 24  1  0  0  0  0
 26 25  2  0  0  0  0
 27 26  1  0  0  0  0
 27 22  2  0  0  0  0
 28 22  1  0  0  0  0
 30 26  1  0  0  0  0
 31 33  1  0  0  0  0
 33 32  2  6  0  0  0
 33 36  1  0  0  0  0
 33 34  1  0  0  0  0
 34 35  1  0  0  0  0
 37 38  2  0  0  0  0
 37 36  1  0  0  0  0
 38 39  1  0  0  0  0
 40 41  1  0  0  0  0
 40 38  1  0  0  0  0
 42 44  1  0  0  0  0
 42 40  2  0  0  0  0
 43 42  1  0  0  0  0
 44 37  1  0  0  0  0
M  END
>  <minimizedAffinity>
-3.96130848

>  <minimizedRMSD>
1.49154508

$$$$
