
 OpenBabel03252504293D

 26 27  0  0  0  0  0  0  0  0999 V2000
   36.5070   29.6530   40.2890 O   0  0  0  0  0  0  0  0  0  0  0  0
   36.2590   30.9440   40.6990 C   0  0  0  0  0  0  0  0  0  0  0  0
   36.1220   30.9410   41.8350 H   0  0  0  0  0  0  0  0  0  0  0  0
   35.3610   31.3460   40.2080 H   0  0  0  0  0  0  0  0  0  0  0  0
   38.5650   31.4390   41.0850 C   0  0  0  0  0  0  0  0  0  0  0  0
   37.3730   31.8890   40.4910 C   0  0  0  0  0  0  0  0  0  0  0  0
   37.4190   33.0960   39.8490 C   0  0  0  0  0  0  0  0  0  0  0  0
   38.5790   33.7460   39.8360 N   0  0  0  0  0  0  0  0  0  0  0  0
   39.7050   33.3210   40.3970 C   0  0  0  0  0  0  0  0  0  0  0  0
   39.7490   32.1080   41.0680 N   0  0  0  0  0  0  0  0  0  0  0  0
   38.6840   30.4930   41.6330 H   0  0  0  0  0  0  0  0  0  0  0  0
   36.4660   33.3710   39.4190 H   0  0  0  0  0  0  0  0  0  0  0  0
   40.5250   33.9860   40.2750 H   0  0  0  0  0  0  0  0  0  0  0  0
   36.2070   28.4830   40.9660 C   0  0  0  0  0  3  0  0  0  0  0  0
   36.8620   28.2870   42.1360 C   0  0  0  0  0  3  0  0  0  0  0  0
   36.6520   27.1130   43.0720 C   0  0  0  0  0  0  0  0  0  0  0  0
   35.5700   26.9230   43.1730 H   0  0  0  0  0  0  0  0  0  0  0  0
   37.0470   27.4160   44.0410 H   0  0  0  0  0  0  0  0  0  0  0  0
   37.3760   25.9520   42.4860 C   0  0  0  0  0  0  0  0  0  0  0  0
   36.8750   24.7310   42.0960 C   0  0  0  0  0  0  0  0  0  0  0  0
   35.8390   24.4200   42.1590 H   0  0  0  0  0  0  0  0  0  0  0  0
   37.9770   24.0230   41.6210 C   0  0  0  0  0  0  0  0  0  0  0  0
   37.9420   23.0020   41.2260 H   0  0  0  0  0  0  0  0  0  0  0  0
   39.0840   24.8600   41.7510 C   0  0  0  0  0  0  0  0  0  0  0  0
   40.0940   24.5930   41.4650 H   0  0  0  0  0  0  0  0  0  0  0  0
   38.6850   26.0080   42.2740 O   0  0  0  0  0  0  0  0  0  0  0  0
  1  2  1  0  0  0  0
  1 14  1  0  0  0  0
  2  3  1  0  0  0  0
  4  2  1  0  0  0  0
  5 11  1  0  0  0  0
  6  2  1  0  0  0  0
  6  5  2  0  0  0  0
  7  6  1  0  0  0  0
  8  7  2  0  0  0  0
  8  9  1  0  0  0  0
  9 10  2  0  0  0  0
 10  5  1  0  0  0  0
 12  7  1  0  0  0  0
 13  9  1  0  0  0  0
 14 15  2  0  0  0  0
 15 16  1  0  0  0  0
 16 17  1  0  0  0  0
 16 18  1  0  0  0  0
 19 16  1  0  0  0  0
 20 21  1  0  0  0  0
 20 19  2  0  0  0  0
 22 24  2  0  0  0  0
 22 20  1  0  0  0  0
 23 22  1  0  0  0  0
 24 26  1  0  0  0  0
 25 24  1  0  0  0  0
 26 19  1  0  0  0  0
M  END
>  <minimizedAffinity>
-4.28488636

$$$$

 OpenBabel03252504293D

 26 27  0  0  0  0  0  0  0  0999 V2000
   39.6510   25.6240   43.6760 O   0  0  0  0  0  0  0  0  0  0  0  0
   39.7090   24.4990   42.8860 C   0  0  0  0  0  0  0  0  0  0  0  0
   39.5880   23.5810   43.5580 H   0  0  0  0  0  0  0  0  0  0  0  0
   40.6630   24.4490   42.3420 H   0  0  0  0  0  0  0  0  0  0  0  0
   39.0730   24.2120   40.6000 C   0  0  0  0  0  0  0  0  0  0  0  0
   38.6050   24.3610   41.9160 C   0  0  0  0  0  0  0  0  0  0  0  0
   37.2480   24.3710   42.0930 C   0  0  0  0  0  0  0  0  0  0  0  0
   36.4830   24.2400   41.0140 N   0  0  0  0  0  0  0  0  0  0  0  0
   36.9260   24.1000   39.7700 C   0  0  0  0  0  0  0  0  0  0  0  0
   38.2850   24.0780   39.5000 N   0  0  0  0  0  0  0  0  0  0  0  0
   40.1310   24.1850   40.3020 H   0  0  0  0  0  0  0  0  0  0  0  0
   36.9680   24.4880   43.1310 H   0  0  0  0  0  0  0  0  0  0  0  0
   36.1530   24.0090   39.0450 H   0  0  0  0  0  0  0  0  0  0  0  0
   39.6730   26.9460   43.2630 C   0  0  0  0  0  3  0  0  0  0  0  0
   38.5330   27.6510   43.4630 C   0  0  0  0  0  3  0  0  0  0  0  0
   38.3440   29.1210   43.1470 C   0  0  0  0  0  0  0  0  0  0  0  0
   39.2910   29.5290   42.7560 H   0  0  0  0  0  0  0  0  0  0  0  0
   38.1110   29.6140   44.0890 H   0  0  0  0  0  0  0  0  0  0  0  0
   37.2390   29.2160   42.1520 C   0  0  0  0  0  0  0  0  0  0  0  0
   36.4130   28.2200   41.6830 C   0  0  0  0  0  0  0  0  0  0  0  0
   36.4430   27.1790   41.9790 H   0  0  0  0  0  0  0  0  0  0  0  0
   35.5660   28.8520   40.7750 C   0  0  0  0  0  0  0  0  0  0  0  0
   34.7730   28.3520   40.2080 H   0  0  0  0  0  0  0  0  0  0  0  0
   35.9300   30.1970   40.7480 C   0  0  0  0  0  0  0  0  0  0  0  0
   35.4520   30.9510   40.1340 H   0  0  0  0  0  0  0  0  0  0  0  0
   36.9380   30.3780   41.5860 O   0  0  0  0  0  0  0  0  0  0  0  0
  2  3  1  0  0  0  0
  2  1  1  0  0  0  0
  4  2  1  0  0  0  0
  5  6  1  0  0  0  0
  6  7  2  0  0  0  0
  6  2  1  0  0  0  0
  7 12  1  0  0  0  0
  8  7  1  0  0  0  0
  9  8  2  0  0  0  0
 10  9  1  0  0  0  0
 10  5  2  0  0  0  0
 11  5  1  0  0  0  0
 13  9  1  0  0  0  0
 14 15  2  0  0  0  0
 14  1  1  0  0  0  0
 16 15  1  0  0  0  0
 16 18  1  0  0  0  0
 17 16  1  0  0  0  0
 19 16  1  0  0  0  0
 20 21  1  0  0  0  0
 20 19  2  0  0  0  0
 22 20  1  0  0  0  0
 23 22  1  0  0  0  0
 24 22  2  0  0  0  0
 24 26  1  0  0  0  0
 25 24  1  0  0  0  0
 26 19  1  0  0  0  0
M  END
>  <minimizedAffinity>
-4.25859785

$$$$

 OpenBabel03252504293D

 26 27  0  0  0  0  0  0  0  0999 V2000
   39.1010   32.1020   40.8980 O   0  0  0  0  0  0  0  0  0  0  0  0
   37.8080   32.4530   40.5840 C   0  0  0  0  0  0  0  0  0  0  0  0
   37.8420   33.3040   39.8200 H   0  0  0  0  0  0  0  0  0  0  0  0
   37.2580   32.7690   41.4820 H   0  0  0  0  0  0  0  0  0  0  0  0
   36.1820   30.7120   40.7770 C   0  0  0  0  0  0  0  0  0  0  0  0
   37.0270   31.4070   39.8960 C   0  0  0  0  0  0  0  0  0  0  0  0
   37.0130   31.0130   38.5850 C   0  0  0  0  0  0  0  0  0  0  0  0
   36.2060   30.0120   38.2500 N   0  0  0  0  0  0  0  0  0  0  0  0
   35.4070   29.3550   39.0830 C   0  0  0  0  0  0  0  0  0  0  0  0
   35.3580   29.6890   40.4280 N   0  0  0  0  0  0  0  0  0  0  0  0
   36.0840   30.9140   41.8550 H   0  0  0  0  0  0  0  0  0  0  0  0
   37.6870   31.5940   37.9720 H   0  0  0  0  0  0  0  0  0  0  0  0
   34.8380   28.5860   38.6200 H   0  0  0  0  0  0  0  0  0  0  0  0
   39.5890   30.8330   41.1610 C   0  0  0  0  0  3  0  0  0  0  0  0
   39.3820   30.3630   42.4150 C   0  0  0  0  0  3  0  0  0  0  0  0
   39.7720   28.9860   42.9120 C   0  0  0  0  0  0  0  0  0  0  0  0
   40.2390   29.0820   43.9070 H   0  0  0  0  0  0  0  0  0  0  0  0
   40.5130   28.6010   42.2120 H   0  0  0  0  0  0  0  0  0  0  0  0
   38.5290   28.1670   42.9510 C   0  0  0  0  0  0  0  0  0  0  0  0
   37.3810   28.3760   43.6800 C   0  0  0  0  0  0  0  0  0  0  0  0
   37.2020   29.2000   44.3600 H   0  0  0  0  0  0  0  0  0  0  0  0
   36.5410   27.3160   43.3440 C   0  0  0  0  0  0  0  0  0  0  0  0
   35.5330   27.1670   43.7430 H   0  0  0  0  0  0  0  0  0  0  0  0
   37.2330   26.5250   42.4280 C   0  0  0  0  0  0  0  0  0  0  0  0
   36.8410   25.6210   41.9770 H   0  0  0  0  0  0  0  0  0  0  0  0
   38.4220   27.0660   42.2170 O   0  0  0  0  0  0  0  0  0  0  0  0
  1 14  1  0  0  0  0
  2  1  1  0  0  0  0
  2  4  1  0  0  0  0
  3  2  1  0  0  0  0
  5 11  1  0  0  0  0
  6  2  1  0  0  0  0
  6  5  2  0  0  0  0
  7  6  1  0  0  0  0
  8  7  2  0  0  0  0
  8  9  1  0  0  0  0
  9 10  2  0  0  0  0
 10  5  1  0  0  0  0
 12  7  1  0  0  0  0
 13  9  1  0  0  0  0
 14 15  2  0  0  0  0
 15 16  1  0  0  0  0
 16 19  1  0  0  0  0
 16 17  1  0  0  0  0
 18 16  1  0  0  0  0
 19 20  2  0  0  0  0
 20 21  1  0  0  0  0
 22 20  1  0  0  0  0
 22 23  1  0  0  0  0
 24 22  2  0  0  0  0
 25 24  1  0  0  0  0
 26 24  1  0  0  0  0
 26 19  1  0  0  0  0
M  END
>  <minimizedAffinity>
-4.25539446

$$$$

 OpenBabel03252504293D

 26 27  0  0  0  0  0  0  0  0999 V2000
   37.2140   29.6820   42.4680 O   0  0  0  0  0  0  0  0  0  0  0  0
   38.0040   28.9980   43.3630 C   0  0  0  0  0  0  0  0  0  0  0  0
   37.4700   28.9830   44.3760 H   0  0  0  0  0  0  0  0  0  0  0  0
   38.9900   29.4740   43.4610 H   0  0  0  0  0  0  0  0  0  0  0  0
   39.4190   27.0820   43.5530 C   0  0  0  0  0  0  0  0  0  0  0  0
   38.1980   27.5680   43.0580 C   0  0  0  0  0  0  0  0  0  0  0  0
   37.4080   26.6790   42.3790 C   0  0  0  0  0  0  0  0  0  0  0  0
   37.8560   25.4350   42.2410 N   0  0  0  0  0  0  0  0  0  0  0  0
   39.0110   24.9770   42.7090 C   0  0  0  0  0  0  0  0  0  0  0  0
   39.8720   25.8080   43.4090 N   0  0  0  0  0  0  0  0  0  0  0  0
   40.1560   27.6740   44.1170 H   0  0  0  0  0  0  0  0  0  0  0  0
   36.4880   27.1270   42.0310 H   0  0  0  0  0  0  0  0  0  0  0  0
   39.1860   23.9500   42.4940 H   0  0  0  0  0  0  0  0  0  0  0  0
   37.5820   30.1820   41.2300 C   0  0  0  0  0  3  0  0  0  0  0  0
   36.7390   31.0890   40.6800 C   0  0  0  0  0  3  0  0  0  0  0  0
   36.9640   31.8130   39.3680 C   0  0  0  0  0  0  0  0  0  0  0  0
   36.0760   32.4260   39.1380 H   0  0  0  0  0  0  0  0  0  0  0  0
   37.0680   31.0450   38.6030 H   0  0  0  0  0  0  0  0  0  0  0  0
   38.1910   32.6410   39.5310 C   0  0  0  0  0  0  0  0  0  0  0  0
   38.3540   33.8140   40.2320 C   0  0  0  0  0  0  0  0  0  0  0  0
   37.5830   34.3300   40.7920 H   0  0  0  0  0  0  0  0  0  0  0  0
   39.6910   34.1600   40.0520 C   0  0  0  0  0  0  0  0  0  0  0  0
   40.1700   35.0490   40.4780 H   0  0  0  0  0  0  0  0  0  0  0  0
   40.2620   33.1730   39.2510 C   0  0  0  0  0  0  0  0  0  0  0  0
   41.2980   33.1610   38.9340 H   0  0  0  0  0  0  0  0  0  0  0  0
   39.3320   32.2790   38.9570 O   0  0  0  0  0  0  0  0  0  0  0  0
  1  2  1  0  0  0  0
  2  4  1  0  0  0  0
  2  3  1  0  0  0  0
  5 11  1  0  0  0  0
  6  2  1  0  0  0  0
  6  5  2  0  0  0  0
  7  6  1  0  0  0  0
  8  7  2  0  0  0  0
  8  9  1  0  0  0  0
  9 10  2  0  0  0  0
 10  5  1  0  0  0  0
 12  7  1  0  0  0  0
 13  9  1  0  0  0  0
 14  1  1  0  0  0  0
 15 14  2  0  0  0  0
 16 19  1  0  0  0  0
 16 15  1  0  0  0  0
 17 16  1  0  0  0  0
 18 16  1  0  0  0  0
 19 20  2  0  0  0  0
 20 21  1  0  0  0  0
 22 20  1  0  0  0  0
 22 23  1  0  0  0  0
 24 22  2  0  0  0  0
 25 24  1  0  0  0  0
 26 24  1  0  0  0  0
 26 19  1  0  0  0  0
M  END
>  <minimizedAffinity>
-4.1868124

$$$$

 OpenBabel03252504293D

 26 27  0  0  0  0  0  0  0  0999 V2000
   38.8930   29.0170   42.6950 O   0  0  0  0  0  0  0  0  0  0  0  0
   38.2380   28.0930   43.4770 C   0  0  0  0  0  0  0  0  0  0  0  0
   37.1140   28.2980   43.4100 H   0  0  0  0  0  0  0  0  0  0  0  0
   38.5750   28.1520   44.5220 H   0  0  0  0  0  0  0  0  0  0  0  0
   37.1730   26.2300   42.4250 C   0  0  0  0  0  0  0  0  0  0  0  0
   38.3570   26.6940   43.0210 C   0  0  0  0  0  0  0  0  0  0  0  0
   39.3990   25.8090   43.1020 C   0  0  0  0  0  0  0  0  0  0  0  0
   39.2100   24.5870   42.6140 N   0  0  0  0  0  0  0  0  0  0  0  0
   38.0900   24.1490   42.0500 C   0  0  0  0  0  0  0  0  0  0  0  0
   36.9860   24.9780   41.9270 N   0  0  0  0  0  0  0  0  0  0  0  0
   36.2560   26.8210   42.2890 H   0  0  0  0  0  0  0  0  0  0  0  0
   40.2710   26.2410   43.5710 H   0  0  0  0  0  0  0  0  0  0  0  0
   38.1410   23.1380   41.7220 H   0  0  0  0  0  0  0  0  0  0  0  0
   38.3400   30.0870   42.0130 C   0  0  0  0  0  3  0  0  0  0  0  0
   37.0600   29.9290   41.5960 C   0  0  0  0  0  3  0  0  0  0  0  0
   36.2320   30.9820   40.8860 C   0  0  0  0  0  0  0  0  0  0  0  0
   36.3270   31.9390   41.4280 H   0  0  0  0  0  0  0  0  0  0  0  0
   35.1970   30.6500   40.9380 H   0  0  0  0  0  0  0  0  0  0  0  0
   36.7450   31.0740   39.4910 C   0  0  0  0  0  0  0  0  0  0  0  0
   37.3800   32.1250   38.8720 C   0  0  0  0  0  0  0  0  0  0  0  0
   37.6130   33.0810   39.3260 H   0  0  0  0  0  0  0  0  0  0  0  0
   37.6400   31.6800   37.5780 C   0  0  0  0  0  0  0  0  0  0  0  0
   38.1430   32.2690   36.8030 H   0  0  0  0  0  0  0  0  0  0  0  0
   37.1450   30.3800   37.4890 C   0  0  0  0  0  0  0  0  0  0  0  0
   37.1970   29.7620   36.6010 H   0  0  0  0  0  0  0  0  0  0  0  0
   36.6140   30.0510   38.6560 O   0  0  0  0  0  0  0  0  0  0  0  0
  1  2  1  0  0  0  0
  2  4  1  0  0  0  0
  3  2  1  0  0  0  0
  5  6  1  0  0  0  0
  6  7  2  0  0  0  0
  6  2  1  0  0  0  0
  7 12  1  0  0  0  0
  8  7  1  0  0  0  0
  9  8  2  0  0  0  0
 10  9  1  0  0  0  0
 10  5  2  0  0  0  0
 11  5  1  0  0  0  0
 13  9  1  0  0  0  0
 14  1  1  0  0  0  0
 15 14  2  0  0  0  0
 16 18  1  0  0  0  0
 16 17  1  0  0  0  0
 16 15  1  0  0  0  0
 19 16  1  0  0  0  0
 20 21  1  0  0  0  0
 20 19  2  0  0  0  0
 22 20  1  0  0  0  0
 23 22  1  0  0  0  0
 24 22  2  0  0  0  0
 24 26  1  0  0  0  0
 25 24  1  0  0  0  0
 26 19  1  0  0  0  0
M  END
>  <minimizedAffinity>
-4.1068182

$$$$

 OpenBabel03252504293D

 26 27  0  0  0  0  0  0  0  0999 V2000
   36.0270   27.8550   40.0180 O   0  0  0  0  0  0  0  0  0  0  0  0
   35.4390   29.0930   39.8990 C   0  0  0  0  0  0  0  0  0  0  0  0
   35.3530   29.5520   40.9440 H   0  0  0  0  0  0  0  0  0  0  0  0
   34.4450   29.0140   39.4350 H   0  0  0  0  0  0  0  0  0  0  0  0
   36.4600   29.6950   37.8240 C   0  0  0  0  0  0  0  0  0  0  0  0
   36.2300   30.0900   39.1520 C   0  0  0  0  0  0  0  0  0  0  0  0
   36.7670   31.2870   39.5440 C   0  0  0  0  0  0  0  0  0  0  0  0
   37.4590   31.9770   38.6440 N   0  0  0  0  0  0  0  0  0  0  0  0
   37.6770   31.6030   37.3880 C   0  0  0  0  0  0  0  0  0  0  0  0
   37.1690   30.4060   36.9070 N   0  0  0  0  0  0  0  0  0  0  0  0
   36.0940   28.7640   37.3660 H   0  0  0  0  0  0  0  0  0  0  0  0
   36.5460   31.5200   40.5760 H   0  0  0  0  0  0  0  0  0  0  0  0
   38.2550   32.2960   36.8260 H   0  0  0  0  0  0  0  0  0  0  0  0
   36.7430   27.3620   41.0950 C   0  0  0  0  0  3  0  0  0  0  0  0
   36.5370   27.9850   42.2810 C   0  0  0  0  0  3  0  0  0  0  0  0
   37.1620   27.5840   43.6030 C   0  0  0  0  0  0  0  0  0  0  0  0
   36.8210   26.5690   43.8680 H   0  0  0  0  0  0  0  0  0  0  0  0
   36.7900   28.2850   44.3480 H   0  0  0  0  0  0  0  0  0  0  0  0
   38.6390   27.6520   43.4260 C   0  0  0  0  0  0  0  0  0  0  0  0
   39.5840   26.6850   43.6790 C   0  0  0  0  0  0  0  0  0  0  0  0
   39.3870   25.6890   44.0590 H   0  0  0  0  0  0  0  0  0  0  0  0
   40.8020   27.2720   43.3420 C   0  0  0  0  0  0  0  0  0  0  0  0
   41.7770   26.7780   43.4200 H   0  0  0  0  0  0  0  0  0  0  0  0
   40.5210   28.5650   42.9030 C   0  0  0  0  0  0  0  0  0  0  0  0
   41.2670   29.2760   42.5700 H   0  0  0  0  0  0  0  0  0  0  0  0
   39.2140   28.7580   42.9690 O   0  0  0  0  0  0  0  0  0  0  0  0
  1 14  1  0  0  0  0
  2  1  1  0  0  0  0
  2  3  1  0  0  0  0
  4  2  1  0  0  0  0
  5  6  1  0  0  0  0
  6  7  2  0  0  0  0
  6  2  1  0  0  0  0
  7 12  1  0  0  0  0
  8  7  1  0  0  0  0
  9  8  2  0  0  0  0
 10  9  1  0  0  0  0
 10  5  2  0  0  0  0
 11  5  1  0  0  0  0
 13  9  1  0  0  0  0
 14 15  2  0  0  0  0
 15 16  1  0  0  0  0
 16 17  1  0  0  0  0
 16 18  1  0  0  0  0
 19 16  1  0  0  0  0
 19 20  2  0  0  0  0
 20 21  1  0  0  0  0
 22 23  1  0  0  0  0
 22 20  1  0  0  0  0
 24 26  1  0  0  0  0
 24 22  2  0  0  0  0
 25 24  1  0  0  0  0
 26 19  1  0  0  0  0
M  END
>  <minimizedAffinity>
-4.09899902

$$$$

 OpenBabel03252504293D

 26 27  0  0  0  0  0  0  0  0999 V2000
   37.2510   30.6110   41.5710 O   0  0  0  0  0  0  0  0  0  0  0  0
   36.1810   30.6280   40.7060 C   0  0  0  0  0  0  0  0  0  0  0  0
   35.6390   31.6300   40.8240 H   0  0  0  0  0  0  0  0  0  0  0  0
   35.4930   29.7960   40.9150 H   0  0  0  0  0  0  0  0  0  0  0  0
   35.9390   29.5190   38.6040 C   0  0  0  0  0  0  0  0  0  0  0  0
   36.5370   30.5980   39.2740 C   0  0  0  0  0  0  0  0  0  0  0  0
   37.3410   31.4200   38.5310 C   0  0  0  0  0  0  0  0  0  0  0  0
   37.4930   31.1340   37.2420 N   0  0  0  0  0  0  0  0  0  0  0  0
   36.9280   30.1130   36.6080 C   0  0  0  0  0  0  0  0  0  0  0  0
   36.0970   29.2320   37.2840 N   0  0  0  0  0  0  0  0  0  0  0  0
   35.2700   28.7760   39.0640 H   0  0  0  0  0  0  0  0  0  0  0  0
   37.7620   32.2250   39.1160 H   0  0  0  0  0  0  0  0  0  0  0  0
   37.1740   30.0570   35.5750 H   0  0  0  0  0  0  0  0  0  0  0  0
   37.8300   29.5070   42.1740 C   0  0  0  0  0  3  0  0  0  0  0  0
   37.0080   28.4510   42.3950 C   0  0  0  0  0  3  0  0  0  0  0  0
   37.4300   27.1200   42.9840 C   0  0  0  0  0  0  0  0  0  0  0  0
   36.8870   26.9580   43.9310 H   0  0  0  0  0  0  0  0  0  0  0  0
   38.4950   27.1990   43.1980 H   0  0  0  0  0  0  0  0  0  0  0  0
   37.1160   26.0750   41.9700 C   0  0  0  0  0  0  0  0  0  0  0  0
   36.9770   24.7170   42.1450 C   0  0  0  0  0  0  0  0  0  0  0  0
   37.0770   24.1850   43.0840 H   0  0  0  0  0  0  0  0  0  0  0  0
   36.6870   24.2170   40.8780 C   0  0  0  0  0  0  0  0  0  0  0  0
   36.5120   23.1610   40.6480 H   0  0  0  0  0  0  0  0  0  0  0  0
   36.6680   25.3060   40.0070 C   0  0  0  0  0  0  0  0  0  0  0  0
   36.4690   25.2390   38.9440 H   0  0  0  0  0  0  0  0  0  0  0  0
   36.9310   26.4030   40.6980 O   0  0  0  0  0  0  0  0  0  0  0  0
  1 14  1  0  0  0  0
  2  3  1  0  0  0  0
  2  4  1  0  0  0  0
  2  1  1  0  0  0  0
  5 11  1  0  0  0  0
  5  6  1  0  0  0  0
  6  2  1  0  0  0  0
  7 12  1  0  0  0  0
  7  6  2  0  0  0  0
  8  7  1  0  0  0  0
  9  8  2  0  0  0  0
  9 10  1  0  0  0  0
 10  5  2  0  0  0  0
 13  9  1  0  0  0  0
 14 15  2  0  0  0  0
 15 16  1  0  0  0  0
 16 18  1  0  0  0  0
 16 17  1  0  0  0  0
 19 20  2  0  0  0  0
 19 16  1  0  0  0  0
 20 21  1  0  0  0  0
 22 20  1  0  0  0  0
 23 22  1  0  0  0  0
 24 26  1  0  0  0  0
 24 22  2  0  0  0  0
 25 24  1  0  0  0  0
 26 19  1  0  0  0  0
M  END
>  <minimizedAffinity>
-4.09657621

$$$$

 OpenBabel03252504293D

 26 27  0  0  0  0  0  0  0  0999 V2000
   38.7830   27.7260   42.9160 O   0  0  0  0  0  0  0  0  0  0  0  0
   37.7960   28.6410   43.2000 C   0  0  0  0  0  0  0  0  0  0  0  0
   38.0650   29.1700   44.1780 H   0  0  0  0  0  0  0  0  0  0  0  0
   36.8170   28.1480   43.2910 H   0  0  0  0  0  0  0  0  0  0  0  0
   38.8840   30.4530   42.0850 C   0  0  0  0  0  0  0  0  0  0  0  0
   37.6770   29.7500   42.2330 C   0  0  0  0  0  0  0  0  0  0  0  0
   36.6100   30.1910   41.4990 C   0  0  0  0  0  0  0  0  0  0  0  0
   36.7960   31.2430   40.7080 N   0  0  0  0  0  0  0  0  0  0  0  0
   37.9370   31.9080   40.5690 C   0  0  0  0  0  0  0  0  0  0  0  0
   39.0690   31.5290   41.2730 N   0  0  0  0  0  0  0  0  0  0  0  0
   39.8240   30.2180   42.6050 H   0  0  0  0  0  0  0  0  0  0  0  0
   35.7210   29.5990   41.6660 H   0  0  0  0  0  0  0  0  0  0  0  0
   37.8810   32.7220   39.8860 H   0  0  0  0  0  0  0  0  0  0  0  0
   38.6360   26.3630   42.7150 C   0  0  0  0  0  3  0  0  0  0  0  0
   37.4100   25.9500   42.3120 C   0  0  0  0  0  3  0  0  0  0  0  0
   37.0330   24.5210   41.9740 C   0  0  0  0  0  0  0  0  0  0  0  0
   36.2930   24.1620   42.7090 H   0  0  0  0  0  0  0  0  0  0  0  0
   37.9420   23.9290   42.0720 H   0  0  0  0  0  0  0  0  0  0  0  0
   36.4910   24.5290   40.5870 C   0  0  0  0  0  0  0  0  0  0  0  0
   35.7590   23.5590   39.9410 C   0  0  0  0  0  0  0  0  0  0  0  0
   35.4560   22.6080   40.3620 H   0  0  0  0  0  0  0  0  0  0  0  0
   35.5150   24.0770   38.6710 C   0  0  0  0  0  0  0  0  0  0  0  0
   34.9510   23.5630   37.8850 H   0  0  0  0  0  0  0  0  0  0  0  0
   36.1140   25.3340   38.6230 C   0  0  0  0  0  0  0  0  0  0  0  0
   36.0970   25.9900   37.7610 H   0  0  0  0  0  0  0  0  0  0  0  0
   36.6910   25.5710   39.7900 O   0  0  0  0  0  0  0  0  0  0  0  0
  1  2  1  0  0  0  0
  2  4  1  0  0  0  0
  2  3  1  0  0  0  0
  5  6  1  0  0  0  0
  5 11  1  0  0  0  0
  6  2  1  0  0  0  0
  7 12  1  0  0  0  0
  7  6  2  0  0  0  0
  8  7  1  0  0  0  0
  9  8  2  0  0  0  0
  9 10  1  0  0  0  0
 10  5  2  0  0  0  0
 13  9  1  0  0  0  0
 14  1  1  0  0  0  0
 15 14  2  0  0  0  0
 16 18  1  0  0  0  0
 16 15  1  0  0  0  0
 16 17  1  0  0  0  0
 19 16  1  0  0  0  0
 20 21  1  0  0  0  0
 20 19  2  0  0  0  0
 22 20  1  0  0  0  0
 23 22  1  0  0  0  0
 24 22  2  0  0  0  0
 24 26  1  0  0  0  0
 25 24  1  0  0  0  0
 26 19  1  0  0  0  0
M  END
>  <minimizedAffinity>
-3.89207983

$$$$

 OpenBabel03252504293D

 26 27  0  0  0  0  0  0  0  0999 V2000
   36.5670   31.0010   39.5860 O   0  0  0  0  0  0  0  0  0  0  0  0
   37.0020   29.7050   39.7460 C   0  0  0  0  0  0  0  0  0  0  0  0
   38.0180   29.6000   39.2280 H   0  0  0  0  0  0  0  0  0  0  0  0
   36.2820   28.9920   39.3190 H   0  0  0  0  0  0  0  0  0  0  0  0
   36.4720   28.2500   41.5650 C   0  0  0  0  0  0  0  0  0  0  0  0
   37.2870   29.3110   41.1390 C   0  0  0  0  0  0  0  0  0  0  0  0
   38.1780   29.8120   42.0500 C   0  0  0  0  0  0  0  0  0  0  0  0
   38.2020   29.2590   43.2590 N   0  0  0  0  0  0  0  0  0  0  0  0
   37.4310   28.2560   43.6610 C   0  0  0  0  0  0  0  0  0  0  0  0
   36.5020   27.6880   42.8040 N   0  0  0  0  0  0  0  0  0  0  0  0
   35.7130   27.7450   40.9500 H   0  0  0  0  0  0  0  0  0  0  0  0
   38.7670   30.6230   41.6470 H   0  0  0  0  0  0  0  0  0  0  0  0
   37.6040   27.9560   44.6670 H   0  0  0  0  0  0  0  0  0  0  0  0
   37.3170   32.1000   39.2020 C   0  0  0  0  0  3  0  0  0  0  0  0
   37.7030   32.9330   40.1980 C   0  0  0  0  0  3  0  0  0  0  0  0
   38.5760   34.1610   40.0260 C   0  0  0  0  0  0  0  0  0  0  0  0
   38.3870   34.8560   40.8620 H   0  0  0  0  0  0  0  0  0  0  0  0
   38.2630   34.6360   39.0970 H   0  0  0  0  0  0  0  0  0  0  0  0
   39.9890   33.6920   39.9930 C   0  0  0  0  0  0  0  0  0  0  0  0
   40.6210   32.7990   40.8280 C   0  0  0  0  0  0  0  0  0  0  0  0
   40.1680   32.2840   41.6660 H   0  0  0  0  0  0  0  0  0  0  0  0
   41.9290   32.7240   40.3520 C   0  0  0  0  0  0  0  0  0  0  0  0
   42.7160   32.0980   40.7860 H   0  0  0  0  0  0  0  0  0  0  0  0
   42.0100   33.5780   39.2530 C   0  0  0  0  0  0  0  0  0  0  0  0
   42.9060   33.7370   38.6640 H   0  0  0  0  0  0  0  0  0  0  0  0
   40.8280   34.1420   39.0690 O   0  0  0  0  0  0  0  0  0  0  0  0
  1  2  1  0  0  0  0
  2  6  1  0  0  0  0
  3  2  1  0  0  0  0
  4  2  1  0  0  0  0
  5 10  1  0  0  0  0
  6  5  2  0  0  0  0
  6  7  1  0  0  0  0
  7  8  2  0  0  0  0
  8  9  1  0  0  0  0
  9 13  1  0  0  0  0
 10  9  2  0  0  0  0
 11  5  1  0  0  0  0
 12  7  1  0  0  0  0
 14  1  1  0  0  0  0
 14 15  2  0  0  0  0
 16 15  1  0  0  0  0
 16 17  1  0  0  0  0
 18 16  1  0  0  0  0
 19 16  1  0  0  0  0
 19 20  2  0  0  0  0
 20 21  1  0  0  0  0
 22 23  1  0  0  0  0
 22 20  1  0  0  0  0
 24 22  2  0  0  0  0
 25 24  1  0  0  0  0
 26 24  1  0  0  0  0
 26 19  1  0  0  0  0
M  END
>  <minimizedAffinity>
-3.87681007

$$$$
