
 OpenBabel03252509003D

 44 46  0  0  1  0  0  0  0  0999 V2000
   47.2860   33.9880   42.9070 N   0  0  0  0  0  0  0  0  0  0  0  0
   46.7940   35.2290   42.4300 C   0  0  0  0  0  0  0  0  0  0  0  0
   45.3290   35.4890   42.7130 C   0  0  0  0  0  0  0  0  0  0  0  0
   44.8230   34.8870   43.9960 C   0  0  0  0  0  0  0  0  0  0  0  0
   45.9410   34.2490   44.7860 C   0  0  0  0  0  0  0  0  0  0  0  0
   46.5470   33.2050   43.7760 C   0  0  2  0  0  0  0  0  0  0  0  0
   46.9670   35.4420   41.3690 H   0  0  0  0  0  0  0  0  0  0  0  0
   47.3650   36.0260   42.9810 H   0  0  0  0  0  0  0  0  0  0  0  0
   44.7060   35.2120   41.8370 H   0  0  0  0  0  0  0  0  0  0  0  0
   45.1820   36.5930   42.8160 H   0  0  0  0  0  0  0  0  0  0  0  0
   44.3430   35.6140   44.6680 H   0  0  0  0  0  0  0  0  0  0  0  0
   44.0880   34.1010   43.7630 H   0  0  0  0  0  0  0  0  0  0  0  0
   45.5150   33.7180   45.6450 H   0  0  0  0  0  0  0  0  0  0  0  0
   46.7530   34.9280   45.0420 H   0  0  0  0  0  0  0  0  0  0  0  0
   45.7090   32.6100   43.3610 H   0  0  0  0  0  0  0  0  0  0  0  0
   48.2250   33.3480   42.0270 C   0  0  0  0  0  0  0  0  0  0  0  0
   48.8940   34.1380   41.6150 H   0  0  0  0  0  0  0  0  0  0  0  0
   48.8490   32.6110   42.5720 H   0  0  0  0  0  0  0  0  0  0  0  0
   47.4580   32.6220   40.9640 C   0  0  0  0  0  0  0  0  0  0  0  0
   46.3820   32.9460   40.9510 H   0  0  0  0  0  0  0  0  0  0  0  0
   47.4500   31.5250   41.0970 H   0  0  0  0  0  0  0  0  0  0  0  0
   49.3550   32.3520   37.7360 C   0  0  0  0  0  0  0  0  0  0  0  0
   48.8160   32.0370   38.9970 C   0  0  0  0  0  0  0  0  0  0  0  0
   48.0230   32.9640   39.6340 C   0  0  0  0  0  0  0  0  0  0  0  0
   47.8060   34.1270   39.0130 N   0  0  0  0  0  0  0  0  0  0  0  0
   48.3250   34.4210   37.8080 C   0  0  0  0  0  0  0  0  0  0  0  0
   49.1070   33.5310   37.1570 N   0  0  0  0  0  0  0  0  0  0  0  0
   49.9750   31.6900   37.1840 H   0  0  0  0  0  0  0  0  0  0  0  0
   49.0710   31.0620   39.3850 H   0  0  0  0  0  0  0  0  0  0  0  0
   48.1270   35.3810   37.3300 H   0  0  0  0  0  0  0  0  0  0  0  0
   47.3590   32.4530   44.6110 O   0  0  0  0  0  0  0  0  0  0  0  0
   46.8010   30.1410   43.4210 O   0  0  0  0  0  0  0  0  0  0  0  0
   46.8350   30.8630   44.7740 P   0  0  2  0  0  0  0  0  0  0  0  0
   45.1900   30.9580   45.2470 O   0  0  0  0  0  0  0  0  0  0  0  0
   45.0850   31.6970   45.9080 H   0  0  0  0  0  0  0  0  0  0  0  0
   47.6510   30.0190   45.9350 O   0  0  0  0  0  0  0  0  0  0  0  0
   48.0510   30.3900   47.1890 C   0  0  0  0  0  0  0  0  0  0  0  0
   48.8570   29.5500   47.9640 C   0  0  0  0  0  0  0  0  0  0  0  0
   49.2510   28.5720   47.7150 H   0  0  0  0  0  0  0  0  0  0  0  0
   49.0550   30.2510   49.1560 C   0  0  0  0  0  0  0  0  0  0  0  0
   49.6650   29.8120   49.9590 H   0  0  0  0  0  0  0  0  0  0  0  0
   48.3650   31.4600   49.0350 C   0  0  0  0  0  0  0  0  0  0  0  0
   48.4240   32.1220   49.8900 H   0  0  0  0  0  0  0  0  0  0  0  0
   47.7920   31.4920   47.8610 O   0  0  0  0  0  0  0  0  0  0  0  0
  1  6  1  0  0  0  0
  2  3  1  0  0  0  0
  2  1  1  0  0  0  0
  2  8  1  0  0  0  0
  3 10  1  0  0  0  0
  3  4  1  0  0  0  0
  4 11  1  0  0  0  0
  4  5  1  0  0  0  0
  5 14  1  0  0  0  0
  5 13  1  0  0  0  0
  6 15  1  6  0  0  0
  6 31  1  0  0  0  0
  6  5  1  0  0  0  0
  7  2  1  0  0  0  0
  9  3  1  0  0  0  0
 12  4  1  0  0  0  0
 16 18  1  0  0  0  0
 16  1  1  0  0  0  0
 17 16  1  0  0  0  0
 19 21  1  0  0  0  0
 19 16  1  0  0  0  0
 20 19  1  0  0  0  0
 22 23  1  0  0  0  0
 23 29  1  0  0  0  0
 23 24  2  0  0  0  0
 24 19  1  0  0  0  0
 25 24  1  0  0  0  0
 26 25  2  0  0  0  0
 27 22  2  0  0  0  0
 27 26  1  0  0  0  0
 28 22  1  0  0  0  0
 30 26  1  0  0  0  0
 31 33  1  0  0  0  0
 33 32  2  6  0  0  0
 33 34  1  0  0  0  0
 33 36  1  0  0  0  0
 34 35  1  0  0  0  0
 36 37  1  0  0  0  0
 37 44  1  0  0  0  0
 37 38  2  0  0  0  0
 38 40  1  0  0  0  0
 39 38  1  0  0  0  0
 40 41  1  0  0  0  0
 42 40  2  0  0  0  0
 42 43  1  0  0  0  0
 44 42  1  0  0  0  0
M  END
>  <minimizedAffinity>
-4.40480089

>  <minimizedRMSD>
1.07663989

$$$$
