
 OpenBabel03252509263D

 29 31  0  0  1  0  0  0  0  0999 V2000
   46.5950   35.0900   41.9200 C   0  0  1  0  0  0  0  0  0  0  0  0
   48.1280   35.3310   41.9250 C   0  0  0  0  0  0  0  0  0  0  0  0
   47.3880   34.1060   41.3060 C   0  0  2  0  0  0  0  0  0  0  0  0
   46.0780   35.8990   41.3810 H   0  0  0  0  0  0  0  0  0  0  0  0
   48.5340   35.9930   41.1470 H   0  0  0  0  0  0  0  0  0  0  0  0
   48.6960   35.1140   42.8350 H   0  0  0  0  0  0  0  0  0  0  0  0
   47.5610   33.1360   41.8550 H   0  0  0  0  0  0  0  0  0  0  0  0
   44.6650   35.3840   45.1190 C   0  0  0  0  0  0  0  0  0  0  0  0
   45.1350   35.6950   43.8160 C   0  0  0  0  0  0  0  0  0  0  0  0
   46.0840   34.8600   43.3180 C   0  0  0  0  0  0  0  0  0  0  0  0
   46.5530   33.7880   44.0380 N   0  0  0  0  0  0  0  0  0  0  0  0
   46.0800   33.5270   45.2760 C   0  0  0  0  0  0  0  0  0  0  0  0
   45.1320   34.3290   45.8170 N   0  0  0  0  0  0  0  0  0  0  0  0
   43.9040   36.0380   45.5370 H   0  0  0  0  0  0  0  0  0  0  0  0
   46.4210   32.6990   45.8750 H   0  0  0  0  0  0  0  0  0  0  0  0
   44.6570   36.8190   43.1030 N   0  0  0  0  0  0  0  0  0  0  0  0
   43.7710   37.0190   42.5930 H   0  0  0  0  0  0  0  0  0  0  0  0
   45.4600   37.5110   43.1900 H   0  0  0  0  0  0  0  0  0  0  0  0
   47.4250   33.9290   39.8060 C   0  0  0  0  0  0  0  0  0  0  0  0
   48.4070   33.5660   39.5050 H   0  0  0  0  0  0  0  0  0  0  0  0
   47.1750   34.8680   39.2700 H   0  0  0  0  0  0  0  0  0  0  0  0
   46.3940   32.8820   39.5120 C   0  0  0  0  0  0  0  0  0  0  0  0
   45.2580   33.0170   38.7490 C   0  0  0  0  0  0  0  0  0  0  0  0
   44.9530   33.9120   38.2510 H   0  0  0  0  0  0  0  0  0  0  0  0
   44.6240   31.7830   38.7670 C   0  0  0  0  0  0  0  0  0  0  0  0
   43.6960   31.5400   38.2640 H   0  0  0  0  0  0  0  0  0  0  0  0
   45.4210   30.9550   39.5520 C   0  0  0  0  0  0  0  0  0  0  0  0
   45.1240   29.9320   39.7110 H   0  0  0  0  0  0  0  0  0  0  0  0
   46.4520   31.6440   39.9680 O   0  0  0  0  0  0  0  0  0  0  0  0
  1  4  1  6  0  0  0
  1  2  1  0  0  0  0
  1 10  1  0  0  0  0
  2  6  1  0  0  0  0
  3  7  1  1  0  0  0
  3  1  1  0  0  0  0
  3  2  1  0  0  0  0
  5  2  1  0  0  0  0
  8 14  1  0  0  0  0
  8 13  1  0  0  0  0
  9  8  2  0  0  0  0
 10  9  1  0  0  0  0
 10 11  2  0  0  0  0
 11 12  1  0  0  0  0
 12 13  2  0  0  0  0
 12 15  1  0  0  0  0
 16 18  1  0  0  0  0
 16  9  1  0  0  0  0
 17 16  1  0  0  0  0
 19  3  1  0  0  0  0
 20 19  1  0  0  0  0
 21 19  1  0  0  0  0
 22 19  1  0  0  0  0
 22 29  1  0  0  0  0
 23 25  1  0  0  0  0
 23 22  2  0  0  0  0
 24 23  1  0  0  0  0
 25 27  2  0  0  0  0
 26 25  1  0  0  0  0
 27 28  1  0  0  0  0
 27 29  1  0  0  0  0
M  END
>  <minimizedAffinity>
-4.35831356

>  <minimizedRMSD>
0.905950606

$$$$
