
 OpenBabel03242514233D

 33 36  0  0  0  0  0  0  0  0999 V2000
   44.7800   33.1340   41.1120 Cl  0  0  0  0  0  0  0  0  0  0  0  0
   46.3160   33.9530   40.9010 C   0  0  0  0  0  0  0  0  0  0  0  0
   46.8320   34.7090   41.9130 C   0  0  0  0  0  0  0  0  0  0  0  0
   48.0520   35.3650   41.7600 C   0  0  0  0  0  0  0  0  0  0  0  0
   48.6890   35.2120   40.5610 C   0  0  0  0  0  0  0  0  0  0  0  0
   48.1650   34.4480   39.5400 C   0  0  0  0  0  0  0  0  0  0  0  0
   46.9700   33.8120   39.7060 C   0  0  0  0  0  0  0  0  0  0  0  0
   48.4830   35.9670   42.5400 H   0  0  0  0  0  0  0  0  0  0  0  0
   49.6500   35.6780   40.3260 H   0  0  0  0  0  0  0  0  0  0  0  0
   48.6660   34.3200   38.5810 H   0  0  0  0  0  0  0  0  0  0  0  0
   45.6030   34.0370   45.3210 C   0  0  0  0  0  0  0  0  0  0  0  0
   44.7190   35.1040   45.5310 C   0  0  0  0  0  0  0  0  0  0  0  0
   44.5500   36.0360   44.5170 C   0  0  0  0  0  0  0  0  0  0  0  0
   45.2490   35.8690   43.3730 N   0  0  0  0  0  0  0  0  0  0  0  0
   46.1010   34.8360   43.1770 C   0  0  0  0  0  0  0  0  0  0  0  0
   46.2830   33.9110   44.1550 N   0  0  0  0  0  0  0  0  0  0  0  0
   45.7220   33.3150   46.1300 H   0  0  0  0  0  0  0  0  0  0  0  0
   44.1530   35.2650   46.4190 H   0  0  0  0  0  0  0  0  0  0  0  0
   43.9230   36.8980   44.5130 H   0  0  0  0  0  0  0  0  0  0  0  0
   46.3860   32.9950   38.6480 C   0  0  0  0  0  0  0  0  0  0  0  0
   45.4510   33.3560   37.7600 N   0  0  0  0  0  0  0  0  0  0  0  0
   45.1850   32.3140   36.9530 C   0  0  0  0  0  0  0  0  0  0  0  0
   45.9630   31.2770   37.3360 N   0  0  0  0  0  0  0  0  0  0  0  0
   46.6960   31.7070   38.3770 N   0  0  0  0  0  0  0  0  0  0  0  0
   44.5110   32.1970   36.1300 H   0  0  0  0  0  0  0  0  0  0  0  0
   46.1250   29.9400   36.8730 C   0  0  0  0  0  0  0  0  0  0  0  0
   47.4140   29.3990   36.9280 C   0  0  0  0  0  0  0  0  0  0  0  0
   48.3730   29.7810   37.2590 H   0  0  0  0  0  0  0  0  0  0  0  0
   47.3130   28.1020   36.4280 C   0  0  0  0  0  0  0  0  0  0  0  0
   48.0140   27.2860   36.2650 H   0  0  0  0  0  0  0  0  0  0  0  0
   45.9640   27.9360   36.0990 C   0  0  0  0  0  0  0  0  0  0  0  0
   45.3780   27.1190   35.6810 H   0  0  0  0  0  0  0  0  0  0  0  0
   45.3030   29.0470   36.3790 O   0  0  0  0  0  0  0  0  0  0  0  0
  2  1  1  0  0  0  0
  2  3  1  0  0  0  0
  3 15  1  0  0  0  0
  4  3  2  0  0  0  0
  4  8  1  0  0  0  0
  5  4  1  0  0  0  0
  6  7  1  0  0  0  0
  6  5  2  0  0  0  0
  7  2  2  0  0  0  0
  9  5  1  0  0  0  0
 10  6  1  0  0  0  0
 11 12  1  0  0  0  0
 11 17  1  0  0  0  0
 12 18  1  0  0  0  0
 13 12  2  0  0  0  0
 14 13  1  0  0  0  0
 15 14  2  0  0  0  0
 15 16  1  0  0  0  0
 16 11  2  0  0  0  0
 19 13  1  0  0  0  0
 20  7  1  0  0  0  0
 21 20  1  0  0  0  0
 22 23  1  0  0  0  0
 22 21  2  0  0  0  0
 23 24  1  0  0  0  0
 24 20  2  0  0  0  0
 25 22  1  0  0  0  0
 26 27  2  0  0  0  0
 26 23  1  0  0  0  0
 27 28  1  0  0  0  0
 29 27  1  0  0  0  0
 30 29  1  0  0  0  0
 31 33  1  0  0  0  0
 31 29  2  0  0  0  0
 32 31  1  0  0  0  0
 33 26  1  0  0  0  0
M  END
>  <minimizedAffinity>
-5.30485201

>  <minimizedRMSD>
0.181396365

$$$$
