
 OpenBabel03242514233D

 33 36  0  0  0  0  0  0  0  0999 V2000
   44.7710   33.1510   41.1000 Cl  0  0  0  0  0  0  0  0  0  0  0  0
   46.3120   33.9620   40.8930 C   0  0  0  0  0  0  0  0  0  0  0  0
   46.8320   34.7100   41.9100 C   0  0  0  0  0  0  0  0  0  0  0  0
   48.0560   35.3590   41.7600 C   0  0  0  0  0  0  0  0  0  0  0  0
   48.6930   35.2070   40.5600 C   0  0  0  0  0  0  0  0  0  0  0  0
   48.1640   34.4510   39.5360 C   0  0  0  0  0  0  0  0  0  0  0  0
   46.9650   33.8220   39.6980 C   0  0  0  0  0  0  0  0  0  0  0  0
   48.4900   35.9540   42.5430 H   0  0  0  0  0  0  0  0  0  0  0  0
   49.6570   35.6680   40.3290 H   0  0  0  0  0  0  0  0  0  0  0  0
   48.6650   34.3250   38.5760 H   0  0  0  0  0  0  0  0  0  0  0  0
   45.6020   34.0320   45.3160 C   0  0  0  0  0  0  0  0  0  0  0  0
   44.7200   35.1000   45.5290 C   0  0  0  0  0  0  0  0  0  0  0  0
   44.5530   36.0350   44.5160 C   0  0  0  0  0  0  0  0  0  0  0  0
   45.2510   35.8690   43.3720 N   0  0  0  0  0  0  0  0  0  0  0  0
   46.1020   34.8340   43.1740 C   0  0  0  0  0  0  0  0  0  0  0  0
   46.2820   33.9080   44.1500 N   0  0  0  0  0  0  0  0  0  0  0  0
   45.7200   33.3080   46.1240 H   0  0  0  0  0  0  0  0  0  0  0  0
   44.1550   35.2600   46.4170 H   0  0  0  0  0  0  0  0  0  0  0  0
   43.9270   36.8970   44.5150 H   0  0  0  0  0  0  0  0  0  0  0  0
   46.3770   33.0150   38.6360 C   0  0  0  0  0  0  0  0  0  0  0  0
   45.4100   33.3690   37.7810 N   0  0  0  0  0  0  0  0  0  0  0  0
   45.1510   32.3400   36.9560 C   0  0  0  0  0  0  0  0  0  0  0  0
   45.9670   31.3170   37.2950 N   0  0  0  0  0  0  0  0  0  0  0  0
   46.7150   31.7420   38.3260 N   0  0  0  0  0  0  0  0  0  0  0  0
   44.4590   32.2230   36.1480 H   0  0  0  0  0  0  0  0  0  0  0  0
   46.1530   29.9960   36.7950 C   0  0  0  0  0  0  0  0  0  0  0  0
   45.3920   28.9790   37.3850 C   0  0  0  0  0  0  0  0  0  0  0  0
   44.6530   28.9600   38.1770 H   0  0  0  0  0  0  0  0  0  0  0  0
   45.7490   27.7990   36.7340 C   0  0  0  0  0  0  0  0  0  0  0  0
   45.4510   26.7570   36.8200 H   0  0  0  0  0  0  0  0  0  0  0  0
   46.7070   28.1740   35.7860 C   0  0  0  0  0  0  0  0  0  0  0  0
   47.2870   27.6370   35.0390 H   0  0  0  0  0  0  0  0  0  0  0  0
   46.9120   29.4780   35.8600 O   0  0  0  0  0  0  0  0  0  0  0  0
  2  1  1  0  0  0  0
  2  3  1  0  0  0  0
  3 15  1  0  0  0  0
  4  3  2  0  0  0  0
  4  8  1  0  0  0  0
  5  4  1  0  0  0  0
  6  7  1  0  0  0  0
  6  5  2  0  0  0  0
  7  2  2  0  0  0  0
  9  5  1  0  0  0  0
 10  6  1  0  0  0  0
 11 12  1  0  0  0  0
 11 17  1  0  0  0  0
 12 18  1  0  0  0  0
 13 12  2  0  0  0  0
 14 13  1  0  0  0  0
 15 14  2  0  0  0  0
 15 16  1  0  0  0  0
 16 11  2  0  0  0  0
 19 13  1  0  0  0  0
 20  7  1  0  0  0  0
 21 20  1  0  0  0  0
 22 23  1  0  0  0  0
 22 21  2  0  0  0  0
 23 24  1  0  0  0  0
 24 20  2  0  0  0  0
 25 22  1  0  0  0  0
 26 23  1  0  0  0  0
 26 27  2  0  0  0  0
 27 28  1  0  0  0  0
 29 30  1  0  0  0  0
 29 27  1  0  0  0  0
 31 33  1  0  0  0  0
 31 29  2  0  0  0  0
 32 31  1  0  0  0  0
 33 26  1  0  0  0  0
M  END
>  <minimizedAffinity>
-5.31249428

>  <minimizedRMSD>
0.236206487

$$$$
