
 OpenBabel03252504283D

 26 27  0  0  0  0  0  0  0  0999 V2000
   43.7700   35.3780   40.8800 O   0  0  0  0  0  0  0  0  0  0  0  0
   44.4680   34.2900   41.3510 C   0  0  0  0  0  0  0  0  0  0  0  0
   45.5200   34.3130   40.9000 H   0  0  0  0  0  0  0  0  0  0  0  0
   43.9610   33.3510   41.0850 H   0  0  0  0  0  0  0  0  0  0  0  0
   44.3960   35.5260   43.3950 C   0  0  0  0  0  0  0  0  0  0  0  0
   44.7210   34.2930   42.8050 C   0  0  0  0  0  0  0  0  0  0  0  0
   45.2180   33.3230   43.6330 C   0  0  0  0  0  0  0  0  0  0  0  0
   45.3550   33.6200   44.9210 N   0  0  0  0  0  0  0  0  0  0  0  0
   45.0480   34.7860   45.4780 C   0  0  0  0  0  0  0  0  0  0  0  0
   44.5370   35.8240   44.7140 N   0  0  0  0  0  0  0  0  0  0  0  0
   43.9880   36.3980   42.8620 H   0  0  0  0  0  0  0  0  0  0  0  0
   45.4420   32.4060   43.1060 H   0  0  0  0  0  0  0  0  0  0  0  0
   45.2300   34.8250   46.5250 H   0  0  0  0  0  0  0  0  0  0  0  0
   42.5500   35.3760   40.2250 C   0  0  0  0  0  3  0  0  0  0  0  0
   41.4750   35.7350   40.9690 C   0  0  0  0  0  3  0  0  0  0  0  0
   40.0550   35.8630   40.4540 C   0  0  0  0  0  0  0  0  0  0  0  0
   39.9690   36.7920   39.8660 H   0  0  0  0  0  0  0  0  0  0  0  0
   39.4140   35.9410   41.3300 H   0  0  0  0  0  0  0  0  0  0  0  0
   39.7770   34.6510   39.6350 C   0  0  0  0  0  0  0  0  0  0  0  0
   39.5800   34.5530   38.2770 C   0  0  0  0  0  0  0  0  0  0  0  0
   39.6000   35.3760   37.5730 H   0  0  0  0  0  0  0  0  0  0  0  0
   39.3600   33.1990   38.0400 C   0  0  0  0  0  0  0  0  0  0  0  0
   39.1660   32.7600   37.0550 H   0  0  0  0  0  0  0  0  0  0  0  0
   39.4350   32.5530   39.2730 C   0  0  0  0  0  0  0  0  0  0  0  0
   39.3060   31.4870   39.4190 H   0  0  0  0  0  0  0  0  0  0  0  0
   39.6860   33.4560   40.2070 O   0  0  0  0  0  0  0  0  0  0  0  0
  1  2  1  0  0  0  0
  2  6  1  0  0  0  0
  3  2  1  0  0  0  0
  4  2  1  0  0  0  0
  5 10  1  0  0  0  0
  6  5  2  0  0  0  0
  6  7  1  0  0  0  0
  7  8  2  0  0  0  0
  8  9  1  0  0  0  0
  9 13  1  0  0  0  0
 10  9  2  0  0  0  0
 11  5  1  0  0  0  0
 12  7  1  0  0  0  0
 14  1  1  0  0  0  0
 14 15  2  0  0  0  0
 16 15  1  0  0  0  0
 16 18  1  0  0  0  0
 17 16  1  0  0  0  0
 19 26  1  0  0  0  0
 19 16  1  0  0  0  0
 20 19  2  0  0  0  0
 21 20  1  0  0  0  0
 22 20  1  0  0  0  0
 22 24  2  0  0  0  0
 23 22  1  0  0  0  0
 24 25  1  0  0  0  0
 24 26  1  0  0  0  0
M  END
>  <minimizedAffinity>
-4.43302393

>  <minimizedRMSD>
1.04694271

$$$$
