
 OpenBabel03252509263D

 29 31  0  0  1  0  0  0  0  0999 V2000
   46.6020   35.1010   41.9200 C   0  0  1  0  0  0  0  0  0  0  0  0
   48.1450   35.2680   41.9280 C   0  0  0  0  0  0  0  0  0  0  0  0
   47.3480   34.0890   41.2940 C   0  0  2  0  0  0  0  0  0  0  0  0
   46.1250   35.9400   41.3920 H   0  0  0  0  0  0  0  0  0  0  0  0
   48.5820   35.9200   41.1590 H   0  0  0  0  0  0  0  0  0  0  0  0
   48.7010   35.0130   42.8360 H   0  0  0  0  0  0  0  0  0  0  0  0
   47.4740   33.1050   41.8300 H   0  0  0  0  0  0  0  0  0  0  0  0
   44.6510   35.4140   45.1050 C   0  0  0  0  0  0  0  0  0  0  0  0
   45.1310   35.7200   43.8040 C   0  0  0  0  0  0  0  0  0  0  0  0
   46.0800   34.8770   43.3150 C   0  0  0  0  0  0  0  0  0  0  0  0
   46.5380   33.8050   44.0420 N   0  0  0  0  0  0  0  0  0  0  0  0
   46.0540   33.5510   45.2770 C   0  0  0  0  0  0  0  0  0  0  0  0
   45.1070   34.3590   45.8090 N   0  0  0  0  0  0  0  0  0  0  0  0
   43.8900   36.0740   45.5150 H   0  0  0  0  0  0  0  0  0  0  0  0
   46.3870   32.7220   45.8800 H   0  0  0  0  0  0  0  0  0  0  0  0
   44.6650   36.8440   43.0840 N   0  0  0  0  0  0  0  0  0  0  0  0
   43.7840   37.0470   42.5680 H   0  0  0  0  0  0  0  0  0  0  0  0
   45.4720   37.5310   43.1760 H   0  0  0  0  0  0  0  0  0  0  0  0
   47.3770   33.9290   39.7920 C   0  0  0  0  0  0  0  0  0  0  0  0
   48.3020   33.4350   39.4940 H   0  0  0  0  0  0  0  0  0  0  0  0
   47.2690   34.9010   39.2680 H   0  0  0  0  0  0  0  0  0  0  0  0
   46.2120   33.0420   39.4710 C   0  0  0  0  0  0  0  0  0  0  0  0
   45.7400   31.9810   40.2050 C   0  0  0  0  0  0  0  0  0  0  0  0
   46.1530   31.6380   41.1280 H   0  0  0  0  0  0  0  0  0  0  0  0
   44.6520   31.4750   39.5080 C   0  0  0  0  0  0  0  0  0  0  0  0
   44.0440   30.6300   39.8110 H   0  0  0  0  0  0  0  0  0  0  0  0
   44.5220   32.2670   38.3720 C   0  0  0  0  0  0  0  0  0  0  0  0
   43.7320   32.0600   37.6710 H   0  0  0  0  0  0  0  0  0  0  0  0
   45.4620   33.1770   38.3920 O   0  0  0  0  0  0  0  0  0  0  0  0
  1  4  1  6  0  0  0
  1  2  1  0  0  0  0
  1 10  1  0  0  0  0
  2  6  1  0  0  0  0
  3  7  1  1  0  0  0
  3  1  1  0  0  0  0
  3  2  1  0  0  0  0
  5  2  1  0  0  0  0
  8 14  1  0  0  0  0
  8 13  1  0  0  0  0
  9  8  2  0  0  0  0
 10  9  1  0  0  0  0
 10 11  2  0  0  0  0
 11 12  1  0  0  0  0
 12 13  2  0  0  0  0
 12 15  1  0  0  0  0
 16 18  1  0  0  0  0
 16  9  1  0  0  0  0
 17 16  1  0  0  0  0
 19  3  1  0  0  0  0
 20 19  1  0  0  0  0
 21 19  1  0  0  0  0
 22 19  1  0  0  0  0
 22 23  2  0  0  0  0
 23 24  1  0  0  0  0
 25 26  1  0  0  0  0
 25 23  1  0  0  0  0
 27 29  1  0  0  0  0
 27 25  2  0  0  0  0
 28 27  1  0  0  0  0
 29 22  1  0  0  0  0
M  END
>  <minimizedAffinity>
-4.41072512

>  <minimizedRMSD>
0.682575047

$$$$
