
 OpenBabel03252508503D

 27 29  0  0  0  0  0  0  0  0999 V2000
   45.9690   34.1600   41.0500 C   0  0  0  0  0  0  0  0  0  0  0  0
   46.5410   34.8050   42.1390 C   0  0  0  0  0  0  0  0  0  0  0  0
   47.8840   35.2000   42.0010 C   0  0  0  0  0  0  0  0  0  0  0  0
   48.5200   34.9290   40.8320 N   0  0  0  0  0  0  0  0  0  0  0  0
   47.9300   34.3080   39.8180 C   0  0  0  0  0  0  0  0  0  0  0  0
   46.6470   33.9190   39.9190 N   0  0  0  0  0  0  0  0  0  0  0  0
   48.3510   35.6980   42.8220 H   0  0  0  0  0  0  0  0  0  0  0  0
   48.4030   34.0740   38.8680 H   0  0  0  0  0  0  0  0  0  0  0  0
   45.7620   35.0420   43.3380 C   0  0  0  0  0  0  0  0  0  0  0  0
   45.0590   36.2060   43.5660 C   0  0  0  0  0  0  0  0  0  0  0  0
   44.4800   36.0080   44.7980 C   0  0  0  0  0  0  0  0  0  0  0  0
   44.8080   34.7980   45.2940 N   0  0  0  0  0  0  0  0  0  0  0  0
   45.5830   34.2350   44.3920 N   0  0  0  0  0  0  0  0  0  0  0  0
   44.9330   37.1060   42.9800 H   0  0  0  0  0  0  0  0  0  0  0  0
   43.8300   36.6530   45.3960 H   0  0  0  0  0  0  0  0  0  0  0  0
   44.5940   34.2670   46.1640 H   0  0  0  0  0  0  0  0  0  0  0  0
   44.6500   33.7570   41.1490 O   0  0  0  0  0  0  0  0  0  0  0  0
   43.5530   34.3640   40.6100 C   0  0  0  0  0  0  0  0  0  0  0  0
   43.2980   35.6240   40.5920 O   0  0  0  0  0  0  0  0  0  0  0  0
   42.4470   33.6140   39.9390 C   0  0  0  0  0  0  0  0  0  0  0  0
   42.1530   33.5520   38.5710 C   0  0  0  0  0  0  0  0  0  0  0  0
   42.7680   34.0950   37.8370 H   0  0  0  0  0  0  0  0  0  0  0  0
   41.0550   32.7580   38.3260 C   0  0  0  0  0  0  0  0  0  0  0  0
   40.6200   32.5440   37.3600 H   0  0  0  0  0  0  0  0  0  0  0  0
   40.7100   32.3530   39.5960 C   0  0  0  0  0  0  0  0  0  0  0  0
   39.8630   31.6920   39.8260 H   0  0  0  0  0  0  0  0  0  0  0  0
   41.5170   32.8570   40.4610 O   0  0  0  0  0  0  0  0  0  0  0  0
  1 17  1  0  0  0  0
  1  2  1  0  0  0  0
  2  9  1  0  0  0  0
  3  2  2  0  0  0  0
  3  7  1  0  0  0  0
  4  3  1  0  0  0  0
  5  6  1  0  0  0  0
  5  4  2  0  0  0  0
  6  1  2  0  0  0  0
  8  5  1  0  0  0  0
  9 10  1  0  0  0  0
  9 13  2  0  0  0  0
 10 11  2  0  0  0  0
 11 12  1  0  0  0  0
 11 15  1  0  0  0  0
 12 16  1  0  0  0  0
 13 12  1  0  0  0  0
 14 10  1  0  0  0  0
 18 17  1  0  0  0  0
 19 18  2  0  0  0  0
 20 27  1  0  0  0  0
 20 18  1  0  0  0  0
 21 20  2  0  0  0  0
 22 21  1  0  0  0  0
 23 21  1  0  0  0  0
 23 25  2  0  0  0  0
 24 23  1  0  0  0  0
 25 26  1  0  0  0  0
 25 27  1  0  0  0  0
M  END
>  <minimizedAffinity>
-5.03766441

>  <minimizedRMSD>
0.462932467

$$$$
