
 OpenBabel03252509263D

 29 31  0  0  1  0  0  0  0  0999 V2000
   46.8280   35.1500   41.8640 C   0  0  1  0  0  0  0  0  0  0  0  0
   48.3380   35.4990   41.9160 C   0  0  0  0  0  0  0  0  0  0  0  0
   47.7020   34.2560   41.2250 C   0  0  2  0  0  0  0  0  0  0  0  0
   46.2640   35.9440   41.3510 H   0  0  0  0  0  0  0  0  0  0  0  0
   48.7100   36.2240   41.1780 H   0  0  0  0  0  0  0  0  0  0  0  0
   48.9020   35.2810   42.8280 H   0  0  0  0  0  0  0  0  0  0  0  0
   47.9330   33.2760   41.7330 H   0  0  0  0  0  0  0  0  0  0  0  0
   44.8070   35.1430   45.0210 C   0  0  0  0  0  0  0  0  0  0  0  0
   45.2780   35.5480   43.7440 C   0  0  0  0  0  0  0  0  0  0  0  0
   46.3070   34.8180   43.2380 C   0  0  0  0  0  0  0  0  0  0  0  0
   46.8500   33.7610   43.9270 N   0  0  0  0  0  0  0  0  0  0  0  0
   46.3740   33.4090   45.1410 C   0  0  0  0  0  0  0  0  0  0  0  0
   45.3480   34.1030   45.6880 N   0  0  0  0  0  0  0  0  0  0  0  0
   43.9830   35.7110   45.4440 H   0  0  0  0  0  0  0  0  0  0  0  0
   46.7720   32.5880   45.7140 H   0  0  0  0  0  0  0  0  0  0  0  0
   44.7210   36.6560   43.0640 N   0  0  0  0  0  0  0  0  0  0  0  0
   43.8330   36.8000   42.5400 H   0  0  0  0  0  0  0  0  0  0  0  0
   45.4590   37.4090   43.2000 H   0  0  0  0  0  0  0  0  0  0  0  0
   47.7810   34.1520   39.7200 C   0  0  0  0  0  0  0  0  0  0  0  0
   48.7670   33.7900   39.4290 H   0  0  0  0  0  0  0  0  0  0  0  0
   47.5600   35.1200   39.2240 H   0  0  0  0  0  0  0  0  0  0  0  0
   46.7450   33.1360   39.3430 C   0  0  0  0  0  0  0  0  0  0  0  0
   46.0440   33.0540   38.1650 C   0  0  0  0  0  0  0  0  0  0  0  0
   46.1470   33.7210   37.3370 H   0  0  0  0  0  0  0  0  0  0  0  0
   45.2050   31.9540   38.2830 C   0  0  0  0  0  0  0  0  0  0  0  0
   44.5110   31.6030   37.5290 H   0  0  0  0  0  0  0  0  0  0  0  0
   45.4470   31.4220   39.5460 C   0  0  0  0  0  0  0  0  0  0  0  0
   44.9030   30.5490   39.8650 H   0  0  0  0  0  0  0  0  0  0  0  0
   46.3610   32.1510   40.1340 O   0  0  0  0  0  0  0  0  0  0  0  0
  1  4  1  6  0  0  0
  1  2  1  0  0  0  0
  1 10  1  0  0  0  0
  2  6  1  0  0  0  0
  3  7  1  1  0  0  0
  3  1  1  0  0  0  0
  3  2  1  0  0  0  0
  5  2  1  0  0  0  0
  8 14  1  0  0  0  0
  8 13  1  0  0  0  0
  9  8  2  0  0  0  0
 10  9  1  0  0  0  0
 10 11  2  0  0  0  0
 11 12  1  0  0  0  0
 12 13  2  0  0  0  0
 12 15  1  0  0  0  0
 16 18  1  0  0  0  0
 16  9  1  0  0  0  0
 17 16  1  0  0  0  0
 19  3  1  0  0  0  0
 20 19  1  0  0  0  0
 21 19  1  0  0  0  0
 22 19  1  0  0  0  0
 22 29  1  0  0  0  0
 23 25  1  0  0  0  0
 23 22  2  0  0  0  0
 24 23  1  0  0  0  0
 25 27  2  0  0  0  0
 26 25  1  0  0  0  0
 27 28  1  0  0  0  0
 27 29  1  0  0  0  0
M  END
>  <minimizedAffinity>
-4.43638182

>  <minimizedRMSD>
1.00493753

$$$$
