
 OpenBabel03252508023D

 41 44  0  0  1  0  0  0  0  0999 V2000
   42.0440   33.2820   41.1500 C   0  0  0  0  0  0  0  0  0  0  0  0
   42.7870   34.4120   41.3220 C   0  0  0  0  0  0  0  0  0  0  0  0
   42.1320   35.6530   41.2670 C   0  0  0  0  0  0  0  0  0  0  0  0
   40.7810   35.7820   41.0510 C   0  0  0  0  0  0  0  0  0  0  0  0
   40.0420   34.6460   40.8810 C   0  0  0  0  0  0  0  0  0  0  0  0
   40.6690   33.4380   40.9310 C   0  0  0  0  0  0  0  0  0  0  0  0
   42.6510   36.5950   41.3860 H   0  0  0  0  0  0  0  0  0  0  0  0
   40.2910   36.7190   41.0100 H   0  0  0  0  0  0  0  0  0  0  0  0
   38.9780   34.6560   40.7060 H   0  0  0  0  0  0  0  0  0  0  0  0
   40.0630   32.5260   40.7930 H   0  0  0  0  0  0  0  0  0  0  0  0
   42.6930   31.7270   41.2450 S   0  0  0  0  0  0  0  0  0  0  0  0
   41.5860   30.8860   40.5740 O   0  0  0  0  0  0  0  0  0  0  0  0
   42.8220   31.2400   42.6480 O   0  0  0  0  0  0  0  0  0  0  0  0
   43.8250   31.0090   40.1940 C   0  0  0  0  0  0  0  0  0  0  0  0
   43.8470   31.4540   38.8460 C   0  0  0  0  0  0  0  0  0  0  0  0
   43.2590   32.2020   38.2920 H   0  0  0  0  0  0  0  0  0  0  0  0
   44.8200   30.7560   38.1990 C   0  0  0  0  0  0  0  0  0  0  0  0
   45.1360   30.8170   37.1630 H   0  0  0  0  0  0  0  0  0  0  0  0
   45.3860   29.9130   39.0910 C   0  0  0  0  0  0  0  0  0  0  0  0
   46.1590   29.1870   39.0720 H   0  0  0  0  0  0  0  0  0  0  0  0
   44.7790   30.0990   40.2190 O   0  0  0  0  0  0  0  0  0  0  0  0
   44.2310   34.3670   41.5500 C   0  0  0  0  0  0  0  0  0  0  0  0
   45.1120   34.2550   40.6230 O   0  0  0  0  0  0  0  0  0  0  0  0
   44.5780   34.4660   42.9390 C   0  0  0  0  0  0  0  0  0  0  0  0
   44.3040   35.7070   43.5690 C   0  0  0  0  0  0  0  0  0  0  0  0
   44.6250   35.8160   44.9130 C   0  0  0  0  0  0  0  0  0  0  0  0
   45.1780   34.7400   45.5400 N   0  0  0  0  0  0  0  0  0  0  0  0
   45.4260   33.5610   44.8920 C   0  0  0  0  0  0  0  0  0  0  0  0
   45.1200   33.4860   43.6480 N   0  0  0  0  0  0  0  0  0  0  0  0
   43.8820   36.5880   43.1650 H   0  0  0  0  0  0  0  0  0  0  0  0
   44.4640   36.7100   45.5070 H   0  0  0  0  0  0  0  0  0  0  0  0
   46.0170   32.4440   45.6560 C   0  0  1  0  0  0  0  0  0  0  0  0
   46.9660   32.7540   46.7910 C   0  0  0  0  0  0  0  0  0  0  0  0
   45.5450   32.3420   47.0610 C   0  0  1  0  0  0  0  0  0  0  0  0
   46.1350   31.4740   45.1410 H   0  0  0  0  0  0  0  0  0  0  0  0
   47.6940   31.9400   47.0300 H   0  0  0  0  0  0  0  0  0  0  0  0
   47.3100   33.7800   46.9850 H   0  0  0  0  0  0  0  0  0  0  0  0
   45.3240   31.3570   47.5260 H   0  0  0  0  0  0  0  0  0  0  0  0
   44.7660   33.4100   47.6490 N   0  0  0  0  0  0  0  0  0  0  0  0
   45.3470   33.9950   48.2830 H   0  0  0  0  0  0  0  0  0  0  0  0
   43.8620   33.1240   48.0490 H   0  0  0  0  0  0  0  0  0  0  0  0
  1 11  1  0  0  0  0
  1  2  1  0  0  0  0
  2 22  1  0  0  0  0
  3  2  2  0  0  0  0
  3  7  1  0  0  0  0
  4  3  1  0  0  0  0
  5  6  1  0  0  0  0
  5  4  2  0  0  0  0
  6  1  2  0  0  0  0
  8  4  1  0  0  0  0
  9  5  1  0  0  0  0
 10  6  1  0  0  0  0
 11 13  2  0  0  0  0
 12 11  2  0  0  0  0
 14 21  1  0  0  0  0
 14 11  1  0  0  0  0
 15 14  2  0  0  0  0
 16 15  1  0  0  0  0
 17 15  1  0  0  0  0
 17 19  2  0  0  0  0
 18 17  1  0  0  0  0
 19 21  1  0  0  0  0
 20 19  1  0  0  0  0
 22 24  1  0  0  0  0
 23 22  2  0  0  0  0
 24 25  2  0  0  0  0
 24 29  1  0  0  0  0
 25 26  1  0  0  0  0
 26 31  1  0  0  0  0
 26 27  2  0  0  0  0
 28 27  1  0  0  0  0
 28 32  1  0  0  0  0
 29 28  2  0  0  0  0
 30 25  1  0  0  0  0
 32 35  1  6  0  0  0
 32 33  1  0  0  0  0
 32 34  1  0  0  0  0
 33 37  1  0  0  0  0
 33 36  1  0  0  0  0
 33 34  1  0  0  0  0
 34 38  1  1  0  0  0
 34 39  1  0  0  0  0
 39 41  1  0  0  0  0
 39 40  1  0  0  0  0
M  END
>  <minimizedAffinity>
-5.72156811

>  <minimizedRMSD>
1.14853621

$$$$
