
 OpenBabel03252509003D

 44 46  0  0  1  0  0  0  0  0999 V2000
   47.2140   34.0930   43.0560 N   0  0  0  0  0  0  0  0  0  0  0  0
   46.7150   35.3000   42.5060 C   0  0  0  0  0  0  0  0  0  0  0  0
   45.2370   35.5450   42.7340 C   0  0  0  0  0  0  0  0  0  0  0  0
   44.7040   34.9950   44.0290 C   0  0  0  0  0  0  0  0  0  0  0  0
   45.8090   34.4160   44.8800 C   0  0  0  0  0  0  0  0  0  0  0  0
   46.4640   33.3380   43.9400 C   0  0  2  0  0  0  0  0  0  0  0  0
   46.9150   35.4670   41.4420 H   0  0  0  0  0  0  0  0  0  0  0  0
   47.2540   36.1340   43.0340 H   0  0  0  0  0  0  0  0  0  0  0  0
   44.6450   35.2150   41.8550 H   0  0  0  0  0  0  0  0  0  0  0  0
   45.0680   36.6500   42.7790 H   0  0  0  0  0  0  0  0  0  0  0  0
   44.1910   35.7430   44.6510 H   0  0  0  0  0  0  0  0  0  0  0  0
   43.9910   34.1850   43.8130 H   0  0  0  0  0  0  0  0  0  0  0  0
   45.3670   33.9180   45.7510 H   0  0  0  0  0  0  0  0  0  0  0  0
   46.6010   35.1220   45.1270 H   0  0  0  0  0  0  0  0  0  0  0  0
   45.6490   32.7080   43.5290 H   0  0  0  0  0  0  0  0  0  0  0  0
   48.1900   33.4310   42.2350 C   0  0  0  0  0  0  0  0  0  0  0  0
   48.8420   34.2150   41.7860 H   0  0  0  0  0  0  0  0  0  0  0  0
   48.8270   32.7500   42.8370 H   0  0  0  0  0  0  0  0  0  0  0  0
   47.4680   32.6150   41.2070 C   0  0  0  0  0  0  0  0  0  0  0  0
   46.3750   32.8750   41.1810 H   0  0  0  0  0  0  0  0  0  0  0  0
   47.5240   31.5270   41.3870 H   0  0  0  0  0  0  0  0  0  0  0  0
   49.3590   32.3030   37.9780 C   0  0  0  0  0  0  0  0  0  0  0  0
   48.8380   32.0130   39.2530 C   0  0  0  0  0  0  0  0  0  0  0  0
   48.0120   32.9310   39.8620 C   0  0  0  0  0  0  0  0  0  0  0  0
   47.7470   34.0620   39.2010 N   0  0  0  0  0  0  0  0  0  0  0  0
   48.2490   34.3320   37.9830 C   0  0  0  0  0  0  0  0  0  0  0  0
   49.0630   33.4500   37.3590 N   0  0  0  0  0  0  0  0  0  0  0  0
   50.0010   31.6460   37.4470 H   0  0  0  0  0  0  0  0  0  0  0  0
   49.1320   31.0630   39.6740 H   0  0  0  0  0  0  0  0  0  0  0  0
   48.0120   35.2660   37.4720 H   0  0  0  0  0  0  0  0  0  0  0  0
   47.2640   32.6430   44.8330 O   0  0  0  0  0  0  0  0  0  0  0  0
   46.3980   30.3670   43.7600 O   0  0  0  0  0  0  0  0  0  0  0  0
   46.7420   31.0630   45.0830 P   0  0  2  0  0  0  0  0  0  0  0  0
   45.2400   31.1890   45.9000 O   0  0  0  0  0  0  0  0  0  0  0  0
   45.3010   31.9180   46.5780 H   0  0  0  0  0  0  0  0  0  0  0  0
   47.7640   30.1770   46.0310 O   0  0  0  0  0  0  0  0  0  0  0  0
   48.2200   30.4030   47.3010 C   0  0  0  0  0  0  0  0  0  0  0  0
   49.0550   29.4790   47.9390 C   0  0  0  0  0  0  0  0  0  0  0  0
   49.4340   28.5360   47.5630 H   0  0  0  0  0  0  0  0  0  0  0  0
   49.3080   30.0400   49.1920 C   0  0  0  0  0  0  0  0  0  0  0  0
   49.9510   29.5120   49.9130 H   0  0  0  0  0  0  0  0  0  0  0  0
   48.6200   31.2540   49.2410 C   0  0  0  0  0  0  0  0  0  0  0  0
   48.7190   31.8140   50.1620 H   0  0  0  0  0  0  0  0  0  0  0  0
   47.9960   31.4200   48.1040 O   0  0  0  0  0  0  0  0  0  0  0  0
  1  6  1  0  0  0  0
  2  3  1  0  0  0  0
  2  8  1  0  0  0  0
  2  1  1  0  0  0  0
  3 10  1  0  0  0  0
  3  4  1  0  0  0  0
  4 11  1  0  0  0  0
  4  5  1  0  0  0  0
  5 14  1  0  0  0  0
  5 13  1  0  0  0  0
  6 15  1  6  0  0  0
  6 31  1  0  0  0  0
  6  5  1  0  0  0  0
  7  2  1  0  0  0  0
  9  3  1  0  0  0  0
 12  4  1  0  0  0  0
 16 18  1  0  0  0  0
 16  1  1  0  0  0  0
 17 16  1  0  0  0  0
 19 21  1  0  0  0  0
 19 16  1  0  0  0  0
 20 19  1  0  0  0  0
 22 23  1  0  0  0  0
 23 29  1  0  0  0  0
 23 24  2  0  0  0  0
 24 19  1  0  0  0  0
 25 24  1  0  0  0  0
 26 25  2  0  0  0  0
 27 22  2  0  0  0  0
 27 26  1  0  0  0  0
 28 22  1  0  0  0  0
 30 26  1  0  0  0  0
 31 33  1  0  0  0  0
 33 32  2  6  0  0  0
 33 34  1  0  0  0  0
 33 36  1  0  0  0  0
 34 35  1  0  0  0  0
 36 37  1  0  0  0  0
 37 38  2  0  0  0  0
 37 44  1  0  0  0  0
 38 40  1  0  0  0  0
 39 38  1  0  0  0  0
 40 42  2  0  0  0  0
 40 41  1  0  0  0  0
 42 43  1  0  0  0  0
 44 42  1  0  0  0  0
M  END
>  <minimizedAffinity>
-4.37789631

>  <minimizedRMSD>
0.986584842

$$$$
