
 OpenBabel03252508503D

 27 29  0  0  0  0  0  0  0  0999 V2000
   45.9690   34.1900   41.0340 C   0  0  0  0  0  0  0  0  0  0  0  0
   46.5470   34.8080   42.1360 C   0  0  0  0  0  0  0  0  0  0  0  0
   47.8990   35.1750   42.0140 C   0  0  0  0  0  0  0  0  0  0  0  0
   48.5380   34.9050   40.8470 N   0  0  0  0  0  0  0  0  0  0  0  0
   47.9430   34.3110   39.8200 C   0  0  0  0  0  0  0  0  0  0  0  0
   46.6510   33.9490   39.9050 N   0  0  0  0  0  0  0  0  0  0  0  0
   48.3700   35.6510   42.8460 H   0  0  0  0  0  0  0  0  0  0  0  0
   48.4180   34.0790   38.8700 H   0  0  0  0  0  0  0  0  0  0  0  0
   45.7630   35.0460   43.3330 C   0  0  0  0  0  0  0  0  0  0  0  0
   45.0720   36.2150   43.5640 C   0  0  0  0  0  0  0  0  0  0  0  0
   44.4840   36.0160   44.7910 C   0  0  0  0  0  0  0  0  0  0  0  0
   44.7960   34.7990   45.2810 N   0  0  0  0  0  0  0  0  0  0  0  0
   45.5690   34.2330   44.3800 N   0  0  0  0  0  0  0  0  0  0  0  0
   44.9590   37.1210   42.9830 H   0  0  0  0  0  0  0  0  0  0  0  0
   43.8370   36.6650   45.3900 H   0  0  0  0  0  0  0  0  0  0  0  0
   44.5710   34.2650   46.1470 H   0  0  0  0  0  0  0  0  0  0  0  0
   44.6410   33.8150   41.1170 O   0  0  0  0  0  0  0  0  0  0  0  0
   43.5630   34.4490   40.5710 C   0  0  0  0  0  0  0  0  0  0  0  0
   43.2810   35.7010   40.6490 O   0  0  0  0  0  0  0  0  0  0  0  0
   42.5130   33.7420   39.7740 C   0  0  0  0  0  0  0  0  0  0  0  0
   41.8570   32.5440   40.0840 C   0  0  0  0  0  0  0  0  0  0  0  0
   42.0900   31.9960   41.0110 H   0  0  0  0  0  0  0  0  0  0  0  0
   40.9490   32.1980   39.1100 C   0  0  0  0  0  0  0  0  0  0  0  0
   40.3130   31.3240   39.1020 H   0  0  0  0  0  0  0  0  0  0  0  0
   41.0900   33.2340   38.2130 C   0  0  0  0  0  0  0  0  0  0  0  0
   40.5200   33.3240   37.2760 H   0  0  0  0  0  0  0  0  0  0  0  0
   41.9740   34.0690   38.6290 O   0  0  0  0  0  0  0  0  0  0  0  0
  1 17  1  0  0  0  0
  1  2  1  0  0  0  0
  2  9  1  0  0  0  0
  3  2  2  0  0  0  0
  3  7  1  0  0  0  0
  4  3  1  0  0  0  0
  5  6  1  0  0  0  0
  5  4  2  0  0  0  0
  6  1  2  0  0  0  0
  8  5  1  0  0  0  0
  9 10  1  0  0  0  0
  9 13  2  0  0  0  0
 10 11  2  0  0  0  0
 11 12  1  0  0  0  0
 11 15  1  0  0  0  0
 12 16  1  0  0  0  0
 13 12  1  0  0  0  0
 14 10  1  0  0  0  0
 18 19  2  0  0  0  0
 18 17  1  0  0  0  0
 20 21  2  0  0  0  0
 20 18  1  0  0  0  0
 21 22  1  0  0  0  0
 23 21  1  0  0  0  0
 24 23  1  0  0  0  0
 25 27  1  0  0  0  0
 25 23  2  0  0  0  0
 26 25  1  0  0  0  0
 27 20  1  0  0  0  0
M  END
>  <minimizedAffinity>
-5.00759077

>  <minimizedRMSD>
0.410218418

$$$$
