
 OpenBabel03242511073D

 26 28  0  0  1  0  0  0  0  0999 V2000
   36.8510   27.6010   42.5480 C   0  0  1  0  0  0  0  0  0  0  0  0
   37.3140   28.4700   43.6790 C   0  0  0  0  0  0  0  0  0  0  0  0
   37.3900   28.9230   42.2090 C   0  0  2  0  0  0  0  0  0  0  0  0
   35.7570   27.4330   42.5300 H   0  0  0  0  0  0  0  0  0  0  0  0
   38.2430   28.1060   44.1610 H   0  0  0  0  0  0  0  0  0  0  0  0
   36.5680   28.9500   44.3190 H   0  0  0  0  0  0  0  0  0  0  0  0
   38.4510   29.0480   41.8740 H   0  0  0  0  0  0  0  0  0  0  0  0
   39.6730   25.3560   41.6640 C   0  0  0  0  0  0  0  0  0  0  0  0
   38.9990   24.0880   41.5830 C   0  0  0  0  0  0  0  0  0  0  0  0
   37.5930   24.0480   41.8420 C   0  0  0  0  0  0  0  0  0  0  0  0
   36.9550   25.1800   42.1500 N   0  0  0  0  0  0  0  0  0  0  0  0
   37.6320   26.3750   42.2190 C   0  0  0  0  0  0  0  0  0  0  0  0
   38.9730   26.4490   41.9780 N   0  0  0  0  0  0  0  0  0  0  0  0
   40.7330   25.3520   41.4630 H   0  0  0  0  0  0  0  0  0  0  0  0
   39.5060   23.1690   41.3350 H   0  0  0  0  0  0  0  0  0  0  0  0
   37.1360   23.0720   41.7680 H   0  0  0  0  0  0  0  0  0  0  0  0
   36.5690   30.0300   41.8490 N   0  0  0  0  0  0  0  0  0  0  0  0
   35.7760   30.2080   42.4820 H   0  0  0  0  0  0  0  0  0  0  0  0
   36.8050   30.8430   40.7050 C   0  0  0  0  0  0  0  0  0  0  0  0
   36.6610   30.4480   39.3910 C   0  0  0  0  0  0  0  0  0  0  0  0
   36.3560   29.4890   38.9840 H   0  0  0  0  0  0  0  0  0  0  0  0
   36.9910   31.5460   38.6000 C   0  0  0  0  0  0  0  0  0  0  0  0
   37.0110   31.6620   37.5150 H   0  0  0  0  0  0  0  0  0  0  0  0
   37.3170   32.5440   39.5010 C   0  0  0  0  0  0  0  0  0  0  0  0
   37.6340   33.5710   39.2830 H   0  0  0  0  0  0  0  0  0  0  0  0
   37.1940   32.0920   40.7370 O   0  0  0  0  0  0  0  0  0  0  0  0
  1  4  1  6  0  0  0
  1  2  1  0  0  0  0
  2  5  1  0  0  0  0
  2  6  1  0  0  0  0
  3  7  1  6  0  0  0
  3  1  1  0  0  0  0
  3  2  1  0  0  0  0
  8 13  1  0  0  0  0
  9  8  2  0  0  0  0
  9 10  1  0  0  0  0
 10 11  2  0  0  0  0
 11 12  1  0  0  0  0
 12  1  1  0  0  0  0
 13 12  2  0  0  0  0
 14  8  1  0  0  0  0
 15  9  1  0  0  0  0
 16 10  1  0  0  0  0
 17  3  1  0  0  0  0
 17 18  1  0  0  0  0
 19 26  1  0  0  0  0
 19 17  1  0  0  0  0
 20 19  2  0  0  0  0
 21 20  1  0  0  0  0
 22 20  1  0  0  0  0
 22 24  2  0  0  0  0
 23 22  1  0  0  0  0
 24 26  1  0  0  0  0
 25 24  1  0  0  0  0
M  END
>  <minimizedAffinity>
-4.64402151

$$$$

 OpenBabel03242511073D

 26 28  0  0  1  0  0  0  0  0999 V2000
   37.6610   27.3850   42.5590 C   0  0  1  0  0  0  0  0  0  0  0  0
   36.5990   27.4660   43.6150 C   0  0  0  0  0  0  0  0  0  0  0  0
   37.4020   28.6990   43.1580 C   0  0  2  0  0  0  0  0  0  0  0  0
   37.2710   27.1550   41.5490 H   0  0  0  0  0  0  0  0  0  0  0  0
   36.8890   26.9800   44.5690 H   0  0  0  0  0  0  0  0  0  0  0  0
   35.5490   27.4060   43.3180 H   0  0  0  0  0  0  0  0  0  0  0  0
   38.0450   29.0970   43.9830 H   0  0  0  0  0  0  0  0  0  0  0  0
   40.1530   24.6640   42.9760 C   0  0  0  0  0  0  0  0  0  0  0  0
   41.2750   25.3980   43.4960 C   0  0  0  0  0  0  0  0  0  0  0  0
   41.1370   26.8090   43.6790 C   0  0  0  0  0  0  0  0  0  0  0  0
   39.9810   27.3980   43.3650 N   0  0  0  0  0  0  0  0  0  0  0  0
   38.9280   26.6650   42.8700 C   0  0  0  0  0  0  0  0  0  0  0  0
   39.0250   25.3160   42.6820 N   0  0  0  0  0  0  0  0  0  0  0  0
   40.2890   23.6010   42.8500 H   0  0  0  0  0  0  0  0  0  0  0  0
   42.2130   24.9310   43.7530 H   0  0  0  0  0  0  0  0  0  0  0  0
   42.0100   27.3130   44.0720 H   0  0  0  0  0  0  0  0  0  0  0  0
   36.6610   29.7220   42.5000 N   0  0  0  0  0  0  0  0  0  0  0  0
   35.7600   29.9600   42.9400 H   0  0  0  0  0  0  0  0  0  0  0  0
   37.1090   30.3810   41.3210 C   0  0  0  0  0  0  0  0  0  0  0  0
   36.3150   30.7620   40.2590 C   0  0  0  0  0  0  0  0  0  0  0  0
   35.2450   30.6450   40.1140 H   0  0  0  0  0  0  0  0  0  0  0  0
   37.1520   31.3690   39.3250 C   0  0  0  0  0  0  0  0  0  0  0  0
   36.9330   31.8080   38.3500 H   0  0  0  0  0  0  0  0  0  0  0  0
   38.4120   31.3110   39.8930 C   0  0  0  0  0  0  0  0  0  0  0  0
   39.3570   31.6820   39.4760 H   0  0  0  0  0  0  0  0  0  0  0  0
   38.3470   30.7210   41.0740 O   0  0  0  0  0  0  0  0  0  0  0  0
  1  4  1  6  0  0  0
  1 12  1  0  0  0  0
  1  3  1  0  0  0  0
  1  2  1  0  0  0  0
  2  5  1  0  0  0  0
  3  2  1  0  0  0  0
  3  7  1  1  0  0  0
  6  2  1  0  0  0  0
  8  9  1  0  0  0  0
  9 10  2  0  0  0  0
  9 15  1  0  0  0  0
 10 16  1  0  0  0  0
 11 10  1  0  0  0  0
 12 11  2  0  0  0  0
 13 12  1  0  0  0  0
 13  8  2  0  0  0  0
 14  8  1  0  0  0  0
 17 18  1  0  0  0  0
 17  3  1  0  0  0  0
 19 17  1  0  0  0  0
 20 19  2  0  0  0  0
 21 20  1  0  0  0  0
 22 24  2  0  0  0  0
 22 20  1  0  0  0  0
 23 22  1  0  0  0  0
 24 26  1  0  0  0  0
 25 24  1  0  0  0  0
 26 19  1  0  0  0  0
M  END
>  <minimizedAffinity>
-4.53284454

$$$$

 OpenBabel03242511073D

 26 28  0  0  1  0  0  0  0  0999 V2000
   37.3400   30.1890   40.3980 C   0  0  1  0  0  0  0  0  0  0  0  0
   36.1010   30.3660   39.5720 C   0  0  0  0  0  0  0  0  0  0  0  0
   36.5600   31.4150   40.6020 C   0  0  2  0  0  0  0  0  0  0  0  0
   38.2790   30.2270   39.8120 H   0  0  0  0  0  0  0  0  0  0  0  0
   35.2800   29.6780   39.8590 H   0  0  0  0  0  0  0  0  0  0  0  0
   36.2010   30.6170   38.5120 H   0  0  0  0  0  0  0  0  0  0  0  0
   35.8320   31.5040   41.4460 H   0  0  0  0  0  0  0  0  0  0  0  0
   37.7520   28.4960   43.6770 C   0  0  0  0  0  0  0  0  0  0  0  0
   37.4010   27.1440   43.3330 C   0  0  0  0  0  0  0  0  0  0  0  0
   37.0280   26.8630   41.9820 C   0  0  0  0  0  0  0  0  0  0  0  0
   37.0150   27.8550   41.0880 N   0  0  0  0  0  0  0  0  0  0  0  0
   37.3570   29.1360   41.4520 C   0  0  0  0  0  0  0  0  0  0  0  0
   37.7180   29.4400   42.7330 N   0  0  0  0  0  0  0  0  0  0  0  0
   38.0290   28.6760   44.7040 H   0  0  0  0  0  0  0  0  0  0  0  0
   37.4080   26.3370   44.0470 H   0  0  0  0  0  0  0  0  0  0  0  0
   36.7740   25.8320   41.7760 H   0  0  0  0  0  0  0  0  0  0  0  0
   36.9480   32.6810   40.0770 N   0  0  0  0  0  0  0  0  0  0  0  0
   36.1700   33.2870   39.7790 H   0  0  0  0  0  0  0  0  0  0  0  0
   38.3030   33.1010   39.9620 C   0  0  0  0  0  0  0  0  0  0  0  0
   38.9170   34.0670   40.7320 C   0  0  0  0  0  0  0  0  0  0  0  0
   38.5150   34.6710   41.5390 H   0  0  0  0  0  0  0  0  0  0  0  0
   40.2340   34.1610   40.2880 C   0  0  0  0  0  0  0  0  0  0  0  0
   41.0550   34.7980   40.6240 H   0  0  0  0  0  0  0  0  0  0  0  0
   40.3290   33.2340   39.2660 C   0  0  0  0  0  0  0  0  0  0  0  0
   41.2060   32.9960   38.6510 H   0  0  0  0  0  0  0  0  0  0  0  0
   39.1670   32.6250   39.1020 O   0  0  0  0  0  0  0  0  0  0  0  0
  1  4  1  6  0  0  0
  1  3  1  0  0  0  0
  1 12  1  0  0  0  0
  2  5  1  0  0  0  0
  2  1  1  0  0  0  0
  2  3  1  0  0  0  0
  3  7  1  1  0  0  0
  6  2  1  0  0  0  0
  8 14  1  0  0  0  0
  9  8  1  0  0  0  0
  9 15  1  0  0  0  0
 10  9  2  0  0  0  0
 11 12  2  0  0  0  0
 11 10  1  0  0  0  0
 12 13  1  0  0  0  0
 13  8  2  0  0  0  0
 16 10  1  0  0  0  0
 17  3  1  0  0  0  0
 18 17  1  0  0  0  0
 19 17  1  0  0  0  0
 19 20  2  0  0  0  0
 20 21  1  0  0  0  0
 22 23  1  0  0  0  0
 22 20  1  0  0  0  0
 24 22  2  0  0  0  0
 25 24  1  0  0  0  0
 26 24  1  0  0  0  0
 26 19  1  0  0  0  0
M  END
>  <minimizedAffinity>
-4.47791862

$$$$

 OpenBabel03242511073D

 26 28  0  0  1  0  0  0  0  0999 V2000
   36.1350   28.7940   39.8430 C   0  0  1  0  0  0  0  0  0  0  0  0
   34.7440   29.3380   39.9790 C   0  0  0  0  0  0  0  0  0  0  0  0
   35.9840   30.1230   40.4470 C   0  0  2  0  0  0  0  0  0  0  0  0
   36.4810   28.7020   38.7960 H   0  0  0  0  0  0  0  0  0  0  0  0
   34.1400   28.8140   40.7470 H   0  0  0  0  0  0  0  0  0  0  0  0
   34.2250   29.6950   39.0850 H   0  0  0  0  0  0  0  0  0  0  0  0
   35.9870   30.2590   41.5570 H   0  0  0  0  0  0  0  0  0  0  0  0
   37.0430   26.7460   42.8050 C   0  0  0  0  0  0  0  0  0  0  0  0
   37.3210   25.4780   42.1860 C   0  0  0  0  0  0  0  0  0  0  0  0
   37.1800   25.3690   40.7670 C   0  0  0  0  0  0  0  0  0  0  0  0
   36.7960   26.4390   40.0660 N   0  0  0  0  0  0  0  0  0  0  0  0
   36.5390   27.6360   40.6910 C   0  0  0  0  0  0  0  0  0  0  0  0
   36.6640   27.7750   42.0440 N   0  0  0  0  0  0  0  0  0  0  0  0
   37.1600   26.7950   43.8770 H   0  0  0  0  0  0  0  0  0  0  0  0
   37.6310   24.6090   42.7440 H   0  0  0  0  0  0  0  0  0  0  0  0
   37.4000   24.3950   40.3530 H   0  0  0  0  0  0  0  0  0  0  0  0
   36.2630   31.3320   39.7460 N   0  0  0  0  0  0  0  0  0  0  0  0
   35.6420   31.5260   38.9480 H   0  0  0  0  0  0  0  0  0  0  0  0
   37.3170   32.2200   40.1020 C   0  0  0  0  0  0  0  0  0  0  0  0
   37.4400   33.5310   39.6910 C   0  0  0  0  0  0  0  0  0  0  0  0
   36.7950   34.1210   39.0470 H   0  0  0  0  0  0  0  0  0  0  0  0
   38.6070   34.0270   40.2670 C   0  0  0  0  0  0  0  0  0  0  0  0
   39.0720   35.0130   40.2010 H   0  0  0  0  0  0  0  0  0  0  0  0
   39.1170   32.9690   40.9970 C   0  0  0  0  0  0  0  0  0  0  0  0
   40.0320   32.9470   41.6030 H   0  0  0  0  0  0  0  0  0  0  0  0
   38.3260   31.9170   40.8760 O   0  0  0  0  0  0  0  0  0  0  0  0
  1  4  1  6  0  0  0
  1  2  1  0  0  0  0
  1  3  1  0  0  0  0
  1 12  1  0  0  0  0
  2  3  1  0  0  0  0
  2  5  1  0  0  0  0
  3  7  1  1  0  0  0
  6  2  1  0  0  0  0
  8 14  1  0  0  0  0
  9 15  1  0  0  0  0
  9  8  1  0  0  0  0
 10  9  2  0  0  0  0
 11 12  2  0  0  0  0
 11 10  1  0  0  0  0
 12 13  1  0  0  0  0
 13  8  2  0  0  0  0
 16 10  1  0  0  0  0
 17 19  1  0  0  0  0
 17  3  1  0  0  0  0
 18 17  1  0  0  0  0
 19 26  1  0  0  0  0
 20 19  2  0  0  0  0
 20 22  1  0  0  0  0
 21 20  1  0  0  0  0
 22 24  2  0  0  0  0
 23 22  1  0  0  0  0
 24 25  1  0  0  0  0
 26 24  1  0  0  0  0
M  END
>  <minimizedAffinity>
-4.3986578

$$$$

 OpenBabel03242511073D

 26 28  0  0  1  0  0  0  0  0999 V2000
   37.0340   30.3180   39.6000 C   0  0  1  0  0  0  0  0  0  0  0  0
   36.8590   31.7310   40.0710 C   0  0  0  0  0  0  0  0  0  0  0  0
   36.1840   30.5390   40.7750 C   0  0  2  0  0  0  0  0  0  0  0  0
   38.0610   29.9260   39.7300 H   0  0  0  0  0  0  0  0  0  0  0  0
   36.2420   32.3490   39.3870 H   0  0  0  0  0  0  0  0  0  0  0  0
   37.6860   32.2240   40.5880 H   0  0  0  0  0  0  0  0  0  0  0  0
   35.0700   30.5880   40.6840 H   0  0  0  0  0  0  0  0  0  0  0  0
   34.6430   28.9310   37.1190 C   0  0  0  0  0  0  0  0  0  0  0  0
   35.3610   29.1550   35.8930 C   0  0  0  0  0  0  0  0  0  0  0  0
   36.6430   29.7830   35.9620 C   0  0  0  0  0  0  0  0  0  0  0  0
   37.1320   30.1400   37.1520 N   0  0  0  0  0  0  0  0  0  0  0  0
   36.4180   29.9110   38.3050 C   0  0  0  0  0  0  0  0  0  0  0  0
   35.1900   29.3140   38.2760 N   0  0  0  0  0  0  0  0  0  0  0  0
   33.6790   28.4550   37.0340 H   0  0  0  0  0  0  0  0  0  0  0  0
   34.9740   28.8700   34.9280 H   0  0  0  0  0  0  0  0  0  0  0  0
   37.1400   29.9270   35.0120 H   0  0  0  0  0  0  0  0  0  0  0  0
   36.6130   30.2720   42.1070 N   0  0  0  0  0  0  0  0  0  0  0  0
   36.4870   31.0500   42.7700 H   0  0  0  0  0  0  0  0  0  0  0  0
   37.1780   29.0310   42.5160 C   0  0  0  0  0  0  0  0  0  0  0  0
   36.6230   27.7850   42.3080 C   0  0  0  0  0  0  0  0  0  0  0  0
   35.6940   27.5110   41.8190 H   0  0  0  0  0  0  0  0  0  0  0  0
   37.4990   26.8550   42.8630 C   0  0  0  0  0  0  0  0  0  0  0  0
   37.4420   25.7660   42.9180 H   0  0  0  0  0  0  0  0  0  0  0  0
   38.5380   27.6120   43.3760 C   0  0  0  0  0  0  0  0  0  0  0  0
   39.4360   27.2580   43.8970 H   0  0  0  0  0  0  0  0  0  0  0  0
   38.3140   28.8950   43.1500 O   0  0  0  0  0  0  0  0  0  0  0  0
  1  4  1  1  0  0  0
  1  2  1  0  0  0  0
  1  3  1  0  0  0  0
  2  6  1  0  0  0  0
  2  3  1  0  0  0  0
  3  7  1  6  0  0  0
  3 17  1  0  0  0  0
  5  2  1  0  0  0  0
  8 13  1  0  0  0  0
  9 10  1  0  0  0  0
  9  8  2  0  0  0  0
 10 11  2  0  0  0  0
 11 12  1  0  0  0  0
 12  1  1  0  0  0  0
 13 12  2  0  0  0  0
 14  8  1  0  0  0  0
 15  9  1  0  0  0  0
 16 10  1  0  0  0  0
 17 19  1  0  0  0  0
 17 18  1  0  0  0  0
 19 26  1  0  0  0  0
 20 19  2  0  0  0  0
 20 22  1  0  0  0  0
 21 20  1  0  0  0  0
 22 23  1  0  0  0  0
 22 24  2  0  0  0  0
 24 25  1  0  0  0  0
 26 24  1  0  0  0  0
M  END
>  <minimizedAffinity>
-4.38120461

$$$$

 OpenBabel03242511073D

 26 28  0  0  1  0  0  0  0  0999 V2000
   37.0160   27.4730   42.9320 C   0  0  1  0  0  0  0  0  0  0  0  0
   37.3400   28.7330   43.6770 C   0  0  0  0  0  0  0  0  0  0  0  0
   37.2090   28.6950   42.1430 C   0  0  2  0  0  0  0  0  0  0  0  0
   35.9920   27.0930   43.1150 H   0  0  0  0  0  0  0  0  0  0  0  0
   38.3590   28.7370   44.1130 H   0  0  0  0  0  0  0  0  0  0  0  0
   36.5480   29.2340   44.2420 H   0  0  0  0  0  0  0  0  0  0  0  0
   38.1860   28.9150   41.6440 H   0  0  0  0  0  0  0  0  0  0  0  0
   40.1520   25.5590   43.4740 C   0  0  0  0  0  0  0  0  0  0  0  0
   39.8830   24.3710   42.7100 C   0  0  0  0  0  0  0  0  0  0  0  0
   38.6250   24.2660   42.0390 C   0  0  0  0  0  0  0  0  0  0  0  0
   37.7460   25.2650   42.1400 N   0  0  0  0  0  0  0  0  0  0  0  0
   38.0370   26.3880   42.8790 C   0  0  0  0  0  0  0  0  0  0  0  0
   39.2270   26.5210   43.5340 N   0  0  0  0  0  0  0  0  0  0  0  0
   41.1100   25.6090   43.9690 H   0  0  0  0  0  0  0  0  0  0  0  0
   40.5870   23.5590   42.6230 H   0  0  0  0  0  0  0  0  0  0  0  0
   38.4740   23.3530   41.4790 H   0  0  0  0  0  0  0  0  0  0  0  0
   36.1300   29.4410   41.5860 N   0  0  0  0  0  0  0  0  0  0  0  0
   35.7370   30.1650   42.2030 H   0  0  0  0  0  0  0  0  0  0  0  0
   35.6150   29.2170   40.2780 C   0  0  0  0  0  0  0  0  0  0  0  0
   36.3670   29.0390   39.1350 C   0  0  0  0  0  0  0  0  0  0  0  0
   37.4450   29.0320   39.0060 H   0  0  0  0  0  0  0  0  0  0  0  0
   35.4690   28.8530   38.0860 C   0  0  0  0  0  0  0  0  0  0  0  0
   35.6420   28.6800   37.0220 H   0  0  0  0  0  0  0  0  0  0  0  0
   34.2190   28.9330   38.6730 C   0  0  0  0  0  0  0  0  0  0  0  0
   33.2400   28.8400   38.1880 H   0  0  0  0  0  0  0  0  0  0  0  0
   34.3450   29.1480   39.9710 O   0  0  0  0  0  0  0  0  0  0  0  0
  1  4  1  1  0  0  0
  1  2  1  0  0  0  0
  2  5  1  0  0  0  0
  2  6  1  0  0  0  0
  3  7  1  6  0  0  0
  3  1  1  0  0  0  0
  3  2  1  0  0  0  0
  8 13  1  0  0  0  0
  8 14  1  0  0  0  0
  9  8  2  0  0  0  0
 10 11  2  0  0  0  0
 10  9  1  0  0  0  0
 11 12  1  0  0  0  0
 12  1  1  0  0  0  0
 12 13  2  0  0  0  0
 15  9  1  0  0  0  0
 16 10  1  0  0  0  0
 17  3  1  0  0  0  0
 17 18  1  0  0  0  0
 19 17  1  0  0  0  0
 20 19  2  0  0  0  0
 21 20  1  0  0  0  0
 22 24  2  0  0  0  0
 22 20  1  0  0  0  0
 23 22  1  0  0  0  0
 24 26  1  0  0  0  0
 25 24  1  0  0  0  0
 26 19  1  0  0  0  0
M  END
>  <minimizedAffinity>
-4.3443203

$$$$

 OpenBabel03242511073D

 26 28  0  0  1  0  0  0  0  0999 V2000
   38.0170   28.0230   41.8600 C   0  0  1  0  0  0  0  0  0  0  0  0
   36.7920   27.5370   42.5760 C   0  0  0  0  0  0  0  0  0  0  0  0
   37.1060   29.0360   42.4070 C   0  0  2  0  0  0  0  0  0  0  0  0
   38.0150   27.8120   40.7740 H   0  0  0  0  0  0  0  0  0  0  0  0
   37.0120   27.0660   43.5550 H   0  0  0  0  0  0  0  0  0  0  0  0
   35.9650   27.1230   41.9920 H   0  0  0  0  0  0  0  0  0  0  0  0
   37.3080   29.5250   43.3930 H   0  0  0  0  0  0  0  0  0  0  0  0
   41.5060   28.5860   42.9980 C   0  0  0  0  0  0  0  0  0  0  0  0
   41.7920   27.3300   43.6370 C   0  0  0  0  0  0  0  0  0  0  0  0
   40.7680   26.3320   43.6610 C   0  0  0  0  0  0  0  0  0  0  0  0
   39.5880   26.5940   43.0940 N   0  0  0  0  0  0  0  0  0  0  0  0
   39.3500   27.8070   42.4910 C   0  0  0  0  0  0  0  0  0  0  0  0
   40.3040   28.7830   42.4510 N   0  0  0  0  0  0  0  0  0  0  0  0
   42.3000   29.3180   42.9970 H   0  0  0  0  0  0  0  0  0  0  0  0
   42.7410   27.1090   44.0980 H   0  0  0  0  0  0  0  0  0  0  0  0
   41.0340   25.4070   44.1530 H   0  0  0  0  0  0  0  0  0  0  0  0
   36.1970   29.7810   41.6020 N   0  0  0  0  0  0  0  0  0  0  0  0
   35.2010   29.5880   41.7770 H   0  0  0  0  0  0  0  0  0  0  0  0
   36.6100   30.7260   40.6210 C   0  0  0  0  0  0  0  0  0  0  0  0
   36.5720   30.5390   39.2550 C   0  0  0  0  0  0  0  0  0  0  0  0
   36.2370   29.6810   38.6790 H   0  0  0  0  0  0  0  0  0  0  0  0
   37.0640   31.7050   38.6730 C   0  0  0  0  0  0  0  0  0  0  0  0
   37.2040   31.9740   37.6240 H   0  0  0  0  0  0  0  0  0  0  0  0
   37.3720   32.5280   39.7410 C   0  0  0  0  0  0  0  0  0  0  0  0
   37.7880   33.5430   39.7110 H   0  0  0  0  0  0  0  0  0  0  0  0
   37.0890   31.9160   40.8770 O   0  0  0  0  0  0  0  0  0  0  0  0
  1  4  1  6  0  0  0
  1  3  1  0  0  0  0
  1 12  1  0  0  0  0
  1  2  1  0  0  0  0
  2  5  1  0  0  0  0
  3  2  1  0  0  0  0
  3  7  1  1  0  0  0
  6  2  1  0  0  0  0
  8  9  1  0  0  0  0
  9 10  2  0  0  0  0
  9 15  1  0  0  0  0
 10 16  1  0  0  0  0
 11 10  1  0  0  0  0
 12 11  2  0  0  0  0
 13 12  1  0  0  0  0
 13  8  2  0  0  0  0
 14  8  1  0  0  0  0
 17 18  1  0  0  0  0
 17  3  1  0  0  0  0
 19 26  1  0  0  0  0
 19 17  1  0  0  0  0
 20 19  2  0  0  0  0
 21 20  1  0  0  0  0
 22 20  1  0  0  0  0
 22 24  2  0  0  0  0
 23 22  1  0  0  0  0
 24 26  1  0  0  0  0
 25 24  1  0  0  0  0
M  END
>  <minimizedAffinity>
-4.16210461

$$$$

 OpenBabel03242511073D

 26 28  0  0  1  0  0  0  0  0999 V2000
   38.3160   31.7130   40.4990 C   0  0  1  0  0  0  0  0  0  0  0  0
   36.9470   32.2210   40.1570 C   0  0  0  0  0  0  0  0  0  0  0  0
   37.2160   30.7420   40.4900 C   0  0  2  0  0  0  0  0  0  0  0  0
   38.7080   32.0920   41.4620 H   0  0  0  0  0  0  0  0  0  0  0  0
   36.8360   32.5030   39.0900 H   0  0  0  0  0  0  0  0  0  0  0  0
   36.4030   32.8170   40.8950 H   0  0  0  0  0  0  0  0  0  0  0  0
   37.0310   30.0830   39.6050 H   0  0  0  0  0  0  0  0  0  0  0  0
   40.9640   32.7610   38.1150 C   0  0  0  0  0  0  0  0  0  0  0  0
   41.2180   31.5240   37.4270 C   0  0  0  0  0  0  0  0  0  0  0  0
   40.4720   30.3670   37.8130 C   0  0  0  0  0  0  0  0  0  0  0  0
   39.5710   30.4680   38.7920 N   0  0  0  0  0  0  0  0  0  0  0  0
   39.3530   31.6680   39.4290 C   0  0  0  0  0  0  0  0  0  0  0  0
   40.0470   32.7930   39.0860 N   0  0  0  0  0  0  0  0  0  0  0  0
   41.5420   33.6160   37.8000 H   0  0  0  0  0  0  0  0  0  0  0  0
   41.9440   31.4320   36.6350 H   0  0  0  0  0  0  0  0  0  0  0  0
   40.7020   29.4640   37.2650 H   0  0  0  0  0  0  0  0  0  0  0  0
   36.6070   30.2460   41.6790 N   0  0  0  0  0  0  0  0  0  0  0  0
   35.8370   30.8220   42.0470 H   0  0  0  0  0  0  0  0  0  0  0  0
   37.0160   29.0470   42.3280 C   0  0  0  0  0  0  0  0  0  0  0  0
   38.0250   28.9400   43.2630 C   0  0  0  0  0  0  0  0  0  0  0  0
   38.6780   29.7050   43.6710 H   0  0  0  0  0  0  0  0  0  0  0  0
   38.0900   27.5990   43.6360 C   0  0  0  0  0  0  0  0  0  0  0  0
   38.7450   27.0870   44.3440 H   0  0  0  0  0  0  0  0  0  0  0  0
   37.1030   26.9780   42.8910 C   0  0  0  0  0  0  0  0  0  0  0  0
   36.8270   25.9160   42.8910 H   0  0  0  0  0  0  0  0  0  0  0  0
   36.4880   27.8670   42.1300 O   0  0  0  0  0  0  0  0  0  0  0  0
  1  4  1  1  0  0  0
  2  3  1  0  0  0  0
  2  1  1  0  0  0  0
  2  6  1  0  0  0  0
  3  7  1  6  0  0  0
  3  1  1  0  0  0  0
  3 17  1  0  0  0  0
  5  2  1  0  0  0  0
  8 13  1  0  0  0  0
  9 10  1  0  0  0  0
  9  8  2  0  0  0  0
 10 11  2  0  0  0  0
 11 12  1  0  0  0  0
 12  1  1  0  0  0  0
 13 12  2  0  0  0  0
 14  8  1  0  0  0  0
 15  9  1  0  0  0  0
 16 10  1  0  0  0  0
 17 18  1  0  0  0  0
 17 19  1  0  0  0  0
 19 20  2  0  0  0  0
 20 22  1  0  0  0  0
 20 21  1  0  0  0  0
 22 23  1  0  0  0  0
 24 25  1  0  0  0  0
 24 22  2  0  0  0  0
 26 19  1  0  0  0  0
 26 24  1  0  0  0  0
M  END
>  <minimizedAffinity>
-4.09915304

$$$$

 OpenBabel03242511073D

 26 28  0  0  1  0  0  0  0  0999 V2000
   35.8400   28.7600   39.4850 C   0  0  1  0  0  0  0  0  0  0  0  0
   34.3970   29.1430   39.6250 C   0  0  0  0  0  0  0  0  0  0  0  0
   35.4300   29.4090   40.7360 C   0  0  2  0  0  0  0  0  0  0  0  0
   36.3860   29.3410   38.7180 H   0  0  0  0  0  0  0  0  0  0  0  0
   33.7190   28.2730   39.7410 H   0  0  0  0  0  0  0  0  0  0  0  0
   34.0200   30.0040   39.0650 H   0  0  0  0  0  0  0  0  0  0  0  0
   35.2070   28.8100   41.6540 H   0  0  0  0  0  0  0  0  0  0  0  0
   36.2390   25.2310   38.4010 C   0  0  0  0  0  0  0  0  0  0  0  0
   36.8570   24.6550   39.5650 C   0  0  0  0  0  0  0  0  0  0  0  0
   37.1220   25.5050   40.6840 C   0  0  0  0  0  0  0  0  0  0  0  0
   36.7910   26.7970   40.6140 N   0  0  0  0  0  0  0  0  0  0  0  0
   36.2010   27.3130   39.4850 C   0  0  0  0  0  0  0  0  0  0  0  0
   35.9340   26.5310   38.3980 N   0  0  0  0  0  0  0  0  0  0  0  0
   36.0510   24.5630   37.5740 H   0  0  0  0  0  0  0  0  0  0  0  0
   37.1280   23.6130   39.6300 H   0  0  0  0  0  0  0  0  0  0  0  0
   37.5880   25.0230   41.5320 H   0  0  0  0  0  0  0  0  0  0  0  0
   35.7010   30.7780   41.0270 N   0  0  0  0  0  0  0  0  0  0  0  0
   34.8950   31.3170   41.3720 H   0  0  0  0  0  0  0  0  0  0  0  0
   36.9810   31.3770   40.8600 C   0  0  0  0  0  0  0  0  0  0  0  0
   38.1820   30.8430   41.2810 C   0  0  0  0  0  0  0  0  0  0  0  0
   38.3850   29.9100   41.7970 H   0  0  0  0  0  0  0  0  0  0  0  0
   39.1760   31.7500   40.9190 C   0  0  0  0  0  0  0  0  0  0  0  0
   40.2580   31.7170   41.0630 H   0  0  0  0  0  0  0  0  0  0  0  0
   38.5000   32.7830   40.2960 C   0  0  0  0  0  0  0  0  0  0  0  0
   38.9210   33.6990   39.8630 H   0  0  0  0  0  0  0  0  0  0  0  0
   37.2030   32.5270   40.2790 O   0  0  0  0  0  0  0  0  0  0  0  0
  1  4  1  6  0  0  0
  1 12  1  0  0  0  0
  1  2  1  0  0  0  0
  1  3  1  0  0  0  0
  2  5  1  0  0  0  0
  2  3  1  0  0  0  0
  3 17  1  0  0  0  0
  3  7  1  1  0  0  0
  6  2  1  0  0  0  0
  8  9  1  0  0  0  0
  9 15  1  0  0  0  0
  9 10  2  0  0  0  0
 10 16  1  0  0  0  0
 11 10  1  0  0  0  0
 12 11  2  0  0  0  0
 13  8  2  0  0  0  0
 13 12  1  0  0  0  0
 14  8  1  0  0  0  0
 17 18  1  0  0  0  0
 19 17  1  0  0  0  0
 19 20  2  0  0  0  0
 20 21  1  0  0  0  0
 22 23  1  0  0  0  0
 22 20  1  0  0  0  0
 24 22  2  0  0  0  0
 25 24  1  0  0  0  0
 26 24  1  0  0  0  0
 26 19  1  0  0  0  0
M  END
>  <minimizedAffinity>
-4.07035351

$$$$
