
 OpenBabel03242518033D

 36 38  0  0  0  0  0  0  0  0999 V2000
   33.6840   28.7790   36.7610 C   0  0  0  0  0  0  0  0  0  0  0  0
   34.0580   29.6980   36.2170 H   0  0  0  0  0  0  0  0  0  0  0  0
   33.7900   27.9730   36.0370 H   0  0  0  0  0  0  0  0  0  0  0  0
   33.9530   29.1820   39.1840 C   0  0  0  0  0  0  0  0  0  0  0  0
   34.4760   28.6840   37.9800 C   0  0  0  0  0  0  0  0  0  0  0  0
   35.7480   28.1200   38.0400 C   0  0  0  0  0  0  0  0  0  0  0  0
   36.3860   28.0870   39.2260 N   0  0  0  0  0  0  0  0  0  0  0  0
   35.8720   28.5660   40.3580 C   0  0  0  0  0  0  0  0  0  0  0  0
   34.6650   29.1070   40.3260 N   0  0  0  0  0  0  0  0  0  0  0  0
   32.9850   29.6400   39.2730 H   0  0  0  0  0  0  0  0  0  0  0  0
   36.1880   27.7210   37.1240 H   0  0  0  0  0  0  0  0  0  0  0  0
   36.5900   28.5160   41.6320 C   0  0  0  0  0  0  0  0  0  0  0  0
   36.4790   27.6020   42.6410 C   0  0  0  0  0  0  0  0  0  0  0  0
   35.8020   26.7400   42.6300 H   0  0  0  0  0  0  0  0  0  0  0  0
   37.3690   27.9820   43.6410 C   0  0  0  0  0  0  0  0  0  0  0  0
   37.5090   27.4580   44.5600 H   0  0  0  0  0  0  0  0  0  0  0  0
   37.9690   29.1310   43.1470 C   0  0  0  0  0  0  0  0  0  0  0  0
   38.7350   29.7010   43.6880 H   0  0  0  0  0  0  0  0  0  0  0  0
   37.4900   29.4210   41.9600 O   0  0  0  0  0  0  0  0  0  0  0  0
   32.2560   29.0960   37.1590 C   0  0  0  0  0  0  0  0  0  0  0  0
   32.1580   29.2840   38.2470 H   0  0  0  0  0  0  0  0  0  0  0  0
   31.5910   28.1940   36.9990 H   0  0  0  0  0  0  0  0  0  0  0  0
   30.5580   30.8480   36.8230 C   0  0  0  0  0  0  0  0  0  0  0  0
   31.6330   30.1400   36.3110 C   0  0  0  0  0  0  0  0  0  0  0  0
   32.1440   30.3540   35.0550 C   0  0  0  0  0  0  0  0  0  0  0  0
   31.5560   31.3200   34.2710 C   0  0  0  0  0  0  0  0  0  0  0  0
   30.4990   32.0640   34.6880 C   0  0  0  0  0  0  0  0  0  0  0  0
   30.0340   31.7940   35.9700 C   0  0  0  0  0  0  0  0  0  0  0  0
   32.9590   29.8450   34.6140 H   0  0  0  0  0  0  0  0  0  0  0  0
   31.9190   31.5360   33.2650 H   0  0  0  0  0  0  0  0  0  0  0  0
   30.0340   32.8220   34.0790 H   0  0  0  0  0  0  0  0  0  0  0  0
   29.1860   32.3820   36.3210 H   0  0  0  0  0  0  0  0  0  0  0  0
   29.8810   30.6110   38.4070 S   0  0  0  0  0  0  0  0  0  0  0  0
   29.0270   29.3830   38.4960 O   0  0  0  0  0  0  0  0  0  0  0  0
   28.9190   31.7570   38.6960 O   0  0  0  0  0  0  0  0  0  0  0  0
   30.8030   30.6930   39.4180 H   0  0  0  0  0  0  0  0  0  0  0  0
  1 20  1  0  0  0  0
  1  5  1  0  0  0  0
  2  1  1  0  0  0  0
  3  1  1  0  0  0  0
  4 10  1  0  0  0  0
  4  9  1  0  0  0  0
  5  6  1  0  0  0  0
  5  4  2  0  0  0  0
  6  7  2  0  0  0  0
  7  8  1  0  0  0  0
  8 12  1  0  0  0  0
  9  8  2  0  0  0  0
 11  6  1  0  0  0  0
 12 19  1  0  0  0  0
 12 13  2  0  0  0  0
 13 15  1  0  0  0  0
 14 13  1  0  0  0  0
 15 16  1  0  0  0  0
 17 15  2  0  0  0  0
 17 18  1  0  0  0  0
 19 17  1  0  0  0  0
 20 21  1  0  0  0  0
 22 20  1  0  0  0  0
 23 33  1  0  0  0  0
 24 23  1  0  0  0  0
 24 20  1  0  0  0  0
 25 24  2  0  0  0  0
 26 27  2  0  0  0  0
 26 25  1  0  0  0  0
 27 28  1  0  0  0  0
 28 32  1  0  0  0  0
 28 23  2  0  0  0  0
 29 25  1  0  0  0  0
 30 26  1  0  0  0  0
 31 27  1  0  0  0  0
 33 34  2  0  0  0  0
 33 35  2  0  0  0  0
 33 36  1  0  0  0  0
M  END
>  <minimizedAffinity>
-5.56627798

$$$$

 OpenBabel03242518033D

 36 38  0  0  0  0  0  0  0  0999 V2000
   36.8420   27.9640   43.1180 C   0  0  0  0  0  0  0  0  0  0  0  0
   36.3930   28.3390   44.0860 H   0  0  0  0  0  0  0  0  0  0  0  0
   36.0020   27.5260   42.5810 H   0  0  0  0  0  0  0  0  0  0  0  0
   38.7800   29.4830   42.9290 C   0  0  0  0  0  0  0  0  0  0  0  0
   37.4940   29.1130   42.5050 C   0  0  0  0  0  0  0  0  0  0  0  0
   36.9210   29.8910   41.5030 C   0  0  0  0  0  0  0  0  0  0  0  0
   37.6210   30.9320   41.0120 N   0  0  0  0  0  0  0  0  0  0  0  0
   38.8410   31.2680   41.4280 C   0  0  0  0  0  0  0  0  0  0  0  0
   39.4070   30.5430   42.3790 N   0  0  0  0  0  0  0  0  0  0  0  0
   39.3320   28.9660   43.6920 H   0  0  0  0  0  0  0  0  0  0  0  0
   35.9210   29.6340   41.1470 H   0  0  0  0  0  0  0  0  0  0  0  0
   39.5770   32.4040   40.8740 C   0  0  0  0  0  0  0  0  0  0  0  0
   40.9220   32.5360   40.6750 C   0  0  0  0  0  0  0  0  0  0  0  0
   41.6670   31.7700   40.9150 H   0  0  0  0  0  0  0  0  0  0  0  0
   41.1350   33.7980   40.1250 C   0  0  0  0  0  0  0  0  0  0  0  0
   42.0910   34.1900   39.8580 H   0  0  0  0  0  0  0  0  0  0  0  0
   39.8650   34.3480   40.0300 C   0  0  0  0  0  0  0  0  0  0  0  0
   39.6630   35.3510   39.6320 H   0  0  0  0  0  0  0  0  0  0  0  0
   38.9670   33.5040   40.4790 O   0  0  0  0  0  0  0  0  0  0  0  0
   37.9210   26.9800   43.5260 C   0  0  0  0  0  0  0  0  0  0  0  0
   37.8570   26.7130   44.5990 H   0  0  0  0  0  0  0  0  0  0  0  0
   38.9440   27.4600   43.4470 H   0  0  0  0  0  0  0  0  0  0  0  0
   39.2740   25.3620   42.2550 C   0  0  0  0  0  0  0  0  0  0  0  0
   38.0160   25.8100   42.6200 C   0  0  0  0  0  0  0  0  0  0  0  0
   36.8530   25.2280   42.1790 C   0  0  0  0  0  0  0  0  0  0  0  0
   36.9490   24.1470   41.3340 C   0  0  0  0  0  0  0  0  0  0  0  0
   38.1390   23.6370   40.9220 C   0  0  0  0  0  0  0  0  0  0  0  0
   39.2740   24.2760   41.4070 C   0  0  0  0  0  0  0  0  0  0  0  0
   35.8700   25.5280   42.4250 H   0  0  0  0  0  0  0  0  0  0  0  0
   36.0600   23.6420   40.9520 H   0  0  0  0  0  0  0  0  0  0  0  0
   38.2210   22.7910   40.2600 H   0  0  0  0  0  0  0  0  0  0  0  0
   40.2380   23.8800   41.0870 H   0  0  0  0  0  0  0  0  0  0  0  0
   40.7700   26.0680   42.7900 S   0  0  0  0  0  0  0  0  0  0  0  0
   41.3180   27.0740   41.8230 O   0  0  0  0  0  0  0  0  0  0  0  0
   41.8310   24.9750   42.8330 O   0  0  0  0  0  0  0  0  0  0  0  0
   40.7280   26.5350   44.0780 H   0  0  0  0  0  0  0  0  0  0  0  0
  1 20  1  0  0  0  0
  1  2  1  0  0  0  0
  3  1  1  0  0  0  0
  4 10  1  0  0  0  0
  5  4  1  0  0  0  0
  5  1  1  0  0  0  0
  6  5  2  0  0  0  0
  7  8  2  0  0  0  0
  7  6  1  0  0  0  0
  8  9  1  0  0  0  0
  9  4  2  0  0  0  0
 11  6  1  0  0  0  0
 12  8  1  0  0  0  0
 13 12  2  0  0  0  0
 13 14  1  0  0  0  0
 15 13  1  0  0  0  0
 16 15  1  0  0  0  0
 17 15  2  0  0  0  0
 17 19  1  0  0  0  0
 18 17  1  0  0  0  0
 19 12  1  0  0  0  0
 20 21  1  0  0  0  0
 22 20  1  0  0  0  0
 23 24  1  0  0  0  0
 23 33  1  0  0  0  0
 24 20  1  0  0  0  0
 25 29  1  0  0  0  0
 25 24  2  0  0  0  0
 26 25  1  0  0  0  0
 27 26  2  0  0  0  0
 27 28  1  0  0  0  0
 28 23  2  0  0  0  0
 30 26  1  0  0  0  0
 31 27  1  0  0  0  0
 32 28  1  0  0  0  0
 33 35  2  0  0  0  0
 33 36  1  0  0  0  0
 34 33  2  0  0  0  0
M  END
>  <minimizedAffinity>
-5.26420307

$$$$

 OpenBabel03242518033D

 36 38  0  0  0  0  0  0  0  0999 V2000
   37.1350   28.6820   42.5780 C   0  0  0  0  0  0  0  0  0  0  0  0
   38.2380   28.8770   42.7310 H   0  0  0  0  0  0  0  0  0  0  0  0
   36.6400   29.3880   43.2420 H   0  0  0  0  0  0  0  0  0  0  0  0
   35.5760   28.8190   40.6650 C   0  0  0  0  0  0  0  0  0  0  0  0
   36.8940   28.8360   41.1490 C   0  0  0  0  0  0  0  0  0  0  0  0
   37.9030   29.0010   40.2040 C   0  0  0  0  0  0  0  0  0  0  0  0
   37.5590   29.1330   38.9070 N   0  0  0  0  0  0  0  0  0  0  0  0
   36.3010   29.1150   38.4680 C   0  0  0  0  0  0  0  0  0  0  0  0
   35.3250   28.9590   39.3480 N   0  0  0  0  0  0  0  0  0  0  0  0
   34.7100   28.7000   41.2900 H   0  0  0  0  0  0  0  0  0  0  0  0
   38.9410   29.0190   40.5420 H   0  0  0  0  0  0  0  0  0  0  0  0
   35.9590   29.2610   37.0530 C   0  0  0  0  0  0  0  0  0  0  0  0
   34.8220   28.8720   36.4040 C   0  0  0  0  0  0  0  0  0  0  0  0
   33.9710   28.3730   36.8810 H   0  0  0  0  0  0  0  0  0  0  0  0
   34.9680   29.2290   35.0660 C   0  0  0  0  0  0  0  0  0  0  0  0
   34.2390   29.0530   34.3080 H   0  0  0  0  0  0  0  0  0  0  0  0
   36.2200   29.8250   35.0070 C   0  0  0  0  0  0  0  0  0  0  0  0
   36.6600   30.2290   34.0860 H   0  0  0  0  0  0  0  0  0  0  0  0
   36.7800   29.8300   36.1930 O   0  0  0  0  0  0  0  0  0  0  0  0
   36.9280   27.2220   42.9290 C   0  0  0  0  0  0  0  0  0  0  0  0
   36.1030   26.7660   42.3480 H   0  0  0  0  0  0  0  0  0  0  0  0
   36.5700   27.1180   43.9980 H   0  0  0  0  0  0  0  0  0  0  0  0
   38.2360   25.3010   42.1110 C   0  0  0  0  0  0  0  0  0  0  0  0
   38.1840   26.4340   42.9060 C   0  0  0  0  0  0  0  0  0  0  0  0
   39.2360   26.8580   43.6790 C   0  0  0  0  0  0  0  0  0  0  0  0
   40.3960   26.1180   43.6580 C   0  0  0  0  0  0  0  0  0  0  0  0
   40.5390   24.9940   42.9100 C   0  0  0  0  0  0  0  0  0  0  0  0
   39.4340   24.6230   42.1530 C   0  0  0  0  0  0  0  0  0  0  0  0
   39.2530   27.7120   44.3030 H   0  0  0  0  0  0  0  0  0  0  0  0
   41.2670   26.4060   44.2510 H   0  0  0  0  0  0  0  0  0  0  0  0
   41.4450   24.4100   42.8890 H   0  0  0  0  0  0  0  0  0  0  0  0
   39.5310   23.7230   41.5450 H   0  0  0  0  0  0  0  0  0  0  0  0
   36.9280   24.7300   41.1180 S   0  0  0  0  0  0  0  0  0  0  0  0
   37.0970   23.3000   40.6980 O   0  0  0  0  0  0  0  0  0  0  0  0
   36.9440   25.5070   39.8070 O   0  0  0  0  0  0  0  0  0  0  0  0
   35.6870   24.9890   41.6380 H   0  0  0  0  0  0  0  0  0  0  0  0
  1  2  1  0  0  0  0
  1 20  1  0  0  0  0
  1  3  1  0  0  0  0
  4  5  1  0  0  0  0
  4 10  1  0  0  0  0
  5  1  1  0  0  0  0
  6 11  1  0  0  0  0
  6  5  2  0  0  0  0
  7  6  1  0  0  0  0
  8  7  2  0  0  0  0
  8  9  1  0  0  0  0
  9  4  2  0  0  0  0
 12  8  1  0  0  0  0
 13 14  1  0  0  0  0
 13 12  2  0  0  0  0
 15 13  1  0  0  0  0
 16 15  1  0  0  0  0
 17 15  2  0  0  0  0
 17 19  1  0  0  0  0
 18 17  1  0  0  0  0
 19 12  1  0  0  0  0
 20 22  1  0  0  0  0
 21 20  1  0  0  0  0
 23 28  2  0  0  0  0
 23 24  1  0  0  0  0
 24 20  1  0  0  0  0
 24 25  2  0  0  0  0
 25 29  1  0  0  0  0
 26 25  1  0  0  0  0
 26 30  1  0  0  0  0
 27 26  2  0  0  0  0
 28 27  1  0  0  0  0
 31 27  1  0  0  0  0
 32 28  1  0  0  0  0
 33 36  1  0  0  0  0
 33 23  1  0  0  0  0
 34 33  2  0  0  0  0
 35 33  2  0  0  0  0
M  END
>  <minimizedAffinity>
-5.03352165

$$$$

 OpenBabel03242518033D

 36 38  0  0  0  0  0  0  0  0999 V2000
   38.5370   27.1190   43.1610 C   0  0  0  0  0  0  0  0  0  0  0  0
   39.2560   26.3820   42.6940 H   0  0  0  0  0  0  0  0  0  0  0  0
   38.6800   26.9950   44.2330 H   0  0  0  0  0  0  0  0  0  0  0  0
   37.8960   29.4320   42.5740 C   0  0  0  0  0  0  0  0  0  0  0  0
   38.8680   28.4190   42.5940 C   0  0  0  0  0  0  0  0  0  0  0  0
   40.1110   28.7380   42.0550 C   0  0  0  0  0  0  0  0  0  0  0  0
   40.3020   29.9760   41.5560 N   0  0  0  0  0  0  0  0  0  0  0  0
   39.3660   30.9240   41.5470 C   0  0  0  0  0  0  0  0  0  0  0  0
   38.1760   30.6440   42.0540 N   0  0  0  0  0  0  0  0  0  0  0  0
   36.8990   29.3140   42.9590 H   0  0  0  0  0  0  0  0  0  0  0  0
   40.8930   27.9770   42.0520 H   0  0  0  0  0  0  0  0  0  0  0  0
   39.6030   32.2600   40.9990 C   0  0  0  0  0  0  0  0  0  0  0  0
   40.7370   32.7570   40.4220 C   0  0  0  0  0  0  0  0  0  0  0  0
   41.6670   32.1940   40.2860 H   0  0  0  0  0  0  0  0  0  0  0  0
   40.4710   34.0750   40.0600 C   0  0  0  0  0  0  0  0  0  0  0  0
   41.1690   34.7270   39.5840 H   0  0  0  0  0  0  0  0  0  0  0  0
   39.1570   34.2800   40.4570 C   0  0  0  0  0  0  0  0  0  0  0  0
   38.6180   35.2260   40.3190 H   0  0  0  0  0  0  0  0  0  0  0  0
   38.6720   33.1920   41.0070 O   0  0  0  0  0  0  0  0  0  0  0  0
   37.1640   26.7260   42.6510 C   0  0  0  0  0  0  0  0  0  0  0  0
   36.5680   27.6060   42.3390 H   0  0  0  0  0  0  0  0  0  0  0  0
   36.5420   26.2850   43.4880 H   0  0  0  0  0  0  0  0  0  0  0  0
   36.8710   25.9450   40.3340 C   0  0  0  0  0  0  0  0  0  0  0  0
   37.2060   25.6410   41.6420 C   0  0  0  0  0  0  0  0  0  0  0  0
   37.5680   24.3810   42.0520 C   0  0  0  0  0  0  0  0  0  0  0  0
   37.5990   23.3770   41.1110 C   0  0  0  0  0  0  0  0  0  0  0  0
   37.2860   23.5820   39.8050 C   0  0  0  0  0  0  0  0  0  0  0  0
   36.9280   24.8800   39.4620 C   0  0  0  0  0  0  0  0  0  0  0  0
   37.8330   24.0920   43.0340 H   0  0  0  0  0  0  0  0  0  0  0  0
   37.8800   22.3560   41.3760 H   0  0  0  0  0  0  0  0  0  0  0  0
   37.3080   22.8000   39.0640 H   0  0  0  0  0  0  0  0  0  0  0  0
   36.6740   25.0630   38.4180 H   0  0  0  0  0  0  0  0  0  0  0  0
   36.4070   27.5250   39.7740 S   0  0  0  0  0  0  0  0  0  0  0  0
   35.5190   27.4780   38.5670 O   0  0  0  0  0  0  0  0  0  0  0  0
   37.6570   28.2490   39.2880 O   0  0  0  0  0  0  0  0  0  0  0  0
   35.9200   28.3390   40.7630 H   0  0  0  0  0  0  0  0  0  0  0  0
  1  3  1  0  0  0  0
  2  1  1  0  0  0  0
  4  5  1  0  0  0  0
  4 10  1  0  0  0  0
  5  1  1  0  0  0  0
  6  5  2  0  0  0  0
  7  6  1  0  0  0  0
  8  7  2  0  0  0  0
  8  9  1  0  0  0  0
  9  4  2  0  0  0  0
 11  6  1  0  0  0  0
 12 19  1  0  0  0  0
 12  8  1  0  0  0  0
 13 12  2  0  0  0  0
 14 13  1  0  0  0  0
 15 13  1  0  0  0  0
 15 17  2  0  0  0  0
 16 15  1  0  0  0  0
 17 19  1  0  0  0  0
 18 17  1  0  0  0  0
 20  1  1  0  0  0  0
 20 22  1  0  0  0  0
 21 20  1  0  0  0  0
 23 24  1  0  0  0  0
 24 25  2  0  0  0  0
 24 20  1  0  0  0  0
 25 29  1  0  0  0  0
 26 30  1  0  0  0  0
 26 25  1  0  0  0  0
 27 26  2  0  0  0  0
 28 27  1  0  0  0  0
 28 23  2  0  0  0  0
 31 27  1  0  0  0  0
 32 28  1  0  0  0  0
 33 23  1  0  0  0  0
 33 36  1  0  0  0  0
 34 33  2  0  0  0  0
 35 33  2  0  0  0  0
M  END
>  <minimizedAffinity>
-4.96337271

$$$$

 OpenBabel03242518033D

 36 38  0  0  0  0  0  0  0  0999 V2000
   36.4240   30.9720   40.9990 C   0  0  0  0  0  0  0  0  0  0  0  0
   36.6640   30.9810   42.1040 H   0  0  0  0  0  0  0  0  0  0  0  0
   35.5000   31.5400   40.9170 H   0  0  0  0  0  0  0  0  0  0  0  0
   38.5090   32.2970   41.0560 C   0  0  0  0  0  0  0  0  0  0  0  0
   37.5980   31.5140   40.3280 C   0  0  0  0  0  0  0  0  0  0  0  0
   37.8900   31.3070   38.9830 C   0  0  0  0  0  0  0  0  0  0  0  0
   39.0080   31.8600   38.4710 N   0  0  0  0  0  0  0  0  0  0  0  0
   39.8600   32.6000   39.1790 C   0  0  0  0  0  0  0  0  0  0  0  0
   39.6030   32.8110   40.4600 N   0  0  0  0  0  0  0  0  0  0  0  0
   38.3990   32.5300   42.0990 H   0  0  0  0  0  0  0  0  0  0  0  0
   37.2060   30.7030   38.3840 H   0  0  0  0  0  0  0  0  0  0  0  0
   41.0660   33.1880   38.5940 C   0  0  0  0  0  0  0  0  0  0  0  0
   41.9220   34.1020   39.1410 C   0  0  0  0  0  0  0  0  0  0  0  0
   41.8140   34.5390   40.1390 H   0  0  0  0  0  0  0  0  0  0  0  0
   42.9170   34.3490   38.1980 C   0  0  0  0  0  0  0  0  0  0  0  0
   43.7320   35.0220   38.3380 H   0  0  0  0  0  0  0  0  0  0  0  0
   42.5760   33.5410   37.1220 C   0  0  0  0  0  0  0  0  0  0  0  0
   43.1570   33.4870   36.1920 H   0  0  0  0  0  0  0  0  0  0  0  0
   41.4810   32.8680   37.3850 O   0  0  0  0  0  0  0  0  0  0  0  0
   36.3090   29.5080   40.6210 C   0  0  0  0  0  0  0  0  0  0  0  0
   36.5450   29.3330   39.5530 H   0  0  0  0  0  0  0  0  0  0  0  0
   35.2340   29.1620   40.7010 H   0  0  0  0  0  0  0  0  0  0  0  0
   37.3970   27.3500   41.0980 C   0  0  0  0  0  0  0  0  0  0  0  0
   37.0320   28.6070   41.5500 C   0  0  0  0  0  0  0  0  0  0  0  0
   37.3030   29.0570   42.8190 C   0  0  0  0  0  0  0  0  0  0  0  0
   37.9690   28.2130   43.6780 C   0  0  0  0  0  0  0  0  0  0  0  0
   38.3650   26.9630   43.3230 C   0  0  0  0  0  0  0  0  0  0  0  0
   38.0580   26.5740   42.0250 C   0  0  0  0  0  0  0  0  0  0  0  0
   37.0490   30.0030   43.2160 H   0  0  0  0  0  0  0  0  0  0  0  0
   38.2130   28.5150   44.6980 H   0  0  0  0  0  0  0  0  0  0  0  0
   38.8870   26.2980   43.9910 H   0  0  0  0  0  0  0  0  0  0  0  0
   38.3690   25.5740   41.7220 H   0  0  0  0  0  0  0  0  0  0  0  0
   37.0750   26.7420   39.5010 S   0  0  0  0  0  0  0  0  0  0  0  0
   36.1950   25.5280   39.5060 O   0  0  0  0  0  0  0  0  0  0  0  0
   38.3860   26.2500   38.9000 O   0  0  0  0  0  0  0  0  0  0  0  0
   36.6510   27.7030   38.6210 H   0  0  0  0  0  0  0  0  0  0  0  0
  1  2  1  0  0  0  0
  3  1  1  0  0  0  0
  4 10  1  0  0  0  0
  5  1  1  0  0  0  0
  5  4  2  0  0  0  0
  6  5  1  0  0  0  0
  7  6  2  0  0  0  0
  7  8  1  0  0  0  0
  8  9  2  0  0  0  0
  9  4  1  0  0  0  0
 11  6  1  0  0  0  0
 12 13  2  0  0  0  0
 12  8  1  0  0  0  0
 13 14  1  0  0  0  0
 15 16  1  0  0  0  0
 15 13  1  0  0  0  0
 17 19  1  0  0  0  0
 17 15  2  0  0  0  0
 18 17  1  0  0  0  0
 19 12  1  0  0  0  0
 20 22  1  0  0  0  0
 20  1  1  0  0  0  0
 20 24  1  0  0  0  0
 21 20  1  0  0  0  0
 23 24  2  0  0  0  0
 23 28  1  0  0  0  0
 24 25  1  0  0  0  0
 25 29  1  0  0  0  0
 25 26  2  0  0  0  0
 26 30  1  0  0  0  0
 27 26  1  0  0  0  0
 27 31  1  0  0  0  0
 28 27  2  0  0  0  0
 32 28  1  0  0  0  0
 33 34  2  0  0  0  0
 33 23  1  0  0  0  0
 35 33  2  0  0  0  0
 36 33  1  0  0  0  0
M  END
>  <minimizedAffinity>
-4.92518282

$$$$

 OpenBabel03242518033D

 36 38  0  0  0  0  0  0  0  0999 V2000
   36.5160   30.2620   38.2910 C   0  0  0  0  0  0  0  0  0  0  0  0
   36.1240   29.5840   37.4750 H   0  0  0  0  0  0  0  0  0  0  0  0
   35.6520   30.8490   38.5950 H   0  0  0  0  0  0  0  0  0  0  0  0
   38.1010   28.4690   38.9080 C   0  0  0  0  0  0  0  0  0  0  0  0
   37.1080   29.3840   39.2920 C   0  0  0  0  0  0  0  0  0  0  0  0
   36.7510   29.3880   40.6380 C   0  0  0  0  0  0  0  0  0  0  0  0
   37.3680   28.5290   41.4730 N   0  0  0  0  0  0  0  0  0  0  0  0
   38.3090   27.6670   41.0880 C   0  0  0  0  0  0  0  0  0  0  0  0
   38.6650   27.6450   39.8140 N   0  0  0  0  0  0  0  0  0  0  0  0
   38.4650   28.3670   37.9020 H   0  0  0  0  0  0  0  0  0  0  0  0
   35.9820   30.0860   40.9750 H   0  0  0  0  0  0  0  0  0  0  0  0
   38.9610   26.7470   42.0200 C   0  0  0  0  0  0  0  0  0  0  0  0
   39.7170   27.0380   43.1200 C   0  0  0  0  0  0  0  0  0  0  0  0
   39.9470   28.0500   43.4700 H   0  0  0  0  0  0  0  0  0  0  0  0
   40.1150   25.8250   43.6780 C   0  0  0  0  0  0  0  0  0  0  0  0
   40.7190   25.7290   44.5530 H   0  0  0  0  0  0  0  0  0  0  0  0
   39.5520   24.8660   42.8480 C   0  0  0  0  0  0  0  0  0  0  0  0
   39.6680   23.7850   43.0000 H   0  0  0  0  0  0  0  0  0  0  0  0
   38.8780   25.4390   41.8800 O   0  0  0  0  0  0  0  0  0  0  0  0
   37.6370   31.0590   37.6520 C   0  0  0  0  0  0  0  0  0  0  0  0
   37.3800   31.3930   36.6280 H   0  0  0  0  0  0  0  0  0  0  0  0
   38.5430   30.4020   37.4830 H   0  0  0  0  0  0  0  0  0  0  0  0
   39.5220   32.2510   38.6970 C   0  0  0  0  0  0  0  0  0  0  0  0
   38.1530   32.1410   38.5250 C   0  0  0  0  0  0  0  0  0  0  0  0
   37.2490   32.9810   39.1280 C   0  0  0  0  0  0  0  0  0  0  0  0
   37.7350   33.9790   39.9420 C   0  0  0  0  0  0  0  0  0  0  0  0
   39.0620   34.1640   40.1700 C   0  0  0  0  0  0  0  0  0  0  0  0
   39.9170   33.2760   39.5270 C   0  0  0  0  0  0  0  0  0  0  0  0
   36.1970   32.9440   39.0330 H   0  0  0  0  0  0  0  0  0  0  0  0
   37.0670   34.6780   40.4470 H   0  0  0  0  0  0  0  0  0  0  0  0
   39.4480   34.9430   40.8050 H   0  0  0  0  0  0  0  0  0  0  0  0
   40.9860   33.4100   39.6980 H   0  0  0  0  0  0  0  0  0  0  0  0
   40.6990   31.2100   37.9520 S   0  0  0  0  0  0  0  0  0  0  0  0
   41.6690   30.6290   38.9360 O   0  0  0  0  0  0  0  0  0  0  0  0
   41.5680   32.0520   37.0260 O   0  0  0  0  0  0  0  0  0  0  0  0
   40.1530   30.2660   37.1210 H   0  0  0  0  0  0  0  0  0  0  0  0
  1  3  1  0  0  0  0
  1  5  1  0  0  0  0
  2  1  1  0  0  0  0
  4  5  2  0  0  0  0
  4  9  1  0  0  0  0
  5  6  1  0  0  0  0
  6 11  1  0  0  0  0
  6  7  2  0  0  0  0
  8  7  1  0  0  0  0
  8 12  1  0  0  0  0
  9  8  2  0  0  0  0
 10  4  1  0  0  0  0
 12 13  2  0  0  0  0
 13 14  1  0  0  0  0
 13 15  1  0  0  0  0
 15 16  1  0  0  0  0
 17 18  1  0  0  0  0
 17 15  2  0  0  0  0
 19 12  1  0  0  0  0
 19 17  1  0  0  0  0
 20  1  1  0  0  0  0
 20 24  1  0  0  0  0
 21 20  1  0  0  0  0
 22 20  1  0  0  0  0
 23 28  1  0  0  0  0
 24 23  2  0  0  0  0
 24 25  1  0  0  0  0
 25 26  2  0  0  0  0
 26 27  1  0  0  0  0
 26 30  1  0  0  0  0
 27 31  1  0  0  0  0
 28 32  1  0  0  0  0
 28 27  2  0  0  0  0
 29 25  1  0  0  0  0
 33 23  1  0  0  0  0
 33 34  2  0  0  0  0
 35 33  2  0  0  0  0
 36 33  1  0  0  0  0
M  END
>  <minimizedAffinity>
-4.89774561

$$$$

 OpenBabel03242518033D

 36 38  0  0  0  0  0  0  0  0999 V2000
   35.6590   28.4140   38.9730 C   0  0  0  0  0  0  0  0  0  0  0  0
   35.4300   27.3580   39.3080 H   0  0  0  0  0  0  0  0  0  0  0  0
   36.6950   28.3750   38.6420 H   0  0  0  0  0  0  0  0  0  0  0  0
   35.0220   28.7950   36.6170 C   0  0  0  0  0  0  0  0  0  0  0  0
   34.6550   28.7440   37.9710 C   0  0  0  0  0  0  0  0  0  0  0  0
   33.3220   29.0200   38.2660 C   0  0  0  0  0  0  0  0  0  0  0  0
   32.4830   29.3140   37.2530 N   0  0  0  0  0  0  0  0  0  0  0  0
   32.8510   29.3570   35.9740 C   0  0  0  0  0  0  0  0  0  0  0  0
   34.1120   29.0990   35.6680 N   0  0  0  0  0  0  0  0  0  0  0  0
   36.0160   28.6020   36.2570 H   0  0  0  0  0  0  0  0  0  0  0  0
   32.9990   28.9900   39.3080 H   0  0  0  0  0  0  0  0  0  0  0  0
   31.9150   29.6790   34.8960 C   0  0  0  0  0  0  0  0  0  0  0  0
   31.5330   30.9080   34.4350 C   0  0  0  0  0  0  0  0  0  0  0  0
   31.8930   31.8630   34.8310 H   0  0  0  0  0  0  0  0  0  0  0  0
   30.6260   30.6950   33.4000 C   0  0  0  0  0  0  0  0  0  0  0  0
   30.1510   31.4690   32.8410 H   0  0  0  0  0  0  0  0  0  0  0  0
   30.5270   29.3130   33.3110 C   0  0  0  0  0  0  0  0  0  0  0  0
   29.8880   28.7930   32.5860 H   0  0  0  0  0  0  0  0  0  0  0  0
   31.2990   28.7420   34.2050 O   0  0  0  0  0  0  0  0  0  0  0  0
   35.4080   29.2880   40.1860 C   0  0  0  0  0  0  0  0  0  0  0  0
   34.3600   29.2200   40.5400 H   0  0  0  0  0  0  0  0  0  0  0  0
   35.5110   30.3820   39.9140 H   0  0  0  0  0  0  0  0  0  0  0  0
   37.3950   30.0680   41.4150 C   0  0  0  0  0  0  0  0  0  0  0  0
   36.4160   29.1010   41.2570 C   0  0  0  0  0  0  0  0  0  0  0  0
   36.3380   27.9760   42.0400 C   0  0  0  0  0  0  0  0  0  0  0  0
   37.2810   27.8060   43.0280 C   0  0  0  0  0  0  0  0  0  0  0  0
   38.2770   28.7010   43.2560 C   0  0  0  0  0  0  0  0  0  0  0  0
   38.2950   29.8150   42.4260 C   0  0  0  0  0  0  0  0  0  0  0  0
   35.6160   27.2080   41.9640 H   0  0  0  0  0  0  0  0  0  0  0  0
   37.2700   26.9320   43.6820 H   0  0  0  0  0  0  0  0  0  0  0  0
   39.0190   28.5740   44.0280 H   0  0  0  0  0  0  0  0  0  0  0  0
   39.0880   30.5450   42.5960 H   0  0  0  0  0  0  0  0  0  0  0  0
   37.5290   31.5070   40.4480 S   0  0  0  0  0  0  0  0  0  0  0  0
   38.0360   31.2330   39.0640 O   0  0  0  0  0  0  0  0  0  0  0  0
   38.5950   32.4040   41.0650 O   0  0  0  0  0  0  0  0  0  0  0  0
   36.3990   32.2840   40.4570 H   0  0  0  0  0  0  0  0  0  0  0  0
  1  2  1  0  0  0  0
  1 20  1  0  0  0  0
  3  1  1  0  0  0  0
  4  5  1  0  0  0  0
  5  6  2  0  0  0  0
  5  1  1  0  0  0  0
  6 11  1  0  0  0  0
  7  6  1  0  0  0  0
  8  7  2  0  0  0  0
  9  8  1  0  0  0  0
  9  4  2  0  0  0  0
 10  4  1  0  0  0  0
 12  8  1  0  0  0  0
 13 14  1  0  0  0  0
 13 12  2  0  0  0  0
 15 13  1  0  0  0  0
 16 15  1  0  0  0  0
 17 15  2  0  0  0  0
 17 19  1  0  0  0  0
 18 17  1  0  0  0  0
 19 12  1  0  0  0  0
 20 21  1  0  0  0  0
 20 24  1  0  0  0  0
 22 20  1  0  0  0  0
 23 28  1  0  0  0  0
 24 23  2  0  0  0  0
 24 25  1  0  0  0  0
 25 26  2  0  0  0  0
 26 27  1  0  0  0  0
 26 30  1  0  0  0  0
 27 31  1  0  0  0  0
 28 32  1  0  0  0  0
 28 27  2  0  0  0  0
 29 25  1  0  0  0  0
 33 36  1  0  0  0  0
 33 35  2  0  0  0  0
 33 23  1  0  0  0  0
 34 33  2  0  0  0  0
M  END
>  <minimizedAffinity>
-4.89558601

$$$$

 OpenBabel03242518033D

 36 38  0  0  0  0  0  0  0  0999 V2000
   37.9960   27.0640   43.5580 C   0  0  0  0  0  0  0  0  0  0  0  0
   38.9450   27.1620   44.1660 H   0  0  0  0  0  0  0  0  0  0  0  0
   37.2210   26.8690   44.2960 H   0  0  0  0  0  0  0  0  0  0  0  0
   38.8870   29.2700   42.8930 C   0  0  0  0  0  0  0  0  0  0  0  0
   37.8840   28.2940   42.7870 C   0  0  0  0  0  0  0  0  0  0  0  0
   36.8250   28.5810   41.9290 C   0  0  0  0  0  0  0  0  0  0  0  0
   36.8280   29.7540   41.2670 N   0  0  0  0  0  0  0  0  0  0  0  0
   37.7910   30.6680   41.3810 C   0  0  0  0  0  0  0  0  0  0  0  0
   38.8080   30.4180   42.1900 N   0  0  0  0  0  0  0  0  0  0  0  0
   39.7560   29.1710   43.5180 H   0  0  0  0  0  0  0  0  0  0  0  0
   36.0240   27.8460   41.8200 H   0  0  0  0  0  0  0  0  0  0  0  0
   37.7660   31.9340   40.6480 C   0  0  0  0  0  0  0  0  0  0  0  0
   36.9570   32.3050   39.6110 C   0  0  0  0  0  0  0  0  0  0  0  0
   36.1790   31.6730   39.1690 H   0  0  0  0  0  0  0  0  0  0  0  0
   37.3150   33.6020   39.2530 C   0  0  0  0  0  0  0  0  0  0  0  0
   36.8580   34.1640   38.4710 H   0  0  0  0  0  0  0  0  0  0  0  0
   38.3450   33.9250   40.1270 C   0  0  0  0  0  0  0  0  0  0  0  0
   38.8670   34.8910   40.1230 H   0  0  0  0  0  0  0  0  0  0  0  0
   38.5870   32.9220   40.9370 O   0  0  0  0  0  0  0  0  0  0  0  0
   38.2530   25.9290   42.5860 C   0  0  0  0  0  0  0  0  0  0  0  0
   37.6040   25.9920   41.6910 H   0  0  0  0  0  0  0  0  0  0  0  0
   37.9530   24.9390   43.0450 H   0  0  0  0  0  0  0  0  0  0  0  0
   40.1130   25.9530   40.9710 C   0  0  0  0  0  0  0  0  0  0  0  0
   39.6910   25.7440   42.2730 C   0  0  0  0  0  0  0  0  0  0  0  0
   40.5370   25.3660   43.2860 C   0  0  0  0  0  0  0  0  0  0  0  0
   41.8680   25.1890   42.9870 C   0  0  0  0  0  0  0  0  0  0  0  0
   42.3740   25.3720   41.7390 C   0  0  0  0  0  0  0  0  0  0  0  0
   41.4600   25.7530   40.7640 C   0  0  0  0  0  0  0  0  0  0  0  0
   40.2710   25.1920   44.2940 H   0  0  0  0  0  0  0  0  0  0  0  0
   42.5890   24.8910   43.7500 H   0  0  0  0  0  0  0  0  0  0  0  0
   43.4150   25.2350   41.4990 H   0  0  0  0  0  0  0  0  0  0  0  0
   41.8480   25.9040   39.7560 H   0  0  0  0  0  0  0  0  0  0  0  0
   39.0760   26.4320   39.6600 S   0  0  0  0  0  0  0  0  0  0  0  0
   39.4960   25.8520   38.3430 O   0  0  0  0  0  0  0  0  0  0  0  0
   39.2120   27.9370   39.4650 O   0  0  0  0  0  0  0  0  0  0  0  0
   37.7420   26.2540   39.9200 H   0  0  0  0  0  0  0  0  0  0  0  0
  1  2  1  0  0  0  0
  1  3  1  0  0  0  0
  4 10  1  0  0  0  0
  5  4  1  0  0  0  0
  5  1  1  0  0  0  0
  6  5  2  0  0  0  0
  7  8  2  0  0  0  0
  7  6  1  0  0  0  0
  8  9  1  0  0  0  0
  9  4  2  0  0  0  0
 11  6  1  0  0  0  0
 12 19  1  0  0  0  0
 12  8  1  0  0  0  0
 13 12  2  0  0  0  0
 14 13  1  0  0  0  0
 15 13  1  0  0  0  0
 15 17  2  0  0  0  0
 16 15  1  0  0  0  0
 17 19  1  0  0  0  0
 18 17  1  0  0  0  0
 20 22  1  0  0  0  0
 20  1  1  0  0  0  0
 21 20  1  0  0  0  0
 23 24  1  0  0  0  0
 24 20  1  0  0  0  0
 24 25  2  0  0  0  0
 25 29  1  0  0  0  0
 26 25  1  0  0  0  0
 26 30  1  0  0  0  0
 27 26  2  0  0  0  0
 28 23  2  0  0  0  0
 28 27  1  0  0  0  0
 31 27  1  0  0  0  0
 32 28  1  0  0  0  0
 33 36  1  0  0  0  0
 33 23  1  0  0  0  0
 34 33  2  0  0  0  0
 35 33  2  0  0  0  0
M  END
>  <minimizedAffinity>
-4.85852575

$$$$

 OpenBabel03242518033D

 36 38  0  0  0  0  0  0  0  0999 V2000
   36.2190   28.4240   40.7130 C   0  0  0  0  0  0  0  0  0  0  0  0
   35.2360   28.9650   40.8520 H   0  0  0  0  0  0  0  0  0  0  0  0
   35.9920   27.6250   40.0090 H   0  0  0  0  0  0  0  0  0  0  0  0
   37.2840   30.6340   41.0040 C   0  0  0  0  0  0  0  0  0  0  0  0
   37.1760   29.4340   40.2830 C   0  0  0  0  0  0  0  0  0  0  0  0
   38.0150   29.2920   39.1810 C   0  0  0  0  0  0  0  0  0  0  0  0
   38.8620   30.2960   38.8790 N   0  0  0  0  0  0  0  0  0  0  0  0
   38.9480   31.4280   39.5760 C   0  0  0  0  0  0  0  0  0  0  0  0
   38.1610   31.5860   40.6280 N   0  0  0  0  0  0  0  0  0  0  0  0
   36.6950   30.8660   41.8730 H   0  0  0  0  0  0  0  0  0  0  0  0
   37.9610   28.3720   38.5950 H   0  0  0  0  0  0  0  0  0  0  0  0
   39.8790   32.5010   39.2230 C   0  0  0  0  0  0  0  0  0  0  0  0
   40.1630   33.6460   39.9120 C   0  0  0  0  0  0  0  0  0  0  0  0
   39.7110   33.9280   40.8680 H   0  0  0  0  0  0  0  0  0  0  0  0
   41.1110   34.3470   39.1710 C   0  0  0  0  0  0  0  0  0  0  0  0
   41.5310   35.2850   39.4550 H   0  0  0  0  0  0  0  0  0  0  0  0
   41.3340   33.5490   38.0570 C   0  0  0  0  0  0  0  0  0  0  0  0
   42.0360   33.8050   37.2530 H   0  0  0  0  0  0  0  0  0  0  0  0
   40.5930   32.4670   38.1160 O   0  0  0  0  0  0  0  0  0  0  0  0
   36.6250   27.9580   42.0970 C   0  0  0  0  0  0  0  0  0  0  0  0
   35.7870   28.0150   42.8190 H   0  0  0  0  0  0  0  0  0  0  0  0
   37.3900   28.6640   42.5430 H   0  0  0  0  0  0  0  0  0  0  0  0
   38.6760   26.6250   42.3900 C   0  0  0  0  0  0  0  0  0  0  0  0
   37.3240   26.6510   42.0910 C   0  0  0  0  0  0  0  0  0  0  0  0
   36.6020   25.5250   41.7810 C   0  0  0  0  0  0  0  0  0  0  0  0
   37.2580   24.3160   41.7710 C   0  0  0  0  0  0  0  0  0  0  0  0
   38.5820   24.1930   42.0510 C   0  0  0  0  0  0  0  0  0  0  0  0
   39.2500   25.3740   42.3550 C   0  0  0  0  0  0  0  0  0  0  0  0
   35.5720   25.4850   41.5450 H   0  0  0  0  0  0  0  0  0  0  0  0
   36.7370   23.3860   41.5330 H   0  0  0  0  0  0  0  0  0  0  0  0
   39.1020   23.2490   42.0450 H   0  0  0  0  0  0  0  0  0  0  0  0
   40.3130   25.2950   42.5840 H   0  0  0  0  0  0  0  0  0  0  0  0
   39.6270   28.0260   42.7880 S   0  0  0  0  0  0  0  0  0  0  0  0
   40.2970   28.6330   41.5930 O   0  0  0  0  0  0  0  0  0  0  0  0
   40.7820   27.5860   43.6800 O   0  0  0  0  0  0  0  0  0  0  0  0
   38.9570   28.9480   43.5490 H   0  0  0  0  0  0  0  0  0  0  0  0
  1  2  1  0  0  0  0
  1 20  1  0  0  0  0
  3  1  1  0  0  0  0
  4 10  1  0  0  0  0
  5  1  1  0  0  0  0
  5  4  2  0  0  0  0
  6  5  1  0  0  0  0
  7  6  2  0  0  0  0
  7  8  1  0  0  0  0
  8  9  2  0  0  0  0
  9  4  1  0  0  0  0
 11  6  1  0  0  0  0
 12  8  1  0  0  0  0
 12 13  2  0  0  0  0
 13 14  1  0  0  0  0
 15 16  1  0  0  0  0
 15 13  1  0  0  0  0
 17 19  1  0  0  0  0
 17 15  2  0  0  0  0
 18 17  1  0  0  0  0
 19 12  1  0  0  0  0
 20 22  1  0  0  0  0
 20 21  1  0  0  0  0
 23 33  1  0  0  0  0
 24 20  1  0  0  0  0
 24 23  2  0  0  0  0
 25 24  1  0  0  0  0
 26 25  2  0  0  0  0
 26 27  1  0  0  0  0
 27 28  2  0  0  0  0
 28 23  1  0  0  0  0
 28 32  1  0  0  0  0
 29 25  1  0  0  0  0
 30 26  1  0  0  0  0
 31 27  1  0  0  0  0
 33 36  1  0  0  0  0
 33 35  2  0  0  0  0
 34 33  2  0  0  0  0
M  END
>  <minimizedAffinity>
-4.82620001

$$$$
