
 OpenBabel03242521553D

 47 51  0  0  0  0  0  0  0  0999 V2000
   45.8580   32.2670   46.0510 C   0  0  0  0  0  0  0  0  0  0  0  0
   45.6680   32.9360   47.2570 C   0  0  0  0  0  0  0  0  0  0  0  0
   45.8640   32.3310   48.5040 C   0  0  0  0  0  0  0  0  0  0  0  0
   46.2590   31.0250   48.5880 C   0  0  0  0  0  0  0  0  0  0  0  0
   46.4500   30.3180   47.3800 C   0  0  0  0  0  0  0  0  0  0  0  0
   46.7860   29.0090   47.5070 C   0  0  0  0  0  0  0  0  0  0  0  0
   46.9080   28.2640   46.3350 C   0  0  0  0  0  0  0  0  0  0  0  0
   46.6650   28.9160   45.0740 C   0  0  0  0  0  0  0  0  0  0  0  0
   46.3320   30.2510   45.1180 C   0  0  0  0  0  0  0  0  0  0  0  0
   46.2220   31.0150   46.1920 C   0  0  0  0  0  0  0  0  0  0  0  0
   45.3500   33.9910   47.2010 H   0  0  0  0  0  0  0  0  0  0  0  0
   45.6960   32.9150   49.3930 H   0  0  0  0  0  0  0  0  0  0  0  0
   46.4170   30.5530   49.5420 H   0  0  0  0  0  0  0  0  0  0  0  0
   46.9520   28.5680   48.4810 H   0  0  0  0  0  0  0  0  0  0  0  0
   47.1830   27.2350   46.5100 H   0  0  0  0  0  0  0  0  0  0  0  0
   46.8280   28.1160   44.3700 H   0  0  0  0  0  0  0  0  0  0  0  0
   44.4740   29.7920   43.7870 C   0  0  0  0  0  0  0  0  0  0  0  0
   45.8530   30.2400   43.7520 C   0  0  0  0  0  0  0  0  0  0  0  0
   46.2700   30.3600   42.4940 C   0  0  0  0  0  0  0  0  0  0  0  0
   45.5260   30.0980   41.3640 C   0  0  0  0  0  0  0  0  0  0  0  0
   44.2280   29.6740   41.4200 C   0  0  0  0  0  0  0  0  0  0  0  0
   43.6980   29.5200   42.6770 C   0  0  0  0  0  0  0  0  0  0  0  0
   47.3150   30.7050   42.5670 H   0  0  0  0  0  0  0  0  0  0  0  0
   46.0570   30.2600   40.4440 H   0  0  0  0  0  0  0  0  0  0  0  0
   43.7080   29.4880   40.5020 H   0  0  0  0  0  0  0  0  0  0  0  0
   43.6910   29.5590   44.9520 O   0  0  0  0  0  0  0  0  0  0  0  0
   43.8420   28.6290   45.3300 H   0  0  0  0  0  0  0  0  0  0  0  0
   42.3890   29.0870   42.6690 O   0  0  0  0  0  0  0  0  0  0  0  0
   41.3260   29.8560   42.2350 C   0  0  0  0  0  0  0  0  0  0  0  0
   40.2260   29.6720   41.4460 C   0  0  0  0  0  0  0  0  0  0  0  0
   40.0450   28.7250   41.0000 H   0  0  0  0  0  0  0  0  0  0  0  0
   39.5660   30.8820   41.4310 C   0  0  0  0  0  0  0  0  0  0  0  0
   38.6570   31.0490   40.8900 H   0  0  0  0  0  0  0  0  0  0  0  0
   40.2840   31.7620   42.2090 C   0  0  0  0  0  0  0  0  0  0  0  0
   40.0730   32.7810   42.4230 H   0  0  0  0  0  0  0  0  0  0  0  0
   41.3230   31.1040   42.6650 O   0  0  0  0  0  0  0  0  0  0  0  0
   45.2630   34.1410   42.8800 C   0  0  0  0  0  0  0  0  0  0  0  0
   46.5920   34.5150   42.5690 C   0  0  0  0  0  0  0  0  0  0  0  0
   47.5650   34.0820   43.4350 C   0  0  0  0  0  0  0  0  0  0  0  0
   47.1290   33.3650   44.4660 N   0  0  0  0  0  0  0  0  0  0  0  0
   45.8960   32.9950   44.7930 C   0  0  0  0  0  0  0  0  0  0  0  0
   44.9840   33.4070   43.9630 N   0  0  0  0  0  0  0  0  0  0  0  0
   44.4850   34.4740   42.2070 H   0  0  0  0  0  0  0  0  0  0  0  0
   46.8280   35.1050   41.7040 H   0  0  0  0  0  0  0  0  0  0  0  0
   48.9420   34.3290   43.2080 N   0  0  0  0  0  0  0  0  0  0  0  0
   49.3570   35.2160   42.8610 H   0  0  0  0  0  0  0  0  0  0  0  0
   49.6070   33.5520   43.4080 H   0  0  0  0  0  0  0  0  0  0  0  0
  1 10  2  0  0  0  0
  1  2  1  0  0  0  0
  2  3  2  0  0  0  0
  3  4  1  0  0  0  0
  3 12  1  0  0  0  0
  4 13  1  0  0  0  0
  5  6  1  0  0  0  0
  5  4  2  0  0  0  0
  6 14  1  0  0  0  0
  7 15  1  0  0  0  0
  7  6  2  0  0  0  0
  8  9  2  0  0  0  0
  8  7  1  0  0  0  0
  9 10  1  0  0  0  0
 10  5  1  0  0  0  0
 11  2  1  0  0  0  0
 16  8  1  0  0  0  0
 17 26  1  0  0  0  0
 18 17  1  0  0  0  0
 18  9  1  0  0  0  0
 19 23  1  0  0  0  0
 19 18  2  0  0  0  0
 20 21  2  0  0  0  0
 20 19  1  0  0  0  0
 21 22  1  0  0  0  0
 22 17  2  0  0  0  0
 24 20  1  0  0  0  0
 25 21  1  0  0  0  0
 26 27  1  0  0  0  0
 28 22  1  0  0  0  0
 29 36  1  0  0  0  0
 29 28  1  0  0  0  0
 30 29  2  0  0  0  0
 31 30  1  0  0  0  0
 32 30  1  0  0  0  0
 32 34  2  0  0  0  0
 33 32  1  0  0  0  0
 34 35  1  0  0  0  0
 34 36  1  0  0  0  0
 37 42  1  0  0  0  0
 38 37  2  0  0  0  0
 38 39  1  0  0  0  0
 39 40  2  0  0  0  0
 40 41  1  0  0  0  0
 41  1  1  0  0  0  0
 42 41  2  0  0  0  0
 43 37  1  0  0  0  0
 44 38  1  0  0  0  0
 45 47  1  0  0  0  0
 45 39  1  0  0  0  0
 46 45  1  0  0  0  0
M  END
>  <minimizedAffinity>
-5.33354044

>  <minimizedRMSD>
0.804436088

$$$$
