
 OpenBabel03242513123D

 19 20  0  0  0  0  0  0  0  0999 V2000
   35.9050   29.6510   40.5400 C   0  0  0  0  0  0  0  0  0  0  0  0
   34.7400   29.3170   40.2120 O   0  0  0  0  0  0  0  0  0  0  0  0
   37.0940   26.9670   42.6780 C   0  0  0  0  0  0  0  0  0  0  0  0
   38.0190   27.6010   43.5370 C   0  0  0  0  0  0  0  0  0  0  0  0
   38.2220   28.9770   43.3580 C   0  0  0  0  0  0  0  0  0  0  0  0
   37.5250   29.6180   42.3820 N   0  0  0  0  0  0  0  0  0  0  0  0
   36.6500   28.9730   41.5830 C   0  0  0  0  0  0  0  0  0  0  0  0
   36.4490   27.6580   41.7450 N   0  0  0  0  0  0  0  0  0  0  0  0
   36.9130   25.8990   42.7890 H   0  0  0  0  0  0  0  0  0  0  0  0
   38.5520   27.0700   44.2960 H   0  0  0  0  0  0  0  0  0  0  0  0
   38.9110   29.5320   43.9740 H   0  0  0  0  0  0  0  0  0  0  0  0
   36.5080   30.7680   39.8270 C   0  0  0  0  0  0  0  0  0  0  0  0
   36.9290   30.7080   38.4950 C   0  0  0  0  0  0  0  0  0  0  0  0
   36.8720   29.8620   37.8240 H   0  0  0  0  0  0  0  0  0  0  0  0
   37.4300   31.9900   38.2540 C   0  0  0  0  0  0  0  0  0  0  0  0
   37.8270   32.2090   37.2720 H   0  0  0  0  0  0  0  0  0  0  0  0
   37.2970   32.7490   39.4150 C   0  0  0  0  0  0  0  0  0  0  0  0
   37.6490   33.7500   39.3490 H   0  0  0  0  0  0  0  0  0  0  0  0
   36.7440   31.9680   40.3090 O   0  0  0  0  0  0  0  0  0  0  0  0
  1  7  1  0  0  0  0
  2  1  2  0  0  0  0
  3  9  1  0  0  0  0
  3  4  1  0  0  0  0
  4 10  1  0  0  0  0
  5  4  2  0  0  0  0
  5 11  1  0  0  0  0
  6  5  1  0  0  0  0
  7  8  1  0  0  0  0
  7  6  2  0  0  0  0
  8  3  2  0  0  0  0
 12 19  1  0  0  0  0
 12  1  1  0  0  0  0
 13 12  2  0  0  0  0
 14 13  1  0  0  0  0
 15 13  1  0  0  0  0
 15 17  2  0  0  0  0
 16 15  1  0  0  0  0
 17 19  1  0  0  0  0
 18 17  1  0  0  0  0
M  END
>  <minimizedAffinity>
-4.14822054

$$$$

 OpenBabel03242513123D

 19 20  0  0  0  0  0  0  0  0999 V2000
   35.9560   29.4410   40.5290 C   0  0  0  0  0  0  0  0  0  0  0  0
   34.7610   29.0630   40.4660 O   0  0  0  0  0  0  0  0  0  0  0  0
   37.5560   30.3290   37.3920 C   0  0  0  0  0  0  0  0  0  0  0  0
   37.7560   31.7240   37.4950 C   0  0  0  0  0  0  0  0  0  0  0  0
   37.3240   32.3480   38.6740 C   0  0  0  0  0  0  0  0  0  0  0  0
   36.7450   31.5880   39.6410 N   0  0  0  0  0  0  0  0  0  0  0  0
   36.5740   30.2570   39.5000 C   0  0  0  0  0  0  0  0  0  0  0  0
   36.9830   29.6490   38.3780 N   0  0  0  0  0  0  0  0  0  0  0  0
   37.8800   29.8120   36.4890 H   0  0  0  0  0  0  0  0  0  0  0  0
   38.2140   32.2950   36.7170 H   0  0  0  0  0  0  0  0  0  0  0  0
   37.4410   33.4090   38.8270 H   0  0  0  0  0  0  0  0  0  0  0  0
   36.7300   29.0310   41.6910 C   0  0  0  0  0  0  0  0  0  0  0  0
   36.5360   27.8250   42.3730 C   0  0  0  0  0  0  0  0  0  0  0  0
   35.8140   27.0520   42.1490 H   0  0  0  0  0  0  0  0  0  0  0  0
   37.4890   27.8710   43.3930 C   0  0  0  0  0  0  0  0  0  0  0  0
   37.5480   27.0360   44.0790 H   0  0  0  0  0  0  0  0  0  0  0  0
   38.1990   29.0660   43.2900 C   0  0  0  0  0  0  0  0  0  0  0  0
   38.9570   29.2110   44.0220 H   0  0  0  0  0  0  0  0  0  0  0  0
   37.7010   29.7070   42.2620 O   0  0  0  0  0  0  0  0  0  0  0  0
  1 12  1  0  0  0  0
  2  1  2  0  0  0  0
  3  4  2  0  0  0  0
  3  8  1  0  0  0  0
  4  5  1  0  0  0  0
  5 11  1  0  0  0  0
  5  6  2  0  0  0  0
  7  6  1  0  0  0  0
  7  1  1  0  0  0  0
  8  7  2  0  0  0  0
  9  3  1  0  0  0  0
 10  4  1  0  0  0  0
 12 19  1  0  0  0  0
 12 13  2  0  0  0  0
 13 15  1  0  0  0  0
 14 13  1  0  0  0  0
 15 16  1  0  0  0  0
 17 15  2  0  0  0  0
 17 18  1  0  0  0  0
 19 17  1  0  0  0  0
M  END
>  <minimizedAffinity>
-3.99226665

$$$$

 OpenBabel03242513123D

 19 20  0  0  0  0  0  0  0  0999 V2000
   36.2530   30.1190   40.8690 C   0  0  0  0  0  0  0  0  0  0  0  0
   36.2550   31.3580   41.0670 O   0  0  0  0  0  0  0  0  0  0  0  0
   38.7370   28.7190   43.1190 C   0  0  0  0  0  0  0  0  0  0  0  0
   38.1970   27.4660   43.4850 C   0  0  0  0  0  0  0  0  0  0  0  0
   36.9540   27.1190   42.9360 C   0  0  0  0  0  0  0  0  0  0  0  0
   36.3450   27.9940   42.0920 N   0  0  0  0  0  0  0  0  0  0  0  0
   36.8980   29.1810   41.7690 C   0  0  0  0  0  0  0  0  0  0  0  0
   38.0850   29.5240   42.2870 N   0  0  0  0  0  0  0  0  0  0  0  0
   39.7010   29.0210   43.5270 H   0  0  0  0  0  0  0  0  0  0  0  0
   38.6990   26.8000   44.1520 H   0  0  0  0  0  0  0  0  0  0  0  0
   36.4760   26.1810   43.1670 H   0  0  0  0  0  0  0  0  0  0  0  0
   35.5680   29.6290   39.6820 C   0  0  0  0  0  0  0  0  0  0  0  0
   36.1470   29.5830   38.4090 C   0  0  0  0  0  0  0  0  0  0  0  0
   37.1440   29.8900   38.1290 H   0  0  0  0  0  0  0  0  0  0  0  0
   35.1320   29.0510   37.6090 C   0  0  0  0  0  0  0  0  0  0  0  0
   35.3300   28.9110   36.5550 H   0  0  0  0  0  0  0  0  0  0  0  0
   34.0160   28.8060   38.4060 C   0  0  0  0  0  0  0  0  0  0  0  0
   33.1740   28.3970   37.8990 H   0  0  0  0  0  0  0  0  0  0  0  0
   34.3390   29.1690   39.6230 O   0  0  0  0  0  0  0  0  0  0  0  0
  1  2  2  0  0  0  0
  1  7  1  0  0  0  0
  3  4  1  0  0  0  0
  3  9  1  0  0  0  0
  4 10  1  0  0  0  0
  5 11  1  0  0  0  0
  5  4  2  0  0  0  0
  6  5  1  0  0  0  0
  7  6  2  0  0  0  0
  7  8  1  0  0  0  0
  8  3  2  0  0  0  0
 12  1  1  0  0  0  0
 13 12  2  0  0  0  0
 14 13  1  0  0  0  0
 15 17  2  0  0  0  0
 15 13  1  0  0  0  0
 16 15  1  0  0  0  0
 17 19  1  0  0  0  0
 18 17  1  0  0  0  0
 19 12  1  0  0  0  0
M  END
>  <minimizedAffinity>
-3.99210715

$$$$

 OpenBabel03242513123D

 19 20  0  0  0  0  0  0  0  0999 V2000
   36.5580   30.0860   40.9830 C   0  0  0  0  0  0  0  0  0  0  0  0
   35.4520   29.9830   40.3990 O   0  0  0  0  0  0  0  0  0  0  0  0
   37.7080   33.3650   39.9300 C   0  0  0  0  0  0  0  0  0  0  0  0
   39.0480   33.4160   40.3770 C   0  0  0  0  0  0  0  0  0  0  0  0
   39.5410   32.2900   41.0520 C   0  0  0  0  0  0  0  0  0  0  0  0
   38.7170   31.2250   41.2350 N   0  0  0  0  0  0  0  0  0  0  0  0
   37.4430   31.2190   40.7900 C   0  0  0  0  0  0  0  0  0  0  0  0
   36.9600   32.2890   40.1440 N   0  0  0  0  0  0  0  0  0  0  0  0
   37.2930   34.2230   39.4020 H   0  0  0  0  0  0  0  0  0  0  0  0
   39.6720   34.2680   40.2180 H   0  0  0  0  0  0  0  0  0  0  0  0
   40.5520   32.2520   41.4240 H   0  0  0  0  0  0  0  0  0  0  0  0
   36.9440   29.0110   41.8860 C   0  0  0  0  0  0  0  0  0  0  0  0
   36.9630   27.6590   41.5280 C   0  0  0  0  0  0  0  0  0  0  0  0
   36.7050   27.2290   40.5700 H   0  0  0  0  0  0  0  0  0  0  0  0
   37.3890   27.0190   42.6940 C   0  0  0  0  0  0  0  0  0  0  0  0
   37.4890   25.9420   42.6810 H   0  0  0  0  0  0  0  0  0  0  0  0
   37.6030   27.9800   43.6800 C   0  0  0  0  0  0  0  0  0  0  0  0
   37.9330   27.6050   44.6190 H   0  0  0  0  0  0  0  0  0  0  0  0
   37.3230   29.1390   43.1380 O   0  0  0  0  0  0  0  0  0  0  0  0
  1 12  1  0  0  0  0
  2  1  2  0  0  0  0
  3  8  2  0  0  0  0
  3  4  1  0  0  0  0
  4  5  2  0  0  0  0
  5  6  1  0  0  0  0
  5 11  1  0  0  0  0
  7  1  1  0  0  0  0
  7  6  2  0  0  0  0
  8  7  1  0  0  0  0
  9  3  1  0  0  0  0
 10  4  1  0  0  0  0
 12 19  1  0  0  0  0
 13 12  2  0  0  0  0
 13 15  1  0  0  0  0
 14 13  1  0  0  0  0
 15 17  2  0  0  0  0
 16 15  1  0  0  0  0
 17 18  1  0  0  0  0
 19 17  1  0  0  0  0
M  END
>  <minimizedAffinity>
-3.9720645

$$$$

 OpenBabel03242513123D

 19 20  0  0  0  0  0  0  0  0999 V2000
   38.7080   30.7830   41.5650 C   0  0  0  0  0  0  0  0  0  0  0  0
   39.6600   31.3430   42.1610 O   0  0  0  0  0  0  0  0  0  0  0  0
   36.3250   28.0560   41.8320 C   0  0  0  0  0  0  0  0  0  0  0  0
   36.7330   27.3590   42.9910 C   0  0  0  0  0  0  0  0  0  0  0  0
   37.8520   27.8560   43.6770 C   0  0  0  0  0  0  0  0  0  0  0  0
   38.4730   28.9650   43.1960 N   0  0  0  0  0  0  0  0  0  0  0  0
   38.0480   29.5990   42.0830 C   0  0  0  0  0  0  0  0  0  0  0  0
   36.9810   29.1340   41.4200 N   0  0  0  0  0  0  0  0  0  0  0  0
   35.4600   27.6970   41.2750 H   0  0  0  0  0  0  0  0  0  0  0  0
   36.2240   26.4890   43.3450 H   0  0  0  0  0  0  0  0  0  0  0  0
   38.2240   27.3800   44.5690 H   0  0  0  0  0  0  0  0  0  0  0  0
   38.2680   31.3650   40.3060 C   0  0  0  0  0  0  0  0  0  0  0  0
   37.3840   32.4440   40.2110 C   0  0  0  0  0  0  0  0  0  0  0  0
   36.9160   32.9840   41.0220 H   0  0  0  0  0  0  0  0  0  0  0  0
   37.2620   32.6460   38.8340 C   0  0  0  0  0  0  0  0  0  0  0  0
   36.6170   33.4420   38.4870 H   0  0  0  0  0  0  0  0  0  0  0  0
   38.0520   31.7080   38.1720 C   0  0  0  0  0  0  0  0  0  0  0  0
   38.0370   31.7660   37.1100 H   0  0  0  0  0  0  0  0  0  0  0  0
   38.6230   30.9800   39.1000 O   0  0  0  0  0  0  0  0  0  0  0  0
  1  7  1  0  0  0  0
  1  2  2  0  0  0  0
  3  4  1  0  0  0  0
  4 10  1  0  0  0  0
  4  5  2  0  0  0  0
  5 11  1  0  0  0  0
  6  5  1  0  0  0  0
  7  6  2  0  0  0  0
  8  3  2  0  0  0  0
  8  7  1  0  0  0  0
  9  3  1  0  0  0  0
 12  1  1  0  0  0  0
 13 12  2  0  0  0  0
 13 14  1  0  0  0  0
 15 13  1  0  0  0  0
 16 15  1  0  0  0  0
 17 15  2  0  0  0  0
 17 19  1  0  0  0  0
 18 17  1  0  0  0  0
 19 12  1  0  0  0  0
M  END
>  <minimizedAffinity>
-3.93313336

$$$$

 OpenBabel03242513123D

 19 20  0  0  0  0  0  0  0  0999 V2000
   36.8120   27.4210   42.5920 C   0  0  0  0  0  0  0  0  0  0  0  0
   36.1870   27.3020   43.6740 O   0  0  0  0  0  0  0  0  0  0  0  0
   35.6400   30.0120   40.3340 C   0  0  0  0  0  0  0  0  0  0  0  0
   36.7010   30.9460   40.3070 C   0  0  0  0  0  0  0  0  0  0  0  0
   37.8290   30.6560   41.0890 C   0  0  0  0  0  0  0  0  0  0  0  0
   37.8410   29.5100   41.8190 N   0  0  0  0  0  0  0  0  0  0  0  0
   36.8050   28.6460   41.8150 C   0  0  0  0  0  0  0  0  0  0  0  0
   35.7220   28.9110   41.0720 N   0  0  0  0  0  0  0  0  0  0  0  0
   34.7490   30.2060   39.7390 H   0  0  0  0  0  0  0  0  0  0  0  0
   36.6620   31.8390   39.7240 H   0  0  0  0  0  0  0  0  0  0  0  0
   38.6790   31.3190   41.1220 H   0  0  0  0  0  0  0  0  0  0  0  0
   37.5680   26.2690   42.1230 C   0  0  0  0  0  0  0  0  0  0  0  0
   37.0540   24.9690   42.0660 C   0  0  0  0  0  0  0  0  0  0  0  0
   36.0650   24.6400   42.3500 H   0  0  0  0  0  0  0  0  0  0  0  0
   38.1200   24.2200   41.5610 C   0  0  0  0  0  0  0  0  0  0  0  0
   37.9780   23.1570   41.4180 H   0  0  0  0  0  0  0  0  0  0  0  0
   39.2010   25.0710   41.3400 C   0  0  0  0  0  0  0  0  0  0  0  0
   40.0760   24.6070   40.9530 H   0  0  0  0  0  0  0  0  0  0  0  0
   38.8090   26.2710   41.6920 O   0  0  0  0  0  0  0  0  0  0  0  0
  1  2  2  0  0  0  0
  3  8  1  0  0  0  0
  4  3  2  0  0  0  0
  4  5  1  0  0  0  0
  5 11  1  0  0  0  0
  5  6  2  0  0  0  0
  7  6  1  0  0  0  0
  7  1  1  0  0  0  0
  8  7  2  0  0  0  0
  9  3  1  0  0  0  0
 10  4  1  0  0  0  0
 12  1  1  0  0  0  0
 13 12  2  0  0  0  0
 13 14  1  0  0  0  0
 15 13  1  0  0  0  0
 16 15  1  0  0  0  0
 17 15  2  0  0  0  0
 17 19  1  0  0  0  0
 18 17  1  0  0  0  0
 19 12  1  0  0  0  0
M  END
>  <minimizedAffinity>
-3.91727066

$$$$

 OpenBabel03242513123D

 19 20  0  0  0  0  0  0  0  0999 V2000
   36.6800   27.3720   42.5240 C   0  0  0  0  0  0  0  0  0  0  0  0
   36.1910   27.3320   43.6790 O   0  0  0  0  0  0  0  0  0  0  0  0
   39.2020   25.5640   40.6380 C   0  0  0  0  0  0  0  0  0  0  0  0
   38.8380   24.2080   40.7960 C   0  0  0  0  0  0  0  0  0  0  0  0
   37.7010   23.9350   41.5710 C   0  0  0  0  0  0  0  0  0  0  0  0
   37.0190   24.9760   42.1180 N   0  0  0  0  0  0  0  0  0  0  0  0
   37.4030   26.2570   41.9410 C   0  0  0  0  0  0  0  0  0  0  0  0
   38.4880   26.5300   41.2030 N   0  0  0  0  0  0  0  0  0  0  0  0
   40.0800   25.8110   40.0430 H   0  0  0  0  0  0  0  0  0  0  0  0
   39.3940   23.4100   40.3530 H   0  0  0  0  0  0  0  0  0  0  0  0
   37.3590   22.9270   41.7380 H   0  0  0  0  0  0  0  0  0  0  0  0
   36.4980   28.5970   41.7600 C   0  0  0  0  0  0  0  0  0  0  0  0
   35.6130   28.7230   40.6840 C   0  0  0  0  0  0  0  0  0  0  0  0
   34.9600   27.9640   40.2780 H   0  0  0  0  0  0  0  0  0  0  0  0
   35.7810   30.0490   40.2780 C   0  0  0  0  0  0  0  0  0  0  0  0
   35.1950   30.4080   39.4420 H   0  0  0  0  0  0  0  0  0  0  0  0
   36.7320   30.6520   41.0970 C   0  0  0  0  0  0  0  0  0  0  0  0
   36.9440   31.6710   40.8780 H   0  0  0  0  0  0  0  0  0  0  0  0
   37.1180   29.7400   41.9550 O   0  0  0  0  0  0  0  0  0  0  0  0
  1  2  2  0  0  0  0
  3  4  2  0  0  0  0
  3  8  1  0  0  0  0
  4  5  1  0  0  0  0
  5 11  1  0  0  0  0
  5  6  2  0  0  0  0
  7  6  1  0  0  0  0
  7  1  1  0  0  0  0
  8  7  2  0  0  0  0
  9  3  1  0  0  0  0
 10  4  1  0  0  0  0
 12 19  1  0  0  0  0
 12  1  1  0  0  0  0
 13 12  2  0  0  0  0
 14 13  1  0  0  0  0
 15 13  1  0  0  0  0
 15 17  2  0  0  0  0
 16 15  1  0  0  0  0
 17 19  1  0  0  0  0
 18 17  1  0  0  0  0
M  END
>  <minimizedAffinity>
-3.88595653

$$$$

 OpenBabel03242513123D

 19 20  0  0  0  0  0  0  0  0999 V2000
   38.0470   29.1670   40.3700 C   0  0  0  0  0  0  0  0  0  0  0  0
   38.3290   28.4050   39.4130 O   0  0  0  0  0  0  0  0  0  0  0  0
   37.1410   32.4410   39.0850 C   0  0  0  0  0  0  0  0  0  0  0  0
   37.8630   33.3390   39.9020 C   0  0  0  0  0  0  0  0  0  0  0  0
   38.6690   32.7850   40.9070 C   0  0  0  0  0  0  0  0  0  0  0  0
   38.7120   31.4330   41.0380 N   0  0  0  0  0  0  0  0  0  0  0  0
   38.0050   30.6120   40.2340 C   0  0  0  0  0  0  0  0  0  0  0  0
   37.2320   31.1290   39.2710 N   0  0  0  0  0  0  0  0  0  0  0  0
   36.5050   32.8380   38.2940 H   0  0  0  0  0  0  0  0  0  0  0  0
   37.8090   34.3980   39.7750 H   0  0  0  0  0  0  0  0  0  0  0  0
   39.2500   33.4040   41.5710 H   0  0  0  0  0  0  0  0  0  0  0  0
   37.7540   28.5510   41.6560 C   0  0  0  0  0  0  0  0  0  0  0  0
   36.5010   28.0400   42.0080 C   0  0  0  0  0  0  0  0  0  0  0  0
   35.6030   28.0260   41.4070 H   0  0  0  0  0  0  0  0  0  0  0  0
   36.6980   27.5610   43.3060 C   0  0  0  0  0  0  0  0  0  0  0  0
   35.8610   27.1060   43.8180 H   0  0  0  0  0  0  0  0  0  0  0  0
   38.0210   27.7960   43.6740 C   0  0  0  0  0  0  0  0  0  0  0  0
   38.2880   27.4720   44.6510 H   0  0  0  0  0  0  0  0  0  0  0  0
   38.5930   28.3850   42.6530 O   0  0  0  0  0  0  0  0  0  0  0  0
  1 12  1  0  0  0  0
  2  1  2  0  0  0  0
  3  8  2  0  0  0  0
  3  4  1  0  0  0  0
  4  5  2  0  0  0  0
  5  6  1  0  0  0  0
  5 11  1  0  0  0  0
  7  1  1  0  0  0  0
  7  6  2  0  0  0  0
  8  7  1  0  0  0  0
  9  3  1  0  0  0  0
 10  4  1  0  0  0  0
 12 13  2  0  0  0  0
 12 19  1  0  0  0  0
 13 15  1  0  0  0  0
 14 13  1  0  0  0  0
 15 17  2  0  0  0  0
 15 16  1  0  0  0  0
 17 18  1  0  0  0  0
 19 17  1  0  0  0  0
M  END
>  <minimizedAffinity>
-3.79965973

$$$$

 OpenBabel03242513123D

 19 20  0  0  0  0  0  0  0  0999 V2000
   36.2060   29.9750   40.8400 C   0  0  0  0  0  0  0  0  0  0  0  0
   36.2070   31.1680   41.2290 O   0  0  0  0  0  0  0  0  0  0  0  0
   33.8900   28.7960   38.3030 C   0  0  0  0  0  0  0  0  0  0  0  0
   34.6550   28.8000   37.1150 C   0  0  0  0  0  0  0  0  0  0  0  0
   35.9900   29.2200   37.2140 C   0  0  0  0  0  0  0  0  0  0  0  0
   36.4680   29.5950   38.4300 N   0  0  0  0  0  0  0  0  0  0  0  0
   35.7010   29.5750   39.5390 C   0  0  0  0  0  0  0  0  0  0  0  0
   34.4240   29.1760   39.4580 N   0  0  0  0  0  0  0  0  0  0  0  0
   32.8490   28.4760   38.2620 H   0  0  0  0  0  0  0  0  0  0  0  0
   34.2510   28.5000   36.1730 H   0  0  0  0  0  0  0  0  0  0  0  0
   36.6370   29.2510   36.3530 H   0  0  0  0  0  0  0  0  0  0  0  0
   36.7400   28.9710   41.7490 C   0  0  0  0  0  0  0  0  0  0  0  0
   36.6900   27.5950   41.5090 C   0  0  0  0  0  0  0  0  0  0  0  0
   36.2670   27.0920   40.6510 H   0  0  0  0  0  0  0  0  0  0  0  0
   37.3120   27.0450   42.6330 C   0  0  0  0  0  0  0  0  0  0  0  0
   37.4040   25.9690   42.6940 H   0  0  0  0  0  0  0  0  0  0  0  0
   37.7000   28.0800   43.4810 C   0  0  0  0  0  0  0  0  0  0  0  0
   38.1870   27.7780   44.3770 H   0  0  0  0  0  0  0  0  0  0  0  0
   37.3330   29.1960   42.9000 O   0  0  0  0  0  0  0  0  0  0  0  0
  1  2  2  0  0  0  0
  1 12  1  0  0  0  0
  3  8  1  0  0  0  0
  4  5  1  0  0  0  0
  4  3  2  0  0  0  0
  5  6  2  0  0  0  0
  6  7  1  0  0  0  0
  7  1  1  0  0  0  0
  8  7  2  0  0  0  0
  9  3  1  0  0  0  0
 10  4  1  0  0  0  0
 11  5  1  0  0  0  0
 12 19  1  0  0  0  0
 13 12  2  0  0  0  0
 13 15  1  0  0  0  0
 14 13  1  0  0  0  0
 15 16  1  0  0  0  0
 15 17  2  0  0  0  0
 17 18  1  0  0  0  0
 19 17  1  0  0  0  0
M  END
>  <minimizedAffinity>
-3.7767477

$$$$
