
 OpenBabel03252509103D

 40 43  0  0  0  0  0  0  0  0999 V2000
   36.1450   27.2690   39.1510 C   0  0  0  0  0  0  0  0  0  0  0  0
   35.8720   28.2400   40.0660 C   0  0  0  0  0  0  0  0  0  0  0  0
   34.8280   29.1260   39.8480 C   0  0  0  0  0  0  0  0  0  0  0  0
   34.0700   29.0210   38.7060 C   0  0  0  0  0  0  0  0  0  0  0  0
   34.3150   28.0410   37.7460 C   0  0  0  0  0  0  0  0  0  0  0  0
   35.3740   27.1610   37.9910 C   0  0  0  0  0  0  0  0  0  0  0  0
   34.5790   29.9100   40.5470 H   0  0  0  0  0  0  0  0  0  0  0  0
   33.2390   29.6470   38.4290 H   0  0  0  0  0  0  0  0  0  0  0  0
   33.7690   27.9010   36.8410 H   0  0  0  0  0  0  0  0  0  0  0  0
   35.5980   26.3820   37.2640 H   0  0  0  0  0  0  0  0  0  0  0  0
   39.4650   30.7950   42.7520 Cl  0  0  0  0  0  0  0  0  0  0  0  0
   38.2350   29.5760   42.5510 C   0  0  0  0  0  0  0  0  0  0  0  0
   37.5620   29.4440   41.3800 C   0  0  0  0  0  0  0  0  0  0  0  0
   36.6160   28.4320   41.3120 C   0  0  0  0  0  0  0  0  0  0  0  0
   36.3670   27.6000   42.3780 C   0  0  0  0  0  0  0  0  0  0  0  0
   37.0490   27.7480   43.5410 C   0  0  0  0  0  0  0  0  0  0  0  0
   37.9890   28.7450   43.6190 C   0  0  0  0  0  0  0  0  0  0  0  0
   35.6190   26.8340   42.2660 H   0  0  0  0  0  0  0  0  0  0  0  0
   36.8310   27.0780   44.3630 H   0  0  0  0  0  0  0  0  0  0  0  0
   38.5210   28.8420   44.5610 H   0  0  0  0  0  0  0  0  0  0  0  0
   37.5600   32.4130   39.0500 C   0  0  0  0  0  0  0  0  0  0  0  0
   37.2530   31.5580   40.1170 C   0  0  0  0  0  0  0  0  0  0  0  0
   37.8710   30.3350   40.2840 C   0  0  0  0  0  0  0  0  0  0  0  0
   38.7960   30.0320   39.3360 N   0  0  0  0  0  0  0  0  0  0  0  0
   39.0950   30.8440   38.3140 C   0  0  0  0  0  0  0  0  0  0  0  0
   38.4800   32.0220   38.1770 N   0  0  0  0  0  0  0  0  0  0  0  0
   37.0230   33.3520   39.0010 H   0  0  0  0  0  0  0  0  0  0  0  0
   36.5100   31.8490   40.8430 H   0  0  0  0  0  0  0  0  0  0  0  0
   39.8550   30.4470   37.6520 H   0  0  0  0  0  0  0  0  0  0  0  0
   37.3800   26.1520   39.4050 S   0  0  0  0  0  0  0  0  0  0  0  0
   36.9650   25.0360   40.3390 O   0  0  0  0  0  0  0  0  0  0  0  0
   37.5010   25.4130   38.0200 O   0  0  0  0  0  0  0  0  0  0  0  0
   39.0000   26.5630   39.8170 C   0  0  0  0  0  0  0  0  0  0  0  0
   39.5160   26.2050   41.0890 C   0  0  0  0  0  0  0  0  0  0  0  0
   39.0110   25.6670   41.9160 H   0  0  0  0  0  0  0  0  0  0  0  0
   40.8210   26.5950   41.2840 C   0  0  0  0  0  0  0  0  0  0  0  0
   41.4610   26.4690   42.1200 H   0  0  0  0  0  0  0  0  0  0  0  0
   41.0790   27.1990   40.0960 C   0  0  0  0  0  0  0  0  0  0  0  0
   42.0090   27.6820   39.7540 H   0  0  0  0  0  0  0  0  0  0  0  0
   40.0640   27.1560   39.3380 O   0  0  0  0  0  0  0  0  0  0  0  0
  1 30  1  0  0  0  0
  1  2  1  0  0  0  0
  2 14  1  0  0  0  0
  3  2  2  0  0  0  0
  3  7  1  0  0  0  0
  4  3  1  0  0  0  0
  5  6  1  0  0  0  0
  5  4  2  0  0  0  0
  6  1  2  0  0  0  0
  8  4  1  0  0  0  0
  9  5  1  0  0  0  0
 10  6  1  0  0  0  0
 12 11  1  0  0  0  0
 12 17  1  0  0  0  0
 13 12  2  0  0  0  0
 14 13  1  0  0  0  0
 14 15  2  0  0  0  0
 15 16  1  0  0  0  0
 16 17  2  0  0  0  0
 16 19  1  0  0  0  0
 17 20  1  0  0  0  0
 18 15  1  0  0  0  0
 21 22  1  0  0  0  0
 22 23  2  0  0  0  0
 22 28  1  0  0  0  0
 23 13  1  0  0  0  0
 24 23  1  0  0  0  0
 25 24  2  0  0  0  0
 26 25  1  0  0  0  0
 26 21  2  0  0  0  0
 27 21  1  0  0  0  0
 29 25  1  0  0  0  0
 30 33  1  0  0  0  0
 30 31  2  0  0  0  0
 32 30  2  0  0  0  0
 33 34  2  0  0  0  0
 34 36  1  0  0  0  0
 34 35  1  0  0  0  0
 36 37  1  0  0  0  0
 38 36  2  0  0  0  0
 39 38  1  0  0  0  0
 40 33  1  0  0  0  0
 40 38  1  0  0  0  0
M  END
>  <minimizedAffinity>
-6.03520441

$$$$

 OpenBabel03252509103D

 40 43  0  0  0  0  0  0  0  0999 V2000
   36.1780   27.3070   39.1620 C   0  0  0  0  0  0  0  0  0  0  0  0
   35.8920   28.2650   40.0860 C   0  0  0  0  0  0  0  0  0  0  0  0
   34.8300   29.1320   39.8830 C   0  0  0  0  0  0  0  0  0  0  0  0
   34.0660   29.0220   38.7450 C   0  0  0  0  0  0  0  0  0  0  0  0
   34.3220   28.0540   37.7760 C   0  0  0  0  0  0  0  0  0  0  0  0
   35.4000   27.1930   38.0060 C   0  0  0  0  0  0  0  0  0  0  0  0
   34.5710   29.9060   40.5890 H   0  0  0  0  0  0  0  0  0  0  0  0
   33.2210   29.6340   38.4790 H   0  0  0  0  0  0  0  0  0  0  0  0
   33.7730   27.9110   36.8740 H   0  0  0  0  0  0  0  0  0  0  0  0
   35.6330   26.4230   37.2720 H   0  0  0  0  0  0  0  0  0  0  0  0
   39.5450   30.7850   42.7250 Cl  0  0  0  0  0  0  0  0  0  0  0  0
   38.2870   29.5900   42.5460 C   0  0  0  0  0  0  0  0  0  0  0  0
   37.6110   29.4530   41.3780 C   0  0  0  0  0  0  0  0  0  0  0  0
   36.6420   28.4620   41.3280 C   0  0  0  0  0  0  0  0  0  0  0  0
   36.3750   27.6550   42.4080 C   0  0  0  0  0  0  0  0  0  0  0  0
   37.0610   27.8070   43.5680 C   0  0  0  0  0  0  0  0  0  0  0  0
   38.0240   28.7840   43.6280 C   0  0  0  0  0  0  0  0  0  0  0  0
   35.6100   26.9040   42.3100 H   0  0  0  0  0  0  0  0  0  0  0  0
   36.8290   27.1560   44.4020 H   0  0  0  0  0  0  0  0  0  0  0  0
   38.5590   28.8860   44.5690 H   0  0  0  0  0  0  0  0  0  0  0  0
   37.6590   32.3710   38.9850 C   0  0  0  0  0  0  0  0  0  0  0  0
   37.3330   31.5420   40.0670 C   0  0  0  0  0  0  0  0  0  0  0  0
   37.9390   30.3170   40.2670 C   0  0  0  0  0  0  0  0  0  0  0  0
   38.8700   29.9870   39.3360 N   0  0  0  0  0  0  0  0  0  0  0  0
   39.1880   30.7730   38.2990 C   0  0  0  0  0  0  0  0  0  0  0  0
   38.5850   31.9540   38.1300 N   0  0  0  0  0  0  0  0  0  0  0  0
   37.1300   33.3140   38.9100 H   0  0  0  0  0  0  0  0  0  0  0  0
   36.5850   31.8550   40.7790 H   0  0  0  0  0  0  0  0  0  0  0  0
   39.9500   30.3560   37.6540 H   0  0  0  0  0  0  0  0  0  0  0  0
   37.4350   26.2120   39.3980 S   0  0  0  0  0  0  0  0  0  0  0  0
   38.6090   26.8290   40.1260 O   0  0  0  0  0  0  0  0  0  0  0  0
   36.8580   25.2090   40.4660 O   0  0  0  0  0  0  0  0  0  0  0  0
   38.0940   25.2010   38.1700 C   0  0  0  0  0  0  0  0  0  0  0  0
   38.7510   25.7830   37.0550 C   0  0  0  0  0  0  0  0  0  0  0  0
   38.9210   26.8560   36.8320 H   0  0  0  0  0  0  0  0  0  0  0  0
   39.2280   24.8600   36.1530 C   0  0  0  0  0  0  0  0  0  0  0  0
   39.7520   24.9950   35.2410 H   0  0  0  0  0  0  0  0  0  0  0  0
   38.8410   23.7050   36.7520 C   0  0  0  0  0  0  0  0  0  0  0  0
   38.9930   22.6670   36.4140 H   0  0  0  0  0  0  0  0  0  0  0  0
   38.2320   23.9420   37.8380 O   0  0  0  0  0  0  0  0  0  0  0  0
  1 30  1  0  0  0  0
  1  2  1  0  0  0  0
  2 14  1  0  0  0  0
  3  2  2  0  0  0  0
  3  7  1  0  0  0  0
  4  3  1  0  0  0  0
  5  6  1  0  0  0  0
  5  4  2  0  0  0  0
  6  1  2  0  0  0  0
  8  4  1  0  0  0  0
  9  5  1  0  0  0  0
 10  6  1  0  0  0  0
 12 11  1  0  0  0  0
 12 17  1  0  0  0  0
 13 12  2  0  0  0  0
 14 13  1  0  0  0  0
 14 15  2  0  0  0  0
 15 16  1  0  0  0  0
 16 17  2  0  0  0  0
 16 19  1  0  0  0  0
 17 20  1  0  0  0  0
 18 15  1  0  0  0  0
 21 22  1  0  0  0  0
 22 23  2  0  0  0  0
 22 28  1  0  0  0  0
 23 13  1  0  0  0  0
 24 23  1  0  0  0  0
 25 24  2  0  0  0  0
 26 25  1  0  0  0  0
 26 21  2  0  0  0  0
 27 21  1  0  0  0  0
 29 25  1  0  0  0  0
 30 31  2  0  0  0  0
 30 32  2  0  0  0  0
 33 30  1  0  0  0  0
 34 33  2  0  0  0  0
 35 34  1  0  0  0  0
 36 38  2  0  0  0  0
 36 34  1  0  0  0  0
 37 36  1  0  0  0  0
 38 40  1  0  0  0  0
 39 38  1  0  0  0  0
 40 33  1  0  0  0  0
M  END
>  <minimizedAffinity>
-5.93918705

$$$$

 OpenBabel03252509103D

 40 43  0  0  0  0  0  0  0  0999 V2000
   37.5250   29.4880   41.4130 C   0  0  0  0  0  0  0  0  0  0  0  0
   36.5760   28.5260   41.2450 C   0  0  0  0  0  0  0  0  0  0  0  0
   36.2920   27.6420   42.2730 C   0  0  0  0  0  0  0  0  0  0  0  0
   36.9710   27.7380   43.4650 C   0  0  0  0  0  0  0  0  0  0  0  0
   37.9480   28.7080   43.6800 C   0  0  0  0  0  0  0  0  0  0  0  0
   38.2150   29.5870   42.6240 C   0  0  0  0  0  0  0  0  0  0  0  0
   35.5470   26.8650   42.1800 H   0  0  0  0  0  0  0  0  0  0  0  0
   36.8380   27.1120   44.3300 H   0  0  0  0  0  0  0  0  0  0  0  0
   38.5120   28.8400   44.5740 H   0  0  0  0  0  0  0  0  0  0  0  0
   38.9730   30.3590   42.7530 H   0  0  0  0  0  0  0  0  0  0  0  0
   35.8320   26.0540   36.7730 Cl  0  0  0  0  0  0  0  0  0  0  0  0
   35.4350   27.2380   37.9910 C   0  0  0  0  0  0  0  0  0  0  0  0
   36.1810   27.3610   39.1180 C   0  0  0  0  0  0  0  0  0  0  0  0
   35.7960   28.3440   40.0190 C   0  0  0  0  0  0  0  0  0  0  0  0
   34.7120   29.1560   39.7850 C   0  0  0  0  0  0  0  0  0  0  0  0
   33.9780   29.0170   38.6530 C   0  0  0  0  0  0  0  0  0  0  0  0
   34.3500   28.0480   37.7550 C   0  0  0  0  0  0  0  0  0  0  0  0
   34.4610   29.9000   40.5220 H   0  0  0  0  0  0  0  0  0  0  0  0
   33.1290   29.6710   38.4980 H   0  0  0  0  0  0  0  0  0  0  0  0
   33.7460   27.9580   36.8560 H   0  0  0  0  0  0  0  0  0  0  0  0
   38.3300   24.4090   40.0680 C   0  0  0  0  0  0  0  0  0  0  0  0
   37.2190   25.2420   39.8870 C   0  0  0  0  0  0  0  0  0  0  0  0
   37.3200   26.4920   39.3100 C   0  0  0  0  0  0  0  0  0  0  0  0
   38.5770   26.8440   38.9340 N   0  0  0  0  0  0  0  0  0  0  0  0
   39.6440   26.0530   39.1040 C   0  0  0  0  0  0  0  0  0  0  0  0
   39.5170   24.8480   39.6660 N   0  0  0  0  0  0  0  0  0  0  0  0
   38.1540   23.4450   40.5310 H   0  0  0  0  0  0  0  0  0  0  0  0
   36.2410   24.9120   40.2030 H   0  0  0  0  0  0  0  0  0  0  0  0
   40.5690   26.4890   38.7470 H   0  0  0  0  0  0  0  0  0  0  0  0
   37.8660   30.6030   40.1990 S   0  0  0  0  0  0  0  0  0  0  0  0
   37.8270   29.9830   38.8190 O   0  0  0  0  0  0  0  0  0  0  0  0
   36.6010   31.5390   40.1890 O   0  0  0  0  0  0  0  0  0  0  0  0
   39.2040   31.6860   40.2140 C   0  0  0  0  0  0  0  0  0  0  0  0
   40.4900   31.2250   39.8330 C   0  0  0  0  0  0  0  0  0  0  0  0
   40.7930   30.2110   39.5030 H   0  0  0  0  0  0  0  0  0  0  0  0
   41.4630   32.1950   39.8920 C   0  0  0  0  0  0  0  0  0  0  0  0
   42.5000   32.1460   39.6700 H   0  0  0  0  0  0  0  0  0  0  0  0
   40.7320   33.2550   40.3200 C   0  0  0  0  0  0  0  0  0  0  0  0
   41.0640   34.2860   40.5250 H   0  0  0  0  0  0  0  0  0  0  0  0
   39.5170   32.9300   40.4800 O   0  0  0  0  0  0  0  0  0  0  0  0
  1  6  1  0  0  0  0
  2  1  2  0  0  0  0
  2  3  1  0  0  0  0
  3  4  2  0  0  0  0
  4  5  1  0  0  0  0
  4  8  1  0  0  0  0
  5  9  1  0  0  0  0
  6 10  1  0  0  0  0
  6  5  2  0  0  0  0
  7  3  1  0  0  0  0
 11 12  1  0  0  0  0
 12 13  1  0  0  0  0
 13 23  1  0  0  0  0
 13 14  2  0  0  0  0
 14  2  1  0  0  0  0
 15 14  1  0  0  0  0
 15 18  1  0  0  0  0
 16 15  2  0  0  0  0
 17 12  2  0  0  0  0
 17 16  1  0  0  0  0
 19 16  1  0  0  0  0
 20 17  1  0  0  0  0
 21 27  1  0  0  0  0
 22 21  1  0  0  0  0
 22 28  1  0  0  0  0
 23 22  2  0  0  0  0
 24 25  2  0  0  0  0
 24 23  1  0  0  0  0
 25 26  1  0  0  0  0
 26 21  2  0  0  0  0
 29 25  1  0  0  0  0
 30 33  1  0  0  0  0
 30  1  1  0  0  0  0
 31 30  2  0  0  0  0
 32 30  2  0  0  0  0
 33 40  1  0  0  0  0
 34 36  1  0  0  0  0
 34 33  2  0  0  0  0
 35 34  1  0  0  0  0
 36 38  2  0  0  0  0
 37 36  1  0  0  0  0
 38 40  1  0  0  0  0
 38 39  1  0  0  0  0
M  END
>  <minimizedAffinity>
-5.91955185

$$$$

 OpenBabel03252509103D

 40 43  0  0  0  0  0  0  0  0999 V2000
   36.4910   29.6920   38.3070 C   0  0  0  0  0  0  0  0  0  0  0  0
   36.3830   30.2700   39.5340 C   0  0  0  0  0  0  0  0  0  0  0  0
   35.2930   29.9880   40.3430 C   0  0  0  0  0  0  0  0  0  0  0  0
   34.3220   29.1200   39.9020 C   0  0  0  0  0  0  0  0  0  0  0  0
   34.3950   28.5050   38.6540 C   0  0  0  0  0  0  0  0  0  0  0  0
   35.5050   28.8090   37.8580 C   0  0  0  0  0  0  0  0  0  0  0  0
   35.1690   30.4260   41.3220 H   0  0  0  0  0  0  0  0  0  0  0  0
   33.4360   28.8250   40.4370 H   0  0  0  0  0  0  0  0  0  0  0  0
   33.6820   27.8240   38.2490 H   0  0  0  0  0  0  0  0  0  0  0  0
   35.5980   28.3480   36.8760 H   0  0  0  0  0  0  0  0  0  0  0  0
   40.3100   31.1870   42.7580 Cl  0  0  0  0  0  0  0  0  0  0  0  0
   39.1450   31.6420   41.5430 C   0  0  0  0  0  0  0  0  0  0  0  0
   38.2630   30.7390   41.0440 C   0  0  0  0  0  0  0  0  0  0  0  0
   37.3630   31.2020   40.0950 C   0  0  0  0  0  0  0  0  0  0  0  0
   37.3610   32.5110   39.6780 C   0  0  0  0  0  0  0  0  0  0  0  0
   38.2500   33.3990   40.1880 C   0  0  0  0  0  0  0  0  0  0  0  0
   39.1450   32.9530   41.1280 C   0  0  0  0  0  0  0  0  0  0  0  0
   36.6390   32.8120   38.9370 H   0  0  0  0  0  0  0  0  0  0  0  0
   38.2240   34.4240   39.8390 H   0  0  0  0  0  0  0  0  0  0  0  0
   39.8460   33.6840   41.5210 H   0  0  0  0  0  0  0  0  0  0  0  0
   37.7260   27.6600   43.1590 C   0  0  0  0  0  0  0  0  0  0  0  0
   37.6860   28.9840   42.7000 C   0  0  0  0  0  0  0  0  0  0  0  0
   38.2980   29.3780   41.5270 C   0  0  0  0  0  0  0  0  0  0  0  0
   38.9380   28.3830   40.8600 N   0  0  0  0  0  0  0  0  0  0  0  0
   38.9820   27.1160   41.2920 C   0  0  0  0  0  0  0  0  0  0  0  0
   38.3810   26.7630   42.4310 N   0  0  0  0  0  0  0  0  0  0  0  0
   37.2170   27.4460   44.0910 H   0  0  0  0  0  0  0  0  0  0  0  0
   37.1610   29.7350   43.2700 H   0  0  0  0  0  0  0  0  0  0  0  0
   39.5350   26.4530   40.6380 H   0  0  0  0  0  0  0  0  0  0  0  0
   37.8220   29.9820   37.3170 S   0  0  0  0  0  0  0  0  0  0  0  0
   37.9170   28.9960   36.1740 O   0  0  0  0  0  0  0  0  0  0  0  0
   37.4510   31.3240   36.5820 O   0  0  0  0  0  0  0  0  0  0  0  0
   39.4270   30.2320   37.8860 C   0  0  0  0  0  0  0  0  0  0  0  0
   40.0580   31.4870   37.6890 C   0  0  0  0  0  0  0  0  0  0  0  0
   39.6570   32.3950   37.1950 H   0  0  0  0  0  0  0  0  0  0  0  0
   41.3370   31.5470   38.1930 C   0  0  0  0  0  0  0  0  0  0  0  0
   42.0420   32.3400   38.1940 H   0  0  0  0  0  0  0  0  0  0  0  0
   41.4630   30.2940   38.6990 C   0  0  0  0  0  0  0  0  0  0  0  0
   42.3230   29.8410   39.2180 H   0  0  0  0  0  0  0  0  0  0  0  0
   40.4050   29.6220   38.5080 O   0  0  0  0  0  0  0  0  0  0  0  0
  1  2  1  0  0  0  0
  2 14  1  0  0  0  0
  2  3  2  0  0  0  0
  3  7  1  0  0  0  0
  4  3  1  0  0  0  0
  4  8  1  0  0  0  0
  5  4  2  0  0  0  0
  6  1  2  0  0  0  0
  6  5  1  0  0  0  0
  9  5  1  0  0  0  0
 10  6  1  0  0  0  0
 12 11  1  0  0  0  0
 13 23  1  0  0  0  0
 13 12  2  0  0  0  0
 14 13  1  0  0  0  0
 15 14  2  0  0  0  0
 15 16  1  0  0  0  0
 16 17  2  0  0  0  0
 17 20  1  0  0  0  0
 17 12  1  0  0  0  0
 18 15  1  0  0  0  0
 19 16  1  0  0  0  0
 21 27  1  0  0  0  0
 22 21  1  0  0  0  0
 22 28  1  0  0  0  0
 23 22  2  0  0  0  0
 24 25  2  0  0  0  0
 24 23  1  0  0  0  0
 25 26  1  0  0  0  0
 26 21  2  0  0  0  0
 29 25  1  0  0  0  0
 30 33  1  0  0  0  0
 30  1  1  0  0  0  0
 31 30  2  0  0  0  0
 32 30  2  0  0  0  0
 33 40  1  0  0  0  0
 34 33  2  0  0  0  0
 34 36  1  0  0  0  0
 35 34  1  0  0  0  0
 36 37  1  0  0  0  0
 36 38  2  0  0  0  0
 38 39  1  0  0  0  0
 40 38  1  0  0  0  0
M  END
>  <minimizedAffinity>
-5.75526714

$$$$

 OpenBabel03252509103D

 40 43  0  0  0  0  0  0  0  0999 V2000
   37.9310   29.0070   41.2860 C   0  0  0  0  0  0  0  0  0  0  0  0
   36.8110   28.2360   41.2160 C   0  0  0  0  0  0  0  0  0  0  0  0
   36.3090   27.6330   42.3590 C   0  0  0  0  0  0  0  0  0  0  0  0
   36.9460   27.8160   43.5640 C   0  0  0  0  0  0  0  0  0  0  0  0
   38.0930   28.5990   43.6800 C   0  0  0  0  0  0  0  0  0  0  0  0
   38.5780   29.1950   42.5100 C   0  0  0  0  0  0  0  0  0  0  0  0
   35.4250   27.0140   42.3470 H   0  0  0  0  0  0  0  0  0  0  0  0
   36.6520   27.4030   44.5130 H   0  0  0  0  0  0  0  0  0  0  0  0
   38.6360   28.7850   44.5780 H   0  0  0  0  0  0  0  0  0  0  0  0
   39.4720   29.8140   42.5590 H   0  0  0  0  0  0  0  0  0  0  0  0
   35.7100   25.1370   37.2350 Cl  0  0  0  0  0  0  0  0  0  0  0  0
   35.5410   26.5970   38.1750 C   0  0  0  0  0  0  0  0  0  0  0  0
   36.2500   26.7810   39.3180 C   0  0  0  0  0  0  0  0  0  0  0  0
   36.0600   27.9830   39.9840 C   0  0  0  0  0  0  0  0  0  0  0  0
   35.1960   28.9430   39.5150 C   0  0  0  0  0  0  0  0  0  0  0  0
   34.4960   28.7400   38.3720 C   0  0  0  0  0  0  0  0  0  0  0  0
   34.6760   27.5550   37.7030 C   0  0  0  0  0  0  0  0  0  0  0  0
   35.0900   29.8550   40.0770 H   0  0  0  0  0  0  0  0  0  0  0  0
   33.8220   29.5160   38.0270 H   0  0  0  0  0  0  0  0  0  0  0  0
   34.1040   27.4180   36.7890 H   0  0  0  0  0  0  0  0  0  0  0  0
   37.6400   23.6870   40.9700 C   0  0  0  0  0  0  0  0  0  0  0  0
   36.7520   24.6840   40.5460 C   0  0  0  0  0  0  0  0  0  0  0  0
   37.1560   25.7460   39.7610 C   0  0  0  0  0  0  0  0  0  0  0  0
   38.4740   25.7430   39.4370 N   0  0  0  0  0  0  0  0  0  0  0  0
   39.3290   24.7940   39.8390 C   0  0  0  0  0  0  0  0  0  0  0  0
   38.9110   23.7770   40.5980 N   0  0  0  0  0  0  0  0  0  0  0  0
   37.2320   22.8920   41.5840 H   0  0  0  0  0  0  0  0  0  0  0  0
   35.7130   24.6370   40.8320 H   0  0  0  0  0  0  0  0  0  0  0  0
   40.3430   24.9460   39.4900 H   0  0  0  0  0  0  0  0  0  0  0  0
   38.5420   29.7860   39.9240 S   0  0  0  0  0  0  0  0  0  0  0  0
   37.7940   31.0620   39.6040 O   0  0  0  0  0  0  0  0  0  0  0  0
   39.9440   30.3210   40.4010 O   0  0  0  0  0  0  0  0  0  0  0  0
   38.8650   29.0140   38.4190 C   0  0  0  0  0  0  0  0  0  0  0  0
   40.1610   28.5050   38.1520 C   0  0  0  0  0  0  0  0  0  0  0  0
   41.0620   28.5240   38.7990 H   0  0  0  0  0  0  0  0  0  0  0  0
   40.2780   27.9160   36.9140 C   0  0  0  0  0  0  0  0  0  0  0  0
   41.1100   27.4550   36.4450 H   0  0  0  0  0  0  0  0  0  0  0  0
   39.0170   28.0830   36.4400 C   0  0  0  0  0  0  0  0  0  0  0  0
   38.5970   27.7740   35.4690 H   0  0  0  0  0  0  0  0  0  0  0  0
   38.2920   28.6820   37.2900 O   0  0  0  0  0  0  0  0  0  0  0  0
  1  6  1  0  0  0  0
  2  1  2  0  0  0  0
  2  3  1  0  0  0  0
  3  4  2  0  0  0  0
  4  5  1  0  0  0  0
  4  8  1  0  0  0  0
  5  9  1  0  0  0  0
  6 10  1  0  0  0  0
  6  5  2  0  0  0  0
  7  3  1  0  0  0  0
 11 12  1  0  0  0  0
 12 13  1  0  0  0  0
 13 23  1  0  0  0  0
 13 14  2  0  0  0  0
 14  2  1  0  0  0  0
 15 14  1  0  0  0  0
 15 18  1  0  0  0  0
 16 15  2  0  0  0  0
 17 12  2  0  0  0  0
 17 16  1  0  0  0  0
 19 16  1  0  0  0  0
 20 17  1  0  0  0  0
 21 27  1  0  0  0  0
 22 28  1  0  0  0  0
 22 21  2  0  0  0  0
 23 22  1  0  0  0  0
 24 23  2  0  0  0  0
 24 25  1  0  0  0  0
 25 26  2  0  0  0  0
 26 21  1  0  0  0  0
 29 25  1  0  0  0  0
 30 32  2  0  0  0  0
 30  1  1  0  0  0  0
 31 30  2  0  0  0  0
 33 30  1  0  0  0  0
 34 33  2  0  0  0  0
 34 35  1  0  0  0  0
 36 34  1  0  0  0  0
 37 36  1  0  0  0  0
 38 36  2  0  0  0  0
 38 40  1  0  0  0  0
 39 38  1  0  0  0  0
 40 33  1  0  0  0  0
M  END
>  <minimizedAffinity>
-5.60749292

$$$$

 OpenBabel03252509103D

 40 43  0  0  0  0  0  0  0  0999 V2000
   37.6920   26.9650   41.4900 C   0  0  0  0  0  0  0  0  0  0  0  0
   37.1410   27.6060   40.4230 C   0  0  0  0  0  0  0  0  0  0  0  0
   36.5450   26.8770   39.4060 C   0  0  0  0  0  0  0  0  0  0  0  0
   36.5110   25.5050   39.4770 C   0  0  0  0  0  0  0  0  0  0  0  0
   37.0610   24.8090   40.5530 C   0  0  0  0  0  0  0  0  0  0  0  0
   37.6570   25.5700   41.5650 C   0  0  0  0  0  0  0  0  0  0  0  0
   36.0980   27.3460   38.5420 H   0  0  0  0  0  0  0  0  0  0  0  0
   36.0790   24.8350   38.7540 H   0  0  0  0  0  0  0  0  0  0  0  0
   37.0710   23.7510   40.6740 H   0  0  0  0  0  0  0  0  0  0  0  0
   38.0980   25.0630   42.4220 H   0  0  0  0  0  0  0  0  0  0  0  0
   39.0500   31.8510   38.1880 Cl  0  0  0  0  0  0  0  0  0  0  0  0
   37.9660   30.9970   39.2540 C   0  0  0  0  0  0  0  0  0  0  0  0
   38.0130   29.6460   39.3670 C   0  0  0  0  0  0  0  0  0  0  0  0
   37.1220   29.0610   40.2550 C   0  0  0  0  0  0  0  0  0  0  0  0
   36.2320   29.8100   40.9870 C   0  0  0  0  0  0  0  0  0  0  0  0
   36.1990   31.1600   40.8600 C   0  0  0  0  0  0  0  0  0  0  0  0
   37.0770   31.7490   39.9850 C   0  0  0  0  0  0  0  0  0  0  0  0
   35.5640   29.2990   41.6600 H   0  0  0  0  0  0  0  0  0  0  0  0
   35.4870   31.7230   41.4510 H   0  0  0  0  0  0  0  0  0  0  0  0
   37.0310   32.8320   39.9020 H   0  0  0  0  0  0  0  0  0  0  0  0
   41.1520   27.8450   38.2980 C   0  0  0  0  0  0  0  0  0  0  0  0
   40.2250   28.5630   39.0650 C   0  0  0  0  0  0  0  0  0  0  0  0
   38.9770   28.9050   38.5850 C   0  0  0  0  0  0  0  0  0  0  0  0
   38.7240   28.4910   37.3170 N   0  0  0  0  0  0  0  0  0  0  0  0
   39.6040   27.8050   36.5760 C   0  0  0  0  0  0  0  0  0  0  0  0
   40.8060   27.4880   37.0670 N   0  0  0  0  0  0  0  0  0  0  0  0
   42.1070   27.6230   38.7580 H   0  0  0  0  0  0  0  0  0  0  0  0
   40.4780   28.8660   40.0690 H   0  0  0  0  0  0  0  0  0  0  0  0
   39.2390   27.5550   35.5880 H   0  0  0  0  0  0  0  0  0  0  0  0
   38.3870   27.8220   42.7620 S   0  0  0  0  0  0  0  0  0  0  0  0
   37.3520   28.4590   43.6630 O   0  0  0  0  0  0  0  0  0  0  0  0
   38.9940   26.6960   43.6800 O   0  0  0  0  0  0  0  0  0  0  0  0
   39.6590   28.9690   42.5870 C   0  0  0  0  0  0  0  0  0  0  0  0
   39.3820   30.3540   42.7100 C   0  0  0  0  0  0  0  0  0  0  0  0
   38.4130   30.8520   42.9140 H   0  0  0  0  0  0  0  0  0  0  0  0
   40.4890   31.1550   42.5470 C   0  0  0  0  0  0  0  0  0  0  0  0
   40.5880   32.2100   42.5840 H   0  0  0  0  0  0  0  0  0  0  0  0
   41.4430   30.2160   42.3230 C   0  0  0  0  0  0  0  0  0  0  0  0
   42.5190   30.3560   42.1320 H   0  0  0  0  0  0  0  0  0  0  0  0
   40.9450   29.0500   42.3540 O   0  0  0  0  0  0  0  0  0  0  0  0
  1  6  1  0  0  0  0
  1 30  1  0  0  0  0
  2  1  2  0  0  0  0
  3  4  2  0  0  0  0
  3  2  1  0  0  0  0
  4  5  1  0  0  0  0
  5  9  1  0  0  0  0
  5  6  2  0  0  0  0
  6 10  1  0  0  0  0
  7  3  1  0  0  0  0
  8  4  1  0  0  0  0
 11 12  1  0  0  0  0
 12 13  2  0  0  0  0
 12 17  1  0  0  0  0
 13 14  1  0  0  0  0
 14  2  1  0  0  0  0
 14 15  2  0  0  0  0
 15 18  1  0  0  0  0
 16 15  1  0  0  0  0
 16 19  1  0  0  0  0
 17 16  2  0  0  0  0
 20 17  1  0  0  0  0
 21 27  1  0  0  0  0
 21 22  1  0  0  0  0
 22 28  1  0  0  0  0
 23 22  2  0  0  0  0
 23 13  1  0  0  0  0
 24 23  1  0  0  0  0
 25 26  1  0  0  0  0
 25 24  2  0  0  0  0
 26 21  2  0  0  0  0
 29 25  1  0  0  0  0
 30 31  2  0  0  0  0
 30 32  2  0  0  0  0
 33 34  2  0  0  0  0
 33 30  1  0  0  0  0
 34 35  1  0  0  0  0
 36 37  1  0  0  0  0
 36 34  1  0  0  0  0
 38 40  1  0  0  0  0
 38 36  2  0  0  0  0
 39 38  1  0  0  0  0
 40 33  1  0  0  0  0
M  END
>  <minimizedAffinity>
-5.59808683

$$$$

 OpenBabel03252509103D

 40 43  0  0  0  0  0  0  0  0999 V2000
   37.5750   29.2170   41.1540 C   0  0  0  0  0  0  0  0  0  0  0  0
   37.1100   28.1410   40.4600 C   0  0  0  0  0  0  0  0  0  0  0  0
   36.2880   28.3260   39.3600 C   0  0  0  0  0  0  0  0  0  0  0  0
   35.9440   29.5990   38.9690 C   0  0  0  0  0  0  0  0  0  0  0  0
   36.4000   30.7270   39.6490 C   0  0  0  0  0  0  0  0  0  0  0  0
   37.2270   30.5110   40.7570 C   0  0  0  0  0  0  0  0  0  0  0  0
   35.8970   27.5010   38.7830 H   0  0  0  0  0  0  0  0  0  0  0  0
   35.3170   29.8660   38.1360 H   0  0  0  0  0  0  0  0  0  0  0  0
   36.1750   31.7390   39.4030 H   0  0  0  0  0  0  0  0  0  0  0  0
   37.6040   31.3660   41.3150 H   0  0  0  0  0  0  0  0  0  0  0  0
   39.7260   23.8050   39.4520 Cl  0  0  0  0  0  0  0  0  0  0  0  0
   38.5960   24.7760   40.3600 C   0  0  0  0  0  0  0  0  0  0  0  0
   38.3490   26.0660   40.0210 C   0  0  0  0  0  0  0  0  0  0  0  0
   37.4210   26.7490   40.7920 C   0  0  0  0  0  0  0  0  0  0  0  0
   36.7780   26.1520   41.8500 C   0  0  0  0  0  0  0  0  0  0  0  0
   37.0380   24.8610   42.1740 C   0  0  0  0  0  0  0  0  0  0  0  0
   37.9550   24.1750   41.4170 C   0  0  0  0  0  0  0  0  0  0  0  0
   36.0680   26.7340   42.4130 H   0  0  0  0  0  0  0  0  0  0  0  0
   36.5160   24.4180   43.0140 H   0  0  0  0  0  0  0  0  0  0  0  0
   38.1450   23.1420   41.6970 H   0  0  0  0  0  0  0  0  0  0  0  0
   40.8550   27.9480   37.9180 C   0  0  0  0  0  0  0  0  0  0  0  0
   40.1940   27.3920   39.0210 C   0  0  0  0  0  0  0  0  0  0  0  0
   39.0410   26.6440   38.8910 C   0  0  0  0  0  0  0  0  0  0  0  0
   38.6060   26.4910   37.6140 N   0  0  0  0  0  0  0  0  0  0  0  0
   39.2320   27.0190   36.5540 C   0  0  0  0  0  0  0  0  0  0  0  0
   40.3460   27.7400   36.7100 N   0  0  0  0  0  0  0  0  0  0  0  0
   41.7530   28.5210   38.1190 H   0  0  0  0  0  0  0  0  0  0  0  0
   40.5850   27.5440   40.0160 H   0  0  0  0  0  0  0  0  0  0  0  0
   38.7490   26.7990   35.6100 H   0  0  0  0  0  0  0  0  0  0  0  0
   38.6070   29.0280   42.4700 S   0  0  0  0  0  0  0  0  0  0  0  0
   39.2970   30.3200   42.8520 O   0  0  0  0  0  0  0  0  0  0  0  0
   37.6270   28.7920   43.6790 O   0  0  0  0  0  0  0  0  0  0  0  0
   39.7840   27.7800   42.6190 C   0  0  0  0  0  0  0  0  0  0  0  0
   39.6870   26.8420   43.6790 C   0  0  0  0  0  0  0  0  0  0  0  0
   38.9240   26.7780   44.4800 H   0  0  0  0  0  0  0  0  0  0  0  0
   40.6910   25.9020   43.6770 C   0  0  0  0  0  0  0  0  0  0  0  0
   40.8770   25.0900   44.3330 H   0  0  0  0  0  0  0  0  0  0  0  0
   41.3990   26.2980   42.5880 C   0  0  0  0  0  0  0  0  0  0  0  0
   42.3130   25.8560   42.1600 H   0  0  0  0  0  0  0  0  0  0  0  0
   40.8690   27.3160   42.0510 O   0  0  0  0  0  0  0  0  0  0  0  0
  1 30  1  0  0  0  0
  2 14  1  0  0  0  0
  2  1  2  0  0  0  0
  3  2  1  0  0  0  0
  4  3  2  0  0  0  0
  4  5  1  0  0  0  0
  5  6  2  0  0  0  0
  6  1  1  0  0  0  0
  6 10  1  0  0  0  0
  7  3  1  0  0  0  0
  8  4  1  0  0  0  0
  9  5  1  0  0  0  0
 11 12  1  0  0  0  0
 12 17  1  0  0  0  0
 13 12  2  0  0  0  0
 13 14  1  0  0  0  0
 14 15  2  0  0  0  0
 15 16  1  0  0  0  0
 15 18  1  0  0  0  0
 16 19  1  0  0  0  0
 17 20  1  0  0  0  0
 17 16  2  0  0  0  0
 21 27  1  0  0  0  0
 21 22  1  0  0  0  0
 22 28  1  0  0  0  0
 23 22  2  0  0  0  0
 23 13  1  0  0  0  0
 24 23  1  0  0  0  0
 25 26  1  0  0  0  0
 25 24  2  0  0  0  0
 26 21  2  0  0  0  0
 29 25  1  0  0  0  0
 30 33  1  0  0  0  0
 30 31  2  0  0  0  0
 30 32  2  0  0  0  0
 33 34  2  0  0  0  0
 34 35  1  0  0  0  0
 36 34  1  0  0  0  0
 36 37  1  0  0  0  0
 38 36  2  0  0  0  0
 39 38  1  0  0  0  0
 40 38  1  0  0  0  0
 40 33  1  0  0  0  0
M  END
>  <minimizedAffinity>
-5.55947495

$$$$

 OpenBabel03252509103D

 40 43  0  0  0  0  0  0  0  0999 V2000
   37.6180   25.7770   39.8740 C   0  0  0  0  0  0  0  0  0  0  0  0
   37.2200   26.4680   40.9780 C   0  0  0  0  0  0  0  0  0  0  0  0
   36.8850   25.7890   42.1390 C   0  0  0  0  0  0  0  0  0  0  0  0
   36.9550   24.4160   42.1730 C   0  0  0  0  0  0  0  0  0  0  0  0
   37.3600   23.6710   41.0670 C   0  0  0  0  0  0  0  0  0  0  0  0
   37.6920   24.3820   39.9080 C   0  0  0  0  0  0  0  0  0  0  0  0
   36.5640   26.2980   43.0350 H   0  0  0  0  0  0  0  0  0  0  0  0
   36.7220   23.7830   43.0110 H   0  0  0  0  0  0  0  0  0  0  0  0
   37.4380   22.6090   41.0220 H   0  0  0  0  0  0  0  0  0  0  0  0
   38.0120   23.8360   39.0220 H   0  0  0  0  0  0  0  0  0  0  0  0
   39.3240   31.0270   42.1780 Cl  0  0  0  0  0  0  0  0  0  0  0  0
   38.0470   30.0040   41.5750 C   0  0  0  0  0  0  0  0  0  0  0  0
   38.1950   28.6560   41.5210 C   0  0  0  0  0  0  0  0  0  0  0  0
   37.1160   27.9270   41.0440 C   0  0  0  0  0  0  0  0  0  0  0  0
   35.9510   28.5350   40.6440 C   0  0  0  0  0  0  0  0  0  0  0  0
   35.8210   29.8840   40.7050 C   0  0  0  0  0  0  0  0  0  0  0  0
   36.8830   30.6160   41.1760 C   0  0  0  0  0  0  0  0  0  0  0  0
   35.1480   27.9160   40.2810 H   0  0  0  0  0  0  0  0  0  0  0  0
   34.8910   30.3350   40.3820 H   0  0  0  0  0  0  0  0  0  0  0  0
   36.7540   31.6940   41.2150 H   0  0  0  0  0  0  0  0  0  0  0  0
   40.8340   27.0390   43.6800 C   0  0  0  0  0  0  0  0  0  0  0  0
   39.6270   27.6100   43.2580 C   0  0  0  0  0  0  0  0  0  0  0  0
   39.4360   28.0640   41.9680 C   0  0  0  0  0  0  0  0  0  0  0  0
   40.5070   27.9100   41.1480 N   0  0  0  0  0  0  0  0  0  0  0  0
   41.6650   27.3640   41.5430 C   0  0  0  0  0  0  0  0  0  0  0  0
   41.8220   26.9340   42.7980 N   0  0  0  0  0  0  0  0  0  0  0  0
   40.8920   26.7120   44.7110 H   0  0  0  0  0  0  0  0  0  0  0  0
   38.8060   27.7070   43.9520 H   0  0  0  0  0  0  0  0  0  0  0  0
   42.4130   27.3190   40.7620 H   0  0  0  0  0  0  0  0  0  0  0  0
   38.0710   26.5730   38.4610 S   0  0  0  0  0  0  0  0  0  0  0  0
   39.5150   27.0240   38.4910 O   0  0  0  0  0  0  0  0  0  0  0  0
   38.0920   25.4280   37.3810 O   0  0  0  0  0  0  0  0  0  0  0  0
   37.1730   27.8440   37.7250 C   0  0  0  0  0  0  0  0  0  0  0  0
   37.7700   29.1190   37.5480 C   0  0  0  0  0  0  0  0  0  0  0  0
   38.7910   29.4510   37.8250 H   0  0  0  0  0  0  0  0  0  0  0  0
   36.9400   30.0370   36.9480 C   0  0  0  0  0  0  0  0  0  0  0  0
   37.1070   31.0530   36.6910 H   0  0  0  0  0  0  0  0  0  0  0  0
   35.8260   29.2850   36.7670 C   0  0  0  0  0  0  0  0  0  0  0  0
   34.8630   29.5730   36.3150 H   0  0  0  0  0  0  0  0  0  0  0  0
   36.0010   28.1070   37.2030 O   0  0  0  0  0  0  0  0  0  0  0  0
  1  6  2  0  0  0  0
  1  2  1  0  0  0  0
  2 14  1  0  0  0  0
  2  3  2  0  0  0  0
  3  4  1  0  0  0  0
  3  7  1  0  0  0  0
  4  8  1  0  0  0  0
  5  4  2  0  0  0  0
  6  5  1  0  0  0  0
  9  5  1  0  0  0  0
 10  6  1  0  0  0  0
 12 11  1  0  0  0  0
 13 12  1  0  0  0  0
 13 23  1  0  0  0  0
 14 13  2  0  0  0  0
 15 16  2  0  0  0  0
 15 14  1  0  0  0  0
 16 17  1  0  0  0  0
 17 20  1  0  0  0  0
 17 12  2  0  0  0  0
 18 15  1  0  0  0  0
 19 16  1  0  0  0  0
 21 27  1  0  0  0  0
 22 21  1  0  0  0  0
 22 28  1  0  0  0  0
 23 22  2  0  0  0  0
 24 25  2  0  0  0  0
 24 23  1  0  0  0  0
 25 26  1  0  0  0  0
 26 21  2  0  0  0  0
 29 25  1  0  0  0  0
 30 31  2  0  0  0  0
 30  1  1  0  0  0  0
 32 30  2  0  0  0  0
 33 30  1  0  0  0  0
 34 33  2  0  0  0  0
 34 35  1  0  0  0  0
 36 34  1  0  0  0  0
 37 36  1  0  0  0  0
 38 36  2  0  0  0  0
 38 40  1  0  0  0  0
 39 38  1  0  0  0  0
 40 33  1  0  0  0  0
M  END
>  <minimizedAffinity>
-5.55763912

$$$$

 OpenBabel03252509103D

 40 43  0  0  0  0  0  0  0  0999 V2000
   36.9780   29.2070   38.7440 C   0  0  0  0  0  0  0  0  0  0  0  0
   36.9110   29.4360   40.0850 C   0  0  0  0  0  0  0  0  0  0  0  0
   35.6880   29.3930   40.7370 C   0  0  0  0  0  0  0  0  0  0  0  0
   34.5440   29.1170   40.0270 C   0  0  0  0  0  0  0  0  0  0  0  0
   34.5690   28.8740   38.6550 C   0  0  0  0  0  0  0  0  0  0  0  0
   35.8160   28.9250   38.0220 C   0  0  0  0  0  0  0  0  0  0  0  0
   35.5910   29.5700   41.7980 H   0  0  0  0  0  0  0  0  0  0  0  0
   33.5440   29.0560   40.4200 H   0  0  0  0  0  0  0  0  0  0  0  0
   33.7250   28.6530   38.0430 H   0  0  0  0  0  0  0  0  0  0  0  0
   35.8770   28.7410   36.9500 H   0  0  0  0  0  0  0  0  0  0  0  0
   40.5880   27.8140   43.3260 Cl  0  0  0  0  0  0  0  0  0  0  0  0
   39.7460   29.0250   42.3950 C   0  0  0  0  0  0  0  0  0  0  0  0
   38.6840   28.6980   41.6160 C   0  0  0  0  0  0  0  0  0  0  0  0
   38.0690   29.7350   40.9290 C   0  0  0  0  0  0  0  0  0  0  0  0
   38.5120   31.0320   41.0280 C   0  0  0  0  0  0  0  0  0  0  0  0
   39.5760   31.3390   41.8110 C   0  0  0  0  0  0  0  0  0  0  0  0
   40.1910   30.3210   42.4970 C   0  0  0  0  0  0  0  0  0  0  0  0
   37.9950   31.7940   40.4700 H   0  0  0  0  0  0  0  0  0  0  0  0
   39.9010   32.3710   41.8690 H   0  0  0  0  0  0  0  0  0  0  0  0
   41.0410   30.5940   43.1170 H   0  0  0  0  0  0  0  0  0  0  0  0
   36.8870   25.4610   42.3470 C   0  0  0  0  0  0  0  0  0  0  0  0
   37.3000   26.7980   42.4130 C   0  0  0  0  0  0  0  0  0  0  0  0
   38.2490   27.3210   41.5570 C   0  0  0  0  0  0  0  0  0  0  0  0
   38.7450   26.4380   40.6530 N   0  0  0  0  0  0  0  0  0  0  0  0
   38.3560   25.1580   40.5830 C   0  0  0  0  0  0  0  0  0  0  0  0
   37.4350   24.6790   41.4240 N   0  0  0  0  0  0  0  0  0  0  0  0
   36.1370   25.1410   43.0600 H   0  0  0  0  0  0  0  0  0  0  0  0
   36.8710   27.4580   43.1520 H   0  0  0  0  0  0  0  0  0  0  0  0
   38.8520   24.5940   39.8030 H   0  0  0  0  0  0  0  0  0  0  0  0
   38.4510   29.2120   37.9290 S   0  0  0  0  0  0  0  0  0  0  0  0
   39.2910   27.9950   38.2470 O   0  0  0  0  0  0  0  0  0  0  0  0
   38.0460   28.9660   36.4280 O   0  0  0  0  0  0  0  0  0  0  0  0
   39.5300   30.5530   37.8690 C   0  0  0  0  0  0  0  0  0  0  0  0
   40.8640   30.4050   38.3270 C   0  0  0  0  0  0  0  0  0  0  0  0
   41.3590   29.5050   38.7450 H   0  0  0  0  0  0  0  0  0  0  0  0
   41.6140   31.5540   38.2220 C   0  0  0  0  0  0  0  0  0  0  0  0
   42.6250   31.7440   38.4800 H   0  0  0  0  0  0  0  0  0  0  0  0
   40.6960   32.4010   37.6890 C   0  0  0  0  0  0  0  0  0  0  0  0
   40.8130   33.4610   37.4130 H   0  0  0  0  0  0  0  0  0  0  0  0
   39.5870   31.8130   37.5170 O   0  0  0  0  0  0  0  0  0  0  0  0
  1  2  1  0  0  0  0
  2  3  2  0  0  0  0
  2 14  1  0  0  0  0
  3  7  1  0  0  0  0
  4  8  1  0  0  0  0
  4  3  1  0  0  0  0
  5  4  2  0  0  0  0
  6  5  1  0  0  0  0
  6  1  2  0  0  0  0
  9  5  1  0  0  0  0
 10  6  1  0  0  0  0
 12 17  1  0  0  0  0
 12 11  1  0  0  0  0
 13 12  2  0  0  0  0
 14 15  2  0  0  0  0
 14 13  1  0  0  0  0
 15 16  1  0  0  0  0
 16 19  1  0  0  0  0
 16 17  2  0  0  0  0
 17 20  1  0  0  0  0
 18 15  1  0  0  0  0
 21 22  1  0  0  0  0
 21 27  1  0  0  0  0
 22 28  1  0  0  0  0
 23 13  1  0  0  0  0
 23 22  2  0  0  0  0
 24 23  1  0  0  0  0
 25 24  2  0  0  0  0
 25 26  1  0  0  0  0
 26 21  2  0  0  0  0
 29 25  1  0  0  0  0
 30 31  2  0  0  0  0
 30  1  1  0  0  0  0
 32 30  2  0  0  0  0
 33 30  1  0  0  0  0
 33 34  2  0  0  0  0
 34 35  1  0  0  0  0
 36 34  1  0  0  0  0
 36 37  1  0  0  0  0
 38 36  2  0  0  0  0
 39 38  1  0  0  0  0
 40 38  1  0  0  0  0
 40 33  1  0  0  0  0
M  END
>  <minimizedAffinity>
-5.53987265

$$$$
