
 OpenBabel03252501163D

 34 37  0  0  1  0  0  0  0  0999 V2000
   45.9280   32.4630   44.3120 C   0  0  1  0  0  0  0  0  0  0  0  0
   46.5540   33.7620   44.6260 C   0  0  0  0  0  0  0  0  0  0  0  0
   47.1660   32.7450   43.5910 C   0  0  2  0  0  0  0  0  0  0  0  0
   44.9330   32.5210   43.7750 H   0  0  0  0  0  0  0  0  0  0  0  0
   46.1500   34.7030   44.1940 H   0  0  0  0  0  0  0  0  0  0  0  0
   47.1780   33.9350   45.5000 H   0  0  0  0  0  0  0  0  0  0  0  0
   48.1140   32.3060   43.9100 H   0  0  0  0  0  0  0  0  0  0  0  0
   45.9970   30.8370   47.6950 C   0  0  0  0  0  0  0  0  0  0  0  0
   46.0100   31.8480   46.7500 C   0  0  0  0  0  0  0  0  0  0  0  0
   45.9160   31.4610   45.4240 C   0  0  0  0  0  0  0  0  0  0  0  0
   45.8190   30.1530   45.1000 N   0  0  0  0  0  0  0  0  0  0  0  0
   45.8100   29.1890   46.0680 C   0  0  0  0  0  0  0  0  0  0  0  0
   45.9010   29.5470   47.3660 N   0  0  0  0  0  0  0  0  0  0  0  0
   46.0870   32.8780   46.9990 H   0  0  0  0  0  0  0  0  0  0  0  0
   45.7340   28.1530   45.8320 H   0  0  0  0  0  0  0  0  0  0  0  0
   46.0860   31.2280   49.1390 C   0  0  0  0  0  0  0  0  0  0  0  0
   47.3430   30.8870   49.5830 F   0  0  0  0  0  0  0  0  0  0  0  0
   45.1690   30.4620   49.8290 F   0  0  0  0  0  0  0  0  0  0  0  0
   45.8840   32.5690   49.3040 F   0  0  0  0  0  0  0  0  0  0  0  0
   47.0160   33.2040   42.1780 C   0  0  0  0  0  0  0  0  0  0  0  0
   45.9980   33.9940   41.6540 C   0  0  0  0  0  0  0  0  0  0  0  0
   46.3470   34.1050   40.3280 C   0  0  0  0  0  0  0  0  0  0  0  0
   47.5230   33.4080   40.0890 C   0  0  0  0  0  0  0  0  0  0  0  0
   47.8630   32.8950   41.2510 O   0  0  0  0  0  0  0  0  0  0  0  0
   45.1620   34.3960   42.1920 H   0  0  0  0  0  0  0  0  0  0  0  0
   45.7550   34.6720   39.6020 H   0  0  0  0  0  0  0  0  0  0  0  0
   48.1970   33.3010   38.7990 C   0  0  0  0  0  0  0  0  0  0  0  0
   47.9650   34.1220   37.7130 C   0  0  0  0  0  0  0  0  0  0  0  0
   47.2800   34.9510   37.6140 H   0  0  0  0  0  0  0  0  0  0  0  0
   48.8460   33.6090   36.7540 C   0  0  0  0  0  0  0  0  0  0  0  0
   48.9620   33.9950   35.7390 H   0  0  0  0  0  0  0  0  0  0  0  0
   49.5410   32.5380   37.2980 C   0  0  0  0  0  0  0  0  0  0  0  0
   50.2990   31.9450   36.7720 H   0  0  0  0  0  0  0  0  0  0  0  0
   49.1060   32.3940   38.5480 O   0  0  0  0  0  0  0  0  0  0  0  0
  1  4  1  6  0  0  0
  1  2  1  0  0  0  0
  1 10  1  0  0  0  0
  2  6  1  0  0  0  0
  3  7  1  1  0  0  0
  3  1  1  0  0  0  0
  3  2  1  0  0  0  0
  5  2  1  0  0  0  0
  8 16  1  0  0  0  0
  9 14  1  0  0  0  0
  9  8  2  0  0  0  0
 10  9  1  0  0  0  0
 11 10  2  0  0  0  0
 11 12  1  0  0  0  0
 12 13  2  0  0  0  0
 13  8  1  0  0  0  0
 15 12  1  0  0  0  0
 16 19  1  0  0  0  0
 16 17  1  0  0  0  0
 16 18  1  0  0  0  0
 20  3  1  0  0  0  0
 21 20  2  0  0  0  0
 21 25  1  0  0  0  0
 22 21  1  0  0  0  0
 23 22  2  0  0  0  0
 23 24  1  0  0  0  0
 24 20  1  0  0  0  0
 26 22  1  0  0  0  0
 27 23  1  0  0  0  0
 28 27  2  0  0  0  0
 29 28  1  0  0  0  0
 30 32  2  0  0  0  0
 30 28  1  0  0  0  0
 31 30  1  0  0  0  0
 32 34  1  0  0  0  0
 33 32  1  0  0  0  0
 34 27  1  0  0  0  0
M  END
>  <minimizedAffinity>
-5.05071497

>  <minimizedRMSD>
2.64553785

$$$$
