
 OpenBabel03242516433D

 43 45  0  0  1  0  0  0  0  0999 V2000
   49.6720   31.0970   42.8850 O   0  0  0  0  0  0  0  0  0  0  0  0
   48.8130   32.1830   42.2650 P   0  0  2  0  0  0  0  0  0  0  0  0
   49.5560   33.6790   42.2780 O   0  0  0  0  0  0  0  0  0  0  0  0
   50.5160   33.5820   42.5320 H   0  0  0  0  0  0  0  0  0  0  0  0
   47.3540   32.2730   43.0990 O   0  0  0  0  0  0  0  0  0  0  0  0
   47.4360   33.1560   44.1640 C   0  0  0  0  0  0  0  0  0  0  0  0
   47.5770   34.2120   43.8580 H   0  0  0  0  0  0  0  0  0  0  0  0
   48.3570   32.9040   44.7650 H   0  0  0  0  0  0  0  0  0  0  0  0
   46.2270   33.0550   45.0330 C   0  0  0  0  0  0  0  0  0  0  0  0
   45.3670   32.6400   44.4640 H   0  0  0  0  0  0  0  0  0  0  0  0
   45.9200   34.0420   45.4330 H   0  0  0  0  0  0  0  0  0  0  0  0
   46.0730   31.6140   48.4990 C   0  0  0  0  0  0  0  0  0  0  0  0
   45.7690   32.3910   47.3730 C   0  0  0  0  0  0  0  0  0  0  0  0
   46.5520   32.2240   46.2350 C   0  0  0  0  0  0  0  0  0  0  0  0
   47.5680   31.3280   46.2550 N   0  0  0  0  0  0  0  0  0  0  0  0
   47.8220   30.5990   47.3690 C   0  0  0  0  0  0  0  0  0  0  0  0
   47.0990   30.7260   48.4800 N   0  0  0  0  0  0  0  0  0  0  0  0
   45.3110   31.7410   49.6880 N   0  0  0  0  0  0  0  0  0  0  0  0
   44.9490   33.0710   47.4530 H   0  0  0  0  0  0  0  0  0  0  0  0
   48.6490   29.9010   47.3180 H   0  0  0  0  0  0  0  0  0  0  0  0
   45.7240   32.3210   50.4600 H   0  0  0  0  0  0  0  0  0  0  0  0
   44.3940   31.3520   49.9340 H   0  0  0  0  0  0  0  0  0  0  0  0
   48.5020   31.7790   40.6300 O   0  0  0  0  0  0  0  0  0  0  0  0
   47.0590   32.9210   39.1670 C   0  0  1  0  0  0  0  0  0  0  0  0
   48.4000   32.8950   39.8460 C   0  0  2  0  0  0  0  0  0  0  0  0
   49.2840   32.6040   38.6120 C   0  0  0  0  0  0  0  0  0  0  0  0
   48.5880   31.7060   37.8570 O   0  0  0  0  0  0  0  0  0  0  0  0
   47.2460   31.8520   38.1150 C   0  0  0  0  0  0  0  0  0  0  0  0
   46.9270   33.9090   38.7050 H   0  0  0  0  0  0  0  0  0  0  0  0
   48.7050   33.8470   40.3120 H   0  0  0  0  0  0  0  0  0  0  0  0
   50.2630   32.2230   38.9640 H   0  0  0  0  0  0  0  0  0  0  0  0
   49.4430   33.5790   38.1150 H   0  0  0  0  0  0  0  0  0  0  0  0
   46.6680   32.1500   37.2090 H   0  0  0  0  0  0  0  0  0  0  0  0
   46.8680   30.8570   38.4410 H   0  0  0  0  0  0  0  0  0  0  0  0
   46.0180   32.6610   40.0330 O   0  0  0  0  0  0  0  0  0  0  0  0
   45.3800   33.5550   40.8690 C   0  0  0  0  0  0  0  0  0  0  0  0
   44.1500   33.1150   41.3810 C   0  0  0  0  0  0  0  0  0  0  0  0
   43.4990   32.2320   41.3230 H   0  0  0  0  0  0  0  0  0  0  0  0
   43.6750   34.1510   42.1920 C   0  0  0  0  0  0  0  0  0  0  0  0
   42.8220   34.3860   42.8210 H   0  0  0  0  0  0  0  0  0  0  0  0
   44.6300   35.1430   42.1240 C   0  0  0  0  0  0  0  0  0  0  0  0
   44.8480   36.1530   42.5050 H   0  0  0  0  0  0  0  0  0  0  0  0
   45.5990   34.7500   41.3450 O   0  0  0  0  0  0  0  0  0  0  0  0
  2  3  1  0  0  0  0
  2  1  2  1  0  0  0
  2  5  1  0  0  0  0
  3  4  1  0  0  0  0
  5  6  1  0  0  0  0
  6  8  1  0  0  0  0
  6  9  1  0  0  0  0
  7  6  1  0  0  0  0
  9 11  1  0  0  0  0
  9 14  1  0  0  0  0
 10  9  1  0  0  0  0
 12 18  1  0  0  0  0
 13 19  1  0  0  0  0
 13 12  2  0  0  0  0
 14 15  2  0  0  0  0
 14 13  1  0  0  0  0
 15 16  1  0  0  0  0
 16 17  2  0  0  0  0
 17 12  1  0  0  0  0
 18 22  1  0  0  0  0
 18 21  1  0  0  0  0
 20 16  1  0  0  0  0
 23  2  1  0  0  0  0
 24 29  1  6  0  0  0
 24 25  1  0  0  0  0
 24 35  1  0  0  0  0
 25 30  1  1  0  0  0
 25 23  1  0  0  0  0
 26 31  1  0  0  0  0
 26 25  1  0  0  0  0
 27 28  1  0  0  0  0
 27 26  1  0  0  0  0
 28 34  1  0  0  0  0
 28 24  1  0  0  0  0
 32 26  1  0  0  0  0
 33 28  1  0  0  0  0
 35 36  1  0  0  0  0
 36 43  1  0  0  0  0
 36 37  2  0  0  0  0
 37 39  1  0  0  0  0
 38 37  1  0  0  0  0
 39 40  1  0  0  0  0
 41 39  2  0  0  0  0
 41 42  1  0  0  0  0
 43 41  1  0  0  0  0
M  END
>  <minimizedAffinity>
-3.99086475

>  <minimizedRMSD>
5.65006876

$$$$
