
 OpenBabel03242522593D

 30 32  0  0  0  0  0  0  0  0999 V2000
   44.7570   34.1820   46.8200 C   0  0  0  0  0  0  0  0  0  0  0  0
   45.1100   34.5050   45.5040 C   0  0  0  0  0  0  0  0  0  0  0  0
   45.9270   33.6720   44.7530 C   0  0  0  0  0  0  0  0  0  0  0  0
   46.3600   32.5330   45.3720 N   0  0  0  0  0  0  0  0  0  0  0  0
   46.0140   32.2310   46.6410 C   0  0  0  0  0  0  0  0  0  0  0  0
   45.2210   33.0460   47.3620 N   0  0  0  0  0  0  0  0  0  0  0  0
   44.1180   34.8510   47.3840 H   0  0  0  0  0  0  0  0  0  0  0  0
   44.7490   35.4100   45.0490 H   0  0  0  0  0  0  0  0  0  0  0  0
   44.0800   32.6310   42.6610 Cl  0  0  0  0  0  0  0  0  0  0  0  0
   45.5400   33.5290   42.3710 C   0  0  0  0  0  0  0  0  0  0  0  0
   46.3220   33.9660   43.3750 C   0  0  0  0  0  0  0  0  0  0  0  0
   47.4640   34.6730   43.0360 C   0  0  0  0  0  0  0  0  0  0  0  0
   47.7990   34.9270   41.7480 C   0  0  0  0  0  0  0  0  0  0  0  0
   47.0050   34.4840   40.7180 C   0  0  0  0  0  0  0  0  0  0  0  0
   45.8790   33.7860   41.0480 C   0  0  0  0  0  0  0  0  0  0  0  0
   48.0950   35.0250   43.8520 H   0  0  0  0  0  0  0  0  0  0  0  0
   47.2390   34.6660   39.6770 H   0  0  0  0  0  0  0  0  0  0  0  0
   45.2480   33.4340   40.2340 H   0  0  0  0  0  0  0  0  0  0  0  0
   49.0300   35.6890   41.3830 C   0  0  0  0  0  0  0  0  0  0  0  0
   50.1200   34.9460   41.7380 F   0  0  0  0  0  0  0  0  0  0  0  0
   49.0290   36.9480   41.9560 F   0  0  0  0  0  0  0  0  0  0  0  0
   49.0200   35.8700   39.9990 F   0  0  0  0  0  0  0  0  0  0  0  0
   46.5940   30.9700   47.0870 C   0  0  0  0  0  0  0  0  0  0  0  0
   47.7940   31.0670   47.7970 C   0  0  0  0  0  0  0  0  0  0  0  0
   48.4190   31.9090   48.1060 H   0  0  0  0  0  0  0  0  0  0  0  0
   48.1760   29.7710   48.1260 C   0  0  0  0  0  0  0  0  0  0  0  0
   49.0560   29.4090   48.6810 H   0  0  0  0  0  0  0  0  0  0  0  0
   47.1780   28.9620   47.5920 C   0  0  0  0  0  0  0  0  0  0  0  0
   47.1690   27.8840   47.6700 H   0  0  0  0  0  0  0  0  0  0  0  0
   46.2770   29.6900   46.9970 O   0  0  0  0  0  0  0  0  0  0  0  0
  1  6  1  0  0  0  0
  1  7  1  0  0  0  0
  2  1  2  0  0  0  0
  3  4  2  0  0  0  0
  3  2  1  0  0  0  0
  4  5  1  0  0  0  0
  5 23  1  0  0  0  0
  5  6  2  0  0  0  0
  8  2  1  0  0  0  0
 10  9  1  0  0  0  0
 10 11  1  0  0  0  0
 11  3  1  0  0  0  0
 12 11  2  0  0  0  0
 12 16  1  0  0  0  0
 13 12  1  0  0  0  0
 14 15  1  0  0  0  0
 14 13  2  0  0  0  0
 15 10  2  0  0  0  0
 17 14  1  0  0  0  0
 18 15  1  0  0  0  0
 19 20  1  0  0  0  0
 19 13  1  0  0  0  0
 19 21  1  0  0  0  0
 22 19  1  0  0  0  0
 23 24  2  0  0  0  0
 24 25  1  0  0  0  0
 24 26  1  0  0  0  0
 26 27  1  0  0  0  0
 28 29  1  0  0  0  0
 28 26  2  0  0  0  0
 30 23  1  0  0  0  0
 30 28  1  0  0  0  0
M  END
>  <minimizedAffinity>
-5.79162645

>  <minimizedRMSD>
0.0575163923

$$$$
