
 OpenBabel03252508503D

 27 29  0  0  0  0  0  0  0  0999 V2000
   45.9830   34.1840   41.0440 C   0  0  0  0  0  0  0  0  0  0  0  0
   46.5540   34.8130   42.1420 C   0  0  0  0  0  0  0  0  0  0  0  0
   47.9010   35.1950   42.0170 C   0  0  0  0  0  0  0  0  0  0  0  0
   48.5430   34.9260   40.8510 N   0  0  0  0  0  0  0  0  0  0  0  0
   47.9530   34.3210   39.8270 C   0  0  0  0  0  0  0  0  0  0  0  0
   46.6660   33.9440   39.9160 N   0  0  0  0  0  0  0  0  0  0  0  0
   48.3680   35.6810   42.8460 H   0  0  0  0  0  0  0  0  0  0  0  0
   48.4300   34.0890   38.8780 H   0  0  0  0  0  0  0  0  0  0  0  0
   45.7690   35.0480   43.3380 C   0  0  0  0  0  0  0  0  0  0  0  0
   45.0660   36.2120   43.5650 C   0  0  0  0  0  0  0  0  0  0  0  0
   44.4810   36.0120   44.7930 C   0  0  0  0  0  0  0  0  0  0  0  0
   44.8050   34.8000   45.2880 N   0  0  0  0  0  0  0  0  0  0  0  0
   45.5840   34.2390   44.3890 N   0  0  0  0  0  0  0  0  0  0  0  0
   44.9440   37.1140   42.9810 H   0  0  0  0  0  0  0  0  0  0  0  0
   43.8280   36.6570   45.3900 H   0  0  0  0  0  0  0  0  0  0  0  0
   44.5860   34.2680   46.1570 H   0  0  0  0  0  0  0  0  0  0  0  0
   44.6590   33.7940   41.1300 O   0  0  0  0  0  0  0  0  0  0  0  0
   43.5740   34.4050   40.5710 C   0  0  0  0  0  0  0  0  0  0  0  0
   43.2890   35.6580   40.6100 O   0  0  0  0  0  0  0  0  0  0  0  0
   42.5210   33.6690   39.8060 C   0  0  0  0  0  0  0  0  0  0  0  0
   41.8950   34.0530   38.6150 C   0  0  0  0  0  0  0  0  0  0  0  0
   42.1560   35.0020   38.1190 H   0  0  0  0  0  0  0  0  0  0  0  0
   40.9710   33.1180   38.2040 C   0  0  0  0  0  0  0  0  0  0  0  0
   40.3520   33.1690   37.3200 H   0  0  0  0  0  0  0  0  0  0  0  0
   41.0740   32.1670   39.1960 C   0  0  0  0  0  0  0  0  0  0  0  0
   40.4840   31.2390   39.2280 H   0  0  0  0  0  0  0  0  0  0  0  0
   41.9520   32.5200   40.0650 O   0  0  0  0  0  0  0  0  0  0  0  0
  1 17  1  0  0  0  0
  1  2  1  0  0  0  0
  2  9  1  0  0  0  0
  3  2  2  0  0  0  0
  3  7  1  0  0  0  0
  4  3  1  0  0  0  0
  5  6  1  0  0  0  0
  5  4  2  0  0  0  0
  6  1  2  0  0  0  0
  8  5  1  0  0  0  0
  9 10  1  0  0  0  0
  9 13  2  0  0  0  0
 10 11  2  0  0  0  0
 11 12  1  0  0  0  0
 11 15  1  0  0  0  0
 12 16  1  0  0  0  0
 13 12  1  0  0  0  0
 14 10  1  0  0  0  0
 18 19  2  0  0  0  0
 18 17  1  0  0  0  0
 20 27  1  0  0  0  0
 20 18  1  0  0  0  0
 21 20  2  0  0  0  0
 22 21  1  0  0  0  0
 23 21  1  0  0  0  0
 23 25  2  0  0  0  0
 24 23  1  0  0  0  0
 25 26  1  0  0  0  0
 25 27  1  0  0  0  0
M  END
>  <minimizedAffinity>
-5.05740976

>  <minimizedRMSD>
0.383068979

$$$$
