
 OpenBabel03252501153D

 27 29  0  0  1  0  0  0  0  0999 V2000
   38.2890   28.5980   42.7100 C   0  0  1  0  0  0  0  0  0  0  0  0
   37.1260   27.9020   43.3400 C   0  0  0  0  0  0  0  0  0  0  0  0
   37.9500   27.2730   42.1680 C   0  0  2  0  0  0  0  0  0  0  0  0
   39.2010   28.6930   43.3190 H   0  0  0  0  0  0  0  0  0  0  0  0
   37.2090   27.4100   44.3240 H   0  0  0  0  0  0  0  0  0  0  0  0
   36.0880   28.1420   43.0410 H   0  0  0  0  0  0  0  0  0  0  0  0
   37.4830   27.2690   41.1740 H   0  0  0  0  0  0  0  0  0  0  0  0
   38.3680   31.9060   40.9170 C   0  0  0  0  0  0  0  0  0  0  0  0
   38.8400   30.8170   41.6490 C   0  0  0  0  0  0  0  0  0  0  0  0
   37.9120   29.8210   41.9270 C   0  0  0  0  0  0  0  0  0  0  0  0
   36.6250   29.9410   41.4920 N   0  0  0  0  0  0  0  0  0  0  0  0
   36.2170   31.0290   40.7780 C   0  0  0  0  0  0  0  0  0  0  0  0
   37.0990   32.0080   40.4960 N   0  0  0  0  0  0  0  0  0  0  0  0
   39.8560   30.7260   41.9920 H   0  0  0  0  0  0  0  0  0  0  0  0
   35.1740   31.0770   40.4520 H   0  0  0  0  0  0  0  0  0  0  0  0
   39.3330   32.9920   40.5850 C   0  0  0  0  0  0  0  0  0  0  0  0
   38.8570   34.1610   41.1610 F   0  0  0  0  0  0  0  0  0  0  0  0
   39.3400   33.1620   39.2260 F   0  0  0  0  0  0  0  0  0  0  0  0
   40.5740   32.7330   41.1110 F   0  0  0  0  0  0  0  0  0  0  0  0
   38.8230   26.1480   42.5920 C   0  0  0  0  0  0  0  0  0  0  0  0
   38.5450   24.8000   42.4990 C   0  0  0  0  0  0  0  0  0  0  0  0
   37.6560   24.3350   42.1080 H   0  0  0  0  0  0  0  0  0  0  0  0
   39.6830   24.2200   43.0290 C   0  0  0  0  0  0  0  0  0  0  0  0
   39.8340   23.1420   43.1240 H   0  0  0  0  0  0  0  0  0  0  0  0
   40.5960   25.2050   43.4180 C   0  0  0  0  0  0  0  0  0  0  0  0
   41.5760   25.0640   43.8660 H   0  0  0  0  0  0  0  0  0  0  0  0
   40.0020   26.3370   43.1210 O   0  0  0  0  0  0  0  0  0  0  0  0
  1  4  1  1  0  0  0
  1  2  1  0  0  0  0
  2  5  1  0  0  0  0
  3  7  1  6  0  0  0
  3 20  1  0  0  0  0
  3  1  1  0  0  0  0
  3  2  1  0  0  0  0
  6  2  1  0  0  0  0
  8  9  1  0  0  0  0
  9 10  2  0  0  0  0
  9 14  1  0  0  0  0
 10  1  1  0  0  0  0
 11 10  1  0  0  0  0
 12 11  2  0  0  0  0
 13 12  1  0  0  0  0
 13  8  2  0  0  0  0
 15 12  1  0  0  0  0
 16  8  1  0  0  0  0
 16 19  1  0  0  0  0
 16 17  1  0  0  0  0
 18 16  1  0  0  0  0
 20 27  1  0  0  0  0
 21 20  2  0  0  0  0
 21 23  1  0  0  0  0
 22 21  1  0  0  0  0
 23 24  1  0  0  0  0
 23 25  2  0  0  0  0
 25 26  1  0  0  0  0
 27 25  1  0  0  0  0
M  END
>  <minimizedAffinity>
-5.04051924

$$$$

 OpenBabel03252501153D

 27 29  0  0  1  0  0  0  0  0999 V2000
   38.5570   29.7600   42.3680 C   0  0  1  0  0  0  0  0  0  0  0  0
   39.7010   30.6220   42.7980 C   0  0  0  0  0  0  0  0  0  0  0  0
   39.3050   30.4360   41.2950 C   0  0  2  0  0  0  0  0  0  0  0  0
   37.5460   30.1230   42.6060 H   0  0  0  0  0  0  0  0  0  0  0  0
   39.5410   31.6220   43.2330 H   0  0  0  0  0  0  0  0  0  0  0  0
   40.6910   30.1820   43.0270 H   0  0  0  0  0  0  0  0  0  0  0  0
   39.9500   29.7920   40.6840 H   0  0  0  0  0  0  0  0  0  0  0  0
   38.2320   26.0120   42.3580 C   0  0  0  0  0  0  0  0  0  0  0  0
   37.9200   27.3400   42.0730 C   0  0  0  0  0  0  0  0  0  0  0  0
   38.7830   28.2950   42.5970 C   0  0  0  0  0  0  0  0  0  0  0  0
   39.8580   27.9130   43.3420 N   0  0  0  0  0  0  0  0  0  0  0  0
   40.1170   26.5970   43.5900 C   0  0  0  0  0  0  0  0  0  0  0  0
   39.2950   25.6530   43.0920 N   0  0  0  0  0  0  0  0  0  0  0  0
   37.0690   27.6380   41.4850 H   0  0  0  0  0  0  0  0  0  0  0  0
   40.9940   26.3440   44.1940 H   0  0  0  0  0  0  0  0  0  0  0  0
   37.3420   24.9520   41.8040 C   0  0  0  0  0  0  0  0  0  0  0  0
   36.3090   24.7630   42.7110 F   0  0  0  0  0  0  0  0  0  0  0  0
   38.0560   23.7870   41.7250 F   0  0  0  0  0  0  0  0  0  0  0  0
   36.7920   25.3420   40.6070 F   0  0  0  0  0  0  0  0  0  0  0  0
   38.6580   31.6330   40.6990 C   0  0  0  0  0  0  0  0  0  0  0  0
   37.3440   31.7540   40.2960 C   0  0  0  0  0  0  0  0  0  0  0  0
   36.5680   31.0090   40.3440 H   0  0  0  0  0  0  0  0  0  0  0  0
   37.2910   33.0540   39.8280 C   0  0  0  0  0  0  0  0  0  0  0  0
   36.3910   33.5210   39.4180 H   0  0  0  0  0  0  0  0  0  0  0  0
   38.5390   33.6710   39.9560 C   0  0  0  0  0  0  0  0  0  0  0  0
   38.8110   34.6850   39.6760 H   0  0  0  0  0  0  0  0  0  0  0  0
   39.3060   32.7480   40.4880 O   0  0  0  0  0  0  0  0  0  0  0  0
  1 10  1  0  0  0  0
  1  4  1  1  0  0  0
  1  2  1  0  0  0  0
  2  6  1  0  0  0  0
  2  5  1  0  0  0  0
  3  7  1  6  0  0  0
  3  1  1  0  0  0  0
  3  2  1  0  0  0  0
  8 13  1  0  0  0  0
  9  8  2  0  0  0  0
  9 10  1  0  0  0  0
 10 11  2  0  0  0  0
 11 12  1  0  0  0  0
 12 15  1  0  0  0  0
 13 12  2  0  0  0  0
 14  9  1  0  0  0  0
 16  8  1  0  0  0  0
 16 17  1  0  0  0  0
 18 16  1  0  0  0  0
 19 16  1  0  0  0  0
 20  3  1  0  0  0  0
 21 22  1  0  0  0  0
 21 20  2  0  0  0  0
 23 25  2  0  0  0  0
 23 21  1  0  0  0  0
 24 23  1  0  0  0  0
 25 27  1  0  0  0  0
 26 25  1  0  0  0  0
 27 20  1  0  0  0  0
M  END
>  <minimizedAffinity>
-4.98055935

$$$$

 OpenBabel03252501153D

 27 29  0  0  1  0  0  0  0  0999 V2000
   35.1660   29.0830   38.2400 C   0  0  1  0  0  0  0  0  0  0  0  0
   34.8140   27.6600   37.9450 C   0  0  0  0  0  0  0  0  0  0  0  0
   33.7310   28.7670   38.1750 C   0  0  2  0  0  0  0  0  0  0  0  0
   35.6090   29.6660   37.4170 H   0  0  0  0  0  0  0  0  0  0  0  0
   34.8880   27.2450   36.9260 H   0  0  0  0  0  0  0  0  0  0  0  0
   34.8080   26.8970   38.7460 H   0  0  0  0  0  0  0  0  0  0  0  0
   33.2010   28.7550   39.1360 H   0  0  0  0  0  0  0  0  0  0  0  0
   36.5910   28.5340   41.6790 C   0  0  0  0  0  0  0  0  0  0  0  0
   35.9900   28.2220   40.4610 C   0  0  0  0  0  0  0  0  0  0  0  0
   35.8060   29.2830   39.5820 C   0  0  0  0  0  0  0  0  0  0  0  0
   36.2030   30.5400   39.9310 N   0  0  0  0  0  0  0  0  0  0  0  0
   36.7870   30.7890   41.1380 C   0  0  0  0  0  0  0  0  0  0  0  0
   36.9760   29.7760   42.0060 N   0  0  0  0  0  0  0  0  0  0  0  0
   35.6770   27.2290   40.1880 H   0  0  0  0  0  0  0  0  0  0  0  0
   37.0880   31.8150   41.3690 H   0  0  0  0  0  0  0  0  0  0  0  0
   36.8210   27.4240   42.6460 C   0  0  0  0  0  0  0  0  0  0  0  0
   38.0770   27.6130   43.2040 F   0  0  0  0  0  0  0  0  0  0  0  0
   36.8390   26.2430   41.9520 F   0  0  0  0  0  0  0  0  0  0  0  0
   35.8960   27.4500   43.6610 F   0  0  0  0  0  0  0  0  0  0  0  0
   33.0250   29.1750   36.9330 C   0  0  0  0  0  0  0  0  0  0  0  0
   33.5700   29.3080   35.6720 C   0  0  0  0  0  0  0  0  0  0  0  0
   34.5910   29.1400   35.3740 H   0  0  0  0  0  0  0  0  0  0  0  0
   32.4830   29.7030   34.9140 C   0  0  0  0  0  0  0  0  0  0  0  0
   32.5270   29.9090   33.8410 H   0  0  0  0  0  0  0  0  0  0  0  0
   31.3390   29.7970   35.7130 C   0  0  0  0  0  0  0  0  0  0  0  0
   30.3360   30.0830   35.4060 H   0  0  0  0  0  0  0  0  0  0  0  0
   31.7510   29.4630   36.9140 O   0  0  0  0  0  0  0  0  0  0  0  0
  1  4  1  6  0  0  0
  1 10  1  0  0  0  0
  2  3  1  0  0  0  0
  2  1  1  0  0  0  0
  2  6  1  0  0  0  0
  3  1  1  0  0  0  0
  3  7  1  1  0  0  0
  5  2  1  0  0  0  0
  8 13  1  0  0  0  0
  8 16  1  0  0  0  0
  9  8  2  0  0  0  0
 10 11  2  0  0  0  0
 10  9  1  0  0  0  0
 11 12  1  0  0  0  0
 12 15  1  0  0  0  0
 12 13  2  0  0  0  0
 14  9  1  0  0  0  0
 16 17  1  0  0  0  0
 16 19  1  0  0  0  0
 18 16  1  0  0  0  0
 20  3  1  0  0  0  0
 21 20  2  0  0  0  0
 22 21  1  0  0  0  0
 23 21  1  0  0  0  0
 23 25  2  0  0  0  0
 24 23  1  0  0  0  0
 25 27  1  0  0  0  0
 26 25  1  0  0  0  0
 27 20  1  0  0  0  0
M  END
>  <minimizedAffinity>
-4.85075474

$$$$

 OpenBabel03252501153D

 27 29  0  0  1  0  0  0  0  0999 V2000
   38.8150   28.5860   42.5140 C   0  0  1  0  0  0  0  0  0  0  0  0
   37.6040   28.4740   43.3830 C   0  0  0  0  0  0  0  0  0  0  0  0
   37.7330   27.7220   42.0170 C   0  0  2  0  0  0  0  0  0  0  0  0
   39.7360   28.1090   42.8820 H   0  0  0  0  0  0  0  0  0  0  0  0
   37.6000   27.8520   44.2930 H   0  0  0  0  0  0  0  0  0  0  0  0
   36.8130   29.2480   43.3600 H   0  0  0  0  0  0  0  0  0  0  0  0
   37.1560   28.1170   41.1710 H   0  0  0  0  0  0  0  0  0  0  0  0
   38.3640   31.7260   40.4900 C   0  0  0  0  0  0  0  0  0  0  0  0
   38.0820   30.4570   40.9910 C   0  0  0  0  0  0  0  0  0  0  0  0
   38.9990   29.9440   41.9020 C   0  0  0  0  0  0  0  0  0  0  0  0
   40.0950   30.6720   42.2560 N   0  0  0  0  0  0  0  0  0  0  0  0
   40.3220   31.9120   41.7330 C   0  0  0  0  0  0  0  0  0  0  0  0
   39.4470   32.4290   40.8490 N   0  0  0  0  0  0  0  0  0  0  0  0
   37.2160   29.8840   40.7090 H   0  0  0  0  0  0  0  0  0  0  0  0
   41.2170   32.4540   42.0500 H   0  0  0  0  0  0  0  0  0  0  0  0
   37.4010   32.3210   39.5200 C   0  0  0  0  0  0  0  0  0  0  0  0
   36.2330   31.5740   39.5830 F   0  0  0  0  0  0  0  0  0  0  0  0
   37.9210   32.1900   38.2600 F   0  0  0  0  0  0  0  0  0  0  0  0
   37.0950   33.6170   39.8560 F   0  0  0  0  0  0  0  0  0  0  0  0
   37.9440   26.2580   42.1620 C   0  0  0  0  0  0  0  0  0  0  0  0
   37.0190   25.2590   41.9410 C   0  0  0  0  0  0  0  0  0  0  0  0
   35.9950   25.3660   41.6280 H   0  0  0  0  0  0  0  0  0  0  0  0
   37.7410   24.1130   42.2210 C   0  0  0  0  0  0  0  0  0  0  0  0
   37.3320   23.1010   42.1550 H   0  0  0  0  0  0  0  0  0  0  0  0
   39.0480   24.4380   42.5940 C   0  0  0  0  0  0  0  0  0  0  0  0
   39.8490   23.7580   42.8730 H   0  0  0  0  0  0  0  0  0  0  0  0
   39.0880   25.7490   42.5340 O   0  0  0  0  0  0  0  0  0  0  0  0
  1  4  1  1  0  0  0
  1  2  1  0  0  0  0
  2  5  1  0  0  0  0
  3  7  1  6  0  0  0
  3 20  1  0  0  0  0
  3  1  1  0  0  0  0
  3  2  1  0  0  0  0
  6  2  1  0  0  0  0
  8 13  2  0  0  0  0
  8  9  1  0  0  0  0
  9 10  2  0  0  0  0
 10 11  1  0  0  0  0
 10  1  1  0  0  0  0
 12 15  1  0  0  0  0
 12 11  2  0  0  0  0
 13 12  1  0  0  0  0
 14  9  1  0  0  0  0
 16 17  1  0  0  0  0
 16 19  1  0  0  0  0
 16  8  1  0  0  0  0
 18 16  1  0  0  0  0
 20 27  1  0  0  0  0
 21 20  2  0  0  0  0
 21 23  1  0  0  0  0
 22 21  1  0  0  0  0
 23 25  2  0  0  0  0
 24 23  1  0  0  0  0
 25 26  1  0  0  0  0
 27 25  1  0  0  0  0
M  END
>  <minimizedAffinity>
-4.79234791

$$$$

 OpenBabel03252501153D

 27 29  0  0  1  0  0  0  0  0999 V2000
   37.2440   28.5870   41.7260 C   0  0  1  0  0  0  0  0  0  0  0  0
   35.9680   28.5770   40.9470 C   0  0  0  0  0  0  0  0  0  0  0  0
   37.1870   27.6670   40.5780 C   0  0  2  0  0  0  0  0  0  0  0  0
   37.2110   28.1570   42.7380 H   0  0  0  0  0  0  0  0  0  0  0  0
   35.0650   28.0660   41.3220 H   0  0  0  0  0  0  0  0  0  0  0  0
   35.7660   29.3410   40.1730 H   0  0  0  0  0  0  0  0  0  0  0  0
   37.7810   27.9600   39.7020 H   0  0  0  0  0  0  0  0  0  0  0  0
   38.4990   31.9530   40.6080 C   0  0  0  0  0  0  0  0  0  0  0  0
   37.7010   30.8120   40.6330 C   0  0  0  0  0  0  0  0  0  0  0  0
   38.0230   29.8630   41.5960 C   0  0  0  0  0  0  0  0  0  0  0  0
   39.0680   30.0750   42.4450 N   0  0  0  0  0  0  0  0  0  0  0  0
   39.8170   31.2120   42.3770 C   0  0  0  0  0  0  0  0  0  0  0  0
   39.5230   32.1460   41.4520 N   0  0  0  0  0  0  0  0  0  0  0  0
   36.8770   30.6470   39.9600 H   0  0  0  0  0  0  0  0  0  0  0  0
   40.6440   31.3330   43.0830 H   0  0  0  0  0  0  0  0  0  0  0  0
   38.1810   33.0050   39.6010 C   0  0  0  0  0  0  0  0  0  0  0  0
   38.1080   32.3840   38.3620 F   0  0  0  0  0  0  0  0  0  0  0  0
   39.2190   33.8970   39.5670 F   0  0  0  0  0  0  0  0  0  0  0  0
   36.9640   33.5870   39.8580 F   0  0  0  0  0  0  0  0  0  0  0  0
   36.9770   26.2320   40.8970 C   0  0  0  0  0  0  0  0  0  0  0  0
   37.2250   25.6030   42.1000 C   0  0  0  0  0  0  0  0  0  0  0  0
   37.6100   26.0400   43.0050 H   0  0  0  0  0  0  0  0  0  0  0  0
   36.8560   24.2960   41.8390 C   0  0  0  0  0  0  0  0  0  0  0  0
   36.9130   23.4860   42.5700 H   0  0  0  0  0  0  0  0  0  0  0  0
   36.4060   24.1700   40.5210 C   0  0  0  0  0  0  0  0  0  0  0  0
   36.0510   23.2720   40.0230 H   0  0  0  0  0  0  0  0  0  0  0  0
   36.5110   25.3810   40.0230 O   0  0  0  0  0  0  0  0  0  0  0  0
  1  4  1  1  0  0  0
  2  5  1  0  0  0  0
  2  1  1  0  0  0  0
  3  7  1  6  0  0  0
  3 20  1  0  0  0  0
  3  2  1  0  0  0  0
  3  1  1  0  0  0  0
  6  2  1  0  0  0  0
  8  9  2  0  0  0  0
  8 13  1  0  0  0  0
  9 10  1  0  0  0  0
 10  1  1  0  0  0  0
 10 11  2  0  0  0  0
 12 11  1  0  0  0  0
 12 15  1  0  0  0  0
 13 12  2  0  0  0  0
 14  9  1  0  0  0  0
 16 19  1  0  0  0  0
 16  8  1  0  0  0  0
 17 16  1  0  0  0  0
 18 16  1  0  0  0  0
 20 21  2  0  0  0  0
 21 22  1  0  0  0  0
 23 21  1  0  0  0  0
 23 24  1  0  0  0  0
 25 23  2  0  0  0  0
 26 25  1  0  0  0  0
 27 25  1  0  0  0  0
 27 20  1  0  0  0  0
M  END
>  <minimizedAffinity>
-4.78838348

$$$$

 OpenBabel03252501153D

 27 29  0  0  1  0  0  0  0  0999 V2000
   35.5960   29.3120   39.7650 C   0  0  1  0  0  0  0  0  0  0  0  0
   36.3620   30.2670   38.9060 C   0  0  0  0  0  0  0  0  0  0  0  0
   35.8640   28.8780   38.3850 C   0  0  2  0  0  0  0  0  0  0  0  0
   34.5670   29.5980   40.0300 H   0  0  0  0  0  0  0  0  0  0  0  0
   35.8860   31.1600   38.4680 H   0  0  0  0  0  0  0  0  0  0  0  0
   37.4660   30.3220   38.9600 H   0  0  0  0  0  0  0  0  0  0  0  0
   36.6170   28.0870   38.2700 H   0  0  0  0  0  0  0  0  0  0  0  0
   37.3910   26.9210   42.0490 C   0  0  0  0  0  0  0  0  0  0  0  0
   36.6290   27.3510   40.9650 C   0  0  0  0  0  0  0  0  0  0  0  0
   36.4040   28.7200   40.8820 C   0  0  0  0  0  0  0  0  0  0  0  0
   36.9160   29.5580   41.8270 N   0  0  0  0  0  0  0  0  0  0  0  0
   37.6560   29.0830   42.8700 C   0  0  0  0  0  0  0  0  0  0  0  0
   37.8880   27.7590   42.9710 N   0  0  0  0  0  0  0  0  0  0  0  0
   36.2260   26.6860   40.2200 H   0  0  0  0  0  0  0  0  0  0  0  0
   38.0440   29.7970   43.6010 H   0  0  0  0  0  0  0  0  0  0  0  0
   37.6700   25.4620   42.1710 C   0  0  0  0  0  0  0  0  0  0  0  0
   37.9780   24.9910   40.9030 F   0  0  0  0  0  0  0  0  0  0  0  0
   36.5240   24.8380   42.5870 F   0  0  0  0  0  0  0  0  0  0  0  0
   38.7490   25.2280   42.9860 F   0  0  0  0  0  0  0  0  0  0  0  0
   34.7250   28.9730   37.4350 C   0  0  0  0  0  0  0  0  0  0  0  0
   33.3810   28.9410   37.7430 C   0  0  0  0  0  0  0  0  0  0  0  0
   32.9290   28.8430   38.7160 H   0  0  0  0  0  0  0  0  0  0  0  0
   32.7840   29.0660   36.5020 C   0  0  0  0  0  0  0  0  0  0  0  0
   31.7020   29.0820   36.3420 H   0  0  0  0  0  0  0  0  0  0  0  0
   33.7550   29.1680   35.5020 C   0  0  0  0  0  0  0  0  0  0  0  0
   33.5980   29.2750   34.4320 H   0  0  0  0  0  0  0  0  0  0  0  0
   34.8960   29.1020   36.1470 O   0  0  0  0  0  0  0  0  0  0  0  0
  1  4  1  1  0  0  0
  1 10  1  0  0  0  0
  2  6  1  0  0  0  0
  2  1  1  0  0  0  0
  3  7  1  6  0  0  0
  3  2  1  0  0  0  0
  3  1  1  0  0  0  0
  5  2  1  0  0  0  0
  8 16  1  0  0  0  0
  8 13  1  0  0  0  0
  9  8  2  0  0  0  0
 10  9  1  0  0  0  0
 10 11  2  0  0  0  0
 11 12  1  0  0  0  0
 12 13  2  0  0  0  0
 12 15  1  0  0  0  0
 14  9  1  0  0  0  0
 16 18  1  0  0  0  0
 16 19  1  0  0  0  0
 17 16  1  0  0  0  0
 20 21  2  0  0  0  0
 20  3  1  0  0  0  0
 21 22  1  0  0  0  0
 23 21  1  0  0  0  0
 24 23  1  0  0  0  0
 25 27  1  0  0  0  0
 25 23  2  0  0  0  0
 26 25  1  0  0  0  0
 27 20  1  0  0  0  0
M  END
>  <minimizedAffinity>
-4.72414589

$$$$

 OpenBabel03252501153D

 27 29  0  0  1  0  0  0  0  0999 V2000
   35.3200   29.0940   38.7160 C   0  0  1  0  0  0  0  0  0  0  0  0
   35.9800   29.6290   37.4850 C   0  0  0  0  0  0  0  0  0  0  0  0
   34.8780   28.5190   37.4360 C   0  0  2  0  0  0  0  0  0  0  0  0
   34.6350   29.7730   39.2470 H   0  0  0  0  0  0  0  0  0  0  0  0
   35.7110   30.6130   37.0660 H   0  0  0  0  0  0  0  0  0  0  0  0
   36.9680   29.2530   37.1580 H   0  0  0  0  0  0  0  0  0  0  0  0
   35.2110   27.4930   37.2330 H   0  0  0  0  0  0  0  0  0  0  0  0
   37.0980   27.6170   41.6850 C   0  0  0  0  0  0  0  0  0  0  0  0
   36.1960   28.4100   40.9780 C   0  0  0  0  0  0  0  0  0  0  0  0
   36.2360   28.2930   39.5940 C   0  0  0  0  0  0  0  0  0  0  0  0
   37.1220   27.4420   39.0020 N   0  0  0  0  0  0  0  0  0  0  0  0
   37.9830   26.6880   39.7430 C   0  0  0  0  0  0  0  0  0  0  0  0
   37.9630   26.7840   41.0870 N   0  0  0  0  0  0  0  0  0  0  0  0
   35.4990   29.0810   41.4480 H   0  0  0  0  0  0  0  0  0  0  0  0
   38.6740   26.0210   39.2200 H   0  0  0  0  0  0  0  0  0  0  0  0
   37.0810   27.7000   43.1730 C   0  0  0  0  0  0  0  0  0  0  0  0
   37.2600   29.0320   43.5170 F   0  0  0  0  0  0  0  0  0  0  0  0
   38.1480   26.9910   43.6570 F   0  0  0  0  0  0  0  0  0  0  0  0
   35.8740   27.2870   43.6800 F   0  0  0  0  0  0  0  0  0  0  0  0
   33.5710   29.0000   36.9180 C   0  0  0  0  0  0  0  0  0  0  0  0
   33.2260   29.2090   35.5980 C   0  0  0  0  0  0  0  0  0  0  0  0
   33.8380   29.0590   34.7250 H   0  0  0  0  0  0  0  0  0  0  0  0
   31.9190   29.6480   35.6940 C   0  0  0  0  0  0  0  0  0  0  0  0
   31.2990   29.9180   34.8350 H   0  0  0  0  0  0  0  0  0  0  0  0
   31.5160   29.6940   37.0320 C   0  0  0  0  0  0  0  0  0  0  0  0
   30.5500   29.9970   37.4260 H   0  0  0  0  0  0  0  0  0  0  0  0
   32.5690   29.2890   37.7040 O   0  0  0  0  0  0  0  0  0  0  0  0
  1  4  1  1  0  0  0
  1 10  1  0  0  0  0
  2  1  1  0  0  0  0
  3  7  1  6  0  0  0
  3  2  1  0  0  0  0
  3  1  1  0  0  0  0
  5  2  1  0  0  0  0
  6  2  1  0  0  0  0
  8 16  1  0  0  0  0
  9 14  1  0  0  0  0
  9  8  2  0  0  0  0
 10  9  1  0  0  0  0
 11 10  2  0  0  0  0
 11 12  1  0  0  0  0
 12 13  2  0  0  0  0
 13  8  1  0  0  0  0
 15 12  1  0  0  0  0
 16 17  1  0  0  0  0
 16 18  1  0  0  0  0
 16 19  1  0  0  0  0
 20  3  1  0  0  0  0
 20 27  1  0  0  0  0
 21 23  1  0  0  0  0
 21 20  2  0  0  0  0
 22 21  1  0  0  0  0
 23 25  2  0  0  0  0
 24 23  1  0  0  0  0
 25 26  1  0  0  0  0
 25 27  1  0  0  0  0
M  END
>  <minimizedAffinity>
-4.70342875

$$$$

 OpenBabel03252501153D

 27 29  0  0  1  0  0  0  0  0999 V2000
   37.6820   29.7100   39.1210 C   0  0  1  0  0  0  0  0  0  0  0  0
   36.6010   30.4260   38.3760 C   0  0  0  0  0  0  0  0  0  0  0  0
   37.0510   30.8420   39.8160 C   0  0  2  0  0  0  0  0  0  0  0  0
   38.7090   29.8350   38.7470 H   0  0  0  0  0  0  0  0  0  0  0  0
   36.8300   31.1330   37.5610 H   0  0  0  0  0  0  0  0  0  0  0  0
   35.5660   30.0350   38.3580 H   0  0  0  0  0  0  0  0  0  0  0  0
   36.3800   30.5800   40.6440 H   0  0  0  0  0  0  0  0  0  0  0  0
   36.9980   26.5880   41.1070 C   0  0  0  0  0  0  0  0  0  0  0  0
   37.3580   27.9110   40.8560 C   0  0  0  0  0  0  0  0  0  0  0  0
   37.3140   28.3130   39.5260 C   0  0  0  0  0  0  0  0  0  0  0  0
   36.9370   27.4330   38.5560 N   0  0  0  0  0  0  0  0  0  0  0  0
   36.5940   26.1480   38.8580 C   0  0  0  0  0  0  0  0  0  0  0  0
   36.6280   25.7360   40.1400 N   0  0  0  0  0  0  0  0  0  0  0  0
   37.6560   28.6020   41.6250 H   0  0  0  0  0  0  0  0  0  0  0  0
   36.2980   25.4830   38.0420 H   0  0  0  0  0  0  0  0  0  0  0  0
   37.0170   26.1170   42.5210 C   0  0  0  0  0  0  0  0  0  0  0  0
   38.3370   26.1320   42.9460 F   0  0  0  0  0  0  0  0  0  0  0  0
   36.5770   24.8210   42.5500 F   0  0  0  0  0  0  0  0  0  0  0  0
   36.2980   26.9590   43.3340 F   0  0  0  0  0  0  0  0  0  0  0  0
   37.8310   32.1060   39.8530 C   0  0  0  0  0  0  0  0  0  0  0  0
   37.3310   33.3910   39.9100 C   0  0  0  0  0  0  0  0  0  0  0  0
   36.2980   33.6960   39.9380 H   0  0  0  0  0  0  0  0  0  0  0  0
   38.4790   34.1610   39.9230 C   0  0  0  0  0  0  0  0  0  0  0  0
   38.4830   35.2530   39.9660 H   0  0  0  0  0  0  0  0  0  0  0  0
   39.6140   33.3460   39.8740 C   0  0  0  0  0  0  0  0  0  0  0  0
   40.6550   33.6570   39.8700 H   0  0  0  0  0  0  0  0  0  0  0  0
   39.1370   32.1240   39.8330 O   0  0  0  0  0  0  0  0  0  0  0  0
  1  4  1  6  0  0  0
  1 10  1  0  0  0  0
  1  3  1  0  0  0  0
  2  1  1  0  0  0  0
  2  3  1  0  0  0  0
  3 20  1  0  0  0  0
  3  7  1  1  0  0  0
  5  2  1  0  0  0  0
  6  2  1  0  0  0  0
  8 16  1  0  0  0  0
  9  8  1  0  0  0  0
  9 14  1  0  0  0  0
 10  9  2  0  0  0  0
 11 12  2  0  0  0  0
 11 10  1  0  0  0  0
 12 13  1  0  0  0  0
 13  8  2  0  0  0  0
 15 12  1  0  0  0  0
 16 18  1  0  0  0  0
 16 17  1  0  0  0  0
 16 19  1  0  0  0  0
 20 21  2  0  0  0  0
 21 23  1  0  0  0  0
 21 22  1  0  0  0  0
 23 24  1  0  0  0  0
 25 23  2  0  0  0  0
 26 25  1  0  0  0  0
 27 20  1  0  0  0  0
 27 25  1  0  0  0  0
M  END
>  <minimizedAffinity>
-4.66768456

$$$$

 OpenBabel03252501153D

 27 29  0  0  1  0  0  0  0  0999 V2000
   37.8390   30.0780   40.5390 C   0  0  1  0  0  0  0  0  0  0  0  0
   36.6900   31.0270   40.4140 C   0  0  0  0  0  0  0  0  0  0  0  0
   37.9910   31.3790   41.2090 C   0  0  2  0  0  0  0  0  0  0  0  0
   38.4280   29.8890   39.6290 H   0  0  0  0  0  0  0  0  0  0  0  0
   36.5080   31.5960   39.4860 H   0  0  0  0  0  0  0  0  0  0  0  0
   35.8060   30.9430   41.0740 H   0  0  0  0  0  0  0  0  0  0  0  0
   37.9270   31.3620   42.3050 H   0  0  0  0  0  0  0  0  0  0  0  0
   37.1670   26.5530   41.6720 C   0  0  0  0  0  0  0  0  0  0  0  0
   37.4600   27.6000   40.7990 C   0  0  0  0  0  0  0  0  0  0  0  0
   37.5340   28.8660   41.3690 C   0  0  0  0  0  0  0  0  0  0  0  0
   37.3240   29.0300   42.7060 N   0  0  0  0  0  0  0  0  0  0  0  0
   37.0400   27.9690   43.5140 C   0  0  0  0  0  0  0  0  0  0  0  0
   36.9630   26.7330   42.9850 N   0  0  0  0  0  0  0  0  0  0  0  0
   37.6240   27.4670   39.7440 H   0  0  0  0  0  0  0  0  0  0  0  0
   36.8810   28.1550   44.5800 H   0  0  0  0  0  0  0  0  0  0  0  0
   37.0910   25.1760   41.1070 C   0  0  0  0  0  0  0  0  0  0  0  0
   36.1990   25.2120   40.0440 F   0  0  0  0  0  0  0  0  0  0  0  0
   36.5740   24.3450   42.0650 F   0  0  0  0  0  0  0  0  0  0  0  0
   38.3100   24.7690   40.6260 F   0  0  0  0  0  0  0  0  0  0  0  0
   38.8570   32.3730   40.5240 C   0  0  0  0  0  0  0  0  0  0  0  0
   38.8350   33.7430   40.6800 C   0  0  0  0  0  0  0  0  0  0  0  0
   38.1920   34.3240   41.3190 H   0  0  0  0  0  0  0  0  0  0  0  0
   39.8330   34.1610   39.8180 C   0  0  0  0  0  0  0  0  0  0  0  0
   40.1140   35.2070   39.6680 H   0  0  0  0  0  0  0  0  0  0  0  0
   40.4180   33.0630   39.1800 C   0  0  0  0  0  0  0  0  0  0  0  0
   41.2230   33.0700   38.4510 H   0  0  0  0  0  0  0  0  0  0  0  0
   39.7730   32.0250   39.6600 O   0  0  0  0  0  0  0  0  0  0  0  0
  1  4  1  6  0  0  0
  1  3  1  0  0  0  0
  1 10  1  0  0  0  0
  2  1  1  0  0  0  0
  2  6  1  0  0  0  0
  2  3  1  0  0  0  0
  3  7  1  1  0  0  0
  5  2  1  0  0  0  0
  8 13  1  0  0  0  0
  9 10  1  0  0  0  0
  9  8  2  0  0  0  0
 10 11  2  0  0  0  0
 11 12  1  0  0  0  0
 12 15  1  0  0  0  0
 13 12  2  0  0  0  0
 14  9  1  0  0  0  0
 16  8  1  0  0  0  0
 16 18  1  0  0  0  0
 17 16  1  0  0  0  0
 19 16  1  0  0  0  0
 20 21  2  0  0  0  0
 20  3  1  0  0  0  0
 21 22  1  0  0  0  0
 23 21  1  0  0  0  0
 24 23  1  0  0  0  0
 25 27  1  0  0  0  0
 25 23  2  0  0  0  0
 26 25  1  0  0  0  0
 27 20  1  0  0  0  0
M  END
>  <minimizedAffinity>
-4.61463499

$$$$
