
 OpenBabel03252504293D

 26 27  0  0  0  0  0  0  0  0999 V2000
   43.7710   35.3780   40.8800 O   0  0  0  0  0  0  0  0  0  0  0  0
   44.4680   34.2890   41.3520 C   0  0  0  0  0  0  0  0  0  0  0  0
   45.5200   34.3130   40.9000 H   0  0  0  0  0  0  0  0  0  0  0  0
   43.9600   33.3510   41.0850 H   0  0  0  0  0  0  0  0  0  0  0  0
   44.3960   35.5260   43.3950 C   0  0  0  0  0  0  0  0  0  0  0  0
   44.7200   34.2930   42.8050 C   0  0  0  0  0  0  0  0  0  0  0  0
   45.2180   33.3230   43.6330 C   0  0  0  0  0  0  0  0  0  0  0  0
   45.3550   33.6200   44.9210 N   0  0  0  0  0  0  0  0  0  0  0  0
   45.0480   34.7860   45.4780 C   0  0  0  0  0  0  0  0  0  0  0  0
   44.5370   35.8240   44.7150 N   0  0  0  0  0  0  0  0  0  0  0  0
   43.9870   36.3970   42.8620 H   0  0  0  0  0  0  0  0  0  0  0  0
   45.4420   32.4060   43.1060 H   0  0  0  0  0  0  0  0  0  0  0  0
   45.2300   34.8250   46.5250 H   0  0  0  0  0  0  0  0  0  0  0  0
   42.5500   35.3760   40.2250 C   0  0  0  0  0  3  0  0  0  0  0  0
   41.4760   35.7350   40.9690 C   0  0  0  0  0  3  0  0  0  0  0  0
   40.0560   35.8630   40.4540 C   0  0  0  0  0  0  0  0  0  0  0  0
   39.9700   36.7920   39.8660 H   0  0  0  0  0  0  0  0  0  0  0  0
   39.4140   35.9420   41.3310 H   0  0  0  0  0  0  0  0  0  0  0  0
   39.7760   34.6510   39.6360 C   0  0  0  0  0  0  0  0  0  0  0  0
   39.5810   34.5530   38.2770 C   0  0  0  0  0  0  0  0  0  0  0  0
   39.6010   35.3760   37.5730 H   0  0  0  0  0  0  0  0  0  0  0  0
   39.3590   33.1990   38.0400 C   0  0  0  0  0  0  0  0  0  0  0  0
   39.1650   32.7600   37.0550 H   0  0  0  0  0  0  0  0  0  0  0  0
   39.4340   32.5530   39.2730 C   0  0  0  0  0  0  0  0  0  0  0  0
   39.3040   31.4880   39.4180 H   0  0  0  0  0  0  0  0  0  0  0  0
   39.6850   33.4570   40.2080 O   0  0  0  0  0  0  0  0  0  0  0  0
  1  2  1  0  0  0  0
  2  6  1  0  0  0  0
  3  2  1  0  0  0  0
  4  2  1  0  0  0  0
  5 10  1  0  0  0  0
  6  5  2  0  0  0  0
  6  7  1  0  0  0  0
  7  8  2  0  0  0  0
  8  9  1  0  0  0  0
  9 13  1  0  0  0  0
 10  9  2  0  0  0  0
 11  5  1  0  0  0  0
 12  7  1  0  0  0  0
 14  1  1  0  0  0  0
 14 15  2  0  0  0  0
 16 15  1  0  0  0  0
 16 18  1  0  0  0  0
 17 16  1  0  0  0  0
 19 26  1  0  0  0  0
 19 16  1  0  0  0  0
 20 19  2  0  0  0  0
 21 20  1  0  0  0  0
 22 20  1  0  0  0  0
 22 24  2  0  0  0  0
 23 22  1  0  0  0  0
 24 25  1  0  0  0  0
 24 26  1  0  0  0  0
M  END
>  <minimizedAffinity>
-4.43302536

>  <minimizedRMSD>
1.13077462

$$$$
