
 OpenBabel03252509083D

 40 43  0  0  0  0  0  0  0  0999 V2000
   47.5580   31.7730   38.9700 C   0  0  0  0  0  0  0  0  0  0  0  0
   47.1490   33.0720   38.9740 C   0  0  0  0  0  0  0  0  0  0  0  0
   47.8090   34.0120   38.1980 C   0  0  0  0  0  0  0  0  0  0  0  0
   48.8780   33.6290   37.4230 C   0  0  0  0  0  0  0  0  0  0  0  0
   49.3280   32.3100   37.3880 C   0  0  0  0  0  0  0  0  0  0  0  0
   48.6440   31.3830   38.1820 C   0  0  0  0  0  0  0  0  0  0  0  0
   47.5170   35.0510   38.1730 H   0  0  0  0  0  0  0  0  0  0  0  0
   49.4650   34.2640   36.7830 H   0  0  0  0  0  0  0  0  0  0  0  0
   50.1460   31.9430   36.8120 H   0  0  0  0  0  0  0  0  0  0  0  0
   48.9660   30.3430   38.1820 H   0  0  0  0  0  0  0  0  0  0  0  0
   45.3890   35.4490   43.2070 Cl  0  0  0  0  0  0  0  0  0  0  0  0
   45.2000   34.6550   41.6650 C   0  0  0  0  0  0  0  0  0  0  0  0
   46.2770   34.2130   40.9670 C   0  0  0  0  0  0  0  0  0  0  0  0
   46.0220   33.5780   39.7600 C   0  0  0  0  0  0  0  0  0  0  0  0
   44.7430   33.4030   39.2900 C   0  0  0  0  0  0  0  0  0  0  0  0
   43.6790   33.8520   40.0020 C   0  0  0  0  0  0  0  0  0  0  0  0
   43.9190   34.4810   41.1980 C   0  0  0  0  0  0  0  0  0  0  0  0
   44.6080   32.9030   38.3460 H   0  0  0  0  0  0  0  0  0  0  0  0
   42.6830   33.6990   39.6050 H   0  0  0  0  0  0  0  0  0  0  0  0
   43.0500   34.8310   41.7490 H   0  0  0  0  0  0  0  0  0  0  0  0
   49.5820   35.7730   41.9070 C   0  0  0  0  0  0  0  0  0  0  0  0
   48.2980   35.5930   41.3750 C   0  0  0  0  0  0  0  0  0  0  0  0
   47.6010   34.4100   41.5120 C   0  0  0  0  0  0  0  0  0  0  0  0
   48.2570   33.4410   42.2010 N   0  0  0  0  0  0  0  0  0  0  0  0
   49.4840   33.6040   42.7130 C   0  0  0  0  0  0  0  0  0  0  0  0
   50.1360   34.7610   42.5650 N   0  0  0  0  0  0  0  0  0  0  0  0
   50.0520   36.7360   41.7490 H   0  0  0  0  0  0  0  0  0  0  0  0
   47.8220   36.3990   40.8360 H   0  0  0  0  0  0  0  0  0  0  0  0
   49.8580   32.7310   43.2320 H   0  0  0  0  0  0  0  0  0  0  0  0
   46.7540   30.6000   39.8700 S   0  0  0  0  0  0  0  0  0  0  0  0
   45.4880   30.1220   39.1940 O   0  0  0  0  0  0  0  0  0  0  0  0
   47.6940   29.3420   39.7650 O   0  0  0  0  0  0  0  0  0  0  0  0
   46.3960   30.7310   41.5490 C   0  0  0  0  0  0  0  0  0  0  0  0
   47.2880   30.1780   42.5050 C   0  0  0  0  0  0  0  0  0  0  0  0
   48.2420   29.6380   42.3320 H   0  0  0  0  0  0  0  0  0  0  0  0
   46.8790   30.3530   43.8060 C   0  0  0  0  0  0  0  0  0  0  0  0
   47.3320   30.0540   44.7180 H   0  0  0  0  0  0  0  0  0  0  0  0
   45.7170   31.0280   43.6120 C   0  0  0  0  0  0  0  0  0  0  0  0
   45.0030   31.4040   44.3630 H   0  0  0  0  0  0  0  0  0  0  0  0
   45.5000   31.2080   42.3770 O   0  0  0  0  0  0  0  0  0  0  0  0
  1  2  1  0  0  0  0
  1 30  1  0  0  0  0
  2 14  1  0  0  0  0
  3  2  2  0  0  0  0
  4  3  1  0  0  0  0
  5  4  2  0  0  0  0
  5  6  1  0  0  0  0
  6 10  1  0  0  0  0
  6  1  2  0  0  0  0
  7  3  1  0  0  0  0
  8  4  1  0  0  0  0
  9  5  1  0  0  0  0
 12 11  1  0  0  0  0
 13 23  1  0  0  0  0
 13 12  2  0  0  0  0
 14 13  1  0  0  0  0
 15 14  2  0  0  0  0
 15 16  1  0  0  0  0
 16 17  2  0  0  0  0
 17 12  1  0  0  0  0
 17 20  1  0  0  0  0
 18 15  1  0  0  0  0
 19 16  1  0  0  0  0
 21 26  1  0  0  0  0
 22 23  1  0  0  0  0
 22 21  2  0  0  0  0
 23 24  2  0  0  0  0
 24 25  1  0  0  0  0
 25 29  1  0  0  0  0
 26 25  2  0  0  0  0
 27 21  1  0  0  0  0
 28 22  1  0  0  0  0
 30 33  1  0  0  0  0
 31 30  2  0  0  0  0
 32 30  2  0  0  0  0
 33 40  1  0  0  0  0
 33 34  2  0  0  0  0
 34 36  1  0  0  0  0
 35 34  1  0  0  0  0
 36 37  1  0  0  0  0
 38 36  2  0  0  0  0
 38 39  1  0  0  0  0
 40 38  1  0  0  0  0
M  END
>  <minimizedAffinity>
-4.67321157

>  <minimizedRMSD>
0.815019011

$$$$
