
 OpenBabel03242516433D

 43 45  0  0  1  0  0  0  0  0999 V2000
   51.4780   30.9430   43.1400 O   0  0  0  0  0  0  0  0  0  0  0  0
   50.5590   31.5900   42.1220 P   0  0  2  0  0  0  0  0  0  0  0  0
   50.8900   33.2110   41.8920 O   0  0  0  0  0  0  0  0  0  0  0  0
   51.7540   33.4490   42.3330 H   0  0  0  0  0  0  0  0  0  0  0  0
   48.9640   31.4090   42.6270 O   0  0  0  0  0  0  0  0  0  0  0  0
   48.5210   32.5310   43.3090 C   0  0  0  0  0  0  0  0  0  0  0  0
   48.7980   33.4880   42.8220 H   0  0  0  0  0  0  0  0  0  0  0  0
   49.0310   32.5610   44.3150 H   0  0  0  0  0  0  0  0  0  0  0  0
   47.0410   32.4880   43.4990 C   0  0  0  0  0  0  0  0  0  0  0  0
   46.5930   31.6530   42.9180 H   0  0  0  0  0  0  0  0  0  0  0  0
   46.5540   33.4270   43.1690 H   0  0  0  0  0  0  0  0  0  0  0  0
   45.5280   33.1630   46.8710 C   0  0  0  0  0  0  0  0  0  0  0  0
   45.8160   33.2670   45.5040 C   0  0  0  0  0  0  0  0  0  0  0  0
   46.7350   32.3760   44.9600 C   0  0  0  0  0  0  0  0  0  0  0  0
   47.3130   31.4490   45.7620 N   0  0  0  0  0  0  0  0  0  0  0  0
   47.0020   31.3890   47.0800 C   0  0  0  0  0  0  0  0  0  0  0  0
   46.1300   32.2210   47.6420 N   0  0  0  0  0  0  0  0  0  0  0  0
   44.6010   34.0450   47.4810 N   0  0  0  0  0  0  0  0  0  0  0  0
   45.3090   34.0310   44.9530 H   0  0  0  0  0  0  0  0  0  0  0  0
   47.5010   30.6250   47.6650 H   0  0  0  0  0  0  0  0  0  0  0  0
   44.9960   34.8540   48.0240 H   0  0  0  0  0  0  0  0  0  0  0  0
   43.5750   34.0320   47.4850 H   0  0  0  0  0  0  0  0  0  0  0  0
   50.7630   30.8070   40.6120 O   0  0  0  0  0  0  0  0  0  0  0  0
   50.2540   31.6040   38.4600 C   0  0  1  0  0  0  0  0  0  0  0  0
   51.1770   31.6790   39.6440 C   0  0  2  0  0  0  0  0  0  0  0  0
   52.4240   31.0190   39.0130 C   0  0  0  0  0  0  0  0  0  0  0  0
   51.9550   29.9960   38.2410 O   0  0  0  0  0  0  0  0  0  0  0  0
   50.6700   30.2850   37.8500 C   0  0  0  0  0  0  0  0  0  0  0  0
   50.4890   32.4400   37.7880 H   0  0  0  0  0  0  0  0  0  0  0  0
   51.4210   32.7010   39.9810 H   0  0  0  0  0  0  0  0  0  0  0  0
   53.0960   30.6860   39.8290 H   0  0  0  0  0  0  0  0  0  0  0  0
   52.9330   31.8160   38.4390 H   0  0  0  0  0  0  0  0  0  0  0  0
   50.5700   30.3670   36.7430 H   0  0  0  0  0  0  0  0  0  0  0  0
   50.0300   29.4380   38.1830 H   0  0  0  0  0  0  0  0  0  0  0  0
   48.9230   31.6470   38.8190 O   0  0  0  0  0  0  0  0  0  0  0  0
   48.2470   32.6940   39.4110 C   0  0  0  0  0  0  0  0  0  0  0  0
   46.8550   32.5500   39.4610 C   0  0  0  0  0  0  0  0  0  0  0  0
   46.0870   31.8230   39.1600 H   0  0  0  0  0  0  0  0  0  0  0  0
   46.3650   33.7000   40.0900 C   0  0  0  0  0  0  0  0  0  0  0  0
   45.4220   34.1400   40.3970 H   0  0  0  0  0  0  0  0  0  0  0  0
   47.4780   34.4630   40.3790 C   0  0  0  0  0  0  0  0  0  0  0  0
   47.7650   35.4210   40.8400 H   0  0  0  0  0  0  0  0  0  0  0  0
   48.5440   33.8370   39.9670 O   0  0  0  0  0  0  0  0  0  0  0  0
  2  5  1  0  0  0  0
  2  1  2  1  0  0  0
  3  2  1  0  0  0  0
  3  4  1  0  0  0  0
  5  6  1  0  0  0  0
  6  9  1  0  0  0  0
  6  8  1  0  0  0  0
  7  6  1  0  0  0  0
  9 14  1  0  0  0  0
 10  9  1  0  0  0  0
 11  9  1  0  0  0  0
 12 18  1  0  0  0  0
 12 17  1  0  0  0  0
 13 12  2  0  0  0  0
 14 13  1  0  0  0  0
 14 15  2  0  0  0  0
 15 16  1  0  0  0  0
 16 17  2  0  0  0  0
 16 20  1  0  0  0  0
 18 22  1  0  0  0  0
 18 21  1  0  0  0  0
 19 13  1  0  0  0  0
 23  2  1  0  0  0  0
 24 29  1  6  0  0  0
 24 35  1  0  0  0  0
 24 25  1  0  0  0  0
 25 30  1  1  0  0  0
 25 23  1  0  0  0  0
 26 25  1  0  0  0  0
 26 31  1  0  0  0  0
 27 26  1  0  0  0  0
 28 34  1  0  0  0  0
 28 27  1  0  0  0  0
 28 24  1  0  0  0  0
 32 26  1  0  0  0  0
 33 28  1  0  0  0  0
 35 36  1  0  0  0  0
 36 37  2  0  0  0  0
 36 43  1  0  0  0  0
 37 39  1  0  0  0  0
 38 37  1  0  0  0  0
 39 41  2  0  0  0  0
 39 40  1  0  0  0  0
 41 42  1  0  0  0  0
 43 41  1  0  0  0  0
M  END
>  <minimizedAffinity>
-4.09779167

>  <minimizedRMSD>
3.44087267

$$$$
