
 OpenBabel03252502503D

 33 35  0  0  0  0  0  0  0  0999 V2000
   44.6170   36.1360   43.9230 C   0  0  0  0  0  0  0  0  0  0  0  0
   44.8550   35.3200   45.0460 C   0  0  0  0  0  0  0  0  0  0  0  0
   45.6060   34.1600   44.8570 C   0  0  0  0  0  0  0  0  0  0  0  0
   46.0680   33.8720   43.6200 N   0  0  0  0  0  0  0  0  0  0  0  0
   45.8190   34.6820   42.5580 C   0  0  0  0  0  0  0  0  0  0  0  0
   45.0950   35.8120   42.7060 N   0  0  0  0  0  0  0  0  0  0  0  0
   44.0390   37.0450   44.0220 H   0  0  0  0  0  0  0  0  0  0  0  0
   44.4620   35.5990   46.0150 H   0  0  0  0  0  0  0  0  0  0  0  0
   48.5490   35.7110   41.9510 Cl  0  0  0  0  0  0  0  0  0  0  0  0
   47.5900   34.7320   40.8680 C   0  0  0  0  0  0  0  0  0  0  0  0
   46.3500   34.3100   41.2410 C   0  0  0  0  0  0  0  0  0  0  0  0
   45.5490   33.5200   40.3930 C   0  0  0  0  0  0  0  0  0  0  0  0
   46.1150   33.2100   39.1670 C   0  0  0  0  0  0  0  0  0  0  0  0
   47.3590   33.6340   38.7990 C   0  0  0  0  0  0  0  0  0  0  0  0
   48.1270   34.4050   39.6370 C   0  0  0  0  0  0  0  0  0  0  0  0
   44.5780   33.1800   40.6630 H   0  0  0  0  0  0  0  0  0  0  0  0
   45.5880   32.6020   38.4270 H   0  0  0  0  0  0  0  0  0  0  0  0
   47.8070   33.3950   37.8400 H   0  0  0  0  0  0  0  0  0  0  0  0
   49.1000   34.7530   39.3800 H   0  0  0  0  0  0  0  0  0  0  0  0
   45.8530   33.3040   46.0330 C   0  0  0  0  0  0  0  0  0  0  0  0
   46.1480   33.8750   46.9240 H   0  0  0  0  0  0  0  0  0  0  0  0
   44.8660   32.8150   46.2740 H   0  0  0  0  0  0  0  0  0  0  0  0
   46.8120   32.1590   45.7450 C   0  0  0  0  0  0  0  0  0  0  0  0
   46.3530   31.3790   45.1350 H   0  0  0  0  0  0  0  0  0  0  0  0
   47.7580   32.5790   45.3440 H   0  0  0  0  0  0  0  0  0  0  0  0
   47.1730   31.5800   47.0890 C   0  0  0  0  0  0  0  0  0  0  0  0
   46.6280   31.9660   48.3150 C   0  0  0  0  0  0  0  0  0  0  0  0
   45.8690   32.7350   48.4800 H   0  0  0  0  0  0  0  0  0  0  0  0
   47.2670   31.1550   49.2560 C   0  0  0  0  0  0  0  0  0  0  0  0
   47.0690   31.2010   50.3280 H   0  0  0  0  0  0  0  0  0  0  0  0
   48.1420   30.3440   48.5690 C   0  0  0  0  0  0  0  0  0  0  0  0
   48.7970   29.5920   49.0080 H   0  0  0  0  0  0  0  0  0  0  0  0
   48.0600   30.6220   47.2880 O   0  0  0  0  0  0  0  0  0  0  0  0
  1  7  1  0  0  0  0
  1  2  1  0  0  0  0
  2  8  1  0  0  0  0
  3  2  2  0  0  0  0
  3 20  1  0  0  0  0
  4  3  1  0  0  0  0
  5  6  1  0  0  0  0
  5  4  2  0  0  0  0
  6  1  2  0  0  0  0
 10 11  1  0  0  0  0
 10  9  1  0  0  0  0
 11  5  1  0  0  0  0
 12 16  1  0  0  0  0
 12 11  2  0  0  0  0
 13 12  1  0  0  0  0
 14 13  2  0  0  0  0
 14 15  1  0  0  0  0
 15 10  2  0  0  0  0
 17 13  1  0  0  0  0
 18 14  1  0  0  0  0
 19 15  1  0  0  0  0
 20 22  1  0  0  0  0
 20 21  1  0  0  0  0
 23 20  1  0  0  0  0
 23 26  1  0  0  0  0
 24 23  1  0  0  0  0
 25 23  1  0  0  0  0
 26 33  1  0  0  0  0
 26 27  2  0  0  0  0
 27 28  1  0  0  0  0
 27 29  1  0  0  0  0
 29 30  1  0  0  0  0
 31 32  1  0  0  0  0
 31 29  2  0  0  0  0
 33 31  1  0  0  0  0
M  END
>  <minimizedAffinity>
-5.50479269

>  <minimizedRMSD>
0.306496888

$$$$
