
 OpenBabel03252502503D

 33 35  0  0  0  0  0  0  0  0999 V2000
   44.6300   36.4390   43.8130 C   0  0  0  0  0  0  0  0  0  0  0  0
   44.7480   35.6430   44.9690 C   0  0  0  0  0  0  0  0  0  0  0  0
   45.3890   34.4100   44.8440 C   0  0  0  0  0  0  0  0  0  0  0  0
   45.8630   34.0370   43.6350 N   0  0  0  0  0  0  0  0  0  0  0  0
   45.7310   34.8310   42.5400 C   0  0  0  0  0  0  0  0  0  0  0  0
   45.1170   36.0290   42.6260 N   0  0  0  0  0  0  0  0  0  0  0  0
   44.1400   37.4030   43.8630 H   0  0  0  0  0  0  0  0  0  0  0  0
   44.3500   35.9910   45.9130 H   0  0  0  0  0  0  0  0  0  0  0  0
   48.5220   35.6920   41.9430 Cl  0  0  0  0  0  0  0  0  0  0  0  0
   47.5360   34.7050   40.8900 C   0  0  0  0  0  0  0  0  0  0  0  0
   46.2690   34.3650   41.2560 C   0  0  0  0  0  0  0  0  0  0  0  0
   45.4470   33.5710   40.4320 C   0  0  0  0  0  0  0  0  0  0  0  0
   46.0210   33.1690   39.2370 C   0  0  0  0  0  0  0  0  0  0  0  0
   47.2920   33.5130   38.8750 C   0  0  0  0  0  0  0  0  0  0  0  0
   48.0810   34.2880   39.6890 C   0  0  0  0  0  0  0  0  0  0  0  0
   44.4560   33.2930   40.6970 H   0  0  0  0  0  0  0  0  0  0  0  0
   45.4800   32.5500   38.5180 H   0  0  0  0  0  0  0  0  0  0  0  0
   47.7460   33.2020   37.9400 H   0  0  0  0  0  0  0  0  0  0  0  0
   49.0750   34.5750   39.4370 H   0  0  0  0  0  0  0  0  0  0  0  0
   45.5100   33.5750   46.0550 C   0  0  0  0  0  0  0  0  0  0  0  0
   45.3820   34.1460   46.9830 H   0  0  0  0  0  0  0  0  0  0  0  0
   44.6600   32.8370   46.0090 H   0  0  0  0  0  0  0  0  0  0  0  0
   46.7760   32.7330   46.0730 C   0  0  0  0  0  0  0  0  0  0  0  0
   46.7900   31.9900   45.2730 H   0  0  0  0  0  0  0  0  0  0  0  0
   47.6550   33.4110   46.1040 H   0  0  0  0  0  0  0  0  0  0  0  0
   46.7770   32.0220   47.4010 C   0  0  0  0  0  0  0  0  0  0  0  0
   47.9110   31.6570   48.1290 C   0  0  0  0  0  0  0  0  0  0  0  0
   48.9530   31.8310   47.8460 H   0  0  0  0  0  0  0  0  0  0  0  0
   47.4100   31.0340   49.2740 C   0  0  0  0  0  0  0  0  0  0  0  0
   48.0400   30.6240   50.0640 H   0  0  0  0  0  0  0  0  0  0  0  0
   46.0370   31.0540   49.1820 C   0  0  0  0  0  0  0  0  0  0  0  0
   45.3390   30.6470   49.9150 H   0  0  0  0  0  0  0  0  0  0  0  0
   45.6960   31.6460   48.0610 O   0  0  0  0  0  0  0  0  0  0  0  0
  1  7  1  0  0  0  0
  1  2  1  0  0  0  0
  2  8  1  0  0  0  0
  3  2  2  0  0  0  0
  3 20  1  0  0  0  0
  4  3  1  0  0  0  0
  5  6  1  0  0  0  0
  5  4  2  0  0  0  0
  6  1  2  0  0  0  0
 10 11  1  0  0  0  0
 10  9  1  0  0  0  0
 11  5  1  0  0  0  0
 12 16  1  0  0  0  0
 12 11  2  0  0  0  0
 13 12  1  0  0  0  0
 14 13  2  0  0  0  0
 14 15  1  0  0  0  0
 15 10  2  0  0  0  0
 17 13  1  0  0  0  0
 18 14  1  0  0  0  0
 19 15  1  0  0  0  0
 20 23  1  0  0  0  0
 20 21  1  0  0  0  0
 22 20  1  0  0  0  0
 23 25  1  0  0  0  0
 23 26  1  0  0  0  0
 24 23  1  0  0  0  0
 26 33  1  0  0  0  0
 26 27  2  0  0  0  0
 27 29  1  0  0  0  0
 28 27  1  0  0  0  0
 29 30  1  0  0  0  0
 31 29  2  0  0  0  0
 31 32  1  0  0  0  0
 33 31  1  0  0  0  0
M  END
>  <minimizedAffinity>
-5.59575605

>  <minimizedRMSD>
0.570212543

$$$$
