
 OpenBabel03252505403D

 27 29  0  0  1  0  0  0  0  0999 V2000
   45.0380   33.8270   43.3940 C   0  0  1  0  0  0  0  0  0  0  0  0
   45.5520   35.2440   43.6810 C   0  0  0  0  0  0  0  0  0  0  0  0
   45.9140   34.5010   42.4380 C   0  0  1  0  0  0  0  0  0  0  0  0
   43.9500   33.7440   43.1740 H   0  0  0  0  0  0  0  0  0  0  0  0
   46.2540   35.3430   44.5220 H   0  0  0  0  0  0  0  0  0  0  0  0
   44.7590   36.0180   43.6540 H   0  0  0  0  0  0  0  0  0  0  0  0
   45.4130   34.9040   41.5070 H   0  0  0  0  0  0  0  0  0  0  0  0
   45.4960   32.7890   44.3390 C   0  0  0  0  0  0  0  0  0  0  0  0
   45.6430   31.4810   43.8120 C   0  0  0  0  0  0  0  0  0  0  0  0
   46.0900   30.4900   44.6700 C   0  0  0  0  0  0  0  0  0  0  0  0
   46.3610   30.8340   45.9680 N   0  0  0  0  0  0  0  0  0  0  0  0
   46.2050   32.0880   46.4240 C   0  0  0  0  0  0  0  0  0  0  0  0
   45.7720   33.0590   45.6010 N   0  0  0  0  0  0  0  0  0  0  0  0
   45.4340   31.1600   42.8000 H   0  0  0  0  0  0  0  0  0  0  0  0
   46.2200   29.4800   44.3230 H   0  0  0  0  0  0  0  0  0  0  0  0
   46.5560   32.2470   47.8700 C   0  0  0  0  0  0  0  0  0  0  0  0
   45.5780   32.9140   48.5630 F   0  0  0  0  0  0  0  0  0  0  0  0
   47.7560   32.9520   47.9950 F   0  0  0  0  0  0  0  0  0  0  0  0
   46.7980   30.9880   48.4140 F   0  0  0  0  0  0  0  0  0  0  0  0
   47.3840   34.2860   42.3430 C   0  0  0  0  0  0  0  0  0  0  0  0
   47.8900   33.4950   41.3310 C   0  0  0  0  0  0  0  0  0  0  0  0
   47.4000   32.9430   40.5140 H   0  0  0  0  0  0  0  0  0  0  0  0
   49.2710   33.4530   41.4600 C   0  0  0  0  0  0  0  0  0  0  0  0
   50.0340   32.9500   40.8750 H   0  0  0  0  0  0  0  0  0  0  0  0
   49.5300   34.2300   42.5520 C   0  0  0  0  0  0  0  0  0  0  0  0
   50.5170   34.4260   42.9500 H   0  0  0  0  0  0  0  0  0  0  0  0
   48.4220   34.6890   43.0300 O   0  0  0  0  0  0  0  0  0  0  0  0
  1  4  1  6  0  0  0
  1  2  1  0  0  0  0
  1  8  1  0  0  0  0
  2  5  1  0  0  0  0
  3  7  1  6  0  0  0
  3  1  1  0  0  0  0
  3  2  1  0  0  0  0
  6  2  1  0  0  0  0
  8 13  1  0  0  0  0
  9  8  2  0  0  0  0
  9 10  1  0  0  0  0
 10 11  2  0  0  0  0
 11 12  1  0  0  0  0
 12 16  1  0  0  0  0
 13 12  2  0  0  0  0
 14  9  1  0  0  0  0
 15 10  1  0  0  0  0
 16 18  1  0  0  0  0
 16 19  1  0  0  0  0
 16 17  1  0  0  0  0
 20  3  1  0  0  0  0
 20 27  1  0  0  0  0
 21 23  1  0  0  0  0
 21 20  2  0  0  0  0
 22 21  1  0  0  0  0
 23 25  2  0  0  0  0
 24 23  1  0  0  0  0
 25 26  1  0  0  0  0
 25 27  1  0  0  0  0
M  END
>  <minimizedAffinity>
-4.37107182

>  <minimizedRMSD>
1.91136765

$$$$
