
 OpenBabel03252508523D

 27 29  0  0  0  0  0  0  0  0999 V2000
   39.5970   31.4750   41.2660 C   0  0  0  0  0  0  0  0  0  0  0  0
   38.6710   31.4910   40.2310 C   0  0  0  0  0  0  0  0  0  0  0  0
   39.0270   32.2160   39.0800 C   0  0  0  0  0  0  0  0  0  0  0  0
   40.2320   32.8420   39.0590 N   0  0  0  0  0  0  0  0  0  0  0  0
   41.0850   32.7980   40.0750 C   0  0  0  0  0  0  0  0  0  0  0  0
   40.7740   32.1130   41.1880 N   0  0  0  0  0  0  0  0  0  0  0  0
   38.3340   32.2470   38.2670 H   0  0  0  0  0  0  0  0  0  0  0  0
   42.0570   33.2830   40.0970 H   0  0  0  0  0  0  0  0  0  0  0  0
   37.4130   30.7830   40.3670 C   0  0  0  0  0  0  0  0  0  0  0  0
   37.1290   29.6110   39.7000 C   0  0  0  0  0  0  0  0  0  0  0  0
   35.8550   29.2950   40.1120 C   0  0  0  0  0  0  0  0  0  0  0  0
   35.3880   30.2180   40.9770 N   0  0  0  0  0  0  0  0  0  0  0  0
   36.3490   31.1060   41.1140 N   0  0  0  0  0  0  0  0  0  0  0  0
   37.7020   29.0110   39.0060 H   0  0  0  0  0  0  0  0  0  0  0  0
   35.2060   28.4530   39.8530 H   0  0  0  0  0  0  0  0  0  0  0  0
   34.5030   30.3590   41.5090 H   0  0  0  0  0  0  0  0  0  0  0  0
   39.2820   30.7720   42.4140 O   0  0  0  0  0  0  0  0  0  0  0  0
   39.5280   29.4550   42.6760 C   0  0  0  0  0  0  0  0  0  0  0  0
   40.6770   28.9010   42.8340 O   0  0  0  0  0  0  0  0  0  0  0  0
   38.4480   28.4320   42.8190 C   0  0  0  0  0  0  0  0  0  0  0  0
   37.3390   28.4620   43.6750 C   0  0  0  0  0  0  0  0  0  0  0  0
   37.1750   29.3120   44.3560 H   0  0  0  0  0  0  0  0  0  0  0  0
   36.5570   27.3400   43.5290 C   0  0  0  0  0  0  0  0  0  0  0  0
   35.6460   27.1150   44.0670 H   0  0  0  0  0  0  0  0  0  0  0  0
   37.2410   26.6430   42.5570 C   0  0  0  0  0  0  0  0  0  0  0  0
   36.9260   25.6690   42.1570 H   0  0  0  0  0  0  0  0  0  0  0  0
   38.2880   27.2940   42.1940 O   0  0  0  0  0  0  0  0  0  0  0  0
  1 17  1  0  0  0  0
  2  9  1  0  0  0  0
  2  1  2  0  0  0  0
  3  2  1  0  0  0  0
  4  3  2  0  0  0  0
  4  5  1  0  0  0  0
  5  8  1  0  0  0  0
  5  6  2  0  0  0  0
  6  1  1  0  0  0  0
  7  3  1  0  0  0  0
  9 13  2  0  0  0  0
 10 11  2  0  0  0  0
 10  9  1  0  0  0  0
 11 12  1  0  0  0  0
 12 13  1  0  0  0  0
 12 16  1  0  0  0  0
 14 10  1  0  0  0  0
 15 11  1  0  0  0  0
 17 18  1  0  0  0  0
 18 20  1  0  0  0  0
 18 19  2  0  0  0  0
 20 21  2  0  0  0  0
 21 22  1  0  0  0  0
 23 21  1  0  0  0  0
 23 24  1  0  0  0  0
 25 23  2  0  0  0  0
 26 25  1  0  0  0  0
 27 25  1  0  0  0  0
 27 20  1  0  0  0  0
M  END
>  <minimizedAffinity>
-5.00522709

$$$$

 OpenBabel03252508523D

 27 29  0  0  0  0  0  0  0  0999 V2000
   37.3730   28.5810   38.6140 C   0  0  0  0  0  0  0  0  0  0  0  0
   36.4550   29.6170   38.4970 C   0  0  0  0  0  0  0  0  0  0  0  0
   35.2730   29.3320   37.7910 C   0  0  0  0  0  0  0  0  0  0  0  0
   35.1120   28.0850   37.2780 N   0  0  0  0  0  0  0  0  0  0  0  0
   36.0190   27.1270   37.4150 C   0  0  0  0  0  0  0  0  0  0  0  0
   37.1590   27.3670   38.0860 N   0  0  0  0  0  0  0  0  0  0  0  0
   34.5480   30.1100   37.6840 H   0  0  0  0  0  0  0  0  0  0  0  0
   35.9280   26.1170   37.0220 H   0  0  0  0  0  0  0  0  0  0  0  0
   36.7360   30.9100   39.0880 C   0  0  0  0  0  0  0  0  0  0  0  0
   37.2890   31.9590   38.3850 C   0  0  0  0  0  0  0  0  0  0  0  0
   37.3820   32.9690   39.3140 C   0  0  0  0  0  0  0  0  0  0  0  0
   36.9150   32.5630   40.5130 N   0  0  0  0  0  0  0  0  0  0  0  0
   36.5310   31.3160   40.3480 N   0  0  0  0  0  0  0  0  0  0  0  0
   37.6040   32.0590   37.3550 H   0  0  0  0  0  0  0  0  0  0  0  0
   37.7580   33.9930   39.2250 H   0  0  0  0  0  0  0  0  0  0  0  0
   36.8070   32.9950   41.4550 H   0  0  0  0  0  0  0  0  0  0  0  0
   38.5470   28.8230   39.3020 O   0  0  0  0  0  0  0  0  0  0  0  0
   38.9880   28.2060   40.4370 C   0  0  0  0  0  0  0  0  0  0  0  0
   40.1250   27.6320   40.6120 O   0  0  0  0  0  0  0  0  0  0  0  0
   38.1730   28.1070   41.6860 C   0  0  0  0  0  0  0  0  0  0  0  0
   37.1360   27.2090   41.9690 C   0  0  0  0  0  0  0  0  0  0  0  0
   36.8270   26.4520   41.2300 H   0  0  0  0  0  0  0  0  0  0  0  0
   36.6160   27.4180   43.2260 C   0  0  0  0  0  0  0  0  0  0  0  0
   35.8110   26.8630   43.6890 H   0  0  0  0  0  0  0  0  0  0  0  0
   37.3800   28.4710   43.6770 C   0  0  0  0  0  0  0  0  0  0  0  0
   37.2660   28.9390   44.6640 H   0  0  0  0  0  0  0  0  0  0  0  0
   38.2340   28.8180   42.7810 O   0  0  0  0  0  0  0  0  0  0  0  0
  1 17  1  0  0  0  0
  2  1  1  0  0  0  0
  2  9  1  0  0  0  0
  3  2  2  0  0  0  0
  4  5  2  0  0  0  0
  4  3  1  0  0  0  0
  5  6  1  0  0  0  0
  6  1  2  0  0  0  0
  7  3  1  0  0  0  0
  8  5  1  0  0  0  0
  9 13  2  0  0  0  0
 10  9  1  0  0  0  0
 10 11  2  0  0  0  0
 11 12  1  0  0  0  0
 12 16  1  0  0  0  0
 13 12  1  0  0  0  0
 14 10  1  0  0  0  0
 15 11  1  0  0  0  0
 17 18  1  0  0  0  0
 18 19  2  0  0  0  0
 18 20  1  0  0  0  0
 20 21  2  0  0  0  0
 20 27  1  0  0  0  0
 21 23  1  0  0  0  0
 22 21  1  0  0  0  0
 23 25  2  0  0  0  0
 23 24  1  0  0  0  0
 25 26  1  0  0  0  0
 27 25  1  0  0  0  0
M  END
>  <minimizedAffinity>
-4.78338575

$$$$

 OpenBabel03252508523D

 27 29  0  0  0  0  0  0  0  0999 V2000
   36.7990   25.8400   40.4370 C   0  0  0  0  0  0  0  0  0  0  0  0
   37.4160   25.8710   41.6800 C   0  0  0  0  0  0  0  0  0  0  0  0
   37.9530   24.6580   42.1460 C   0  0  0  0  0  0  0  0  0  0  0  0
   37.8340   23.5560   41.3610 N   0  0  0  0  0  0  0  0  0  0  0  0
   37.2330   23.5760   40.1770 C   0  0  0  0  0  0  0  0  0  0  0  0
   36.7110   24.7200   39.7050 N   0  0  0  0  0  0  0  0  0  0  0  0
   38.4340   24.6500   43.1000 H   0  0  0  0  0  0  0  0  0  0  0  0
   37.1180   22.7180   39.5200 H   0  0  0  0  0  0  0  0  0  0  0  0
   37.4850   27.1100   42.4300 C   0  0  0  0  0  0  0  0  0  0  0  0
   38.6290   27.8730   42.5280 C   0  0  0  0  0  0  0  0  0  0  0  0
   38.2530   28.9350   43.3160 C   0  0  0  0  0  0  0  0  0  0  0  0
   36.9580   28.8300   43.6790 N   0  0  0  0  0  0  0  0  0  0  0  0
   36.5180   27.7180   43.1300 N   0  0  0  0  0  0  0  0  0  0  0  0
   39.6230   27.7490   42.1200 H   0  0  0  0  0  0  0  0  0  0  0  0
   38.8200   29.8020   43.6690 H   0  0  0  0  0  0  0  0  0  0  0  0
   36.2970   29.3950   44.2520 H   0  0  0  0  0  0  0  0  0  0  0  0
   36.2590   27.0150   39.9460 O   0  0  0  0  0  0  0  0  0  0  0  0
   36.8890   27.9750   39.2090 C   0  0  0  0  0  0  0  0  0  0  0  0
   37.5980   27.7960   38.1510 O   0  0  0  0  0  0  0  0  0  0  0  0
   36.8430   29.4310   39.5470 C   0  0  0  0  0  0  0  0  0  0  0  0
   37.1950   30.5160   38.7350 C   0  0  0  0  0  0  0  0  0  0  0  0
   37.5600   30.3580   37.7070 H   0  0  0  0  0  0  0  0  0  0  0  0
   37.0210   31.7140   39.3890 C   0  0  0  0  0  0  0  0  0  0  0  0
   37.2170   32.7000   38.9890 H   0  0  0  0  0  0  0  0  0  0  0  0
   36.5530   31.3000   40.6170 C   0  0  0  0  0  0  0  0  0  0  0  0
   36.2910   31.9800   41.4390 H   0  0  0  0  0  0  0  0  0  0  0  0
   36.4710   30.0180   40.6540 O   0  0  0  0  0  0  0  0  0  0  0  0
  1  2  1  0  0  0  0
  2  3  2  0  0  0  0
  2  9  1  0  0  0  0
  3  7  1  0  0  0  0
  4  3  1  0  0  0  0
  5  4  2  0  0  0  0
  6  5  1  0  0  0  0
  6  1  2  0  0  0  0
  8  5  1  0  0  0  0
  9 10  1  0  0  0  0
  9 13  2  0  0  0  0
 10 11  2  0  0  0  0
 11 15  1  0  0  0  0
 11 12  1  0  0  0  0
 12 16  1  0  0  0  0
 13 12  1  0  0  0  0
 14 10  1  0  0  0  0
 17  1  1  0  0  0  0
 18 20  1  0  0  0  0
 18 17  1  0  0  0  0
 19 18  2  0  0  0  0
 20 27  1  0  0  0  0
 21 23  1  0  0  0  0
 21 20  2  0  0  0  0
 22 21  1  0  0  0  0
 23 25  2  0  0  0  0
 24 23  1  0  0  0  0
 25 27  1  0  0  0  0
 25 26  1  0  0  0  0
M  END
>  <minimizedAffinity>
-4.74756336

$$$$

 OpenBabel03252508523D

 27 29  0  0  0  0  0  0  0  0999 V2000
   36.3050   29.8500   40.4010 C   0  0  0  0  0  0  0  0  0  0  0  0
   36.8900   30.6610   39.4380 C   0  0  0  0  0  0  0  0  0  0  0  0
   36.4510   30.4810   38.1140 C   0  0  0  0  0  0  0  0  0  0  0  0
   35.5010   29.5410   37.8710 N   0  0  0  0  0  0  0  0  0  0  0  0
   34.9710   28.7890   38.8270 C   0  0  0  0  0  0  0  0  0  0  0  0
   35.3690   28.9380   40.1020 N   0  0  0  0  0  0  0  0  0  0  0  0
   36.8830   31.0910   37.3510 H   0  0  0  0  0  0  0  0  0  0  0  0
   34.2090   28.0280   38.6740 H   0  0  0  0  0  0  0  0  0  0  0  0
   37.8970   31.6330   39.8160 C   0  0  0  0  0  0  0  0  0  0  0  0
   37.6150   32.9610   40.0530 C   0  0  0  0  0  0  0  0  0  0  0  0
   38.8360   33.5070   40.3750 C   0  0  0  0  0  0  0  0  0  0  0  0
   39.8060   32.5700   40.3370 N   0  0  0  0  0  0  0  0  0  0  0  0
   39.2110   31.4470   39.9970 N   0  0  0  0  0  0  0  0  0  0  0  0
   36.6940   33.5270   40.0210 H   0  0  0  0  0  0  0  0  0  0  0  0
   39.1160   34.5300   40.6410 H   0  0  0  0  0  0  0  0  0  0  0  0
   40.8340   32.5560   40.5050 H   0  0  0  0  0  0  0  0  0  0  0  0
   36.7110   29.9990   41.7150 O   0  0  0  0  0  0  0  0  0  0  0  0
   37.6040   29.2280   42.4020 C   0  0  0  0  0  0  0  0  0  0  0  0
   38.4520   29.6280   43.2800 O   0  0  0  0  0  0  0  0  0  0  0  0
   37.7240   27.7500   42.2150 C   0  0  0  0  0  0  0  0  0  0  0  0
   36.8780   26.7480   42.7050 C   0  0  0  0  0  0  0  0  0  0  0  0
   35.9930   27.0020   43.3110 H   0  0  0  0  0  0  0  0  0  0  0  0
   37.3080   25.4960   42.3310 C   0  0  0  0  0  0  0  0  0  0  0  0
   36.8370   24.5530   42.5750 H   0  0  0  0  0  0  0  0  0  0  0  0
   38.4380   25.7910   41.6020 C   0  0  0  0  0  0  0  0  0  0  0  0
   39.0800   25.0380   41.1230 H   0  0  0  0  0  0  0  0  0  0  0  0
   38.6270   27.0620   41.5670 O   0  0  0  0  0  0  0  0  0  0  0  0
  1 17  1  0  0  0  0
  2  9  1  0  0  0  0
  2  1  2  0  0  0  0
  3  2  1  0  0  0  0
  4  3  2  0  0  0  0
  4  5  1  0  0  0  0
  5  6  2  0  0  0  0
  6  1  1  0  0  0  0
  7  3  1  0  0  0  0
  8  5  1  0  0  0  0
  9 13  2  0  0  0  0
  9 10  1  0  0  0  0
 10 11  2  0  0  0  0
 11 15  1  0  0  0  0
 12 11  1  0  0  0  0
 12 16  1  0  0  0  0
 13 12  1  0  0  0  0
 14 10  1  0  0  0  0
 17 18  1  0  0  0  0
 18 19  2  0  0  0  0
 20 18  1  0  0  0  0
 20 21  2  0  0  0  0
 21 22  1  0  0  0  0
 23 24  1  0  0  0  0
 23 21  1  0  0  0  0
 25 23  2  0  0  0  0
 26 25  1  0  0  0  0
 27 25  1  0  0  0  0
 27 20  1  0  0  0  0
M  END
>  <minimizedAffinity>
-4.67718458

$$$$

 OpenBabel03252508523D

 27 29  0  0  0  0  0  0  0  0999 V2000
   37.4170   28.8350   42.2430 C   0  0  0  0  0  0  0  0  0  0  0  0
   38.8030   28.7550   42.2240 C   0  0  0  0  0  0  0  0  0  0  0  0
   39.3610   27.4800   42.4240 C   0  0  0  0  0  0  0  0  0  0  0  0
   38.5210   26.4310   42.6200 N   0  0  0  0  0  0  0  0  0  0  0  0
   37.2000   26.5570   42.6310 C   0  0  0  0  0  0  0  0  0  0  0  0
   36.6360   27.7630   42.4410 N   0  0  0  0  0  0  0  0  0  0  0  0
   40.4250   27.3870   42.4140 H   0  0  0  0  0  0  0  0  0  0  0  0
   36.4950   25.7450   42.7830 H   0  0  0  0  0  0  0  0  0  0  0  0
   39.6000   29.9460   42.0040 C   0  0  0  0  0  0  0  0  0  0  0  0
   40.2030   30.2410   40.8010 C   0  0  0  0  0  0  0  0  0  0  0  0
   40.8440   31.4350   41.0340 C   0  0  0  0  0  0  0  0  0  0  0  0
   40.6440   31.8460   42.3030 N   0  0  0  0  0  0  0  0  0  0  0  0
   39.8890   30.9290   42.8670 N   0  0  0  0  0  0  0  0  0  0  0  0
   40.2250   29.7230   39.8510 H   0  0  0  0  0  0  0  0  0  0  0  0
   41.4550   32.0620   40.3780 H   0  0  0  0  0  0  0  0  0  0  0  0
   40.9390   32.6660   42.8750 H   0  0  0  0  0  0  0  0  0  0  0  0
   36.8310   30.0730   42.0490 O   0  0  0  0  0  0  0  0  0  0  0  0
   36.5250   30.6710   40.8610 C   0  0  0  0  0  0  0  0  0  0  0  0
   36.8110   31.8730   40.5060 O   0  0  0  0  0  0  0  0  0  0  0  0
   35.7800   29.9820   39.7640 C   0  0  0  0  0  0  0  0  0  0  0  0
   36.1300   29.8880   38.4110 C   0  0  0  0  0  0  0  0  0  0  0  0
   37.0540   30.3540   38.0330 H   0  0  0  0  0  0  0  0  0  0  0  0
   35.1970   29.1720   37.6970 C   0  0  0  0  0  0  0  0  0  0  0  0
   35.2270   28.9530   36.6380 H   0  0  0  0  0  0  0  0  0  0  0  0
   34.2820   28.8460   38.6730 C   0  0  0  0  0  0  0  0  0  0  0  0
   33.3680   28.2620   38.4950 H   0  0  0  0  0  0  0  0  0  0  0  0
   34.6530   29.3200   39.8090 O   0  0  0  0  0  0  0  0  0  0  0  0
  1  6  1  0  0  0  0
  2  1  2  0  0  0  0
  2  3  1  0  0  0  0
  3  4  2  0  0  0  0
  4  5  1  0  0  0  0
  5  8  1  0  0  0  0
  6  5  2  0  0  0  0
  7  3  1  0  0  0  0
  9  2  1  0  0  0  0
  9 13  2  0  0  0  0
 10 11  2  0  0  0  0
 10  9  1  0  0  0  0
 11 12  1  0  0  0  0
 12 13  1  0  0  0  0
 12 16  1  0  0  0  0
 14 10  1  0  0  0  0
 15 11  1  0  0  0  0
 17  1  1  0  0  0  0
 18 17  1  0  0  0  0
 19 18  2  0  0  0  0
 20 27  1  0  0  0  0
 20 18  1  0  0  0  0
 21 20  2  0  0  0  0
 22 21  1  0  0  0  0
 23 21  1  0  0  0  0
 23 25  2  0  0  0  0
 24 23  1  0  0  0  0
 25 27  1  0  0  0  0
 26 25  1  0  0  0  0
M  END
>  <minimizedAffinity>
-4.60725832

$$$$

 OpenBabel03252508523D

 27 29  0  0  0  0  0  0  0  0999 V2000
   39.0170   28.7980   42.7050 C   0  0  0  0  0  0  0  0  0  0  0  0
   38.0630   28.4570   41.7550 C   0  0  0  0  0  0  0  0  0  0  0  0
   37.9030   27.0850   41.4900 C   0  0  0  0  0  0  0  0  0  0  0  0
   38.6780   26.2010   42.1700 N   0  0  0  0  0  0  0  0  0  0  0  0
   39.5780   26.5770   43.0710 C   0  0  0  0  0  0  0  0  0  0  0  0
   39.7550   27.8800   43.3460 N   0  0  0  0  0  0  0  0  0  0  0  0
   37.1770   26.7920   40.7630 H   0  0  0  0  0  0  0  0  0  0  0  0
   40.2170   25.9020   43.6360 H   0  0  0  0  0  0  0  0  0  0  0  0
   37.2920   29.4900   41.0920 C   0  0  0  0  0  0  0  0  0  0  0  0
   37.3640   29.7360   39.7380 C   0  0  0  0  0  0  0  0  0  0  0  0
   36.4880   30.7780   39.5430 C   0  0  0  0  0  0  0  0  0  0  0  0
   35.9130   31.1460   40.7060 N   0  0  0  0  0  0  0  0  0  0  0  0
   36.4160   30.3520   41.6260 N   0  0  0  0  0  0  0  0  0  0  0  0
   37.9390   29.2780   38.9440 H   0  0  0  0  0  0  0  0  0  0  0  0
   36.2060   31.3170   38.6330 H   0  0  0  0  0  0  0  0  0  0  0  0
   35.2170   31.8640   40.9980 H   0  0  0  0  0  0  0  0  0  0  0  0
   39.2020   30.1380   42.9920 O   0  0  0  0  0  0  0  0  0  0  0  0
   40.1490   30.9750   42.4780 C   0  0  0  0  0  0  0  0  0  0  0  0
   41.3850   31.0490   42.8250 O   0  0  0  0  0  0  0  0  0  0  0  0
   39.8660   31.9670   41.3960 C   0  0  0  0  0  0  0  0  0  0  0  0
   40.6720   32.3020   40.3010 C   0  0  0  0  0  0  0  0  0  0  0  0
   41.6490   31.8170   40.1500 H   0  0  0  0  0  0  0  0  0  0  0  0
   40.0800   33.2620   39.5130 C   0  0  0  0  0  0  0  0  0  0  0  0
   40.4880   33.6940   38.6090 H   0  0  0  0  0  0  0  0  0  0  0  0
   38.8960   33.4840   40.1790 C   0  0  0  0  0  0  0  0  0  0  0  0
   38.1290   34.2010   39.8550 H   0  0  0  0  0  0  0  0  0  0  0  0
   38.8240   32.7380   41.2230 O   0  0  0  0  0  0  0  0  0  0  0  0
  1 17  1  0  0  0  0
  1  6  1  0  0  0  0
  2  1  2  0  0  0  0
  3  2  1  0  0  0  0
  3  4  2  0  0  0  0
  4  5  1  0  0  0  0
  5  6  2  0  0  0  0
  5  8  1  0  0  0  0
  7  3  1  0  0  0  0
  9 13  2  0  0  0  0
  9  2  1  0  0  0  0
 10  9  1  0  0  0  0
 11 10  2  0  0  0  0
 11 12  1  0  0  0  0
 12 16  1  0  0  0  0
 12 13  1  0  0  0  0
 14 10  1  0  0  0  0
 15 11  1  0  0  0  0
 18 19  2  0  0  0  0
 18 17  1  0  0  0  0
 20 18  1  0  0  0  0
 21 20  2  0  0  0  0
 22 21  1  0  0  0  0
 23 25  2  0  0  0  0
 23 21  1  0  0  0  0
 24 23  1  0  0  0  0
 25 27  1  0  0  0  0
 26 25  1  0  0  0  0
 27 20  1  0  0  0  0
M  END
>  <minimizedAffinity>
-4.52651787

$$$$

 OpenBabel03252508523D

 27 29  0  0  0  0  0  0  0  0999 V2000
   37.0740   29.7830   41.5730 C   0  0  0  0  0  0  0  0  0  0  0  0
   36.5140   28.6470   41.0040 C   0  0  0  0  0  0  0  0  0  0  0  0
   36.9300   27.4110   41.5300 C   0  0  0  0  0  0  0  0  0  0  0  0
   37.8370   27.4120   42.5410 N   0  0  0  0  0  0  0  0  0  0  0  0
   38.3440   28.5260   43.0530 C   0  0  0  0  0  0  0  0  0  0  0  0
   37.9660   29.7230   42.5720 N   0  0  0  0  0  0  0  0  0  0  0  0
   36.5170   26.5190   41.1120 H   0  0  0  0  0  0  0  0  0  0  0  0
   39.0690   28.5700   43.8610 H   0  0  0  0  0  0  0  0  0  0  0  0
   35.5520   28.7680   39.9260 C   0  0  0  0  0  0  0  0  0  0  0  0
   35.8610   28.5200   38.6060 C   0  0  0  0  0  0  0  0  0  0  0  0
   34.6810   28.7540   37.9400 C   0  0  0  0  0  0  0  0  0  0  0  0
   33.7090   29.1230   38.7990 N   0  0  0  0  0  0  0  0  0  0  0  0
   34.2620   29.1230   39.9930 N   0  0  0  0  0  0  0  0  0  0  0  0
   36.7760   28.2130   38.1170 H   0  0  0  0  0  0  0  0  0  0  0  0
   34.4320   28.6870   36.8760 H   0  0  0  0  0  0  0  0  0  0  0  0
   32.7030   29.3840   38.7190 H   0  0  0  0  0  0  0  0  0  0  0  0
   36.6880   31.0170   41.0820 O   0  0  0  0  0  0  0  0  0  0  0  0
   37.2860   31.7430   40.0930 C   0  0  0  0  0  0  0  0  0  0  0  0
   36.8620   31.9060   38.8910 O   0  0  0  0  0  0  0  0  0  0  0  0
   38.5750   32.4770   40.2800 C   0  0  0  0  0  0  0  0  0  0  0  0
   38.8170   33.8470   40.1260 C   0  0  0  0  0  0  0  0  0  0  0  0
   38.0070   34.5340   39.8320 H   0  0  0  0  0  0  0  0  0  0  0  0
   40.1310   34.1610   40.3830 C   0  0  0  0  0  0  0  0  0  0  0  0
   40.5800   35.1440   40.3370 H   0  0  0  0  0  0  0  0  0  0  0  0
   40.6600   32.9280   40.6950 C   0  0  0  0  0  0  0  0  0  0  0  0
   41.7110   32.7570   40.9660 H   0  0  0  0  0  0  0  0  0  0  0  0
   39.7520   32.0220   40.6240 O   0  0  0  0  0  0  0  0  0  0  0  0
  1  6  1  0  0  0  0
  2  3  1  0  0  0  0
  2  1  2  0  0  0  0
  3  4  2  0  0  0  0
  4  5  1  0  0  0  0
  5  8  1  0  0  0  0
  6  5  2  0  0  0  0
  7  3  1  0  0  0  0
  9 13  2  0  0  0  0
  9  2  1  0  0  0  0
 10  9  1  0  0  0  0
 11 10  2  0  0  0  0
 11 12  1  0  0  0  0
 12 13  1  0  0  0  0
 14 10  1  0  0  0  0
 15 11  1  0  0  0  0
 16 12  1  0  0  0  0
 17  1  1  0  0  0  0
 18 20  1  0  0  0  0
 18 17  1  0  0  0  0
 19 18  2  0  0  0  0
 20 27  1  0  0  0  0
 21 20  2  0  0  0  0
 21 23  1  0  0  0  0
 22 21  1  0  0  0  0
 23 25  2  0  0  0  0
 24 23  1  0  0  0  0
 25 26  1  0  0  0  0
 27 25  1  0  0  0  0
M  END
>  <minimizedAffinity>
-4.52292299

$$$$

 OpenBabel03252508523D

 27 29  0  0  0  0  0  0  0  0999 V2000
   37.0840   28.4610   41.8340 C   0  0  0  0  0  0  0  0  0  0  0  0
   37.8760   27.3210   41.8260 C   0  0  0  0  0  0  0  0  0  0  0  0
   39.1550   27.4400   42.4000 C   0  0  0  0  0  0  0  0  0  0  0  0
   39.5220   28.6420   42.9140 N   0  0  0  0  0  0  0  0  0  0  0  0
   38.7280   29.7050   42.8990 C   0  0  0  0  0  0  0  0  0  0  0  0
   37.5000   29.6230   42.3580 N   0  0  0  0  0  0  0  0  0  0  0  0
   39.7870   26.5790   42.4070 H   0  0  0  0  0  0  0  0  0  0  0  0
   38.9830   30.6830   43.3000 H   0  0  0  0  0  0  0  0  0  0  0  0
   37.3760   26.0890   41.2470 C   0  0  0  0  0  0  0  0  0  0  0  0
   36.9360   25.0230   42.0020 C   0  0  0  0  0  0  0  0  0  0  0  0
   36.5610   24.0870   41.0670 C   0  0  0  0  0  0  0  0  0  0  0  0
   36.7590   24.5510   39.8160 N   0  0  0  0  0  0  0  0  0  0  0  0
   37.2520   25.7630   39.9540 N   0  0  0  0  0  0  0  0  0  0  0  0
   36.8640   24.8680   43.0700 H   0  0  0  0  0  0  0  0  0  0  0  0
   36.1490   23.0800   41.1850 H   0  0  0  0  0  0  0  0  0  0  0  0
   36.6160   24.1810   38.8530 H   0  0  0  0  0  0  0  0  0  0  0  0
   35.8200   28.3820   41.2790 O   0  0  0  0  0  0  0  0  0  0  0  0
   35.3790   28.9670   40.1270 C   0  0  0  0  0  0  0  0  0  0  0  0
   34.1590   29.2070   39.8010 O   0  0  0  0  0  0  0  0  0  0  0  0
   36.2950   29.4260   39.0390 C   0  0  0  0  0  0  0  0  0  0  0  0
   36.6650   30.7380   38.7190 C   0  0  0  0  0  0  0  0  0  0  0  0
   36.2730   31.5910   39.2950 H   0  0  0  0  0  0  0  0  0  0  0  0
   37.5290   30.7730   37.6490 C   0  0  0  0  0  0  0  0  0  0  0  0
   37.9650   31.6570   37.2020 H   0  0  0  0  0  0  0  0  0  0  0  0
   37.6580   29.4360   37.3460 C   0  0  0  0  0  0  0  0  0  0  0  0
   38.2810   29.0440   36.5300 H   0  0  0  0  0  0  0  0  0  0  0  0
   36.9510   28.7260   38.1500 O   0  0  0  0  0  0  0  0  0  0  0  0
  1  6  1  0  0  0  0
  2  1  2  0  0  0  0
  2  3  1  0  0  0  0
  3  7  1  0  0  0  0
  3  4  2  0  0  0  0
  5  4  1  0  0  0  0
  5  8  1  0  0  0  0
  6  5  2  0  0  0  0
  9  2  1  0  0  0  0
  9 10  1  0  0  0  0
 10 14  1  0  0  0  0
 11 15  1  0  0  0  0
 11 10  2  0  0  0  0
 12 13  1  0  0  0  0
 12 11  1  0  0  0  0
 13  9  2  0  0  0  0
 16 12  1  0  0  0  0
 17  1  1  0  0  0  0
 18 17  1  0  0  0  0
 19 18  2  0  0  0  0
 20 18  1  0  0  0  0
 21 20  2  0  0  0  0
 21 22  1  0  0  0  0
 23 21  1  0  0  0  0
 24 23  1  0  0  0  0
 25 23  2  0  0  0  0
 25 27  1  0  0  0  0
 26 25  1  0  0  0  0
 27 20  1  0  0  0  0
M  END
>  <minimizedAffinity>
-4.52084732

$$$$

 OpenBabel03252508523D

 27 29  0  0  0  0  0  0  0  0999 V2000
   36.8230   28.0560   39.5190 C   0  0  0  0  0  0  0  0  0  0  0  0
   36.1670   29.1570   38.9840 C   0  0  0  0  0  0  0  0  0  0  0  0
   35.1300   28.8880   38.0730 C   0  0  0  0  0  0  0  0  0  0  0  0
   34.8460   27.5920   37.7810 N   0  0  0  0  0  0  0  0  0  0  0  0
   35.5030   26.5720   38.3190 C   0  0  0  0  0  0  0  0  0  0  0  0
   36.4990   26.7960   39.1940 N   0  0  0  0  0  0  0  0  0  0  0  0
   34.6070   29.7150   37.6440 H   0  0  0  0  0  0  0  0  0  0  0  0
   35.3060   25.5230   38.1140 H   0  0  0  0  0  0  0  0  0  0  0  0
   36.5580   30.4980   39.3700 C   0  0  0  0  0  0  0  0  0  0  0  0
   37.3390   31.3150   38.5820 C   0  0  0  0  0  0  0  0  0  0  0  0
   37.4620   32.4690   39.3190 C   0  0  0  0  0  0  0  0  0  0  0  0
   36.7980   32.3650   40.4880 N   0  0  0  0  0  0  0  0  0  0  0  0
   36.2600   31.1650   40.4930 N   0  0  0  0  0  0  0  0  0  0  0  0
   37.7890   31.1730   37.6080 H   0  0  0  0  0  0  0  0  0  0  0  0
   37.9910   33.4030   39.1060 H   0  0  0  0  0  0  0  0  0  0  0  0
   36.6380   32.9830   41.3120 H   0  0  0  0  0  0  0  0  0  0  0  0
   37.8480   28.2810   40.4200 O   0  0  0  0  0  0  0  0  0  0  0  0
   37.9050   27.8960   41.7280 C   0  0  0  0  0  0  0  0  0  0  0  0
   37.3610   28.4870   42.7310 O   0  0  0  0  0  0  0  0  0  0  0  0
   38.6440   26.6820   42.1930 C   0  0  0  0  0  0  0  0  0  0  0  0
   39.3940   26.5270   43.3660 C   0  0  0  0  0  0  0  0  0  0  0  0
   39.4990   27.3560   44.0830 H   0  0  0  0  0  0  0  0  0  0  0  0
   39.9310   25.2640   43.4580 C   0  0  0  0  0  0  0  0  0  0  0  0
   40.5490   24.8840   44.2610 H   0  0  0  0  0  0  0  0  0  0  0  0
   39.4740   24.6760   42.2990 C   0  0  0  0  0  0  0  0  0  0  0  0
   39.6950   23.6420   42.0010 H   0  0  0  0  0  0  0  0  0  0  0  0
   38.7600   25.5090   41.6290 O   0  0  0  0  0  0  0  0  0  0  0  0
  1 17  1  0  0  0  0
  2  9  1  0  0  0  0
  2  1  2  0  0  0  0
  3  2  1  0  0  0  0
  4  3  2  0  0  0  0
  4  5  1  0  0  0  0
  5  6  2  0  0  0  0
  6  1  1  0  0  0  0
  7  3  1  0  0  0  0
  8  5  1  0  0  0  0
  9 13  2  0  0  0  0
 10 11  2  0  0  0  0
 10  9  1  0  0  0  0
 11 12  1  0  0  0  0
 12 13  1  0  0  0  0
 12 16  1  0  0  0  0
 14 10  1  0  0  0  0
 15 11  1  0  0  0  0
 17 18  1  0  0  0  0
 18 20  1  0  0  0  0
 18 19  2  0  0  0  0
 20 21  2  0  0  0  0
 21 23  1  0  0  0  0
 21 22  1  0  0  0  0
 23 24  1  0  0  0  0
 25 23  2  0  0  0  0
 26 25  1  0  0  0  0
 27 20  1  0  0  0  0
 27 25  1  0  0  0  0
M  END
>  <minimizedAffinity>
-4.51921082

$$$$
