
 OpenBabel03242514233D

 33 36  0  0  0  0  0  0  0  0999 V2000
   44.7710   33.1340   41.1130 Cl  0  0  0  0  0  0  0  0  0  0  0  0
   46.3090   33.9500   40.9010 C   0  0  0  0  0  0  0  0  0  0  0  0
   46.8270   34.7050   41.9120 C   0  0  0  0  0  0  0  0  0  0  0  0
   48.0480   35.3590   41.7580 C   0  0  0  0  0  0  0  0  0  0  0  0
   48.6840   35.2040   40.5580 C   0  0  0  0  0  0  0  0  0  0  0  0
   48.1580   34.4400   39.5390 C   0  0  0  0  0  0  0  0  0  0  0  0
   46.9620   33.8070   39.7050 C   0  0  0  0  0  0  0  0  0  0  0  0
   48.4810   35.9590   42.5380 H   0  0  0  0  0  0  0  0  0  0  0  0
   49.6470   35.6670   40.3230 H   0  0  0  0  0  0  0  0  0  0  0  0
   48.6580   34.3110   38.5790 H   0  0  0  0  0  0  0  0  0  0  0  0
   45.6000   34.0370   45.3220 C   0  0  0  0  0  0  0  0  0  0  0  0
   44.7180   35.1050   45.5320 C   0  0  0  0  0  0  0  0  0  0  0  0
   44.5500   36.0370   44.5170 C   0  0  0  0  0  0  0  0  0  0  0  0
   45.2480   35.8690   43.3730 N   0  0  0  0  0  0  0  0  0  0  0  0
   46.0980   34.8330   43.1770 C   0  0  0  0  0  0  0  0  0  0  0  0
   46.2790   33.9090   44.1550 N   0  0  0  0  0  0  0  0  0  0  0  0
   45.7180   33.3150   46.1320 H   0  0  0  0  0  0  0  0  0  0  0  0
   44.1530   35.2680   46.4200 H   0  0  0  0  0  0  0  0  0  0  0  0
   43.9240   36.9000   44.5140 H   0  0  0  0  0  0  0  0  0  0  0  0
   46.3760   32.9910   38.6480 C   0  0  0  0  0  0  0  0  0  0  0  0
   45.4490   33.3570   37.7530 N   0  0  0  0  0  0  0  0  0  0  0  0
   45.1760   32.3140   36.9500 C   0  0  0  0  0  0  0  0  0  0  0  0
   45.9410   31.2710   37.3430 N   0  0  0  0  0  0  0  0  0  0  0  0
   46.6730   31.6980   38.3850 N   0  0  0  0  0  0  0  0  0  0  0  0
   44.5060   32.2000   36.1240 H   0  0  0  0  0  0  0  0  0  0  0  0
   46.0920   29.9300   36.8870 C   0  0  0  0  0  0  0  0  0  0  0  0
   45.0740   29.4160   36.0760 C   0  0  0  0  0  0  0  0  0  0  0  0
   44.1450   29.8220   35.6910 H   0  0  0  0  0  0  0  0  0  0  0  0
   45.4460   28.1100   35.7650 C   0  0  0  0  0  0  0  0  0  0  0  0
   45.0070   27.3050   35.1790 H   0  0  0  0  0  0  0  0  0  0  0  0
   46.6730   27.9120   36.4100 C   0  0  0  0  0  0  0  0  0  0  0  0
   47.3670   27.0760   36.4810 H   0  0  0  0  0  0  0  0  0  0  0  0
   47.0120   29.0130   37.0580 O   0  0  0  0  0  0  0  0  0  0  0  0
  2  1  1  0  0  0  0
  2  3  1  0  0  0  0
  3 15  1  0  0  0  0
  4  3  2  0  0  0  0
  4  8  1  0  0  0  0
  5  4  1  0  0  0  0
  6  7  1  0  0  0  0
  6  5  2  0  0  0  0
  7  2  2  0  0  0  0
  9  5  1  0  0  0  0
 10  6  1  0  0  0  0
 11 12  1  0  0  0  0
 11 17  1  0  0  0  0
 12 18  1  0  0  0  0
 13 12  2  0  0  0  0
 14 13  1  0  0  0  0
 15 14  2  0  0  0  0
 15 16  1  0  0  0  0
 16 11  2  0  0  0  0
 19 13  1  0  0  0  0
 20  7  1  0  0  0  0
 21 20  1  0  0  0  0
 22 23  1  0  0  0  0
 22 21  2  0  0  0  0
 23 24  1  0  0  0  0
 24 20  2  0  0  0  0
 25 22  1  0  0  0  0
 26 33  1  0  0  0  0
 26 23  1  0  0  0  0
 27 26  2  0  0  0  0
 28 27  1  0  0  0  0
 29 27  1  0  0  0  0
 29 31  2  0  0  0  0
 30 29  1  0  0  0  0
 31 32  1  0  0  0  0
 31 33  1  0  0  0  0
M  END
>  <minimizedAffinity>
-5.32420921

>  <minimizedRMSD>
0.158421725

$$$$
