
 OpenBabel03252504283D

 26 27  0  0  0  0  0  0  0  0999 V2000
   43.3080   35.7290   41.4440 O   0  0  0  0  0  0  0  0  0  0  0  0
   44.4710   35.0160   41.6230 C   0  0  0  0  0  0  0  0  0  0  0  0
   45.3530   35.6920   41.3450 H   0  0  0  0  0  0  0  0  0  0  0  0
   44.4760   34.1090   41.0010 H   0  0  0  0  0  0  0  0  0  0  0  0
   44.4480   35.6610   43.9240 C   0  0  0  0  0  0  0  0  0  0  0  0
   44.7600   34.6340   43.0180 C   0  0  0  0  0  0  0  0  0  0  0  0
   45.2800   33.4820   43.5440 C   0  0  0  0  0  0  0  0  0  0  0  0
   45.4490   33.4250   44.8620 N   0  0  0  0  0  0  0  0  0  0  0  0
   45.1540   34.3980   45.7170 C   0  0  0  0  0  0  0  0  0  0  0  0
   44.6230   35.5980   45.2710 N   0  0  0  0  0  0  0  0  0  0  0  0
   44.0250   36.6400   43.6530 H   0  0  0  0  0  0  0  0  0  0  0  0
   45.4930   32.7410   42.7870 H   0  0  0  0  0  0  0  0  0  0  0  0
   45.3620   34.1570   46.7320 H   0  0  0  0  0  0  0  0  0  0  0  0
   42.0240   35.2270   41.3110 C   0  0  0  0  0  3  0  0  0  0  0  0
   41.0930   36.0910   40.8390 C   0  0  0  0  0  3  0  0  0  0  0  0
   39.6430   35.7500   40.5560 C   0  0  0  0  0  0  0  0  0  0  0  0
   39.1310   36.6490   40.1760 H   0  0  0  0  0  0  0  0  0  0  0  0
   39.1990   35.4690   41.5100 H   0  0  0  0  0  0  0  0  0  0  0  0
   39.6420   34.6390   39.5640 C   0  0  0  0  0  0  0  0  0  0  0  0
   39.9690   34.6740   38.2280 C   0  0  0  0  0  0  0  0  0  0  0  0
   40.2890   35.5510   37.6770 H   0  0  0  0  0  0  0  0  0  0  0  0
   39.7960   33.3670   37.7790 C   0  0  0  0  0  0  0  0  0  0  0  0
   39.9690   33.0320   36.7500 H   0  0  0  0  0  0  0  0  0  0  0  0
   39.3730   32.6140   38.8730 C   0  0  0  0  0  0  0  0  0  0  0  0
   39.1520   31.5540   38.8420 H   0  0  0  0  0  0  0  0  0  0  0  0
   39.2920   33.4100   39.9260 O   0  0  0  0  0  0  0  0  0  0  0  0
  1  2  1  0  0  0  0
  2  6  1  0  0  0  0
  3  2  1  0  0  0  0
  4  2  1  0  0  0  0
  5 10  1  0  0  0  0
  6  7  1  0  0  0  0
  6  5  2  0  0  0  0
  7  8  2  0  0  0  0
  8  9  1  0  0  0  0
  9 13  1  0  0  0  0
 10  9  2  0  0  0  0
 11  5  1  0  0  0  0
 12  7  1  0  0  0  0
 14  1  1  0  0  0  0
 15 14  2  0  0  0  0
 16 15  1  0  0  0  0
 16 18  1  0  0  0  0
 17 16  1  0  0  0  0
 19 26  1  0  0  0  0
 19 16  1  0  0  0  0
 20 19  2  0  0  0  0
 21 20  1  0  0  0  0
 22 20  1  0  0  0  0
 22 24  2  0  0  0  0
 23 22  1  0  0  0  0
 24 26  1  0  0  0  0
 25 24  1  0  0  0  0
M  END
>  <minimizedAffinity>
-4.35444832

>  <minimizedRMSD>
1.01614714

$$$$
