
 OpenBabel03252509263D

 29 31  0  0  1  0  0  0  0  0999 V2000
   46.5860   35.0850   41.9130 C   0  0  1  0  0  0  0  0  0  0  0  0
   48.1230   35.2980   41.9160 C   0  0  0  0  0  0  0  0  0  0  0  0
   47.3600   34.0860   41.2990 C   0  0  2  0  0  0  0  0  0  0  0  0
   46.0830   35.9020   41.3740 H   0  0  0  0  0  0  0  0  0  0  0  0
   48.5390   35.9510   41.1360 H   0  0  0  0  0  0  0  0  0  0  0  0
   48.6880   35.0720   42.8250 H   0  0  0  0  0  0  0  0  0  0  0  0
   47.5160   33.1140   41.8490 H   0  0  0  0  0  0  0  0  0  0  0  0
   44.6570   35.4090   45.1100 C   0  0  0  0  0  0  0  0  0  0  0  0
   45.1290   35.7100   43.8060 C   0  0  0  0  0  0  0  0  0  0  0  0
   46.0730   34.8650   43.3120 C   0  0  0  0  0  0  0  0  0  0  0  0
   46.5340   33.7940   44.0380 N   0  0  0  0  0  0  0  0  0  0  0  0
   46.0580   33.5430   45.2770 C   0  0  0  0  0  0  0  0  0  0  0  0
   45.1170   34.3550   45.8130 N   0  0  0  0  0  0  0  0  0  0  0  0
   43.9000   36.0710   45.5240 H   0  0  0  0  0  0  0  0  0  0  0  0
   46.3940   32.7150   45.8800 H   0  0  0  0  0  0  0  0  0  0  0  0
   44.6600   36.8340   43.0870 N   0  0  0  0  0  0  0  0  0  0  0  0
   43.7760   37.0370   42.5760 H   0  0  0  0  0  0  0  0  0  0  0  0
   45.4680   37.5200   43.1710 H   0  0  0  0  0  0  0  0  0  0  0  0
   47.3910   33.9070   39.8000 C   0  0  0  0  0  0  0  0  0  0  0  0
   48.3210   33.4180   39.5090 H   0  0  0  0  0  0  0  0  0  0  0  0
   47.2730   34.8710   39.2630 H   0  0  0  0  0  0  0  0  0  0  0  0
   46.2360   33.0030   39.4910 C   0  0  0  0  0  0  0  0  0  0  0  0
   45.4450   33.0110   38.3670 C   0  0  0  0  0  0  0  0  0  0  0  0
   45.5510   33.6830   37.5420 H   0  0  0  0  0  0  0  0  0  0  0  0
   44.5140   31.9970   38.5350 C   0  0  0  0  0  0  0  0  0  0  0  0
   43.7350   31.7290   37.8310 H   0  0  0  0  0  0  0  0  0  0  0  0
   44.7950   31.4180   39.7690 C   0  0  0  0  0  0  0  0  0  0  0  0
   44.1930   30.5970   40.1180 H   0  0  0  0  0  0  0  0  0  0  0  0
   45.8170   32.0440   40.2950 O   0  0  0  0  0  0  0  0  0  0  0  0
  1  4  1  6  0  0  0
  1  2  1  0  0  0  0
  1 10  1  0  0  0  0
  2  6  1  0  0  0  0
  3  7  1  1  0  0  0
  3  1  1  0  0  0  0
  3  2  1  0  0  0  0
  5  2  1  0  0  0  0
  8 14  1  0  0  0  0
  8 13  1  0  0  0  0
  9  8  2  0  0  0  0
 10  9  1  0  0  0  0
 10 11  2  0  0  0  0
 11 12  1  0  0  0  0
 12 13  2  0  0  0  0
 12 15  1  0  0  0  0
 16 18  1  0  0  0  0
 16  9  1  0  0  0  0
 17 16  1  0  0  0  0
 19  3  1  0  0  0  0
 20 19  1  0  0  0  0
 21 19  1  0  0  0  0
 22 19  1  0  0  0  0
 22 29  1  0  0  0  0
 23 25  1  0  0  0  0
 23 22  2  0  0  0  0
 24 23  1  0  0  0  0
 25 27  2  0  0  0  0
 26 25  1  0  0  0  0
 27 28  1  0  0  0  0
 27 29  1  0  0  0  0
M  END
>  <minimizedAffinity>
-4.38611889

>  <minimizedRMSD>
0.712639987

$$$$
