
 OpenBabel03252508593D

 44 46  0  0  1  0  0  0  0  0999 V2000
   47.2700   33.8530   42.9510 N   0  0  0  0  0  0  0  0  0  0  0  0
   46.9430   35.1710   42.5460 C   0  0  0  0  0  0  0  0  0  0  0  0
   45.5070   35.5820   42.8000 C   0  0  0  0  0  0  0  0  0  0  0  0
   44.8860   34.9620   44.0220 C   0  0  0  0  0  0  0  0  0  0  0  0
   45.8910   34.1470   44.8010 C   0  0  0  0  0  0  0  0  0  0  0  0
   46.4120   33.1080   43.7410 C   0  0  2  0  0  0  0  0  0  0  0  0
   47.1810   35.4310   41.5080 H   0  0  0  0  0  0  0  0  0  0  0  0
   47.5800   35.8590   43.1680 H   0  0  0  0  0  0  0  0  0  0  0  0
   44.8910   35.4380   41.8880 H   0  0  0  0  0  0  0  0  0  0  0  0
   45.4850   36.6870   42.9740 H   0  0  0  0  0  0  0  0  0  0  0  0
   44.4670   35.6950   44.7270 H   0  0  0  0  0  0  0  0  0  0  0  0
   44.0750   34.2850   43.7130 H   0  0  0  0  0  0  0  0  0  0  0  0
   45.3740   33.6150   45.6080 H   0  0  0  0  0  0  0  0  0  0  0  0
   46.7660   34.7080   45.1280 H   0  0  0  0  0  0  0  0  0  0  0  0
   45.5280   32.6430   43.2590 H   0  0  0  0  0  0  0  0  0  0  0  0
   48.1620   33.1650   42.0590 C   0  0  0  0  0  0  0  0  0  0  0  0
   48.9070   33.9070   41.6880 H   0  0  0  0  0  0  0  0  0  0  0  0
   48.7090   32.3540   42.5820 H   0  0  0  0  0  0  0  0  0  0  0  0
   47.3510   32.5530   40.9570 C   0  0  0  0  0  0  0  0  0  0  0  0
   46.3030   32.9590   40.9550 H   0  0  0  0  0  0  0  0  0  0  0  0
   47.2590   31.4560   41.0340 H   0  0  0  0  0  0  0  0  0  0  0  0
   49.3200   32.3290   37.7680 C   0  0  0  0  0  0  0  0  0  0  0  0
   48.7460   31.9930   39.0090 C   0  0  0  0  0  0  0  0  0  0  0  0
   47.9520   32.9170   39.6490 C   0  0  0  0  0  0  0  0  0  0  0  0
   47.7660   34.0970   39.0490 N   0  0  0  0  0  0  0  0  0  0  0  0
   48.3180   34.4100   37.8640 C   0  0  0  0  0  0  0  0  0  0  0  0
   49.1020   33.5240   37.2110 N   0  0  0  0  0  0  0  0  0  0  0  0
   49.9430   31.6700   37.2160 H   0  0  0  0  0  0  0  0  0  0  0  0
   48.9780   31.0060   39.3800 H   0  0  0  0  0  0  0  0  0  0  0  0
   48.1450   35.3840   37.4030 H   0  0  0  0  0  0  0  0  0  0  0  0
   47.0990   32.2130   44.5470 O   0  0  0  0  0  0  0  0  0  0  0  0
   45.1040   30.5990   43.8450 O   0  0  0  0  0  0  0  0  0  0  0  0
   46.2130   30.8220   44.8810 P   0  0  2  0  0  0  0  0  0  0  0  0
   45.3740   31.1400   46.3420 O   0  0  0  0  0  0  0  0  0  0  0  0
   45.9800   31.6320   46.9620 H   0  0  0  0  0  0  0  0  0  0  0  0
   47.1550   29.4850   45.1160 O   0  0  0  0  0  0  0  0  0  0  0  0
   48.5160   29.3490   45.1390 C   0  0  0  0  0  0  0  0  0  0  0  0
   49.1890   29.0700   46.3330 C   0  0  0  0  0  0  0  0  0  0  0  0
   48.7770   28.9320   47.3250 H   0  0  0  0  0  0  0  0  0  0  0  0
   50.5360   29.0050   45.9720 C   0  0  0  0  0  0  0  0  0  0  0  0
   51.3020   28.7940   46.7340 H   0  0  0  0  0  0  0  0  0  0  0  0
   50.6010   29.2450   44.5980 C   0  0  0  0  0  0  0  0  0  0  0  0
   51.5920   29.2270   44.1630 H   0  0  0  0  0  0  0  0  0  0  0  0
   49.3870   29.4420   44.1560 O   0  0  0  0  0  0  0  0  0  0  0  0
  1  6  1  0  0  0  0
  2  3  1  0  0  0  0
  2  1  1  0  0  0  0
  2  8  1  0  0  0  0
  3 10  1  0  0  0  0
  3  4  1  0  0  0  0
  4 11  1  0  0  0  0
  4  5  1  0  0  0  0
  5 14  1  0  0  0  0
  5 13  1  0  0  0  0
  6 15  1  6  0  0  0
  6 31  1  0  0  0  0
  6  5  1  0  0  0  0
  7  2  1  0  0  0  0
  9  3  1  0  0  0  0
 12  4  1  0  0  0  0
 16 18  1  0  0  0  0
 16  1  1  0  0  0  0
 17 16  1  0  0  0  0
 19 21  1  0  0  0  0
 19 16  1  0  0  0  0
 20 19  1  0  0  0  0
 22 23  1  0  0  0  0
 23 29  1  0  0  0  0
 23 24  2  0  0  0  0
 24 19  1  0  0  0  0
 25 24  1  0  0  0  0
 26 25  2  0  0  0  0
 27 22  2  0  0  0  0
 27 26  1  0  0  0  0
 28 22  1  0  0  0  0
 30 26  1  0  0  0  0
 31 33  1  0  0  0  0
 33 32  2  6  0  0  0
 33 36  1  0  0  0  0
 33 34  1  0  0  0  0
 34 35  1  0  0  0  0
 36 37  1  0  0  0  0
 37 38  2  0  0  0  0
 38 39  1  0  0  0  0
 40 38  1  0  0  0  0
 40 41  1  0  0  0  0
 42 40  2  0  0  0  0
 43 42  1  0  0  0  0
 44 42  1  0  0  0  0
 44 37  1  0  0  0  0
M  END
>  <minimizedAffinity>
-3.88461804

>  <minimizedRMSD>
1.13081777

$$$$
