
 OpenBabel03252505403D

 27 29  0  0  1  0  0  0  0  0999 V2000
   44.9270   34.0480   43.3790 C   0  0  1  0  0  0  0  0  0  0  0  0
   45.2930   35.4740   43.8100 C   0  0  0  0  0  0  0  0  0  0  0  0
   45.7890   34.8730   42.5370 C   0  0  1  0  0  0  0  0  0  0  0  0
   43.8650   33.8910   43.0870 H   0  0  0  0  0  0  0  0  0  0  0  0
   45.9370   35.5610   44.6980 H   0  0  0  0  0  0  0  0  0  0  0  0
   44.4370   36.1770   43.7950 H   0  0  0  0  0  0  0  0  0  0  0  0
   45.3060   35.3090   41.6120 H   0  0  0  0  0  0  0  0  0  0  0  0
   45.4240   32.9760   44.2660 C   0  0  0  0  0  0  0  0  0  0  0  0
   45.6320   31.7090   43.6630 C   0  0  0  0  0  0  0  0  0  0  0  0
   46.1170   30.6900   44.4650 C   0  0  0  0  0  0  0  0  0  0  0  0
   46.3640   30.9670   45.7830 N   0  0  0  0  0  0  0  0  0  0  0  0
   46.1520   32.1840   46.3110 C   0  0  0  0  0  0  0  0  0  0  0  0
   45.6810   33.1830   45.5430 N   0  0  0  0  0  0  0  0  0  0  0  0
   45.4430   31.4410   42.6320 H   0  0  0  0  0  0  0  0  0  0  0  0
   46.2920   29.7090   44.0600 H   0  0  0  0  0  0  0  0  0  0  0  0
   46.4870   32.2730   47.7670 C   0  0  0  0  0  0  0  0  0  0  0  0
   45.5140   32.9290   48.4770 F   0  0  0  0  0  0  0  0  0  0  0  0
   47.6990   32.9460   47.9370 F   0  0  0  0  0  0  0  0  0  0  0  0
   46.6960   30.9860   48.2580 F   0  0  0  0  0  0  0  0  0  0  0  0
   47.2760   34.7930   42.5170 C   0  0  0  0  0  0  0  0  0  0  0  0
   47.9750   35.4200   41.5050 C   0  0  0  0  0  0  0  0  0  0  0  0
   47.6430   36.0140   40.6390 H   0  0  0  0  0  0  0  0  0  0  0  0
   49.3290   35.2000   41.7100 C   0  0  0  0  0  0  0  0  0  0  0  0
   50.2040   35.5160   41.1510 H   0  0  0  0  0  0  0  0  0  0  0  0
   49.3790   34.4440   42.8460 C   0  0  0  0  0  0  0  0  0  0  0  0
   50.2870   34.0820   43.3070 H   0  0  0  0  0  0  0  0  0  0  0  0
   48.1800   34.2330   43.2770 O   0  0  0  0  0  0  0  0  0  0  0  0
  1  4  1  6  0  0  0
  1  2  1  0  0  0  0
  1  8  1  0  0  0  0
  2  5  1  0  0  0  0
  3  7  1  6  0  0  0
  3  1  1  0  0  0  0
  3  2  1  0  0  0  0
  6  2  1  0  0  0  0
  8 13  1  0  0  0  0
  9  8  2  0  0  0  0
  9 10  1  0  0  0  0
 10 11  2  0  0  0  0
 11 12  1  0  0  0  0
 12 16  1  0  0  0  0
 13 12  2  0  0  0  0
 14  9  1  0  0  0  0
 15 10  1  0  0  0  0
 16 18  1  0  0  0  0
 16 19  1  0  0  0  0
 16 17  1  0  0  0  0
 20  3  1  0  0  0  0
 20 27  1  0  0  0  0
 21 23  1  0  0  0  0
 21 20  2  0  0  0  0
 22 21  1  0  0  0  0
 23 25  2  0  0  0  0
 24 23  1  0  0  0  0
 25 27  1  0  0  0  0
 25 26  1  0  0  0  0
M  END
>  <minimizedAffinity>
-4.91778374

>  <minimizedRMSD>
1.61251044

$$$$
