
 OpenBabel03252504283D

 26 27  0  0  0  0  0  0  0  0999 V2000
   43.8110   35.3990   40.8850 O   0  0  0  0  0  0  0  0  0  0  0  0
   44.5580   34.3430   41.3540 C   0  0  0  0  0  0  0  0  0  0  0  0
   45.6180   34.4370   40.9320 H   0  0  0  0  0  0  0  0  0  0  0  0
   44.1140   33.3830   41.0540 H   0  0  0  0  0  0  0  0  0  0  0  0
   44.4330   35.5560   43.4090 C   0  0  0  0  0  0  0  0  0  0  0  0
   44.7700   34.3290   42.8140 C   0  0  0  0  0  0  0  0  0  0  0  0
   45.2420   33.3480   43.6440 C   0  0  0  0  0  0  0  0  0  0  0  0
   45.3450   33.6310   44.9390 N   0  0  0  0  0  0  0  0  0  0  0  0
   45.0260   34.7910   45.5000 C   0  0  0  0  0  0  0  0  0  0  0  0
   44.5390   35.8390   44.7350 N   0  0  0  0  0  0  0  0  0  0  0  0
   44.0420   36.4350   42.8740 H   0  0  0  0  0  0  0  0  0  0  0  0
   45.4780   32.4370   43.1130 H   0  0  0  0  0  0  0  0  0  0  0  0
   45.1790   34.8170   46.5520 H   0  0  0  0  0  0  0  0  0  0  0  0
   42.5840   35.3440   40.2460 C   0  0  0  0  0  3  0  0  0  0  0  0
   41.5170   35.7630   40.9690 C   0  0  0  0  0  3  0  0  0  0  0  0
   40.0910   35.8490   40.4610 C   0  0  0  0  0  0  0  0  0  0  0  0
   40.1000   36.2550   39.4360 H   0  0  0  0  0  0  0  0  0  0  0  0
   39.5710   36.5490   41.1130 H   0  0  0  0  0  0  0  0  0  0  0  0
   39.5240   34.4720   40.5170 C   0  0  0  0  0  0  0  0  0  0  0  0
   39.6990   33.5050   41.4790 C   0  0  0  0  0  0  0  0  0  0  0  0
   40.2990   33.6040   42.3760 H   0  0  0  0  0  0  0  0  0  0  0  0
   38.9490   32.4180   41.0380 C   0  0  0  0  0  0  0  0  0  0  0  0
   38.8610   31.4630   41.5680 H   0  0  0  0  0  0  0  0  0  0  0  0
   38.3620   32.7910   39.8310 C   0  0  0  0  0  0  0  0  0  0  0  0
   37.7150   32.1550   39.2380 H   0  0  0  0  0  0  0  0  0  0  0  0
   38.7300   34.0310   39.5490 O   0  0  0  0  0  0  0  0  0  0  0  0
  1  2  1  0  0  0  0
  2  6  1  0  0  0  0
  3  2  1  0  0  0  0
  4  2  1  0  0  0  0
  5 10  1  0  0  0  0
  6  5  2  0  0  0  0
  6  7  1  0  0  0  0
  7  8  2  0  0  0  0
  8  9  1  0  0  0  0
  9 13  1  0  0  0  0
 10  9  2  0  0  0  0
 11  5  1  0  0  0  0
 12  7  1  0  0  0  0
 14  1  1  0  0  0  0
 14 15  2  0  0  0  0
 16 19  1  0  0  0  0
 16 15  1  0  0  0  0
 16 18  1  0  0  0  0
 17 16  1  0  0  0  0
 19 20  2  0  0  0  0
 20 21  1  0  0  0  0
 22 20  1  0  0  0  0
 22 23  1  0  0  0  0
 24 22  2  0  0  0  0
 25 24  1  0  0  0  0
 26 24  1  0  0  0  0
 26 19  1  0  0  0  0
M  END
>  <minimizedAffinity>
-4.52187061

>  <minimizedRMSD>
1.55257308

$$$$
