
 OpenBabel03252509263D

 29 31  0  0  1  0  0  0  0  0999 V2000
   46.6080   35.1080   41.9380 C   0  0  1  0  0  0  0  0  0  0  0  0
   48.1500   35.2790   41.9390 C   0  0  0  0  0  0  0  0  0  0  0  0
   47.3530   34.1050   41.2950 C   0  0  2  0  0  0  0  0  0  0  0  0
   46.1250   35.9510   41.4220 H   0  0  0  0  0  0  0  0  0  0  0  0
   48.5810   35.9420   41.1750 H   0  0  0  0  0  0  0  0  0  0  0  0
   48.7120   35.0150   42.8400 H   0  0  0  0  0  0  0  0  0  0  0  0
   47.4850   33.1150   41.8180 H   0  0  0  0  0  0  0  0  0  0  0  0
   44.6670   35.3700   45.1330 C   0  0  0  0  0  0  0  0  0  0  0  0
   45.1390   35.6920   43.8330 C   0  0  0  0  0  0  0  0  0  0  0  0
   46.0940   34.8650   43.3320 C   0  0  0  0  0  0  0  0  0  0  0  0
   46.5670   33.7910   44.0480 N   0  0  0  0  0  0  0  0  0  0  0  0
   46.0920   33.5210   45.2830 C   0  0  0  0  0  0  0  0  0  0  0  0
   45.1380   34.3130   45.8250 N   0  0  0  0  0  0  0  0  0  0  0  0
   43.9010   36.0170   45.5520 H   0  0  0  0  0  0  0  0  0  0  0  0
   46.4370   32.6900   45.8770 H   0  0  0  0  0  0  0  0  0  0  0  0
   44.6570   36.8180   43.1260 N   0  0  0  0  0  0  0  0  0  0  0  0
   43.7710   37.0150   42.6150 H   0  0  0  0  0  0  0  0  0  0  0  0
   45.4550   37.5130   43.2200 H   0  0  0  0  0  0  0  0  0  0  0  0
   47.3740   33.9640   39.7910 C   0  0  0  0  0  0  0  0  0  0  0  0
   48.3490   33.5970   39.4710 H   0  0  0  0  0  0  0  0  0  0  0  0
   47.1300   34.9180   39.2800 H   0  0  0  0  0  0  0  0  0  0  0  0
   46.3280   32.9350   39.4810 C   0  0  0  0  0  0  0  0  0  0  0  0
   44.9950   33.1490   39.2260 C   0  0  0  0  0  0  0  0  0  0  0  0
   44.5140   34.1030   39.2170 H   0  0  0  0  0  0  0  0  0  0  0  0
   44.4350   31.9000   38.9950 C   0  0  0  0  0  0  0  0  0  0  0  0
   43.3940   31.7070   38.7630 H   0  0  0  0  0  0  0  0  0  0  0  0
   45.4750   30.9850   39.1230 C   0  0  0  0  0  0  0  0  0  0  0  0
   45.2750   29.9370   38.9840 H   0  0  0  0  0  0  0  0  0  0  0  0
   46.5710   31.6390   39.4090 O   0  0  0  0  0  0  0  0  0  0  0  0
  1  4  1  6  0  0  0
  1  2  1  0  0  0  0
  1 10  1  0  0  0  0
  2  6  1  0  0  0  0
  3  7  1  1  0  0  0
  3  1  1  0  0  0  0
  3  2  1  0  0  0  0
  5  2  1  0  0  0  0
  8 14  1  0  0  0  0
  8 13  1  0  0  0  0
  9  8  2  0  0  0  0
 10  9  1  0  0  0  0
 10 11  2  0  0  0  0
 11 12  1  0  0  0  0
 12 13  2  0  0  0  0
 12 15  1  0  0  0  0
 16 18  1  0  0  0  0
 16  9  1  0  0  0  0
 17 16  1  0  0  0  0
 19  3  1  0  0  0  0
 20 19  1  0  0  0  0
 21 19  1  0  0  0  0
 22 19  1  0  0  0  0
 23 22  2  0  0  0  0
 24 23  1  0  0  0  0
 25 27  2  0  0  0  0
 25 23  1  0  0  0  0
 26 25  1  0  0  0  0
 27 29  1  0  0  0  0
 28 27  1  0  0  0  0
 29 22  1  0  0  0  0
M  END
>  <minimizedAffinity>
-4.37086487

>  <minimizedRMSD>
0.856115997

$$$$
