
 OpenBabel03252509003D

 44 46  0  0  1  0  0  0  0  0999 V2000
   47.2240   34.0830   42.9900 N   0  0  0  0  0  0  0  0  0  0  0  0
   46.7150   35.2730   42.4130 C   0  0  0  0  0  0  0  0  0  0  0  0
   45.2370   35.5150   42.6420 C   0  0  0  0  0  0  0  0  0  0  0  0
   44.7130   34.9950   43.9530 C   0  0  0  0  0  0  0  0  0  0  0  0
   45.8260   34.4440   44.8130 C   0  0  0  0  0  0  0  0  0  0  0  0
   46.4810   33.3460   43.8970 C   0  0  2  0  0  0  0  0  0  0  0  0
   46.9100   35.4130   41.3440 H   0  0  0  0  0  0  0  0  0  0  0  0
   47.2530   36.1220   42.9170 H   0  0  0  0  0  0  0  0  0  0  0  0
   44.6430   35.1610   41.7740 H   0  0  0  0  0  0  0  0  0  0  0  0
   45.0620   36.6200   42.6600 H   0  0  0  0  0  0  0  0  0  0  0  0
   44.1990   35.7560   44.5590 H   0  0  0  0  0  0  0  0  0  0  0  0
   44.0030   34.1760   43.7600 H   0  0  0  0  0  0  0  0  0  0  0  0
   45.3910   33.9660   45.6990 H   0  0  0  0  0  0  0  0  0  0  0  0
   46.6150   35.1600   45.0380 H   0  0  0  0  0  0  0  0  0  0  0  0
   45.6680   32.7020   43.5060 H   0  0  0  0  0  0  0  0  0  0  0  0
   48.1990   33.4040   42.1810 C   0  0  0  0  0  0  0  0  0  0  0  0
   48.8750   34.1770   41.7490 H   0  0  0  0  0  0  0  0  0  0  0  0
   48.8110   32.7070   42.7890 H   0  0  0  0  0  0  0  0  0  0  0  0
   47.4770   32.6110   41.1360 C   0  0  0  0  0  0  0  0  0  0  0  0
   46.3860   32.8770   41.1090 H   0  0  0  0  0  0  0  0  0  0  0  0
   47.5260   31.5200   41.2970 H   0  0  0  0  0  0  0  0  0  0  0  0
   49.3810   32.3430   37.9100 C   0  0  0  0  0  0  0  0  0  0  0  0
   48.8520   32.0340   39.1770 C   0  0  0  0  0  0  0  0  0  0  0  0
   48.0300   32.9470   39.7990 C   0  0  0  0  0  0  0  0  0  0  0  0
   47.7760   34.0910   39.1570 N   0  0  0  0  0  0  0  0  0  0  0  0
   48.2860   34.3800   37.9470 C   0  0  0  0  0  0  0  0  0  0  0  0
   49.0950   33.5040   37.3110 N   0  0  0  0  0  0  0  0  0  0  0  0
   50.0210   31.6910   37.3700 H   0  0  0  0  0  0  0  0  0  0  0  0
   49.1380   31.0740   39.5830 H   0  0  0  0  0  0  0  0  0  0  0  0
   48.0570   35.3240   37.4520 H   0  0  0  0  0  0  0  0  0  0  0  0
   47.2890   32.6770   44.8030 O   0  0  0  0  0  0  0  0  0  0  0  0
   46.1680   30.4290   43.9280 O   0  0  0  0  0  0  0  0  0  0  0  0
   46.7210   31.1370   45.1710 P   0  0  2  0  0  0  0  0  0  0  0  0
   45.3500   31.3710   46.1740 O   0  0  0  0  0  0  0  0  0  0  0  0
   45.5390   32.1120   46.8130 H   0  0  0  0  0  0  0  0  0  0  0  0
   47.8110   30.2180   46.0060 O   0  0  0  0  0  0  0  0  0  0  0  0
   48.2190   30.2870   47.3100 C   0  0  0  0  0  0  0  0  0  0  0  0
   49.3030   29.5290   47.7630 C   0  0  0  0  0  0  0  0  0  0  0  0
   49.9260   28.8390   47.2080 H   0  0  0  0  0  0  0  0  0  0  0  0
   49.4190   29.8540   49.1160 C   0  0  0  0  0  0  0  0  0  0  0  0
   50.2080   29.3920   49.7290 H   0  0  0  0  0  0  0  0  0  0  0  0
   48.4110   30.7790   49.4000 C   0  0  0  0  0  0  0  0  0  0  0  0
   48.3720   31.1310   50.4230 H   0  0  0  0  0  0  0  0  0  0  0  0
   47.7340   31.0000   48.3040 O   0  0  0  0  0  0  0  0  0  0  0  0
  1  6  1  0  0  0  0
  2  3  1  0  0  0  0
  2  8  1  0  0  0  0
  2  1  1  0  0  0  0
  3 10  1  0  0  0  0
  3  4  1  0  0  0  0
  4 11  1  0  0  0  0
  4  5  1  0  0  0  0
  5 14  1  0  0  0  0
  5 13  1  0  0  0  0
  6 15  1  6  0  0  0
  6 31  1  0  0  0  0
  6  5  1  0  0  0  0
  7  2  1  0  0  0  0
  9  3  1  0  0  0  0
 12  4  1  0  0  0  0
 16 18  1  0  0  0  0
 16  1  1  0  0  0  0
 17 16  1  0  0  0  0
 19 21  1  0  0  0  0
 19 16  1  0  0  0  0
 20 19  1  0  0  0  0
 22 23  1  0  0  0  0
 23 29  1  0  0  0  0
 23 24  2  0  0  0  0
 24 19  1  0  0  0  0
 25 24  1  0  0  0  0
 26 25  2  0  0  0  0
 27 22  2  0  0  0  0
 27 26  1  0  0  0  0
 28 22  1  0  0  0  0
 30 26  1  0  0  0  0
 31 33  1  0  0  0  0
 33 32  2  6  0  0  0
 33 36  1  0  0  0  0
 33 34  1  0  0  0  0
 34 35  1  0  0  0  0
 36 37  1  0  0  0  0
 37 38  2  0  0  0  0
 37 44  1  0  0  0  0
 38 40  1  0  0  0  0
 39 38  1  0  0  0  0
 40 42  2  0  0  0  0
 40 41  1  0  0  0  0
 42 43  1  0  0  0  0
 44 42  1  0  0  0  0
M  END
>  <minimizedAffinity>
-4.39139652

>  <minimizedRMSD>
1.03702247

$$$$
