
 OpenBabel03252503343D

 21 22  0  0  0  0  0  0  0  0999 V2000
   46.2330   33.9970   40.8290 C   0  0  0  0  0  0  0  0  0  0  0  0
   45.1520   33.4010   41.0770 O   0  0  0  0  0  0  0  0  0  0  0  0
   46.7450   34.7970   41.8850 N   0  0  0  0  0  0  0  0  0  0  0  0
   47.6600   35.3080   41.7310 H   0  0  0  0  0  0  0  0  0  0  0  0
   44.5050   36.0020   44.6170 C   0  0  0  0  0  0  0  0  0  0  0  0
   45.1530   35.9550   43.3690 C   0  0  0  0  0  0  0  0  0  0  0  0
   46.0490   34.9150   43.1230 C   0  0  0  0  0  0  0  0  0  0  0  0
   46.2650   33.9850   44.0940 N   0  0  0  0  0  0  0  0  0  0  0  0
   45.6120   34.0680   45.2970 C   0  0  0  0  0  0  0  0  0  0  0  0
   44.7520   35.0620   45.5400 N   0  0  0  0  0  0  0  0  0  0  0  0
   43.8310   36.8530   44.6980 H   0  0  0  0  0  0  0  0  0  0  0  0
   44.9860   36.6920   42.5910 H   0  0  0  0  0  0  0  0  0  0  0  0
   45.8090   33.3050   46.0530 H   0  0  0  0  0  0  0  0  0  0  0  0
   46.9040   33.8660   39.5400 C   0  0  0  0  0  0  0  0  0  0  0  0
   48.1450   34.4060   39.2800 C   0  0  0  0  0  0  0  0  0  0  0  0
   48.8390   34.9790   39.8740 H   0  0  0  0  0  0  0  0  0  0  0  0
   48.4060   34.0530   37.9580 C   0  0  0  0  0  0  0  0  0  0  0  0
   49.2580   34.2500   37.3040 H   0  0  0  0  0  0  0  0  0  0  0  0
   47.3080   33.3200   37.4940 C   0  0  0  0  0  0  0  0  0  0  0  0
   47.0950   32.8550   36.5230 H   0  0  0  0  0  0  0  0  0  0  0  0
   46.4480   33.2500   38.4990 O   0  0  0  0  0  0  0  0  0  0  0  0
  1  2  2  0  0  0  0
  1  3  1  0  0  0  0
  3  7  1  0  0  0  0
  4  3  1  0  0  0  0
  5 11  1  0  0  0  0
  5 10  1  0  0  0  0
  6  5  2  0  0  0  0
  7  6  1  0  0  0  0
  7  8  2  0  0  0  0
  8  9  1  0  0  0  0
  9 10  2  0  0  0  0
  9 13  1  0  0  0  0
 12  6  1  0  0  0  0
 14  1  1  0  0  0  0
 15 14  2  0  0  0  0
 15 16  1  0  0  0  0
 17 15  1  0  0  0  0
 18 17  1  0  0  0  0
 19 17  2  0  0  0  0
 19 21  1  0  0  0  0
 20 19  1  0  0  0  0
 21 14  1  0  0  0  0
M  END
>  <minimizedAffinity>
-4.26963615

>  <minimizedRMSD>
0.568686843

$$$$
