
 OpenBabel03242512353D

 19 20  0  0  0  0  0  0  0  0999 V2000
   35.9710   29.6450   40.5760 C   0  0  0  0  0  0  0  0  0  0  0  0
   34.7780   29.3700   40.2120 O   0  0  0  0  0  0  0  0  0  0  0  0
   36.7190   28.9230   41.5630 C   0  0  0  0  0  0  0  0  0  0  0  0
   36.6130   27.5210   41.4740 C   0  0  0  0  0  0  0  0  0  0  0  0
   37.3210   26.7780   42.4110 C   0  0  0  0  0  0  0  0  0  0  0  0
   38.0670   27.4440   43.3450 N   0  0  0  0  0  0  0  0  0  0  0  0
   38.1400   28.7790   43.3930 C   0  0  0  0  0  0  0  0  0  0  0  0
   37.4730   29.5230   42.5100 N   0  0  0  0  0  0  0  0  0  0  0  0
   36.0250   27.0170   40.7360 H   0  0  0  0  0  0  0  0  0  0  0  0
   37.2930   25.6870   42.4120 H   0  0  0  0  0  0  0  0  0  0  0  0
   38.7140   29.3280   44.1110 H   0  0  0  0  0  0  0  0  0  0  0  0
   36.5500   30.8120   39.8720 C   0  0  0  0  0  0  0  0  0  0  0  0
   36.9170   30.8840   38.5610 C   0  0  0  0  0  0  0  0  0  0  0  0
   36.8460   30.1010   37.8220 H   0  0  0  0  0  0  0  0  0  0  0  0
   37.4040   32.1620   38.3580 C   0  0  0  0  0  0  0  0  0  0  0  0
   37.7660   32.4840   37.3900 H   0  0  0  0  0  0  0  0  0  0  0  0
   37.3030   32.8120   39.5840 C   0  0  0  0  0  0  0  0  0  0  0  0
   37.6450   33.8390   39.6050 H   0  0  0  0  0  0  0  0  0  0  0  0
   36.7920   31.9790   40.4590 O   0  0  0  0  0  0  0  0  0  0  0  0
  1  3  1  0  0  0  0
  2  1  2  0  0  0  0
  3  8  1  0  0  0  0
  4  3  2  0  0  0  0
  4  5  1  0  0  0  0
  5 10  1  0  0  0  0
  5  6  2  0  0  0  0
  6  7  1  0  0  0  0
  7 11  1  0  0  0  0
  8  7  2  0  0  0  0
  9  4  1  0  0  0  0
 12 19  1  0  0  0  0
 12  1  1  0  0  0  0
 13 12  2  0  0  0  0
 14 13  1  0  0  0  0
 15 13  1  0  0  0  0
 15 17  2  0  0  0  0
 16 15  1  0  0  0  0
 17 18  1  0  0  0  0
 17 19  1  0  0  0  0
M  END
>  <minimizedAffinity>
-4.07415581

$$$$

 OpenBabel03242512353D

 19 20  0  0  0  0  0  0  0  0999 V2000
   36.7660   27.3880   42.5320 C   0  0  0  0  0  0  0  0  0  0  0  0
   36.2060   27.3820   43.6800 O   0  0  0  0  0  0  0  0  0  0  0  0
   37.5690   26.3270   42.0000 C   0  0  0  0  0  0  0  0  0  0  0  0
   37.0170   25.0390   42.1460 C   0  0  0  0  0  0  0  0  0  0  0  0
   37.7600   23.9770   41.6450 C   0  0  0  0  0  0  0  0  0  0  0  0
   38.9620   24.2450   41.0500 N   0  0  0  0  0  0  0  0  0  0  0  0
   39.4510   25.4850   40.9320 C   0  0  0  0  0  0  0  0  0  0  0  0
   38.7640   26.5270   41.4020 N   0  0  0  0  0  0  0  0  0  0  0  0
   36.0740   24.8480   42.6140 H   0  0  0  0  0  0  0  0  0  0  0  0
   37.4030   22.9480   41.7170 H   0  0  0  0  0  0  0  0  0  0  0  0
   40.3870   25.7250   40.4720 H   0  0  0  0  0  0  0  0  0  0  0  0
   36.5120   28.6240   41.7570 C   0  0  0  0  0  0  0  0  0  0  0  0
   35.6440   28.7800   40.7170 C   0  0  0  0  0  0  0  0  0  0  0  0
   35.0000   28.0280   40.2890 H   0  0  0  0  0  0  0  0  0  0  0  0
   35.7480   30.0980   40.3120 C   0  0  0  0  0  0  0  0  0  0  0  0
   35.1570   30.4880   39.4930 H   0  0  0  0  0  0  0  0  0  0  0  0
   36.6940   30.6850   41.1470 C   0  0  0  0  0  0  0  0  0  0  0  0
   36.9010   31.7310   40.9660 H   0  0  0  0  0  0  0  0  0  0  0  0
   37.1250   29.7790   41.9920 O   0  0  0  0  0  0  0  0  0  0  0  0
  1  2  2  0  0  0  0
  3  4  1  0  0  0  0
  3  1  1  0  0  0  0
  4  9  1  0  0  0  0
  5 10  1  0  0  0  0
  5  4  2  0  0  0  0
  6  5  1  0  0  0  0
  7  6  2  0  0  0  0
  7  8  1  0  0  0  0
  8  3  2  0  0  0  0
 11  7  1  0  0  0  0
 12 19  1  0  0  0  0
 12  1  1  0  0  0  0
 13 12  2  0  0  0  0
 14 13  1  0  0  0  0
 15 13  1  0  0  0  0
 15 17  2  0  0  0  0
 16 15  1  0  0  0  0
 17 19  1  0  0  0  0
 18 17  1  0  0  0  0
M  END
>  <minimizedAffinity>
-4.04394579

$$$$

 OpenBabel03242512353D

 19 20  0  0  0  0  0  0  0  0999 V2000
   36.7970   27.4680   42.5590 C   0  0  0  0  0  0  0  0  0  0  0  0
   36.1990   27.3350   43.6800 O   0  0  0  0  0  0  0  0  0  0  0  0
   36.8630   28.6810   41.7980 C   0  0  0  0  0  0  0  0  0  0  0  0
   35.7880   28.8780   40.9090 C   0  0  0  0  0  0  0  0  0  0  0  0
   35.8080   30.0410   40.1480 C   0  0  0  0  0  0  0  0  0  0  0  0
   36.8540   30.9080   40.3080 N   0  0  0  0  0  0  0  0  0  0  0  0
   37.8560   30.6810   41.1650 C   0  0  0  0  0  0  0  0  0  0  0  0
   37.8690   29.5760   41.9100 N   0  0  0  0  0  0  0  0  0  0  0  0
   34.9770   28.1880   40.7970 H   0  0  0  0  0  0  0  0  0  0  0  0
   35.0130   30.2690   39.4360 H   0  0  0  0  0  0  0  0  0  0  0  0
   38.6880   31.3400   41.3110 H   0  0  0  0  0  0  0  0  0  0  0  0
   37.4460   26.2250   42.0850 C   0  0  0  0  0  0  0  0  0  0  0  0
   36.9570   24.9550   42.1700 C   0  0  0  0  0  0  0  0  0  0  0  0
   36.0160   24.6490   42.5990 H   0  0  0  0  0  0  0  0  0  0  0  0
   37.9060   24.1280   41.5990 C   0  0  0  0  0  0  0  0  0  0  0  0
   37.7620   23.0560   41.5380 H   0  0  0  0  0  0  0  0  0  0  0  0
   38.9440   24.9580   41.1870 C   0  0  0  0  0  0  0  0  0  0  0  0
   39.7830   24.4670   40.7110 H   0  0  0  0  0  0  0  0  0  0  0  0
   38.6360   26.1960   41.4920 O   0  0  0  0  0  0  0  0  0  0  0  0
  1  2  2  0  0  0  0
  3  8  1  0  0  0  0
  3  1  1  0  0  0  0
  4  3  2  0  0  0  0
  5  6  2  0  0  0  0
  5  4  1  0  0  0  0
  6  7  1  0  0  0  0
  7 11  1  0  0  0  0
  7  8  2  0  0  0  0
  9  4  1  0  0  0  0
 10  5  1  0  0  0  0
 12 13  2  0  0  0  0
 12  1  1  0  0  0  0
 13 14  1  0  0  0  0
 15 13  1  0  0  0  0
 16 15  1  0  0  0  0
 17 19  1  0  0  0  0
 17 15  2  0  0  0  0
 18 17  1  0  0  0  0
 19 12  1  0  0  0  0
M  END
>  <minimizedAffinity>
-3.8901906

$$$$

 OpenBabel03242512353D

 19 20  0  0  0  0  0  0  0  0999 V2000
   39.1120   29.5270   42.0350 C   0  0  0  0  0  0  0  0  0  0  0  0
   40.3290   29.1900   42.2240 O   0  0  0  0  0  0  0  0  0  0  0  0
   38.6800   30.7490   41.4220 C   0  0  0  0  0  0  0  0  0  0  0  0
   37.4360   30.6710   40.7660 C   0  0  0  0  0  0  0  0  0  0  0  0
   36.9750   31.8320   40.1550 C   0  0  0  0  0  0  0  0  0  0  0  0
   37.7460   32.9600   40.2310 N   0  0  0  0  0  0  0  0  0  0  0  0
   38.9230   32.9900   40.8660 C   0  0  0  0  0  0  0  0  0  0  0  0
   39.3960   31.8950   41.4620 N   0  0  0  0  0  0  0  0  0  0  0  0
   36.8460   29.7800   40.7170 H   0  0  0  0  0  0  0  0  0  0  0  0
   36.0210   31.8560   39.6260 H   0  0  0  0  0  0  0  0  0  0  0  0
   39.5480   33.8560   40.9410 H   0  0  0  0  0  0  0  0  0  0  0  0
   38.1380   28.5200   42.5140 C   0  0  0  0  0  0  0  0  0  0  0  0
   37.3850   28.5780   43.6500 C   0  0  0  0  0  0  0  0  0  0  0  0
   37.3770   29.3670   44.3850 H   0  0  0  0  0  0  0  0  0  0  0  0
   36.6280   27.4210   43.6800 C   0  0  0  0  0  0  0  0  0  0  0  0
   35.9360   27.2160   44.4870 H   0  0  0  0  0  0  0  0  0  0  0  0
   36.9690   26.7070   42.5350 C   0  0  0  0  0  0  0  0  0  0  0  0
   36.4620   25.7610   42.3980 H   0  0  0  0  0  0  0  0  0  0  0  0
   37.8680   27.3910   41.8680 O   0  0  0  0  0  0  0  0  0  0  0  0
  1  2  2  0  0  0  0
  1 12  1  0  0  0  0
  3  8  1  0  0  0  0
  3  1  1  0  0  0  0
  4  3  2  0  0  0  0
  5  6  2  0  0  0  0
  5  4  1  0  0  0  0
  6  7  1  0  0  0  0
  7 11  1  0  0  0  0
  7  8  2  0  0  0  0
  9  4  1  0  0  0  0
 10  5  1  0  0  0  0
 12 13  2  0  0  0  0
 13 15  1  0  0  0  0
 13 14  1  0  0  0  0
 15 16  1  0  0  0  0
 17 15  2  0  0  0  0
 18 17  1  0  0  0  0
 19 12  1  0  0  0  0
 19 17  1  0  0  0  0
M  END
>  <minimizedAffinity>
-3.85794282

$$$$

 OpenBabel03242512353D

 19 20  0  0  0  0  0  0  0  0999 V2000
   37.0730   27.2580   42.8380 C   0  0  0  0  0  0  0  0  0  0  0  0
   36.1130   27.1810   43.6750 O   0  0  0  0  0  0  0  0  0  0  0  0
   37.6080   28.4770   42.3050 C   0  0  0  0  0  0  0  0  0  0  0  0
   38.6620   29.0350   43.0540 C   0  0  0  0  0  0  0  0  0  0  0  0
   39.2130   30.2190   42.5760 C   0  0  0  0  0  0  0  0  0  0  0  0
   38.7040   30.7580   41.4260 N   0  0  0  0  0  0  0  0  0  0  0  0
   37.7000   30.1950   40.7460 C   0  0  0  0  0  0  0  0  0  0  0  0
   37.1480   29.0600   41.1750 N   0  0  0  0  0  0  0  0  0  0  0  0
   39.0480   28.5990   43.9510 H   0  0  0  0  0  0  0  0  0  0  0  0
   40.0340   30.7160   43.0970 H   0  0  0  0  0  0  0  0  0  0  0  0
   37.2810   30.5940   39.8450 H   0  0  0  0  0  0  0  0  0  0  0  0
   37.6200   25.9410   42.4420 C   0  0  0  0  0  0  0  0  0  0  0  0
   36.9240   24.8680   41.9700 C   0  0  0  0  0  0  0  0  0  0  0  0
   35.8590   24.8040   41.8090 H   0  0  0  0  0  0  0  0  0  0  0  0
   37.8500   23.8680   41.7370 C   0  0  0  0  0  0  0  0  0  0  0  0
   37.5550   22.8990   41.3550 H   0  0  0  0  0  0  0  0  0  0  0  0
   39.0870   24.4000   42.0870 C   0  0  0  0  0  0  0  0  0  0  0  0
   39.9370   23.7410   41.9650 H   0  0  0  0  0  0  0  0  0  0  0  0
   38.9120   25.6320   42.5010 O   0  0  0  0  0  0  0  0  0  0  0  0
  1  2  2  0  0  0  0
  3  1  1  0  0  0  0
  3  4  1  0  0  0  0
  4  9  1  0  0  0  0
  5  4  2  0  0  0  0
  5 10  1  0  0  0  0
  6  5  1  0  0  0  0
  7  8  1  0  0  0  0
  7  6  2  0  0  0  0
  8  3  2  0  0  0  0
 11  7  1  0  0  0  0
 12 19  1  0  0  0  0
 12  1  1  0  0  0  0
 13 12  2  0  0  0  0
 14 13  1  0  0  0  0
 15 13  1  0  0  0  0
 15 17  2  0  0  0  0
 16 15  1  0  0  0  0
 17 19  1  0  0  0  0
 18 17  1  0  0  0  0
M  END
>  <minimizedAffinity>
-3.84406137

$$$$

 OpenBabel03242512353D

 19 20  0  0  0  0  0  0  0  0999 V2000
   37.6740   28.1060   42.7090 C   0  0  0  0  0  0  0  0  0  0  0  0
   37.5640   28.9270   43.6800 O   0  0  0  0  0  0  0  0  0  0  0  0
   38.2810   26.8090   42.7900 C   0  0  0  0  0  0  0  0  0  0  0  0
   39.4510   26.7540   43.5720 C   0  0  0  0  0  0  0  0  0  0  0  0
   40.0760   25.5170   43.6800 C   0  0  0  0  0  0  0  0  0  0  0  0
   39.5230   24.4470   43.0300 N   0  0  0  0  0  0  0  0  0  0  0  0
   38.4090   24.5440   42.2970 C   0  0  0  0  0  0  0  0  0  0  0  0
   37.7840   25.7150   42.1710 N   0  0  0  0  0  0  0  0  0  0  0  0
   39.8700   27.6020   44.0730 H   0  0  0  0  0  0  0  0  0  0  0  0
   40.9870   25.3890   44.2670 H   0  0  0  0  0  0  0  0  0  0  0  0
   37.9530   23.7260   41.7770 H   0  0  0  0  0  0  0  0  0  0  0  0
   37.1040   28.6100   41.4390 C   0  0  0  0  0  0  0  0  0  0  0  0
   35.7860   28.6680   41.0930 C   0  0  0  0  0  0  0  0  0  0  0  0
   34.9440   28.3550   41.6900 H   0  0  0  0  0  0  0  0  0  0  0  0
   35.7360   29.2080   39.8220 C   0  0  0  0  0  0  0  0  0  0  0  0
   34.7960   29.3640   39.3080 H   0  0  0  0  0  0  0  0  0  0  0  0
   37.0550   29.4560   39.4550 C   0  0  0  0  0  0  0  0  0  0  0  0
   37.2010   29.8860   38.4730 H   0  0  0  0  0  0  0  0  0  0  0  0
   37.8390   29.0880   40.4400 O   0  0  0  0  0  0  0  0  0  0  0  0
  1  3  1  0  0  0  0
  1  2  2  0  0  0  0
  3  4  1  0  0  0  0
  4  5  2  0  0  0  0
  4  9  1  0  0  0  0
  5 10  1  0  0  0  0
  6  5  1  0  0  0  0
  7  6  2  0  0  0  0
  8  7  1  0  0  0  0
  8  3  2  0  0  0  0
 11  7  1  0  0  0  0
 12  1  1  0  0  0  0
 13 12  2  0  0  0  0
 13 14  1  0  0  0  0
 15 13  1  0  0  0  0
 16 15  1  0  0  0  0
 17 15  2  0  0  0  0
 17 19  1  0  0  0  0
 18 17  1  0  0  0  0
 19 12  1  0  0  0  0
M  END
>  <minimizedAffinity>
-3.79776382

$$$$

 OpenBabel03242512353D

 19 20  0  0  0  0  0  0  0  0999 V2000
   36.6040   30.1080   40.8290 C   0  0  0  0  0  0  0  0  0  0  0  0
   35.4300   30.0390   40.3330 O   0  0  0  0  0  0  0  0  0  0  0  0
   37.5890   31.0920   40.4830 C   0  0  0  0  0  0  0  0  0  0  0  0
   38.8410   30.5660   40.1120 C   0  0  0  0  0  0  0  0  0  0  0  0
   39.8300   31.4810   39.7690 C   0  0  0  0  0  0  0  0  0  0  0  0
   39.5270   32.8150   39.8120 N   0  0  0  0  0  0  0  0  0  0  0  0
   38.3230   33.2720   40.1710 C   0  0  0  0  0  0  0  0  0  0  0  0
   37.3520   32.4220   40.5070 N   0  0  0  0  0  0  0  0  0  0  0  0
   39.0600   29.5190   40.0830 H   0  0  0  0  0  0  0  0  0  0  0  0
   40.8270   31.1570   39.4690 H   0  0  0  0  0  0  0  0  0  0  0  0
   38.0570   34.3080   40.2150 H   0  0  0  0  0  0  0  0  0  0  0  0
   36.8860   29.0560   41.8310 C   0  0  0  0  0  0  0  0  0  0  0  0
   36.6370   27.7200   41.7160 C   0  0  0  0  0  0  0  0  0  0  0  0
   36.1930   27.2130   40.8740 H   0  0  0  0  0  0  0  0  0  0  0  0
   37.0650   27.1370   42.8940 C   0  0  0  0  0  0  0  0  0  0  0  0
   36.9800   26.0710   43.0620 H   0  0  0  0  0  0  0  0  0  0  0  0
   37.5630   28.1720   43.6790 C   0  0  0  0  0  0  0  0  0  0  0  0
   37.9460   27.8880   44.6500 H   0  0  0  0  0  0  0  0  0  0  0  0
   37.4400   29.2970   43.0150 O   0  0  0  0  0  0  0  0  0  0  0  0
  1 12  1  0  0  0  0
  2  1  2  0  0  0  0
  3  8  1  0  0  0  0
  3  1  1  0  0  0  0
  4  3  2  0  0  0  0
  5  6  2  0  0  0  0
  5  4  1  0  0  0  0
  6  7  1  0  0  0  0
  7 11  1  0  0  0  0
  7  8  2  0  0  0  0
  9  4  1  0  0  0  0
 10  5  1  0  0  0  0
 12 19  1  0  0  0  0
 13 12  2  0  0  0  0
 13 15  1  0  0  0  0
 14 13  1  0  0  0  0
 15 16  1  0  0  0  0
 15 17  2  0  0  0  0
 17 18  1  0  0  0  0
 19 17  1  0  0  0  0
M  END
>  <minimizedAffinity>
-3.79224682

$$$$

 OpenBabel03242512353D

 19 20  0  0  0  0  0  0  0  0999 V2000
   38.8150   30.7120   41.6980 C   0  0  0  0  0  0  0  0  0  0  0  0
   39.7270   31.3940   42.2750 O   0  0  0  0  0  0  0  0  0  0  0  0
   38.2900   29.4660   42.1740 C   0  0  0  0  0  0  0  0  0  0  0  0
   39.1940   28.6950   42.9300 C   0  0  0  0  0  0  0  0  0  0  0  0
   38.7300   27.4770   43.4130 C   0  0  0  0  0  0  0  0  0  0  0  0
   37.4430   27.1110   43.1300 N   0  0  0  0  0  0  0  0  0  0  0  0
   36.6160   27.8740   42.4070 C   0  0  0  0  0  0  0  0  0  0  0  0
   37.0280   29.0480   41.9270 N   0  0  0  0  0  0  0  0  0  0  0  0
   40.1980   28.9990   43.1420 H   0  0  0  0  0  0  0  0  0  0  0  0
   39.3680   26.8210   44.0070 H   0  0  0  0  0  0  0  0  0  0  0  0
   35.6050   27.6130   42.1690 H   0  0  0  0  0  0  0  0  0  0  0  0
   38.3160   31.3290   40.4480 C   0  0  0  0  0  0  0  0  0  0  0  0
   37.4060   32.3380   40.3330 C   0  0  0  0  0  0  0  0  0  0  0  0
   36.9000   32.8510   41.1360 H   0  0  0  0  0  0  0  0  0  0  0  0
   37.2530   32.5790   38.9800 C   0  0  0  0  0  0  0  0  0  0  0  0
   36.5790   33.3420   38.6130 H   0  0  0  0  0  0  0  0  0  0  0  0
   38.0990   31.6850   38.3310 C   0  0  0  0  0  0  0  0  0  0  0  0
   38.1040   31.7380   37.2500 H   0  0  0  0  0  0  0  0  0  0  0  0
   38.7130   30.9590   39.2340 O   0  0  0  0  0  0  0  0  0  0  0  0
  1  3  1  0  0  0  0
  1  2  2  0  0  0  0
  3  4  1  0  0  0  0
  4  9  1  0  0  0  0
  4  5  2  0  0  0  0
  5 10  1  0  0  0  0
  6  5  1  0  0  0  0
  7  6  2  0  0  0  0
  8  3  2  0  0  0  0
  8  7  1  0  0  0  0
 11  7  1  0  0  0  0
 12  1  1  0  0  0  0
 13 12  2  0  0  0  0
 13 14  1  0  0  0  0
 15 13  1  0  0  0  0
 16 15  1  0  0  0  0
 17 15  2  0  0  0  0
 17 19  1  0  0  0  0
 18 17  1  0  0  0  0
 19 12  1  0  0  0  0
M  END
>  <minimizedAffinity>
-3.76351953

$$$$

 OpenBabel03242512353D

 19 20  0  0  0  0  0  0  0  0999 V2000
   36.7690   30.1200   40.9000 C   0  0  0  0  0  0  0  0  0  0  0  0
   36.0620   31.1260   41.2430 O   0  0  0  0  0  0  0  0  0  0  0  0
   37.2210   29.0880   41.7860 C   0  0  0  0  0  0  0  0  0  0  0  0
   38.5270   29.2680   42.2820 C   0  0  0  0  0  0  0  0  0  0  0  0
   39.0110   28.2910   43.1460 C   0  0  0  0  0  0  0  0  0  0  0  0
   38.1990   27.2340   43.4550 N   0  0  0  0  0  0  0  0  0  0  0  0
   36.9630   27.1020   42.9610 C   0  0  0  0  0  0  0  0  0  0  0  0
   36.4680   28.0190   42.1290 N   0  0  0  0  0  0  0  0  0  0  0  0
   39.1480   30.1020   42.0290 H   0  0  0  0  0  0  0  0  0  0  0  0
   40.0120   28.3560   43.5740 H   0  0  0  0  0  0  0  0  0  0  0  0
   36.3060   26.2870   43.1840 H   0  0  0  0  0  0  0  0  0  0  0  0
   37.1010   30.0950   39.4570 C   0  0  0  0  0  0  0  0  0  0  0  0
   36.9710   31.1180   38.5640 C   0  0  0  0  0  0  0  0  0  0  0  0
   36.6050   32.1120   38.7640 H   0  0  0  0  0  0  0  0  0  0  0  0
   37.4010   30.6320   37.3430 C   0  0  0  0  0  0  0  0  0  0  0  0
   37.4010   31.2500   36.4550 H   0  0  0  0  0  0  0  0  0  0  0  0
   37.7780   29.3110   37.5650 C   0  0  0  0  0  0  0  0  0  0  0  0
   38.1450   28.7720   36.7020 H   0  0  0  0  0  0  0  0  0  0  0  0
   37.5860   29.0270   38.8310 O   0  0  0  0  0  0  0  0  0  0  0  0
  1  2  2  0  0  0  0
  1  3  1  0  0  0  0
  3  8  2  0  0  0  0
  3  4  1  0  0  0  0
  4  5  2  0  0  0  0
  5  6  1  0  0  0  0
  5 10  1  0  0  0  0
  7 11  1  0  0  0  0
  7  6  2  0  0  0  0
  8  7  1  0  0  0  0
  9  4  1  0  0  0  0
 12  1  1  0  0  0  0
 13 14  1  0  0  0  0
 13 12  2  0  0  0  0
 15 17  2  0  0  0  0
 15 13  1  0  0  0  0
 16 15  1  0  0  0  0
 17 19  1  0  0  0  0
 18 17  1  0  0  0  0
 19 12  1  0  0  0  0
M  END
>  <minimizedAffinity>
-3.67864633

$$$$
