
 OpenBabel03252508503D

 27 29  0  0  0  0  0  0  0  0999 V2000
   45.9710   34.1930   41.0420 C   0  0  0  0  0  0  0  0  0  0  0  0
   46.5490   34.8090   42.1440 C   0  0  0  0  0  0  0  0  0  0  0  0
   47.9010   35.1760   42.0230 C   0  0  0  0  0  0  0  0  0  0  0  0
   48.5400   34.9070   40.8550 N   0  0  0  0  0  0  0  0  0  0  0  0
   47.9440   34.3140   39.8270 C   0  0  0  0  0  0  0  0  0  0  0  0
   46.6520   33.9520   39.9130 N   0  0  0  0  0  0  0  0  0  0  0  0
   48.3720   35.6520   42.8550 H   0  0  0  0  0  0  0  0  0  0  0  0
   48.4190   34.0820   38.8780 H   0  0  0  0  0  0  0  0  0  0  0  0
   45.7650   35.0470   43.3410 C   0  0  0  0  0  0  0  0  0  0  0  0
   45.0780   36.2180   43.5750 C   0  0  0  0  0  0  0  0  0  0  0  0
   44.4880   36.0180   44.8010 C   0  0  0  0  0  0  0  0  0  0  0  0
   44.7960   34.7990   45.2880 N   0  0  0  0  0  0  0  0  0  0  0  0
   45.5680   34.2330   44.3860 N   0  0  0  0  0  0  0  0  0  0  0  0
   44.9690   37.1260   42.9970 H   0  0  0  0  0  0  0  0  0  0  0  0
   43.8440   36.6670   45.4020 H   0  0  0  0  0  0  0  0  0  0  0  0
   44.5680   34.2630   46.1530 H   0  0  0  0  0  0  0  0  0  0  0  0
   44.6420   33.8190   41.1250 O   0  0  0  0  0  0  0  0  0  0  0  0
   43.5620   34.4630   40.5950 C   0  0  0  0  0  0  0  0  0  0  0  0
   43.3040   35.7210   40.6640 O   0  0  0  0  0  0  0  0  0  0  0  0
   42.4840   33.7650   39.8320 C   0  0  0  0  0  0  0  0  0  0  0  0
   41.9520   34.1060   38.5810 C   0  0  0  0  0  0  0  0  0  0  0  0
   42.3240   34.9850   38.0310 H   0  0  0  0  0  0  0  0  0  0  0  0
   40.9670   33.2270   38.1940 C   0  0  0  0  0  0  0  0  0  0  0  0
   40.3980   33.2620   37.2760 H   0  0  0  0  0  0  0  0  0  0  0  0
   40.9340   32.3530   39.2580 C   0  0  0  0  0  0  0  0  0  0  0  0
   40.2600   31.4870   39.3270 H   0  0  0  0  0  0  0  0  0  0  0  0
   41.7980   32.6950   40.1450 O   0  0  0  0  0  0  0  0  0  0  0  0
  1 17  1  0  0  0  0
  1  2  1  0  0  0  0
  2  9  1  0  0  0  0
  3  2  2  0  0  0  0
  3  7  1  0  0  0  0
  4  3  1  0  0  0  0
  5  6  1  0  0  0  0
  5  4  2  0  0  0  0
  6  1  2  0  0  0  0
  8  5  1  0  0  0  0
  9 10  1  0  0  0  0
  9 13  2  0  0  0  0
 10 11  2  0  0  0  0
 11 12  1  0  0  0  0
 11 15  1  0  0  0  0
 12 16  1  0  0  0  0
 13 12  1  0  0  0  0
 14 10  1  0  0  0  0
 18 19  2  0  0  0  0
 18 17  1  0  0  0  0
 20 27  1  0  0  0  0
 20 18  1  0  0  0  0
 21 20  2  0  0  0  0
 22 21  1  0  0  0  0
 23 21  1  0  0  0  0
 23 25  2  0  0  0  0
 24 23  1  0  0  0  0
 25 26  1  0  0  0  0
 25 27  1  0  0  0  0
M  END
>  <minimizedAffinity>
-5.06232929

>  <minimizedRMSD>
0.462795764

$$$$
