
 OpenBabel03242516433D

 43 45  0  0  1  0  0  0  0  0999 V2000
   49.7900   31.3100   42.9040 O   0  0  0  0  0  0  0  0  0  0  0  0
   50.1530   32.1590   41.7020 P   0  0  2  0  0  0  0  0  0  0  0  0
   51.4080   33.2170   42.0140 O   0  0  0  0  0  0  0  0  0  0  0  0
   51.8310   32.9950   42.8900 H   0  0  0  0  0  0  0  0  0  0  0  0
   48.7970   33.0270   41.2100 O   0  0  0  0  0  0  0  0  0  0  0  0
   48.5210   34.0670   42.0820 C   0  0  0  0  0  0  0  0  0  0  0  0
   48.9910   35.0290   41.7940 H   0  0  0  0  0  0  0  0  0  0  0  0
   48.9690   33.8170   43.0870 H   0  0  0  0  0  0  0  0  0  0  0  0
   47.0480   34.2650   42.2250 C   0  0  0  0  0  0  0  0  0  0  0  0
   46.4950   33.6520   41.4810 H   0  0  0  0  0  0  0  0  0  0  0  0
   46.7550   35.3220   42.0740 H   0  0  0  0  0  0  0  0  0  0  0  0
   45.2770   34.4190   45.5350 C   0  0  0  0  0  0  0  0  0  0  0  0
   45.6590   34.7240   44.2220 C   0  0  0  0  0  0  0  0  0  0  0  0
   46.6410   33.9380   43.6290 C   0  0  0  0  0  0  0  0  0  0  0  0
   47.1870   32.9170   44.3320 N   0  0  0  0  0  0  0  0  0  0  0  0
   46.7840   32.6620   45.6010 C   0  0  0  0  0  0  0  0  0  0  0  0
   45.8490   33.3880   46.2080 N   0  0  0  0  0  0  0  0  0  0  0  0
   44.2820   35.1870   46.1920 N   0  0  0  0  0  0  0  0  0  0  0  0
   45.1710   35.5490   43.7480 H   0  0  0  0  0  0  0  0  0  0  0  0
   47.2620   31.8320   46.1080 H   0  0  0  0  0  0  0  0  0  0  0  0
   44.6130   35.9160   46.8720 H   0  0  0  0  0  0  0  0  0  0  0  0
   43.2600   35.1530   46.1160 H   0  0  0  0  0  0  0  0  0  0  0  0
   50.6560   31.1320   40.4270 O   0  0  0  0  0  0  0  0  0  0  0  0
   51.2640   31.3350   38.1650 C   0  0  1  0  0  0  0  0  0  0  0  0
   51.5250   31.7640   39.5820 C   0  0  2  0  0  0  0  0  0  0  0  0
   52.8830   31.0570   39.7960 C   0  0  0  0  0  0  0  0  0  0  0  0
   52.7740   29.8450   39.1780 O   0  0  0  0  0  0  0  0  0  0  0  0
   51.8430   29.9390   38.1730 C   0  0  0  0  0  0  0  0  0  0  0  0
   51.8340   31.9940   37.4960 H   0  0  0  0  0  0  0  0  0  0  0  0
   51.6400   32.8520   39.7260 H   0  0  0  0  0  0  0  0  0  0  0  0
   53.0720   30.9840   40.8860 H   0  0  0  0  0  0  0  0  0  0  0  0
   53.6460   31.7220   39.3490 H   0  0  0  0  0  0  0  0  0  0  0  0
   52.2790   29.7380   37.1670 H   0  0  0  0  0  0  0  0  0  0  0  0
   51.0750   29.1580   38.3670 H   0  0  0  0  0  0  0  0  0  0  0  0
   49.9250   31.3730   37.8350 O   0  0  0  0  0  0  0  0  0  0  0  0
   49.1400   32.4910   37.6420 C   0  0  0  0  0  0  0  0  0  0  0  0
   47.7920   32.3370   37.9940 C   0  0  0  0  0  0  0  0  0  0  0  0
   47.1250   31.5620   38.3980 H   0  0  0  0  0  0  0  0  0  0  0  0
   47.1770   33.5660   37.7260 C   0  0  0  0  0  0  0  0  0  0  0  0
   46.2010   34.0350   37.7890 H   0  0  0  0  0  0  0  0  0  0  0  0
   48.1770   34.3790   37.2340 C   0  0  0  0  0  0  0  0  0  0  0  0
   48.3450   35.4000   36.8600 H   0  0  0  0  0  0  0  0  0  0  0  0
   49.2960   33.7100   37.2050 O   0  0  0  0  0  0  0  0  0  0  0  0
  2  3  1  0  0  0  0
  2  1  2  1  0  0  0
  3  4  1  0  0  0  0
  5  2  1  0  0  0  0
  5  6  1  0  0  0  0
  6  9  1  0  0  0  0
  6  8  1  0  0  0  0
  7  6  1  0  0  0  0
  9 14  1  0  0  0  0
 10  9  1  0  0  0  0
 11  9  1  0  0  0  0
 12 18  1  0  0  0  0
 12 17  1  0  0  0  0
 13 12  2  0  0  0  0
 14 13  1  0  0  0  0
 14 15  2  0  0  0  0
 15 16  1  0  0  0  0
 16 20  1  0  0  0  0
 16 17  2  0  0  0  0
 18 21  1  0  0  0  0
 19 13  1  0  0  0  0
 22 18  1  0  0  0  0
 23  2  1  0  0  0  0
 24 29  1  6  0  0  0
 24 28  1  0  0  0  0
 24 25  1  0  0  0  0
 25 30  1  1  0  0  0
 25 26  1  0  0  0  0
 25 23  1  0  0  0  0
 26 31  1  0  0  0  0
 27 26  1  0  0  0  0
 28 34  1  0  0  0  0
 28 27  1  0  0  0  0
 32 26  1  0  0  0  0
 33 28  1  0  0  0  0
 35 24  1  0  0  0  0
 36 35  1  0  0  0  0
 36 37  2  0  0  0  0
 37 38  1  0  0  0  0
 39 40  1  0  0  0  0
 39 37  1  0  0  0  0
 41 39  2  0  0  0  0
 42 41  1  0  0  0  0
 43 41  1  0  0  0  0
 43 36  1  0  0  0  0
M  END
>  <minimizedAffinity>
-4.79862547

>  <minimizedRMSD>
2.1309917

$$$$
