
 OpenBabel03252502513D

 33 35  0  0  0  0  0  0  0  0999 V2000
   32.5960   26.9160   36.0940 C   0  0  0  0  0  0  0  0  0  0  0  0
   33.7350   26.9720   36.9220 C   0  0  0  0  0  0  0  0  0  0  0  0
   34.0680   28.2050   37.4820 C   0  0  0  0  0  0  0  0  0  0  0  0
   33.2950   29.2800   37.2120 N   0  0  0  0  0  0  0  0  0  0  0  0
   32.2030   29.1890   36.4090 C   0  0  0  0  0  0  0  0  0  0  0  0
   31.8520   28.0120   35.8500 N   0  0  0  0  0  0  0  0  0  0  0  0
   32.3000   25.9820   35.6380 H   0  0  0  0  0  0  0  0  0  0  0  0
   34.3190   26.0800   37.1050 H   0  0  0  0  0  0  0  0  0  0  0  0
   30.4690   30.0640   38.6700 Cl  0  0  0  0  0  0  0  0  0  0  0  0
   30.5800   30.8770   37.1260 C   0  0  0  0  0  0  0  0  0  0  0  0
   31.4060   30.3960   36.1560 C   0  0  0  0  0  0  0  0  0  0  0  0
   31.5200   31.0260   34.9010 C   0  0  0  0  0  0  0  0  0  0  0  0
   30.7380   32.1570   34.7340 C   0  0  0  0  0  0  0  0  0  0  0  0
   29.9130   32.6350   35.7110 C   0  0  0  0  0  0  0  0  0  0  0  0
   29.8120   32.0090   36.9290 C   0  0  0  0  0  0  0  0  0  0  0  0
   32.1580   30.6680   34.1290 H   0  0  0  0  0  0  0  0  0  0  0  0
   30.7440   32.7290   33.8030 H   0  0  0  0  0  0  0  0  0  0  0  0
   29.2970   33.5200   35.5860 H   0  0  0  0  0  0  0  0  0  0  0  0
   29.1780   32.3550   37.7120 H   0  0  0  0  0  0  0  0  0  0  0  0
   35.2630   28.2640   38.3470 C   0  0  0  0  0  0  0  0  0  0  0  0
   35.7440   27.2860   38.4800 H   0  0  0  0  0  0  0  0  0  0  0  0
   36.0050   28.9180   37.8070 H   0  0  0  0  0  0  0  0  0  0  0  0
   35.0030   28.9580   39.6750 C   0  0  0  0  0  0  0  0  0  0  0  0
   33.9700   29.2960   39.7690 H   0  0  0  0  0  0  0  0  0  0  0  0
   35.3650   28.3040   40.4960 H   0  0  0  0  0  0  0  0  0  0  0  0
   35.9140   30.1580   39.6950 C   0  0  0  0  0  0  0  0  0  0  0  0
   36.3030   30.8640   40.8360 C   0  0  0  0  0  0  0  0  0  0  0  0
   36.0090   30.6540   41.8670 H   0  0  0  0  0  0  0  0  0  0  0  0
   37.1360   31.8770   40.3560 C   0  0  0  0  0  0  0  0  0  0  0  0
   37.6180   32.6190   40.9950 H   0  0  0  0  0  0  0  0  0  0  0  0
   37.2060   31.7340   38.9890 C   0  0  0  0  0  0  0  0  0  0  0  0
   37.7760   32.3670   38.3070 H   0  0  0  0  0  0  0  0  0  0  0  0
   36.4710   30.7080   38.6310 O   0  0  0  0  0  0  0  0  0  0  0  0
  1  2  1  0  0  0  0
  2  8  1  0  0  0  0
  2  3  2  0  0  0  0
  3 20  1  0  0  0  0
  4  3  1  0  0  0  0
  5  4  2  0  0  0  0
  6  1  2  0  0  0  0
  6  5  1  0  0  0  0
  7  1  1  0  0  0  0
 10  9  1  0  0  0  0
 11  5  1  0  0  0  0
 11 10  2  0  0  0  0
 12 11  1  0  0  0  0
 13 12  2  0  0  0  0
 13 14  1  0  0  0  0
 14 15  2  0  0  0  0
 15 10  1  0  0  0  0
 15 19  1  0  0  0  0
 16 12  1  0  0  0  0
 17 13  1  0  0  0  0
 18 14  1  0  0  0  0
 20 21  1  0  0  0  0
 20 23  1  0  0  0  0
 22 20  1  0  0  0  0
 23 26  1  0  0  0  0
 23 24  1  0  0  0  0
 23 25  1  0  0  0  0
 26 27  2  0  0  0  0
 27 28  1  0  0  0  0
 29 27  1  0  0  0  0
 29 30  1  0  0  0  0
 31 29  2  0  0  0  0
 32 31  1  0  0  0  0
 33 31  1  0  0  0  0
 33 26  1  0  0  0  0
M  END
>  <minimizedAffinity>
-5.16309357

$$$$

 OpenBabel03252502513D

 33 35  0  0  0  0  0  0  0  0999 V2000
   35.4470   28.9630   40.6670 C   0  0  0  0  0  0  0  0  0  0  0  0
   35.9910   29.6460   39.5610 C   0  0  0  0  0  0  0  0  0  0  0  0
   37.3470   29.4630   39.2900 C   0  0  0  0  0  0  0  0  0  0  0  0
   38.0730   28.6490   40.0870 N   0  0  0  0  0  0  0  0  0  0  0  0
   37.5150   28.0050   41.1460 C   0  0  0  0  0  0  0  0  0  0  0  0
   36.2060   28.1590   41.4370 N   0  0  0  0  0  0  0  0  0  0  0  0
   34.4010   29.0740   40.9160 H   0  0  0  0  0  0  0  0  0  0  0  0
   35.3640   30.2860   38.9550 H   0  0  0  0  0  0  0  0  0  0  0  0
   37.2660   25.0880   40.5860 Cl  0  0  0  0  0  0  0  0  0  0  0  0
   38.3190   25.7850   41.7950 C   0  0  0  0  0  0  0  0  0  0  0  0
   38.3600   27.1350   41.9720 C   0  0  0  0  0  0  0  0  0  0  0  0
   39.1970   27.7300   42.9370 C   0  0  0  0  0  0  0  0  0  0  0  0
   39.9640   26.8470   43.6800 C   0  0  0  0  0  0  0  0  0  0  0  0
   39.9190   25.4950   43.4960 C   0  0  0  0  0  0  0  0  0  0  0  0
   39.0970   24.9290   42.5520 C   0  0  0  0  0  0  0  0  0  0  0  0
   39.2450   28.7810   43.0940 H   0  0  0  0  0  0  0  0  0  0  0  0
   40.6500   27.1930   44.4560 H   0  0  0  0  0  0  0  0  0  0  0  0
   40.5170   24.7980   44.0750 H   0  0  0  0  0  0  0  0  0  0  0  0
   39.0380   23.8800   42.3840 H   0  0  0  0  0  0  0  0  0  0  0  0
   37.9160   30.1820   38.1330 C   0  0  0  0  0  0  0  0  0  0  0  0
   39.0130   30.1450   38.1040 H   0  0  0  0  0  0  0  0  0  0  0  0
   37.5490   29.6370   37.2170 H   0  0  0  0  0  0  0  0  0  0  0  0
   37.3890   31.6020   37.9970 C   0  0  0  0  0  0  0  0  0  0  0  0
   37.5180   31.9960   36.9880 H   0  0  0  0  0  0  0  0  0  0  0  0
   36.3510   31.6370   38.3900 H   0  0  0  0  0  0  0  0  0  0  0  0
   38.2030   32.4340   38.9540 C   0  0  0  0  0  0  0  0  0  0  0  0
   37.6860   33.2910   39.9290 C   0  0  0  0  0  0  0  0  0  0  0  0
   36.6300   33.4830   40.1380 H   0  0  0  0  0  0  0  0  0  0  0  0
   38.8110   33.8320   40.5550 C   0  0  0  0  0  0  0  0  0  0  0  0
   38.7610   34.5500   41.3760 H   0  0  0  0  0  0  0  0  0  0  0  0
   39.9190   33.2880   39.9450 C   0  0  0  0  0  0  0  0  0  0  0  0
   40.9580   33.5010   40.1980 H   0  0  0  0  0  0  0  0  0  0  0  0
   39.5220   32.4660   39.0030 O   0  0  0  0  0  0  0  0  0  0  0  0
  1  7  1  0  0  0  0
  1  6  1  0  0  0  0
  2  1  2  0  0  0  0
  3  2  1  0  0  0  0
  3  4  2  0  0  0  0
  4  5  1  0  0  0  0
  5  6  2  0  0  0  0
  5 11  1  0  0  0  0
  8  2  1  0  0  0  0
  9 10  1  0  0  0  0
 10 11  2  0  0  0  0
 10 15  1  0  0  0  0
 11 12  1  0  0  0  0
 12 16  1  0  0  0  0
 12 13  2  0  0  0  0
 13 17  1  0  0  0  0
 14 13  1  0  0  0  0
 14 18  1  0  0  0  0
 15 14  2  0  0  0  0
 19 15  1  0  0  0  0
 20  3  1  0  0  0  0
 21 20  1  0  0  0  0
 22 20  1  0  0  0  0
 23 20  1  0  0  0  0
 23 25  1  0  0  0  0
 23 26  1  0  0  0  0
 24 23  1  0  0  0  0
 26 33  1  0  0  0  0
 26 27  2  0  0  0  0
 27 28  1  0  0  0  0
 27 29  1  0  0  0  0
 29 30  1  0  0  0  0
 31 32  1  0  0  0  0
 31 29  2  0  0  0  0
 33 31  1  0  0  0  0
M  END
>  <minimizedAffinity>
-5.1618576

$$$$

 OpenBabel03252502513D

 33 35  0  0  0  0  0  0  0  0999 V2000
   37.7970   32.3940   40.2110 C   0  0  0  0  0  0  0  0  0  0  0  0
   38.7960   31.6510   40.8720 C   0  0  0  0  0  0  0  0  0  0  0  0
   38.9150   30.2990   40.5550 C   0  0  0  0  0  0  0  0  0  0  0  0
   38.0790   29.7630   39.6380 N   0  0  0  0  0  0  0  0  0  0  0  0
   37.1260   30.5090   39.0190 C   0  0  0  0  0  0  0  0  0  0  0  0
   36.9840   31.8210   39.3030 N   0  0  0  0  0  0  0  0  0  0  0  0
   37.6690   33.4460   40.4250 H   0  0  0  0  0  0  0  0  0  0  0  0
   39.4390   32.1310   41.5980 H   0  0  0  0  0  0  0  0  0  0  0  0
   34.7140   29.1690   40.1450 Cl  0  0  0  0  0  0  0  0  0  0  0  0
   35.1220   29.2240   38.4470 C   0  0  0  0  0  0  0  0  0  0  0  0
   36.2510   29.8650   38.0330 C   0  0  0  0  0  0  0  0  0  0  0  0
   36.6100   29.9290   36.6730 C   0  0  0  0  0  0  0  0  0  0  0  0
   35.7370   29.2990   35.8000 C   0  0  0  0  0  0  0  0  0  0  0  0
   34.6070   28.6590   36.2210 C   0  0  0  0  0  0  0  0  0  0  0  0
   34.2700   28.6040   37.5510 C   0  0  0  0  0  0  0  0  0  0  0  0
   37.4860   30.4230   36.3260 H   0  0  0  0  0  0  0  0  0  0  0  0
   35.9120   29.2840   34.7220 H   0  0  0  0  0  0  0  0  0  0  0  0
   33.9200   28.1630   35.5420 H   0  0  0  0  0  0  0  0  0  0  0  0
   33.3970   28.1140   37.9120 H   0  0  0  0  0  0  0  0  0  0  0  0
   39.9590   29.5210   41.2500 C   0  0  0  0  0  0  0  0  0  0  0  0
   40.1780   28.5640   40.7600 H   0  0  0  0  0  0  0  0  0  0  0  0
   40.9000   30.1390   41.1880 H   0  0  0  0  0  0  0  0  0  0  0  0
   39.6840   29.3520   42.7360 C   0  0  0  0  0  0  0  0  0  0  0  0
   40.5410   28.9390   43.2710 H   0  0  0  0  0  0  0  0  0  0  0  0
   39.2920   30.3100   43.1380 H   0  0  0  0  0  0  0  0  0  0  0  0
   38.5340   28.3830   42.8320 C   0  0  0  0  0  0  0  0  0  0  0  0
   37.3930   28.5510   43.6200 C   0  0  0  0  0  0  0  0  0  0  0  0
   37.1690   29.3970   44.2760 H   0  0  0  0  0  0  0  0  0  0  0  0
   36.6260   27.4090   43.3790 C   0  0  0  0  0  0  0  0  0  0  0  0
   35.6580   27.2200   43.8450 H   0  0  0  0  0  0  0  0  0  0  0  0
   37.3240   26.6320   42.4820 C   0  0  0  0  0  0  0  0  0  0  0  0
   37.0020   25.6690   42.0830 H   0  0  0  0  0  0  0  0  0  0  0  0
   38.4470   27.2380   42.1790 O   0  0  0  0  0  0  0  0  0  0  0  0
  1  7  1  0  0  0  0
  1  2  1  0  0  0  0
  2  8  1  0  0  0  0
  3  2  2  0  0  0  0
  3 20  1  0  0  0  0
  4  3  1  0  0  0  0
  5  6  1  0  0  0  0
  5  4  2  0  0  0  0
  6  1  2  0  0  0  0
 10  9  1  0  0  0  0
 11 10  1  0  0  0  0
 11  5  1  0  0  0  0
 12 11  2  0  0  0  0
 13 14  2  0  0  0  0
 13 12  1  0  0  0  0
 14 15  1  0  0  0  0
 15 19  1  0  0  0  0
 15 10  2  0  0  0  0
 16 12  1  0  0  0  0
 17 13  1  0  0  0  0
 18 14  1  0  0  0  0
 20 23  1  0  0  0  0
 21 20  1  0  0  0  0
 22 20  1  0  0  0  0
 23 26  1  0  0  0  0
 23 25  1  0  0  0  0
 23 24  1  0  0  0  0
 26 27  2  0  0  0  0
 27 28  1  0  0  0  0
 29 27  1  0  0  0  0
 29 30  1  0  0  0  0
 31 29  2  0  0  0  0
 32 31  1  0  0  0  0
 33 31  1  0  0  0  0
 33 26  1  0  0  0  0
M  END
>  <minimizedAffinity>
-5.11849689

$$$$

 OpenBabel03252502513D

 33 35  0  0  0  0  0  0  0  0999 V2000
   35.6880   29.7380   39.9410 C   0  0  0  0  0  0  0  0  0  0  0  0
   35.8600   28.9110   41.0690 C   0  0  0  0  0  0  0  0  0  0  0  0
   36.9830   29.1270   41.8660 C   0  0  0  0  0  0  0  0  0  0  0  0
   37.8490   30.1090   41.5280 N   0  0  0  0  0  0  0  0  0  0  0  0
   37.6510   30.8890   40.4330 C   0  0  0  0  0  0  0  0  0  0  0  0
   36.5750   30.7060   39.6400 N   0  0  0  0  0  0  0  0  0  0  0  0
   34.8310   29.6060   39.2940 H   0  0  0  0  0  0  0  0  0  0  0  0
   35.1350   28.1390   41.2930 H   0  0  0  0  0  0  0  0  0  0  0  0
   39.9110   30.0420   38.6840 Cl  0  0  0  0  0  0  0  0  0  0  0  0
   39.7010   31.6510   39.3320 C   0  0  0  0  0  0  0  0  0  0  0  0
   38.6300   31.9380   40.1230 C   0  0  0  0  0  0  0  0  0  0  0  0
   38.4300   33.2240   40.6620 C   0  0  0  0  0  0  0  0  0  0  0  0
   39.3940   34.1610   40.3280 C   0  0  0  0  0  0  0  0  0  0  0  0
   40.4650   33.8690   39.5340 C   0  0  0  0  0  0  0  0  0  0  0  0
   40.6470   32.6090   39.0160 C   0  0  0  0  0  0  0  0  0  0  0  0
   37.6020   33.4700   41.2830 H   0  0  0  0  0  0  0  0  0  0  0  0
   39.3430   35.1920   40.6870 H   0  0  0  0  0  0  0  0  0  0  0  0
   41.2230   34.5980   39.2690 H   0  0  0  0  0  0  0  0  0  0  0  0
   41.4710   32.3480   38.3940 H   0  0  0  0  0  0  0  0  0  0  0  0
   37.1640   28.2580   43.0450 C   0  0  0  0  0  0  0  0  0  0  0  0
   36.6630   28.6430   43.9420 H   0  0  0  0  0  0  0  0  0  0  0  0
   36.6650   27.2800   42.7890 H   0  0  0  0  0  0  0  0  0  0  0  0
   38.6210   27.9110   43.3100 C   0  0  0  0  0  0  0  0  0  0  0  0
   39.3020   28.4620   42.6580 H   0  0  0  0  0  0  0  0  0  0  0  0
   38.8200   28.0130   44.3970 H   0  0  0  0  0  0  0  0  0  0  0  0
   38.7510   26.4380   43.0200 C   0  0  0  0  0  0  0  0  0  0  0  0
   37.8640   25.6800   42.2510 C   0  0  0  0  0  0  0  0  0  0  0  0
   36.9580   26.0380   41.7540 H   0  0  0  0  0  0  0  0  0  0  0  0
   38.3970   24.3890   42.2690 C   0  0  0  0  0  0  0  0  0  0  0  0
   37.9430   23.5390   41.7570 H   0  0  0  0  0  0  0  0  0  0  0  0
   39.5460   24.4330   43.0260 C   0  0  0  0  0  0  0  0  0  0  0  0
   40.2050   23.5900   43.2400 H   0  0  0  0  0  0  0  0  0  0  0  0
   39.7250   25.6600   43.4540 O   0  0  0  0  0  0  0  0  0  0  0  0
  1  2  1  0  0  0  0
  2  8  1  0  0  0  0
  2  3  2  0  0  0  0
  3 20  1  0  0  0  0
  4  3  1  0  0  0  0
  5  4  2  0  0  0  0
  6  1  2  0  0  0  0
  6  5  1  0  0  0  0
  7  1  1  0  0  0  0
  9 10  1  0  0  0  0
 10 11  1  0  0  0  0
 11  5  1  0  0  0  0
 11 12  2  0  0  0  0
 12 16  1  0  0  0  0
 13 12  1  0  0  0  0
 13 17  1  0  0  0  0
 14 13  2  0  0  0  0
 15 10  2  0  0  0  0
 15 14  1  0  0  0  0
 18 14  1  0  0  0  0
 19 15  1  0  0  0  0
 20 23  1  0  0  0  0
 20 21  1  0  0  0  0
 22 20  1  0  0  0  0
 23 25  1  0  0  0  0
 24 23  1  0  0  0  0
 26 23  1  0  0  0  0
 26 33  1  0  0  0  0
 27 29  1  0  0  0  0
 27 26  2  0  0  0  0
 28 27  1  0  0  0  0
 29 31  2  0  0  0  0
 30 29  1  0  0  0  0
 31 32  1  0  0  0  0
 31 33  1  0  0  0  0
M  END
>  <minimizedAffinity>
-5.10900021

$$$$

 OpenBabel03252502513D

 33 35  0  0  0  0  0  0  0  0999 V2000
   36.9810   27.7940   43.3830 C   0  0  0  0  0  0  0  0  0  0  0  0
   37.6610   28.8590   42.7590 C   0  0  0  0  0  0  0  0  0  0  0  0
   38.2520   28.6130   41.5200 C   0  0  0  0  0  0  0  0  0  0  0  0
   38.1480   27.3800   40.9760 N   0  0  0  0  0  0  0  0  0  0  0  0
   37.4840   26.3760   41.6060 C   0  0  0  0  0  0  0  0  0  0  0  0
   36.9010   26.5800   42.8060 N   0  0  0  0  0  0  0  0  0  0  0  0
   36.5080   27.9390   44.3450 H   0  0  0  0  0  0  0  0  0  0  0  0
   37.7140   29.8270   43.2400 H   0  0  0  0  0  0  0  0  0  0  0  0
   39.5370   24.4050   42.4930 Cl  0  0  0  0  0  0  0  0  0  0  0  0
   38.3030   24.0900   41.2950 C   0  0  0  0  0  0  0  0  0  0  0  0
   37.4090   25.0610   40.9600 C   0  0  0  0  0  0  0  0  0  0  0  0
   36.4020   24.8410   40.0000 C   0  0  0  0  0  0  0  0  0  0  0  0
   36.3930   23.5770   39.4310 C   0  0  0  0  0  0  0  0  0  0  0  0
   37.2910   22.6080   39.7720 C   0  0  0  0  0  0  0  0  0  0  0  0
   38.2680   22.8380   40.7100 C   0  0  0  0  0  0  0  0  0  0  0  0
   35.6930   25.5830   39.7210 H   0  0  0  0  0  0  0  0  0  0  0  0
   35.6580   23.2910   38.6750 H   0  0  0  0  0  0  0  0  0  0  0  0
   37.2900   21.6160   39.3300 H   0  0  0  0  0  0  0  0  0  0  0  0
   38.9840   22.1040   40.9980 H   0  0  0  0  0  0  0  0  0  0  0  0
   38.9670   29.7280   40.8690 C   0  0  0  0  0  0  0  0  0  0  0  0
   39.9190   29.4210   40.4180 H   0  0  0  0  0  0  0  0  0  0  0  0
   38.3040   30.0710   40.0240 H   0  0  0  0  0  0  0  0  0  0  0  0
   39.1280   30.9400   41.7740 C   0  0  0  0  0  0  0  0  0  0  0  0
   38.5460   30.8510   42.6920 H   0  0  0  0  0  0  0  0  0  0  0  0
   40.2120   31.1370   41.9170 H   0  0  0  0  0  0  0  0  0  0  0  0
   38.6140   32.1140   40.9810 C   0  0  0  0  0  0  0  0  0  0  0  0
   37.4670   32.1170   40.1840 C   0  0  0  0  0  0  0  0  0  0  0  0
   36.7830   31.2800   40.0190 H   0  0  0  0  0  0  0  0  0  0  0  0
   37.4050   33.4100   39.6610 C   0  0  0  0  0  0  0  0  0  0  0  0
   36.6170   33.7540   38.9880 H   0  0  0  0  0  0  0  0  0  0  0  0
   38.4860   34.1030   40.1550 C   0  0  0  0  0  0  0  0  0  0  0  0
   38.7330   35.1440   39.9410 H   0  0  0  0  0  0  0  0  0  0  0  0
   39.1810   33.3060   40.9330 O   0  0  0  0  0  0  0  0  0  0  0  0
  1  7  1  0  0  0  0
  2  8  1  0  0  0  0
  2  1  2  0  0  0  0
  3  2  1  0  0  0  0
  4  3  2  0  0  0  0
  4  5  1  0  0  0  0
  5  6  2  0  0  0  0
  6  1  1  0  0  0  0
 10  9  1  0  0  0  0
 11 10  1  0  0  0  0
 11  5  1  0  0  0  0
 12 11  2  0  0  0  0
 13 14  2  0  0  0  0
 13 12  1  0  0  0  0
 14 15  1  0  0  0  0
 15 19  1  0  0  0  0
 15 10  2  0  0  0  0
 16 12  1  0  0  0  0
 17 13  1  0  0  0  0
 18 14  1  0  0  0  0
 20  3  1  0  0  0  0
 20 23  1  0  0  0  0
 21 20  1  0  0  0  0
 22 20  1  0  0  0  0
 23 25  1  0  0  0  0
 23 24  1  0  0  0  0
 26 23  1  0  0  0  0
 27 26  2  0  0  0  0
 28 27  1  0  0  0  0
 29 31  2  0  0  0  0
 29 27  1  0  0  0  0
 30 29  1  0  0  0  0
 31 33  1  0  0  0  0
 32 31  1  0  0  0  0
 33 26  1  0  0  0  0
M  END
>  <minimizedAffinity>
-5.10873127

$$$$

 OpenBabel03252502513D

 33 35  0  0  0  0  0  0  0  0999 V2000
   36.9010   28.3550   38.8980 C   0  0  0  0  0  0  0  0  0  0  0  0
   36.6000   27.6680   40.0910 C   0  0  0  0  0  0  0  0  0  0  0  0
   36.8090   28.3400   41.2950 C   0  0  0  0  0  0  0  0  0  0  0  0
   37.2860   29.6040   41.2680 N   0  0  0  0  0  0  0  0  0  0  0  0
   37.5660   30.2360   40.0980 C   0  0  0  0  0  0  0  0  0  0  0  0
   37.3750   29.6150   38.9150 N   0  0  0  0  0  0  0  0  0  0  0  0
   36.7550   27.8730   37.9400 H   0  0  0  0  0  0  0  0  0  0  0  0
   36.2200   26.6560   40.0550 H   0  0  0  0  0  0  0  0  0  0  0  0
   40.4010   30.5050   40.9770 Cl  0  0  0  0  0  0  0  0  0  0  0  0
   39.3660   31.8390   40.5290 C   0  0  0  0  0  0  0  0  0  0  0  0
   38.0810   31.6100   40.1390 C   0  0  0  0  0  0  0  0  0  0  0  0
   37.2190   32.6620   39.7710 C   0  0  0  0  0  0  0  0  0  0  0  0
   37.7730   33.9300   39.8350 C   0  0  0  0  0  0  0  0  0  0  0  0
   39.0620   34.1540   40.2260 C   0  0  0  0  0  0  0  0  0  0  0  0
   39.8900   33.1170   40.5830 C   0  0  0  0  0  0  0  0  0  0  0  0
   36.2130   32.5070   39.4640 H   0  0  0  0  0  0  0  0  0  0  0  0
   37.2010   34.8220   39.5730 H   0  0  0  0  0  0  0  0  0  0  0  0
   39.5020   35.1440   40.2790 H   0  0  0  0  0  0  0  0  0  0  0  0
   40.8990   33.2570   40.8920 H   0  0  0  0  0  0  0  0  0  0  0  0
   36.4960   27.6190   42.5440 C   0  0  0  0  0  0  0  0  0  0  0  0
   35.4640   27.7760   42.8820 H   0  0  0  0  0  0  0  0  0  0  0  0
   36.5950   26.5220   42.3030 H   0  0  0  0  0  0  0  0  0  0  0  0
   37.5050   27.8820   43.6510 C   0  0  0  0  0  0  0  0  0  0  0  0
   37.8760   28.9090   43.6370 H   0  0  0  0  0  0  0  0  0  0  0  0
   37.0700   27.5490   44.6170 H   0  0  0  0  0  0  0  0  0  0  0  0
   38.6550   26.9440   43.3900 C   0  0  0  0  0  0  0  0  0  0  0  0
   40.0010   27.2150   43.6480 C   0  0  0  0  0  0  0  0  0  0  0  0
   40.4130   28.1360   44.0700 H   0  0  0  0  0  0  0  0  0  0  0  0
   40.6760   26.0610   43.2450 C   0  0  0  0  0  0  0  0  0  0  0  0
   41.7580   25.9380   43.3130 H   0  0  0  0  0  0  0  0  0  0  0  0
   39.7300   25.1760   42.7800 C   0  0  0  0  0  0  0  0  0  0  0  0
   39.9250   24.1760   42.3900 H   0  0  0  0  0  0  0  0  0  0  0  0
   38.5450   25.7310   42.8800 O   0  0  0  0  0  0  0  0  0  0  0  0
  1  6  2  0  0  0  0
  1  2  1  0  0  0  0
  2  3  2  0  0  0  0
  3 20  1  0  0  0  0
  4  3  1  0  0  0  0
  5 11  1  0  0  0  0
  5  4  2  0  0  0  0
  6  5  1  0  0  0  0
  7  1  1  0  0  0  0
  8  2  1  0  0  0  0
 10 15  1  0  0  0  0
 10  9  1  0  0  0  0
 11 10  2  0  0  0  0
 12 13  2  0  0  0  0
 12 11  1  0  0  0  0
 13 14  1  0  0  0  0
 14 18  1  0  0  0  0
 14 15  2  0  0  0  0
 15 19  1  0  0  0  0
 16 12  1  0  0  0  0
 17 13  1  0  0  0  0
 20 21  1  0  0  0  0
 20 23  1  0  0  0  0
 22 20  1  0  0  0  0
 23 25  1  0  0  0  0
 24 23  1  0  0  0  0
 26 27  2  0  0  0  0
 26 23  1  0  0  0  0
 27 28  1  0  0  0  0
 29 30  1  0  0  0  0
 29 27  1  0  0  0  0
 31 33  1  0  0  0  0
 31 29  2  0  0  0  0
 32 31  1  0  0  0  0
 33 26  1  0  0  0  0
M  END
>  <minimizedAffinity>
-5.07216263

$$$$

 OpenBabel03252502513D

 33 35  0  0  0  0  0  0  0  0999 V2000
   37.6320   28.5620   43.6760 C   0  0  0  0  0  0  0  0  0  0  0  0
   38.4620   27.4260   43.6060 C   0  0  0  0  0  0  0  0  0  0  0  0
   39.0630   27.1380   42.3810 C   0  0  0  0  0  0  0  0  0  0  0  0
   38.8280   27.9500   41.3260 N   0  0  0  0  0  0  0  0  0  0  0  0
   38.0220   29.0380   41.4300 C   0  0  0  0  0  0  0  0  0  0  0  0
   37.4240   29.3460   42.6000 N   0  0  0  0  0  0  0  0  0  0  0  0
   37.1440   28.8250   44.6050 H   0  0  0  0  0  0  0  0  0  0  0  0
   38.6160   26.8100   44.4820 H   0  0  0  0  0  0  0  0  0  0  0  0
   35.7660   28.2050   39.6680 Cl  0  0  0  0  0  0  0  0  0  0  0  0
   36.8030   29.5810   39.3760 C   0  0  0  0  0  0  0  0  0  0  0  0
   37.8090   29.8790   40.2460 C   0  0  0  0  0  0  0  0  0  0  0  0
   38.6630   30.9800   40.0410 C   0  0  0  0  0  0  0  0  0  0  0  0
   38.4030   31.7260   38.9040 C   0  0  0  0  0  0  0  0  0  0  0  0
   37.3930   31.4240   38.0360 C   0  0  0  0  0  0  0  0  0  0  0  0
   36.5690   30.3460   38.2490 C   0  0  0  0  0  0  0  0  0  0  0  0
   39.4550   31.2310   40.7060 H   0  0  0  0  0  0  0  0  0  0  0  0
   38.9990   32.6030   38.6420 H   0  0  0  0  0  0  0  0  0  0  0  0
   37.1850   32.0040   37.1430 H   0  0  0  0  0  0  0  0  0  0  0  0
   35.7730   30.0820   37.5930 H   0  0  0  0  0  0  0  0  0  0  0  0
   39.9300   25.9450   42.3080 C   0  0  0  0  0  0  0  0  0  0  0  0
   40.3290   25.7670   41.3010 H   0  0  0  0  0  0  0  0  0  0  0  0
   40.8140   26.1620   42.9730 H   0  0  0  0  0  0  0  0  0  0  0  0
   39.2800   24.7010   42.8920 C   0  0  0  0  0  0  0  0  0  0  0  0
   40.0030   23.9040   43.0770 H   0  0  0  0  0  0  0  0  0  0  0  0
   38.6670   24.9970   43.7690 H   0  0  0  0  0  0  0  0  0  0  0  0
   38.2900   24.2310   41.8570 C   0  0  0  0  0  0  0  0  0  0  0  0
   36.9170   24.4890   41.8710 C   0  0  0  0  0  0  0  0  0  0  0  0
   36.3650   25.0590   42.6230 H   0  0  0  0  0  0  0  0  0  0  0  0
   36.4290   23.8580   40.7240 C   0  0  0  0  0  0  0  0  0  0  0  0
   35.3780   23.8650   40.4300 H   0  0  0  0  0  0  0  0  0  0  0  0
   37.5020   23.2700   40.0940 C   0  0  0  0  0  0  0  0  0  0  0  0
   37.4650   22.6960   39.1670 H   0  0  0  0  0  0  0  0  0  0  0  0
   38.5870   23.5110   40.7920 O   0  0  0  0  0  0  0  0  0  0  0  0
  1  7  1  0  0  0  0
  2  1  1  0  0  0  0
  2  8  1  0  0  0  0
  3  2  2  0  0  0  0
  4  5  2  0  0  0  0
  4  3  1  0  0  0  0
  5  6  1  0  0  0  0
  6  1  2  0  0  0  0
 10  9  1  0  0  0  0
 10 11  1  0  0  0  0
 11  5  1  0  0  0  0
 12 11  2  0  0  0  0
 12 16  1  0  0  0  0
 13 12  1  0  0  0  0
 14 15  1  0  0  0  0
 14 13  2  0  0  0  0
 15 10  2  0  0  0  0
 17 13  1  0  0  0  0
 18 14  1  0  0  0  0
 19 15  1  0  0  0  0
 20  3  1  0  0  0  0
 20 23  1  0  0  0  0
 20 22  1  0  0  0  0
 21 20  1  0  0  0  0
 23 24  1  0  0  0  0
 23 25  1  0  0  0  0
 26 27  2  0  0  0  0
 26 23  1  0  0  0  0
 27 28  1  0  0  0  0
 29 27  1  0  0  0  0
 30 29  1  0  0  0  0
 31 29  2  0  0  0  0
 31 33  1  0  0  0  0
 32 31  1  0  0  0  0
 33 26  1  0  0  0  0
M  END
>  <minimizedAffinity>
-5.06806517

$$$$

 OpenBabel03252502513D

 33 35  0  0  0  0  0  0  0  0999 V2000
   36.9680   30.7660   41.2180 C   0  0  0  0  0  0  0  0  0  0  0  0
   37.1240   29.7070   42.1340 C   0  0  0  0  0  0  0  0  0  0  0  0
   36.5860   28.4680   41.7890 C   0  0  0  0  0  0  0  0  0  0  0  0
   35.9440   28.3360   40.6070 N   0  0  0  0  0  0  0  0  0  0  0  0
   35.8120   29.3800   39.7470 C   0  0  0  0  0  0  0  0  0  0  0  0
   36.3220   30.5920   40.0490 N   0  0  0  0  0  0  0  0  0  0  0  0
   37.3690   31.7450   41.4430 H   0  0  0  0  0  0  0  0  0  0  0  0
   37.6470   29.8680   43.0670 H   0  0  0  0  0  0  0  0  0  0  0  0
   37.5510   29.2250   37.3310 Cl  0  0  0  0  0  0  0  0  0  0  0  0
   35.8090   29.0850   37.3160 C   0  0  0  0  0  0  0  0  0  0  0  0
   35.1040   29.1690   38.4790 C   0  0  0  0  0  0  0  0  0  0  0  0
   33.7000   29.0600   38.5030 C   0  0  0  0  0  0  0  0  0  0  0  0
   33.1000   28.8630   37.2700 C   0  0  0  0  0  0  0  0  0  0  0  0
   33.8120   28.7790   36.1080 C   0  0  0  0  0  0  0  0  0  0  0  0
   35.1810   28.8870   36.1000 C   0  0  0  0  0  0  0  0  0  0  0  0
   33.1290   29.1230   39.3980 H   0  0  0  0  0  0  0  0  0  0  0  0
   32.0180   28.7640   37.1650 H   0  0  0  0  0  0  0  0  0  0  0  0
   33.3490   28.6250   35.1390 H   0  0  0  0  0  0  0  0  0  0  0  0
   35.7660   28.8270   35.2120 H   0  0  0  0  0  0  0  0  0  0  0  0
   36.7470   27.3600   42.7510 C   0  0  0  0  0  0  0  0  0  0  0  0
   36.3530   27.5970   43.7480 H   0  0  0  0  0  0  0  0  0  0  0  0
   36.1260   26.5080   42.3510 H   0  0  0  0  0  0  0  0  0  0  0  0
   38.1710   26.8280   42.8120 C   0  0  0  0  0  0  0  0  0  0  0  0
   38.8870   27.5100   42.3500 H   0  0  0  0  0  0  0  0  0  0  0  0
   38.3990   26.5400   43.8600 H   0  0  0  0  0  0  0  0  0  0  0  0
   38.1580   25.5340   42.0390 C   0  0  0  0  0  0  0  0  0  0  0  0
   37.1350   24.5840   42.0620 C   0  0  0  0  0  0  0  0  0  0  0  0
   36.2060   24.6360   42.6370 H   0  0  0  0  0  0  0  0  0  0  0  0
   37.5710   23.5750   41.2000 C   0  0  0  0  0  0  0  0  0  0  0  0
   36.9990   22.6710   40.9870 H   0  0  0  0  0  0  0  0  0  0  0  0
   38.8000   23.9590   40.7130 C   0  0  0  0  0  0  0  0  0  0  0  0
   39.4160   23.3940   40.0120 H   0  0  0  0  0  0  0  0  0  0  0  0
   39.1170   25.1220   41.2300 O   0  0  0  0  0  0  0  0  0  0  0  0
  1  7  1  0  0  0  0
  1  2  1  0  0  0  0
  2  8  1  0  0  0  0
  3  2  2  0  0  0  0
  3 20  1  0  0  0  0
  4  3  1  0  0  0  0
  5  6  1  0  0  0  0
  5  4  2  0  0  0  0
  6  1  2  0  0  0  0
 10  9  1  0  0  0  0
 10 11  1  0  0  0  0
 11 12  2  0  0  0  0
 11  5  1  0  0  0  0
 12 16  1  0  0  0  0
 13 12  1  0  0  0  0
 14 13  2  0  0  0  0
 15 14  1  0  0  0  0
 15 10  2  0  0  0  0
 17 13  1  0  0  0  0
 18 14  1  0  0  0  0
 19 15  1  0  0  0  0
 20 23  1  0  0  0  0
 20 21  1  0  0  0  0
 22 20  1  0  0  0  0
 23 25  1  0  0  0  0
 24 23  1  0  0  0  0
 26 27  2  0  0  0  0
 26 23  1  0  0  0  0
 27 28  1  0  0  0  0
 29 27  1  0  0  0  0
 30 29  1  0  0  0  0
 31 29  2  0  0  0  0
 31 33  1  0  0  0  0
 32 31  1  0  0  0  0
 33 26  1  0  0  0  0
M  END
>  <minimizedAffinity>
-5.06346703

$$$$

 OpenBabel03252502513D

 33 35  0  0  0  0  0  0  0  0999 V2000
   37.5430   28.5340   43.6790 C   0  0  0  0  0  0  0  0  0  0  0  0
   38.3950   27.4140   43.5940 C   0  0  0  0  0  0  0  0  0  0  0  0
   39.0160   27.1640   42.3710 C   0  0  0  0  0  0  0  0  0  0  0  0
   38.7780   27.9940   41.3320 N   0  0  0  0  0  0  0  0  0  0  0  0
   37.9500   29.0650   41.4490 C   0  0  0  0  0  0  0  0  0  0  0  0
   37.3330   29.3370   42.6190 N   0  0  0  0  0  0  0  0  0  0  0  0
   37.0410   28.7660   44.6080 H   0  0  0  0  0  0  0  0  0  0  0  0
   38.5500   26.7820   44.4590 H   0  0  0  0  0  0  0  0  0  0  0  0
   39.6810   31.4880   41.3210 Cl  0  0  0  0  0  0  0  0  0  0  0  0
   38.4760   31.0600   40.1300 C   0  0  0  0  0  0  0  0  0  0  0  0
   37.7350   29.9280   40.2810 C   0  0  0  0  0  0  0  0  0  0  0  0
   36.7550   29.5530   39.3410 C   0  0  0  0  0  0  0  0  0  0  0  0
   36.6060   30.4140   38.2660 C   0  0  0  0  0  0  0  0  0  0  0  0
   37.3530   31.5480   38.1200 C   0  0  0  0  0  0  0  0  0  0  0  0
   38.3040   31.9010   39.0460 C   0  0  0  0  0  0  0  0  0  0  0  0
   36.1640   28.6740   39.4380 H   0  0  0  0  0  0  0  0  0  0  0  0
   35.8780   30.2270   37.4740 H   0  0  0  0  0  0  0  0  0  0  0  0
   37.2410   32.2270   37.2810 H   0  0  0  0  0  0  0  0  0  0  0  0
   38.9030   32.7770   38.9620 H   0  0  0  0  0  0  0  0  0  0  0  0
   39.9050   25.9890   42.2820 C   0  0  0  0  0  0  0  0  0  0  0  0
   40.3330   25.8510   41.2800 H   0  0  0  0  0  0  0  0  0  0  0  0
   40.7670   26.1990   42.9770 H   0  0  0  0  0  0  0  0  0  0  0  0
   39.2620   24.7150   42.8080 C   0  0  0  0  0  0  0  0  0  0  0  0
   39.9890   23.9130   42.9490 H   0  0  0  0  0  0  0  0  0  0  0  0
   38.6540   24.9660   43.7030 H   0  0  0  0  0  0  0  0  0  0  0  0
   38.2670   24.2950   41.7580 C   0  0  0  0  0  0  0  0  0  0  0  0
   36.8820   24.4610   41.8370 C   0  0  0  0  0  0  0  0  0  0  0  0
   36.3240   24.9120   42.6610 H   0  0  0  0  0  0  0  0  0  0  0  0
   36.3940   23.9230   40.6440 C   0  0  0  0  0  0  0  0  0  0  0  0
   35.3350   23.8930   40.3820 H   0  0  0  0  0  0  0  0  0  0  0  0
   37.4780   23.4750   39.9250 C   0  0  0  0  0  0  0  0  0  0  0  0
   37.4440   23.0000   38.9430 H   0  0  0  0  0  0  0  0  0  0  0  0
   38.5700   23.7100   40.6130 O   0  0  0  0  0  0  0  0  0  0  0  0
  1  7  1  0  0  0  0
  2  1  1  0  0  0  0
  2  8  1  0  0  0  0
  3  2  2  0  0  0  0
  4  5  2  0  0  0  0
  4  3  1  0  0  0  0
  5  6  1  0  0  0  0
  6  1  2  0  0  0  0
 10 11  1  0  0  0  0
 10  9  1  0  0  0  0
 11  5  1  0  0  0  0
 12 16  1  0  0  0  0
 12 11  2  0  0  0  0
 13 12  1  0  0  0  0
 14 13  2  0  0  0  0
 14 15  1  0  0  0  0
 15 10  2  0  0  0  0
 17 13  1  0  0  0  0
 18 14  1  0  0  0  0
 19 15  1  0  0  0  0
 20  3  1  0  0  0  0
 20 23  1  0  0  0  0
 20 22  1  0  0  0  0
 21 20  1  0  0  0  0
 23 24  1  0  0  0  0
 23 25  1  0  0  0  0
 26 27  2  0  0  0  0
 26 23  1  0  0  0  0
 27 28  1  0  0  0  0
 29 27  1  0  0  0  0
 30 29  1  0  0  0  0
 31 33  1  0  0  0  0
 31 29  2  0  0  0  0
 32 31  1  0  0  0  0
 33 26  1  0  0  0  0
M  END
>  <minimizedAffinity>
-5.02215767

$$$$
