
 OpenBabel03252509083D

 40 43  0  0  0  0  0  0  0  0999 V2000
   47.5860   31.7890   38.9110 C   0  0  0  0  0  0  0  0  0  0  0  0
   47.1670   33.0830   38.9460 C   0  0  0  0  0  0  0  0  0  0  0  0
   47.8190   34.0460   38.1920 C   0  0  0  0  0  0  0  0  0  0  0  0
   48.8910   33.6900   37.4080 C   0  0  0  0  0  0  0  0  0  0  0  0
   49.3520   32.3760   37.3420 C   0  0  0  0  0  0  0  0  0  0  0  0
   48.6750   31.4250   38.1130 C   0  0  0  0  0  0  0  0  0  0  0  0
   47.5190   35.0840   38.1920 H   0  0  0  0  0  0  0  0  0  0  0  0
   49.4740   34.3450   36.7830 H   0  0  0  0  0  0  0  0  0  0  0  0
   50.1730   32.0300   36.7570 H   0  0  0  0  0  0  0  0  0  0  0  0
   49.0040   30.3880   38.0890 H   0  0  0  0  0  0  0  0  0  0  0  0
   45.3900   35.3610   43.2250 Cl  0  0  0  0  0  0  0  0  0  0  0  0
   45.2070   34.5950   41.6700 C   0  0  0  0  0  0  0  0  0  0  0  0
   46.2860   34.1780   40.9610 C   0  0  0  0  0  0  0  0  0  0  0  0
   46.0360   33.5620   39.7430 C   0  0  0  0  0  0  0  0  0  0  0  0
   44.7580   33.3810   39.2730 C   0  0  0  0  0  0  0  0  0  0  0  0
   43.6910   33.8050   39.9950 C   0  0  0  0  0  0  0  0  0  0  0  0
   43.9260   34.4140   41.2020 C   0  0  0  0  0  0  0  0  0  0  0  0
   44.6260   32.8980   38.3200 H   0  0  0  0  0  0  0  0  0  0  0  0
   42.6950   33.6480   39.5980 H   0  0  0  0  0  0  0  0  0  0  0  0
   43.0550   34.7440   41.7610 H   0  0  0  0  0  0  0  0  0  0  0  0
   49.5780   35.7550   41.9180 C   0  0  0  0  0  0  0  0  0  0  0  0
   48.2960   35.5710   41.3850 C   0  0  0  0  0  0  0  0  0  0  0  0
   47.6090   34.3800   41.5070 C   0  0  0  0  0  0  0  0  0  0  0  0
   48.2760   33.4080   42.1810 N   0  0  0  0  0  0  0  0  0  0  0  0
   49.5020   33.5750   42.6930 C   0  0  0  0  0  0  0  0  0  0  0  0
   50.1430   34.7400   42.5600 N   0  0  0  0  0  0  0  0  0  0  0  0
   50.0390   36.7250   41.7720 H   0  0  0  0  0  0  0  0  0  0  0  0
   47.8110   36.3790   40.8580 H   0  0  0  0  0  0  0  0  0  0  0  0
   49.8850   32.6980   43.2000 H   0  0  0  0  0  0  0  0  0  0  0  0
   46.7910   30.5880   39.7830 S   0  0  0  0  0  0  0  0  0  0  0  0
   45.5260   30.1180   39.0970 O   0  0  0  0  0  0  0  0  0  0  0  0
   47.7390   29.3390   39.6450 O   0  0  0  0  0  0  0  0  0  0  0  0
   46.4350   30.6750   41.4650 C   0  0  0  0  0  0  0  0  0  0  0  0
   47.3350   30.1100   42.4050 C   0  0  0  0  0  0  0  0  0  0  0  0
   48.2950   29.5860   42.2190 H   0  0  0  0  0  0  0  0  0  0  0  0
   46.9280   30.2510   43.7110 C   0  0  0  0  0  0  0  0  0  0  0  0
   47.3860   29.9340   44.6150 H   0  0  0  0  0  0  0  0  0  0  0  0
   45.7570   30.9150   43.5360 C   0  0  0  0  0  0  0  0  0  0  0  0
   45.0400   31.2650   44.2960 H   0  0  0  0  0  0  0  0  0  0  0  0
   45.5360   31.1210   42.3050 O   0  0  0  0  0  0  0  0  0  0  0  0
  1  2  1  0  0  0  0
  1 30  1  0  0  0  0
  2 14  1  0  0  0  0
  3  7  1  0  0  0  0
  3  2  2  0  0  0  0
  4  3  1  0  0  0  0
  5  4  2  0  0  0  0
  5  6  1  0  0  0  0
  6  1  2  0  0  0  0
  8  4  1  0  0  0  0
  9  5  1  0  0  0  0
 10  6  1  0  0  0  0
 12 11  1  0  0  0  0
 13 23  1  0  0  0  0
 13 12  2  0  0  0  0
 14 13  1  0  0  0  0
 15 14  2  0  0  0  0
 15 16  1  0  0  0  0
 16 17  2  0  0  0  0
 17 12  1  0  0  0  0
 17 20  1  0  0  0  0
 18 15  1  0  0  0  0
 19 16  1  0  0  0  0
 21 26  1  0  0  0  0
 22 23  1  0  0  0  0
 22 21  2  0  0  0  0
 23 24  2  0  0  0  0
 24 25  1  0  0  0  0
 25 29  1  0  0  0  0
 26 25  2  0  0  0  0
 27 21  1  0  0  0  0
 28 22  1  0  0  0  0
 30 33  1  0  0  0  0
 31 30  2  0  0  0  0
 32 30  2  0  0  0  0
 33 40  1  0  0  0  0
 33 34  2  0  0  0  0
 34 36  1  0  0  0  0
 35 34  1  0  0  0  0
 36 37  1  0  0  0  0
 38 36  2  0  0  0  0
 38 39  1  0  0  0  0
 40 38  1  0  0  0  0
M  END
>  <minimizedAffinity>
-4.65613365

>  <minimizedRMSD>
0.812768698

$$$$
