
 OpenBabel03242512593D

 34 37  0  0  0  0  0  0  0  0999 V2000
   45.0640   33.5050   41.1560 F   0  0  0  0  0  0  0  0  0  0  0  0
   46.2870   34.1090   41.0440 C   0  0  0  0  0  0  0  0  0  0  0  0
   46.8400   34.8060   42.0820 C   0  0  0  0  0  0  0  0  0  0  0  0
   48.0710   35.3770   41.8760 C   0  0  0  0  0  0  0  0  0  0  0  0
   48.7690   35.2870   40.6940 C   0  0  0  0  0  0  0  0  0  0  0  0
   48.1730   34.5760   39.6800 C   0  0  0  0  0  0  0  0  0  0  0  0
   46.9370   33.9830   39.8350 C   0  0  0  0  0  0  0  0  0  0  0  0
   48.5090   35.9310   42.7010 H   0  0  0  0  0  0  0  0  0  0  0  0
   49.7400   35.7500   40.5620 H   0  0  0  0  0  0  0  0  0  0  0  0
   48.6450   34.4520   38.7180 H   0  0  0  0  0  0  0  0  0  0  0  0
   44.4720   35.9350   44.8240 C   0  0  0  0  0  0  0  0  0  0  0  0
   45.1700   35.8970   43.6110 C   0  0  0  0  0  0  0  0  0  0  0  0
   46.0820   34.8920   43.3330 C   0  0  0  0  0  0  0  0  0  0  0  0
   46.2410   33.9600   44.3230 N   0  0  0  0  0  0  0  0  0  0  0  0
   45.5680   33.9980   45.4870 C   0  0  0  0  0  0  0  0  0  0  0  0
   44.6880   34.9840   45.7300 N   0  0  0  0  0  0  0  0  0  0  0  0
   43.7630   36.7300   45.0170 H   0  0  0  0  0  0  0  0  0  0  0  0
   45.0040   36.6560   42.8750 H   0  0  0  0  0  0  0  0  0  0  0  0
   45.8600   33.1580   46.1070 H   0  0  0  0  0  0  0  0  0  0  0  0
   46.3200   33.2350   38.7520 C   0  0  0  0  0  0  0  0  0  0  0  0
   46.8790   32.8500   37.5650 C   0  0  0  0  0  0  0  0  0  0  0  0
   45.9320   32.1530   36.8240 C   0  0  0  0  0  0  0  0  0  0  0  0
   44.8280   32.1340   37.5760 N   0  0  0  0  0  0  0  0  0  0  0  0
   45.0380   32.7710   38.7250 N   0  0  0  0  0  0  0  0  0  0  0  0
   47.8860   33.0350   37.2200 H   0  0  0  0  0  0  0  0  0  0  0  0
   46.0040   31.6980   35.8460 H   0  0  0  0  0  0  0  0  0  0  0  0
   43.5450   31.5510   37.3110 C   0  0  0  0  0  0  0  0  0  0  0  0
   42.2900   31.6270   37.8790 C   0  0  0  0  0  0  0  0  0  0  0  0
   42.1490   32.2580   38.7410 H   0  0  0  0  0  0  0  0  0  0  0  0
   41.4800   30.7860   37.1080 C   0  0  0  0  0  0  0  0  0  0  0  0
   40.4340   30.6770   37.3610 H   0  0  0  0  0  0  0  0  0  0  0  0
   42.3110   30.2560   36.1170 C   0  0  0  0  0  0  0  0  0  0  0  0
   41.8840   29.5660   35.3940 H   0  0  0  0  0  0  0  0  0  0  0  0
   43.5250   30.7290   36.2670 O   0  0  0  0  0  0  0  0  0  0  0  0
  2  1  1  0  0  0  0
  2  3  1  0  0  0  0
  3 13  1  0  0  0  0
  4  3  2  0  0  0  0
  4  8  1  0  0  0  0
  5  4  1  0  0  0  0
  6  7  1  0  0  0  0
  6  5  2  0  0  0  0
  7  2  2  0  0  0  0
  9  5  1  0  0  0  0
 10  6  1  0  0  0  0
 11 17  1  0  0  0  0
 11 16  1  0  0  0  0
 12 11  2  0  0  0  0
 13 12  1  0  0  0  0
 13 14  2  0  0  0  0
 14 15  1  0  0  0  0
 15 16  2  0  0  0  0
 15 19  1  0  0  0  0
 18 12  1  0  0  0  0
 20  7  1  0  0  0  0
 21 20  1  0  0  0  0
 22 21  2  0  0  0  0
 22 23  1  0  0  0  0
 23 24  1  0  0  0  0
 24 20  2  0  0  0  0
 25 21  1  0  0  0  0
 26 22  1  0  0  0  0
 27 23  1  0  0  0  0
 27 28  2  0  0  0  0
 28 29  1  0  0  0  0
 30 31  1  0  0  0  0
 30 28  1  0  0  0  0
 32 34  1  0  0  0  0
 32 30  2  0  0  0  0
 33 32  1  0  0  0  0
 34 27  1  0  0  0  0
M  END
>  <minimizedAffinity>
-5.95401478

>  <minimizedRMSD>
1.20134795

$$$$
