
 OpenBabel03242514223D

 33 36  0  0  0  0  0  0  0  0999 V2000
   44.7950   33.1230   41.1180 Cl  0  0  0  0  0  0  0  0  0  0  0  0
   46.3260   33.9520   40.9060 C   0  0  0  0  0  0  0  0  0  0  0  0
   46.8360   34.7140   41.9170 C   0  0  0  0  0  0  0  0  0  0  0  0
   48.0520   35.3770   41.7630 C   0  0  0  0  0  0  0  0  0  0  0  0
   48.6910   35.2250   40.5650 C   0  0  0  0  0  0  0  0  0  0  0  0
   48.1730   34.4540   39.5460 C   0  0  0  0  0  0  0  0  0  0  0  0
   46.9820   33.8110   39.7120 C   0  0  0  0  0  0  0  0  0  0  0  0
   48.4780   35.9840   42.5420 H   0  0  0  0  0  0  0  0  0  0  0  0
   49.6500   35.6960   40.3300 H   0  0  0  0  0  0  0  0  0  0  0  0
   48.6760   34.3270   38.5880 H   0  0  0  0  0  0  0  0  0  0  0  0
   45.6050   34.0420   45.3240 C   0  0  0  0  0  0  0  0  0  0  0  0
   44.7180   35.1060   45.5320 C   0  0  0  0  0  0  0  0  0  0  0  0
   44.5470   36.0370   44.5170 C   0  0  0  0  0  0  0  0  0  0  0  0
   45.2480   35.8710   43.3730 N   0  0  0  0  0  0  0  0  0  0  0  0
   46.1040   34.8390   43.1800 C   0  0  0  0  0  0  0  0  0  0  0  0
   46.2870   33.9170   44.1590 N   0  0  0  0  0  0  0  0  0  0  0  0
   45.7250   33.3210   46.1340 H   0  0  0  0  0  0  0  0  0  0  0  0
   44.1500   35.2670   46.4190 H   0  0  0  0  0  0  0  0  0  0  0  0
   43.9180   36.8970   44.5110 H   0  0  0  0  0  0  0  0  0  0  0  0
   46.4050   32.9880   38.6560 C   0  0  0  0  0  0  0  0  0  0  0  0
   45.5070   33.3550   37.7330 N   0  0  0  0  0  0  0  0  0  0  0  0
   45.2320   32.3030   36.9420 C   0  0  0  0  0  0  0  0  0  0  0  0
   45.9670   31.2530   37.3720 N   0  0  0  0  0  0  0  0  0  0  0  0
   46.6830   31.6840   38.4240 N   0  0  0  0  0  0  0  0  0  0  0  0
   44.5790   32.1870   36.1030 H   0  0  0  0  0  0  0  0  0  0  0  0
   46.1010   29.9010   36.9440 C   0  0  0  0  0  0  0  0  0  0  0  0
   46.7890   29.0290   37.7950 C   0  0  0  0  0  0  0  0  0  0  0  0
   47.2710   29.1470   38.7590 H   0  0  0  0  0  0  0  0  0  0  0  0
   46.7860   27.7860   37.1650 C   0  0  0  0  0  0  0  0  0  0  0  0
   47.1790   26.8020   37.4090 H   0  0  0  0  0  0  0  0  0  0  0  0
   46.0930   27.9820   35.9650 C   0  0  0  0  0  0  0  0  0  0  0  0
   45.8210   27.3370   35.1300 H   0  0  0  0  0  0  0  0  0  0  0  0
   45.7090   29.2440   35.8790 O   0  0  0  0  0  0  0  0  0  0  0  0
  2  1  1  0  0  0  0
  2  3  1  0  0  0  0
  3 15  1  0  0  0  0
  4  3  2  0  0  0  0
  4  8  1  0  0  0  0
  5  4  1  0  0  0  0
  6  7  1  0  0  0  0
  6  5  2  0  0  0  0
  7  2  2  0  0  0  0
  9  5  1  0  0  0  0
 10  6  1  0  0  0  0
 11 12  1  0  0  0  0
 11 17  1  0  0  0  0
 12 18  1  0  0  0  0
 13 12  2  0  0  0  0
 14 13  1  0  0  0  0
 15 14  2  0  0  0  0
 15 16  1  0  0  0  0
 16 11  2  0  0  0  0
 19 13  1  0  0  0  0
 20  7  1  0  0  0  0
 21 20  1  0  0  0  0
 22 23  1  0  0  0  0
 22 21  2  0  0  0  0
 23 24  1  0  0  0  0
 24 20  2  0  0  0  0
 25 22  1  0  0  0  0
 26 23  1  0  0  0  0
 26 27  2  0  0  0  0
 27 28  1  0  0  0  0
 29 30  1  0  0  0  0
 29 27  1  0  0  0  0
 31 29  2  0  0  0  0
 32 31  1  0  0  0  0
 33 31  1  0  0  0  0
 33 26  1  0  0  0  0
M  END
>  <minimizedAffinity>
-5.27367496

>  <minimizedRMSD>
0.114383578

$$$$
