
 OpenBabel03252509263D

 29 31  0  0  1  0  0  0  0  0999 V2000
   46.6030   35.1010   41.9200 C   0  0  1  0  0  0  0  0  0  0  0  0
   48.1450   35.2680   41.9280 C   0  0  0  0  0  0  0  0  0  0  0  0
   47.3480   34.0880   41.2940 C   0  0  2  0  0  0  0  0  0  0  0  0
   46.1250   35.9400   41.3920 H   0  0  0  0  0  0  0  0  0  0  0  0
   48.5820   35.9190   41.1590 H   0  0  0  0  0  0  0  0  0  0  0  0
   48.7010   35.0120   42.8360 H   0  0  0  0  0  0  0  0  0  0  0  0
   47.4730   33.1040   41.8310 H   0  0  0  0  0  0  0  0  0  0  0  0
   44.6500   35.4150   45.1040 C   0  0  0  0  0  0  0  0  0  0  0  0
   45.1310   35.7200   43.8040 C   0  0  0  0  0  0  0  0  0  0  0  0
   46.0800   34.8780   43.3150 C   0  0  0  0  0  0  0  0  0  0  0  0
   46.5370   33.8050   44.0420 N   0  0  0  0  0  0  0  0  0  0  0  0
   46.0540   33.5520   45.2770 C   0  0  0  0  0  0  0  0  0  0  0  0
   45.1070   34.3600   45.8080 N   0  0  0  0  0  0  0  0  0  0  0  0
   43.8900   36.0750   45.5140 H   0  0  0  0  0  0  0  0  0  0  0  0
   46.3860   32.7230   45.8810 H   0  0  0  0  0  0  0  0  0  0  0  0
   44.6660   36.8440   43.0830 N   0  0  0  0  0  0  0  0  0  0  0  0
   43.7850   37.0470   42.5660 H   0  0  0  0  0  0  0  0  0  0  0  0
   45.4720   37.5320   43.1750 H   0  0  0  0  0  0  0  0  0  0  0  0
   47.3770   33.9280   39.7920 C   0  0  0  0  0  0  0  0  0  0  0  0
   48.3010   33.4340   39.4950 H   0  0  0  0  0  0  0  0  0  0  0  0
   47.2690   34.9010   39.2680 H   0  0  0  0  0  0  0  0  0  0  0  0
   46.2120   33.0410   39.4710 C   0  0  0  0  0  0  0  0  0  0  0  0
   45.7400   31.9800   40.2050 C   0  0  0  0  0  0  0  0  0  0  0  0
   46.1540   31.6370   41.1290 H   0  0  0  0  0  0  0  0  0  0  0  0
   44.6520   31.4750   39.5080 C   0  0  0  0  0  0  0  0  0  0  0  0
   44.0440   30.6300   39.8110 H   0  0  0  0  0  0  0  0  0  0  0  0
   44.5210   32.2680   38.3730 C   0  0  0  0  0  0  0  0  0  0  0  0
   43.7320   32.0600   37.6710 H   0  0  0  0  0  0  0  0  0  0  0  0
   45.4610   33.1770   38.3930 O   0  0  0  0  0  0  0  0  0  0  0  0
  1  4  1  6  0  0  0
  1  2  1  0  0  0  0
  1 10  1  0  0  0  0
  2  6  1  0  0  0  0
  3  7  1  1  0  0  0
  3  1  1  0  0  0  0
  3  2  1  0  0  0  0
  5  2  1  0  0  0  0
  8 14  1  0  0  0  0
  8 13  1  0  0  0  0
  9  8  2  0  0  0  0
 10  9  1  0  0  0  0
 10 11  2  0  0  0  0
 11 12  1  0  0  0  0
 12 13  2  0  0  0  0
 12 15  1  0  0  0  0
 16 18  1  0  0  0  0
 16  9  1  0  0  0  0
 17 16  1  0  0  0  0
 19  3  1  0  0  0  0
 20 19  1  0  0  0  0
 21 19  1  0  0  0  0
 22 19  1  0  0  0  0
 22 23  2  0  0  0  0
 23 24  1  0  0  0  0
 25 26  1  0  0  0  0
 25 23  1  0  0  0  0
 27 29  1  0  0  0  0
 27 25  2  0  0  0  0
 28 27  1  0  0  0  0
 29 22  1  0  0  0  0
M  END
>  <minimizedAffinity>
-4.41062927

>  <minimizedRMSD>
0.663289428

$$$$
