
 OpenBabel03252504153D

 34 36  0  0  0  0  0  0  0  0999 V2000
   47.6270   30.0330   44.9240 F   0  0  0  0  0  0  0  0  0  0  0  0
   47.5050   30.8010   46.0540 C   0  0  0  0  0  0  0  0  0  0  0  0
   46.9340   32.0480   45.9680 C   0  0  0  0  0  0  0  0  0  0  0  0
   46.8510   32.7590   47.1660 C   0  0  0  0  0  0  0  0  0  0  0  0
   47.3130   32.2360   48.3510 C   0  0  0  0  0  0  0  0  0  0  0  0
   47.8750   30.9710   48.3570 C   0  0  0  0  0  0  0  0  0  0  0  0
   47.9890   30.2150   47.2060 C   0  0  0  0  0  0  0  0  0  0  0  0
   46.4060   33.7560   47.1510 H   0  0  0  0  0  0  0  0  0  0  0  0
   47.2470   32.7870   49.2720 H   0  0  0  0  0  0  0  0  0  0  0  0
   48.2460   30.5380   49.2770 H   0  0  0  0  0  0  0  0  0  0  0  0
   48.5800   28.8800   47.2030 C   0  0  0  0  0  0  0  0  0  0  0  0
   49.9220   28.6440   46.9930 C   0  0  0  0  0  0  0  0  0  0  0  0
   50.6700   29.3810   46.8110 H   0  0  0  0  0  0  0  0  0  0  0  0
   50.0080   27.2550   47.0790 C   0  0  0  0  0  0  0  0  0  0  0  0
   50.9340   26.6880   46.9650 H   0  0  0  0  0  0  0  0  0  0  0  0
   48.7490   26.7360   47.3320 C   0  0  0  0  0  0  0  0  0  0  0  0
   48.4620   25.7000   47.4570 H   0  0  0  0  0  0  0  0  0  0  0  0
   47.9400   27.7760   47.3930 O   0  0  0  0  0  0  0  0  0  0  0  0
   46.7590   34.1320   42.9940 C   0  0  0  0  0  0  0  0  0  0  0  0
   45.6070   33.6980   42.3340 C   0  0  0  0  0  0  0  0  0  0  0  0
   44.8830   32.6590   42.9440 C   0  0  0  0  0  0  0  0  0  0  0  0
   45.3180   32.1320   44.1180 N   0  0  0  0  0  0  0  0  0  0  0  0
   46.4460   32.5980   44.7080 C   0  0  0  0  0  0  0  0  0  0  0  0
   47.1640   33.5960   44.1470 N   0  0  0  0  0  0  0  0  0  0  0  0
   43.9850   32.3010   42.4570 H   0  0  0  0  0  0  0  0  0  0  0  0
   45.2020   34.3240   41.0610 C   0  0  0  0  0  0  0  0  0  0  0  0
   44.9290   35.6570   41.2610 F   0  0  0  0  0  0  0  0  0  0  0  0
   46.2830   34.2540   40.1900 F   0  0  0  0  0  0  0  0  0  0  0  0
   44.1320   33.7500   40.4640 F   0  0  0  0  0  0  0  0  0  0  0  0
   47.4600   35.1400   42.4020 O   0  0  0  0  0  0  0  0  0  0  0  0
   48.7760   35.0600   41.8900 C   0  0  0  0  0  0  0  0  0  0  0  0
   49.6330   35.3330   42.9600 F   0  0  0  0  0  0  0  0  0  0  0  0
   48.9980   33.8330   41.3240 F   0  0  0  0  0  0  0  0  0  0  0  0
   48.9940   36.0950   41.0080 F   0  0  0  0  0  0  0  0  0  0  0  0
  1  2  1  0  0  0  0
  2  7  1  0  0  0  0
  3  2  2  0  0  0  0
  3  4  1  0  0  0  0
  4  5  2  0  0  0  0
  5  6  1  0  0  0  0
  5  9  1  0  0  0  0
  6 10  1  0  0  0  0
  7  6  2  0  0  0  0
  8  4  1  0  0  0  0
 11  7  1  0  0  0  0
 11 18  1  0  0  0  0
 12 14  1  0  0  0  0
 12 11  2  0  0  0  0
 13 12  1  0  0  0  0
 14 16  2  0  0  0  0
 15 14  1  0  0  0  0
 16 18  1  0  0  0  0
 16 17  1  0  0  0  0
 19 24  1  0  0  0  0
 20 21  1  0  0  0  0
 20 19  2  0  0  0  0
 21 22  2  0  0  0  0
 22 23  1  0  0  0  0
 23  3  1  0  0  0  0
 24 23  2  0  0  0  0
 25 21  1  0  0  0  0
 26 27  1  0  0  0  0
 26 20  1  0  0  0  0
 28 26  1  0  0  0  0
 29 26  1  0  0  0  0
 30 19  1  0  0  0  0
 31 30  1  0  0  0  0
 31 32  1  0  0  0  0
 33 31  1  0  0  0  0
 34 31  1  0  0  0  0
M  END
>  <minimizedAffinity>
-5.52293348

>  <minimizedRMSD>
0.230360761

$$$$
