
 OpenBabel03242510093D

 27 29  0  0  0  0  0  0  0  0999 V2000
   44.6400   33.0490   41.1890 Br  0  0  0  0  0  0  0  0  0  0  0  0
   46.3090   33.9420   40.9240 C   0  0  0  0  0  0  0  0  0  0  0  0
   46.8380   34.7330   41.9190 C   0  0  0  0  0  0  0  0  0  0  0  0
   48.0530   35.3920   41.7450 C   0  0  0  0  0  0  0  0  0  0  0  0
   48.7090   35.2340   40.5590 C   0  0  0  0  0  0  0  0  0  0  0  0
   48.1560   34.4420   39.5900 C   0  0  0  0  0  0  0  0  0  0  0  0
   46.9830   33.7910   39.7290 C   0  0  0  0  0  0  0  0  0  0  0  0
   48.4400   36.0110   42.5570 H   0  0  0  0  0  0  0  0  0  0  0  0
   49.6500   35.7720   40.4840 H   0  0  0  0  0  0  0  0  0  0  0  0
   48.7400   34.3660   38.6750 H   0  0  0  0  0  0  0  0  0  0  0  0
   45.6140   34.0610   45.2990 C   0  0  0  0  0  0  0  0  0  0  0  0
   44.7120   35.1020   45.5450 C   0  0  0  0  0  0  0  0  0  0  0  0
   44.5320   36.0380   44.5270 C   0  0  0  0  0  0  0  0  0  0  0  0
   45.2320   35.8890   43.3750 N   0  0  0  0  0  0  0  0  0  0  0  0
   46.1010   34.8690   43.1650 C   0  0  0  0  0  0  0  0  0  0  0  0
   46.2860   33.9480   44.1460 N   0  0  0  0  0  0  0  0  0  0  0  0
   45.7340   33.3440   46.1070 H   0  0  0  0  0  0  0  0  0  0  0  0
   44.1490   35.2430   46.4390 H   0  0  0  0  0  0  0  0  0  0  0  0
   43.8760   36.8980   44.5580 H   0  0  0  0  0  0  0  0  0  0  0  0
   46.4090   32.9490   38.6840 C   0  0  0  0  0  0  0  0  0  0  0  0
   46.7220   31.6340   38.4230 C   0  0  0  0  0  0  0  0  0  0  0  0
   47.4540   31.1000   39.0020 H   0  0  0  0  0  0  0  0  0  0  0  0
   45.9360   31.2620   37.3570 C   0  0  0  0  0  0  0  0  0  0  0  0
   46.0470   30.2310   37.0000 H   0  0  0  0  0  0  0  0  0  0  0  0
   45.1690   32.3810   37.0120 C   0  0  0  0  0  0  0  0  0  0  0  0
   44.4950   32.2330   36.1790 H   0  0  0  0  0  0  0  0  0  0  0  0
   45.4910   33.3520   37.8320 O   0  0  0  0  0  0  0  0  0  0  0  0
  2  1  1  0  0  0  0
  2  3  1  0  0  0  0
  3 15  1  0  0  0  0
  4  3  2  0  0  0  0
  4  8  1  0  0  0  0
  5  4  1  0  0  0  0
  6  7  1  0  0  0  0
  6  5  2  0  0  0  0
  7  2  2  0  0  0  0
  9  5  1  0  0  0  0
 10  6  1  0  0  0  0
 11 12  1  0  0  0  0
 11 17  1  0  0  0  0
 12 18  1  0  0  0  0
 13 19  1  0  0  0  0
 13 12  2  0  0  0  0
 14 13  1  0  0  0  0
 15 14  2  0  0  0  0
 15 16  1  0  0  0  0
 16 11  2  0  0  0  0
 20  7  1  0  0  0  0
 21 20  2  0  0  0  0
 21 22  1  0  0  0  0
 23 21  1  0  0  0  0
 24 23  1  0  0  0  0
 25 23  2  0  0  0  0
 25 27  1  0  0  0  0
 26 25  1  0  0  0  0
 27 20  1  0  0  0  0
M  END
>  <minimizedAffinity>
-5.3440814

>  <minimizedRMSD>
0.57987988

$$$$
