
 OpenBabel03252506533D

 30 33  0  0  0  0  0  0  0  0999 V2000
   36.1290   27.0230   39.3330 C   0  0  0  0  0  0  0  0  0  0  0  0
   35.5820   28.2910   39.2180 C   0  0  0  0  0  0  0  0  0  0  0  0
   35.7280   29.2630   40.1890 C   0  0  0  0  0  0  0  0  0  0  0  0
   36.4530   28.9870   41.3460 C   0  0  0  0  0  0  0  0  0  0  0  0
   36.7940   29.6690   42.4740 N   0  0  0  0  0  0  0  0  0  0  0  0
   37.5340   28.8440   43.2640 C   0  0  0  0  0  0  0  0  0  0  0  0
   37.6380   27.6620   42.6110 N   0  0  0  0  0  0  0  0  0  0  0  0
   36.9860   27.7230   41.4360 C   0  0  0  0  0  0  0  0  0  0  0  0
   36.8590   26.7390   40.4930 C   0  0  0  0  0  0  0  0  0  0  0  0
   36.0000   26.2810   38.5580 H   0  0  0  0  0  0  0  0  0  0  0  0
   35.2930   30.2470   40.0840 H   0  0  0  0  0  0  0  0  0  0  0  0
   36.5060   30.6760   42.6570 H   0  0  0  0  0  0  0  0  0  0  0  0
   37.9520   29.1050   44.2310 H   0  0  0  0  0  0  0  0  0  0  0  0
   32.7710   29.1570   37.0030 C   0  0  0  0  0  0  0  0  0  0  0  0
   33.3890   29.2520   35.7570 C   0  0  0  0  0  0  0  0  0  0  0  0
   34.7660   29.0190   35.6790 C   0  0  0  0  0  0  0  0  0  0  0  0
   35.4440   28.7090   36.8300 N   0  0  0  0  0  0  0  0  0  0  0  0
   34.8130   28.6250   38.0220 C   0  0  0  0  0  0  0  0  0  0  0  0
   33.4870   28.8470   38.1120 N   0  0  0  0  0  0  0  0  0  0  0  0
   31.7060   29.3460   37.0140 H   0  0  0  0  0  0  0  0  0  0  0  0
   32.8720   29.4950   34.8390 H   0  0  0  0  0  0  0  0  0  0  0  0
   35.3530   29.0640   34.7670 H   0  0  0  0  0  0  0  0  0  0  0  0
   37.4700   25.4180   40.6870 C   0  0  0  0  0  0  0  0  0  0  0  0
   36.7640   24.2750   41.0230 C   0  0  0  0  0  0  0  0  0  0  0  0
   35.7050   24.1990   41.1860 H   0  0  0  0  0  0  0  0  0  0  0  0
   37.7520   23.2850   41.0950 C   0  0  0  0  0  0  0  0  0  0  0  0
   37.5150   22.2590   41.3430 H   0  0  0  0  0  0  0  0  0  0  0  0
   38.9740   23.8720   40.8030 C   0  0  0  0  0  0  0  0  0  0  0  0
   39.8460   23.2630   40.8110 H   0  0  0  0  0  0  0  0  0  0  0  0
   38.7450   25.1560   40.5650 O   0  0  0  0  0  0  0  0  0  0  0  0
  1  9  1  0  0  0  0
  2  1  2  0  0  0  0
  2  3  1  0  0  0  0
  3  4  2  0  0  0  0
  4  8  1  0  0  0  0
  4  5  1  0  0  0  0
  5 12  1  0  0  0  0
  5  6  1  0  0  0  0
  6 13  1  0  0  0  0
  7  6  2  0  0  0  0
  8  7  1  0  0  0  0
  9 23  1  0  0  0  0
  9  8  2  0  0  0  0
 10  1  1  0  0  0  0
 11  3  1  0  0  0  0
 14 20  1  0  0  0  0
 14 19  1  0  0  0  0
 15 14  2  0  0  0  0
 16 15  1  0  0  0  0
 16 17  2  0  0  0  0
 17 18  1  0  0  0  0
 18 19  2  0  0  0  0
 18  2  1  0  0  0  0
 21 15  1  0  0  0  0
 22 16  1  0  0  0  0
 23 24  2  0  0  0  0
 24 26  1  0  0  0  0
 24 25  1  0  0  0  0
 26 27  1  0  0  0  0
 28 29  1  0  0  0  0
 28 26  2  0  0  0  0
 30 23  1  0  0  0  0
 30 28  1  0  0  0  0
M  END
>  <minimizedAffinity>
-5.28873873

$$$$

 OpenBabel03252506533D

 30 33  0  0  0  0  0  0  0  0999 V2000
   36.4720   30.5410   38.7990 C   0  0  0  0  0  0  0  0  0  0  0  0
   35.6250   29.4430   38.8040 C   0  0  0  0  0  0  0  0  0  0  0  0
   35.5080   28.5900   39.8840 C   0  0  0  0  0  0  0  0  0  0  0  0
   36.2610   28.8160   41.0340 C   0  0  0  0  0  0  0  0  0  0  0  0
   36.4040   28.2130   42.2460 N   0  0  0  0  0  0  0  0  0  0  0  0
   37.3140   28.9180   42.9700 C   0  0  0  0  0  0  0  0  0  0  0  0
   37.7210   29.9500   42.1930 N   0  0  0  0  0  0  0  0  0  0  0  0
   37.0930   29.9100   41.0040 C   0  0  0  0  0  0  0  0  0  0  0  0
   37.2310   30.7740   39.9520 C   0  0  0  0  0  0  0  0  0  0  0  0
   36.5440   31.1930   37.9400 H   0  0  0  0  0  0  0  0  0  0  0  0
   34.8440   27.7380   39.8710 H   0  0  0  0  0  0  0  0  0  0  0  0
   35.8690   27.3380   42.5280 H   0  0  0  0  0  0  0  0  0  0  0  0
   37.6370   28.6820   43.9790 H   0  0  0  0  0  0  0  0  0  0  0  0
   32.7520   28.6360   36.6490 C   0  0  0  0  0  0  0  0  0  0  0  0
   33.3180   28.6490   35.3750 C   0  0  0  0  0  0  0  0  0  0  0  0
   34.6820   28.9350   35.2580 C   0  0  0  0  0  0  0  0  0  0  0  0
   35.3990   29.1880   36.4000 N   0  0  0  0  0  0  0  0  0  0  0  0
   34.8170   29.1670   37.6200 C   0  0  0  0  0  0  0  0  0  0  0  0
   33.5040   28.8930   37.7470 N   0  0  0  0  0  0  0  0  0  0  0  0
   31.6940   28.4110   36.6900 H   0  0  0  0  0  0  0  0  0  0  0  0
   32.7700   28.4530   34.4640 H   0  0  0  0  0  0  0  0  0  0  0  0
   35.2310   28.9740   34.3220 H   0  0  0  0  0  0  0  0  0  0  0  0
   38.1500   31.9160   40.0220 C   0  0  0  0  0  0  0  0  0  0  0  0
   37.7460   33.2400   40.0550 C   0  0  0  0  0  0  0  0  0  0  0  0
   36.7350   33.6040   40.0330 H   0  0  0  0  0  0  0  0  0  0  0  0
   38.9500   33.9530   40.1200 C   0  0  0  0  0  0  0  0  0  0  0  0
   38.9720   35.0340   40.1590 H   0  0  0  0  0  0  0  0  0  0  0  0
   39.9930   33.0400   40.1250 C   0  0  0  0  0  0  0  0  0  0  0  0
   40.9900   33.4060   40.1710 H   0  0  0  0  0  0  0  0  0  0  0  0
   39.4540   31.8290   40.0650 O   0  0  0  0  0  0  0  0  0  0  0  0
  1  2  2  0  0  0  0
  1  9  1  0  0  0  0
  2  3  1  0  0  0  0
  3  4  2  0  0  0  0
  4  5  1  0  0  0  0
  5 12  1  0  0  0  0
  5  6  1  0  0  0  0
  6 13  1  0  0  0  0
  7  6  2  0  0  0  0
  8  4  1  0  0  0  0
  8  7  1  0  0  0  0
  9 23  1  0  0  0  0
  9  8  2  0  0  0  0
 10  1  1  0  0  0  0
 11  3  1  0  0  0  0
 14 20  1  0  0  0  0
 14 19  1  0  0  0  0
 15 14  2  0  0  0  0
 16 15  1  0  0  0  0
 16 17  2  0  0  0  0
 17 18  1  0  0  0  0
 18 19  2  0  0  0  0
 18  2  1  0  0  0  0
 21 15  1  0  0  0  0
 22 16  1  0  0  0  0
 23 24  2  0  0  0  0
 23 30  1  0  0  0  0
 24 26  1  0  0  0  0
 25 24  1  0  0  0  0
 26 28  2  0  0  0  0
 26 27  1  0  0  0  0
 28 29  1  0  0  0  0
 30 28  1  0  0  0  0
M  END
>  <minimizedAffinity>
-5.25125456

$$$$

 OpenBabel03252506533D

 30 33  0  0  0  0  0  0  0  0999 V2000
   37.1540   29.6750   39.3170 C   0  0  0  0  0  0  0  0  0  0  0  0
   36.9430   30.4490   38.1860 C   0  0  0  0  0  0  0  0  0  0  0  0
   37.3640   31.7610   38.0850 C   0  0  0  0  0  0  0  0  0  0  0  0
   38.0330   32.3610   39.1490 C   0  0  0  0  0  0  0  0  0  0  0  0
   38.5740   33.5850   39.4010 N   0  0  0  0  0  0  0  0  0  0  0  0
   39.1060   33.5670   40.6520 C   0  0  0  0  0  0  0  0  0  0  0  0
   38.8850   32.3300   41.1570 N   0  0  0  0  0  0  0  0  0  0  0  0
   38.2310   31.5730   40.2580 C   0  0  0  0  0  0  0  0  0  0  0  0
   37.8270   30.2720   40.3900 C   0  0  0  0  0  0  0  0  0  0  0  0
   36.8150   28.6500   39.3700 H   0  0  0  0  0  0  0  0  0  0  0  0
   37.1900   32.3500   37.1960 H   0  0  0  0  0  0  0  0  0  0  0  0
   38.5580   34.3850   38.7010 H   0  0  0  0  0  0  0  0  0  0  0  0
   39.6090   34.3990   41.1360 H   0  0  0  0  0  0  0  0  0  0  0  0
   34.4460   28.6370   36.1780 C   0  0  0  0  0  0  0  0  0  0  0  0
   34.9510   28.7650   34.8840 C   0  0  0  0  0  0  0  0  0  0  0  0
   36.1440   29.4720   34.7040 C   0  0  0  0  0  0  0  0  0  0  0  0
   36.7620   30.0050   35.8060 N   0  0  0  0  0  0  0  0  0  0  0  0
   36.2450   29.8620   37.0460 C   0  0  0  0  0  0  0  0  0  0  0  0
   35.0960   29.1840   37.2340 N   0  0  0  0  0  0  0  0  0  0  0  0
   33.5210   28.0840   36.2670 H   0  0  0  0  0  0  0  0  0  0  0  0
   34.4780   28.3520   34.0030 H   0  0  0  0  0  0  0  0  0  0  0  0
   36.6310   29.6360   33.7470 H   0  0  0  0  0  0  0  0  0  0  0  0
   38.0880   29.5170   41.6210 C   0  0  0  0  0  0  0  0  0  0  0  0
   39.2380   28.7810   41.8540 C   0  0  0  0  0  0  0  0  0  0  0  0
   40.0710   28.6630   41.1860 H   0  0  0  0  0  0  0  0  0  0  0  0
   39.0370   28.2500   43.1340 C   0  0  0  0  0  0  0  0  0  0  0  0
   39.7730   27.6160   43.6110 H   0  0  0  0  0  0  0  0  0  0  0  0
   37.8050   28.6860   43.5950 C   0  0  0  0  0  0  0  0  0  0  0  0
   37.4840   28.3780   44.5600 H   0  0  0  0  0  0  0  0  0  0  0  0
   37.2770   29.4450   42.6440 O   0  0  0  0  0  0  0  0  0  0  0  0
  1 10  1  0  0  0  0
  1  9  1  0  0  0  0
  2  1  2  0  0  0  0
  3  2  1  0  0  0  0
  3  4  2  0  0  0  0
  4  5  1  0  0  0  0
  4  8  1  0  0  0  0
  5  6  1  0  0  0  0
  6 13  1  0  0  0  0
  6  7  2  0  0  0  0
  8  9  2  0  0  0  0
  8  7  1  0  0  0  0
  9 23  1  0  0  0  0
 11  3  1  0  0  0  0
 12  5  1  0  0  0  0
 14 20  1  0  0  0  0
 14 19  1  0  0  0  0
 15 14  2  0  0  0  0
 16 15  1  0  0  0  0
 16 17  2  0  0  0  0
 17 18  1  0  0  0  0
 18 19  2  0  0  0  0
 18  2  1  0  0  0  0
 21 15  1  0  0  0  0
 22 16  1  0  0  0  0
 23 24  2  0  0  0  0
 23 30  1  0  0  0  0
 24 26  1  0  0  0  0
 25 24  1  0  0  0  0
 26 28  2  0  0  0  0
 26 27  1  0  0  0  0
 28 29  1  0  0  0  0
 30 28  1  0  0  0  0
M  END
>  <minimizedAffinity>
-5.12363005

$$$$

 OpenBabel03252506533D

 30 33  0  0  0  0  0  0  0  0999 V2000
   37.5620   28.9440   39.9300 C   0  0  0  0  0  0  0  0  0  0  0  0
   38.2440   29.2870   41.0870 C   0  0  0  0  0  0  0  0  0  0  0  0
   38.4720   30.5970   41.4640 C   0  0  0  0  0  0  0  0  0  0  0  0
   38.0080   31.6400   40.6680 C   0  0  0  0  0  0  0  0  0  0  0  0
   38.0440   33.0010   40.7160 N   0  0  0  0  0  0  0  0  0  0  0  0
   37.4000   33.4840   39.6200 C   0  0  0  0  0  0  0  0  0  0  0  0
   36.9750   32.4130   38.9080 N   0  0  0  0  0  0  0  0  0  0  0  0
   37.3350   31.2740   39.5260 C   0  0  0  0  0  0  0  0  0  0  0  0
   37.0920   29.9880   39.1260 C   0  0  0  0  0  0  0  0  0  0  0  0
   37.3970   27.9100   39.6590 H   0  0  0  0  0  0  0  0  0  0  0  0
   39.0070   30.8460   42.3690 H   0  0  0  0  0  0  0  0  0  0  0  0
   38.5090   33.5440   41.5030 H   0  0  0  0  0  0  0  0  0  0  0  0
   37.2640   34.5350   39.3810 H   0  0  0  0  0  0  0  0  0  0  0  0
   38.5910   26.0450   42.7970 C   0  0  0  0  0  0  0  0  0  0  0  0
   39.7210   26.2440   43.5920 C   0  0  0  0  0  0  0  0  0  0  0  0
   40.3590   27.4870   43.5390 C   0  0  0  0  0  0  0  0  0  0  0  0
   39.8460   28.4520   42.7100 N   0  0  0  0  0  0  0  0  0  0  0  0
   38.7500   28.2250   41.9530 C   0  0  0  0  0  0  0  0  0  0  0  0
   38.1250   27.0320   41.9940 N   0  0  0  0  0  0  0  0  0  0  0  0
   38.1320   25.0680   42.8710 H   0  0  0  0  0  0  0  0  0  0  0  0
   40.1390   25.4960   44.2500 H   0  0  0  0  0  0  0  0  0  0  0  0
   41.2420   27.7570   44.1100 H   0  0  0  0  0  0  0  0  0  0  0  0
   36.3610   29.7040   37.8850 C   0  0  0  0  0  0  0  0  0  0  0  0
   36.9200   29.7600   36.6200 C   0  0  0  0  0  0  0  0  0  0  0  0
   37.9360   30.0140   36.3780 H   0  0  0  0  0  0  0  0  0  0  0  0
   35.8590   29.4170   35.7730 C   0  0  0  0  0  0  0  0  0  0  0  0
   35.9790   29.3710   34.6980 H   0  0  0  0  0  0  0  0  0  0  0  0
   34.7410   29.1760   36.5560 C   0  0  0  0  0  0  0  0  0  0  0  0
   33.8330   28.9000   36.0770 H   0  0  0  0  0  0  0  0  0  0  0  0
   35.1000   29.3630   37.8190 O   0  0  0  0  0  0  0  0  0  0  0  0
  1  2  1  0  0  0  0
  2  3  2  0  0  0  0
  2 18  1  0  0  0  0
  3 11  1  0  0  0  0
  4  5  1  0  0  0  0
  4  3  1  0  0  0  0
  5 12  1  0  0  0  0
  6  5  1  0  0  0  0
  7  8  1  0  0  0  0
  7  6  2  0  0  0  0
  8  4  2  0  0  0  0
  9  8  1  0  0  0  0
  9  1  2  0  0  0  0
 10  1  1  0  0  0  0
 13  6  1  0  0  0  0
 14 20  1  0  0  0  0
 14 15  1  0  0  0  0
 15 21  1  0  0  0  0
 16 15  2  0  0  0  0
 16 22  1  0  0  0  0
 17 16  1  0  0  0  0
 18 19  1  0  0  0  0
 18 17  2  0  0  0  0
 19 14  2  0  0  0  0
 23  9  1  0  0  0  0
 24 23  2  0  0  0  0
 25 24  1  0  0  0  0
 26 28  2  0  0  0  0
 26 24  1  0  0  0  0
 27 26  1  0  0  0  0
 28 30  1  0  0  0  0
 29 28  1  0  0  0  0
 30 23  1  0  0  0  0
M  END
>  <minimizedAffinity>
-4.99955893

$$$$

 OpenBabel03252506533D

 30 33  0  0  0  0  0  0  0  0999 V2000
   38.9110   30.3420   40.1940 C   0  0  0  0  0  0  0  0  0  0  0  0
   38.8120   31.1070   39.0410 C   0  0  0  0  0  0  0  0  0  0  0  0
   37.7760   30.9730   38.1370 C   0  0  0  0  0  0  0  0  0  0  0  0
   36.7710   30.0360   38.3650 C   0  0  0  0  0  0  0  0  0  0  0  0
   35.6390   29.6370   37.7220 N   0  0  0  0  0  0  0  0  0  0  0  0
   35.0540   28.6540   38.4570 C   0  0  0  0  0  0  0  0  0  0  0  0
   35.8350   28.4580   39.5470 N   0  0  0  0  0  0  0  0  0  0  0  0
   36.8910   29.2900   39.5140 C   0  0  0  0  0  0  0  0  0  0  0  0
   37.9030   29.3990   40.4290 C   0  0  0  0  0  0  0  0  0  0  0  0
   39.7320   30.4680   40.8850 H   0  0  0  0  0  0  0  0  0  0  0  0
   37.7150   31.5770   37.2430 H   0  0  0  0  0  0  0  0  0  0  0  0
   35.3120   30.0580   36.8020 H   0  0  0  0  0  0  0  0  0  0  0  0
   34.1340   28.1370   38.2010 H   0  0  0  0  0  0  0  0  0  0  0  0
   40.9450   34.0960   39.3080 C   0  0  0  0  0  0  0  0  0  0  0  0
   41.7940   33.9580   38.2100 C   0  0  0  0  0  0  0  0  0  0  0  0
   41.6330   32.8430   37.3820 C   0  0  0  0  0  0  0  0  0  0  0  0
   40.6490   31.9370   37.6880 N   0  0  0  0  0  0  0  0  0  0  0  0
   39.8440   32.1010   38.7610 C   0  0  0  0  0  0  0  0  0  0  0  0
   39.9880   33.1720   39.5660 N   0  0  0  0  0  0  0  0  0  0  0  0
   41.1080   34.9740   39.9190 H   0  0  0  0  0  0  0  0  0  0  0  0
   42.5740   34.6620   37.9540 H   0  0  0  0  0  0  0  0  0  0  0  0
   42.2320   32.6300   36.5020 H   0  0  0  0  0  0  0  0  0  0  0  0
   37.9380   28.5530   41.6270 C   0  0  0  0  0  0  0  0  0  0  0  0
   37.4610   28.9390   42.8690 C   0  0  0  0  0  0  0  0  0  0  0  0
   37.0150   29.8840   43.1190 H   0  0  0  0  0  0  0  0  0  0  0  0
   37.7050   27.8240   43.6800 C   0  0  0  0  0  0  0  0  0  0  0  0
   37.4400   27.8120   44.7280 H   0  0  0  0  0  0  0  0  0  0  0  0
   38.3020   26.8450   42.9000 C   0  0  0  0  0  0  0  0  0  0  0  0
   38.5600   25.9190   43.3550 H   0  0  0  0  0  0  0  0  0  0  0  0
   38.4170   27.3370   41.6740 O   0  0  0  0  0  0  0  0  0  0  0  0
  1  9  1  0  0  0  0
  1 10  1  0  0  0  0
  2  1  2  0  0  0  0
  3  4  2  0  0  0  0
  3  2  1  0  0  0  0
  4  8  1  0  0  0  0
  5  4  1  0  0  0  0
  5  6  1  0  0  0  0
  6  7  2  0  0  0  0
  8  7  1  0  0  0  0
  8  9  2  0  0  0  0
  9 23  1  0  0  0  0
 11  3  1  0  0  0  0
 12  5  1  0  0  0  0
 13  6  1  0  0  0  0
 14 19  1  0  0  0  0
 14 20  1  0  0  0  0
 15 14  2  0  0  0  0
 16 17  2  0  0  0  0
 16 15  1  0  0  0  0
 17 18  1  0  0  0  0
 18  2  1  0  0  0  0
 18 19  2  0  0  0  0
 21 15  1  0  0  0  0
 22 16  1  0  0  0  0
 23 30  1  0  0  0  0
 23 24  2  0  0  0  0
 24 25  1  0  0  0  0
 24 26  1  0  0  0  0
 26 27  1  0  0  0  0
 28 29  1  0  0  0  0
 28 26  2  0  0  0  0
 30 28  1  0  0  0  0
M  END
>  <minimizedAffinity>
-4.93607664

$$$$

 OpenBabel03252506533D

 30 33  0  0  0  0  0  0  0  0999 V2000
   37.9760   29.8300   39.6740 C   0  0  0  0  0  0  0  0  0  0  0  0
   38.5170   30.6910   40.6170 C   0  0  0  0  0  0  0  0  0  0  0  0
   38.3740   30.5000   41.9780 C   0  0  0  0  0  0  0  0  0  0  0  0
   37.6610   29.4030   42.4550 C   0  0  0  0  0  0  0  0  0  0  0  0
   37.3250   28.9110   43.6790 N   0  0  0  0  0  0  0  0  0  0  0  0
   36.5980   27.7750   43.4980 C   0  0  0  0  0  0  0  0  0  0  0  0
   36.4940   27.5830   42.1610 N   0  0  0  0  0  0  0  0  0  0  0  0
   37.1340   28.5640   41.5010 C   0  0  0  0  0  0  0  0  0  0  0  0
   37.2590   28.7250   40.1480 C   0  0  0  0  0  0  0  0  0  0  0  0
   38.1040   30.0020   38.6150 H   0  0  0  0  0  0  0  0  0  0  0  0
   38.8010   31.1820   42.6990 H   0  0  0  0  0  0  0  0  0  0  0  0
   37.6100   29.3740   44.5930 H   0  0  0  0  0  0  0  0  0  0  0  0
   36.1880   27.1560   44.2900 H   0  0  0  0  0  0  0  0  0  0  0  0
   39.6820   34.1610   40.2250 C   0  0  0  0  0  0  0  0  0  0  0  0
   40.7080   34.0300   39.2900 C   0  0  0  0  0  0  0  0  0  0  0  0
   40.9970   32.7530   38.7960 C   0  0  0  0  0  0  0  0  0  0  0  0
   40.2600   31.6910   39.2550 N   0  0  0  0  0  0  0  0  0  0  0  0
   39.2720   31.8550   40.1620 C   0  0  0  0  0  0  0  0  0  0  0  0
   38.9830   33.0790   40.6460 N   0  0  0  0  0  0  0  0  0  0  0  0
   39.4960   35.1670   40.5790 H   0  0  0  0  0  0  0  0  0  0  0  0
   41.3000   34.8540   38.9170 H   0  0  0  0  0  0  0  0  0  0  0  0
   41.7700   32.5290   38.0670 H   0  0  0  0  0  0  0  0  0  0  0  0
   36.6570   27.7680   39.2110 C   0  0  0  0  0  0  0  0  0  0  0  0
   35.5230   28.0220   38.4590 C   0  0  0  0  0  0  0  0  0  0  0  0
   34.9420   28.9260   38.4580 H   0  0  0  0  0  0  0  0  0  0  0  0
   35.3360   26.8400   37.7320 C   0  0  0  0  0  0  0  0  0  0  0  0
   34.5150   26.7210   37.0380 H   0  0  0  0  0  0  0  0  0  0  0  0
   36.3480   25.9570   38.0760 C   0  0  0  0  0  0  0  0  0  0  0  0
   36.3650   24.9980   37.6150 H   0  0  0  0  0  0  0  0  0  0  0  0
   37.1140   26.5670   38.9690 O   0  0  0  0  0  0  0  0  0  0  0  0
  1  9  2  0  0  0  0
  1  2  1  0  0  0  0
  2  3  2  0  0  0  0
  3  4  1  0  0  0  0
  3 11  1  0  0  0  0
  4  5  1  0  0  0  0
  5 12  1  0  0  0  0
  6  5  1  0  0  0  0
  6 13  1  0  0  0  0
  7  6  2  0  0  0  0
  8  7  1  0  0  0  0
  8  4  2  0  0  0  0
  9  8  1  0  0  0  0
 10  1  1  0  0  0  0
 14 20  1  0  0  0  0
 14 19  1  0  0  0  0
 15 14  2  0  0  0  0
 16 17  2  0  0  0  0
 16 15  1  0  0  0  0
 17 18  1  0  0  0  0
 18  2  1  0  0  0  0
 18 19  2  0  0  0  0
 21 15  1  0  0  0  0
 22 16  1  0  0  0  0
 23  9  1  0  0  0  0
 24 23  2  0  0  0  0
 25 24  1  0  0  0  0
 26 28  2  0  0  0  0
 26 24  1  0  0  0  0
 27 26  1  0  0  0  0
 28 30  1  0  0  0  0
 29 28  1  0  0  0  0
 30 23  1  0  0  0  0
M  END
>  <minimizedAffinity>
-4.907619

$$$$

 OpenBabel03252506533D

 30 33  0  0  0  0  0  0  0  0999 V2000
   37.1110   27.8760   40.3800 C   0  0  0  0  0  0  0  0  0  0  0  0
   38.1300   28.0190   41.3100 C   0  0  0  0  0  0  0  0  0  0  0  0
   38.6670   29.2450   41.6540 C   0  0  0  0  0  0  0  0  0  0  0  0
   38.1840   30.4070   41.0580 C   0  0  0  0  0  0  0  0  0  0  0  0
   38.4570   31.7380   41.1430 N   0  0  0  0  0  0  0  0  0  0  0  0
   37.6300   32.4000   40.2890 C   0  0  0  0  0  0  0  0  0  0  0  0
   36.8560   31.4650   39.6870 N   0  0  0  0  0  0  0  0  0  0  0  0
   37.1750   30.2400   40.1390 C   0  0  0  0  0  0  0  0  0  0  0  0
   36.6220   29.0410   39.7770 C   0  0  0  0  0  0  0  0  0  0  0  0
   36.7090   26.9050   40.1300 H   0  0  0  0  0  0  0  0  0  0  0  0
   39.4610   29.3380   42.3810 H   0  0  0  0  0  0  0  0  0  0  0  0
   39.2030   32.1410   41.7860 H   0  0  0  0  0  0  0  0  0  0  0  0
   37.6110   33.4750   40.1360 H   0  0  0  0  0  0  0  0  0  0  0  0
   39.9460   25.8430   43.6600 C   0  0  0  0  0  0  0  0  0  0  0  0
   39.6660   24.5690   43.1670 C   0  0  0  0  0  0  0  0  0  0  0  0
   38.8570   24.4590   42.0310 C   0  0  0  0  0  0  0  0  0  0  0  0
   38.3760   25.6080   41.4560 N   0  0  0  0  0  0  0  0  0  0  0  0
   38.6670   26.8270   41.9610 C   0  0  0  0  0  0  0  0  0  0  0  0
   39.4450   26.9470   43.0540 N   0  0  0  0  0  0  0  0  0  0  0  0
   40.5750   25.8780   44.5400 H   0  0  0  0  0  0  0  0  0  0  0  0
   40.0360   23.6530   43.6060 H   0  0  0  0  0  0  0  0  0  0  0  0
   38.5720   23.5240   41.5590 H   0  0  0  0  0  0  0  0  0  0  0  0
   35.5440   28.9710   38.7830 C   0  0  0  0  0  0  0  0  0  0  0  0
   34.1950   28.9730   39.0950 C   0  0  0  0  0  0  0  0  0  0  0  0
   33.7630   29.0240   40.0780 H   0  0  0  0  0  0  0  0  0  0  0  0
   33.5660   28.8940   37.8470 C   0  0  0  0  0  0  0  0  0  0  0  0
   32.4880   28.8750   37.7510 H   0  0  0  0  0  0  0  0  0  0  0  0
   34.5480   28.8500   36.8700 C   0  0  0  0  0  0  0  0  0  0  0  0
   34.2510   28.7880   35.8510 H   0  0  0  0  0  0  0  0  0  0  0  0
   35.7200   28.9000   37.4900 O   0  0  0  0  0  0  0  0  0  0  0  0
  1  2  1  0  0  0  0
  2  3  2  0  0  0  0
  2 18  1  0  0  0  0
  3 11  1  0  0  0  0
  4  5  1  0  0  0  0
  4  3  1  0  0  0  0
  5 12  1  0  0  0  0
  6  5  1  0  0  0  0
  7  8  1  0  0  0  0
  7  6  2  0  0  0  0
  8  4  2  0  0  0  0
  9  8  1  0  0  0  0
  9  1  2  0  0  0  0
 10  1  1  0  0  0  0
 13  6  1  0  0  0  0
 14 20  1  0  0  0  0
 15 21  1  0  0  0  0
 15 14  1  0  0  0  0
 16 15  2  0  0  0  0
 17 18  2  0  0  0  0
 17 16  1  0  0  0  0
 18 19  1  0  0  0  0
 19 14  2  0  0  0  0
 22 16  1  0  0  0  0
 23 24  2  0  0  0  0
 23  9  1  0  0  0  0
 24 25  1  0  0  0  0
 26 24  1  0  0  0  0
 27 26  1  0  0  0  0
 28 30  1  0  0  0  0
 28 26  2  0  0  0  0
 29 28  1  0  0  0  0
 30 23  1  0  0  0  0
M  END
>  <minimizedAffinity>
-4.85994625

$$$$

 OpenBabel03252506533D

 30 33  0  0  0  0  0  0  0  0999 V2000
   39.3050   29.4480   39.7620 C   0  0  0  0  0  0  0  0  0  0  0  0
   38.1050   29.2320   40.4210 C   0  0  0  0  0  0  0  0  0  0  0  0
   37.2080   30.2460   40.7000 C   0  0  0  0  0  0  0  0  0  0  0  0
   37.4950   31.5530   40.3150 C   0  0  0  0  0  0  0  0  0  0  0  0
   36.8770   32.7620   40.4160 N   0  0  0  0  0  0  0  0  0  0  0  0
   37.6730   33.6990   39.8340 C   0  0  0  0  0  0  0  0  0  0  0  0
   38.7750   33.0540   39.3820 N   0  0  0  0  0  0  0  0  0  0  0  0
   38.6920   31.7420   39.6640 C   0  0  0  0  0  0  0  0  0  0  0  0
   39.5990   30.7600   39.3720 C   0  0  0  0  0  0  0  0  0  0  0  0
   39.9890   28.6360   39.5550 H   0  0  0  0  0  0  0  0  0  0  0  0
   36.2770   30.0600   41.2160 H   0  0  0  0  0  0  0  0  0  0  0  0
   35.9300   32.8960   40.8810 H   0  0  0  0  0  0  0  0  0  0  0  0
   37.4490   34.7590   39.7580 H   0  0  0  0  0  0  0  0  0  0  0  0
   37.7060   26.2190   42.4990 C   0  0  0  0  0  0  0  0  0  0  0  0
   37.1090   25.3210   41.6150 C   0  0  0  0  0  0  0  0  0  0  0  0
   36.8450   25.7510   40.3100 C   0  0  0  0  0  0  0  0  0  0  0  0
   37.1840   27.0330   39.9610 N   0  0  0  0  0  0  0  0  0  0  0  0
   37.7620   27.8770   40.8440 C   0  0  0  0  0  0  0  0  0  0  0  0
   38.0230   27.4770   42.1040 N   0  0  0  0  0  0  0  0  0  0  0  0
   37.8910   25.8430   43.4960 H   0  0  0  0  0  0  0  0  0  0  0  0
   36.8340   24.3080   41.8720 H   0  0  0  0  0  0  0  0  0  0  0  0
   36.3840   25.1430   39.5370 H   0  0  0  0  0  0  0  0  0  0  0  0
   40.8510   31.0670   38.6690 C   0  0  0  0  0  0  0  0  0  0  0  0
   42.0870   31.1660   39.2860 C   0  0  0  0  0  0  0  0  0  0  0  0
   42.2940   31.0370   40.3320 H   0  0  0  0  0  0  0  0  0  0  0  0
   42.9590   31.4680   38.2340 C   0  0  0  0  0  0  0  0  0  0  0  0
   44.0200   31.6100   38.3940 H   0  0  0  0  0  0  0  0  0  0  0  0
   42.2190   31.5320   37.0630 C   0  0  0  0  0  0  0  0  0  0  0  0
   42.7230   31.7530   36.1530 H   0  0  0  0  0  0  0  0  0  0  0  0
   40.9570   31.2820   37.3840 O   0  0  0  0  0  0  0  0  0  0  0  0
  1  2  1  0  0  0  0
  2  3  2  0  0  0  0
  2 18  1  0  0  0  0
  3 11  1  0  0  0  0
  4  5  1  0  0  0  0
  4  3  1  0  0  0  0
  5 12  1  0  0  0  0
  6  5  1  0  0  0  0
  7  8  1  0  0  0  0
  7  6  2  0  0  0  0
  8  4  2  0  0  0  0
  9  8  1  0  0  0  0
  9  1  2  0  0  0  0
 10  1  1  0  0  0  0
 13  6  1  0  0  0  0
 14 20  1  0  0  0  0
 15 21  1  0  0  0  0
 15 14  2  0  0  0  0
 16 15  1  0  0  0  0
 17 16  2  0  0  0  0
 17 18  1  0  0  0  0
 18 19  2  0  0  0  0
 19 14  1  0  0  0  0
 22 16  1  0  0  0  0
 23 24  2  0  0  0  0
 23  9  1  0  0  0  0
 24 25  1  0  0  0  0
 26 27  1  0  0  0  0
 26 24  1  0  0  0  0
 28 30  1  0  0  0  0
 28 26  2  0  0  0  0
 29 28  1  0  0  0  0
 30 23  1  0  0  0  0
M  END
>  <minimizedAffinity>
-4.78324223

$$$$

 OpenBabel03252506533D

 30 33  0  0  0  0  0  0  0  0999 V2000
   40.5660   30.6740   40.4200 C   0  0  0  0  0  0  0  0  0  0  0  0
   40.2760   31.9160   39.8760 C   0  0  0  0  0  0  0  0  0  0  0  0
   39.0050   32.4570   39.8750 C   0  0  0  0  0  0  0  0  0  0  0  0
   37.9470   31.7480   40.4390 C   0  0  0  0  0  0  0  0  0  0  0  0
   36.6120   31.9540   40.6130 N   0  0  0  0  0  0  0  0  0  0  0  0
   36.0920   30.8700   41.2490 C   0  0  0  0  0  0  0  0  0  0  0  0
   37.1150   30.0070   41.4570 N   0  0  0  0  0  0  0  0  0  0  0  0
   38.2590   30.5190   40.9710 C   0  0  0  0  0  0  0  0  0  0  0  0
   39.5070   29.9560   40.9880 C   0  0  0  0  0  0  0  0  0  0  0  0
   41.5700   30.2740   40.4080 H   0  0  0  0  0  0  0  0  0  0  0  0
   38.7960   33.4270   39.4460 H   0  0  0  0  0  0  0  0  0  0  0  0
   36.1110   32.8340   40.2890 H   0  0  0  0  0  0  0  0  0  0  0  0
   35.0500   30.7410   41.5270 H   0  0  0  0  0  0  0  0  0  0  0  0
   43.2510   34.0520   39.5020 C   0  0  0  0  0  0  0  0  0  0  0  0
   43.3750   34.1540   38.1160 C   0  0  0  0  0  0  0  0  0  0  0  0
   42.4390   33.4920   37.3150 C   0  0  0  0  0  0  0  0  0  0  0  0
   41.4450   32.7730   37.9280 N   0  0  0  0  0  0  0  0  0  0  0  0
   41.3550   32.6950   39.2740 C   0  0  0  0  0  0  0  0  0  0  0  0
   42.2490   33.3280   40.0580 N   0  0  0  0  0  0  0  0  0  0  0  0
   43.9980   34.5800   40.0790 H   0  0  0  0  0  0  0  0  0  0  0  0
   44.1510   34.7160   37.6150 H   0  0  0  0  0  0  0  0  0  0  0  0
   42.4340   33.4990   36.2290 H   0  0  0  0  0  0  0  0  0  0  0  0
   39.7350   28.6350   41.5840 C   0  0  0  0  0  0  0  0  0  0  0  0
   40.0930   28.4270   42.9050 C   0  0  0  0  0  0  0  0  0  0  0  0
   40.2500   29.1810   43.6540 H   0  0  0  0  0  0  0  0  0  0  0  0
   40.1950   27.0340   43.0060 C   0  0  0  0  0  0  0  0  0  0  0  0
   40.4650   26.5470   43.9340 H   0  0  0  0  0  0  0  0  0  0  0  0
   39.8970   26.4880   41.7670 C   0  0  0  0  0  0  0  0  0  0  0  0
   39.9250   25.4310   41.6560 H   0  0  0  0  0  0  0  0  0  0  0  0
   39.6280   27.4970   40.9490 O   0  0  0  0  0  0  0  0  0  0  0  0
  1  9  1  0  0  0  0
  2  1  2  0  0  0  0
  3  2  1  0  0  0  0
  3  4  2  0  0  0  0
  4  5  1  0  0  0  0
  4  8  1  0  0  0  0
  5  6  1  0  0  0  0
  6  7  2  0  0  0  0
  6 13  1  0  0  0  0
  8  9  2  0  0  0  0
  8  7  1  0  0  0  0
  9 23  1  0  0  0  0
 10  1  1  0  0  0  0
 11  3  1  0  0  0  0
 12  5  1  0  0  0  0
 14 19  1  0  0  0  0
 14 20  1  0  0  0  0
 15 14  2  0  0  0  0
 16 17  2  0  0  0  0
 16 15  1  0  0  0  0
 17 18  1  0  0  0  0
 18  2  1  0  0  0  0
 18 19  2  0  0  0  0
 21 15  1  0  0  0  0
 22 16  1  0  0  0  0
 23 24  2  0  0  0  0
 24 26  1  0  0  0  0
 24 25  1  0  0  0  0
 26 27  1  0  0  0  0
 28 26  2  0  0  0  0
 29 28  1  0  0  0  0
 30 23  1  0  0  0  0
 30 28  1  0  0  0  0
M  END
>  <minimizedAffinity>
-4.74816942

$$$$
