
 OpenBabel03242522183D

 43 46  0  0  0  0  0  0  0  0999 V2000
   44.1750   35.3980   41.2930 C   0  0  0  0  0  0  0  0  0  0  0  0
   45.0890   34.7960   41.0400 H   0  0  0  0  0  0  0  0  0  0  0  0
   44.4260   36.4390   40.9340 H   0  0  0  0  0  0  0  0  0  0  0  0
   43.0700   34.9090   40.4950 C   0  0  0  0  0  0  0  0  0  0  0  0
   42.9210   34.8690   39.1470 C   0  0  0  0  0  0  0  0  0  0  0  0
   41.8300   34.3720   38.4650 C   0  0  0  0  0  0  0  0  0  0  0  0
   40.7970   33.8660   39.2420 C   0  0  0  0  0  0  0  0  0  0  0  0
   40.9730   33.9200   40.5930 C   0  0  0  0  0  0  0  0  0  0  0  0
   42.0410   34.4090   41.2270 N   0  0  0  0  0  0  0  0  0  0  0  0
   43.8050   35.2970   38.6350 H   0  0  0  0  0  0  0  0  0  0  0  0
   41.9370   34.4480   37.4130 H   0  0  0  0  0  0  0  0  0  0  0  0
   39.7260   33.3140   38.4150 C   0  0  0  0  0  0  0  0  0  0  0  0
   38.7850   34.0680   37.7190 C   0  0  0  0  0  0  0  0  0  0  0  0
   38.6530   35.1640   37.6430 H   0  0  0  0  0  0  0  0  0  0  0  0
   37.9080   33.2920   37.0380 C   0  0  0  0  0  0  0  0  0  0  0  0
   37.0750   33.5560   36.4120 H   0  0  0  0  0  0  0  0  0  0  0  0
   38.3170   32.0220   37.3200 C   0  0  0  0  0  0  0  0  0  0  0  0
   37.9190   31.0480   36.9970 H   0  0  0  0  0  0  0  0  0  0  0  0
   39.3240   32.1290   38.0860 O   0  0  0  0  0  0  0  0  0  0  0  0
   39.7990   33.3760   41.3630 C   0  0  0  0  0  0  0  0  0  0  0  0
   38.6040   33.8460   40.8330 F   0  0  0  0  0  0  0  0  0  0  0  0
   39.8760   33.6270   42.7160 F   0  0  0  0  0  0  0  0  0  0  0  0
   39.7740   31.9930   41.2380 F   0  0  0  0  0  0  0  0  0  0  0  0
   44.0100   35.3540   42.7730 C   0  0  0  0  0  0  0  0  0  0  0  0
   43.9070   36.3800   43.1740 H   0  0  0  0  0  0  0  0  0  0  0  0
   43.1070   34.7340   42.9870 H   0  0  0  0  0  0  0  0  0  0  0  0
   47.0500   33.5120   43.7620 C   0  0  0  0  0  0  0  0  0  0  0  0
   46.8240   33.4110   45.0800 C   0  0  0  0  0  0  0  0  0  0  0  0
   45.2070   34.2740   45.2550 S   0  0  0  0  0  0  0  0  0  0  0  0
   45.1380   34.6240   43.4360 C   0  0  0  0  0  0  0  0  0  0  0  0
   46.1120   34.1370   43.1350 N   0  0  0  0  0  0  0  0  0  0  0  0
   47.4720   32.9290   45.8040 H   0  0  0  0  0  0  0  0  0  0  0  0
   50.3140   33.1950   41.9070 C   0  0  0  0  0  0  0  0  0  0  0  0
   49.2060   33.7930   42.5280 C   0  0  0  0  0  0  0  0  0  0  0  0
   48.2560   32.9650   43.0880 C   0  0  0  0  0  0  0  0  0  0  0  0
   48.4630   31.6040   42.9980 N   0  0  0  0  0  0  0  0  0  0  0  0
   49.5460   31.0930   42.3880 C   0  0  0  0  0  0  0  0  0  0  0  0
   50.4710   31.8800   41.8430 N   0  0  0  0  0  0  0  0  0  0  0  0
   51.0770   33.8080   41.4570 H   0  0  0  0  0  0  0  0  0  0  0  0
   49.5320   30.0030   42.4160 H   0  0  0  0  0  0  0  0  0  0  0  0
   49.1480   35.2060   42.5310 N   0  0  0  0  0  0  0  0  0  0  0  0
   49.5590   35.7370   41.7160 H   0  0  0  0  0  0  0  0  0  0  0  0
   48.7250   35.7900   43.2820 H   0  0  0  0  0  0  0  0  0  0  0  0
  1 24  1  0  0  0  0
  2  1  1  0  0  0  0
  3  1  1  0  0  0  0
  4  9  1  0  0  0  0
  4  1  1  0  0  0  0
  5  4  2  0  0  0  0
  6  5  1  0  0  0  0
  6  7  2  0  0  0  0
  7  8  1  0  0  0  0
  8  9  2  0  0  0  0
  8 20  1  0  0  0  0
 10  5  1  0  0  0  0
 11  6  1  0  0  0  0
 12  7  1  0  0  0  0
 13 12  2  0  0  0  0
 14 13  1  0  0  0  0
 15 17  2  0  0  0  0
 15 13  1  0  0  0  0
 16 15  1  0  0  0  0
 17 19  1  0  0  0  0
 18 17  1  0  0  0  0
 19 12  1  0  0  0  0
 20 22  1  0  0  0  0
 21 20  1  0  0  0  0
 23 20  1  0  0  0  0
 24 26  1  0  0  0  0
 24 25  1  0  0  0  0
 24 30  1  0  0  0  0
 27 28  2  0  0  0  0
 28 29  1  0  0  0  0
 28 32  1  0  0  0  0
 30 29  1  0  0  0  0
 31 30  2  0  0  0  0
 31 27  1  0  0  0  0
 33 34  1  0  0  0  0
 34 41  1  0  0  0  0
 34 35  2  0  0  0  0
 35 27  1  0  0  0  0
 36 35  1  0  0  0  0
 37 40  1  0  0  0  0
 37 36  2  0  0  0  0
 38 33  2  0  0  0  0
 38 37  1  0  0  0  0
 39 33  1  0  0  0  0
 41 43  1  0  0  0  0
 42 41  1  0  0  0  0
M  END
>  <minimizedAffinity>
-6.18609142

>  <minimizedRMSD>
1.98278606

$$$$
