
 OpenBabel03252502143D

 36 39  0  0  0  0  0  0  0  0999 V2000
   37.0660   24.2050   40.6730 Cl  0  0  0  0  0  0  0  0  0  0  0  0
   36.5470   25.5770   39.7080 C   0  0  0  0  0  0  0  0  0  0  0  0
   36.8400   26.8500   40.0680 C   0  0  0  0  0  0  0  0  0  0  0  0
   36.3800   27.8390   39.2330 C   0  0  0  0  0  0  0  0  0  0  0  0
   35.6680   27.6000   38.1010 C   0  0  0  0  0  0  0  0  0  0  0  0
   35.3750   26.3030   37.7460 C   0  0  0  0  0  0  0  0  0  0  0  0
   35.8220   25.2920   38.5600 C   0  0  0  0  0  0  0  0  0  0  0  0
   35.3160   28.3990   37.4580 H   0  0  0  0  0  0  0  0  0  0  0  0
   34.8070   26.0740   36.8460 H   0  0  0  0  0  0  0  0  0  0  0  0
   35.5920   24.2700   38.2800 H   0  0  0  0  0  0  0  0  0  0  0  0
   37.8010   27.4560   43.6760 C   0  0  0  0  0  0  0  0  0  0  0  0
   37.0410   27.2430   42.5280 C   0  0  0  0  0  0  0  0  0  0  0  0
   37.6020   27.0730   41.2800 C   0  0  0  0  0  0  0  0  0  0  0  0
   38.9730   27.1250   41.2370 N   0  0  0  0  0  0  0  0  0  0  0  0
   39.6980   27.3300   42.3530 C   0  0  0  0  0  0  0  0  0  0  0  0
   39.1430   27.4940   43.5520 N   0  0  0  0  0  0  0  0  0  0  0  0
   37.3570   27.5860   44.6310 H   0  0  0  0  0  0  0  0  0  0  0  0
   35.9700   27.2030   42.5620 H   0  0  0  0  0  0  0  0  0  0  0  0
   40.7770   27.3520   42.1940 H   0  0  0  0  0  0  0  0  0  0  0  0
   36.6870   29.2330   39.6030 C   0  0  0  0  0  0  0  0  0  0  0  0
   35.8250   29.8490   40.5180 C   0  0  0  0  0  0  0  0  0  0  0  0
   36.2020   31.1410   40.7910 C   0  0  0  0  0  0  0  0  0  0  0  0
   37.2760   31.8180   40.2740 C   0  0  0  0  0  0  0  0  0  0  0  0
   38.0680   31.1190   39.3760 C   0  0  0  0  0  0  0  0  0  0  0  0
   37.7360   29.8570   39.0830 N   0  0  0  0  0  0  0  0  0  0  0  0
   34.9730   29.3820   40.9570 H   0  0  0  0  0  0  0  0  0  0  0  0
   35.5550   31.6880   41.5130 H   0  0  0  0  0  0  0  0  0  0  0  0
   37.4910   32.8340   40.5510 H   0  0  0  0  0  0  0  0  0  0  0  0
   39.2340   31.7560   38.7740 C   0  0  0  0  0  0  0  0  0  0  0  0
   39.9680   32.7640   39.3570 C   0  0  0  0  0  0  0  0  0  0  0  0
   39.7880   33.2120   40.3140 H   0  0  0  0  0  0  0  0  0  0  0  0
   40.9670   33.0650   38.4510 C   0  0  0  0  0  0  0  0  0  0  0  0
   41.7500   33.8050   38.5430 H   0  0  0  0  0  0  0  0  0  0  0  0
   40.8050   32.2310   37.3570 C   0  0  0  0  0  0  0  0  0  0  0  0
   41.3700   32.1420   36.4360 H   0  0  0  0  0  0  0  0  0  0  0  0
   39.7500   31.4690   37.6100 O   0  0  0  0  0  0  0  0  0  0  0  0
  2  3  1  0  0  0  0
  2  1  1  0  0  0  0
  3 13  1  0  0  0  0
  4 20  1  0  0  0  0
  4  3  2  0  0  0  0
  5  4  1  0  0  0  0
  6  5  2  0  0  0  0
  6  7  1  0  0  0  0
  7  2  2  0  0  0  0
  8  5  1  0  0  0  0
  9  6  1  0  0  0  0
 10  7  1  0  0  0  0
 11 17  1  0  0  0  0
 12 18  1  0  0  0  0
 12 11  2  0  0  0  0
 13 12  1  0  0  0  0
 14 13  2  0  0  0  0
 14 15  1  0  0  0  0
 15 16  2  0  0  0  0
 16 11  1  0  0  0  0
 19 15  1  0  0  0  0
 20 21  1  0  0  0  0
 21 22  2  0  0  0  0
 21 26  1  0  0  0  0
 22 27  1  0  0  0  0
 23 28  1  0  0  0  0
 23 22  1  0  0  0  0
 24 23  2  0  0  0  0
 25 24  1  0  0  0  0
 25 20  2  0  0  0  0
 29 30  2  0  0  0  0
 29 24  1  0  0  0  0
 30 31  1  0  0  0  0
 32 33  1  0  0  0  0
 32 30  1  0  0  0  0
 34 36  1  0  0  0  0
 34 32  2  0  0  0  0
 35 34  1  0  0  0  0
 36 29  1  0  0  0  0
M  END
>  <minimizedAffinity>
-5.76188183

$$$$

 OpenBabel03252502143D

 36 39  0  0  0  0  0  0  0  0999 V2000
   37.2080   25.4640   40.2130 Cl  0  0  0  0  0  0  0  0  0  0  0  0
   37.2640   26.8980   41.2240 C   0  0  0  0  0  0  0  0  0  0  0  0
   37.4780   28.1290   40.6990 C   0  0  0  0  0  0  0  0  0  0  0  0
   37.5000   29.1740   41.5900 C   0  0  0  0  0  0  0  0  0  0  0  0
   37.3240   29.0280   42.9290 C   0  0  0  0  0  0  0  0  0  0  0  0
   37.1090   27.7730   43.4510 C   0  0  0  0  0  0  0  0  0  0  0  0
   37.0800   26.7080   42.5860 C   0  0  0  0  0  0  0  0  0  0  0  0
   37.3470   29.8710   43.6120 H   0  0  0  0  0  0  0  0  0  0  0  0
   36.9640   27.6190   44.5180 H   0  0  0  0  0  0  0  0  0  0  0  0
   36.9110   25.7190   42.9970 H   0  0  0  0  0  0  0  0  0  0  0  0
   39.0350   28.4150   37.2630 C   0  0  0  0  0  0  0  0  0  0  0  0
   38.8900   28.2960   38.6440 C   0  0  0  0  0  0  0  0  0  0  0  0
   37.6610   28.2530   39.2670 C   0  0  0  0  0  0  0  0  0  0  0  0
   36.5730   28.3340   38.4340 N   0  0  0  0  0  0  0  0  0  0  0  0
   36.7240   28.4490   37.1000 C   0  0  0  0  0  0  0  0  0  0  0  0
   37.9180   28.4900   36.5120 N   0  0  0  0  0  0  0  0  0  0  0  0
   39.9870   28.4470   36.7960 H   0  0  0  0  0  0  0  0  0  0  0  0
   39.7400   28.2320   39.2950 H   0  0  0  0  0  0  0  0  0  0  0  0
   35.7880   28.5060   36.5420 H   0  0  0  0  0  0  0  0  0  0  0  0
   37.7300   30.5240   41.0430 C   0  0  0  0  0  0  0  0  0  0  0  0
   36.6240   31.1780   40.4870 C   0  0  0  0  0  0  0  0  0  0  0  0
   36.9490   32.4230   40.0080 C   0  0  0  0  0  0  0  0  0  0  0  0
   38.1810   33.0260   40.0340 C   0  0  0  0  0  0  0  0  0  0  0  0
   39.2110   32.2950   40.6070 C   0  0  0  0  0  0  0  0  0  0  0  0
   38.9360   31.0760   41.0850 N   0  0  0  0  0  0  0  0  0  0  0  0
   35.6420   30.7680   40.4340 H   0  0  0  0  0  0  0  0  0  0  0  0
   36.1110   32.9960   39.5510 H   0  0  0  0  0  0  0  0  0  0  0  0
   38.3370   34.0110   39.6320 H   0  0  0  0  0  0  0  0  0  0  0  0
   40.5560   32.8530   40.6800 C   0  0  0  0  0  0  0  0  0  0  0  0
   40.9640   34.0060   40.0480 C   0  0  0  0  0  0  0  0  0  0  0  0
   40.3630   34.6390   39.4260 H   0  0  0  0  0  0  0  0  0  0  0  0
   42.2950   34.1610   40.3850 C   0  0  0  0  0  0  0  0  0  0  0  0
   42.9720   34.9490   40.0850 H   0  0  0  0  0  0  0  0  0  0  0  0
   42.6440   33.1020   41.2070 C   0  0  0  0  0  0  0  0  0  0  0  0
   43.5830   32.8490   41.6870 H   0  0  0  0  0  0  0  0  0  0  0  0
   41.5600   32.3530   41.3470 O   0  0  0  0  0  0  0  0  0  0  0  0
  1  2  1  0  0  0  0
  2  7  1  0  0  0  0
  3  2  2  0  0  0  0
  3  4  1  0  0  0  0
  4  5  2  0  0  0  0
  5  6  1  0  0  0  0
  5  8  1  0  0  0  0
  6  9  1  0  0  0  0
  7 10  1  0  0  0  0
  7  6  2  0  0  0  0
 11 12  1  0  0  0  0
 12 13  2  0  0  0  0
 12 18  1  0  0  0  0
 13  3  1  0  0  0  0
 14 13  1  0  0  0  0
 15 14  2  0  0  0  0
 16 15  1  0  0  0  0
 16 11  2  0  0  0  0
 17 11  1  0  0  0  0
 19 15  1  0  0  0  0
 20 25  1  0  0  0  0
 20  4  1  0  0  0  0
 21 20  2  0  0  0  0
 22 23  2  0  0  0  0
 22 21  1  0  0  0  0
 23 24  1  0  0  0  0
 24 29  1  0  0  0  0
 24 25  2  0  0  0  0
 26 21  1  0  0  0  0
 27 22  1  0  0  0  0
 28 23  1  0  0  0  0
 29 36  1  0  0  0  0
 30 32  1  0  0  0  0
 30 29  2  0  0  0  0
 31 30  1  0  0  0  0
 32 34  2  0  0  0  0
 33 32  1  0  0  0  0
 34 36  1  0  0  0  0
 34 35  1  0  0  0  0
M  END
>  <minimizedAffinity>
-5.67140102

$$$$

 OpenBabel03252502143D

 36 39  0  0  0  0  0  0  0  0999 V2000
   37.5860   32.4980   39.0180 Cl  0  0  0  0  0  0  0  0  0  0  0  0
   38.2520   31.5850   40.3620 C   0  0  0  0  0  0  0  0  0  0  0  0
   37.7720   30.3620   40.6960 C   0  0  0  0  0  0  0  0  0  0  0  0
   38.3740   29.7460   41.7660 C   0  0  0  0  0  0  0  0  0  0  0  0
   39.3930   30.2930   42.4770 C   0  0  0  0  0  0  0  0  0  0  0  0
   39.8720   31.5360   42.1290 C   0  0  0  0  0  0  0  0  0  0  0  0
   39.2910   32.1780   41.0640 C   0  0  0  0  0  0  0  0  0  0  0  0
   39.8520   29.7860   43.3190 H   0  0  0  0  0  0  0  0  0  0  0  0
   40.6870   32.0060   42.6760 H   0  0  0  0  0  0  0  0  0  0  0  0
   39.6680   33.1570   40.7890 H   0  0  0  0  0  0  0  0  0  0  0  0
   34.3370   29.2860   39.5340 C   0  0  0  0  0  0  0  0  0  0  0  0
   35.3620   29.8320   40.3050 C   0  0  0  0  0  0  0  0  0  0  0  0
   36.6850   29.8050   39.9180 C   0  0  0  0  0  0  0  0  0  0  0  0
   36.9360   29.2000   38.7110 N   0  0  0  0  0  0  0  0  0  0  0  0
   35.9380   28.6770   37.9730 C   0  0  0  0  0  0  0  0  0  0  0  0
   34.6640   28.7100   38.3600 N   0  0  0  0  0  0  0  0  0  0  0  0
   33.3230   29.3140   39.8430 H   0  0  0  0  0  0  0  0  0  0  0  0
   35.1660   30.3030   41.2470 H   0  0  0  0  0  0  0  0  0  0  0  0
   36.2590   28.2240   37.0350 H   0  0  0  0  0  0  0  0  0  0  0  0
   37.8700   28.4140   42.1490 C   0  0  0  0  0  0  0  0  0  0  0  0
   37.0020   28.3570   43.2460 C   0  0  0  0  0  0  0  0  0  0  0  0
   36.5950   27.0740   43.5150 C   0  0  0  0  0  0  0  0  0  0  0  0
   36.9490   25.9330   42.8410 C   0  0  0  0  0  0  0  0  0  0  0  0
   37.8140   26.0970   41.7690 C   0  0  0  0  0  0  0  0  0  0  0  0
   38.2340   27.3320   41.4730 N   0  0  0  0  0  0  0  0  0  0  0  0
   36.6880   29.2030   43.8140 H   0  0  0  0  0  0  0  0  0  0  0  0
   35.9020   26.9600   44.3790 H   0  0  0  0  0  0  0  0  0  0  0  0
   36.5760   24.9670   43.1280 H   0  0  0  0  0  0  0  0  0  0  0  0
   38.2450   24.9420   40.9910 C   0  0  0  0  0  0  0  0  0  0  0  0
   37.7790   23.6580   41.1640 C   0  0  0  0  0  0  0  0  0  0  0  0
   37.0510   23.3350   41.8810 H   0  0  0  0  0  0  0  0  0  0  0  0
   38.4490   22.8920   40.2280 C   0  0  0  0  0  0  0  0  0  0  0  0
   38.3590   21.8310   40.0470 H   0  0  0  0  0  0  0  0  0  0  0  0
   39.2910   23.7360   39.5230 C   0  0  0  0  0  0  0  0  0  0  0  0
   39.9830   23.5400   38.7110 H   0  0  0  0  0  0  0  0  0  0  0  0
   39.1240   24.9510   40.0250 O   0  0  0  0  0  0  0  0  0  0  0  0
  1  2  1  0  0  0  0
  2  3  2  0  0  0  0
  2  7  1  0  0  0  0
  3  4  1  0  0  0  0
  4 20  1  0  0  0  0
  4  5  2  0  0  0  0
  5  8  1  0  0  0  0
  6  5  1  0  0  0  0
  6  9  1  0  0  0  0
  7  6  2  0  0  0  0
 10  7  1  0  0  0  0
 11 17  1  0  0  0  0
 11 12  1  0  0  0  0
 12 18  1  0  0  0  0
 13 12  2  0  0  0  0
 13  3  1  0  0  0  0
 14 13  1  0  0  0  0
 15 16  1  0  0  0  0
 15 14  2  0  0  0  0
 16 11  2  0  0  0  0
 19 15  1  0  0  0  0
 20 21  1  0  0  0  0
 21 22  2  0  0  0  0
 21 26  1  0  0  0  0
 22 27  1  0  0  0  0
 23 28  1  0  0  0  0
 23 22  1  0  0  0  0
 24 23  2  0  0  0  0
 25 24  1  0  0  0  0
 25 20  2  0  0  0  0
 29 30  2  0  0  0  0
 29 24  1  0  0  0  0
 30 31  1  0  0  0  0
 32 30  1  0  0  0  0
 33 32  1  0  0  0  0
 34 36  1  0  0  0  0
 34 32  2  0  0  0  0
 35 34  1  0  0  0  0
 36 29  1  0  0  0  0
M  END
>  <minimizedAffinity>
-5.59947586

$$$$

 OpenBabel03252502143D

 36 39  0  0  0  0  0  0  0  0999 V2000
   36.5420   29.7260   34.5540 Cl  0  0  0  0  0  0  0  0  0  0  0  0
   35.5960   29.2860   35.9660 C   0  0  0  0  0  0  0  0  0  0  0  0
   36.1460   29.2490   37.2050 C   0  0  0  0  0  0  0  0  0  0  0  0
   35.3060   28.8910   38.2310 C   0  0  0  0  0  0  0  0  0  0  0  0
   33.9950   28.5820   38.0610 C   0  0  0  0  0  0  0  0  0  0  0  0
   33.4480   28.6230   36.7980 C   0  0  0  0  0  0  0  0  0  0  0  0
   34.2610   28.9780   35.7520 C   0  0  0  0  0  0  0  0  0  0  0  0
   33.3520   28.3020   38.8890 H   0  0  0  0  0  0  0  0  0  0  0  0
   32.4010   28.3820   36.6240 H   0  0  0  0  0  0  0  0  0  0  0  0
   33.8310   29.0090   34.7560 H   0  0  0  0  0  0  0  0  0  0  0  0
   39.3730   31.1480   37.7390 C   0  0  0  0  0  0  0  0  0  0  0  0
   38.0180   30.8560   37.5990 C   0  0  0  0  0  0  0  0  0  0  0  0
   37.5470   29.5840   37.3550 C   0  0  0  0  0  0  0  0  0  0  0  0
   38.5080   28.6070   37.2580 N   0  0  0  0  0  0  0  0  0  0  0  0
   39.8150   28.9000   37.3950 C   0  0  0  0  0  0  0  0  0  0  0  0
   40.2550   30.1340   37.6300 N   0  0  0  0  0  0  0  0  0  0  0  0
   39.7230   32.1320   37.9270 H   0  0  0  0  0  0  0  0  0  0  0  0
   37.2690   31.6190   37.6750 H   0  0  0  0  0  0  0  0  0  0  0  0
   40.4830   28.0430   37.2970 H   0  0  0  0  0  0  0  0  0  0  0  0
   35.8810   28.8440   39.5890 C   0  0  0  0  0  0  0  0  0  0  0  0
   35.8240   30.0240   40.3410 C   0  0  0  0  0  0  0  0  0  0  0  0
   36.3850   29.8690   41.5840 C   0  0  0  0  0  0  0  0  0  0  0  0
   36.9520   28.7330   42.1030 C   0  0  0  0  0  0  0  0  0  0  0  0
   36.9570   27.6180   41.2780 C   0  0  0  0  0  0  0  0  0  0  0  0
   36.4200   27.7270   40.0590 N   0  0  0  0  0  0  0  0  0  0  0  0
   35.4000   30.9400   39.9990 H   0  0  0  0  0  0  0  0  0  0  0  0
   36.3730   30.7740   42.2330 H   0  0  0  0  0  0  0  0  0  0  0  0
   37.3670   28.7100   43.0940 H   0  0  0  0  0  0  0  0  0  0  0  0
   37.5370   26.3640   41.7440 C   0  0  0  0  0  0  0  0  0  0  0  0
   36.9490   25.1260   41.6060 C   0  0  0  0  0  0  0  0  0  0  0  0
   36.0030   24.9170   41.1490 H   0  0  0  0  0  0  0  0  0  0  0  0
   37.8330   24.2320   42.1800 C   0  0  0  0  0  0  0  0  0  0  0  0
   37.7320   23.1590   42.2700 H   0  0  0  0  0  0  0  0  0  0  0  0
   38.9210   24.9550   42.6400 C   0  0  0  0  0  0  0  0  0  0  0  0
   39.8260   24.6400   43.1470 H   0  0  0  0  0  0  0  0  0  0  0  0
   38.6850   26.2270   42.3500 O   0  0  0  0  0  0  0  0  0  0  0  0
  1  2  1  0  0  0  0
  2  3  1  0  0  0  0
  3 13  1  0  0  0  0
  3  4  2  0  0  0  0
  4 20  1  0  0  0  0
  5  4  1  0  0  0  0
  5  8  1  0  0  0  0
  6  5  2  0  0  0  0
  7  2  2  0  0  0  0
  7  6  1  0  0  0  0
  9  6  1  0  0  0  0
 10  7  1  0  0  0  0
 11 17  1  0  0  0  0
 12 18  1  0  0  0  0
 12 11  2  0  0  0  0
 13 12  1  0  0  0  0
 14 13  2  0  0  0  0
 14 15  1  0  0  0  0
 15 16  2  0  0  0  0
 16 11  1  0  0  0  0
 19 15  1  0  0  0  0
 20 25  2  0  0  0  0
 20 21  1  0  0  0  0
 21 22  2  0  0  0  0
 22 23  1  0  0  0  0
 22 27  1  0  0  0  0
 23 28  1  0  0  0  0
 24 29  1  0  0  0  0
 24 23  2  0  0  0  0
 25 24  1  0  0  0  0
 26 21  1  0  0  0  0
 29 36  1  0  0  0  0
 30 29  2  0  0  0  0
 30 32  1  0  0  0  0
 31 30  1  0  0  0  0
 32 33  1  0  0  0  0
 32 34  2  0  0  0  0
 34 35  1  0  0  0  0
 36 34  1  0  0  0  0
M  END
>  <minimizedAffinity>
-5.58005762

$$$$

 OpenBabel03252502143D

 36 39  0  0  0  0  0  0  0  0999 V2000
   37.4860   31.4460   37.2190 Cl  0  0  0  0  0  0  0  0  0  0  0  0
   36.8930   30.0370   38.0830 C   0  0  0  0  0  0  0  0  0  0  0  0
   37.3890   29.6870   39.2950 C   0  0  0  0  0  0  0  0  0  0  0  0
   36.8450   28.5650   39.8720 C   0  0  0  0  0  0  0  0  0  0  0  0
   35.8670   27.8190   39.2980 C   0  0  0  0  0  0  0  0  0  0  0  0
   35.3720   28.1830   38.0660 C   0  0  0  0  0  0  0  0  0  0  0  0
   35.8940   29.3000   37.4630 C   0  0  0  0  0  0  0  0  0  0  0  0
   35.4540   26.9360   39.7750 H   0  0  0  0  0  0  0  0  0  0  0  0
   34.5880   27.6090   37.5760 H   0  0  0  0  0  0  0  0  0  0  0  0
   35.5050   29.5880   36.4930 H   0  0  0  0  0  0  0  0  0  0  0  0
   39.2250   32.3090   41.3110 C   0  0  0  0  0  0  0  0  0  0  0  0
   38.2000   31.5400   40.7610 C   0  0  0  0  0  0  0  0  0  0  0  0
   38.4310   30.5030   39.8830 C   0  0  0  0  0  0  0  0  0  0  0  0
   39.7490   30.2680   39.5790 N   0  0  0  0  0  0  0  0  0  0  0  0
   40.7320   31.0160   40.1160 C   0  0  0  0  0  0  0  0  0  0  0  0
   40.4940   32.0160   40.9630 N   0  0  0  0  0  0  0  0  0  0  0  0
   39.0330   33.1050   41.9860 H   0  0  0  0  0  0  0  0  0  0  0  0
   37.1710   31.7240   40.9980 H   0  0  0  0  0  0  0  0  0  0  0  0
   41.7380   30.7370   39.8010 H   0  0  0  0  0  0  0  0  0  0  0  0
   37.3670   28.1640   41.1930 C   0  0  0  0  0  0  0  0  0  0  0  0
   36.5770   28.4750   42.3060 C   0  0  0  0  0  0  0  0  0  0  0  0
   37.1560   28.0590   43.4800 C   0  0  0  0  0  0  0  0  0  0  0  0
   38.3560   27.4110   43.6290 C   0  0  0  0  0  0  0  0  0  0  0  0
   39.0610   27.1490   42.4640 C   0  0  0  0  0  0  0  0  0  0  0  0
   38.5320   27.5390   41.2990 N   0  0  0  0  0  0  0  0  0  0  0  0
   35.6380   28.9760   42.2610 H   0  0  0  0  0  0  0  0  0  0  0  0
   36.5760   28.2770   44.4040 H   0  0  0  0  0  0  0  0  0  0  0  0
   38.7260   27.1230   44.5960 H   0  0  0  0  0  0  0  0  0  0  0  0
   40.3470   26.4650   42.5230 C   0  0  0  0  0  0  0  0  0  0  0  0
   40.9550   26.0310   43.6800 C   0  0  0  0  0  0  0  0  0  0  0  0
   40.5770   26.1360   44.6770 H   0  0  0  0  0  0  0  0  0  0  0  0
   42.1400   25.4450   43.2770 C   0  0  0  0  0  0  0  0  0  0  0  0
   42.8990   24.9830   43.8920 H   0  0  0  0  0  0  0  0  0  0  0  0
   42.2060   25.5420   41.8960 C   0  0  0  0  0  0  0  0  0  0  0  0
   42.9620   25.2110   41.1920 H   0  0  0  0  0  0  0  0  0  0  0  0
   41.1030   26.1620   41.5030 O   0  0  0  0  0  0  0  0  0  0  0  0
  1  2  1  0  0  0  0
  2  3  1  0  0  0  0
  3  4  2  0  0  0  0
  3 13  1  0  0  0  0
  4 20  1  0  0  0  0
  5  8  1  0  0  0  0
  5  4  1  0  0  0  0
  6  5  2  0  0  0  0
  7  6  1  0  0  0  0
  7  2  2  0  0  0  0
  9  6  1  0  0  0  0
 10  7  1  0  0  0  0
 11 17  1  0  0  0  0
 12 18  1  0  0  0  0
 12 11  2  0  0  0  0
 13 12  1  0  0  0  0
 14 13  2  0  0  0  0
 14 15  1  0  0  0  0
 15 16  2  0  0  0  0
 16 11  1  0  0  0  0
 19 15  1  0  0  0  0
 20 25  2  0  0  0  0
 20 21  1  0  0  0  0
 21 22  2  0  0  0  0
 22 23  1  0  0  0  0
 22 27  1  0  0  0  0
 23 28  1  0  0  0  0
 24 29  1  0  0  0  0
 24 23  2  0  0  0  0
 25 24  1  0  0  0  0
 26 21  1  0  0  0  0
 29 30  2  0  0  0  0
 30 31  1  0  0  0  0
 32 30  1  0  0  0  0
 32 33  1  0  0  0  0
 34 32  2  0  0  0  0
 35 34  1  0  0  0  0
 36 34  1  0  0  0  0
 36 29  1  0  0  0  0
M  END
>  <minimizedAffinity>
-5.57296324

$$$$

 OpenBabel03252502143D

 36 39  0  0  0  0  0  0  0  0999 V2000
   41.1600   32.3550   39.6960 Cl  0  0  0  0  0  0  0  0  0  0  0  0
   41.1830   31.1360   40.9590 C   0  0  0  0  0  0  0  0  0  0  0  0
   40.1150   30.3320   41.1890 C   0  0  0  0  0  0  0  0  0  0  0  0
   40.2530   29.4170   42.2040 C   0  0  0  0  0  0  0  0  0  0  0  0
   41.3740   29.2900   42.9600 C   0  0  0  0  0  0  0  0  0  0  0  0
   42.4510   30.1120   42.7180 C   0  0  0  0  0  0  0  0  0  0  0  0
   42.3450   31.0370   41.7100 C   0  0  0  0  0  0  0  0  0  0  0  0
   41.4570   28.5580   43.7560 H   0  0  0  0  0  0  0  0  0  0  0  0
   43.3650   30.0390   43.3030 H   0  0  0  0  0  0  0  0  0  0  0  0
   43.1930   31.6860   41.5190 H   0  0  0  0  0  0  0  0  0  0  0  0
   37.5490   29.9560   38.4360 C   0  0  0  0  0  0  0  0  0  0  0  0
   38.6960   29.7810   39.2080 C   0  0  0  0  0  0  0  0  0  0  0  0
   38.9350   30.4910   40.3660 C   0  0  0  0  0  0  0  0  0  0  0  0
   37.9600   31.3920   40.7170 N   0  0  0  0  0  0  0  0  0  0  0  0
   36.8550   31.5530   39.9650 C   0  0  0  0  0  0  0  0  0  0  0  0
   36.6380   30.8600   38.8480 N   0  0  0  0  0  0  0  0  0  0  0  0
   37.3770   29.4030   37.5470 H   0  0  0  0  0  0  0  0  0  0  0  0
   39.4560   29.0770   38.9330 H   0  0  0  0  0  0  0  0  0  0  0  0
   36.1540   32.2970   40.3440 H   0  0  0  0  0  0  0  0  0  0  0  0
   39.1050   28.5300   42.4730 C   0  0  0  0  0  0  0  0  0  0  0  0
   38.1350   29.0030   43.3650 C   0  0  0  0  0  0  0  0  0  0  0  0
   37.1160   28.1010   43.5430 C   0  0  0  0  0  0  0  0  0  0  0  0
   36.9880   26.8680   42.9560 C   0  0  0  0  0  0  0  0  0  0  0  0
   38.0020   26.4930   42.0880 C   0  0  0  0  0  0  0  0  0  0  0  0
   39.0140   27.3430   41.8870 N   0  0  0  0  0  0  0  0  0  0  0  0
   38.1730   29.9480   43.8550 H   0  0  0  0  0  0  0  0  0  0  0  0
   36.3110   28.4180   44.2430 H   0  0  0  0  0  0  0  0  0  0  0  0
   36.1470   26.2290   43.1590 H   0  0  0  0  0  0  0  0  0  0  0  0
   37.9520   25.1990   41.4160 C   0  0  0  0  0  0  0  0  0  0  0  0
   36.8550   24.3680   41.3900 C   0  0  0  0  0  0  0  0  0  0  0  0
   35.9050   24.5510   41.8510 H   0  0  0  0  0  0  0  0  0  0  0  0
   37.2440   23.2650   40.6530 C   0  0  0  0  0  0  0  0  0  0  0  0
   36.6620   22.3890   40.4060 H   0  0  0  0  0  0  0  0  0  0  0  0
   38.5570   23.4680   40.2590 C   0  0  0  0  0  0  0  0  0  0  0  0
   39.2310   22.8520   39.6740 H   0  0  0  0  0  0  0  0  0  0  0  0
   38.9260   24.6440   40.7470 O   0  0  0  0  0  0  0  0  0  0  0  0
  1  2  1  0  0  0  0
  2  3  2  0  0  0  0
  2  7  1  0  0  0  0
  3  4  1  0  0  0  0
  4 20  1  0  0  0  0
  4  5  2  0  0  0  0
  5  8  1  0  0  0  0
  6  5  1  0  0  0  0
  6  9  1  0  0  0  0
  7  6  2  0  0  0  0
 10  7  1  0  0  0  0
 11 16  2  0  0  0  0
 11 12  1  0  0  0  0
 12 13  2  0  0  0  0
 13 14  1  0  0  0  0
 13  3  1  0  0  0  0
 15 19  1  0  0  0  0
 15 14  2  0  0  0  0
 16 15  1  0  0  0  0
 17 11  1  0  0  0  0
 18 12  1  0  0  0  0
 20 21  1  0  0  0  0
 21 22  2  0  0  0  0
 21 26  1  0  0  0  0
 22 27  1  0  0  0  0
 23 28  1  0  0  0  0
 23 22  1  0  0  0  0
 24 23  2  0  0  0  0
 25 24  1  0  0  0  0
 25 20  2  0  0  0  0
 29 24  1  0  0  0  0
 30 29  2  0  0  0  0
 30 31  1  0  0  0  0
 32 30  1  0  0  0  0
 33 32  1  0  0  0  0
 34 32  2  0  0  0  0
 34 36  1  0  0  0  0
 35 34  1  0  0  0  0
 36 29  1  0  0  0  0
M  END
>  <minimizedAffinity>
-5.55032015

$$$$

 OpenBabel03252502143D

 36 39  0  0  0  0  0  0  0  0999 V2000
   35.4780   28.9830   37.0770 Cl  0  0  0  0  0  0  0  0  0  0  0  0
   35.8840   27.6290   38.1180 C   0  0  0  0  0  0  0  0  0  0  0  0
   36.5360   27.8080   39.2940 C   0  0  0  0  0  0  0  0  0  0  0  0
   36.7980   26.6720   40.0200 C   0  0  0  0  0  0  0  0  0  0  0  0
   36.4460   25.4230   39.6230 C   0  0  0  0  0  0  0  0  0  0  0  0
   35.7860   25.2530   38.4260 C   0  0  0  0  0  0  0  0  0  0  0  0
   35.5080   26.3690   37.6770 C   0  0  0  0  0  0  0  0  0  0  0  0
   36.6650   24.5410   40.2160 H   0  0  0  0  0  0  0  0  0  0  0  0
   35.4880   24.2670   38.0760 H   0  0  0  0  0  0  0  0  0  0  0  0
   34.9890   26.2360   36.7340 H   0  0  0  0  0  0  0  0  0  0  0  0
   36.4420   31.2960   40.7530 C   0  0  0  0  0  0  0  0  0  0  0  0
   36.0650   30.0060   40.3840 C   0  0  0  0  0  0  0  0  0  0  0  0
   36.8970   29.1530   39.6910 C   0  0  0  0  0  0  0  0  0  0  0  0
   38.1370   29.6570   39.3840 N   0  0  0  0  0  0  0  0  0  0  0  0
   38.4920   30.9040   39.7460 C   0  0  0  0  0  0  0  0  0  0  0  0
   37.6770   31.7180   40.4140 N   0  0  0  0  0  0  0  0  0  0  0  0
   35.7920   31.9430   41.2860 H   0  0  0  0  0  0  0  0  0  0  0  0
   35.0970   29.6140   40.6240 H   0  0  0  0  0  0  0  0  0  0  0  0
   39.5000   31.1930   39.4470 H   0  0  0  0  0  0  0  0  0  0  0  0
   37.5040   26.8410   41.3040 C   0  0  0  0  0  0  0  0  0  0  0  0
   36.7400   27.2730   42.3950 C   0  0  0  0  0  0  0  0  0  0  0  0
   37.4950   27.3960   43.5350 C   0  0  0  0  0  0  0  0  0  0  0  0
   38.8360   27.1450   43.6740 C   0  0  0  0  0  0  0  0  0  0  0  0
   39.5020   26.7200   42.5340 C   0  0  0  0  0  0  0  0  0  0  0  0
   38.8030   26.5880   41.4010 N   0  0  0  0  0  0  0  0  0  0  0  0
   35.6970   27.4870   42.3560 H   0  0  0  0  0  0  0  0  0  0  0  0
   36.9440   27.7390   44.4400 H   0  0  0  0  0  0  0  0  0  0  0  0
   39.3400   27.2710   44.6150 H   0  0  0  0  0  0  0  0  0  0  0  0
   40.9290   26.4280   42.5840 C   0  0  0  0  0  0  0  0  0  0  0  0
   41.5290   25.5880   43.4950 C   0  0  0  0  0  0  0  0  0  0  0  0
   41.0410   25.0440   44.2790 H   0  0  0  0  0  0  0  0  0  0  0  0
   42.8750   25.6030   43.1820 C   0  0  0  0  0  0  0  0  0  0  0  0
   43.6790   25.0690   43.6680 H   0  0  0  0  0  0  0  0  0  0  0  0
   43.0420   26.4470   42.0960 C   0  0  0  0  0  0  0  0  0  0  0  0
   43.9300   26.7350   41.5440 H   0  0  0  0  0  0  0  0  0  0  0  0
   41.8410   26.9110   41.7830 O   0  0  0  0  0  0  0  0  0  0  0  0
  1  2  1  0  0  0  0
  2  3  1  0  0  0  0
  3 13  1  0  0  0  0
  3  4  2  0  0  0  0
  4 20  1  0  0  0  0
  5  4  1  0  0  0  0
  5  8  1  0  0  0  0
  6  5  2  0  0  0  0
  7  2  2  0  0  0  0
  7  6  1  0  0  0  0
  9  6  1  0  0  0  0
 10  7  1  0  0  0  0
 11 17  1  0  0  0  0
 12 18  1  0  0  0  0
 12 11  2  0  0  0  0
 13 12  1  0  0  0  0
 14 13  2  0  0  0  0
 14 15  1  0  0  0  0
 15 16  2  0  0  0  0
 16 11  1  0  0  0  0
 19 15  1  0  0  0  0
 20 25  2  0  0  0  0
 20 21  1  0  0  0  0
 21 22  2  0  0  0  0
 22 23  1  0  0  0  0
 22 27  1  0  0  0  0
 23 28  1  0  0  0  0
 24 29  1  0  0  0  0
 24 23  2  0  0  0  0
 25 24  1  0  0  0  0
 26 21  1  0  0  0  0
 29 30  2  0  0  0  0
 30 31  1  0  0  0  0
 32 30  1  0  0  0  0
 32 33  1  0  0  0  0
 34 32  2  0  0  0  0
 35 34  1  0  0  0  0
 36 34  1  0  0  0  0
 36 29  1  0  0  0  0
M  END
>  <minimizedAffinity>
-5.49608517

$$$$

 OpenBabel03252502143D

 36 39  0  0  0  0  0  0  0  0999 V2000
   35.7410   25.3450   37.1090 Cl  0  0  0  0  0  0  0  0  0  0  0  0
   35.6010   26.7570   38.1440 C   0  0  0  0  0  0  0  0  0  0  0  0
   36.2750   26.8470   39.3170 C   0  0  0  0  0  0  0  0  0  0  0  0
   36.0850   28.0000   40.0390 C   0  0  0  0  0  0  0  0  0  0  0  0
   35.2780   29.0160   39.6410 C   0  0  0  0  0  0  0  0  0  0  0  0
   34.5980   28.9130   38.4480 C   0  0  0  0  0  0  0  0  0  0  0  0
   34.7670   27.7730   37.7030 C   0  0  0  0  0  0  0  0  0  0  0  0
   35.1450   29.9170   40.2300 H   0  0  0  0  0  0  0  0  0  0  0  0
   33.9420   29.7080   38.0970 H   0  0  0  0  0  0  0  0  0  0  0  0
   34.2310   27.6920   36.7630 H   0  0  0  0  0  0  0  0  0  0  0  0
   39.2780   24.6080   39.8470 C   0  0  0  0  0  0  0  0  0  0  0  0
   38.4810   25.6810   39.4510 C   0  0  0  0  0  0  0  0  0  0  0  0
   37.1300   25.7470   39.7150 C   0  0  0  0  0  0  0  0  0  0  0  0
   36.6090   24.6780   40.4020 N   0  0  0  0  0  0  0  0  0  0  0  0
   37.3880   23.6470   40.7800 C   0  0  0  0  0  0  0  0  0  0  0  0
   38.6920   23.5960   40.5180 N   0  0  0  0  0  0  0  0  0  0  0  0
   40.3170   24.5700   39.6380 H   0  0  0  0  0  0  0  0  0  0  0  0
   38.8880   26.5150   38.9150 H   0  0  0  0  0  0  0  0  0  0  0  0
   36.8630   22.8570   41.3190 H   0  0  0  0  0  0  0  0  0  0  0  0
   36.8090   28.1220   41.3190 C   0  0  0  0  0  0  0  0  0  0  0  0
   36.1980   27.5610   42.4470 C   0  0  0  0  0  0  0  0  0  0  0  0
   36.9550   27.7320   43.5800 C   0  0  0  0  0  0  0  0  0  0  0  0
   38.1690   28.3610   43.6800 C   0  0  0  0  0  0  0  0  0  0  0  0
   38.6890   28.8820   42.5040 C   0  0  0  0  0  0  0  0  0  0  0  0
   37.9830   28.7370   41.3780 N   0  0  0  0  0  0  0  0  0  0  0  0
   35.2580   27.0600   42.4400 H   0  0  0  0  0  0  0  0  0  0  0  0
   36.5230   27.3070   44.5140 H   0  0  0  0  0  0  0  0  0  0  0  0
   38.6880   28.4440   44.6170 H   0  0  0  0  0  0  0  0  0  0  0  0
   39.9750   29.5680   42.5110 C   0  0  0  0  0  0  0  0  0  0  0  0
   40.1400   30.9290   42.6360 C   0  0  0  0  0  0  0  0  0  0  0  0
   39.3620   31.6590   42.7420 H   0  0  0  0  0  0  0  0  0  0  0  0
   41.5050   31.1420   42.5930 C   0  0  0  0  0  0  0  0  0  0  0  0
   42.0360   32.0810   42.6610 H   0  0  0  0  0  0  0  0  0  0  0  0
   42.1160   29.9070   42.4460 C   0  0  0  0  0  0  0  0  0  0  0  0
   43.1620   29.6320   42.3710 H   0  0  0  0  0  0  0  0  0  0  0  0
   41.1470   29.0040   42.4030 O   0  0  0  0  0  0  0  0  0  0  0  0
  1  2  1  0  0  0  0
  2  3  1  0  0  0  0
  3 13  1  0  0  0  0
  3  4  2  0  0  0  0
  4 20  1  0  0  0  0
  5  4  1  0  0  0  0
  5  8  1  0  0  0  0
  6  5  2  0  0  0  0
  7  2  2  0  0  0  0
  7  6  1  0  0  0  0
  9  6  1  0  0  0  0
 10  7  1  0  0  0  0
 11 16  1  0  0  0  0
 12 13  1  0  0  0  0
 12 11  2  0  0  0  0
 13 14  2  0  0  0  0
 14 15  1  0  0  0  0
 15 19  1  0  0  0  0
 16 15  2  0  0  0  0
 17 11  1  0  0  0  0
 18 12  1  0  0  0  0
 20 25  2  0  0  0  0
 20 21  1  0  0  0  0
 21 22  2  0  0  0  0
 22 23  1  0  0  0  0
 22 27  1  0  0  0  0
 23 28  1  0  0  0  0
 24 29  1  0  0  0  0
 24 23  2  0  0  0  0
 25 24  1  0  0  0  0
 26 21  1  0  0  0  0
 29 30  2  0  0  0  0
 30 31  1  0  0  0  0
 32 30  1  0  0  0  0
 32 33  1  0  0  0  0
 34 32  2  0  0  0  0
 35 34  1  0  0  0  0
 36 34  1  0  0  0  0
 36 29  1  0  0  0  0
M  END
>  <minimizedAffinity>
-5.47940636

$$$$

 OpenBabel03252502143D

 36 39  0  0  0  0  0  0  0  0999 V2000
   40.9230   32.4670   39.9410 Cl  0  0  0  0  0  0  0  0  0  0  0  0
   39.3010   31.8770   40.2610 C   0  0  0  0  0  0  0  0  0  0  0  0
   39.0860   30.6930   40.8860 C   0  0  0  0  0  0  0  0  0  0  0  0
   37.7730   30.3390   41.0790 C   0  0  0  0  0  0  0  0  0  0  0  0
   36.7190   31.0990   40.6830 C   0  0  0  0  0  0  0  0  0  0  0  0
   36.9500   32.2980   40.0480 C   0  0  0  0  0  0  0  0  0  0  0  0
   38.2510   32.6810   39.8400 C   0  0  0  0  0  0  0  0  0  0  0  0
   35.6910   30.7960   40.8480 H   0  0  0  0  0  0  0  0  0  0  0  0
   36.1300   32.9330   39.7170 H   0  0  0  0  0  0  0  0  0  0  0  0
   38.4340   33.6260   39.3400 H   0  0  0  0  0  0  0  0  0  0  0  0
   41.9250   28.1950   40.9410 C   0  0  0  0  0  0  0  0  0  0  0  0
   40.8250   28.9370   40.5180 C   0  0  0  0  0  0  0  0  0  0  0  0
   40.2290   29.9060   41.2970 C   0  0  0  0  0  0  0  0  0  0  0  0
   40.7950   30.0990   42.5340 N   0  0  0  0  0  0  0  0  0  0  0  0
   41.8590   29.3770   42.9340 C   0  0  0  0  0  0  0  0  0  0  0  0
   42.4230   28.4440   42.1690 N   0  0  0  0  0  0  0  0  0  0  0  0
   42.3740   27.4520   40.3310 H   0  0  0  0  0  0  0  0  0  0  0  0
   40.3830   28.7860   39.5520 H   0  0  0  0  0  0  0  0  0  0  0  0
   42.2200   29.6190   43.9340 H   0  0  0  0  0  0  0  0  0  0  0  0
   37.5130   29.0560   41.7590 C   0  0  0  0  0  0  0  0  0  0  0  0
   37.3800   29.0930   43.1520 C   0  0  0  0  0  0  0  0  0  0  0  0
   37.1410   27.8480   43.6800 C   0  0  0  0  0  0  0  0  0  0  0  0
   37.0310   26.6640   42.9960 C   0  0  0  0  0  0  0  0  0  0  0  0
   37.1770   26.7360   41.6180 C   0  0  0  0  0  0  0  0  0  0  0  0
   37.4120   27.9300   41.0640 N   0  0  0  0  0  0  0  0  0  0  0  0
   37.4550   29.9760   43.7440 H   0  0  0  0  0  0  0  0  0  0  0  0
   37.0270   27.8100   44.7860 H   0  0  0  0  0  0  0  0  0  0  0  0
   36.8410   25.7350   43.5010 H   0  0  0  0  0  0  0  0  0  0  0  0
   37.0760   25.5290   40.8060 C   0  0  0  0  0  0  0  0  0  0  0  0
   36.5730   24.3250   41.2460 C   0  0  0  0  0  0  0  0  0  0  0  0
   36.1960   24.1110   42.2260 H   0  0  0  0  0  0  0  0  0  0  0  0
   36.6630   23.4690   40.1650 C   0  0  0  0  0  0  0  0  0  0  0  0
   36.3690   22.4310   40.1090 H   0  0  0  0  0  0  0  0  0  0  0  0
   37.2130   24.1830   39.1120 C   0  0  0  0  0  0  0  0  0  0  0  0
   37.4500   23.8880   38.0950 H   0  0  0  0  0  0  0  0  0  0  0  0
   37.4380   25.4100   39.5580 O   0  0  0  0  0  0  0  0  0  0  0  0
  1  2  1  0  0  0  0
  2  3  1  0  0  0  0
  3  4  2  0  0  0  0
  3 13  1  0  0  0  0
  4 20  1  0  0  0  0
  5  8  1  0  0  0  0
  5  4  1  0  0  0  0
  6  5  2  0  0  0  0
  7  6  1  0  0  0  0
  7  2  2  0  0  0  0
  9  6  1  0  0  0  0
 10  7  1  0  0  0  0
 11 16  1  0  0  0  0
 12 11  2  0  0  0  0
 12 13  1  0  0  0  0
 13 14  2  0  0  0  0
 14 15  1  0  0  0  0
 15 19  1  0  0  0  0
 16 15  2  0  0  0  0
 17 11  1  0  0  0  0
 18 12  1  0  0  0  0
 20 21  1  0  0  0  0
 21 22  2  0  0  0  0
 21 26  1  0  0  0  0
 22 27  1  0  0  0  0
 23 28  1  0  0  0  0
 23 22  1  0  0  0  0
 24 23  2  0  0  0  0
 25 24  1  0  0  0  0
 25 20  2  0  0  0  0
 29 30  2  0  0  0  0
 29 24  1  0  0  0  0
 30 31  1  0  0  0  0
 32 30  1  0  0  0  0
 33 32  1  0  0  0  0
 34 36  1  0  0  0  0
 34 32  2  0  0  0  0
 35 34  1  0  0  0  0
 36 29  1  0  0  0  0
M  END
>  <minimizedAffinity>
-5.42083931

$$$$
