
 OpenBabel03252503033D

 32 33  0  0  0  0  0  0  0  0999 V2000
   39.0320   34.4300   40.1070 S   0  0  0  0  0  0  0  0  0  0  0  0
   37.3900   32.2370   40.4550 C   0  0  0  0  0  0  0  0  0  0  0  0
   38.6230   32.7850   40.7310 C   0  0  0  0  0  0  0  0  0  0  0  0
   39.5730   32.0900   41.4900 C   0  0  0  0  0  0  0  0  0  0  0  0
   39.2070   30.8610   41.9290 N   0  0  0  0  0  0  0  0  0  0  0  0
   38.0040   30.3500   41.6480 C   0  0  0  0  0  0  0  0  0  0  0  0
   37.0940   30.9990   40.9300 N   0  0  0  0  0  0  0  0  0  0  0  0
   36.6480   32.7880   39.8580 H   0  0  0  0  0  0  0  0  0  0  0  0
   40.5500   32.5260   41.7080 H   0  0  0  0  0  0  0  0  0  0  0  0
   37.7280   29.0170   42.1790 C   0  0  0  0  0  0  0  0  0  0  0  0
   38.7650   28.3940   42.8680 C   0  0  0  0  0  0  0  0  0  0  0  0
   39.7810   28.6540   43.1270 H   0  0  0  0  0  0  0  0  0  0  0  0
   38.2440   27.1560   43.2600 C   0  0  0  0  0  0  0  0  0  0  0  0
   38.6990   26.3440   43.8190 H   0  0  0  0  0  0  0  0  0  0  0  0
   36.9320   27.1100   42.7880 C   0  0  0  0  0  0  0  0  0  0  0  0
   36.1660   26.3240   42.8730 H   0  0  0  0  0  0  0  0  0  0  0  0
   36.6820   28.2410   42.1540 O   0  0  0  0  0  0  0  0  0  0  0  0
   40.7830   34.5130   39.7150 C   0  0  0  0  0  0  0  0  0  0  0  0
   41.0550   35.5870   39.6060 H   0  0  0  0  0  0  0  0  0  0  0  0
   41.3640   33.9980   40.5230 H   0  0  0  0  0  0  0  0  0  0  0  0
   40.9750   33.7470   38.4960 N   0  0  0  0  0  0  0  0  0  0  0  0
   40.7240   32.7440   38.6190 H   0  0  0  0  0  0  0  0  0  0  0  0
   42.5900   33.8020   37.9230 S   0  0  0  0  0  0  0  0  0  0  0  0
   42.6860   34.4680   36.5920 O   0  0  0  0  0  0  0  0  0  0  0  0
   42.1680   34.1950   35.7750 H   0  0  0  0  0  0  0  0  0  0  0  0
   43.3690   34.5900   38.9540 O   0  0  0  0  0  0  0  0  0  0  0  0
   43.7680   35.4770   38.7120 H   0  0  0  0  0  0  0  0  0  0  0  0
   43.2350   32.2680   37.8900 O   0  0  0  0  0  0  0  0  0  0  0  0
   43.7040   31.8720   39.1380 C   0  0  0  0  0  0  0  0  0  0  0  0
   43.6940   30.7730   39.2640 H   0  0  0  0  0  0  0  0  0  0  0  0
   44.6790   32.3140   39.4000 H   0  0  0  0  0  0  0  0  0  0  0  0
   42.9800   32.2710   39.8830 H   0  0  0  0  0  0  0  0  0  0  0  0
  1  3  1  0  0  0  0
  2  3  2  0  0  0  0
  2  7  1  0  0  0  0
  3  4  1  0  0  0  0
  4  9  1  0  0  0  0
  4  5  2  0  0  0  0
  6  5  1  0  0  0  0
  6 10  1  0  0  0  0
  7  6  2  0  0  0  0
  8  2  1  0  0  0  0
 10 11  2  0  0  0  0
 11 12  1  0  0  0  0
 11 13  1  0  0  0  0
 13 14  1  0  0  0  0
 15 16  1  0  0  0  0
 15 13  2  0  0  0  0
 17 10  1  0  0  0  0
 17 15  1  0  0  0  0
 18  1  1  0  0  0  0
 18 20  1  0  0  0  0
 19 18  1  0  0  0  0
 21 22  1  0  0  0  0
 21 18  1  0  0  0  0
 23 21  1  0  0  0  0
 23 26  1  0  0  0  0
 24 23  1  0  0  0  0
 25 24  1  0  0  0  0
 27 26  1  0  0  0  0
 28 23  1  0  0  0  0
 28 29  1  0  0  0  0
 29 30  1  0  0  0  0
 29 31  1  0  0  0  0
 29 32  1  0  0  0  0
M  END
>  <minimizedAffinity>
-5.19061089

$$$$

 OpenBabel03252503033D

 32 33  0  0  0  0  0  0  0  0999 V2000
   36.2720   30.6890   41.2420 S   0  0  0  0  0  0  0  0  0  0  0  0
   36.8280   28.1300   42.1180 C   0  0  0  0  0  0  0  0  0  0  0  0
   36.5210   28.9130   41.0280 C   0  0  0  0  0  0  0  0  0  0  0  0
   36.3980   28.3590   39.7470 C   0  0  0  0  0  0  0  0  0  0  0  0
   36.5960   27.0210   39.6510 N   0  0  0  0  0  0  0  0  0  0  0  0
   36.8930   26.2820   40.7240 C   0  0  0  0  0  0  0  0  0  0  0  0
   37.0140   26.7950   41.9440 N   0  0  0  0  0  0  0  0  0  0  0  0
   36.9250   28.5720   43.1210 H   0  0  0  0  0  0  0  0  0  0  0  0
   36.1540   28.9810   38.8840 H   0  0  0  0  0  0  0  0  0  0  0  0
   37.0840   24.8520   40.4910 C   0  0  0  0  0  0  0  0  0  0  0  0
   36.1310   24.2170   39.6990 C   0  0  0  0  0  0  0  0  0  0  0  0
   35.2330   24.5240   39.1820 H   0  0  0  0  0  0  0  0  0  0  0  0
   36.5460   22.8820   39.6380 C   0  0  0  0  0  0  0  0  0  0  0  0
   36.1050   22.0290   39.1310 H   0  0  0  0  0  0  0  0  0  0  0  0
   37.7170   22.7950   40.3910 C   0  0  0  0  0  0  0  0  0  0  0  0
   38.3690   21.9350   40.6070 H   0  0  0  0  0  0  0  0  0  0  0  0
   37.9880   23.9950   40.8730 O   0  0  0  0  0  0  0  0  0  0  0  0
   36.9740   31.5740   39.8460 C   0  0  0  0  0  0  0  0  0  0  0  0
   37.9530   31.1020   39.6030 H   0  0  0  0  0  0  0  0  0  0  0  0
   36.2520   31.5380   38.9890 H   0  0  0  0  0  0  0  0  0  0  0  0
   37.0920   32.9640   40.2480 N   0  0  0  0  0  0  0  0  0  0  0  0
   36.6890   33.6140   39.5400 H   0  0  0  0  0  0  0  0  0  0  0  0
   38.7160   33.4440   40.5150 S   0  0  0  0  0  0  0  0  0  0  0  0
   39.3860   33.8680   39.2520 O   0  0  0  0  0  0  0  0  0  0  0  0
   39.4520   33.3060   38.4210 H   0  0  0  0  0  0  0  0  0  0  0  0
   38.6520   34.6060   41.4820 O   0  0  0  0  0  0  0  0  0  0  0  0
   38.9410   35.5190   41.1910 H   0  0  0  0  0  0  0  0  0  0  0  0
   39.5530   32.2220   41.2740 O   0  0  0  0  0  0  0  0  0  0  0  0
   40.7750   31.9660   40.6590 C   0  0  0  0  0  0  0  0  0  0  0  0
   41.5180   31.5370   41.3570 H   0  0  0  0  0  0  0  0  0  0  0  0
   40.6830   31.3760   39.7320 H   0  0  0  0  0  0  0  0  0  0  0  0
   41.1800   32.9550   40.3500 H   0  0  0  0  0  0  0  0  0  0  0  0
  2  8  1  0  0  0  0
  3  1  1  0  0  0  0
  3  2  2  0  0  0  0
  4  3  1  0  0  0  0
  5  4  2  0  0  0  0
  5  6  1  0  0  0  0
  6  7  2  0  0  0  0
  7  2  1  0  0  0  0
  9  4  1  0  0  0  0
 10  6  1  0  0  0  0
 10 17  1  0  0  0  0
 11 10  2  0  0  0  0
 12 11  1  0  0  0  0
 13 11  1  0  0  0  0
 13 15  2  0  0  0  0
 14 13  1  0  0  0  0
 15 16  1  0  0  0  0
 15 17  1  0  0  0  0
 18 21  1  0  0  0  0
 18  1  1  0  0  0  0
 19 18  1  0  0  0  0
 20 18  1  0  0  0  0
 21 23  1  0  0  0  0
 22 21  1  0  0  0  0
 23 28  1  0  0  0  0
 23 26  1  0  0  0  0
 24 23  1  0  0  0  0
 25 24  1  0  0  0  0
 27 26  1  0  0  0  0
 29 28  1  0  0  0  0
 29 30  1  0  0  0  0
 31 29  1  0  0  0  0
 32 29  1  0  0  0  0
M  END
>  <minimizedAffinity>
-4.87932444

$$$$

 OpenBabel03252503033D

 32 33  0  0  0  0  0  0  0  0999 V2000
   38.8370   33.0320   40.5870 S   0  0  0  0  0  0  0  0  0  0  0  0
   37.1050   30.9340   41.0670 C   0  0  0  0  0  0  0  0  0  0  0  0
   38.3940   31.2870   40.7350 C   0  0  0  0  0  0  0  0  0  0  0  0
   39.3770   30.3140   40.5070 C   0  0  0  0  0  0  0  0  0  0  0  0
   38.9830   29.0240   40.6330 N   0  0  0  0  0  0  0  0  0  0  0  0
   37.7260   28.7070   40.9570 C   0  0  0  0  0  0  0  0  0  0  0  0
   36.7850   29.6180   41.1750 N   0  0  0  0  0  0  0  0  0  0  0  0
   36.3380   31.7030   41.2450 H   0  0  0  0  0  0  0  0  0  0  0  0
   40.3980   30.5950   40.2440 H   0  0  0  0  0  0  0  0  0  0  0  0
   37.4260   27.2800   41.0620 C   0  0  0  0  0  0  0  0  0  0  0  0
   37.2770   26.7690   42.3490 C   0  0  0  0  0  0  0  0  0  0  0  0
   37.3290   27.1750   43.3480 H   0  0  0  0  0  0  0  0  0  0  0  0
   37.0000   25.4090   42.1660 C   0  0  0  0  0  0  0  0  0  0  0  0
   36.8130   24.6240   42.8910 H   0  0  0  0  0  0  0  0  0  0  0  0
   36.9980   25.1860   40.7880 C   0  0  0  0  0  0  0  0  0  0  0  0
   36.8260   24.2650   40.2110 H   0  0  0  0  0  0  0  0  0  0  0  0
   37.2570   26.3320   40.1850 O   0  0  0  0  0  0  0  0  0  0  0  0
   40.5740   33.1840   40.1590 C   0  0  0  0  0  0  0  0  0  0  0  0
   41.0840   33.7130   40.9960 H   0  0  0  0  0  0  0  0  0  0  0  0
   40.9960   32.1620   39.9720 H   0  0  0  0  0  0  0  0  0  0  0  0
   40.6340   33.9080   38.9020 N   0  0  0  0  0  0  0  0  0  0  0  0
   39.6960   34.2410   38.5950 H   0  0  0  0  0  0  0  0  0  0  0  0
   41.2860   32.9690   37.6240 S   0  0  0  0  0  0  0  0  0  0  0  0
   40.2190   32.3890   36.7590 O   0  0  0  0  0  0  0  0  0  0  0  0
   39.4580   31.8200   37.0900 H   0  0  0  0  0  0  0  0  0  0  0  0
   42.1510   33.9120   36.8160 O   0  0  0  0  0  0  0  0  0  0  0  0
   41.9020   34.1390   35.8730 H   0  0  0  0  0  0  0  0  0  0  0  0
   42.2880   31.7900   38.2370 O   0  0  0  0  0  0  0  0  0  0  0  0
   43.6240   32.0270   37.9280 C   0  0  0  0  0  0  0  0  0  0  0  0
   44.3150   31.5770   38.6650 H   0  0  0  0  0  0  0  0  0  0  0  0
   43.8860   31.7620   36.8910 H   0  0  0  0  0  0  0  0  0  0  0  0
   43.7690   33.1280   38.0060 H   0  0  0  0  0  0  0  0  0  0  0  0
  1  3  1  0  0  0  0
  2  7  1  0  0  0  0
  2  8  1  0  0  0  0
  3  2  2  0  0  0  0
  4  5  2  0  0  0  0
  4  3  1  0  0  0  0
  5  6  1  0  0  0  0
  6 10  1  0  0  0  0
  6  7  2  0  0  0  0
  9  4  1  0  0  0  0
 10 11  2  0  0  0  0
 11 12  1  0  0  0  0
 13 11  1  0  0  0  0
 13 14  1  0  0  0  0
 15 13  2  0  0  0  0
 16 15  1  0  0  0  0
 17 15  1  0  0  0  0
 17 10  1  0  0  0  0
 18  1  1  0  0  0  0
 18 19  1  0  0  0  0
 20 18  1  0  0  0  0
 21 18  1  0  0  0  0
 22 21  1  0  0  0  0
 23 28  1  0  0  0  0
 23 21  1  0  0  0  0
 24 25  1  0  0  0  0
 24 23  1  0  0  0  0
 26 23  1  0  0  0  0
 27 26  1  0  0  0  0
 29 32  1  0  0  0  0
 29 28  1  0  0  0  0
 29 30  1  0  0  0  0
 31 29  1  0  0  0  0
M  END
>  <minimizedAffinity>
-4.83651686

$$$$

 OpenBabel03252503033D

 32 33  0  0  0  0  0  0  0  0999 V2000
   42.6210   32.5850   41.5090 S   0  0  0  0  0  0  0  0  0  0  0  0
   39.9920   31.7410   41.5540 C   0  0  0  0  0  0  0  0  0  0  0  0
   41.2910   31.4220   41.8810 C   0  0  0  0  0  0  0  0  0  0  0  0
   41.6050   30.2050   42.5010 C   0  0  0  0  0  0  0  0  0  0  0  0
   40.5640   29.3750   42.7540 N   0  0  0  0  0  0  0  0  0  0  0  0
   39.3120   29.7070   42.4270 C   0  0  0  0  0  0  0  0  0  0  0  0
   39.0000   30.8580   41.8400 N   0  0  0  0  0  0  0  0  0  0  0  0
   39.7520   32.6990   41.0680 H   0  0  0  0  0  0  0  0  0  0  0  0
   42.6350   29.9530   42.7590 H   0  0  0  0  0  0  0  0  0  0  0  0
   38.2770   28.7280   42.7520 C   0  0  0  0  0  0  0  0  0  0  0  0
   38.2150   27.5950   41.9450 C   0  0  0  0  0  0  0  0  0  0  0  0
   38.7640   27.2310   41.0890 H   0  0  0  0  0  0  0  0  0  0  0  0
   37.1580   26.8400   42.4650 C   0  0  0  0  0  0  0  0  0  0  0  0
   36.7540   25.8830   42.1500 H   0  0  0  0  0  0  0  0  0  0  0  0
   36.6520   27.5590   43.5490 C   0  0  0  0  0  0  0  0  0  0  0  0
   35.8240   27.3300   44.2360 H   0  0  0  0  0  0  0  0  0  0  0  0
   37.3550   28.6700   43.6710 O   0  0  0  0  0  0  0  0  0  0  0  0
   43.0710   32.4590   39.7750 C   0  0  0  0  0  0  0  0  0  0  0  0
   44.1740   32.5950   39.7000 H   0  0  0  0  0  0  0  0  0  0  0  0
   42.7290   31.4680   39.3790 H   0  0  0  0  0  0  0  0  0  0  0  0
   42.3190   33.4840   39.0730 N   0  0  0  0  0  0  0  0  0  0  0  0
   41.3530   33.5880   39.4470 H   0  0  0  0  0  0  0  0  0  0  0  0
   42.1850   33.1760   37.3910 S   0  0  0  0  0  0  0  0  0  0  0  0
   40.7820   32.8680   36.9910 O   0  0  0  0  0  0  0  0  0  0  0  0
   40.2140   32.1440   37.3980 H   0  0  0  0  0  0  0  0  0  0  0  0
   42.6560   34.4360   36.6990 O   0  0  0  0  0  0  0  0  0  0  0  0
   42.0150   34.9810   36.1560 H   0  0  0  0  0  0  0  0  0  0  0  0
   43.2290   31.9560   36.9510 O   0  0  0  0  0  0  0  0  0  0  0  0
   42.5530   30.8220   36.5140 C   0  0  0  0  0  0  0  0  0  0  0  0
   43.1530   30.2160   35.8100 H   0  0  0  0  0  0  0  0  0  0  0  0
   42.1360   30.2170   37.3360 H   0  0  0  0  0  0  0  0  0  0  0  0
   41.6770   31.1880   35.9320 H   0  0  0  0  0  0  0  0  0  0  0  0
  1  3  1  0  0  0  0
  2  7  2  0  0  0  0
  2  3  1  0  0  0  0
  3  4  2  0  0  0  0
  4  5  1  0  0  0  0
  4  9  1  0  0  0  0
  6 10  1  0  0  0  0
  6  5  2  0  0  0  0
  7  6  1  0  0  0  0
  8  2  1  0  0  0  0
 10 17  1  0  0  0  0
 11 13  1  0  0  0  0
 11 10  2  0  0  0  0
 12 11  1  0  0  0  0
 13 15  2  0  0  0  0
 14 13  1  0  0  0  0
 15 17  1  0  0  0  0
 15 16  1  0  0  0  0
 18  1  1  0  0  0  0
 19 18  1  0  0  0  0
 20 18  1  0  0  0  0
 21 22  1  0  0  0  0
 21 18  1  0  0  0  0
 23 21  1  0  0  0  0
 24 23  1  0  0  0  0
 24 25  1  0  0  0  0
 26 23  1  0  0  0  0
 27 26  1  0  0  0  0
 28 23  1  0  0  0  0
 29 28  1  0  0  0  0
 29 31  1  0  0  0  0
 30 29  1  0  0  0  0
 32 29  1  0  0  0  0
M  END
>  <minimizedAffinity>
-4.83495522

$$$$

 OpenBabel03252503033D

 32 33  0  0  0  0  0  0  0  0999 V2000
   39.7250   31.6190   39.3100 S   0  0  0  0  0  0  0  0  0  0  0  0
   38.7920   29.7280   41.0950 C   0  0  0  0  0  0  0  0  0  0  0  0
   39.0460   30.0090   39.7710 C   0  0  0  0  0  0  0  0  0  0  0  0
   38.7880   29.0670   38.7670 C   0  0  0  0  0  0  0  0  0  0  0  0
   38.2790   27.8800   39.1750 N   0  0  0  0  0  0  0  0  0  0  0  0
   38.0410   27.6300   40.4660 C   0  0  0  0  0  0  0  0  0  0  0  0
   38.2810   28.5140   41.4290 N   0  0  0  0  0  0  0  0  0  0  0  0
   38.9970   30.4720   41.8790 H   0  0  0  0  0  0  0  0  0  0  0  0
   38.9900   29.2920   37.7170 H   0  0  0  0  0  0  0  0  0  0  0  0
   37.4920   26.3130   40.7800 C   0  0  0  0  0  0  0  0  0  0  0  0
   37.4320   25.9670   42.1280 C   0  0  0  0  0  0  0  0  0  0  0  0
   37.7010   26.4480   43.0570 H   0  0  0  0  0  0  0  0  0  0  0  0
   36.8780   24.6820   42.1450 C   0  0  0  0  0  0  0  0  0  0  0  0
   36.6490   24.0250   42.9780 H   0  0  0  0  0  0  0  0  0  0  0  0
   36.6390   24.3340   40.8150 C   0  0  0  0  0  0  0  0  0  0  0  0
   36.2140   23.4180   40.3790 H   0  0  0  0  0  0  0  0  0  0  0  0
   37.0230   25.3400   40.0500 O   0  0  0  0  0  0  0  0  0  0  0  0
   40.4080   31.5380   37.6520 C   0  0  0  0  0  0  0  0  0  0  0  0
   41.2820   30.8470   37.6790 H   0  0  0  0  0  0  0  0  0  0  0  0
   39.6100   31.1980   36.9420 H   0  0  0  0  0  0  0  0  0  0  0  0
   40.7630   32.8950   37.2790 N   0  0  0  0  0  0  0  0  0  0  0  0
   40.4470   33.1330   36.3150 H   0  0  0  0  0  0  0  0  0  0  0  0
   42.4520   33.1850   37.3480 S   0  0  0  0  0  0  0  0  0  0  0  0
   43.2280   32.1210   36.6500 O   0  0  0  0  0  0  0  0  0  0  0  0
   43.1620   31.1370   36.8480 H   0  0  0  0  0  0  0  0  0  0  0  0
   42.6720   34.5180   36.6670 O   0  0  0  0  0  0  0  0  0  0  0  0
   43.1910   34.5660   35.8120 H   0  0  0  0  0  0  0  0  0  0  0  0
   42.9350   33.3580   38.9310 O   0  0  0  0  0  0  0  0  0  0  0  0
   43.9640   32.4820   39.2620 C   0  0  0  0  0  0  0  0  0  0  0  0
   44.5950   32.8640   40.0860 H   0  0  0  0  0  0  0  0  0  0  0  0
   43.6190   31.4510   39.4430 H   0  0  0  0  0  0  0  0  0  0  0  0
   44.6250   32.4290   38.3690 H   0  0  0  0  0  0  0  0  0  0  0  0
  1  3  1  0  0  0  0
  2  7  1  0  0  0  0
  2  8  1  0  0  0  0
  3  2  2  0  0  0  0
  4  5  2  0  0  0  0
  4  3  1  0  0  0  0
  5  6  1  0  0  0  0
  6 10  1  0  0  0  0
  6  7  2  0  0  0  0
  9  4  1  0  0  0  0
 10 11  2  0  0  0  0
 11 13  1  0  0  0  0
 11 12  1  0  0  0  0
 13 14  1  0  0  0  0
 15 13  2  0  0  0  0
 16 15  1  0  0  0  0
 17 10  1  0  0  0  0
 17 15  1  0  0  0  0
 18 19  1  0  0  0  0
 18  1  1  0  0  0  0
 20 18  1  0  0  0  0
 21 23  1  0  0  0  0
 21 18  1  0  0  0  0
 22 21  1  0  0  0  0
 23 28  1  0  0  0  0
 24 25  1  0  0  0  0
 24 23  1  0  0  0  0
 26 23  1  0  0  0  0
 27 26  1  0  0  0  0
 28 29  1  0  0  0  0
 29 31  1  0  0  0  0
 29 30  1  0  0  0  0
 32 29  1  0  0  0  0
M  END
>  <minimizedAffinity>
-4.6753521

$$$$

 OpenBabel03252503033D

 32 33  0  0  0  0  0  0  0  0999 V2000
   36.9220   31.4250   38.9430 S   0  0  0  0  0  0  0  0  0  0  0  0
   37.3100   30.2610   41.4180 C   0  0  0  0  0  0  0  0  0  0  0  0
   37.6800   30.2540   40.0910 C   0  0  0  0  0  0  0  0  0  0  0  0
   38.6370   29.3520   39.6090 C   0  0  0  0  0  0  0  0  0  0  0  0
   39.1680   28.4990   40.5190 N   0  0  0  0  0  0  0  0  0  0  0  0
   38.7930   28.5250   41.8010 C   0  0  0  0  0  0  0  0  0  0  0  0
   37.8870   29.3750   42.2720 N   0  0  0  0  0  0  0  0  0  0  0  0
   36.5570   30.9720   41.7900 H   0  0  0  0  0  0  0  0  0  0  0  0
   38.9290   29.3470   38.5580 H   0  0  0  0  0  0  0  0  0  0  0  0
   39.4390   27.5560   42.6840 C   0  0  0  0  0  0  0  0  0  0  0  0
   40.6350   27.9530   43.2770 C   0  0  0  0  0  0  0  0  0  0  0  0
   41.2460   28.8440   43.2520 H   0  0  0  0  0  0  0  0  0  0  0  0
   41.0310   26.8600   44.0550 C   0  0  0  0  0  0  0  0  0  0  0  0
   41.9020   26.7250   44.6880 H   0  0  0  0  0  0  0  0  0  0  0  0
   40.0550   25.8770   43.8860 C   0  0  0  0  0  0  0  0  0  0  0  0
   39.9740   24.8670   44.3130 H   0  0  0  0  0  0  0  0  0  0  0  0
   39.1360   26.3460   43.0620 O   0  0  0  0  0  0  0  0  0  0  0  0
   37.3900   33.1000   39.3870 C   0  0  0  0  0  0  0  0  0  0  0  0
   36.8460   33.7950   38.7070 H   0  0  0  0  0  0  0  0  0  0  0  0
   37.1470   33.2740   40.4680 H   0  0  0  0  0  0  0  0  0  0  0  0
   38.8330   33.1810   39.2540 N   0  0  0  0  0  0  0  0  0  0  0  0
   39.2600   32.2570   39.0340 H   0  0  0  0  0  0  0  0  0  0  0  0
   39.6000   33.7730   40.6690 S   0  0  0  0  0  0  0  0  0  0  0  0
   38.6850   34.6240   41.4830 O   0  0  0  0  0  0  0  0  0  0  0  0
   38.1950   35.4320   41.1400 H   0  0  0  0  0  0  0  0  0  0  0  0
   40.0110   32.5510   41.4600 O   0  0  0  0  0  0  0  0  0  0  0  0
   39.5940   32.3650   42.3510 H   0  0  0  0  0  0  0  0  0  0  0  0
   40.9950   34.5850   40.2630 O   0  0  0  0  0  0  0  0  0  0  0  0
   41.3470   34.3850   38.9320 C   0  0  0  0  0  0  0  0  0  0  0  0
   41.9410   35.2220   38.5200 H   0  0  0  0  0  0  0  0  0  0  0  0
   41.8200   33.4060   38.7470 H   0  0  0  0  0  0  0  0  0  0  0  0
   40.3940   34.3740   38.3570 H   0  0  0  0  0  0  0  0  0  0  0  0
  1 18  1  0  0  0  0
  1  3  1  0  0  0  0
  2  8  1  0  0  0  0
  2  7  1  0  0  0  0
  3  2  2  0  0  0  0
  4  3  1  0  0  0  0
  4  5  2  0  0  0  0
  5  6  1  0  0  0  0
  6  7  2  0  0  0  0
  6 10  1  0  0  0  0
  9  4  1  0  0  0  0
 10 17  1  0  0  0  0
 10 11  2  0  0  0  0
 11 13  1  0  0  0  0
 12 11  1  0  0  0  0
 13 14  1  0  0  0  0
 15 13  2  0  0  0  0
 15 16  1  0  0  0  0
 17 15  1  0  0  0  0
 18 20  1  0  0  0  0
 19 18  1  0  0  0  0
 21 18  1  0  0  0  0
 21 23  1  0  0  0  0
 22 21  1  0  0  0  0
 23 26  1  0  0  0  0
 23 24  1  0  0  0  0
 25 24  1  0  0  0  0
 26 27  1  0  0  0  0
 28 23  1  0  0  0  0
 29 28  1  0  0  0  0
 30 29  1  0  0  0  0
 31 29  1  0  0  0  0
 32 29  1  0  0  0  0
M  END
>  <minimizedAffinity>
-4.59529638

$$$$

 OpenBabel03252503033D

 32 33  0  0  0  0  0  0  0  0999 V2000
   42.0980   32.3600   41.3020 S   0  0  0  0  0  0  0  0  0  0  0  0
   39.3400   32.2260   41.2230 C   0  0  0  0  0  0  0  0  0  0  0  0
   40.5160   31.6720   40.7680 C   0  0  0  0  0  0  0  0  0  0  0  0
   40.5110   30.5770   39.8930 C   0  0  0  0  0  0  0  0  0  0  0  0
   39.2930   30.1070   39.5290 N   0  0  0  0  0  0  0  0  0  0  0  0
   38.1670   30.6620   39.9840 C   0  0  0  0  0  0  0  0  0  0  0  0
   38.1560   31.6990   40.8140 N   0  0  0  0  0  0  0  0  0  0  0  0
   39.3510   33.0850   41.9100 H   0  0  0  0  0  0  0  0  0  0  0  0
   41.4440   30.1390   39.5330 H   0  0  0  0  0  0  0  0  0  0  0  0
   36.9170   30.0630   39.5190 C   0  0  0  0  0  0  0  0  0  0  0  0
   35.9530   29.7990   40.4890 C   0  0  0  0  0  0  0  0  0  0  0  0
   35.8850   29.9290   41.5590 H   0  0  0  0  0  0  0  0  0  0  0  0
   34.8800   29.2400   39.7870 C   0  0  0  0  0  0  0  0  0  0  0  0
   33.9170   28.8850   40.1380 H   0  0  0  0  0  0  0  0  0  0  0  0
   35.2590   29.2030   38.4440 C   0  0  0  0  0  0  0  0  0  0  0  0
   34.7190   28.8420   37.5570 H   0  0  0  0  0  0  0  0  0  0  0  0
   36.4770   29.7040   38.3460 O   0  0  0  0  0  0  0  0  0  0  0  0
   43.0620   32.8520   39.8690 C   0  0  0  0  0  0  0  0  0  0  0  0
   43.9840   33.3560   40.2380 H   0  0  0  0  0  0  0  0  0  0  0  0
   43.2830   31.9450   39.2470 H   0  0  0  0  0  0  0  0  0  0  0  0
   42.2140   33.7200   39.0720 N   0  0  0  0  0  0  0  0  0  0  0  0
   41.2370   33.7540   39.4320 H   0  0  0  0  0  0  0  0  0  0  0  0
   42.1340   33.2460   37.4260 S   0  0  0  0  0  0  0  0  0  0  0  0
   40.7410   32.9170   37.0080 O   0  0  0  0  0  0  0  0  0  0  0  0
   40.1490   32.2450   37.4640 H   0  0  0  0  0  0  0  0  0  0  0  0
   42.6500   34.4250   36.6300 O   0  0  0  0  0  0  0  0  0  0  0  0
   42.0370   34.9200   36.0110 H   0  0  0  0  0  0  0  0  0  0  0  0
   43.1740   31.9760   37.1500 O   0  0  0  0  0  0  0  0  0  0  0  0
   42.5090   30.8500   36.6750 C   0  0  0  0  0  0  0  0  0  0  0  0
   43.1620   30.1980   36.0650 H   0  0  0  0  0  0  0  0  0  0  0  0
   41.9780   30.2910   37.4630 H   0  0  0  0  0  0  0  0  0  0  0  0
   41.7200   31.2240   35.9850 H   0  0  0  0  0  0  0  0  0  0  0  0
  2  8  1  0  0  0  0
  3  2  2  0  0  0  0
  3  1  1  0  0  0  0
  4  3  1  0  0  0  0
  5  4  2  0  0  0  0
  5  6  1  0  0  0  0
  6  7  2  0  0  0  0
  7  2  1  0  0  0  0
  9  4  1  0  0  0  0
 10  6  1  0  0  0  0
 10 11  2  0  0  0  0
 11 12  1  0  0  0  0
 13 14  1  0  0  0  0
 13 11  1  0  0  0  0
 15 13  2  0  0  0  0
 16 15  1  0  0  0  0
 17 15  1  0  0  0  0
 17 10  1  0  0  0  0
 18 19  1  0  0  0  0
 18  1  1  0  0  0  0
 20 18  1  0  0  0  0
 21 22  1  0  0  0  0
 21 18  1  0  0  0  0
 23 21  1  0  0  0  0
 24 23  1  0  0  0  0
 24 25  1  0  0  0  0
 26 23  1  0  0  0  0
 27 26  1  0  0  0  0
 28 23  1  0  0  0  0
 29 28  1  0  0  0  0
 29 31  1  0  0  0  0
 30 29  1  0  0  0  0
 32 29  1  0  0  0  0
M  END
>  <minimizedAffinity>
-4.58905792

$$$$

 OpenBabel03252503033D

 32 33  0  0  0  0  0  0  0  0999 V2000
   37.2060   24.9150   42.1160 S   0  0  0  0  0  0  0  0  0  0  0  0
   37.0250   27.6030   42.7300 C   0  0  0  0  0  0  0  0  0  0  0  0
   37.4000   26.6790   41.7790 C   0  0  0  0  0  0  0  0  0  0  0  0
   37.9330   27.0820   40.5480 C   0  0  0  0  0  0  0  0  0  0  0  0
   38.0550   28.4180   40.3550 N   0  0  0  0  0  0  0  0  0  0  0  0
   37.6840   29.2940   41.2940 C   0  0  0  0  0  0  0  0  0  0  0  0
   37.1770   28.9260   42.4650 N   0  0  0  0  0  0  0  0  0  0  0  0
   36.6070   27.2800   43.6950 H   0  0  0  0  0  0  0  0  0  0  0  0
   38.2300   26.3490   39.7950 H   0  0  0  0  0  0  0  0  0  0  0  0
   37.8640   30.7070   40.9660 C   0  0  0  0  0  0  0  0  0  0  0  0
   36.8760   31.2950   40.1800 C   0  0  0  0  0  0  0  0  0  0  0  0
   35.9580   30.9600   39.7220 H   0  0  0  0  0  0  0  0  0  0  0  0
   37.2880   32.6230   40.0210 C   0  0  0  0  0  0  0  0  0  0  0  0
   36.8240   33.4450   39.4830 H   0  0  0  0  0  0  0  0  0  0  0  0
   38.4900   32.7540   40.7170 C   0  0  0  0  0  0  0  0  0  0  0  0
   39.1500   33.6240   40.8510 H   0  0  0  0  0  0  0  0  0  0  0  0
   38.7820   31.5850   41.2570 O   0  0  0  0  0  0  0  0  0  0  0  0
   38.7120   24.0430   41.6760 C   0  0  0  0  0  0  0  0  0  0  0  0
   38.4240   23.0260   41.3250 H   0  0  0  0  0  0  0  0  0  0  0  0
   39.2610   24.6310   40.8950 H   0  0  0  0  0  0  0  0  0  0  0  0
   39.5470   24.0250   42.8630 N   0  0  0  0  0  0  0  0  0  0  0  0
   39.0000   24.2010   43.7310 H   0  0  0  0  0  0  0  0  0  0  0  0
   40.8060   25.1870   42.8090 S   0  0  0  0  0  0  0  0  0  0  0  0
   42.1240   24.5990   43.1860 O   0  0  0  0  0  0  0  0  0  0  0  0
   42.3090   24.1080   44.0440 H   0  0  0  0  0  0  0  0  0  0  0  0
   40.8510   25.6850   41.3810 O   0  0  0  0  0  0  0  0  0  0  0  0
   41.6540   25.5030   40.8100 H   0  0  0  0  0  0  0  0  0  0  0  0
   40.4190   26.4910   43.7690 O   0  0  0  0  0  0  0  0  0  0  0  0
   40.7170   27.7010   43.1520 C   0  0  0  0  0  0  0  0  0  0  0  0
   40.0810   28.5300   43.5160 H   0  0  0  0  0  0  0  0  0  0  0  0
   41.7890   27.9540   43.1790 H   0  0  0  0  0  0  0  0  0  0  0  0
   40.4630   27.5710   42.0760 H   0  0  0  0  0  0  0  0  0  0  0  0
  2  8  1  0  0  0  0
  3  1  1  0  0  0  0
  3  2  2  0  0  0  0
  4  3  1  0  0  0  0
  5  4  2  0  0  0  0
  5  6  1  0  0  0  0
  6  7  2  0  0  0  0
  7  2  1  0  0  0  0
  9  4  1  0  0  0  0
 10 17  1  0  0  0  0
 10  6  1  0  0  0  0
 11 10  2  0  0  0  0
 12 11  1  0  0  0  0
 13 11  1  0  0  0  0
 13 15  2  0  0  0  0
 14 13  1  0  0  0  0
 15 16  1  0  0  0  0
 15 17  1  0  0  0  0
 18  1  1  0  0  0  0
 18 21  1  0  0  0  0
 19 18  1  0  0  0  0
 20 18  1  0  0  0  0
 21 22  1  0  0  0  0
 23 21  1  0  0  0  0
 23 24  1  0  0  0  0
 23 28  1  0  0  0  0
 24 25  1  0  0  0  0
 26 23  1  0  0  0  0
 27 26  1  0  0  0  0
 29 31  1  0  0  0  0
 29 30  1  0  0  0  0
 29 28  1  0  0  0  0
 32 29  1  0  0  0  0
M  END
>  <minimizedAffinity>
-4.57968998

$$$$

 OpenBabel03252503033D

 32 33  0  0  0  0  0  0  0  0999 V2000
   38.1390   31.2120   37.5310 S   0  0  0  0  0  0  0  0  0  0  0  0
   36.4490   29.3370   38.6530 C   0  0  0  0  0  0  0  0  0  0  0  0
   37.7580   29.6560   38.3650 C   0  0  0  0  0  0  0  0  0  0  0  0
   38.8070   28.7930   38.7090 C   0  0  0  0  0  0  0  0  0  0  0  0
   38.4570   27.6420   39.3320 N   0  0  0  0  0  0  0  0  0  0  0  0
   37.1800   27.3550   39.6000 C   0  0  0  0  0  0  0  0  0  0  0  0
   36.1750   28.1630   39.2810 N   0  0  0  0  0  0  0  0  0  0  0  0
   35.6300   30.0190   38.3810 H   0  0  0  0  0  0  0  0  0  0  0  0
   39.8440   29.0470   38.4800 H   0  0  0  0  0  0  0  0  0  0  0  0
   36.9310   26.0830   40.2760 C   0  0  0  0  0  0  0  0  0  0  0  0
   37.2430   26.0270   41.6320 C   0  0  0  0  0  0  0  0  0  0  0  0
   37.6460   26.7190   42.3570 H   0  0  0  0  0  0  0  0  0  0  0  0
   36.9150   24.7240   42.0230 C   0  0  0  0  0  0  0  0  0  0  0  0
   36.9930   24.2380   42.9900 H   0  0  0  0  0  0  0  0  0  0  0  0
   36.4270   24.0790   40.8860 C   0  0  0  0  0  0  0  0  0  0  0  0
   36.0590   23.0510   40.7470 H   0  0  0  0  0  0  0  0  0  0  0  0
   36.4600   24.9340   39.8800 O   0  0  0  0  0  0  0  0  0  0  0  0
   39.5410   32.0010   38.3290 C   0  0  0  0  0  0  0  0  0  0  0  0
   39.9760   31.2710   39.0490 H   0  0  0  0  0  0  0  0  0  0  0  0
   40.2740   32.3260   37.5450 H   0  0  0  0  0  0  0  0  0  0  0  0
   39.0360   33.2040   38.9670 N   0  0  0  0  0  0  0  0  0  0  0  0
   39.7650   33.9440   39.0430 H   0  0  0  0  0  0  0  0  0  0  0  0
   38.4350   32.9170   40.5470 S   0  0  0  0  0  0  0  0  0  0  0  0
   38.8460   33.9860   41.5020 O   0  0  0  0  0  0  0  0  0  0  0  0
   39.7960   34.2700   41.6720 H   0  0  0  0  0  0  0  0  0  0  0  0
   36.9280   32.8890   40.4190 O   0  0  0  0  0  0  0  0  0  0  0  0
   36.3720   33.5940   40.8620 H   0  0  0  0  0  0  0  0  0  0  0  0
   38.9100   31.4100   41.0710 O   0  0  0  0  0  0  0  0  0  0  0  0
   39.9430   31.4820   42.0010 C   0  0  0  0  0  0  0  0  0  0  0  0
   39.9580   30.6120   42.6850 H   0  0  0  0  0  0  0  0  0  0  0  0
   40.9280   31.6740   41.5460 H   0  0  0  0  0  0  0  0  0  0  0  0
   39.7250   32.3680   42.6390 H   0  0  0  0  0  0  0  0  0  0  0  0
  1 18  1  0  0  0  0
  1  3  1  0  0  0  0
  2  7  1  0  0  0  0
  3  2  2  0  0  0  0
  3  4  1  0  0  0  0
  4  5  2  0  0  0  0
  5  6  1  0  0  0  0
  6 10  1  0  0  0  0
  7  6  2  0  0  0  0
  8  2  1  0  0  0  0
  9  4  1  0  0  0  0
 10 11  2  0  0  0  0
 11 13  1  0  0  0  0
 11 12  1  0  0  0  0
 13 14  1  0  0  0  0
 15 13  2  0  0  0  0
 16 15  1  0  0  0  0
 17 10  1  0  0  0  0
 17 15  1  0  0  0  0
 18 21  1  0  0  0  0
 18 19  1  0  0  0  0
 20 18  1  0  0  0  0
 21 22  1  0  0  0  0
 21 23  1  0  0  0  0
 23 28  1  0  0  0  0
 23 24  1  0  0  0  0
 24 25  1  0  0  0  0
 26 23  1  0  0  0  0
 26 27  1  0  0  0  0
 28 29  1  0  0  0  0
 29 32  1  0  0  0  0
 29 30  1  0  0  0  0
 31 29  1  0  0  0  0
M  END
>  <minimizedAffinity>
-4.57089329

$$$$
