
 OpenBabel03252501183D

 20 21  0  0  0  0  0  0  0  0999 V2000
   45.0670   33.8450   46.1570 C   0  0  0  0  0  0  0  0  0  0  0  0
   45.6750   33.7900   44.8770 C   0  0  0  0  0  0  0  0  0  0  0  0
   46.8090   32.9870   44.8010 C   0  0  0  0  0  0  0  0  0  0  0  0
   47.2400   32.3320   45.9270 N   0  0  0  0  0  0  0  0  0  0  0  0
   46.6150   32.4280   47.1160 C   0  0  0  0  0  0  0  0  0  0  0  0
   45.5210   33.1920   47.2210 N   0  0  0  0  0  0  0  0  0  0  0  0
   44.1790   34.4380   46.3340 H   0  0  0  0  0  0  0  0  0  0  0  0
   47.1470   31.8210   47.8370 H   0  0  0  0  0  0  0  0  0  0  0  0
   45.0810   34.5620   43.7920 C   0  0  0  0  0  0  0  0  0  0  0  0
   45.2500   35.9150   43.6280 C   0  0  0  0  0  0  0  0  0  0  0  0
   45.8260   36.6210   44.2450 H   0  0  0  0  0  0  0  0  0  0  0  0
   44.5570   36.3240   42.5110 C   0  0  0  0  0  0  0  0  0  0  0  0
   44.5090   37.3440   42.1350 H   0  0  0  0  0  0  0  0  0  0  0  0
   43.9810   35.1890   42.0220 C   0  0  0  0  0  0  0  0  0  0  0  0
   43.3590   35.1710   41.1340 H   0  0  0  0  0  0  0  0  0  0  0  0
   44.3140   34.2150   42.7920 O   0  0  0  0  0  0  0  0  0  0  0  0
   47.4560   32.9170   43.4940 C   0  0  0  0  0  0  0  0  0  0  0  0
   48.5400   32.0510   43.5460 F   0  0  0  0  0  0  0  0  0  0  0  0
   48.0270   34.1730   43.2770 F   0  0  0  0  0  0  0  0  0  0  0  0
   46.6340   32.5100   42.5010 F   0  0  0  0  0  0  0  0  0  0  0  0
  1  7  1  0  0  0  0
  1  6  1  0  0  0  0
  2  1  2  0  0  0  0
  3  2  1  0  0  0  0
  3  4  2  0  0  0  0
  4  5  1  0  0  0  0
  5  6  2  0  0  0  0
  5  8  1  0  0  0  0
  9  2  1  0  0  0  0
 10  9  2  0  0  0  0
 10 11  1  0  0  0  0
 12 10  1  0  0  0  0
 13 12  1  0  0  0  0
 14 12  2  0  0  0  0
 14 16  1  0  0  0  0
 15 14  1  0  0  0  0
 16  9  1  0  0  0  0
 17 18  1  0  0  0  0
 17  3  1  0  0  0  0
 19 17  1  0  0  0  0
 20 17  1  0  0  0  0
M  END
>  <minimizedAffinity>
-3.5757699

>  <minimizedRMSD>
2.74564457

$$$$
