
 OpenBabel03242511263D

 27 29  0  0  0  0  0  0  0  0999 V2000
   37.9170   28.2900   39.3450 Cl  0  0  0  0  0  0  0  0  0  0  0  0
   37.5810   28.0340   41.0370 C   0  0  0  0  0  0  0  0  0  0  0  0
   37.6740   29.0660   41.9130 C   0  0  0  0  0  0  0  0  0  0  0  0
   37.4090   28.8820   43.2820 C   0  0  0  0  0  0  0  0  0  0  0  0
   37.0540   27.6080   43.6700 C   0  0  0  0  0  0  0  0  0  0  0  0
   36.9650   26.5740   42.7680 C   0  0  0  0  0  0  0  0  0  0  0  0
   37.2260   26.7710   41.4440 C   0  0  0  0  0  0  0  0  0  0  0  0
   37.4820   29.6980   43.9830 H   0  0  0  0  0  0  0  0  0  0  0  0
   36.8330   27.3880   44.7160 H   0  0  0  0  0  0  0  0  0  0  0  0
   36.6830   25.5870   43.1160 H   0  0  0  0  0  0  0  0  0  0  0  0
   39.6850   32.0570   41.1910 C   0  0  0  0  0  0  0  0  0  0  0  0
   38.7490   32.9090   40.5560 C   0  0  0  0  0  0  0  0  0  0  0  0
   37.4560   32.4390   40.3910 C   0  0  0  0  0  0  0  0  0  0  0  0
   37.1580   31.1970   40.8440 N   0  0  0  0  0  0  0  0  0  0  0  0
   38.0540   30.3980   41.4440 C   0  0  0  0  0  0  0  0  0  0  0  0
   39.3320   30.8300   41.6230 N   0  0  0  0  0  0  0  0  0  0  0  0
   40.7270   32.2730   41.3940 H   0  0  0  0  0  0  0  0  0  0  0  0
   39.1410   33.8600   40.2560 H   0  0  0  0  0  0  0  0  0  0  0  0
   36.7640   33.0980   39.9090 H   0  0  0  0  0  0  0  0  0  0  0  0
   37.1370   25.6880   40.4690 C   0  0  0  0  0  0  0  0  0  0  0  0
   38.0390   24.6570   40.3000 C   0  0  0  0  0  0  0  0  0  0  0  0
   38.9410   24.4680   40.8370 H   0  0  0  0  0  0  0  0  0  0  0  0
   37.5340   23.8810   39.2610 C   0  0  0  0  0  0  0  0  0  0  0  0
   38.0360   22.9890   38.9000 H   0  0  0  0  0  0  0  0  0  0  0  0
   36.3550   24.4850   38.8590 C   0  0  0  0  0  0  0  0  0  0  0  0
   35.7220   24.1000   38.0470 H   0  0  0  0  0  0  0  0  0  0  0  0
   36.1690   25.5350   39.5940 O   0  0  0  0  0  0  0  0  0  0  0  0
  1  2  1  0  0  0  0
  2  7  2  0  0  0  0
  2  3  1  0  0  0  0
  3  4  2  0  0  0  0
  4  5  1  0  0  0  0
  4  8  1  0  0  0  0
  5  9  1  0  0  0  0
  6 10  1  0  0  0  0
  6  5  2  0  0  0  0
  7  6  1  0  0  0  0
 11 17  1  0  0  0  0
 11 16  1  0  0  0  0
 12 11  2  0  0  0  0
 13 12  1  0  0  0  0
 13 14  2  0  0  0  0
 14 15  1  0  0  0  0
 15 16  2  0  0  0  0
 15  3  1  0  0  0  0
 18 12  1  0  0  0  0
 19 13  1  0  0  0  0
 20  7  1  0  0  0  0
 21 20  2  0  0  0  0
 21 22  1  0  0  0  0
 23 21  1  0  0  0  0
 24 23  1  0  0  0  0
 25 23  2  0  0  0  0
 25 27  1  0  0  0  0
 26 25  1  0  0  0  0
 27 20  1  0  0  0  0
M  END
>  <minimizedAffinity>
-4.77056408

$$$$

 OpenBabel03242511263D

 27 29  0  0  0  0  0  0  0  0999 V2000
   38.0390   27.3830   39.3310 Cl  0  0  0  0  0  0  0  0  0  0  0  0
   37.7950   27.7030   41.0280 C   0  0  0  0  0  0  0  0  0  0  0  0
   37.7330   28.9820   41.4770 C   0  0  0  0  0  0  0  0  0  0  0  0
   37.5380   29.2630   42.8410 C   0  0  0  0  0  0  0  0  0  0  0  0
   37.4160   28.1750   43.6780 C   0  0  0  0  0  0  0  0  0  0  0  0
   37.4810   26.8860   43.2050 C   0  0  0  0  0  0  0  0  0  0  0  0
   37.6710   26.6310   41.8790 C   0  0  0  0  0  0  0  0  0  0  0  0
   37.4880   30.2770   43.2040 H   0  0  0  0  0  0  0  0  0  0  0  0
   37.2620   28.3140   44.7500 H   0  0  0  0  0  0  0  0  0  0  0  0
   37.3800   26.0590   43.8980 H   0  0  0  0  0  0  0  0  0  0  0  0
   36.8750   31.6740   39.1260 C   0  0  0  0  0  0  0  0  0  0  0  0
   38.1440   32.1970   38.7830 C   0  0  0  0  0  0  0  0  0  0  0  0
   39.2610   31.6160   39.3640 C   0  0  0  0  0  0  0  0  0  0  0  0
   39.0780   30.5850   40.2240 N   0  0  0  0  0  0  0  0  0  0  0  0
   37.8680   30.0980   40.5420 C   0  0  0  0  0  0  0  0  0  0  0  0
   36.7520   30.6450   39.9890 N   0  0  0  0  0  0  0  0  0  0  0  0
   35.9120   32.0130   38.7630 H   0  0  0  0  0  0  0  0  0  0  0  0
   38.1200   33.0120   38.0890 H   0  0  0  0  0  0  0  0  0  0  0  0
   40.2110   32.0260   39.0910 H   0  0  0  0  0  0  0  0  0  0  0  0
   37.7430   25.2710   41.3540 C   0  0  0  0  0  0  0  0  0  0  0  0
   36.6770   24.4620   41.0170 C   0  0  0  0  0  0  0  0  0  0  0  0
   35.6340   24.6770   41.0760 H   0  0  0  0  0  0  0  0  0  0  0  0
   37.2360   23.2690   40.5680 C   0  0  0  0  0  0  0  0  0  0  0  0
   36.6340   22.4310   40.2310 H   0  0  0  0  0  0  0  0  0  0  0  0
   38.6090   23.4220   40.6590 C   0  0  0  0  0  0  0  0  0  0  0  0
   39.3280   22.6410   40.3730 H   0  0  0  0  0  0  0  0  0  0  0  0
   38.8520   24.6070   41.1220 O   0  0  0  0  0  0  0  0  0  0  0  0
  1  2  1  0  0  0  0
  2  3  2  0  0  0  0
  2  7  1  0  0  0  0
  3  4  1  0  0  0  0
  4  8  1  0  0  0  0
  4  5  2  0  0  0  0
  5  9  1  0  0  0  0
  6  5  1  0  0  0  0
  6 10  1  0  0  0  0
  7  6  2  0  0  0  0
 11 16  1  0  0  0  0
 12 11  2  0  0  0  0
 12 13  1  0  0  0  0
 13 14  2  0  0  0  0
 14 15  1  0  0  0  0
 15  3  1  0  0  0  0
 16 15  2  0  0  0  0
 17 11  1  0  0  0  0
 18 12  1  0  0  0  0
 19 13  1  0  0  0  0
 20  7  1  0  0  0  0
 21 22  1  0  0  0  0
 21 20  2  0  0  0  0
 23 25  2  0  0  0  0
 23 21  1  0  0  0  0
 24 23  1  0  0  0  0
 25 27  1  0  0  0  0
 26 25  1  0  0  0  0
 27 20  1  0  0  0  0
M  END
>  <minimizedAffinity>
-4.74378109

$$$$

 OpenBabel03242511263D

 27 29  0  0  0  0  0  0  0  0999 V2000
   37.4140   30.9400   36.9560 Cl  0  0  0  0  0  0  0  0  0  0  0  0
   36.4850   30.2810   38.2770 C   0  0  0  0  0  0  0  0  0  0  0  0
   36.6540   30.7630   39.5350 C   0  0  0  0  0  0  0  0  0  0  0  0
   35.9170   30.2450   40.6150 C   0  0  0  0  0  0  0  0  0  0  0  0
   35.0270   29.2350   40.3200 C   0  0  0  0  0  0  0  0  0  0  0  0
   34.8700   28.7600   39.0390 C   0  0  0  0  0  0  0  0  0  0  0  0
   35.5930   29.2730   38.0030 C   0  0  0  0  0  0  0  0  0  0  0  0
   36.0470   30.6240   41.6160 H   0  0  0  0  0  0  0  0  0  0  0  0
   34.4190   28.7840   41.1060 H   0  0  0  0  0  0  0  0  0  0  0  0
   34.1580   27.9640   38.8510 H   0  0  0  0  0  0  0  0  0  0  0  0
   39.7840   32.5130   40.3400 C   0  0  0  0  0  0  0  0  0  0  0  0
   39.4020   33.8740   40.2650 C   0  0  0  0  0  0  0  0  0  0  0  0
   38.0850   34.1580   39.9410 C   0  0  0  0  0  0  0  0  0  0  0  0
   37.2390   33.1240   39.7150 N   0  0  0  0  0  0  0  0  0  0  0  0
   37.6130   31.8370   39.7890 C   0  0  0  0  0  0  0  0  0  0  0  0
   38.8990   31.5240   40.1050 N   0  0  0  0  0  0  0  0  0  0  0  0
   40.7670   32.1260   40.5790 H   0  0  0  0  0  0  0  0  0  0  0  0
   40.1880   34.5720   40.4720 H   0  0  0  0  0  0  0  0  0  0  0  0
   37.8160   35.1930   39.8900 H   0  0  0  0  0  0  0  0  0  0  0  0
   35.4410   28.7840   36.6360 C   0  0  0  0  0  0  0  0  0  0  0  0
   34.4140   29.0830   35.7650 C   0  0  0  0  0  0  0  0  0  0  0  0
   33.5650   29.7100   35.9270 H   0  0  0  0  0  0  0  0  0  0  0  0
   34.6990   28.3910   34.5920 C   0  0  0  0  0  0  0  0  0  0  0  0
   34.0600   28.4330   33.7170 H   0  0  0  0  0  0  0  0  0  0  0  0
   35.8840   27.7110   34.8190 C   0  0  0  0  0  0  0  0  0  0  0  0
   36.3700   27.0700   34.0700 H   0  0  0  0  0  0  0  0  0  0  0  0
   36.2750   27.9740   36.0250 O   0  0  0  0  0  0  0  0  0  0  0  0
  1  2  1  0  0  0  0
  2  3  1  0  0  0  0
  3 15  1  0  0  0  0
  3  4  2  0  0  0  0
  4  8  1  0  0  0  0
  5  4  1  0  0  0  0
  5  9  1  0  0  0  0
  6  5  2  0  0  0  0
  7  2  2  0  0  0  0
  7  6  1  0  0  0  0
 10  6  1  0  0  0  0
 11 17  1  0  0  0  0
 12 11  1  0  0  0  0
 12 18  1  0  0  0  0
 13 12  2  0  0  0  0
 14 15  2  0  0  0  0
 14 13  1  0  0  0  0
 15 16  1  0  0  0  0
 16 11  2  0  0  0  0
 19 13  1  0  0  0  0
 20  7  1  0  0  0  0
 21 22  1  0  0  0  0
 21 20  2  0  0  0  0
 23 25  2  0  0  0  0
 23 21  1  0  0  0  0
 24 23  1  0  0  0  0
 25 27  1  0  0  0  0
 26 25  1  0  0  0  0
 27 20  1  0  0  0  0
M  END
>  <minimizedAffinity>
-4.70695925

$$$$

 OpenBabel03242511263D

 27 29  0  0  0  0  0  0  0  0999 V2000
   36.5630   27.4550   39.4180 Cl  0  0  0  0  0  0  0  0  0  0  0  0
   36.7790   29.1760   39.5970 C   0  0  0  0  0  0  0  0  0  0  0  0
   36.6580   29.9930   38.5200 C   0  0  0  0  0  0  0  0  0  0  0  0
   36.8290   31.3830   38.6400 C   0  0  0  0  0  0  0  0  0  0  0  0
   37.1230   31.8560   39.9010 C   0  0  0  0  0  0  0  0  0  0  0  0
   37.2420   31.0130   40.9810 C   0  0  0  0  0  0  0  0  0  0  0  0
   37.0730   29.6670   40.8460 C   0  0  0  0  0  0  0  0  0  0  0  0
   36.7340   32.0370   37.7880 H   0  0  0  0  0  0  0  0  0  0  0  0
   37.2700   32.9240   40.0730 H   0  0  0  0  0  0  0  0  0  0  0  0
   37.4750   31.4270   41.9550 H   0  0  0  0  0  0  0  0  0  0  0  0
   34.7500   28.7360   35.6400 C   0  0  0  0  0  0  0  0  0  0  0  0
   35.7720   28.3820   34.7260 C   0  0  0  0  0  0  0  0  0  0  0  0
   37.0860   28.5820   35.1190 C   0  0  0  0  0  0  0  0  0  0  0  0
   37.3210   29.1030   36.3480 N   0  0  0  0  0  0  0  0  0  0  0  0
   36.3430   29.4350   37.2050 C   0  0  0  0  0  0  0  0  0  0  0  0
   35.0420   29.2500   36.8510 N   0  0  0  0  0  0  0  0  0  0  0  0
   33.6810   28.6430   35.4880 H   0  0  0  0  0  0  0  0  0  0  0  0
   35.4220   27.9830   33.7960 H   0  0  0  0  0  0  0  0  0  0  0  0
   37.8430   28.3080   34.4140 H   0  0  0  0  0  0  0  0  0  0  0  0
   37.1950   28.7540   41.9780 C   0  0  0  0  0  0  0  0  0  0  0  0
   38.3460   28.4680   42.6840 C   0  0  0  0  0  0  0  0  0  0  0  0
   39.3300   28.8520   42.5350 H   0  0  0  0  0  0  0  0  0  0  0  0
   37.9710   27.5530   43.6630 C   0  0  0  0  0  0  0  0  0  0  0  0
   38.6740   27.1410   44.3790 H   0  0  0  0  0  0  0  0  0  0  0  0
   36.6140   27.3350   43.4950 C   0  0  0  0  0  0  0  0  0  0  0  0
   36.0250   26.6540   44.1250 H   0  0  0  0  0  0  0  0  0  0  0  0
   36.2100   28.0600   42.5000 O   0  0  0  0  0  0  0  0  0  0  0  0
  1  2  1  0  0  0  0
  2  7  1  0  0  0  0
  3  4  1  0  0  0  0
  3  2  2  0  0  0  0
  4  5  2  0  0  0  0
  5  9  1  0  0  0  0
  5  6  1  0  0  0  0
  6 10  1  0  0  0  0
  7  6  2  0  0  0  0
  7 20  1  0  0  0  0
  8  4  1  0  0  0  0
 11 16  1  0  0  0  0
 12 13  1  0  0  0  0
 12 11  2  0  0  0  0
 13 14  2  0  0  0  0
 14 15  1  0  0  0  0
 15  3  1  0  0  0  0
 16 15  2  0  0  0  0
 17 11  1  0  0  0  0
 18 12  1  0  0  0  0
 19 13  1  0  0  0  0
 20 27  1  0  0  0  0
 20 21  2  0  0  0  0
 21 23  1  0  0  0  0
 22 21  1  0  0  0  0
 23 24  1  0  0  0  0
 25 23  2  0  0  0  0
 25 26  1  0  0  0  0
 27 25  1  0  0  0  0
M  END
>  <minimizedAffinity>
-4.70159483

$$$$

 OpenBabel03242511263D

 27 29  0  0  0  0  0  0  0  0999 V2000
   40.0480   29.3440   40.6900 Cl  0  0  0  0  0  0  0  0  0  0  0  0
   38.8440   30.5560   40.3400 C   0  0  0  0  0  0  0  0  0  0  0  0
   39.1280   31.5710   39.4850 C   0  0  0  0  0  0  0  0  0  0  0  0
   38.1720   32.5590   39.1890 C   0  0  0  0  0  0  0  0  0  0  0  0
   36.9490   32.4330   39.8110 C   0  0  0  0  0  0  0  0  0  0  0  0
   36.6790   31.3980   40.6750 C   0  0  0  0  0  0  0  0  0  0  0  0
   37.6180   30.4480   40.9510 C   0  0  0  0  0  0  0  0  0  0  0  0
   38.3930   33.3680   38.5100 H   0  0  0  0  0  0  0  0  0  0  0  0
   36.1570   33.1620   39.6310 H   0  0  0  0  0  0  0  0  0  0  0  0
   35.7040   31.3370   41.1440 H   0  0  0  0  0  0  0  0  0  0  0  0
   42.6450   32.4450   38.8730 C   0  0  0  0  0  0  0  0  0  0  0  0
   42.9120   31.7970   37.6430 C   0  0  0  0  0  0  0  0  0  0  0  0
   41.8830   31.0790   37.0540 C   0  0  0  0  0  0  0  0  0  0  0  0
   40.6840   31.0360   37.6840 N   0  0  0  0  0  0  0  0  0  0  0  0
   40.4430   31.6530   38.8510 C   0  0  0  0  0  0  0  0  0  0  0  0
   41.4320   32.3670   39.4550 N   0  0  0  0  0  0  0  0  0  0  0  0
   43.3360   33.0400   39.4580 H   0  0  0  0  0  0  0  0  0  0  0  0
   43.9100   31.9290   37.2750 H   0  0  0  0  0  0  0  0  0  0  0  0
   42.1050   30.5990   36.1240 H   0  0  0  0  0  0  0  0  0  0  0  0
   37.3530   29.3400   41.8640 C   0  0  0  0  0  0  0  0  0  0  0  0
   36.6510   28.1880   41.5760 C   0  0  0  0  0  0  0  0  0  0  0  0
   36.1860   27.9020   40.6590 H   0  0  0  0  0  0  0  0  0  0  0  0
   36.6610   27.4370   42.7480 C   0  0  0  0  0  0  0  0  0  0  0  0
   36.1810   26.4670   42.8260 H   0  0  0  0  0  0  0  0  0  0  0  0
   37.3690   28.1770   43.6800 C   0  0  0  0  0  0  0  0  0  0  0  0
   37.5490   27.8430   44.7110 H   0  0  0  0  0  0  0  0  0  0  0  0
   37.7500   29.2780   43.1140 O   0  0  0  0  0  0  0  0  0  0  0  0
  2  1  1  0  0  0  0
  2  7  1  0  0  0  0
  3  2  2  0  0  0  0
  4  3  1  0  0  0  0
  4  5  2  0  0  0  0
  5  6  1  0  0  0  0
  6  7  2  0  0  0  0
  6 10  1  0  0  0  0
  7 20  1  0  0  0  0
  8  4  1  0  0  0  0
  9  5  1  0  0  0  0
 11 16  1  0  0  0  0
 11 17  1  0  0  0  0
 12 11  2  0  0  0  0
 13 12  1  0  0  0  0
 13 14  2  0  0  0  0
 14 15  1  0  0  0  0
 15 16  2  0  0  0  0
 15  3  1  0  0  0  0
 18 12  1  0  0  0  0
 19 13  1  0  0  0  0
 20 27  1  0  0  0  0
 21 20  2  0  0  0  0
 21 23  1  0  0  0  0
 22 21  1  0  0  0  0
 23 24  1  0  0  0  0
 23 25  2  0  0  0  0
 25 26  1  0  0  0  0
 27 25  1  0  0  0  0
M  END
>  <minimizedAffinity>
-4.68244457

$$$$

 OpenBabel03242511263D

 27 29  0  0  0  0  0  0  0  0999 V2000
   39.0300   29.9730   41.6420 Cl  0  0  0  0  0  0  0  0  0  0  0  0
   37.8430   29.8870   40.3680 C   0  0  0  0  0  0  0  0  0  0  0  0
   37.7650   30.8770   39.4420 C   0  0  0  0  0  0  0  0  0  0  0  0
   36.8140   30.8280   38.4060 C   0  0  0  0  0  0  0  0  0  0  0  0
   35.9830   29.7290   38.3910 C   0  0  0  0  0  0  0  0  0  0  0  0
   36.0770   28.7360   39.3370 C   0  0  0  0  0  0  0  0  0  0  0  0
   37.0040   28.7990   40.3340 C   0  0  0  0  0  0  0  0  0  0  0  0
   36.7470   31.6120   37.6690 H   0  0  0  0  0  0  0  0  0  0  0  0
   35.2200   29.6220   37.6170 H   0  0  0  0  0  0  0  0  0  0  0  0
   35.4020   27.8890   39.2880 H   0  0  0  0  0  0  0  0  0  0  0  0
   39.1670   34.1610   40.3110 C   0  0  0  0  0  0  0  0  0  0  0  0
   40.4010   34.1610   39.6170 C   0  0  0  0  0  0  0  0  0  0  0  0
   40.7210   33.0380   38.8700 C   0  0  0  0  0  0  0  0  0  0  0  0
   39.8410   32.0080   38.8440 N   0  0  0  0  0  0  0  0  0  0  0  0
   38.6750   32.0190   39.5080 C   0  0  0  0  0  0  0  0  0  0  0  0
   38.3300   33.1070   40.2500 N   0  0  0  0  0  0  0  0  0  0  0  0
   38.7720   34.9540   40.9340 H   0  0  0  0  0  0  0  0  0  0  0  0
   40.9830   35.0520   39.7380 H   0  0  0  0  0  0  0  0  0  0  0  0
   41.6580   33.0580   38.3520 H   0  0  0  0  0  0  0  0  0  0  0  0
   37.1220   27.7560   41.3490 C   0  0  0  0  0  0  0  0  0  0  0  0
   36.5440   27.7580   42.6020 C   0  0  0  0  0  0  0  0  0  0  0  0
   35.9230   28.5020   43.0460 H   0  0  0  0  0  0  0  0  0  0  0  0
   36.9380   26.5650   43.2010 C   0  0  0  0  0  0  0  0  0  0  0  0
   36.6330   26.2860   44.2040 H   0  0  0  0  0  0  0  0  0  0  0  0
   37.7320   25.9070   42.2770 C   0  0  0  0  0  0  0  0  0  0  0  0
   38.1960   24.9280   42.4620 H   0  0  0  0  0  0  0  0  0  0  0  0
   37.8080   26.6440   41.2140 O   0  0  0  0  0  0  0  0  0  0  0  0
  2  1  1  0  0  0  0
  3 15  1  0  0  0  0
  3  2  2  0  0  0  0
  4  3  1  0  0  0  0
  5  4  2  0  0  0  0
  5  6  1  0  0  0  0
  6  7  2  0  0  0  0
  7  2  1  0  0  0  0
  7 20  1  0  0  0  0
  8  4  1  0  0  0  0
  9  5  1  0  0  0  0
 10  6  1  0  0  0  0
 11 17  1  0  0  0  0
 12 18  1  0  0  0  0
 12 11  2  0  0  0  0
 13 12  1  0  0  0  0
 14 13  2  0  0  0  0
 14 15  1  0  0  0  0
 15 16  2  0  0  0  0
 16 11  1  0  0  0  0
 19 13  1  0  0  0  0
 20 21  2  0  0  0  0
 21 22  1  0  0  0  0
 21 23  1  0  0  0  0
 23 24  1  0  0  0  0
 25 26  1  0  0  0  0
 25 23  2  0  0  0  0
 27 20  1  0  0  0  0
 27 25  1  0  0  0  0
M  END
>  <minimizedAffinity>
-4.65177488

$$$$

 OpenBabel03242511263D

 27 29  0  0  0  0  0  0  0  0999 V2000
   38.0130   28.1210   39.3450 Cl  0  0  0  0  0  0  0  0  0  0  0  0
   37.6400   27.9320   41.0370 C   0  0  0  0  0  0  0  0  0  0  0  0
   37.4890   26.6900   41.5660 C   0  0  0  0  0  0  0  0  0  0  0  0
   37.1860   26.5140   42.9280 C   0  0  0  0  0  0  0  0  0  0  0  0
   37.0560   27.6620   43.6790 C   0  0  0  0  0  0  0  0  0  0  0  0
   37.2140   28.9110   43.1260 C   0  0  0  0  0  0  0  0  0  0  0  0
   37.5070   29.0640   41.8030 C   0  0  0  0  0  0  0  0  0  0  0  0
   37.0650   25.5310   43.3530 H   0  0  0  0  0  0  0  0  0  0  0  0
   36.8230   27.6050   44.7440 H   0  0  0  0  0  0  0  0  0  0  0  0
   37.1020   29.7880   43.7540 H   0  0  0  0  0  0  0  0  0  0  0  0
   39.0120   23.8590   39.7840 C   0  0  0  0  0  0  0  0  0  0  0  0
   37.9010   23.2800   39.1240 C   0  0  0  0  0  0  0  0  0  0  0  0
   36.6610   23.8730   39.3040 C   0  0  0  0  0  0  0  0  0  0  0  0
   36.5790   24.9680   40.0990 N   0  0  0  0  0  0  0  0  0  0  0  0
   37.6390   25.5070   40.7210 C   0  0  0  0  0  0  0  0  0  0  0  0
   38.8710   24.9500   40.5630 N   0  0  0  0  0  0  0  0  0  0  0  0
   40.0390   23.5200   39.7470 H   0  0  0  0  0  0  0  0  0  0  0  0
   38.1320   22.4180   38.5310 H   0  0  0  0  0  0  0  0  0  0  0  0
   35.8350   23.4200   38.7960 H   0  0  0  0  0  0  0  0  0  0  0  0
   37.6780   30.3800   41.1960 C   0  0  0  0  0  0  0  0  0  0  0  0
   36.6840   31.1740   40.6610 C   0  0  0  0  0  0  0  0  0  0  0  0
   35.6380   30.9770   40.5950 H   0  0  0  0  0  0  0  0  0  0  0  0
   37.3240   32.3230   40.2050 C   0  0  0  0  0  0  0  0  0  0  0  0
   36.7910   33.1400   39.7290 H   0  0  0  0  0  0  0  0  0  0  0  0
   38.6690   32.1600   40.4900 C   0  0  0  0  0  0  0  0  0  0  0  0
   39.4370   32.9090   40.2470 H   0  0  0  0  0  0  0  0  0  0  0  0
   38.8220   31.0110   41.0670 O   0  0  0  0  0  0  0  0  0  0  0  0
  1  2  1  0  0  0  0
  2  3  2  0  0  0  0
  2  7  1  0  0  0  0
  3  4  1  0  0  0  0
  4  8  1  0  0  0  0
  4  5  2  0  0  0  0
  5  9  1  0  0  0  0
  6  5  1  0  0  0  0
  6 10  1  0  0  0  0
  7  6  2  0  0  0  0
 11 16  1  0  0  0  0
 12 13  1  0  0  0  0
 12 11  2  0  0  0  0
 13 14  2  0  0  0  0
 14 15  1  0  0  0  0
 15  3  1  0  0  0  0
 16 15  2  0  0  0  0
 17 11  1  0  0  0  0
 18 12  1  0  0  0  0
 19 13  1  0  0  0  0
 20  7  1  0  0  0  0
 21 20  2  0  0  0  0
 22 21  1  0  0  0  0
 23 25  2  0  0  0  0
 23 21  1  0  0  0  0
 24 23  1  0  0  0  0
 25 27  1  0  0  0  0
 26 25  1  0  0  0  0
 27 20  1  0  0  0  0
M  END
>  <minimizedAffinity>
-4.64979696

$$$$

 OpenBabel03242511263D

 27 29  0  0  0  0  0  0  0  0999 V2000
   37.5340   31.1600   37.1750 Cl  0  0  0  0  0  0  0  0  0  0  0  0
   36.6100   30.4340   38.4620 C   0  0  0  0  0  0  0  0  0  0  0  0
   35.8020   29.3730   38.2060 C   0  0  0  0  0  0  0  0  0  0  0  0
   35.0470   28.7720   39.2290 C   0  0  0  0  0  0  0  0  0  0  0  0
   35.1760   29.3200   40.4870 C   0  0  0  0  0  0  0  0  0  0  0  0
   36.0000   30.3950   40.7280 C   0  0  0  0  0  0  0  0  0  0  0  0
   36.7250   30.9650   39.7240 C   0  0  0  0  0  0  0  0  0  0  0  0
   34.4040   27.9300   39.0310 H   0  0  0  0  0  0  0  0  0  0  0  0
   34.6220   28.9070   41.3310 H   0  0  0  0  0  0  0  0  0  0  0  0
   36.0720   30.7940   41.7330 H   0  0  0  0  0  0  0  0  0  0  0  0
   36.4790   27.3580   35.2080 C   0  0  0  0  0  0  0  0  0  0  0  0
   35.5060   27.8310   34.2950 C   0  0  0  0  0  0  0  0  0  0  0  0
   34.6450   28.8270   34.7270 C   0  0  0  0  0  0  0  0  0  0  0  0
   34.7790   29.2910   35.9940 N   0  0  0  0  0  0  0  0  0  0  0  0
   35.7050   28.8330   36.8510 C   0  0  0  0  0  0  0  0  0  0  0  0
   36.5670   27.8560   36.4570 N   0  0  0  0  0  0  0  0  0  0  0  0
   37.2200   26.5890   35.0270 H   0  0  0  0  0  0  0  0  0  0  0  0
   35.5310   27.3630   33.3320 H   0  0  0  0  0  0  0  0  0  0  0  0
   33.9170   29.1720   34.0210 H   0  0  0  0  0  0  0  0  0  0  0  0
   37.6050   32.1060   39.9570 C   0  0  0  0  0  0  0  0  0  0  0  0
   38.9200   32.0590   40.3740 C   0  0  0  0  0  0  0  0  0  0  0  0
   39.5170   31.2030   40.5960 H   0  0  0  0  0  0  0  0  0  0  0  0
   39.3380   33.3840   40.4540 C   0  0  0  0  0  0  0  0  0  0  0  0
   40.3410   33.6630   40.7600 H   0  0  0  0  0  0  0  0  0  0  0  0
   38.2530   34.1590   40.0820 C   0  0  0  0  0  0  0  0  0  0  0  0
   38.2750   35.2570   40.0460 H   0  0  0  0  0  0  0  0  0  0  0  0
   37.2690   33.3660   39.8020 O   0  0  0  0  0  0  0  0  0  0  0  0
  1  2  1  0  0  0  0
  2  7  1  0  0  0  0
  3  2  2  0  0  0  0
  3  4  1  0  0  0  0
  4  5  2  0  0  0  0
  5  6  1  0  0  0  0
  5  9  1  0  0  0  0
  6 10  1  0  0  0  0
  7 20  1  0  0  0  0
  7  6  2  0  0  0  0
  8  4  1  0  0  0  0
 11 16  1  0  0  0  0
 12 13  1  0  0  0  0
 12 11  2  0  0  0  0
 13 14  2  0  0  0  0
 14 15  1  0  0  0  0
 15  3  1  0  0  0  0
 16 15  2  0  0  0  0
 17 11  1  0  0  0  0
 18 12  1  0  0  0  0
 19 13  1  0  0  0  0
 20 21  2  0  0  0  0
 21 23  1  0  0  0  0
 21 22  1  0  0  0  0
 23 24  1  0  0  0  0
 25 23  2  0  0  0  0
 26 25  1  0  0  0  0
 27 20  1  0  0  0  0
 27 25  1  0  0  0  0
M  END
>  <minimizedAffinity>
-4.6010499

$$$$

 OpenBabel03242511263D

 27 29  0  0  0  0  0  0  0  0999 V2000
   36.1280   26.1930   38.7310 Cl  0  0  0  0  0  0  0  0  0  0  0  0
   36.2490   27.5940   39.7620 C   0  0  0  0  0  0  0  0  0  0  0  0
   35.6820   28.7680   39.3840 C   0  0  0  0  0  0  0  0  0  0  0  0
   35.7680   29.9110   40.1990 C   0  0  0  0  0  0  0  0  0  0  0  0
   36.4520   29.7660   41.3860 C   0  0  0  0  0  0  0  0  0  0  0  0
   37.0200   28.5680   41.7530 C   0  0  0  0  0  0  0  0  0  0  0  0
   36.9270   27.4700   40.9510 C   0  0  0  0  0  0  0  0  0  0  0  0
   35.3200   30.8470   39.9030 H   0  0  0  0  0  0  0  0  0  0  0  0
   36.5600   30.6080   42.0710 H   0  0  0  0  0  0  0  0  0  0  0  0
   37.5500   28.4980   42.6960 H   0  0  0  0  0  0  0  0  0  0  0  0
   35.0140   29.1250   35.7870 C   0  0  0  0  0  0  0  0  0  0  0  0
   33.6020   29.0440   35.7290 C   0  0  0  0  0  0  0  0  0  0  0  0
   32.9150   28.8700   36.9200 C   0  0  0  0  0  0  0  0  0  0  0  0
   33.6280   28.7870   38.0690 N   0  0  0  0  0  0  0  0  0  0  0  0
   34.9670   28.8640   38.1120 C   0  0  0  0  0  0  0  0  0  0  0  0
   35.6710   29.0360   36.9600 N   0  0  0  0  0  0  0  0  0  0  0  0
   35.6920   29.2590   34.9530 H   0  0  0  0  0  0  0  0  0  0  0  0
   33.1890   29.1290   34.7440 H   0  0  0  0  0  0  0  0  0  0  0  0
   31.8480   28.8120   36.8540 H   0  0  0  0  0  0  0  0  0  0  0  0
   37.5210   26.1890   41.3200 C   0  0  0  0  0  0  0  0  0  0  0  0
   36.9470   25.2130   42.1090 C   0  0  0  0  0  0  0  0  0  0  0  0
   35.9900   25.2160   42.5810 H   0  0  0  0  0  0  0  0  0  0  0  0
   37.8830   24.1850   42.1790 C   0  0  0  0  0  0  0  0  0  0  0  0
   37.7080   23.2720   42.7390 H   0  0  0  0  0  0  0  0  0  0  0  0
   38.9710   24.5960   41.4280 C   0  0  0  0  0  0  0  0  0  0  0  0
   39.8790   23.9910   41.2930 H   0  0  0  0  0  0  0  0  0  0  0  0
   38.7100   25.7700   40.9490 O   0  0  0  0  0  0  0  0  0  0  0  0
  1  2  1  0  0  0  0
  2  7  1  0  0  0  0
  3  2  2  0  0  0  0
  3  4  1  0  0  0  0
  4  5  2  0  0  0  0
  5  6  1  0  0  0  0
  5  9  1  0  0  0  0
  6 10  1  0  0  0  0
  7 20  1  0  0  0  0
  7  6  2  0  0  0  0
  8  4  1  0  0  0  0
 11 16  1  0  0  0  0
 12 11  2  0  0  0  0
 12 13  1  0  0  0  0
 13 14  2  0  0  0  0
 14 15  1  0  0  0  0
 15  3  1  0  0  0  0
 16 15  2  0  0  0  0
 17 11  1  0  0  0  0
 18 12  1  0  0  0  0
 19 13  1  0  0  0  0
 20 21  2  0  0  0  0
 21 23  1  0  0  0  0
 21 22  1  0  0  0  0
 23 24  1  0  0  0  0
 25 23  2  0  0  0  0
 26 25  1  0  0  0  0
 27 20  1  0  0  0  0
 27 25  1  0  0  0  0
M  END
>  <minimizedAffinity>
-4.59770155

$$$$
