
 OpenBabel03252505573D

 35 37  0  0  0  0  0  0  0  0999 V2000
   45.0410   34.8900   44.7730 C   0  0  0  0  0  0  0  0  0  0  0  0
   45.9570   34.6030   43.7340 C   0  0  0  0  0  0  0  0  0  0  0  0
   46.9270   33.6370   43.9940 C   0  0  0  0  0  0  0  0  0  0  0  0
   46.9370   33.0430   45.2050 N   0  0  0  0  0  0  0  0  0  0  0  0
   46.0540   33.3400   46.1620 C   0  0  0  0  0  0  0  0  0  0  0  0
   45.1180   34.2510   45.9510 N   0  0  0  0  0  0  0  0  0  0  0  0
   44.2960   35.6410   44.5560 H   0  0  0  0  0  0  0  0  0  0  0  0
   47.8970   33.1910   42.9990 C   0  0  0  0  0  0  0  0  0  0  0  0
   49.1590   33.7520   42.9160 C   0  0  0  0  0  0  0  0  0  0  0  0
   49.6120   34.5470   43.5190 H   0  0  0  0  0  0  0  0  0  0  0  0
   49.9270   33.2040   41.9200 C   0  0  0  0  0  0  0  0  0  0  0  0
   50.9350   33.4180   41.6060 H   0  0  0  0  0  0  0  0  0  0  0  0
   49.0690   32.2730   41.3920 C   0  0  0  0  0  0  0  0  0  0  0  0
   49.2350   31.5790   40.5640 H   0  0  0  0  0  0  0  0  0  0  0  0
   47.9790   32.3280   42.0370 O   0  0  0  0  0  0  0  0  0  0  0  0
   45.8370   35.3430   42.4510 C   0  0  0  0  0  0  0  0  0  0  0  0
   44.8530   36.3020   42.6950 F   0  0  0  0  0  0  0  0  0  0  0  0
   45.3520   34.4430   41.5200 F   0  0  0  0  0  0  0  0  0  0  0  0
   47.0140   35.9100   42.1450 F   0  0  0  0  0  0  0  0  0  0  0  0
   46.0570   32.7280   47.4020 O   0  0  0  0  0  0  0  0  0  0  0  0
   45.6290   31.3890   47.5430 C   0  0  0  0  0  0  0  0  0  0  0  0
   44.9540   31.2700   48.4240 H   0  0  0  0  0  0  0  0  0  0  0  0
   45.0750   31.0010   46.6610 H   0  0  0  0  0  0  0  0  0  0  0  0
   46.8260   30.5530   47.7540 C   0  0  0  0  0  0  0  0  0  0  0  0
   47.1130   29.2640   47.3250 C   0  0  0  0  0  0  0  0  0  0  0  0
   48.3170   28.7360   47.6620 C   0  0  0  0  0  0  0  0  0  0  0  0
   49.2190   29.3890   48.3720 N   0  0  0  0  0  0  0  0  0  0  0  0
   48.9290   30.6420   48.7840 C   0  0  0  0  0  0  0  0  0  0  0  0
   47.7420   31.2440   48.4880 N   0  0  0  0  0  0  0  0  0  0  0  0
   46.2900   28.8550   46.7570 H   0  0  0  0  0  0  0  0  0  0  0  0
   48.4760   27.7220   47.2920 H   0  0  0  0  0  0  0  0  0  0  0  0
   49.9980   31.3100   49.5790 C   0  0  0  0  0  0  0  0  0  0  0  0
   49.9200   32.6750   49.4770 F   0  0  0  0  0  0  0  0  0  0  0  0
   51.2590   30.8910   49.1370 F   0  0  0  0  0  0  0  0  0  0  0  0
   49.9080   30.9810   50.9190 F   0  0  0  0  0  0  0  0  0  0  0  0
  1  6  1  0  0  0  0
  2  3  1  0  0  0  0
  2  1  2  0  0  0  0
  3  4  2  0  0  0  0
  4  5  1  0  0  0  0
  5 20  1  0  0  0  0
  6  5  2  0  0  0  0
  7  1  1  0  0  0  0
  8  3  1  0  0  0  0
  9  8  2  0  0  0  0
  9 10  1  0  0  0  0
 11  9  1  0  0  0  0
 12 11  1  0  0  0  0
 13 11  2  0  0  0  0
 13 15  1  0  0  0  0
 14 13  1  0  0  0  0
 15  8  1  0  0  0  0
 16 17  1  0  0  0  0
 16  2  1  0  0  0  0
 18 16  1  0  0  0  0
 19 16  1  0  0  0  0
 20 21  1  0  0  0  0
 21 24  1  0  0  0  0
 21 22  1  0  0  0  0
 23 21  1  0  0  0  0
 24 29  1  0  0  0  0
 25 26  1  0  0  0  0
 25 24  2  0  0  0  0
 26 27  2  0  0  0  0
 27 28  1  0  0  0  0
 28 32  1  0  0  0  0
 29 28  2  0  0  0  0
 30 25  1  0  0  0  0
 31 26  1  0  0  0  0
 32 35  1  0  0  0  0
 33 32  1  0  0  0  0
 34 32  1  0  0  0  0
M  END
>  <minimizedAffinity>
-5.89992952

>  <minimizedRMSD>
0.409710407

$$$$
