
 OpenBabel03242515053D

 38 40  0  0  0  0  0  0  0  0999 V2000
   44.9840   34.6550   42.2670 C   0  0  0  0  0  0  0  0  0  0  0  0
   46.2770   34.3300   41.8570 C   0  0  0  0  0  0  0  0  0  0  0  0
   47.2310   33.9840   42.8300 C   0  0  0  0  0  0  0  0  0  0  0  0
   46.8250   33.9920   44.1140 N   0  0  0  0  0  0  0  0  0  0  0  0
   45.5720   34.3080   44.4920 C   0  0  0  0  0  0  0  0  0  0  0  0
   44.6800   34.6320   43.5640 N   0  0  0  0  0  0  0  0  0  0  0  0
   46.6110   34.3210   40.8440 H   0  0  0  0  0  0  0  0  0  0  0  0
   48.5990   33.6350   42.4620 C   0  0  0  0  0  0  0  0  0  0  0  0
   49.6960   34.4160   42.7580 C   0  0  0  0  0  0  0  0  0  0  0  0
   49.7350   35.3600   43.2810 H   0  0  0  0  0  0  0  0  0  0  0  0
   50.7500   33.6740   42.2120 C   0  0  0  0  0  0  0  0  0  0  0  0
   51.7960   33.9500   42.2330 H   0  0  0  0  0  0  0  0  0  0  0  0
   50.2390   32.5140   41.6290 C   0  0  0  0  0  0  0  0  0  0  0  0
   50.7540   31.7110   41.1160 H   0  0  0  0  0  0  0  0  0  0  0  0
   48.9370   32.5560   41.8170 O   0  0  0  0  0  0  0  0  0  0  0  0
   45.2650   34.2750   45.9100 C   0  0  0  0  0  0  0  0  0  0  0  0
   44.3750   35.0420   46.3380 O   0  0  0  0  0  0  0  0  0  0  0  0
   46.0150   33.3530   46.7230 N   0  0  0  0  0  0  0  0  0  0  0  0
   45.7170   32.4580   47.1720 H   0  0  0  0  0  0  0  0  0  0  0  0
   47.0070   33.6210   46.8870 H   0  0  0  0  0  0  0  0  0  0  0  0
   43.8360   35.0850   40.9690 S   0  0  0  0  0  0  0  0  0  0  0  0
   42.1200   34.8990   41.4700 C   0  0  0  0  0  0  0  0  0  0  0  0
   42.0760   35.0470   42.5730 H   0  0  0  0  0  0  0  0  0  0  0  0
   41.8140   33.8490   41.2040 H   0  0  0  0  0  0  0  0  0  0  0  0
   41.1860   35.8610   40.8200 C   0  0  0  0  0  0  0  0  0  0  0  0
   41.7080   36.7100   40.3300 H   0  0  0  0  0  0  0  0  0  0  0  0
   40.5470   36.3180   41.6220 H   0  0  0  0  0  0  0  0  0  0  0  0
   42.0030   36.0970   37.9060 Cl  0  0  0  0  0  0  0  0  0  0  0  0
   40.6100   35.2270   38.4610 C   0  0  0  0  0  0  0  0  0  0  0  0
   40.3260   35.1840   39.8300 C   0  0  0  0  0  0  0  0  0  0  0  0
   39.2020   34.4720   40.1920 C   0  0  0  0  0  0  0  0  0  0  0  0
   38.3300   33.8010   39.3420 C   0  0  0  0  0  0  0  0  0  0  0  0
   38.6470   33.8690   37.9970 C   0  0  0  0  0  0  0  0  0  0  0  0
   37.6030   33.0490   36.8360 Cl  0  0  0  0  0  0  0  0  0  0  0  0
   39.7580   34.5640   37.5760 C   0  0  0  0  0  0  0  0  0  0  0  0
   38.9830   34.4400   41.2540 H   0  0  0  0  0  0  0  0  0  0  0  0
   37.4820   33.2760   39.7340 H   0  0  0  0  0  0  0  0  0  0  0  0
   39.9820   34.6010   36.5160 H   0  0  0  0  0  0  0  0  0  0  0  0
  1  6  1  0  0  0  0
  2  1  2  0  0  0  0
  2  3  1  0  0  0  0
  3  4  2  0  0  0  0
  4  5  1  0  0  0  0
  5 16  1  0  0  0  0
  6  5  2  0  0  0  0
  7  2  1  0  0  0  0
  8  9  2  0  0  0  0
  8  3  1  0  0  0  0
  9 10  1  0  0  0  0
 11 12  1  0  0  0  0
 11  9  1  0  0  0  0
 13 15  1  0  0  0  0
 13 11  2  0  0  0  0
 14 13  1  0  0  0  0
 15  8  1  0  0  0  0
 16 17  2  0  0  0  0
 16 18  1  0  0  0  0
 18 20  1  0  0  0  0
 18 19  1  0  0  0  0
 21 22  1  0  0  0  0
 21  1  1  0  0  0  0
 22 23  1  0  0  0  0
 24 22  1  0  0  0  0
 25 22  1  0  0  0  0
 25 27  1  0  0  0  0
 26 25  1  0  0  0  0
 28 29  1  0  0  0  0
 29 30  1  0  0  0  0
 30 31  2  0  0  0  0
 30 25  1  0  0  0  0
 31 36  1  0  0  0  0
 32 37  1  0  0  0  0
 32 31  1  0  0  0  0
 33 32  2  0  0  0  0
 34 33  1  0  0  0  0
 35 33  1  0  0  0  0
 35 29  2  0  0  0  0
 38 35  1  0  0  0  0
M  END
>  <minimizedAffinity>
-6.96352959

>  <minimizedRMSD>
0.609579742

$$$$
