
 OpenBabel03252509113D

 30 33  0  0  0  0  0  0  0  0999 V2000
   44.9610   29.2580   44.1430 C   0  0  0  0  0  0  0  0  0  0  0  0
   45.5400   30.1340   45.0460 C   0  0  0  0  0  0  0  0  0  0  0  0
   45.6360   29.8480   46.3930 C   0  0  0  0  0  0  0  0  0  0  0  0
   45.1390   28.6440   46.8830 C   0  0  0  0  0  0  0  0  0  0  0  0
   45.0590   28.0420   48.0980 N   0  0  0  0  0  0  0  0  0  0  0  0
   44.4550   26.8390   47.9560 C   0  0  0  0  0  0  0  0  0  0  0  0
   44.1670   26.7100   46.6470 N   0  0  0  0  0  0  0  0  0  0  0  0
   44.5720   27.7970   45.9610 C   0  0  0  0  0  0  0  0  0  0  0  0
   44.4570   28.0440   44.6110 C   0  0  0  0  0  0  0  0  0  0  0  0
   44.9040   29.5160   43.0900 H   0  0  0  0  0  0  0  0  0  0  0  0
   45.4350   28.5220   48.9360 H   0  0  0  0  0  0  0  0  0  0  0  0
   44.2770   26.1720   48.7920 H   0  0  0  0  0  0  0  0  0  0  0  0
   43.9970   27.3270   43.9470 H   0  0  0  0  0  0  0  0  0  0  0  0
   45.8150   33.6990   44.2110 C   0  0  0  0  0  0  0  0  0  0  0  0
   47.0960   33.7890   43.6660 C   0  0  0  0  0  0  0  0  0  0  0  0
   47.8680   32.6170   43.5860 C   0  0  0  0  0  0  0  0  0  0  0  0
   47.2950   31.4690   44.0550 N   0  0  0  0  0  0  0  0  0  0  0  0
   46.0670   31.4030   44.5730 C   0  0  0  0  0  0  0  0  0  0  0  0
   45.3130   32.5200   44.6580 N   0  0  0  0  0  0  0  0  0  0  0  0
   45.2270   34.6130   44.2690 H   0  0  0  0  0  0  0  0  0  0  0  0
   47.4960   34.7240   43.3130 H   0  0  0  0  0  0  0  0  0  0  0  0
   48.8680   32.6270   43.1730 H   0  0  0  0  0  0  0  0  0  0  0  0
   46.2400   30.7520   47.3680 C   0  0  0  0  0  0  0  0  0  0  0  0
   45.3090   31.4850   48.1120 C   0  0  0  0  0  0  0  0  0  0  0  0
   44.2340   31.5670   48.1640 H   0  0  0  0  0  0  0  0  0  0  0  0
   46.0420   32.2920   48.9890 C   0  0  0  0  0  0  0  0  0  0  0  0
   45.6970   33.0150   49.7410 H   0  0  0  0  0  0  0  0  0  0  0  0
   47.3780   31.9910   48.7150 C   0  0  0  0  0  0  0  0  0  0  0  0
   48.2740   32.3980   49.1750 H   0  0  0  0  0  0  0  0  0  0  0  0
   47.4360   31.0880   47.7610 O   0  0  0  0  0  0  0  0  0  0  0  0
  1  9  2  0  0  0  0
  1  2  1  0  0  0  0
  2  3  2  0  0  0  0
  3  4  1  0  0  0  0
  3 23  1  0  0  0  0
  4  5  1  0  0  0  0
  5 11  1  0  0  0  0
  6  5  1  0  0  0  0
  6 12  1  0  0  0  0
  7  6  2  0  0  0  0
  8  7  1  0  0  0  0
  8  4  2  0  0  0  0
  9  8  1  0  0  0  0
 10  1  1  0  0  0  0
 13  9  1  0  0  0  0
 14 20  1  0  0  0  0
 14 19  1  0  0  0  0
 15 14  2  0  0  0  0
 16 15  1  0  0  0  0
 16 17  2  0  0  0  0
 17 18  1  0  0  0  0
 18 19  2  0  0  0  0
 18  2  1  0  0  0  0
 21 15  1  0  0  0  0
 22 16  1  0  0  0  0
 23 30  1  0  0  0  0
 23 24  2  0  0  0  0
 24 25  1  0  0  0  0
 24 26  1  0  0  0  0
 26 27  1  0  0  0  0
 28 26  2  0  0  0  0
 28 29  1  0  0  0  0
 30 28  1  0  0  0  0
M  END
>  <minimizedAffinity>
-4.04591084

>  <minimizedRMSD>
3.8948257

$$$$
