
 OpenBabel03242520363D

 34 37  0  0  1  0  0  0  0  0999 V2000
   45.5840   33.6330   43.2530 C   0  0  0  0  0  0  0  0  0  0  0  0
   46.8010   33.0650   42.7180 C   0  0  0  0  0  0  0  0  0  0  0  0
   47.7000   32.5560   43.6170 C   0  0  0  0  0  0  0  0  0  0  0  0
   47.4260   32.6010   44.9430 N   0  0  0  0  0  0  0  0  0  0  0  0
   46.2800   33.1390   45.4140 C   0  0  0  0  0  0  0  0  0  0  0  0
   45.3640   33.6540   44.5580 N   0  0  0  0  0  0  0  0  0  0  0  0
   44.9000   34.0250   42.5100 H   0  0  0  0  0  0  0  0  0  0  0  0
   48.6380   32.1110   43.2960 H   0  0  0  0  0  0  0  0  0  0  0  0
   47.0750   33.0470   41.2560 C   0  0  1  0  0  0  0  0  0  0  0  0
   46.4950   34.0140   40.3750 C   0  0  0  0  0  0  0  0  0  0  0  0
   47.9260   34.1970   40.6840 C   0  0  1  0  0  0  0  0  0  0  0  0
   47.3640   32.0310   40.9060 H   0  0  0  0  0  0  0  0  0  0  0  0
   45.7950   34.8190   40.6720 H   0  0  0  0  0  0  0  0  0  0  0  0
   46.2950   33.6860   39.3120 H   0  0  0  0  0  0  0  0  0  0  0  0
   48.6940   33.8420   39.9390 H   0  0  0  0  0  0  0  0  0  0  0  0
   48.4450   35.2640   41.5660 C   0  0  0  0  0  0  0  0  0  0  0  0
   49.1070   36.2470   40.8500 F   0  0  0  0  0  0  0  0  0  0  0  0
   49.3070   34.7530   42.5400 F   0  0  0  0  0  0  0  0  0  0  0  0
   47.3670   35.8620   42.1690 F   0  0  0  0  0  0  0  0  0  0  0  0
   46.0530   33.1520   46.8880 C   0  0  2  0  0  0  0  0  0  0  0  0
   47.1490   32.4240   47.6540 C   0  0  0  0  0  0  0  0  0  0  0  0
   45.7510   31.8910   47.6120 C   0  0  2  0  0  0  0  0  0  0  0  0
   45.5960   34.0700   47.2630 H   0  0  0  0  0  0  0  0  0  0  0  0
   47.5210   32.9900   48.5170 H   0  0  0  0  0  0  0  0  0  0  0  0
   47.9080   31.8680   47.1060 H   0  0  0  0  0  0  0  0  0  0  0  0
   45.2380   32.0190   48.5910 H   0  0  0  0  0  0  0  0  0  0  0  0
   45.4040   30.6460   46.9260 C   0  0  0  0  0  0  0  0  0  0  0  0
   44.9460   29.5130   47.6090 C   0  0  0  0  0  0  0  0  0  0  0  0
   44.7770   29.3580   48.6870 H   0  0  0  0  0  0  0  0  0  0  0  0
   44.6970   28.4860   46.7080 C   0  0  0  0  0  0  0  0  0  0  0  0
   44.3410   27.4830   46.8480 H   0  0  0  0  0  0  0  0  0  0  0  0
   45.0200   29.0540   45.4940 C   0  0  0  0  0  0  0  0  0  0  0  0
   44.9460   28.5290   44.5430 H   0  0  0  0  0  0  0  0  0  0  0  0
   45.4210   30.2900   45.6630 O   0  0  0  0  0  0  0  0  0  0  0  0
  1  6  1  0  0  0  0
  2  1  2  0  0  0  0
  2  3  1  0  0  0  0
  3  4  2  0  0  0  0
  4  5  1  0  0  0  0
  5 20  1  0  0  0  0
  6  5  2  0  0  0  0
  7  1  1  0  0  0  0
  8  3  1  0  0  0  0
  9 12  1  6  0  0  0
  9  2  1  0  0  0  0
 10 13  1  0  0  0  0
 10 11  1  0  0  0  0
 10  9  1  0  0  0  0
 11 15  1  6  0  0  0
 11  9  1  0  0  0  0
 11 16  1  0  0  0  0
 14 10  1  0  0  0  0
 16 19  1  0  0  0  0
 16 18  1  0  0  0  0
 17 16  1  0  0  0  0
 20 23  1  1  0  0  0
 20 22  1  0  0  0  0
 20 21  1  0  0  0  0
 21 24  1  0  0  0  0
 22 21  1  0  0  0  0
 22 26  1  1  0  0  0
 25 21  1  0  0  0  0
 27 28  2  0  0  0  0
 27 22  1  0  0  0  0
 28 29  1  0  0  0  0
 30 31  1  0  0  0  0
 30 28  1  0  0  0  0
 32 34  1  0  0  0  0
 32 30  2  0  0  0  0
 33 32  1  0  0  0  0
 34 27  1  0  0  0  0
M  END
>  <minimizedAffinity>
-5.3799324

>  <minimizedRMSD>
0.549891651

$$$$
