
 OpenBabel03242512133D

 40 43  0  0  1  0  0  0  0  0999 V2000
   39.7070   29.4030   40.9820 O   0  0  0  0  0  0  0  0  0  0  0  0
   38.9290   30.4580   41.7510 P   0  0  2  0  0  0  0  0  0  0  0  0
   39.8600   31.2110   42.8890 O   0  0  0  0  0  0  0  0  0  0  0  0
   39.3680   31.5390   43.6760 H   0  0  0  0  0  0  0  0  0  0  0  0
   37.5300   29.7090   42.3370 O   0  0  0  0  0  0  0  0  0  0  0  0
   37.1090   27.2810   42.3200 C   0  0  1  0  0  0  0  0  0  0  0  0
   36.9870   27.8960   43.7700 C   0  0  0  0  0  0  0  0  0  0  0  0
   37.8860   28.4520   42.7890 C   0  0  2  0  0  0  0  0  0  0  0  0
   36.2420   27.4590   41.6900 H   0  0  0  0  0  0  0  0  0  0  0  0
   37.4200   27.2930   44.5930 H   0  0  0  0  0  0  0  0  0  0  0  0
   35.9740   28.2960   43.9860 H   0  0  0  0  0  0  0  0  0  0  0  0
   38.9790   28.2880   42.7650 H   0  0  0  0  0  0  0  0  0  0  0  0
   37.7280   25.9210   42.3530 C   0  0  0  0  0  0  0  0  0  0  0  0
   36.9680   24.9600   42.3610 O   0  0  0  0  0  0  0  0  0  0  0  0
   39.8440   25.4200   43.4880 C   0  0  0  0  0  0  0  0  0  0  0  0
   39.1200   25.6600   42.3750 C   0  0  0  0  0  0  0  0  0  0  0  0
   39.8360   25.6430   41.1310 C   0  0  0  0  0  0  0  0  0  0  0  0
   41.1670   25.3970   41.0950 N   0  0  0  0  0  0  0  0  0  0  0  0
   41.8440   25.1610   42.2500 C   0  0  0  0  0  0  0  0  0  0  0  0
   41.1990   25.1750   43.3970 N   0  0  0  0  0  0  0  0  0  0  0  0
   39.3550   25.4220   44.4460 H   0  0  0  0  0  0  0  0  0  0  0  0
   39.4100   25.8050   40.1780 H   0  0  0  0  0  0  0  0  0  0  0  0
   42.9040   24.9570   42.3140 H   0  0  0  0  0  0  0  0  0  0  0  0
   38.4240   31.5740   40.5160 O   0  0  0  0  0  0  0  0  0  0  0  0
   38.8800   32.8670   40.4190 C   0  0  0  0  0  0  0  0  0  0  0  0
   38.1670   34.0370   40.1860 C   0  0  0  0  0  0  0  0  0  0  0  0
   38.8240   35.2490   40.1240 C   0  0  0  0  0  0  0  0  0  0  0  0
   40.1710   35.2860   40.2930 N   0  0  0  0  0  0  0  0  0  0  0  0
   40.8690   34.1480   40.5200 C   0  0  0  0  0  0  0  0  0  0  0  0
   40.2380   32.9360   40.5840 N   0  0  0  0  0  0  0  0  0  0  0  0
   37.1240   33.8540   40.0730 H   0  0  0  0  0  0  0  0  0  0  0  0
   38.2190   36.1030   39.9440 H   0  0  0  0  0  0  0  0  0  0  0  0
   42.3170   34.2310   40.6960 C   0  0  0  0  0  0  0  0  0  0  0  0
   43.1270   34.8630   41.6170 C   0  0  0  0  0  0  0  0  0  0  0  0
   42.7140   35.4390   42.4060 H   0  0  0  0  0  0  0  0  0  0  0  0
   44.4150   34.5390   41.2160 C   0  0  0  0  0  0  0  0  0  0  0  0
   45.2880   34.8990   41.7590 H   0  0  0  0  0  0  0  0  0  0  0  0
   44.3410   33.7360   40.0880 C   0  0  0  0  0  0  0  0  0  0  0  0
   45.1950   33.3290   39.5530 H   0  0  0  0  0  0  0  0  0  0  0  0
   43.0550   33.5880   39.8270 O   0  0  0  0  0  0  0  0  0  0  0  0
  2  1  2  6  0  0  0
  2  5  1  0  0  0  0
  2  3  1  0  0  0  0
  3  4  1  0  0  0  0
  5  8  1  0  0  0  0
  6  9  1  6  0  0  0
  6 13  1  0  0  0  0
  6  8  1  0  0  0  0
  6  7  1  0  0  0  0
  7 11  1  0  0  0  0
  7 10  1  0  0  0  0
  8 12  1  1  0  0  0
  8  7  1  0  0  0  0
 13 14  2  0  0  0  0
 13 16  1  0  0  0  0
 15 21  1  0  0  0  0
 16 15  2  0  0  0  0
 17 16  1  0  0  0  0
 18 17  2  0  0  0  0
 18 19  1  0  0  0  0
 19 23  1  0  0  0  0
 19 20  2  0  0  0  0
 20 15  1  0  0  0  0
 22 17  1  0  0  0  0
 24  2  1  0  0  0  0
 25 24  1  0  0  0  0
 25 30  1  0  0  0  0
 26 25  2  0  0  0  0
 27 26  1  0  0  0  0
 27 28  2  0  0  0  0
 28 29  1  0  0  0  0
 29 30  2  0  0  0  0
 29 33  1  0  0  0  0
 31 26  1  0  0  0  0
 32 27  1  0  0  0  0
 33 34  2  0  0  0  0
 34 35  1  0  0  0  0
 36 34  1  0  0  0  0
 36 37  1  0  0  0  0
 38 36  2  0  0  0  0
 39 38  1  0  0  0  0
 40 38  1  0  0  0  0
 40 33  1  0  0  0  0
M  END
>  <minimizedAffinity>
-5.85110474

$$$$

 OpenBabel03242512133D

 40 43  0  0  1  0  0  0  0  0999 V2000
   37.0820   31.3200   38.9780 O   0  0  0  0  0  0  0  0  0  0  0  0
   37.1660   31.4460   40.4910 P   0  0  2  0  0  0  0  0  0  0  0  0
   35.7170   31.1390   41.2220 O   0  0  0  0  0  0  0  0  0  0  0  0
   35.5740   31.6130   42.0730 H   0  0  0  0  0  0  0  0  0  0  0  0
   37.8400   32.9610   40.8220 O   0  0  0  0  0  0  0  0  0  0  0  0
   40.1310   33.1330   39.9290 C   0  0  1  0  0  0  0  0  0  0  0  0
   39.3900   34.5280   39.9370 C   0  0  0  0  0  0  0  0  0  0  0  0
   38.6670   33.2920   39.7640 C   0  0  2  0  0  0  0  0  0  0  0  0
   40.5080   32.8260   40.9010 H   0  0  0  0  0  0  0  0  0  0  0  0
   39.5480   35.1700   39.0480 H   0  0  0  0  0  0  0  0  0  0  0  0
   39.4870   35.0630   40.9060 H   0  0  0  0  0  0  0  0  0  0  0  0
   38.2920   32.9060   38.7980 H   0  0  0  0  0  0  0  0  0  0  0  0
   40.9990   32.9830   38.7220 C   0  0  0  0  0  0  0  0  0  0  0  0
   40.4740   32.5440   37.7060 O   0  0  0  0  0  0  0  0  0  0  0  0
   43.1400   33.2430   37.5520 C   0  0  0  0  0  0  0  0  0  0  0  0
   42.3770   33.3080   38.6630 C   0  0  0  0  0  0  0  0  0  0  0  0
   43.0320   33.7430   39.8640 C   0  0  0  0  0  0  0  0  0  0  0  0
   44.3460   34.0680   39.8630 N   0  0  0  0  0  0  0  0  0  0  0  0
   45.0650   33.9830   38.7120 C   0  0  0  0  0  0  0  0  0  0  0  0
   44.4750   33.5850   37.6050 N   0  0  0  0  0  0  0  0  0  0  0  0
   42.6960   32.9220   36.6260 H   0  0  0  0  0  0  0  0  0  0  0  0
   42.5700   33.8520   40.8080 H   0  0  0  0  0  0  0  0  0  0  0  0
   46.1160   34.2210   38.6210 H   0  0  0  0  0  0  0  0  0  0  0  0
   38.3560   30.2560   40.9320 O   0  0  0  0  0  0  0  0  0  0  0  0
   38.0880   29.1580   41.7130 C   0  0  0  0  0  0  0  0  0  0  0  0
   38.1940   29.0090   43.0910 C   0  0  0  0  0  0  0  0  0  0  0  0
   37.8710   27.8060   43.6850 C   0  0  0  0  0  0  0  0  0  0  0  0
   37.4500   26.7720   42.9130 N   0  0  0  0  0  0  0  0  0  0  0  0
   37.3450   26.9130   41.5700 C   0  0  0  0  0  0  0  0  0  0  0  0
   37.6600   28.0970   40.9600 N   0  0  0  0  0  0  0  0  0  0  0  0
   38.5360   29.8990   43.5640 H   0  0  0  0  0  0  0  0  0  0  0  0
   37.9760   27.7610   44.7410 H   0  0  0  0  0  0  0  0  0  0  0  0
   36.8870   25.7770   40.7740 C   0  0  0  0  0  0  0  0  0  0  0  0
   36.7600   24.4270   41.0300 C   0  0  0  0  0  0  0  0  0  0  0  0
   37.0230   24.0220   41.9740 H   0  0  0  0  0  0  0  0  0  0  0  0
   36.2650   23.9020   39.8450 C   0  0  0  0  0  0  0  0  0  0  0  0
   36.0570   22.8380   39.7380 H   0  0  0  0  0  0  0  0  0  0  0  0
   36.1110   24.9320   38.9300 C   0  0  0  0  0  0  0  0  0  0  0  0
   35.7400   24.8180   37.9150 H   0  0  0  0  0  0  0  0  0  0  0  0
   36.5010   26.0320   39.5490 O   0  0  0  0  0  0  0  0  0  0  0  0
  2  1  2  6  0  0  0
  2  5  1  0  0  0  0
  2 24  1  0  0  0  0
  2  3  1  0  0  0  0
  3  4  1  0  0  0  0
  6  7  1  0  0  0  0
  6  9  1  1  0  0  0
  7 11  1  0  0  0  0
  8 12  1  6  0  0  0
  8  6  1  0  0  0  0
  8  7  1  0  0  0  0
  8  5  1  0  0  0  0
 10  7  1  0  0  0  0
 13  6  1  0  0  0  0
 14 13  2  0  0  0  0
 15 20  2  0  0  0  0
 15 16  1  0  0  0  0
 16 13  1  0  0  0  0
 16 17  2  0  0  0  0
 17 22  1  0  0  0  0
 18 17  1  0  0  0  0
 19 18  2  0  0  0  0
 20 19  1  0  0  0  0
 21 15  1  0  0  0  0
 23 19  1  0  0  0  0
 24 25  1  0  0  0  0
 25 26  1  0  0  0  0
 26 31  1  0  0  0  0
 26 27  2  0  0  0  0
 27 32  1  0  0  0  0
 28 27  1  0  0  0  0
 29 28  2  0  0  0  0
 30 29  1  0  0  0  0
 30 25  2  0  0  0  0
 33 34  2  0  0  0  0
 33 29  1  0  0  0  0
 34 35  1  0  0  0  0
 36 34  1  0  0  0  0
 37 36  1  0  0  0  0
 38 40  1  0  0  0  0
 38 36  2  0  0  0  0
 39 38  1  0  0  0  0
 40 33  1  0  0  0  0
M  END
>  <minimizedAffinity>
-5.84160757

$$$$

 OpenBabel03242512133D

 40 43  0  0  1  0  0  0  0  0999 V2000
   37.2750   30.6250   39.1110 O   0  0  0  0  0  0  0  0  0  0  0  0
   37.5160   31.3200   40.4420 P   0  0  2  0  0  0  0  0  0  0  0  0
   36.9160   32.8590   40.4570 O   0  0  0  0  0  0  0  0  0  0  0  0
   37.3960   33.4840   41.0460 H   0  0  0  0  0  0  0  0  0  0  0  0
   39.1670   31.1800   40.7790 O   0  0  0  0  0  0  0  0  0  0  0  0
   40.9200   31.1330   39.0480 C   0  0  1  0  0  0  0  0  0  0  0  0
   41.2000   32.2320   40.1480 C   0  0  0  0  0  0  0  0  0  0  0  0
   39.8560   31.8520   39.7870 C   0  0  2  0  0  0  0  0  0  0  0  0
   41.1680   30.1220   39.3590 H   0  0  0  0  0  0  0  0  0  0  0  0
   41.5850   33.2030   39.7800 H   0  0  0  0  0  0  0  0  0  0  0  0
   41.7450   31.8320   41.0290 H   0  0  0  0  0  0  0  0  0  0  0  0
   39.1860   32.4360   39.1290 H   0  0  0  0  0  0  0  0  0  0  0  0
   41.3250   31.6050   37.6890 C   0  0  0  0  0  0  0  0  0  0  0  0
   40.4930   32.2310   37.0430 O   0  0  0  0  0  0  0  0  0  0  0  0
   43.7150   32.0700   37.3900 C   0  0  0  0  0  0  0  0  0  0  0  0
   42.5910   31.3840   37.0930 C   0  0  0  0  0  0  0  0  0  0  0  0
   42.7130   30.3590   36.0970 C   0  0  0  0  0  0  0  0  0  0  0  0
   43.9000   30.1060   35.4970 N   0  0  0  0  0  0  0  0  0  0  0  0
   44.9990   30.8300   35.8370 C   0  0  0  0  0  0  0  0  0  0  0  0
   44.9000   31.7730   36.7490 N   0  0  0  0  0  0  0  0  0  0  0  0
   43.6770   32.8500   38.1300 H   0  0  0  0  0  0  0  0  0  0  0  0
   41.9280   29.7340   35.7630 H   0  0  0  0  0  0  0  0  0  0  0  0
   45.9840   30.6960   35.4090 H   0  0  0  0  0  0  0  0  0  0  0  0
   36.6800   30.3100   41.5850 O   0  0  0  0  0  0  0  0  0  0  0  0
   37.2120   29.1650   42.1280 C   0  0  0  0  0  0  0  0  0  0  0  0
   38.0140   29.0130   43.2520 C   0  0  0  0  0  0  0  0  0  0  0  0
   38.4470   27.7590   43.6310 C   0  0  0  0  0  0  0  0  0  0  0  0
   38.0830   26.6770   42.8960 N   0  0  0  0  0  0  0  0  0  0  0  0
   37.3020   26.8210   41.8000 C   0  0  0  0  0  0  0  0  0  0  0  0
   36.8610   28.0550   41.4050 N   0  0  0  0  0  0  0  0  0  0  0  0
   38.2180   29.9440   43.7260 H   0  0  0  0  0  0  0  0  0  0  0  0
   39.0570   27.7150   44.5000 H   0  0  0  0  0  0  0  0  0  0  0  0
   36.9310   25.6320   41.0350 C   0  0  0  0  0  0  0  0  0  0  0  0
   36.8280   24.2930   41.3520 C   0  0  0  0  0  0  0  0  0  0  0  0
   37.0420   23.9440   42.3300 H   0  0  0  0  0  0  0  0  0  0  0  0
   36.4280   23.6930   40.1660 C   0  0  0  0  0  0  0  0  0  0  0  0
   36.2600   22.6190   40.1010 H   0  0  0  0  0  0  0  0  0  0  0  0
   36.3040   24.6720   39.1920 C   0  0  0  0  0  0  0  0  0  0  0  0
   36.0040   24.4950   38.1620 H   0  0  0  0  0  0  0  0  0  0  0  0
   36.6190   25.8130   39.7760 O   0  0  0  0  0  0  0  0  0  0  0  0
  2  1  2  6  0  0  0
  2  3  1  0  0  0  0
  2  5  1  0  0  0  0
  2 24  1  0  0  0  0
  3  4  1  0  0  0  0
  6  9  1  1  0  0  0
  6  8  1  0  0  0  0
  6  7  1  0  0  0  0
  7 11  1  0  0  0  0
  8 12  1  6  0  0  0
  8  7  1  0  0  0  0
  8  5  1  0  0  0  0
 10  7  1  0  0  0  0
 13  6  1  0  0  0  0
 14 13  2  0  0  0  0
 15 21  1  0  0  0  0
 16 15  1  0  0  0  0
 16 13  1  0  0  0  0
 17 16  2  0  0  0  0
 18 19  2  0  0  0  0
 18 17  1  0  0  0  0
 19 20  1  0  0  0  0
 20 15  2  0  0  0  0
 22 17  1  0  0  0  0
 23 19  1  0  0  0  0
 24 25  1  0  0  0  0
 25 26  1  0  0  0  0
 26 27  2  0  0  0  0
 26 31  1  0  0  0  0
 27 32  1  0  0  0  0
 28 27  1  0  0  0  0
 29 28  2  0  0  0  0
 30 29  1  0  0  0  0
 30 25  2  0  0  0  0
 33 34  2  0  0  0  0
 33 29  1  0  0  0  0
 34 35  1  0  0  0  0
 36 34  1  0  0  0  0
 37 36  1  0  0  0  0
 38 40  1  0  0  0  0
 38 36  2  0  0  0  0
 39 38  1  0  0  0  0
 40 33  1  0  0  0  0
M  END
>  <minimizedAffinity>
-5.73175907

$$$$

 OpenBabel03242512133D

 40 43  0  0  1  0  0  0  0  0999 V2000
   38.3840   34.3460   40.1480 O   0  0  0  0  0  0  0  0  0  0  0  0
   38.6530   32.8680   40.3790 P   0  0  2  0  0  0  0  0  0  0  0  0
   39.6500   32.6110   41.6700 O   0  0  0  0  0  0  0  0  0  0  0  0
   40.2040   31.8000   41.6100 H   0  0  0  0  0  0  0  0  0  0  0  0
   39.1890   32.2300   38.9070 O   0  0  0  0  0  0  0  0  0  0  0  0
   41.2340   33.4270   38.2300 C   0  0  1  0  0  0  0  0  0  0  0  0
   41.1770   31.9640   37.6360 C   0  0  0  0  0  0  0  0  0  0  0  0
   40.5700   32.2870   38.9050 C   0  0  2  0  0  0  0  0  0  0  0  0
   40.6110   34.1430   37.7010 H   0  0  0  0  0  0  0  0  0  0  0  0
   42.1290   31.3980   37.6420 H   0  0  0  0  0  0  0  0  0  0  0  0
   40.6220   31.9090   36.6760 H   0  0  0  0  0  0  0  0  0  0  0  0
   41.0050   32.0520   39.8940 H   0  0  0  0  0  0  0  0  0  0  0  0
   42.6260   33.8060   38.6160 C   0  0  0  0  0  0  0  0  0  0  0  0
   43.3390   34.2840   37.7410 O   0  0  0  0  0  0  0  0  0  0  0  0
   44.1010   32.7290   40.2540 C   0  0  0  0  0  0  0  0  0  0  0  0
   43.1830   33.6560   39.9100 C   0  0  0  0  0  0  0  0  0  0  0  0
   42.7530   34.5470   40.9500 C   0  0  0  0  0  0  0  0  0  0  0  0
   43.2530   34.4480   42.2040 N   0  0  0  0  0  0  0  0  0  0  0  0
   44.1780   33.4940   42.4920 C   0  0  0  0  0  0  0  0  0  0  0  0
   44.5800   32.6710   41.5470 N   0  0  0  0  0  0  0  0  0  0  0  0
   44.4560   32.0370   39.5110 H   0  0  0  0  0  0  0  0  0  0  0  0
   42.0480   35.3250   40.8360 H   0  0  0  0  0  0  0  0  0  0  0  0
   44.6290   33.3440   43.4640 H   0  0  0  0  0  0  0  0  0  0  0  0
   37.0690   32.2070   40.6680 O   0  0  0  0  0  0  0  0  0  0  0  0
   36.8220   30.8690   40.8610 C   0  0  0  0  0  0  0  0  0  0  0  0
   35.7270   30.1100   40.4650 C   0  0  0  0  0  0  0  0  0  0  0  0
   35.6730   28.7630   40.7640 C   0  0  0  0  0  0  0  0  0  0  0  0
   36.6970   28.1900   41.4470 N   0  0  0  0  0  0  0  0  0  0  0  0
   37.7650   28.9260   41.8340 C   0  0  0  0  0  0  0  0  0  0  0  0
   37.8390   30.2630   41.5490 N   0  0  0  0  0  0  0  0  0  0  0  0
   35.0060   30.6910   39.9420 H   0  0  0  0  0  0  0  0  0  0  0  0
   34.8090   28.2430   40.4310 H   0  0  0  0  0  0  0  0  0  0  0  0
   38.8460   28.2720   42.5670 C   0  0  0  0  0  0  0  0  0  0  0  0
   40.1890   28.5480   42.7250 C   0  0  0  0  0  0  0  0  0  0  0  0
   40.6340   29.3890   42.2590 H   0  0  0  0  0  0  0  0  0  0  0  0
   40.6500   27.5290   43.5480 C   0  0  0  0  0  0  0  0  0  0  0  0
   41.6940   27.4760   43.8560 H   0  0  0  0  0  0  0  0  0  0  0  0
   39.5900   26.6890   43.8530 C   0  0  0  0  0  0  0  0  0  0  0  0
   39.6540   25.8050   44.4810 H   0  0  0  0  0  0  0  0  0  0  0  0
   38.5360   27.1890   43.2350 O   0  0  0  0  0  0  0  0  0  0  0  0
  2  1  2  6  0  0  0
  2 24  1  0  0  0  0
  2  3  1  0  0  0  0
  4  3  1  0  0  0  0
  5  2  1  0  0  0  0
  6  9  1  6  0  0  0
  6 13  1  0  0  0  0
  6  8  1  0  0  0  0
  7 10  1  0  0  0  0
  7  6  1  0  0  0  0
  7  8  1  0  0  0  0
  8  5  1  0  0  0  0
  8 12  1  1  0  0  0
 11  7  1  0  0  0  0
 13 16  1  0  0  0  0
 14 13  2  0  0  0  0
 15 20  1  0  0  0  0
 16 15  2  0  0  0  0
 16 17  1  0  0  0  0
 17 18  2  0  0  0  0
 18 19  1  0  0  0  0
 19 23  1  0  0  0  0
 20 19  2  0  0  0  0
 21 15  1  0  0  0  0
 22 17  1  0  0  0  0
 24 25  1  0  0  0  0
 25 30  1  0  0  0  0
 26 27  1  0  0  0  0
 26 25  2  0  0  0  0
 27 28  2  0  0  0  0
 28 29  1  0  0  0  0
 29 33  1  0  0  0  0
 30 29  2  0  0  0  0
 31 26  1  0  0  0  0
 32 27  1  0  0  0  0
 33 34  2  0  0  0  0
 33 40  1  0  0  0  0
 34 36  1  0  0  0  0
 35 34  1  0  0  0  0
 36 38  2  0  0  0  0
 36 37  1  0  0  0  0
 38 39  1  0  0  0  0
 40 38  1  0  0  0  0
M  END
>  <minimizedAffinity>
-5.6337533

$$$$

 OpenBabel03242512133D

 40 43  0  0  1  0  0  0  0  0999 V2000
   36.7720   30.4740   38.8700 O   0  0  0  0  0  0  0  0  0  0  0  0
   36.7080   30.7210   40.3680 P   0  0  2  0  0  0  0  0  0  0  0  0
   35.3950   29.9970   41.0620 O   0  0  0  0  0  0  0  0  0  0  0  0
   35.0470   30.4520   41.8630 H   0  0  0  0  0  0  0  0  0  0  0  0
   36.8210   32.3930   40.5970 O   0  0  0  0  0  0  0  0  0  0  0  0
   39.0870   33.3460   40.7730 C   0  0  1  0  0  0  0  0  0  0  0  0
   38.1210   34.2610   39.9200 C   0  0  0  0  0  0  0  0  0  0  0  0
   37.9660   32.8270   39.9540 C   0  0  2  0  0  0  0  0  0  0  0  0
   38.9420   33.4310   41.8460 H   0  0  0  0  0  0  0  0  0  0  0  0
   38.5590   34.7170   39.0100 H   0  0  0  0  0  0  0  0  0  0  0  0
   37.5330   34.9670   40.5430 H   0  0  0  0  0  0  0  0  0  0  0  0
   38.2920   32.1340   39.1580 H   0  0  0  0  0  0  0  0  0  0  0  0
   40.4720   33.3440   40.2140 C   0  0  0  0  0  0  0  0  0  0  0  0
   41.2460   34.1980   40.6330 O   0  0  0  0  0  0  0  0  0  0  0  0
   41.2060   31.1270   39.4620 C   0  0  0  0  0  0  0  0  0  0  0  0
   40.9580   32.4350   39.2420 C   0  0  0  0  0  0  0  0  0  0  0  0
   41.2130   32.9190   37.9150 C   0  0  0  0  0  0  0  0  0  0  0  0
   41.6760   32.0940   36.9480 N   0  0  0  0  0  0  0  0  0  0  0  0
   41.9070   30.7830   37.2290 C   0  0  0  0  0  0  0  0  0  0  0  0
   41.6780   30.3280   38.4420 N   0  0  0  0  0  0  0  0  0  0  0  0
   41.0320   30.7150   40.4410 H   0  0  0  0  0  0  0  0  0  0  0  0
   41.0630   33.9130   37.5870 H   0  0  0  0  0  0  0  0  0  0  0  0
   42.2770   30.0560   36.5190 H   0  0  0  0  0  0  0  0  0  0  0  0
   38.1910   30.0300   40.9590 O   0  0  0  0  0  0  0  0  0  0  0  0
   38.2570   28.8650   41.6860 C   0  0  0  0  0  0  0  0  0  0  0  0
   38.8220   28.6370   42.9340 C   0  0  0  0  0  0  0  0  0  0  0  0
   38.7800   27.3760   43.4940 C   0  0  0  0  0  0  0  0  0  0  0  0
   38.1840   26.3640   42.8140 N   0  0  0  0  0  0  0  0  0  0  0  0
   37.6320   26.5820   41.5980 C   0  0  0  0  0  0  0  0  0  0  0  0
   37.6620   27.8240   41.0230 N   0  0  0  0  0  0  0  0  0  0  0  0
   39.2520   29.5190   43.3460 H   0  0  0  0  0  0  0  0  0  0  0  0
   39.2310   27.2710   44.4510 H   0  0  0  0  0  0  0  0  0  0  0  0
   36.9990   25.4660   40.8980 C   0  0  0  0  0  0  0  0  0  0  0  0
   36.6830   24.1730   41.2620 C   0  0  0  0  0  0  0  0  0  0  0  0
   36.9050   23.8080   42.2320 H   0  0  0  0  0  0  0  0  0  0  0  0
   36.0940   23.6350   40.1270 C   0  0  0  0  0  0  0  0  0  0  0  0
   35.7330   22.6070   40.1060 H   0  0  0  0  0  0  0  0  0  0  0  0
   36.0730   24.6030   39.1340 C   0  0  0  0  0  0  0  0  0  0  0  0
   35.6690   24.4660   38.1350 H   0  0  0  0  0  0  0  0  0  0  0  0
   36.6300   25.6790   39.6600 O   0  0  0  0  0  0  0  0  0  0  0  0
  2  1  2  6  0  0  0
  2  5  1  0  0  0  0
  2 24  1  0  0  0  0
  2  3  1  0  0  0  0
  3  4  1  0  0  0  0
  6  9  1  1  0  0  0
  7  8  1  0  0  0  0
  7 11  1  0  0  0  0
  7  6  1  0  0  0  0
  8 12  1  6  0  0  0
  8  5  1  0  0  0  0
  8  6  1  0  0  0  0
 10  7  1  0  0  0  0
 13 14  2  0  0  0  0
 13  6  1  0  0  0  0
 15 21  1  0  0  0  0
 16 15  1  0  0  0  0
 16 13  1  0  0  0  0
 17 16  2  0  0  0  0
 18 19  2  0  0  0  0
 18 17  1  0  0  0  0
 19 20  1  0  0  0  0
 20 15  2  0  0  0  0
 22 17  1  0  0  0  0
 23 19  1  0  0  0  0
 24 25  1  0  0  0  0
 25 26  1  0  0  0  0
 26 31  1  0  0  0  0
 26 27  2  0  0  0  0
 27 32  1  0  0  0  0
 28 27  1  0  0  0  0
 29 28  2  0  0  0  0
 30 29  1  0  0  0  0
 30 25  2  0  0  0  0
 33 34  2  0  0  0  0
 33 29  1  0  0  0  0
 34 35  1  0  0  0  0
 36 34  1  0  0  0  0
 37 36  1  0  0  0  0
 38 40  1  0  0  0  0
 38 36  2  0  0  0  0
 39 38  1  0  0  0  0
 40 33  1  0  0  0  0
M  END
>  <minimizedAffinity>
-5.58896065

$$$$

 OpenBabel03242512133D

 40 43  0  0  1  0  0  0  0  0999 V2000
   37.6270   28.9620   37.1610 O   0  0  0  0  0  0  0  0  0  0  0  0
   37.9480   29.5440   38.5280 P   0  0  2  0  0  0  0  0  0  0  0  0
   39.5400   29.3570   38.9260 O   0  0  0  0  0  0  0  0  0  0  0  0
   39.7210   29.2840   39.8900 H   0  0  0  0  0  0  0  0  0  0  0  0
   36.8430   28.8760   39.6200 O   0  0  0  0  0  0  0  0  0  0  0  0
   36.6750   28.4050   42.0340 C   0  0  1  0  0  0  0  0  0  0  0  0
   37.2530   29.8480   41.7470 C   0  0  0  0  0  0  0  0  0  0  0  0
   37.4820   28.7510   40.8400 C   0  0  2  0  0  0  0  0  0  0  0  0
   35.5980   28.3300   41.9200 H   0  0  0  0  0  0  0  0  0  0  0  0
   38.0910   30.1750   42.3940 H   0  0  0  0  0  0  0  0  0  0  0  0
   36.4590   30.6120   41.6130 H   0  0  0  0  0  0  0  0  0  0  0  0
   38.4220   28.1730   40.7670 H   0  0  0  0  0  0  0  0  0  0  0  0
   37.3370   27.7770   43.2170 C   0  0  0  0  0  0  0  0  0  0  0  0
   37.0180   28.1940   44.3240 O   0  0  0  0  0  0  0  0  0  0  0  0
   39.5060   26.7690   43.7620 C   0  0  0  0  0  0  0  0  0  0  0  0
   38.3010   26.7400   43.1570 C   0  0  0  0  0  0  0  0  0  0  0  0
   37.9930   25.5590   42.4010 C   0  0  0  0  0  0  0  0  0  0  0  0
   38.8770   24.5380   42.3120 N   0  0  0  0  0  0  0  0  0  0  0  0
   40.0780   24.6240   42.9440 C   0  0  0  0  0  0  0  0  0  0  0  0
   40.3720   25.7010   43.6400 N   0  0  0  0  0  0  0  0  0  0  0  0
   39.7850   27.6320   44.3400 H   0  0  0  0  0  0  0  0  0  0  0  0
   37.0910   25.3850   41.8780 H   0  0  0  0  0  0  0  0  0  0  0  0
   40.8410   23.8580   42.9260 H   0  0  0  0  0  0  0  0  0  0  0  0
   37.5370   31.2270   38.3610 O   0  0  0  0  0  0  0  0  0  0  0  0
   38.1960   32.2440   39.0100 C   0  0  0  0  0  0  0  0  0  0  0  0
   37.7340   33.1000   40.0030 C   0  0  0  0  0  0  0  0  0  0  0  0
   38.5680   34.0660   40.5280 C   0  0  0  0  0  0  0  0  0  0  0  0
   39.8400   34.1730   40.0660 N   0  0  0  0  0  0  0  0  0  0  0  0
   40.2930   33.3400   39.0990 C   0  0  0  0  0  0  0  0  0  0  0  0
   39.4840   32.3750   38.5640 N   0  0  0  0  0  0  0  0  0  0  0  0
   36.7210   32.9000   40.2640 H   0  0  0  0  0  0  0  0  0  0  0  0
   38.1510   34.6870   41.2830 H   0  0  0  0  0  0  0  0  0  0  0  0
   41.6690   33.4860   38.6290 C   0  0  0  0  0  0  0  0  0  0  0  0
   42.2600   33.4120   37.3850 C   0  0  0  0  0  0  0  0  0  0  0  0
   41.6860   33.2100   36.5160 H   0  0  0  0  0  0  0  0  0  0  0  0
   43.6050   33.6480   37.6330 C   0  0  0  0  0  0  0  0  0  0  0  0
   44.3400   33.6530   36.8290 H   0  0  0  0  0  0  0  0  0  0  0  0
   43.7770   33.8540   38.9930 C   0  0  0  0  0  0  0  0  0  0  0  0
   44.7270   34.0620   39.4790 H   0  0  0  0  0  0  0  0  0  0  0  0
   42.5780   33.7440   39.5350 O   0  0  0  0  0  0  0  0  0  0  0  0
  2  1  2  6  0  0  0
  2  3  1  0  0  0  0
  2  5  1  0  0  0  0
  3  4  1  0  0  0  0
  5  8  1  0  0  0  0
  6  9  1  6  0  0  0
  6 13  1  0  0  0  0
  7  6  1  0  0  0  0
  7 10  1  0  0  0  0
  8 12  1  6  0  0  0
  8  7  1  0  0  0  0
  8  6  1  0  0  0  0
 11  7  1  0  0  0  0
 13 14  2  0  0  0  0
 15 21  1  0  0  0  0
 16 13  1  0  0  0  0
 16 15  2  0  0  0  0
 17 16  1  0  0  0  0
 18 17  2  0  0  0  0
 18 19  1  0  0  0  0
 19 20  2  0  0  0  0
 20 15  1  0  0  0  0
 22 17  1  0  0  0  0
 23 19  1  0  0  0  0
 24  2  1  0  0  0  0
 24 25  1  0  0  0  0
 25 26  1  0  0  0  0
 26 31  1  0  0  0  0
 26 27  2  0  0  0  0
 27 32  1  0  0  0  0
 28 27  1  0  0  0  0
 29 28  2  0  0  0  0
 30 25  2  0  0  0  0
 30 29  1  0  0  0  0
 33 29  1  0  0  0  0
 33 40  1  0  0  0  0
 34 36  1  0  0  0  0
 34 33  2  0  0  0  0
 35 34  1  0  0  0  0
 36 38  2  0  0  0  0
 37 36  1  0  0  0  0
 38 39  1  0  0  0  0
 38 40  1  0  0  0  0
M  END
>  <minimizedAffinity>
-5.55225134

$$$$

 OpenBabel03242512133D

 40 43  0  0  1  0  0  0  0  0999 V2000
   35.0320   29.0640   39.7010 O   0  0  0  0  0  0  0  0  0  0  0  0
   36.0520   29.5590   40.7130 P   0  0  2  0  0  0  0  0  0  0  0  0
   35.6350   31.0240   41.3510 O   0  0  0  0  0  0  0  0  0  0  0  0
   36.3930   31.5860   41.6290 H   0  0  0  0  0  0  0  0  0  0  0  0
   37.5640   29.5000   39.9560 O   0  0  0  0  0  0  0  0  0  0  0  0
   39.2630   31.1690   39.3220 C   0  0  1  0  0  0  0  0  0  0  0  0
   39.5910   30.4820   40.7060 C   0  0  0  0  0  0  0  0  0  0  0  0
   38.2320   30.6710   40.2630 C   0  0  2  0  0  0  0  0  0  0  0  0
   39.5050   30.5580   38.4570 H   0  0  0  0  0  0  0  0  0  0  0  0
   39.9790   31.1490   41.5020 H   0  0  0  0  0  0  0  0  0  0  0  0
   40.1570   29.5330   40.5940 H   0  0  0  0  0  0  0  0  0  0  0  0
   37.5510   31.4640   40.6230 H   0  0  0  0  0  0  0  0  0  0  0  0
   39.6320   32.6160   39.3290 C   0  0  0  0  0  0  0  0  0  0  0  0
   38.7550   33.4170   39.6290 O   0  0  0  0  0  0  0  0  0  0  0  0
   41.7760   33.6570   39.9130 C   0  0  0  0  0  0  0  0  0  0  0  0
   40.9150   33.1310   39.0170 C   0  0  0  0  0  0  0  0  0  0  0  0
   41.3540   33.1020   37.6510 C   0  0  0  0  0  0  0  0  0  0  0  0
   42.5700   33.5800   37.2980 N   0  0  0  0  0  0  0  0  0  0  0  0
   43.3950   34.0980   38.2460 C   0  0  0  0  0  0  0  0  0  0  0  0
   43.0040   34.1310   39.5020 N   0  0  0  0  0  0  0  0  0  0  0  0
   41.4940   33.7030   40.9510 H   0  0  0  0  0  0  0  0  0  0  0  0
   40.7980   32.7170   36.8380 H   0  0  0  0  0  0  0  0  0  0  0  0
   44.3810   34.5010   38.0530 H   0  0  0  0  0  0  0  0  0  0  0  0
   36.0490   28.3200   41.9330 O   0  0  0  0  0  0  0  0  0  0  0  0
   37.1200   27.4970   42.1920 C   0  0  0  0  0  0  0  0  0  0  0  0
   38.1050   27.6130   43.1650 C   0  0  0  0  0  0  0  0  0  0  0  0
   39.1050   26.6660   43.2550 C   0  0  0  0  0  0  0  0  0  0  0  0
   39.1170   25.6230   42.3860 N   0  0  0  0  0  0  0  0  0  0  0  0
   38.1590   25.5070   41.4370 C   0  0  0  0  0  0  0  0  0  0  0  0
   37.1580   26.4340   41.3280 N   0  0  0  0  0  0  0  0  0  0  0  0
   37.9680   28.4770   43.7710 H   0  0  0  0  0  0  0  0  0  0  0  0
   39.8260   26.8150   44.0210 H   0  0  0  0  0  0  0  0  0  0  0  0
   38.2060   24.3690   40.5200 C   0  0  0  0  0  0  0  0  0  0  0  0
   38.2690   23.0040   40.7050 C   0  0  0  0  0  0  0  0  0  0  0  0
   38.2940   22.5820   41.6770 H   0  0  0  0  0  0  0  0  0  0  0  0
   38.2870   22.4880   39.4160 C   0  0  0  0  0  0  0  0  0  0  0  0
   38.3350   21.4150   39.2340 H   0  0  0  0  0  0  0  0  0  0  0  0
   38.2340   23.5390   38.5150 C   0  0  0  0  0  0  0  0  0  0  0  0
   38.2330   23.4360   37.4330 H   0  0  0  0  0  0  0  0  0  0  0  0
   38.1870   24.6420   39.2400 O   0  0  0  0  0  0  0  0  0  0  0  0
  2  1  2  6  0  0  0
  2  3  1  0  0  0  0
  2 24  1  0  0  0  0
  3  4  1  0  0  0  0
  5  8  1  0  0  0  0
  5  2  1  0  0  0  0
  6  9  1  6  0  0  0
  6 13  1  0  0  0  0
  6  8  1  0  0  0  0
  6  7  1  0  0  0  0
  7 10  1  0  0  0  0
  8 12  1  1  0  0  0
  8  7  1  0  0  0  0
 11  7  1  0  0  0  0
 13 14  2  0  0  0  0
 15 21  1  0  0  0  0
 16 13  1  0  0  0  0
 16 15  2  0  0  0  0
 17 16  1  0  0  0  0
 18 17  2  0  0  0  0
 18 19  1  0  0  0  0
 19 20  2  0  0  0  0
 20 15  1  0  0  0  0
 22 17  1  0  0  0  0
 23 19  1  0  0  0  0
 24 25  1  0  0  0  0
 25 26  1  0  0  0  0
 26 27  2  0  0  0  0
 26 31  1  0  0  0  0
 27 32  1  0  0  0  0
 28 27  1  0  0  0  0
 29 28  2  0  0  0  0
 30 29  1  0  0  0  0
 30 25  2  0  0  0  0
 33 34  2  0  0  0  0
 33 29  1  0  0  0  0
 34 35  1  0  0  0  0
 36 34  1  0  0  0  0
 37 36  1  0  0  0  0
 38 40  1  0  0  0  0
 38 36  2  0  0  0  0
 39 38  1  0  0  0  0
 40 33  1  0  0  0  0
M  END
>  <minimizedAffinity>
-5.51776457

$$$$

 OpenBabel03242512133D

 40 43  0  0  1  0  0  0  0  0999 V2000
   38.8750   27.1570   44.2530 O   0  0  0  0  0  0  0  0  0  0  0  0
   37.7260   27.8290   43.5170 P   0  0  2  0  0  0  0  0  0  0  0  0
   36.7730   28.7180   44.5310 O   0  0  0  0  0  0  0  0  0  0  0  0
   35.8310   28.7930   44.2550 H   0  0  0  0  0  0  0  0  0  0  0  0
   36.9280   26.6200   42.6440 O   0  0  0  0  0  0  0  0  0  0  0  0
   36.8250   26.1820   40.2210 C   0  0  1  0  0  0  0  0  0  0  0  0
   37.6590   25.0820   40.9890 C   0  0  0  0  0  0  0  0  0  0  0  0
   37.6060   26.4470   41.4510 C   0  0  2  0  0  0  0  0  0  0  0  0
   35.7490   26.0650   40.3110 H   0  0  0  0  0  0  0  0  0  0  0  0
   38.5850   24.7350   40.4900 H   0  0  0  0  0  0  0  0  0  0  0  0
   37.0260   24.2630   41.3910 H   0  0  0  0  0  0  0  0  0  0  0  0
   38.4060   27.1970   41.3080 H   0  0  0  0  0  0  0  0  0  0  0  0
   37.4220   26.4870   38.8860 C   0  0  0  0  0  0  0  0  0  0  0  0
   37.5280   25.5580   38.0940 O   0  0  0  0  0  0  0  0  0  0  0  0
   37.1250   28.6680   37.8020 C   0  0  0  0  0  0  0  0  0  0  0  0
   37.8740   27.7630   38.4670 C   0  0  0  0  0  0  0  0  0  0  0  0
   39.2260   28.1450   38.7610 C   0  0  0  0  0  0  0  0  0  0  0  0
   39.7070   29.3530   38.3850 N   0  0  0  0  0  0  0  0  0  0  0  0
   38.9050   30.2240   37.7170 C   0  0  0  0  0  0  0  0  0  0  0  0
   37.6640   29.8860   37.4410 N   0  0  0  0  0  0  0  0  0  0  0  0
   36.1050   28.4310   37.5570 H   0  0  0  0  0  0  0  0  0  0  0  0
   39.9300   27.5510   39.2780 H   0  0  0  0  0  0  0  0  0  0  0  0
   39.2070   31.2060   37.3790 H   0  0  0  0  0  0  0  0  0  0  0  0
   38.5270   28.8460   42.3550 O   0  0  0  0  0  0  0  0  0  0  0  0
   37.9100   29.8740   41.6840 C   0  0  0  0  0  0  0  0  0  0  0  0
   36.6000   29.9700   41.2310 C   0  0  0  0  0  0  0  0  0  0  0  0
   36.1760   31.1050   40.5700 C   0  0  0  0  0  0  0  0  0  0  0  0
   37.0490   32.1240   40.3670 N   0  0  0  0  0  0  0  0  0  0  0  0
   38.3260   32.0350   40.8070 C   0  0  0  0  0  0  0  0  0  0  0  0
   38.7690   30.9190   41.4640 N   0  0  0  0  0  0  0  0  0  0  0  0
   36.0330   29.0990   41.4600 H   0  0  0  0  0  0  0  0  0  0  0  0
   35.1620   31.1120   40.2510 H   0  0  0  0  0  0  0  0  0  0  0  0
   39.2360   33.1540   40.5690 C   0  0  0  0  0  0  0  0  0  0  0  0
   40.5670   33.2370   40.2180 C   0  0  0  0  0  0  0  0  0  0  0  0
   41.1490   32.3640   40.0630 H   0  0  0  0  0  0  0  0  0  0  0  0
   40.8170   34.6010   40.1550 C   0  0  0  0  0  0  0  0  0  0  0  0
   41.8020   34.9870   39.8960 H   0  0  0  0  0  0  0  0  0  0  0  0
   39.6500   35.2820   40.4640 C   0  0  0  0  0  0  0  0  0  0  0  0
   39.5460   36.3640   40.4940 H   0  0  0  0  0  0  0  0  0  0  0  0
   38.7380   34.3570   40.7030 O   0  0  0  0  0  0  0  0  0  0  0  0
  2  1  2  1  0  0  0
  2  3  1  0  0  0  0
  4  3  1  0  0  0  0
  5  2  1  0  0  0  0
  6  9  1  1  0  0  0
  6  7  1  0  0  0  0
  6  8  1  0  0  0  0
  7 11  1  0  0  0  0
  7  8  1  0  0  0  0
  8 12  1  6  0  0  0
  8  5  1  0  0  0  0
 10  7  1  0  0  0  0
 13  6  1  0  0  0  0
 14 13  2  0  0  0  0
 15 16  1  0  0  0  0
 16 17  2  0  0  0  0
 16 13  1  0  0  0  0
 17 22  1  0  0  0  0
 18 17  1  0  0  0  0
 19 18  2  0  0  0  0
 20 19  1  0  0  0  0
 20 15  2  0  0  0  0
 21 15  1  0  0  0  0
 23 19  1  0  0  0  0
 24  2  1  0  0  0  0
 25 24  1  0  0  0  0
 26 31  1  0  0  0  0
 26 25  2  0  0  0  0
 27 26  1  0  0  0  0
 28 27  2  0  0  0  0
 28 29  1  0  0  0  0
 29 30  2  0  0  0  0
 30 25  1  0  0  0  0
 32 27  1  0  0  0  0
 33 40  1  0  0  0  0
 33 29  1  0  0  0  0
 34 33  2  0  0  0  0
 35 34  1  0  0  0  0
 36 34  1  0  0  0  0
 36 38  2  0  0  0  0
 37 36  1  0  0  0  0
 38 39  1  0  0  0  0
 38 40  1  0  0  0  0
M  END
>  <minimizedAffinity>
-5.51204395

$$$$

 OpenBabel03242512133D

 40 43  0  0  1  0  0  0  0  0999 V2000
   36.9150   26.8660   42.4380 O   0  0  0  0  0  0  0  0  0  0  0  0
   36.9850   28.3530   42.1290 P   0  0  2  0  0  0  0  0  0  0  0  0
   37.0140   29.2720   43.5010 O   0  0  0  0  0  0  0  0  0  0  0  0
   36.6190   30.1690   43.4080 H   0  0  0  0  0  0  0  0  0  0  0  0
   35.7250   28.6930   41.0540 O   0  0  0  0  0  0  0  0  0  0  0  0
   35.8630   29.6280   38.7780 C   0  0  1  0  0  0  0  0  0  0  0  0
   35.2680   28.1640   38.7850 C   0  0  0  0  0  0  0  0  0  0  0  0
   36.2300   28.5910   39.7710 C   0  0  2  0  0  0  0  0  0  0  0  0
   35.1530   30.3950   39.0760 H   0  0  0  0  0  0  0  0  0  0  0  0
   35.6140   27.4940   37.9730 H   0  0  0  0  0  0  0  0  0  0  0  0
   34.1710   28.1450   38.9520 H   0  0  0  0  0  0  0  0  0  0  0  0
   37.3060   28.3380   39.7600 H   0  0  0  0  0  0  0  0  0  0  0  0
   36.7380   29.8570   37.5890 C   0  0  0  0  0  0  0  0  0  0  0  0
   36.2200   29.7540   36.4840 O   0  0  0  0  0  0  0  0  0  0  0  0
   39.1180   29.2890   37.7750 C   0  0  0  0  0  0  0  0  0  0  0  0
   38.1160   30.1830   37.6430 C   0  0  0  0  0  0  0  0  0  0  0  0
   38.5000   31.5630   37.5490 C   0  0  0  0  0  0  0  0  0  0  0  0
   39.8020   31.9300   37.5930 N   0  0  0  0  0  0  0  0  0  0  0  0
   40.7680   30.9830   37.7280 C   0  0  0  0  0  0  0  0  0  0  0  0
   40.4300   29.7140   37.8150 N   0  0  0  0  0  0  0  0  0  0  0  0
   38.8830   28.2410   37.8500 H   0  0  0  0  0  0  0  0  0  0  0  0
   37.8350   32.3760   37.4360 H   0  0  0  0  0  0  0  0  0  0  0  0
   41.8300   31.1860   37.7730 H   0  0  0  0  0  0  0  0  0  0  0  0
   38.4680   28.5130   41.2350 O   0  0  0  0  0  0  0  0  0  0  0  0
   39.4620   29.4090   41.5540 C   0  0  0  0  0  0  0  0  0  0  0  0
   40.6510   29.1970   42.2420 C   0  0  0  0  0  0  0  0  0  0  0  0
   41.5220   30.2450   42.4590 C   0  0  0  0  0  0  0  0  0  0  0  0
   41.2060   31.4820   41.9960 N   0  0  0  0  0  0  0  0  0  0  0  0
   40.0490   31.6920   41.3250 C   0  0  0  0  0  0  0  0  0  0  0  0
   39.1700   30.6670   41.0990 N   0  0  0  0  0  0  0  0  0  0  0  0
   40.7630   28.1830   42.5440 H   0  0  0  0  0  0  0  0  0  0  0  0
   42.4120   30.0140   42.9910 H   0  0  0  0  0  0  0  0  0  0  0  0
   39.7460   33.0370   40.8420 C   0  0  0  0  0  0  0  0  0  0  0  0
   38.5720   33.7330   40.6450 C   0  0  0  0  0  0  0  0  0  0  0  0
   37.6310   33.2910   40.8550 H   0  0  0  0  0  0  0  0  0  0  0  0
   38.9850   34.9680   40.1650 C   0  0  0  0  0  0  0  0  0  0  0  0
   38.2690   35.7490   39.9130 H   0  0  0  0  0  0  0  0  0  0  0  0
   40.3700   34.9770   40.0920 C   0  0  0  0  0  0  0  0  0  0  0  0
   40.9730   35.8140   39.7510 H   0  0  0  0  0  0  0  0  0  0  0  0
   40.7660   33.7890   40.5120 O   0  0  0  0  0  0  0  0  0  0  0  0
  2  1  2  1  0  0  0
  2  3  1  0  0  0  0
  4  3  1  0  0  0  0
  5  2  1  0  0  0  0
  6  7  1  0  0  0  0
  6  9  1  1  0  0  0
  6  8  1  0  0  0  0
  7 11  1  0  0  0  0
  7  8  1  0  0  0  0
  8 12  1  6  0  0  0
  8  5  1  0  0  0  0
 10  7  1  0  0  0  0
 13 16  1  0  0  0  0
 13  6  1  0  0  0  0
 14 13  2  0  0  0  0
 15 20  1  0  0  0  0
 15 21  1  0  0  0  0
 16 15  2  0  0  0  0
 17 18  2  0  0  0  0
 17 16  1  0  0  0  0
 18 19  1  0  0  0  0
 19 23  1  0  0  0  0
 19 20  2  0  0  0  0
 22 17  1  0  0  0  0
 24 25  1  0  0  0  0
 24  2  1  0  0  0  0
 25 26  1  0  0  0  0
 26 27  2  0  0  0  0
 26 31  1  0  0  0  0
 27 32  1  0  0  0  0
 28 27  1  0  0  0  0
 29 28  2  0  0  0  0
 30 29  1  0  0  0  0
 30 25  2  0  0  0  0
 33 29  1  0  0  0  0
 34 33  2  0  0  0  0
 34 35  1  0  0  0  0
 36 34  1  0  0  0  0
 37 36  1  0  0  0  0
 38 36  2  0  0  0  0
 38 40  1  0  0  0  0
 39 38  1  0  0  0  0
 40 33  1  0  0  0  0
M  END
>  <minimizedAffinity>
-5.40467691

$$$$
