
 OpenBabel03242520113D

 28 30  0  0  0  0  0  0  0  0999 V2000
   37.4960   28.4380   41.6520 C   0  0  0  0  0  0  0  0  0  0  0  0
   36.2240   28.1390   41.2870 C   0  0  0  0  0  0  0  0  0  0  0  0
   35.4520   29.1100   40.6850 C   0  0  0  0  0  0  0  0  0  0  0  0
   35.9730   30.3740   40.4590 C   0  0  0  0  0  0  0  0  0  0  0  0
   37.2680   30.6480   40.8410 C   0  0  0  0  0  0  0  0  0  0  0  0
   37.9570   29.6810   41.4090 N   0  0  0  0  0  0  0  0  0  0  0  0
   35.8110   27.1540   41.4600 H   0  0  0  0  0  0  0  0  0  0  0  0
   34.4270   28.9430   40.3680 H   0  0  0  0  0  0  0  0  0  0  0  0
   35.4190   31.1920   39.9880 H   0  0  0  0  0  0  0  0  0  0  0  0
   39.0160   25.2710   42.7170 C   0  0  0  0  0  0  0  0  0  0  0  0
   40.0880   25.7300   43.5160 C   0  0  0  0  0  0  0  0  0  0  0  0
   40.2790   27.1060   43.6800 C   0  0  0  0  0  0  0  0  0  0  0  0
   39.3990   27.9060   43.0440 N   0  0  0  0  0  0  0  0  0  0  0  0
   38.3900   27.4760   42.2930 C   0  0  0  0  0  0  0  0  0  0  0  0
   38.2180   26.1660   42.1440 N   0  0  0  0  0  0  0  0  0  0  0  0
   38.8250   23.8730   42.5530 N   0  0  0  0  0  0  0  0  0  0  0  0
   40.7250   24.9950   43.9720 H   0  0  0  0  0  0  0  0  0  0  0  0
   41.0910   27.4530   44.2840 H   0  0  0  0  0  0  0  0  0  0  0  0
   39.5420   23.1360   42.3490 H   0  0  0  0  0  0  0  0  0  0  0  0
   37.8330   23.6150   42.6610 H   0  0  0  0  0  0  0  0  0  0  0  0
   37.9240   31.9380   40.6550 C   0  0  0  0  0  0  0  0  0  0  0  0
   37.3200   32.9560   39.9080 C   0  0  0  0  0  0  0  0  0  0  0  0
   36.3860   33.0440   39.3700 H   0  0  0  0  0  0  0  0  0  0  0  0
   38.1810   34.0180   39.9270 C   0  0  0  0  0  0  0  0  0  0  0  0
   38.2310   35.0230   39.5340 H   0  0  0  0  0  0  0  0  0  0  0  0
   39.2700   33.6290   40.6720 C   0  0  0  0  0  0  0  0  0  0  0  0
   40.2350   33.9890   41.0390 H   0  0  0  0  0  0  0  0  0  0  0  0
   39.0580   32.3910   41.0740 O   0  0  0  0  0  0  0  0  0  0  0  0
  1 14  1  0  0  0  0
  2  7  1  0  0  0  0
  2  1  2  0  0  0  0
  3  2  1  0  0  0  0
  4  3  2  0  0  0  0
  4  5  1  0  0  0  0
  5  6  2  0  0  0  0
  6  1  1  0  0  0  0
  8  3  1  0  0  0  0
  9  4  1  0  0  0  0
 10 11  1  0  0  0  0
 11 12  2  0  0  0  0
 11 17  1  0  0  0  0
 12 18  1  0  0  0  0
 13 12  1  0  0  0  0
 14 13  2  0  0  0  0
 15 14  1  0  0  0  0
 15 10  2  0  0  0  0
 16 20  1  0  0  0  0
 16 10  1  0  0  0  0
 19 16  1  0  0  0  0
 21  5  1  0  0  0  0
 21 28  1  0  0  0  0
 22 24  1  0  0  0  0
 22 21  2  0  0  0  0
 23 22  1  0  0  0  0
 24 26  2  0  0  0  0
 25 24  1  0  0  0  0
 26 27  1  0  0  0  0
 26 28  1  0  0  0  0
M  END
>  <minimizedAffinity>
-5.6041975

$$$$

 OpenBabel03242520113D

 28 30  0  0  0  0  0  0  0  0999 V2000
   37.3860   29.0700   41.3560 C   0  0  0  0  0  0  0  0  0  0  0  0
   37.5320   29.3520   42.6750 C   0  0  0  0  0  0  0  0  0  0  0  0
   37.5600   28.3160   43.5840 C   0  0  0  0  0  0  0  0  0  0  0  0
   37.4390   27.0050   43.1510 C   0  0  0  0  0  0  0  0  0  0  0  0
   37.2920   26.7510   41.8050 C   0  0  0  0  0  0  0  0  0  0  0  0
   37.2730   27.7800   40.9840 N   0  0  0  0  0  0  0  0  0  0  0  0
   37.6270   30.3730   43.0190 H   0  0  0  0  0  0  0  0  0  0  0  0
   37.6740   28.4660   44.6530 H   0  0  0  0  0  0  0  0  0  0  0  0
   37.4530   26.1350   43.8140 H   0  0  0  0  0  0  0  0  0  0  0  0
   37.2610   32.3470   39.7050 C   0  0  0  0  0  0  0  0  0  0  0  0
   37.2710   31.9740   38.3410 C   0  0  0  0  0  0  0  0  0  0  0  0
   37.3210   30.6180   38.0030 C   0  0  0  0  0  0  0  0  0  0  0  0
   37.3550   29.7510   39.0360 N   0  0  0  0  0  0  0  0  0  0  0  0
   37.3460   30.1000   40.3190 C   0  0  0  0  0  0  0  0  0  0  0  0
   37.2980   31.3920   40.6290 N   0  0  0  0  0  0  0  0  0  0  0  0
   37.2100   33.7250   40.0440 N   0  0  0  0  0  0  0  0  0  0  0  0
   37.2410   32.7570   37.6070 H   0  0  0  0  0  0  0  0  0  0  0  0
   37.3290   30.3350   36.9720 H   0  0  0  0  0  0  0  0  0  0  0  0
   37.7600   34.5190   39.6350 H   0  0  0  0  0  0  0  0  0  0  0  0
   36.5260   33.9020   40.7950 H   0  0  0  0  0  0  0  0  0  0  0  0
   37.1560   25.4160   41.2310 C   0  0  0  0  0  0  0  0  0  0  0  0
   37.9190   24.3430   41.7070 C   0  0  0  0  0  0  0  0  0  0  0  0
   38.6690   24.2340   42.4770 H   0  0  0  0  0  0  0  0  0  0  0  0
   37.5580   23.2500   40.9690 C   0  0  0  0  0  0  0  0  0  0  0  0
   37.8100   22.2020   40.9040 H   0  0  0  0  0  0  0  0  0  0  0  0
   36.6010   23.6740   40.0770 C   0  0  0  0  0  0  0  0  0  0  0  0
   35.9560   23.3160   39.2700 H   0  0  0  0  0  0  0  0  0  0  0  0
   36.4060   24.9630   40.2820 O   0  0  0  0  0  0  0  0  0  0  0  0
  1  2  1  0  0  0  0
  2  7  1  0  0  0  0
  2  3  2  0  0  0  0
  3  8  1  0  0  0  0
  4  3  1  0  0  0  0
  4  9  1  0  0  0  0
  5  4  2  0  0  0  0
  6  1  2  0  0  0  0
  6  5  1  0  0  0  0
 10 16  1  0  0  0  0
 10 15  1  0  0  0  0
 11 10  2  0  0  0  0
 12 11  1  0  0  0  0
 12 13  2  0  0  0  0
 13 14  1  0  0  0  0
 14 15  2  0  0  0  0
 14  1  1  0  0  0  0
 16 20  1  0  0  0  0
 17 11  1  0  0  0  0
 18 12  1  0  0  0  0
 19 16  1  0  0  0  0
 21 22  2  0  0  0  0
 21  5  1  0  0  0  0
 22 23  1  0  0  0  0
 24 22  1  0  0  0  0
 25 24  1  0  0  0  0
 26 28  1  0  0  0  0
 26 24  2  0  0  0  0
 27 26  1  0  0  0  0
 28 21  1  0  0  0  0
M  END
>  <minimizedAffinity>
-5.52726364

$$$$

 OpenBabel03242520113D

 28 30  0  0  0  0  0  0  0  0999 V2000
   39.0190   31.4760   39.0410 C   0  0  0  0  0  0  0  0  0  0  0  0
   37.9910   32.3450   38.8710 C   0  0  0  0  0  0  0  0  0  0  0  0
   36.8510   32.1920   39.6310 C   0  0  0  0  0  0  0  0  0  0  0  0
   36.7610   31.1640   40.5560 C   0  0  0  0  0  0  0  0  0  0  0  0
   37.8230   30.2980   40.7060 C   0  0  0  0  0  0  0  0  0  0  0  0
   38.8850   30.4930   39.9530 N   0  0  0  0  0  0  0  0  0  0  0  0
   38.0540   33.1490   38.1500 H   0  0  0  0  0  0  0  0  0  0  0  0
   35.9890   32.8470   39.5490 H   0  0  0  0  0  0  0  0  0  0  0  0
   35.8900   30.9830   41.1930 H   0  0  0  0  0  0  0  0  0  0  0  0
   41.9080   32.8290   37.2240 C   0  0  0  0  0  0  0  0  0  0  0  0
   42.5940   31.6450   36.8680 C   0  0  0  0  0  0  0  0  0  0  0  0
   42.0670   30.4080   37.2510 C   0  0  0  0  0  0  0  0  0  0  0  0
   40.9130   30.4450   37.9480 N   0  0  0  0  0  0  0  0  0  0  0  0
   40.2660   31.5580   38.2830 C   0  0  0  0  0  0  0  0  0  0  0  0
   40.7760   32.7280   37.9140 N   0  0  0  0  0  0  0  0  0  0  0  0
   42.4460   34.0840   36.8340 N   0  0  0  0  0  0  0  0  0  0  0  0
   43.5070   31.7430   36.3110 H   0  0  0  0  0  0  0  0  0  0  0  0
   42.5870   29.5120   36.9820 H   0  0  0  0  0  0  0  0  0  0  0  0
   43.4390   34.4160   36.8940 H   0  0  0  0  0  0  0  0  0  0  0  0
   41.7160   34.7020   36.4500 H   0  0  0  0  0  0  0  0  0  0  0  0
   37.8460   29.1810   41.6450 C   0  0  0  0  0  0  0  0  0  0  0  0
   38.6380   29.2210   42.7980 C   0  0  0  0  0  0  0  0  0  0  0  0
   39.3170   29.9480   43.2220 H   0  0  0  0  0  0  0  0  0  0  0  0
   38.4350   28.0380   43.4520 C   0  0  0  0  0  0  0  0  0  0  0  0
   38.7720   27.5460   44.3530 H   0  0  0  0  0  0  0  0  0  0  0  0
   37.5390   27.3180   42.6970 C   0  0  0  0  0  0  0  0  0  0  0  0
   37.0050   26.3640   42.6710 H   0  0  0  0  0  0  0  0  0  0  0  0
   37.2280   28.0470   41.6430 O   0  0  0  0  0  0  0  0  0  0  0  0
  1  6  1  0  0  0  0
  2  1  2  0  0  0  0
  2  3  1  0  0  0  0
  3  4  2  0  0  0  0
  4  5  1  0  0  0  0
  4  9  1  0  0  0  0
  5 21  1  0  0  0  0
  6  5  2  0  0  0  0
  7  2  1  0  0  0  0
  8  3  1  0  0  0  0
 10 15  1  0  0  0  0
 11 10  2  0  0  0  0
 11 12  1  0  0  0  0
 12 13  2  0  0  0  0
 13 14  1  0  0  0  0
 14  1  1  0  0  0  0
 15 14  2  0  0  0  0
 16 19  1  0  0  0  0
 16 10  1  0  0  0  0
 17 11  1  0  0  0  0
 18 12  1  0  0  0  0
 20 16  1  0  0  0  0
 21 22  2  0  0  0  0
 22 23  1  0  0  0  0
 22 24  1  0  0  0  0
 24 25  1  0  0  0  0
 26 24  2  0  0  0  0
 27 26  1  0  0  0  0
 28 21  1  0  0  0  0
 28 26  1  0  0  0  0
M  END
>  <minimizedAffinity>
-5.35255432

$$$$

 OpenBabel03242520113D

 28 30  0  0  0  0  0  0  0  0999 V2000
   38.9590   31.9810   39.7580 C   0  0  0  0  0  0  0  0  0  0  0  0
   38.0730   32.2000   38.7540 C   0  0  0  0  0  0  0  0  0  0  0  0
   36.8960   31.4820   38.7280 C   0  0  0  0  0  0  0  0  0  0  0  0
   36.6270   30.5490   39.7160 C   0  0  0  0  0  0  0  0  0  0  0  0
   37.5460   30.3480   40.7230 C   0  0  0  0  0  0  0  0  0  0  0  0
   38.6510   31.0630   40.6960 N   0  0  0  0  0  0  0  0  0  0  0  0
   38.2770   32.9270   37.9790 H   0  0  0  0  0  0  0  0  0  0  0  0
   36.1420   31.6030   37.9560 H   0  0  0  0  0  0  0  0  0  0  0  0
   35.7160   29.9440   39.7590 H   0  0  0  0  0  0  0  0  0  0  0  0
   42.0830   33.3330   41.1320 C   0  0  0  0  0  0  0  0  0  0  0  0
   42.5940   34.0410   40.0200 C   0  0  0  0  0  0  0  0  0  0  0  0
   41.8720   34.0490   38.8220 C   0  0  0  0  0  0  0  0  0  0  0  0
   40.7120   33.3600   38.8260 N   0  0  0  0  0  0  0  0  0  0  0  0
   40.2300   32.6930   39.8710 C   0  0  0  0  0  0  0  0  0  0  0  0
   40.9250   32.6930   41.0030 N   0  0  0  0  0  0  0  0  0  0  0  0
   42.8200   33.3280   42.3460 N   0  0  0  0  0  0  0  0  0  0  0  0
   43.5310   34.5530   40.1380 H   0  0  0  0  0  0  0  0  0  0  0  0
   42.2580   34.5840   37.9810 H   0  0  0  0  0  0  0  0  0  0  0  0
   43.8480   33.1810   42.4850 H   0  0  0  0  0  0  0  0  0  0  0  0
   42.2060   33.4960   43.1570 H   0  0  0  0  0  0  0  0  0  0  0  0
   37.3740   29.3960   41.8150 C   0  0  0  0  0  0  0  0  0  0  0  0
   36.5360   28.2830   41.6790 C   0  0  0  0  0  0  0  0  0  0  0  0
   35.9110   27.9020   40.8840 H   0  0  0  0  0  0  0  0  0  0  0  0
   36.5950   27.6030   42.8640 C   0  0  0  0  0  0  0  0  0  0  0  0
   36.1710   26.7120   43.3050 H   0  0  0  0  0  0  0  0  0  0  0  0
   37.4520   28.3050   43.6790 C   0  0  0  0  0  0  0  0  0  0  0  0
   37.8930   28.2920   44.6790 H   0  0  0  0  0  0  0  0  0  0  0  0
   37.8790   29.3530   43.0030 O   0  0  0  0  0  0  0  0  0  0  0  0
  1 14  1  0  0  0  0
  1  6  1  0  0  0  0
  2  1  2  0  0  0  0
  3  2  1  0  0  0  0
  3  4  2  0  0  0  0
  4  9  1  0  0  0  0
  4  5  1  0  0  0  0
  5 21  1  0  0  0  0
  6  5  2  0  0  0  0
  7  2  1  0  0  0  0
  8  3  1  0  0  0  0
 10 16  1  0  0  0  0
 11 17  1  0  0  0  0
 11 10  2  0  0  0  0
 12 13  2  0  0  0  0
 12 11  1  0  0  0  0
 13 14  1  0  0  0  0
 14 15  2  0  0  0  0
 15 10  1  0  0  0  0
 16 19  1  0  0  0  0
 16 20  1  0  0  0  0
 18 12  1  0  0  0  0
 21 28  1  0  0  0  0
 22 21  2  0  0  0  0
 22 24  1  0  0  0  0
 23 22  1  0  0  0  0
 24 25  1  0  0  0  0
 24 26  2  0  0  0  0
 26 27  1  0  0  0  0
 28 26  1  0  0  0  0
M  END
>  <minimizedAffinity>
-5.26987123

$$$$

 OpenBabel03242520113D

 28 30  0  0  0  0  0  0  0  0999 V2000
   36.6090   30.3850   38.5460 C   0  0  0  0  0  0  0  0  0  0  0  0
   36.9830   31.6860   38.6260 C   0  0  0  0  0  0  0  0  0  0  0  0
   37.4790   32.1710   39.8170 C   0  0  0  0  0  0  0  0  0  0  0  0
   37.5920   31.3350   40.9170 C   0  0  0  0  0  0  0  0  0  0  0  0
   37.2040   30.0180   40.8050 C   0  0  0  0  0  0  0  0  0  0  0  0
   36.7390   29.6120   39.6430 N   0  0  0  0  0  0  0  0  0  0  0  0
   36.8980   32.3440   37.7710 H   0  0  0  0  0  0  0  0  0  0  0  0
   37.7970   33.2000   39.9550 H   0  0  0  0  0  0  0  0  0  0  0  0
   37.9760   31.6510   41.8920 H   0  0  0  0  0  0  0  0  0  0  0  0
   36.2890   29.2670   35.0640 C   0  0  0  0  0  0  0  0  0  0  0  0
   35.0220   28.6390   35.0880 C   0  0  0  0  0  0  0  0  0  0  0  0
   34.2980   28.6040   36.2830 C   0  0  0  0  0  0  0  0  0  0  0  0
   34.8830   29.1900   37.3480 N   0  0  0  0  0  0  0  0  0  0  0  0
   36.0740   29.7810   37.3280 C   0  0  0  0  0  0  0  0  0  0  0  0
   36.7540   29.8080   36.1860 N   0  0  0  0  0  0  0  0  0  0  0  0
   37.0220   29.3000   33.8480 N   0  0  0  0  0  0  0  0  0  0  0  0
   34.6600   28.2060   34.1740 H   0  0  0  0  0  0  0  0  0  0  0  0
   33.3400   28.1290   36.3010 H   0  0  0  0  0  0  0  0  0  0  0  0
   37.1830   28.5240   33.1610 H   0  0  0  0  0  0  0  0  0  0  0  0
   37.4210   30.2350   33.6770 H   0  0  0  0  0  0  0  0  0  0  0  0
   37.2760   29.0460   41.8910 C   0  0  0  0  0  0  0  0  0  0  0  0
   36.4470   27.9170   41.9080 C   0  0  0  0  0  0  0  0  0  0  0  0
   35.6790   27.5350   41.2500 H   0  0  0  0  0  0  0  0  0  0  0  0
   36.7610   27.2210   43.0420 C   0  0  0  0  0  0  0  0  0  0  0  0
   36.4520   26.3150   43.5430 H   0  0  0  0  0  0  0  0  0  0  0  0
   37.7540   27.9280   43.6780 C   0  0  0  0  0  0  0  0  0  0  0  0
   38.3910   27.9080   44.5660 H   0  0  0  0  0  0  0  0  0  0  0  0
   38.0150   28.9950   42.9490 O   0  0  0  0  0  0  0  0  0  0  0  0
  1  2  2  0  0  0  0
  1  6  1  0  0  0  0
  2  3  1  0  0  0  0
  3  8  1  0  0  0  0
  3  4  2  0  0  0  0
  4  9  1  0  0  0  0
  5  4  1  0  0  0  0
  5 21  1  0  0  0  0
  6  5  2  0  0  0  0
  7  2  1  0  0  0  0
 10 11  2  0  0  0  0
 10 15  1  0  0  0  0
 11 12  1  0  0  0  0
 12 18  1  0  0  0  0
 12 13  2  0  0  0  0
 14 13  1  0  0  0  0
 14  1  1  0  0  0  0
 15 14  2  0  0  0  0
 16 10  1  0  0  0  0
 17 11  1  0  0  0  0
 19 16  1  0  0  0  0
 20 16  1  0  0  0  0
 21 22  2  0  0  0  0
 21 28  1  0  0  0  0
 22 24  1  0  0  0  0
 23 22  1  0  0  0  0
 24 25  1  0  0  0  0
 24 26  2  0  0  0  0
 26 27  1  0  0  0  0
 28 26  1  0  0  0  0
M  END
>  <minimizedAffinity>
-5.14398718

$$$$

 OpenBabel03242520113D

 28 30  0  0  0  0  0  0  0  0999 V2000
   39.1740   27.7550   42.7630 C   0  0  0  0  0  0  0  0  0  0  0  0
   38.2000   27.0950   43.4390 C   0  0  0  0  0  0  0  0  0  0  0  0
   36.8800   27.3440   43.1290 C   0  0  0  0  0  0  0  0  0  0  0  0
   36.5570   28.2570   42.1390 C   0  0  0  0  0  0  0  0  0  0  0  0
   37.5670   28.9120   41.4690 C   0  0  0  0  0  0  0  0  0  0  0  0
   38.8080   28.6330   41.8070 N   0  0  0  0  0  0  0  0  0  0  0  0
   38.4460   26.3810   44.2140 H   0  0  0  0  0  0  0  0  0  0  0  0
   36.0500   26.8550   43.6290 H   0  0  0  0  0  0  0  0  0  0  0  0
   35.5330   28.5040   41.8400 H   0  0  0  0  0  0  0  0  0  0  0  0
   42.4120   26.1340   43.3650 C   0  0  0  0  0  0  0  0  0  0  0  0
   43.2640   27.2540   43.5010 C   0  0  0  0  0  0  0  0  0  0  0  0
   42.7280   28.5410   43.3860 C   0  0  0  0  0  0  0  0  0  0  0  0
   41.4020   28.6100   43.1480 N   0  0  0  0  0  0  0  0  0  0  0  0
   40.5990   27.5580   43.0200 C   0  0  0  0  0  0  0  0  0  0  0  0
   41.1200   26.3410   43.1310 N   0  0  0  0  0  0  0  0  0  0  0  0
   42.9610   24.8300   43.4820 N   0  0  0  0  0  0  0  0  0  0  0  0
   44.3060   27.0720   43.6900 H   0  0  0  0  0  0  0  0  0  0  0  0
   43.3720   29.3880   43.4890 H   0  0  0  0  0  0  0  0  0  0  0  0
   43.8400   24.4500   43.0570 H   0  0  0  0  0  0  0  0  0  0  0  0
   42.3710   24.2270   44.0760 H   0  0  0  0  0  0  0  0  0  0  0  0
   37.3510   29.8920   40.4090 C   0  0  0  0  0  0  0  0  0  0  0  0
   37.0930   31.2350   40.7080 C   0  0  0  0  0  0  0  0  0  0  0  0
   37.0020   31.8000   41.6250 H   0  0  0  0  0  0  0  0  0  0  0  0
   36.9400   31.8780   39.5110 C   0  0  0  0  0  0  0  0  0  0  0  0
   36.7350   32.8760   39.1520 H   0  0  0  0  0  0  0  0  0  0  0  0
   37.1040   30.9290   38.5290 C   0  0  0  0  0  0  0  0  0  0  0  0
   37.1040   30.8050   37.4430 H   0  0  0  0  0  0  0  0  0  0  0  0
   37.3450   29.7760   39.1230 O   0  0  0  0  0  0  0  0  0  0  0  0
  1 14  1  0  0  0  0
  1  2  1  0  0  0  0
  2  7  1  0  0  0  0
  3  2  2  0  0  0  0
  3  8  1  0  0  0  0
  4  3  1  0  0  0  0
  5  6  1  0  0  0  0
  5  4  2  0  0  0  0
  6  1  2  0  0  0  0
  9  4  1  0  0  0  0
 10 16  1  0  0  0  0
 10 11  1  0  0  0  0
 11 17  1  0  0  0  0
 12 18  1  0  0  0  0
 12 11  2  0  0  0  0
 13 12  1  0  0  0  0
 14 15  1  0  0  0  0
 14 13  2  0  0  0  0
 15 10  2  0  0  0  0
 16 20  1  0  0  0  0
 19 16  1  0  0  0  0
 21 22  2  0  0  0  0
 21  5  1  0  0  0  0
 22 23  1  0  0  0  0
 24 22  1  0  0  0  0
 25 24  1  0  0  0  0
 26 28  1  0  0  0  0
 26 24  2  0  0  0  0
 27 26  1  0  0  0  0
 28 21  1  0  0  0  0
M  END
>  <minimizedAffinity>
-5.07076359

$$$$

 OpenBabel03242520113D

 28 30  0  0  0  0  0  0  0  0999 V2000
   37.1770   26.6740   41.5560 C   0  0  0  0  0  0  0  0  0  0  0  0
   37.1290   26.6630   42.9120 C   0  0  0  0  0  0  0  0  0  0  0  0
   37.2510   27.8530   43.5970 C   0  0  0  0  0  0  0  0  0  0  0  0
   37.4200   29.0420   42.9060 C   0  0  0  0  0  0  0  0  0  0  0  0
   37.4640   29.0210   41.5290 C   0  0  0  0  0  0  0  0  0  0  0  0
   37.3420   27.8560   40.9290 N   0  0  0  0  0  0  0  0  0  0  0  0
   36.9980   25.7390   43.4580 H   0  0  0  0  0  0  0  0  0  0  0  0
   37.2230   27.9220   44.6800 H   0  0  0  0  0  0  0  0  0  0  0  0
   37.5230   30.0220   43.3830 H   0  0  0  0  0  0  0  0  0  0  0  0
   37.5280   23.2090   40.3960 C   0  0  0  0  0  0  0  0  0  0  0  0
   36.7970   23.2430   39.1860 C   0  0  0  0  0  0  0  0  0  0  0  0
   36.1970   24.4400   38.7840 C   0  0  0  0  0  0  0  0  0  0  0  0
   36.3690   25.4960   39.6060 N   0  0  0  0  0  0  0  0  0  0  0  0
   37.0560   25.4650   40.7440 C   0  0  0  0  0  0  0  0  0  0  0  0
   37.6230   24.3220   41.1170 N   0  0  0  0  0  0  0  0  0  0  0  0
   38.1370   21.9910   40.8020 N   0  0  0  0  0  0  0  0  0  0  0  0
   36.7300   22.3360   38.6150 H   0  0  0  0  0  0  0  0  0  0  0  0
   35.6440   24.4660   37.8690 H   0  0  0  0  0  0  0  0  0  0  0  0
   37.7300   21.0250   40.7990 H   0  0  0  0  0  0  0  0  0  0  0  0
   39.1020   22.1460   41.1300 H   0  0  0  0  0  0  0  0  0  0  0  0
   37.6370   30.2050   40.6940 C   0  0  0  0  0  0  0  0  0  0  0  0
   36.6240   31.1650   40.5800 C   0  0  0  0  0  0  0  0  0  0  0  0
   35.6320   31.2670   40.9980 H   0  0  0  0  0  0  0  0  0  0  0  0
   37.0960   32.1320   39.7370 C   0  0  0  0  0  0  0  0  0  0  0  0
   36.7570   33.0650   39.3100 H   0  0  0  0  0  0  0  0  0  0  0  0
   38.3620   31.7470   39.3630 C   0  0  0  0  0  0  0  0  0  0  0  0
   39.2120   32.0590   38.7500 H   0  0  0  0  0  0  0  0  0  0  0  0
   38.6250   30.6010   39.9620 O   0  0  0  0  0  0  0  0  0  0  0  0
  1  2  1  0  0  0  0
  2  7  1  0  0  0  0
  2  3  2  0  0  0  0
  3  8  1  0  0  0  0
  4  9  1  0  0  0  0
  4  3  1  0  0  0  0
  5  4  2  0  0  0  0
  6  5  1  0  0  0  0
  6  1  2  0  0  0  0
 10 16  1  0  0  0  0
 10 15  1  0  0  0  0
 11 10  2  0  0  0  0
 12 11  1  0  0  0  0
 12 13  2  0  0  0  0
 13 14  1  0  0  0  0
 14 15  2  0  0  0  0
 14  1  1  0  0  0  0
 16 20  1  0  0  0  0
 17 11  1  0  0  0  0
 18 12  1  0  0  0  0
 19 16  1  0  0  0  0
 21  5  1  0  0  0  0
 22 21  2  0  0  0  0
 22 23  1  0  0  0  0
 24 22  1  0  0  0  0
 25 24  1  0  0  0  0
 26 24  2  0  0  0  0
 26 28  1  0  0  0  0
 27 26  1  0  0  0  0
 28 21  1  0  0  0  0
M  END
>  <minimizedAffinity>
-5.02020359

$$$$

 OpenBabel03242520113D

 28 30  0  0  0  0  0  0  0  0999 V2000
   37.8130   30.9700   39.2370 C   0  0  0  0  0  0  0  0  0  0  0  0
   36.9420   30.8330   38.2060 C   0  0  0  0  0  0  0  0  0  0  0  0
   36.0120   29.8150   38.2430 C   0  0  0  0  0  0  0  0  0  0  0  0
   35.9730   28.9460   39.3220 C   0  0  0  0  0  0  0  0  0  0  0  0
   36.8710   29.1110   40.3540 C   0  0  0  0  0  0  0  0  0  0  0  0
   37.7340   30.1010   40.2630 N   0  0  0  0  0  0  0  0  0  0  0  0
   36.9680   31.5070   37.3600 H   0  0  0  0  0  0  0  0  0  0  0  0
   35.2860   29.6440   37.4550 H   0  0  0  0  0  0  0  0  0  0  0  0
   35.2640   28.1180   39.4190 H   0  0  0  0  0  0  0  0  0  0  0  0
   40.6800   33.0850   38.3500 C   0  0  0  0  0  0  0  0  0  0  0  0
   40.7070   33.9890   39.4370 C   0  0  0  0  0  0  0  0  0  0  0  0
   39.7520   33.8680   40.4510 C   0  0  0  0  0  0  0  0  0  0  0  0
   38.8580   32.8680   40.3080 N   0  0  0  0  0  0  0  0  0  0  0  0
   38.8310   32.0170   39.2870 C   0  0  0  0  0  0  0  0  0  0  0  0
   39.7430   32.1410   38.3280 N   0  0  0  0  0  0  0  0  0  0  0  0
   41.6500   33.2110   37.3210 N   0  0  0  0  0  0  0  0  0  0  0  0
   41.4690   34.7460   39.4410 H   0  0  0  0  0  0  0  0  0  0  0  0
   39.7730   34.5520   41.2730 H   0  0  0  0  0  0  0  0  0  0  0  0
   41.9780   34.0800   36.8350 H   0  0  0  0  0  0  0  0  0  0  0  0
   42.0470   32.2940   37.0650 H   0  0  0  0  0  0  0  0  0  0  0  0
   36.9250   28.2620   41.5390 C   0  0  0  0  0  0  0  0  0  0  0  0
   37.2530   28.7900   42.7930 C   0  0  0  0  0  0  0  0  0  0  0  0
   37.5070   29.7770   43.1530 H   0  0  0  0  0  0  0  0  0  0  0  0
   37.2160   27.7470   43.6770 C   0  0  0  0  0  0  0  0  0  0  0  0
   37.3760   27.5780   44.7320 H   0  0  0  0  0  0  0  0  0  0  0  0
   36.8720   26.6290   42.9540 C   0  0  0  0  0  0  0  0  0  0  0  0
   36.6880   25.5570   43.0620 H   0  0  0  0  0  0  0  0  0  0  0  0
   36.7130   26.9970   41.6980 O   0  0  0  0  0  0  0  0  0  0  0  0
  1 14  1  0  0  0  0
  1  6  1  0  0  0  0
  2  3  1  0  0  0  0
  2  1  2  0  0  0  0
  3  4  2  0  0  0  0
  4  9  1  0  0  0  0
  4  5  1  0  0  0  0
  5 21  1  0  0  0  0
  6  5  2  0  0  0  0
  7  2  1  0  0  0  0
  8  3  1  0  0  0  0
 10 11  1  0  0  0  0
 11 17  1  0  0  0  0
 11 12  2  0  0  0  0
 12 18  1  0  0  0  0
 13 12  1  0  0  0  0
 14 13  2  0  0  0  0
 15 10  2  0  0  0  0
 15 14  1  0  0  0  0
 16 10  1  0  0  0  0
 19 16  1  0  0  0  0
 20 16  1  0  0  0  0
 21 28  1  0  0  0  0
 21 22  2  0  0  0  0
 22 23  1  0  0  0  0
 22 24  1  0  0  0  0
 24 25  1  0  0  0  0
 26 27  1  0  0  0  0
 26 24  2  0  0  0  0
 28 26  1  0  0  0  0
M  END
>  <minimizedAffinity>
-4.9732604

$$$$

 OpenBabel03242520113D

 28 30  0  0  0  0  0  0  0  0999 V2000
   37.8710   29.3610   40.0150 C   0  0  0  0  0  0  0  0  0  0  0  0
   36.6360   29.0730   39.5330 C   0  0  0  0  0  0  0  0  0  0  0  0
   36.0520   27.8670   39.8610 C   0  0  0  0  0  0  0  0  0  0  0  0
   36.7220   26.9650   40.6720 C   0  0  0  0  0  0  0  0  0  0  0  0
   37.9760   27.2870   41.1460 C   0  0  0  0  0  0  0  0  0  0  0  0
   38.4820   28.4520   40.8000 N   0  0  0  0  0  0  0  0  0  0  0  0
   36.1070   29.7720   38.8990 H   0  0  0  0  0  0  0  0  0  0  0  0
   35.0690   27.5680   39.5120 H   0  0  0  0  0  0  0  0  0  0  0  0
   36.3210   25.9920   40.9720 H   0  0  0  0  0  0  0  0  0  0  0  0
   39.6140   32.0360   38.2020 C   0  0  0  0  0  0  0  0  0  0  0  0
   39.8680   32.9590   39.2430 C   0  0  0  0  0  0  0  0  0  0  0  0
   39.4440   32.6600   40.5410 C   0  0  0  0  0  0  0  0  0  0  0  0
   38.8090   31.4810   40.7010 N   0  0  0  0  0  0  0  0  0  0  0  0
   38.5690   30.6120   39.7240 C   0  0  0  0  0  0  0  0  0  0  0  0
   38.9760   30.9060   38.4930 N   0  0  0  0  0  0  0  0  0  0  0  0
   40.0450   32.3430   36.8850 N   0  0  0  0  0  0  0  0  0  0  0  0
   40.3830   33.8680   38.9920 H   0  0  0  0  0  0  0  0  0  0  0  0
   39.6360   33.3590   41.3280 H   0  0  0  0  0  0  0  0  0  0  0  0
   39.9540   33.2470   36.3610 H   0  0  0  0  0  0  0  0  0  0  0  0
   40.4990   31.5310   36.4400 H   0  0  0  0  0  0  0  0  0  0  0  0
   38.7760   26.4210   42.0050 C   0  0  0  0  0  0  0  0  0  0  0  0
   39.4950   26.9410   43.0880 C   0  0  0  0  0  0  0  0  0  0  0  0
   39.6270   27.9320   43.5000 H   0  0  0  0  0  0  0  0  0  0  0  0
   40.1290   25.8830   43.6800 C   0  0  0  0  0  0  0  0  0  0  0  0
   40.7890   25.7030   44.5150 H   0  0  0  0  0  0  0  0  0  0  0  0
   39.7870   24.7640   42.9570 C   0  0  0  0  0  0  0  0  0  0  0  0
   39.9490   23.6840   42.9140 H   0  0  0  0  0  0  0  0  0  0  0  0
   38.9860   25.1470   41.9810 O   0  0  0  0  0  0  0  0  0  0  0  0
  1  6  1  0  0  0  0
  2  3  1  0  0  0  0
  2  1  2  0  0  0  0
  3  4  2  0  0  0  0
  4  9  1  0  0  0  0
  4  5  1  0  0  0  0
  5 21  1  0  0  0  0
  6  5  2  0  0  0  0
  7  2  1  0  0  0  0
  8  3  1  0  0  0  0
 10 15  2  0  0  0  0
 10 11  1  0  0  0  0
 11 12  2  0  0  0  0
 12 13  1  0  0  0  0
 12 18  1  0  0  0  0
 14  1  1  0  0  0  0
 14 13  2  0  0  0  0
 15 14  1  0  0  0  0
 16 10  1  0  0  0  0
 17 11  1  0  0  0  0
 19 16  1  0  0  0  0
 20 16  1  0  0  0  0
 21 22  2  0  0  0  0
 22 23  1  0  0  0  0
 22 24  1  0  0  0  0
 24 25  1  0  0  0  0
 26 24  2  0  0  0  0
 27 26  1  0  0  0  0
 28 21  1  0  0  0  0
 28 26  1  0  0  0  0
M  END
>  <minimizedAffinity>
-4.93698692

$$$$
