
 OpenBabel03252509123D

 30 33  0  0  0  0  0  0  0  0999 V2000
   39.4260   30.3660   42.0220 C   0  0  0  0  0  0  0  0  0  0  0  0
   38.2900   29.8040   41.4650 C   0  0  0  0  0  0  0  0  0  0  0  0
   37.4010   30.5380   40.7050 C   0  0  0  0  0  0  0  0  0  0  0  0
   37.6350   31.8920   40.4790 C   0  0  0  0  0  0  0  0  0  0  0  0
   37.0070   32.8930   39.8100 N   0  0  0  0  0  0  0  0  0  0  0  0
   37.7260   34.0320   39.9460 C   0  0  0  0  0  0  0  0  0  0  0  0
   38.7960   33.7200   40.7020 N   0  0  0  0  0  0  0  0  0  0  0  0
   38.7710   32.4170   41.0470 C   0  0  0  0  0  0  0  0  0  0  0  0
   39.6820   31.7210   41.8090 C   0  0  0  0  0  0  0  0  0  0  0  0
   40.1030   29.7580   42.6150 H   0  0  0  0  0  0  0  0  0  0  0  0
   36.1220   32.7010   39.3080 H   0  0  0  0  0  0  0  0  0  0  0  0
   37.4220   34.9720   39.4980 H   0  0  0  0  0  0  0  0  0  0  0  0
   40.5540   32.2060   42.2220 H   0  0  0  0  0  0  0  0  0  0  0  0
   36.9390   26.6970   42.8790 C   0  0  0  0  0  0  0  0  0  0  0  0
   37.5020   25.7170   42.0610 C   0  0  0  0  0  0  0  0  0  0  0  0
   38.3510   26.1280   41.0190 C   0  0  0  0  0  0  0  0  0  0  0  0
   38.5590   27.4720   40.8880 N   0  0  0  0  0  0  0  0  0  0  0  0
   38.0090   28.3950   41.6810 C   0  0  0  0  0  0  0  0  0  0  0  0
   37.1920   28.0160   42.6860 N   0  0  0  0  0  0  0  0  0  0  0  0
   36.2830   26.3670   43.6820 H   0  0  0  0  0  0  0  0  0  0  0  0
   37.3020   24.6700   42.2120 H   0  0  0  0  0  0  0  0  0  0  0  0
   38.8160   25.4130   40.3540 H   0  0  0  0  0  0  0  0  0  0  0  0
   36.1950   29.9730   40.1050 C   0  0  0  0  0  0  0  0  0  0  0  0
   36.3180   29.7030   38.7380 C   0  0  0  0  0  0  0  0  0  0  0  0
   37.0820   29.8000   37.9830 H   0  0  0  0  0  0  0  0  0  0  0  0
   35.0910   29.1720   38.3230 C   0  0  0  0  0  0  0  0  0  0  0  0
   34.7670   28.8300   37.3300 H   0  0  0  0  0  0  0  0  0  0  0  0
   34.3020   29.1570   39.4760 C   0  0  0  0  0  0  0  0  0  0  0  0
   33.2770   28.8210   39.5920 H   0  0  0  0  0  0  0  0  0  0  0  0
   34.9960   29.6360   40.4860 O   0  0  0  0  0  0  0  0  0  0  0  0
  1 10  1  0  0  0  0
  2 18  1  0  0  0  0
  2  1  2  0  0  0  0
  3  2  1  0  0  0  0
  4  3  2  0  0  0  0
  4  8  1  0  0  0  0
  5  6  1  0  0  0  0
  5  4  1  0  0  0  0
  6  7  2  0  0  0  0
  7  8  1  0  0  0  0
  8  9  2  0  0  0  0
  9  1  1  0  0  0  0
  9 13  1  0  0  0  0
 11  5  1  0  0  0  0
 12  6  1  0  0  0  0
 14 20  1  0  0  0  0
 15 21  1  0  0  0  0
 15 14  2  0  0  0  0
 16 15  1  0  0  0  0
 17 16  2  0  0  0  0
 17 18  1  0  0  0  0
 18 19  2  0  0  0  0
 19 14  1  0  0  0  0
 22 16  1  0  0  0  0
 23 30  1  0  0  0  0
 23  3  1  0  0  0  0
 24 23  2  0  0  0  0
 25 24  1  0  0  0  0
 26 24  1  0  0  0  0
 26 28  2  0  0  0  0
 27 26  1  0  0  0  0
 28 29  1  0  0  0  0
 28 30  1  0  0  0  0
M  END
>  <minimizedAffinity>
-5.45492315

$$$$

 OpenBabel03252509123D

 30 33  0  0  0  0  0  0  0  0999 V2000
   38.4910   29.6820   42.7740 C   0  0  0  0  0  0  0  0  0  0  0  0
   38.3080   29.9410   41.4270 C   0  0  0  0  0  0  0  0  0  0  0  0
   37.8630   28.9760   40.5450 C   0  0  0  0  0  0  0  0  0  0  0  0
   37.5840   27.6920   41.0050 C   0  0  0  0  0  0  0  0  0  0  0  0
   37.1470   26.5310   40.4530 N   0  0  0  0  0  0  0  0  0  0  0  0
   37.0620   25.5880   41.4210 C   0  0  0  0  0  0  0  0  0  0  0  0
   37.4490   26.1810   42.5660 N   0  0  0  0  0  0  0  0  0  0  0  0
   37.7770   27.4700   42.3470 C   0  0  0  0  0  0  0  0  0  0  0  0
   38.2170   28.4030   43.2590 C   0  0  0  0  0  0  0  0  0  0  0  0
   38.8420   30.4660   43.4390 H   0  0  0  0  0  0  0  0  0  0  0  0
   36.9410   26.4880   39.4390 H   0  0  0  0  0  0  0  0  0  0  0  0
   36.7350   24.5730   41.2210 H   0  0  0  0  0  0  0  0  0  0  0  0
   38.3440   28.1510   44.3020 H   0  0  0  0  0  0  0  0  0  0  0  0
   40.1210   32.8910   40.2050 C   0  0  0  0  0  0  0  0  0  0  0  0
   39.0910   33.7910   39.9270 C   0  0  0  0  0  0  0  0  0  0  0  0
   37.7670   33.3800   40.1620 C   0  0  0  0  0  0  0  0  0  0  0  0
   37.5920   32.1150   40.6490 N   0  0  0  0  0  0  0  0  0  0  0  0
   38.5910   31.2680   40.9080 C   0  0  0  0  0  0  0  0  0  0  0  0
   39.8680   31.6480   40.6880 N   0  0  0  0  0  0  0  0  0  0  0  0
   41.1410   33.2200   40.0190 H   0  0  0  0  0  0  0  0  0  0  0  0
   39.2900   34.7760   39.5440 H   0  0  0  0  0  0  0  0  0  0  0  0
   36.9300   34.0350   39.9650 H   0  0  0  0  0  0  0  0  0  0  0  0
   37.6610   29.2190   39.1190 C   0  0  0  0  0  0  0  0  0  0  0  0
   36.3270   29.4510   38.7690 C   0  0  0  0  0  0  0  0  0  0  0  0
   35.3780   29.5000   39.2790 H   0  0  0  0  0  0  0  0  0  0  0  0
   36.3070   29.6630   37.3850 C   0  0  0  0  0  0  0  0  0  0  0  0
   35.4630   29.8770   36.7150 H   0  0  0  0  0  0  0  0  0  0  0  0
   37.6410   29.5450   36.9890 C   0  0  0  0  0  0  0  0  0  0  0  0
   38.0630   29.6390   35.9930 H   0  0  0  0  0  0  0  0  0  0  0  0
   38.3880   29.2850   38.0390 O   0  0  0  0  0  0  0  0  0  0  0  0
  1  9  1  0  0  0  0
  1 10  1  0  0  0  0
  2  1  2  0  0  0  0
  3  4  2  0  0  0  0
  3  2  1  0  0  0  0
  4  8  1  0  0  0  0
  5  4  1  0  0  0  0
  5  6  1  0  0  0  0
  6  7  2  0  0  0  0
  8  7  1  0  0  0  0
  8  9  2  0  0  0  0
  9 13  1  0  0  0  0
 11  5  1  0  0  0  0
 12  6  1  0  0  0  0
 14 19  1  0  0  0  0
 15 16  1  0  0  0  0
 15 14  2  0  0  0  0
 16 17  2  0  0  0  0
 17 18  1  0  0  0  0
 18  2  1  0  0  0  0
 19 18  2  0  0  0  0
 20 14  1  0  0  0  0
 21 15  1  0  0  0  0
 22 16  1  0  0  0  0
 23  3  1  0  0  0  0
 24 23  2  0  0  0  0
 24 25  1  0  0  0  0
 26 24  1  0  0  0  0
 27 26  1  0  0  0  0
 28 26  2  0  0  0  0
 28 30  1  0  0  0  0
 29 28  1  0  0  0  0
 30 23  1  0  0  0  0
M  END
>  <minimizedAffinity>
-4.95977163

$$$$

 OpenBabel03252509123D

 30 33  0  0  0  0  0  0  0  0999 V2000
   35.8670   27.3040   38.2810 C   0  0  0  0  0  0  0  0  0  0  0  0
   36.5930   27.6730   39.4010 C   0  0  0  0  0  0  0  0  0  0  0  0
   37.1060   26.7450   40.2850 C   0  0  0  0  0  0  0  0  0  0  0  0
   36.8980   25.3870   40.0620 C   0  0  0  0  0  0  0  0  0  0  0  0
   37.2370   24.2310   40.6910 N   0  0  0  0  0  0  0  0  0  0  0  0
   36.7410   23.1860   39.9880 C   0  0  0  0  0  0  0  0  0  0  0  0
   36.0980   23.7100   38.9280 N   0  0  0  0  0  0  0  0  0  0  0  0
   36.1730   25.0550   38.9430 C   0  0  0  0  0  0  0  0  0  0  0  0
   35.6460   25.9480   38.0370 C   0  0  0  0  0  0  0  0  0  0  0  0
   35.4790   28.0620   37.6070 H   0  0  0  0  0  0  0  0  0  0  0  0
   37.7910   24.2640   41.5650 H   0  0  0  0  0  0  0  0  0  0  0  0
   36.8820   22.1550   40.2950 H   0  0  0  0  0  0  0  0  0  0  0  0
   35.0860   25.6100   37.1770 H   0  0  0  0  0  0  0  0  0  0  0  0
   36.2490   31.0670   40.7570 C   0  0  0  0  0  0  0  0  0  0  0  0
   37.3050   31.7490   40.1500 C   0  0  0  0  0  0  0  0  0  0  0  0
   38.1380   31.0360   39.2700 C   0  0  0  0  0  0  0  0  0  0  0  0
   37.8440   29.7160   39.0770 N   0  0  0  0  0  0  0  0  0  0  0  0
   36.8290   29.0810   39.6680 C   0  0  0  0  0  0  0  0  0  0  0  0
   36.0210   29.7520   40.5160 N   0  0  0  0  0  0  0  0  0  0  0  0
   35.6120   31.6290   41.4370 H   0  0  0  0  0  0  0  0  0  0  0  0
   37.4880   32.7920   40.3400 H   0  0  0  0  0  0  0  0  0  0  0  0
   38.9710   31.5130   38.7710 H   0  0  0  0  0  0  0  0  0  0  0  0
   37.8750   27.1030   41.4730 C   0  0  0  0  0  0  0  0  0  0  0  0
   37.1140   27.1480   42.6460 C   0  0  0  0  0  0  0  0  0  0  0  0
   36.0840   26.9850   42.9210 H   0  0  0  0  0  0  0  0  0  0  0  0
   37.9900   27.5020   43.6790 C   0  0  0  0  0  0  0  0  0  0  0  0
   37.7980   27.6460   44.7520 H   0  0  0  0  0  0  0  0  0  0  0  0
   39.2320   27.6480   43.0570 C   0  0  0  0  0  0  0  0  0  0  0  0
   40.1850   27.9190   43.5000 H   0  0  0  0  0  0  0  0  0  0  0  0
   39.1080   27.4050   41.7700 O   0  0  0  0  0  0  0  0  0  0  0  0
  1  2  1  0  0  0  0
  2 18  1  0  0  0  0
  2  3  2  0  0  0  0
  3 23  1  0  0  0  0
  4  3  1  0  0  0  0
  4  5  1  0  0  0  0
  5 11  1  0  0  0  0
  6 12  1  0  0  0  0
  6  5  1  0  0  0  0
  7  8  1  0  0  0  0
  7  6  2  0  0  0  0
  8  4  2  0  0  0  0
  9  1  2  0  0  0  0
  9  8  1  0  0  0  0
 10  1  1  0  0  0  0
 13  9  1  0  0  0  0
 14 20  1  0  0  0  0
 15 21  1  0  0  0  0
 15 14  2  0  0  0  0
 16 15  1  0  0  0  0
 17 16  2  0  0  0  0
 17 18  1  0  0  0  0
 18 19  2  0  0  0  0
 19 14  1  0  0  0  0
 22 16  1  0  0  0  0
 23 30  1  0  0  0  0
 23 24  2  0  0  0  0
 24 25  1  0  0  0  0
 24 26  1  0  0  0  0
 26 27  1  0  0  0  0
 28 29  1  0  0  0  0
 28 26  2  0  0  0  0
 30 28  1  0  0  0  0
M  END
>  <minimizedAffinity>
-4.88386869

$$$$

 OpenBabel03252509123D

 30 33  0  0  0  0  0  0  0  0999 V2000
   35.8300   28.6280   40.3110 C   0  0  0  0  0  0  0  0  0  0  0  0
   37.0320   28.1080   40.7590 C   0  0  0  0  0  0  0  0  0  0  0  0
   38.1240   28.9080   41.0320 C   0  0  0  0  0  0  0  0  0  0  0  0
   38.0360   30.2850   40.8570 C   0  0  0  0  0  0  0  0  0  0  0  0
   38.8700   31.3450   41.0170 N   0  0  0  0  0  0  0  0  0  0  0  0
   38.2100   32.4790   40.6810 C   0  0  0  0  0  0  0  0  0  0  0  0
   36.9690   32.1040   40.3160 N   0  0  0  0  0  0  0  0  0  0  0  0
   36.8290   30.7680   40.4110 C   0  0  0  0  0  0  0  0  0  0  0  0
   35.7160   30.0060   40.1280 C   0  0  0  0  0  0  0  0  0  0  0  0
   34.9910   27.9680   40.1070 H   0  0  0  0  0  0  0  0  0  0  0  0
   39.8380   31.1930   41.3500 H   0  0  0  0  0  0  0  0  0  0  0  0
   38.6710   33.4600   40.7270 H   0  0  0  0  0  0  0  0  0  0  0  0
   34.8000   30.4600   39.7810 H   0  0  0  0  0  0  0  0  0  0  0  0
   37.0770   24.7940   42.3390 C   0  0  0  0  0  0  0  0  0  0  0  0
   37.4250   23.9540   41.2810 C   0  0  0  0  0  0  0  0  0  0  0  0
   37.6460   24.5310   40.0180 C   0  0  0  0  0  0  0  0  0  0  0  0
   37.4990   25.8870   39.9270 N   0  0  0  0  0  0  0  0  0  0  0  0
   37.1640   26.6740   40.9520 C   0  0  0  0  0  0  0  0  0  0  0  0
   36.9480   26.1340   42.1700 N   0  0  0  0  0  0  0  0  0  0  0  0
   36.9070   24.3360   43.3110 H   0  0  0  0  0  0  0  0  0  0  0  0
   37.5260   22.8900   41.4130 H   0  0  0  0  0  0  0  0  0  0  0  0
   37.9180   23.9290   39.1620 H   0  0  0  0  0  0  0  0  0  0  0  0
   39.4050   28.3890   41.5050 C   0  0  0  0  0  0  0  0  0  0  0  0
   39.5640   28.4580   42.8930 C   0  0  0  0  0  0  0  0  0  0  0  0
   38.9830   28.8000   43.7350 H   0  0  0  0  0  0  0  0  0  0  0  0
   40.8280   27.9270   43.1780 C   0  0  0  0  0  0  0  0  0  0  0  0
   41.3400   27.7980   44.1420 H   0  0  0  0  0  0  0  0  0  0  0  0
   41.3510   27.5690   41.9340 C   0  0  0  0  0  0  0  0  0  0  0  0
   42.3130   27.1210   41.7060 H   0  0  0  0  0  0  0  0  0  0  0  0
   40.4800   27.8610   40.9930 O   0  0  0  0  0  0  0  0  0  0  0  0
  1  2  1  0  0  0  0
  2 18  1  0  0  0  0
  2  3  2  0  0  0  0
  3 23  1  0  0  0  0
  4  5  1  0  0  0  0
  4  3  1  0  0  0  0
  5 11  1  0  0  0  0
  6 12  1  0  0  0  0
  6  5  1  0  0  0  0
  7  8  1  0  0  0  0
  7  6  2  0  0  0  0
  8  4  2  0  0  0  0
  9  1  2  0  0  0  0
  9  8  1  0  0  0  0
 10  1  1  0  0  0  0
 13  9  1  0  0  0  0
 14 20  1  0  0  0  0
 15 21  1  0  0  0  0
 15 14  2  0  0  0  0
 16 15  1  0  0  0  0
 17 16  2  0  0  0  0
 17 18  1  0  0  0  0
 18 19  2  0  0  0  0
 19 14  1  0  0  0  0
 22 16  1  0  0  0  0
 23 24  2  0  0  0  0
 24 26  1  0  0  0  0
 24 25  1  0  0  0  0
 26 27  1  0  0  0  0
 28 26  2  0  0  0  0
 29 28  1  0  0  0  0
 30 23  1  0  0  0  0
 30 28  1  0  0  0  0
M  END
>  <minimizedAffinity>
-4.84493876

$$$$

 OpenBabel03252509123D

 30 33  0  0  0  0  0  0  0  0999 V2000
   36.8100   31.0730   40.7470 C   0  0  0  0  0  0  0  0  0  0  0  0
   37.8370   30.2200   41.1140 C   0  0  0  0  0  0  0  0  0  0  0  0
   39.1660   30.5840   41.0230 C   0  0  0  0  0  0  0  0  0  0  0  0
   39.5070   31.8470   40.5470 C   0  0  0  0  0  0  0  0  0  0  0  0
   40.6610   32.5270   40.3260 N   0  0  0  0  0  0  0  0  0  0  0  0
   40.3620   33.7550   39.8390 C   0  0  0  0  0  0  0  0  0  0  0  0
   39.0190   33.8190   39.7650 N   0  0  0  0  0  0  0  0  0  0  0  0
   38.4640   32.6670   40.1900 C   0  0  0  0  0  0  0  0  0  0  0  0
   37.1270   32.3440   40.2670 C   0  0  0  0  0  0  0  0  0  0  0  0
   35.7750   30.7530   40.8330 H   0  0  0  0  0  0  0  0  0  0  0  0
   41.5710   32.0790   40.5330 H   0  0  0  0  0  0  0  0  0  0  0  0
   41.1230   34.4840   39.5840 H   0  0  0  0  0  0  0  0  0  0  0  0
   36.3620   33.0450   39.9670 H   0  0  0  0  0  0  0  0  0  0  0  0
   36.9870   27.4630   43.3850 C   0  0  0  0  0  0  0  0  0  0  0  0
   36.9250   26.3650   42.5260 C   0  0  0  0  0  0  0  0  0  0  0  0
   37.1780   26.5760   41.1590 C   0  0  0  0  0  0  0  0  0  0  0  0
   37.4670   27.8550   40.7760 N   0  0  0  0  0  0  0  0  0  0  0  0
   37.5200   28.8930   41.6140 C   0  0  0  0  0  0  0  0  0  0  0  0
   37.2790   28.7070   42.9290 N   0  0  0  0  0  0  0  0  0  0  0  0
   36.7880   27.2890   44.4410 H   0  0  0  0  0  0  0  0  0  0  0  0
   36.6920   25.3780   42.8860 H   0  0  0  0  0  0  0  0  0  0  0  0
   37.1450   25.7620   40.4480 H   0  0  0  0  0  0  0  0  0  0  0  0
   40.2690   29.7070   41.4030 C   0  0  0  0  0  0  0  0  0  0  0  0
   40.7700   29.9520   42.6860 C   0  0  0  0  0  0  0  0  0  0  0  0
   40.5570   30.6330   43.4960 H   0  0  0  0  0  0  0  0  0  0  0  0
   41.8100   29.0380   42.8920 C   0  0  0  0  0  0  0  0  0  0  0  0
   42.4630   28.8940   43.7640 H   0  0  0  0  0  0  0  0  0  0  0  0
   41.8680   28.2950   41.7110 C   0  0  0  0  0  0  0  0  0  0  0  0
   42.5380   27.4810   41.4540 H   0  0  0  0  0  0  0  0  0  0  0  0
   40.9480   28.7270   40.8770 O   0  0  0  0  0  0  0  0  0  0  0  0
  1 10  1  0  0  0  0
  1  2  1  0  0  0  0
  2 18  1  0  0  0  0
  3  2  2  0  0  0  0
  3 23  1  0  0  0  0
  4  3  1  0  0  0  0
  5 11  1  0  0  0  0
  5  4  1  0  0  0  0
  6  5  1  0  0  0  0
  7  6  2  0  0  0  0
  7  8  1  0  0  0  0
  8  9  1  0  0  0  0
  8  4  2  0  0  0  0
  9  1  2  0  0  0  0
 12  6  1  0  0  0  0
 13  9  1  0  0  0  0
 14 20  1  0  0  0  0
 15 21  1  0  0  0  0
 15 14  2  0  0  0  0
 16 15  1  0  0  0  0
 17 16  2  0  0  0  0
 17 18  1  0  0  0  0
 18 19  2  0  0  0  0
 19 14  1  0  0  0  0
 22 16  1  0  0  0  0
 23 24  2  0  0  0  0
 24 26  1  0  0  0  0
 24 25  1  0  0  0  0
 26 27  1  0  0  0  0
 28 26  2  0  0  0  0
 29 28  1  0  0  0  0
 30 23  1  0  0  0  0
 30 28  1  0  0  0  0
M  END
>  <minimizedAffinity>
-4.83671713

$$$$

 OpenBabel03252509123D

 30 33  0  0  0  0  0  0  0  0999 V2000
   37.2120   27.4550   37.8950 C   0  0  0  0  0  0  0  0  0  0  0  0
   37.4200   27.2010   39.2400 C   0  0  0  0  0  0  0  0  0  0  0  0
   37.4640   28.2090   40.1830 C   0  0  0  0  0  0  0  0  0  0  0  0
   37.2960   29.5330   39.7890 C   0  0  0  0  0  0  0  0  0  0  0  0
   37.2790   30.7410   40.4100 N   0  0  0  0  0  0  0  0  0  0  0  0
   37.0680   31.7080   39.4850 C   0  0  0  0  0  0  0  0  0  0  0  0
   36.9560   31.0830   38.2980 N   0  0  0  0  0  0  0  0  0  0  0  0
   37.0920   29.7500   38.4480 C   0  0  0  0  0  0  0  0  0  0  0  0
   37.0400   28.7750   37.4770 C   0  0  0  0  0  0  0  0  0  0  0  0
   37.1830   26.6370   37.1820 H   0  0  0  0  0  0  0  0  0  0  0  0
   37.4160   30.7960   41.4350 H   0  0  0  0  0  0  0  0  0  0  0  0
   37.0140   32.7600   39.7420 H   0  0  0  0  0  0  0  0  0  0  0  0
   36.8750   29.0250   36.4390 H   0  0  0  0  0  0  0  0  0  0  0  0
   39.0030   24.0350   40.2150 C   0  0  0  0  0  0  0  0  0  0  0  0
   37.9090   23.2320   40.5420 C   0  0  0  0  0  0  0  0  0  0  0  0
   36.6220   23.7840   40.4260 C   0  0  0  0  0  0  0  0  0  0  0  0
   36.5430   25.0790   39.9970 N   0  0  0  0  0  0  0  0  0  0  0  0
   37.6020   25.8310   39.6890 C   0  0  0  0  0  0  0  0  0  0  0  0
   38.8450   25.3160   39.7970 N   0  0  0  0  0  0  0  0  0  0  0  0
   39.9950   23.5980   40.3100 H   0  0  0  0  0  0  0  0  0  0  0  0
   38.0330   22.2160   40.8750 H   0  0  0  0  0  0  0  0  0  0  0  0
   35.7380   23.2080   40.6650 H   0  0  0  0  0  0  0  0  0  0  0  0
   37.6820   27.9720   41.6070 C   0  0  0  0  0  0  0  0  0  0  0  0
   36.5010   27.8620   42.3490 C   0  0  0  0  0  0  0  0  0  0  0  0
   35.4420   27.9060   42.1510 H   0  0  0  0  0  0  0  0  0  0  0  0
   36.8820   27.6380   43.6780 C   0  0  0  0  0  0  0  0  0  0  0  0
   36.2640   27.4970   44.5760 H   0  0  0  0  0  0  0  0  0  0  0  0
   38.2780   27.6270   43.6490 C   0  0  0  0  0  0  0  0  0  0  0  0
   38.9720   27.4850   44.4720 H   0  0  0  0  0  0  0  0  0  0  0  0
   38.6920   27.8270   42.4170 O   0  0  0  0  0  0  0  0  0  0  0  0
  1  2  1  0  0  0  0
  2 18  1  0  0  0  0
  2  3  2  0  0  0  0
  3 23  1  0  0  0  0
  4  3  1  0  0  0  0
  4  5  1  0  0  0  0
  5 11  1  0  0  0  0
  6 12  1  0  0  0  0
  6  5  1  0  0  0  0
  7  8  1  0  0  0  0
  7  6  2  0  0  0  0
  8  4  2  0  0  0  0
  9  1  2  0  0  0  0
  9  8  1  0  0  0  0
 10  1  1  0  0  0  0
 13  9  1  0  0  0  0
 14 20  1  0  0  0  0
 14 15  1  0  0  0  0
 15 21  1  0  0  0  0
 16 15  2  0  0  0  0
 16 22  1  0  0  0  0
 17 16  1  0  0  0  0
 18 19  1  0  0  0  0
 18 17  2  0  0  0  0
 19 14  2  0  0  0  0
 23 24  2  0  0  0  0
 23 30  1  0  0  0  0
 24 26  1  0  0  0  0
 25 24  1  0  0  0  0
 26 27  1  0  0  0  0
 28 26  2  0  0  0  0
 28 29  1  0  0  0  0
 30 28  1  0  0  0  0
M  END
>  <minimizedAffinity>
-4.7342248

$$$$

 OpenBabel03252509123D

 30 33  0  0  0  0  0  0  0  0999 V2000
   36.3100   26.3280   39.1970 C   0  0  0  0  0  0  0  0  0  0  0  0
   36.8370   27.4950   39.7240 C   0  0  0  0  0  0  0  0  0  0  0  0
   36.8910   28.6710   39.0030 C   0  0  0  0  0  0  0  0  0  0  0  0
   36.4050   28.7080   37.6990 C   0  0  0  0  0  0  0  0  0  0  0  0
   36.2960   29.6470   36.7240 N   0  0  0  0  0  0  0  0  0  0  0  0
   35.7230   29.0850   35.6330 C   0  0  0  0  0  0  0  0  0  0  0  0
   35.4830   27.7980   35.9500 N   0  0  0  0  0  0  0  0  0  0  0  0
   35.8880   27.5330   37.2070 C   0  0  0  0  0  0  0  0  0  0  0  0
   35.8150   26.3410   37.8920 C   0  0  0  0  0  0  0  0  0  0  0  0
   36.2830   25.4210   39.7930 H   0  0  0  0  0  0  0  0  0  0  0  0
   36.6320   30.6110   36.8970 H   0  0  0  0  0  0  0  0  0  0  0  0
   35.5320   29.6400   34.7220 H   0  0  0  0  0  0  0  0  0  0  0  0
   35.3940   25.4570   37.4360 H   0  0  0  0  0  0  0  0  0  0  0  0
   39.1330   27.2180   42.5750 C   0  0  0  0  0  0  0  0  0  0  0  0
   38.3070   27.5040   43.6640 C   0  0  0  0  0  0  0  0  0  0  0  0
   36.9540   27.7920   43.4140 C   0  0  0  0  0  0  0  0  0  0  0  0
   36.5510   27.7700   42.1090 N   0  0  0  0  0  0  0  0  0  0  0  0
   37.3570   27.4950   41.0810 C   0  0  0  0  0  0  0  0  0  0  0  0
   38.6590   27.2170   41.3040 N   0  0  0  0  0  0  0  0  0  0  0  0
   40.1790   26.9980   42.7810 H   0  0  0  0  0  0  0  0  0  0  0  0
   38.6820   27.5060   44.6730 H   0  0  0  0  0  0  0  0  0  0  0  0
   36.2680   28.0200   44.2180 H   0  0  0  0  0  0  0  0  0  0  0  0
   37.4410   29.9160   39.5320 C   0  0  0  0  0  0  0  0  0  0  0  0
   36.4720   30.8040   40.0100 C   0  0  0  0  0  0  0  0  0  0  0  0
   35.3970   30.8210   40.0980 H   0  0  0  0  0  0  0  0  0  0  0  0
   37.1580   31.9320   40.4760 C   0  0  0  0  0  0  0  0  0  0  0  0
   36.7730   32.8580   40.9280 H   0  0  0  0  0  0  0  0  0  0  0  0
   38.5060   31.6480   40.2470 C   0  0  0  0  0  0  0  0  0  0  0  0
   39.3740   32.2620   40.4630 H   0  0  0  0  0  0  0  0  0  0  0  0
   38.6140   30.4600   39.6940 O   0  0  0  0  0  0  0  0  0  0  0  0
  1  2  1  0  0  0  0
  1 10  1  0  0  0  0
  2 18  1  0  0  0  0
  3 23  1  0  0  0  0
  3  2  2  0  0  0  0
  4  3  1  0  0  0  0
  5 11  1  0  0  0  0
  5  4  1  0  0  0  0
  6  7  2  0  0  0  0
  6  5  1  0  0  0  0
  7  8  1  0  0  0  0
  8  4  2  0  0  0  0
  8  9  1  0  0  0  0
  9  1  2  0  0  0  0
 12  6  1  0  0  0  0
 13  9  1  0  0  0  0
 14 20  1  0  0  0  0
 14 15  1  0  0  0  0
 15 21  1  0  0  0  0
 16 15  2  0  0  0  0
 16 22  1  0  0  0  0
 17 16  1  0  0  0  0
 18 19  1  0  0  0  0
 18 17  2  0  0  0  0
 19 14  2  0  0  0  0
 23 30  1  0  0  0  0
 23 24  2  0  0  0  0
 24 25  1  0  0  0  0
 24 26  1  0  0  0  0
 26 27  1  0  0  0  0
 28 29  1  0  0  0  0
 28 26  2  0  0  0  0
 30 28  1  0  0  0  0
M  END
>  <minimizedAffinity>
-4.68113899

$$$$

 OpenBabel03252509123D

 30 33  0  0  0  0  0  0  0  0999 V2000
   36.4610   25.6860   39.4830 C   0  0  0  0  0  0  0  0  0  0  0  0
   36.6640   26.9690   39.9630 C   0  0  0  0  0  0  0  0  0  0  0  0
   36.1310   28.0810   39.3430 C   0  0  0  0  0  0  0  0  0  0  0  0
   35.3610   27.9310   38.1930 C   0  0  0  0  0  0  0  0  0  0  0  0
   34.7000   28.7610   37.3450 N   0  0  0  0  0  0  0  0  0  0  0  0
   34.1100   28.0230   36.3760 C   0  0  0  0  0  0  0  0  0  0  0  0
   34.4140   26.7370   36.6380 N   0  0  0  0  0  0  0  0  0  0  0  0
   35.1790   26.6450   37.7430 C   0  0  0  0  0  0  0  0  0  0  0  0
   35.6920   25.5100   38.3320 C   0  0  0  0  0  0  0  0  0  0  0  0
   36.8960   24.8340   39.9970 H   0  0  0  0  0  0  0  0  0  0  0  0
   34.7130   29.7840   37.5110 H   0  0  0  0  0  0  0  0  0  0  0  0
   33.5240   28.4660   35.5790 H   0  0  0  0  0  0  0  0  0  0  0  0
   35.5040   24.5310   37.9180 H   0  0  0  0  0  0  0  0  0  0  0  0
   39.5480   27.4110   42.1910 C   0  0  0  0  0  0  0  0  0  0  0  0
   38.9500   27.5390   43.4460 C   0  0  0  0  0  0  0  0  0  0  0  0
   37.5480   27.4720   43.5240 C   0  0  0  0  0  0  0  0  0  0  0  0
   36.8740   27.2850   42.3510 N   0  0  0  0  0  0  0  0  0  0  0  0
   37.4650   27.1660   41.1590 C   0  0  0  0  0  0  0  0  0  0  0  0
   38.8100   27.2290   41.0680 N   0  0  0  0  0  0  0  0  0  0  0  0
   40.6340   27.4660   42.1430 H   0  0  0  0  0  0  0  0  0  0  0  0
   39.5340   27.6850   44.3380 H   0  0  0  0  0  0  0  0  0  0  0  0
   37.0310   27.5640   44.4700 H   0  0  0  0  0  0  0  0  0  0  0  0
   36.3270   29.4450   39.8260 C   0  0  0  0  0  0  0  0  0  0  0  0
   37.3200   30.1510   39.1380 C   0  0  0  0  0  0  0  0  0  0  0  0
   38.0000   29.9570   38.3230 H   0  0  0  0  0  0  0  0  0  0  0  0
   37.3820   31.4240   39.7170 C   0  0  0  0  0  0  0  0  0  0  0  0
   38.0250   32.2810   39.4740 H   0  0  0  0  0  0  0  0  0  0  0  0
   36.4140   31.4020   40.7240 C   0  0  0  0  0  0  0  0  0  0  0  0
   36.1380   32.1920   41.4150 H   0  0  0  0  0  0  0  0  0  0  0  0
   35.8300   30.2250   40.7440 O   0  0  0  0  0  0  0  0  0  0  0  0
  1  2  1  0  0  0  0
  1 10  1  0  0  0  0
  2 18  1  0  0  0  0
  3 23  1  0  0  0  0
  3  2  2  0  0  0  0
  4  3  1  0  0  0  0
  5 11  1  0  0  0  0
  5  4  1  0  0  0  0
  6  7  2  0  0  0  0
  6  5  1  0  0  0  0
  7  8  1  0  0  0  0
  8  4  2  0  0  0  0
  8  9  1  0  0  0  0
  9  1  2  0  0  0  0
 12  6  1  0  0  0  0
 13  9  1  0  0  0  0
 14 15  1  0  0  0  0
 15 16  2  0  0  0  0
 15 21  1  0  0  0  0
 16 22  1  0  0  0  0
 17 16  1  0  0  0  0
 18 17  2  0  0  0  0
 19 18  1  0  0  0  0
 19 14  2  0  0  0  0
 20 14  1  0  0  0  0
 23 30  1  0  0  0  0
 24 26  1  0  0  0  0
 24 23  2  0  0  0  0
 25 24  1  0  0  0  0
 26 28  2  0  0  0  0
 27 26  1  0  0  0  0
 28 30  1  0  0  0  0
 28 29  1  0  0  0  0
M  END
>  <minimizedAffinity>
-4.62575626

$$$$

 OpenBabel03252509123D

 30 33  0  0  0  0  0  0  0  0999 V2000
   36.8900   24.6930   41.2840 C   0  0  0  0  0  0  0  0  0  0  0  0
   37.0080   25.9680   40.7590 C   0  0  0  0  0  0  0  0  0  0  0  0
   36.5690   26.2870   39.4890 C   0  0  0  0  0  0  0  0  0  0  0  0
   35.9860   25.3070   38.6920 C   0  0  0  0  0  0  0  0  0  0  0  0
   35.4580   25.2520   37.4410 N   0  0  0  0  0  0  0  0  0  0  0  0
   35.0300   23.9910   37.1990 C   0  0  0  0  0  0  0  0  0  0  0  0
   35.2990   23.2770   38.3090 N   0  0  0  0  0  0  0  0  0  0  0  0
   35.8850   24.0520   39.2420 C   0  0  0  0  0  0  0  0  0  0  0  0
   36.3080   23.6930   40.5030 C   0  0  0  0  0  0  0  0  0  0  0  0
   37.2460   24.4780   42.2870 H   0  0  0  0  0  0  0  0  0  0  0  0
   35.4390   26.1040   36.8530 H   0  0  0  0  0  0  0  0  0  0  0  0
   34.5700   23.7000   36.2610 H   0  0  0  0  0  0  0  0  0  0  0  0
   36.1940   22.6830   40.8670 H   0  0  0  0  0  0  0  0  0  0  0  0
   37.4290   28.7230   43.1510 C   0  0  0  0  0  0  0  0  0  0  0  0
   38.7940   28.9990   43.0630 C   0  0  0  0  0  0  0  0  0  0  0  0
   39.5720   28.2350   42.1760 C   0  0  0  0  0  0  0  0  0  0  0  0
   38.9210   27.2680   41.4620 N   0  0  0  0  0  0  0  0  0  0  0  0
   37.6140   27.0180   41.5610 C   0  0  0  0  0  0  0  0  0  0  0  0
   36.8530   27.7430   42.4080 N   0  0  0  0  0  0  0  0  0  0  0  0
   36.8370   29.3200   43.8410 H   0  0  0  0  0  0  0  0  0  0  0  0
   39.2530   29.7750   43.6520 H   0  0  0  0  0  0  0  0  0  0  0  0
   40.6340   28.4060   42.0670 H   0  0  0  0  0  0  0  0  0  0  0  0
   36.6800   27.6230   38.9100 C   0  0  0  0  0  0  0  0  0  0  0  0
   35.5180   28.3920   39.0360 C   0  0  0  0  0  0  0  0  0  0  0  0
   34.5330   28.2640   39.4560 H   0  0  0  0  0  0  0  0  0  0  0  0
   35.7890   29.6280   38.4370 C   0  0  0  0  0  0  0  0  0  0  0  0
   35.1470   30.5130   38.3200 H   0  0  0  0  0  0  0  0  0  0  0  0
   37.1060   29.5230   37.9860 C   0  0  0  0  0  0  0  0  0  0  0  0
   37.7050   30.2620   37.4630 H   0  0  0  0  0  0  0  0  0  0  0  0
   37.5780   28.3330   38.2870 O   0  0  0  0  0  0  0  0  0  0  0  0
  1 10  1  0  0  0  0
  2  1  1  0  0  0  0
  2 18  1  0  0  0  0
  3  2  2  0  0  0  0
  4  8  2  0  0  0  0
  4  3  1  0  0  0  0
  5  4  1  0  0  0  0
  6  5  1  0  0  0  0
  6  7  2  0  0  0  0
  7  8  1  0  0  0  0
  8  9  1  0  0  0  0
  9 13  1  0  0  0  0
  9  1  2  0  0  0  0
 11  5  1  0  0  0  0
 12  6  1  0  0  0  0
 14 20  1  0  0  0  0
 15 14  1  0  0  0  0
 15 21  1  0  0  0  0
 16 15  2  0  0  0  0
 17 18  2  0  0  0  0
 17 16  1  0  0  0  0
 18 19  1  0  0  0  0
 19 14  2  0  0  0  0
 22 16  1  0  0  0  0
 23 24  2  0  0  0  0
 23  3  1  0  0  0  0
 24 25  1  0  0  0  0
 26 24  1  0  0  0  0
 27 26  1  0  0  0  0
 28 30  1  0  0  0  0
 28 26  2  0  0  0  0
 29 28  1  0  0  0  0
 30 23  1  0  0  0  0
M  END
>  <minimizedAffinity>
-4.61988401

$$$$
