
 OpenBabel03252506573D

 37 41  0  0  0  0  0  0  0  0999 V2000
   47.2340   31.2900   45.1880 C   0  0  0  0  0  0  0  0  0  0  0  0
   46.8990   32.6360   45.1260 C   0  0  0  0  0  0  0  0  0  0  0  0
   46.3110   33.3100   46.1700 C   0  0  0  0  0  0  0  0  0  0  0  0
   46.0230   32.6420   47.3590 C   0  0  0  0  0  0  0  0  0  0  0  0
   45.4650   32.9630   48.5640 N   0  0  0  0  0  0  0  0  0  0  0  0
   45.4560   31.8530   49.3440 C   0  0  0  0  0  0  0  0  0  0  0  0
   46.0090   30.8550   48.6140 N   0  0  0  0  0  0  0  0  0  0  0  0
   46.3640   31.3130   47.3920 C   0  0  0  0  0  0  0  0  0  0  0  0
   46.9480   30.6130   46.3790 C   0  0  0  0  0  0  0  0  0  0  0  0
   47.6960   30.7850   44.3540 H   0  0  0  0  0  0  0  0  0  0  0  0
   46.0450   34.3640   46.1280 H   0  0  0  0  0  0  0  0  0  0  0  0
   45.1250   33.9280   48.7740 H   0  0  0  0  0  0  0  0  0  0  0  0
   45.0620   31.8590   50.3470 H   0  0  0  0  0  0  0  0  0  0  0  0
   46.6380   35.0960   42.3930 C   0  0  0  0  0  0  0  0  0  0  0  0
   47.7300   34.7550   41.5880 C   0  0  0  0  0  0  0  0  0  0  0  0
   48.5440   33.6940   41.9800 C   0  0  0  0  0  0  0  0  0  0  0  0
   48.2380   33.0280   43.1430 N   0  0  0  0  0  0  0  0  0  0  0  0
   47.1830   33.3770   43.8970 C   0  0  0  0  0  0  0  0  0  0  0  0
   46.3790   34.4040   43.5340 N   0  0  0  0  0  0  0  0  0  0  0  0
   46.0210   35.9240   42.0650 H   0  0  0  0  0  0  0  0  0  0  0  0
   47.9930   35.2590   40.6730 H   0  0  0  0  0  0  0  0  0  0  0  0
   49.4070   33.3510   41.4350 H   0  0  0  0  0  0  0  0  0  0  0  0
   47.2730   29.1910   46.5230 C   0  0  0  0  0  0  0  0  0  0  0  0
   48.5180   28.6500   46.3110 C   0  0  0  0  0  0  0  0  0  0  0  0
   48.3620   27.2830   46.5590 C   0  0  0  0  0  0  0  0  0  0  0  0
   47.0450   27.0780   46.9020 C   0  0  0  0  0  0  0  0  0  0  0  0
   46.4320   28.2640   46.8640 O   0  0  0  0  0  0  0  0  0  0  0  0
   49.4550   29.1100   46.0190 H   0  0  0  0  0  0  0  0  0  0  0  0
   49.0830   26.4820   46.5120 H   0  0  0  0  0  0  0  0  0  0  0  0
   46.3220   25.8600   47.2610 C   0  0  0  0  0  0  0  0  0  0  0  0
   45.1130   25.5410   46.6370 C   0  0  0  0  0  0  0  0  0  0  0  0
   44.5800   26.1070   45.8600 H   0  0  0  0  0  0  0  0  0  0  0  0
   44.6330   24.3500   47.1440 C   0  0  0  0  0  0  0  0  0  0  0  0
   43.7550   23.7650   46.9440 H   0  0  0  0  0  0  0  0  0  0  0  0
   45.5930   24.0000   48.0690 C   0  0  0  0  0  0  0  0  0  0  0  0
   45.6950   23.1620   48.7350 H   0  0  0  0  0  0  0  0  0  0  0  0
   46.5660   24.8960   48.1170 O   0  0  0  0  0  0  0  0  0  0  0  0
  1  9  1  0  0  0  0
  2  1  2  0  0  0  0
  2  3  1  0  0  0  0
  3  4  2  0  0  0  0
  4  8  1  0  0  0  0
  4  5  1  0  0  0  0
  5 12  1  0  0  0  0
  5  6  1  0  0  0  0
  6 13  1  0  0  0  0
  7  6  2  0  0  0  0
  8  7  1  0  0  0  0
  9 23  1  0  0  0  0
  9  8  2  0  0  0  0
 10  1  1  0  0  0  0
 11  3  1  0  0  0  0
 14 19  1  0  0  0  0
 15 16  1  0  0  0  0
 15 14  2  0  0  0  0
 16 17  2  0  0  0  0
 17 18  1  0  0  0  0
 18  2  1  0  0  0  0
 19 18  2  0  0  0  0
 20 14  1  0  0  0  0
 21 15  1  0  0  0  0
 22 16  1  0  0  0  0
 23 27  1  0  0  0  0
 24 23  2  0  0  0  0
 24 25  1  0  0  0  0
 25 26  2  0  0  0  0
 26 30  1  0  0  0  0
 27 26  1  0  0  0  0
 28 24  1  0  0  0  0
 29 25  1  0  0  0  0
 30 37  1  0  0  0  0
 31 33  1  0  0  0  0
 31 30  2  0  0  0  0
 32 31  1  0  0  0  0
 33 35  2  0  0  0  0
 34 33  1  0  0  0  0
 35 37  1  0  0  0  0
 35 36  1  0  0  0  0
M  END
>  <minimizedAffinity>
-5.53825712

>  <minimizedRMSD>
0.680805206

$$$$
