
 OpenBabel03252504153D

 34 36  0  0  0  0  0  0  0  0999 V2000
   47.6870   29.9370   44.8290 F   0  0  0  0  0  0  0  0  0  0  0  0
   47.5980   30.6660   45.9880 C   0  0  0  0  0  0  0  0  0  0  0  0
   47.0340   31.9190   45.9610 C   0  0  0  0  0  0  0  0  0  0  0  0
   46.9860   32.5870   47.1850 C   0  0  0  0  0  0  0  0  0  0  0  0
   47.4730   32.0210   48.3380 C   0  0  0  0  0  0  0  0  0  0  0  0
   48.0270   30.7520   48.2860 C   0  0  0  0  0  0  0  0  0  0  0  0
   48.1060   30.0370   47.1070 C   0  0  0  0  0  0  0  0  0  0  0  0
   46.5460   33.5870   47.2160 H   0  0  0  0  0  0  0  0  0  0  0  0
   47.4330   32.5390   49.2800 H   0  0  0  0  0  0  0  0  0  0  0  0
   48.4170   30.2850   49.1810 H   0  0  0  0  0  0  0  0  0  0  0  0
   48.6880   28.7000   47.0420 C   0  0  0  0  0  0  0  0  0  0  0  0
   48.0330   27.5630   47.4660 C   0  0  0  0  0  0  0  0  0  0  0  0
   47.0510   27.5200   47.8790 H   0  0  0  0  0  0  0  0  0  0  0  0
   48.9650   26.5560   47.2130 C   0  0  0  0  0  0  0  0  0  0  0  0
   48.7970   25.4990   47.4230 H   0  0  0  0  0  0  0  0  0  0  0  0
   50.1050   27.1200   46.6640 C   0  0  0  0  0  0  0  0  0  0  0  0
   51.0150   26.6250   46.3530 H   0  0  0  0  0  0  0  0  0  0  0  0
   49.8640   28.4140   46.5920 O   0  0  0  0  0  0  0  0  0  0  0  0
   46.8040   34.1020   43.0630 C   0  0  0  0  0  0  0  0  0  0  0  0
   45.6290   33.7040   42.4210 C   0  0  0  0  0  0  0  0  0  0  0  0
   44.9090   32.6530   43.0170 C   0  0  0  0  0  0  0  0  0  0  0  0
   45.3700   32.0820   44.1590 N   0  0  0  0  0  0  0  0  0  0  0  0
   46.5180   32.5150   44.7340 C   0  0  0  0  0  0  0  0  0  0  0  0
   47.2330   33.5240   44.1870 N   0  0  0  0  0  0  0  0  0  0  0  0
   43.9940   32.3210   42.5420 H   0  0  0  0  0  0  0  0  0  0  0  0
   45.1970   34.3760   41.1810 C   0  0  0  0  0  0  0  0  0  0  0  0
   44.9080   35.6960   41.4400 F   0  0  0  0  0  0  0  0  0  0  0  0
   46.2660   34.3580   40.2930 F   0  0  0  0  0  0  0  0  0  0  0  0
   44.1270   33.8120   40.5760 F   0  0  0  0  0  0  0  0  0  0  0  0
   47.5000   35.1210   42.4850 O   0  0  0  0  0  0  0  0  0  0  0  0
   48.8030   35.0460   41.9420 C   0  0  0  0  0  0  0  0  0  0  0  0
   49.6860   35.2890   42.9990 F   0  0  0  0  0  0  0  0  0  0  0  0
   49.0050   33.8310   41.3430 F   0  0  0  0  0  0  0  0  0  0  0  0
   49.0090   36.0990   41.0790 F   0  0  0  0  0  0  0  0  0  0  0  0
  1  2  1  0  0  0  0
  2  7  1  0  0  0  0
  3  2  2  0  0  0  0
  3  4  1  0  0  0  0
  4  8  1  0  0  0  0
  4  5  2  0  0  0  0
  5  9  1  0  0  0  0
  6  5  1  0  0  0  0
  6 10  1  0  0  0  0
  7  6  2  0  0  0  0
 11  7  1  0  0  0  0
 11 12  2  0  0  0  0
 12 13  1  0  0  0  0
 14 15  1  0  0  0  0
 14 12  1  0  0  0  0
 16 14  2  0  0  0  0
 17 16  1  0  0  0  0
 18 16  1  0  0  0  0
 18 11  1  0  0  0  0
 19 24  1  0  0  0  0
 20 21  1  0  0  0  0
 20 19  2  0  0  0  0
 21 22  2  0  0  0  0
 22 23  1  0  0  0  0
 23  3  1  0  0  0  0
 24 23  2  0  0  0  0
 25 21  1  0  0  0  0
 26 27  1  0  0  0  0
 26 20  1  0  0  0  0
 28 26  1  0  0  0  0
 29 26  1  0  0  0  0
 30 19  1  0  0  0  0
 31 30  1  0  0  0  0
 31 32  1  0  0  0  0
 33 31  1  0  0  0  0
 34 31  1  0  0  0  0
M  END
>  <minimizedAffinity>
-5.47879219

>  <minimizedRMSD>
0.113480657

$$$$
