
 OpenBabel03242517243D

 42 45  0  0  1  0  0  0  0  0999 V2000
   38.9220   32.5460   40.6240 C   0  0  0  0  0  0  0  0  0  0  0  0
   38.0660   32.9060   39.5590 C   0  0  0  0  0  0  0  0  0  0  0  0
   36.9520   32.0870   39.2810 C   0  0  0  0  0  0  0  0  0  0  0  0
   36.7700   30.9970   40.0580 N   0  0  0  0  0  0  0  0  0  0  0  0
   37.6120   30.6750   41.0780 C   0  0  0  0  0  0  0  0  0  0  0  0
   38.6950   31.4550   41.3610 N   0  0  0  0  0  0  0  0  0  0  0  0
   37.3280   29.4930   41.8440 N   0  0  0  0  0  0  0  0  0  0  0  0
   38.0660   29.3680   43.0940 C   0  0  0  0  0  0  0  0  0  0  0  0
   38.0730   28.0120   43.6710 C   0  0  0  0  0  0  0  0  0  0  0  0
   36.7750   27.3110   43.4060 C   0  0  0  0  0  0  0  0  0  0  0  0
   36.6680   27.1810   41.9190 C   0  0  0  0  0  0  0  0  0  0  0  0
   36.3700   28.5290   41.3640 C   0  0  2  0  0  0  0  0  0  0  0  0
   39.7680   33.1890   40.8160 H   0  0  0  0  0  0  0  0  0  0  0  0
   38.2540   33.7780   38.9750 H   0  0  0  0  0  0  0  0  0  0  0  0
   36.2690   32.3260   38.4740 H   0  0  0  0  0  0  0  0  0  0  0  0
   39.1190   29.6600   42.8520 H   0  0  0  0  0  0  0  0  0  0  0  0
   37.6930   30.1420   43.7970 H   0  0  0  0  0  0  0  0  0  0  0  0
   38.2930   28.0550   44.7440 H   0  0  0  0  0  0  0  0  0  0  0  0
   38.8830   27.4180   43.1650 H   0  0  0  0  0  0  0  0  0  0  0  0
   35.9340   27.9650   43.7690 H   0  0  0  0  0  0  0  0  0  0  0  0
   36.6480   26.3510   43.9210 H   0  0  0  0  0  0  0  0  0  0  0  0
   37.6940   26.8840   41.5620 H   0  0  0  0  0  0  0  0  0  0  0  0
   35.9240   26.4330   41.5920 H   0  0  0  0  0  0  0  0  0  0  0  0
   35.3880   28.8700   41.7630 H   0  0  0  0  0  0  0  0  0  0  0  0
   33.9330   29.1330   40.0050 F   0  0  0  0  0  0  0  0  0  0  0  0
   35.0010   28.8130   39.2260 C   0  0  0  0  0  0  0  0  0  0  0  0
   36.2010   28.5170   39.8850 C   0  0  0  0  0  0  0  0  0  0  0  0
   37.2660   28.1980   39.0570 C   0  0  0  0  0  0  0  0  0  0  0  0
   37.1780   28.1650   37.6900 C   0  0  0  0  0  0  0  0  0  0  0  0
   35.9910   28.4590   37.0800 C   0  0  0  0  0  0  0  0  0  0  0  0
   34.8970   28.7850   37.8610 C   0  0  0  0  0  0  0  0  0  0  0  0
   38.2040   27.9640   39.5320 H   0  0  0  0  0  0  0  0  0  0  0  0
   38.0480   27.9070   37.0800 H   0  0  0  0  0  0  0  0  0  0  0  0
   35.9350   28.4290   35.9890 H   0  0  0  0  0  0  0  0  0  0  0  0
   33.6490   29.0920   37.1670 C   0  0  0  0  0  0  0  0  0  0  0  0
   33.3850   29.2300   35.8230 C   0  0  0  0  0  0  0  0  0  0  0  0
   34.0920   29.1290   35.0130 H   0  0  0  0  0  0  0  0  0  0  0  0
   32.0560   29.5250   35.5950 C   0  0  0  0  0  0  0  0  0  0  0  0
   31.5490   29.6900   34.6550 H   0  0  0  0  0  0  0  0  0  0  0  0
   31.5440   29.5560   36.8750 C   0  0  0  0  0  0  0  0  0  0  0  0
   30.5040   29.7590   37.1550 H   0  0  0  0  0  0  0  0  0  0  0  0
   32.4750   29.3060   37.7310 O   0  0  0  0  0  0  0  0  0  0  0  0
  1 13  1  0  0  0  0
  1  6  1  0  0  0  0
  2  1  2  0  0  0  0
  3  2  1  0  0  0  0
  3  4  2  0  0  0  0
  4  5  1  0  0  0  0
  5  6  2  0  0  0  0
  5  7  1  0  0  0  0
  7  8  1  0  0  0  0
  8  9  1  0  0  0  0
  8 17  1  0  0  0  0
  9 18  1  0  0  0  0
 10  9  1  0  0  0  0
 10 20  1  0  0  0  0
 10 21  1  0  0  0  0
 11 10  1  0  0  0  0
 12 24  1  1  0  0  0
 12  7  1  0  0  0  0
 12 11  1  0  0  0  0
 14  2  1  0  0  0  0
 15  3  1  0  0  0  0
 16  8  1  0  0  0  0
 19  9  1  0  0  0  0
 22 11  1  0  0  0  0
 23 11  1  0  0  0  0
 26 27  1  0  0  0  0
 26 25  1  0  0  0  0
 27 12  1  0  0  0  0
 28 32  1  0  0  0  0
 28 27  2  0  0  0  0
 29 28  1  0  0  0  0
 30 29  2  0  0  0  0
 30 31  1  0  0  0  0
 31 26  2  0  0  0  0
 33 29  1  0  0  0  0
 34 30  1  0  0  0  0
 35 42  1  0  0  0  0
 35 31  1  0  0  0  0
 36 35  2  0  0  0  0
 37 36  1  0  0  0  0
 38 36  1  0  0  0  0
 38 40  2  0  0  0  0
 39 38  1  0  0  0  0
 40 41  1  0  0  0  0
 40 42  1  0  0  0  0
M  END
>  <minimizedAffinity>
-6.4181757

$$$$

 OpenBabel03242517243D

 42 45  0  0  1  0  0  0  0  0999 V2000
   42.0200   30.6720   42.9260 C   0  0  0  0  0  0  0  0  0  0  0  0
   42.1000   29.2640   43.0060 C   0  0  0  0  0  0  0  0  0  0  0  0
   41.1160   28.4930   42.3550 C   0  0  0  0  0  0  0  0  0  0  0  0
   40.1460   29.1560   41.6860 N   0  0  0  0  0  0  0  0  0  0  0  0
   40.0950   30.5150   41.6250 C   0  0  0  0  0  0  0  0  0  0  0  0
   41.0390   31.2770   42.2500 N   0  0  0  0  0  0  0  0  0  0  0  0
   39.0220   31.1210   40.8870 N   0  0  0  0  0  0  0  0  0  0  0  0
   39.1870   32.5400   40.5980 C   0  0  0  0  0  0  0  0  0  0  0  0
   37.9500   33.2340   40.2010 C   0  0  0  0  0  0  0  0  0  0  0  0
   37.0590   32.3290   39.4050 C   0  0  0  0  0  0  0  0  0  0  0  0
   36.6860   31.2030   40.3180 C   0  0  0  0  0  0  0  0  0  0  0  0
   37.8820   30.3350   40.4850 C   0  0  2  0  0  0  0  0  0  0  0  0
   42.7860   31.2400   43.4340 H   0  0  0  0  0  0  0  0  0  0  0  0
   42.8870   28.7890   43.5480 H   0  0  0  0  0  0  0  0  0  0  0  0
   41.1380   27.4100   42.3890 H   0  0  0  0  0  0  0  0  0  0  0  0
   39.5660   32.9970   41.5470 H   0  0  0  0  0  0  0  0  0  0  0  0
   40.0080   32.6500   39.8600 H   0  0  0  0  0  0  0  0  0  0  0  0
   38.1870   34.1500   39.6470 H   0  0  0  0  0  0  0  0  0  0  0  0
   37.3890   33.5170   41.1340 H   0  0  0  0  0  0  0  0  0  0  0  0
   37.6520   31.9090   38.5450 H   0  0  0  0  0  0  0  0  0  0  0  0
   36.1840   32.8110   38.9530 H   0  0  0  0  0  0  0  0  0  0  0  0
   36.4670   31.6770   41.3160 H   0  0  0  0  0  0  0  0  0  0  0  0
   35.8090   30.6260   39.9750 H   0  0  0  0  0  0  0  0  0  0  0  0
   38.1570   29.9110   39.4910 H   0  0  0  0  0  0  0  0  0  0  0  0
   37.8360   27.6330   39.5640 F   0  0  0  0  0  0  0  0  0  0  0  0
   37.5960   27.8290   40.8880 C   0  0  0  0  0  0  0  0  0  0  0  0
   37.6180   29.1510   41.3480 C   0  0  0  0  0  0  0  0  0  0  0  0
   37.3700   29.3090   42.7030 C   0  0  0  0  0  0  0  0  0  0  0  0
   37.1170   28.2650   43.5530 C   0  0  0  0  0  0  0  0  0  0  0  0
   37.1030   26.9860   43.0690 C   0  0  0  0  0  0  0  0  0  0  0  0
   37.3450   26.7740   41.7250 C   0  0  0  0  0  0  0  0  0  0  0  0
   37.3800   30.3150   43.0900 H   0  0  0  0  0  0  0  0  0  0  0  0
   36.9270   28.4410   44.6140 H   0  0  0  0  0  0  0  0  0  0  0  0
   36.8990   26.1630   43.7580 H   0  0  0  0  0  0  0  0  0  0  0  0
   37.3200   25.3930   41.2510 C   0  0  0  0  0  0  0  0  0  0  0  0
   38.0870   24.3100   41.6160 C   0  0  0  0  0  0  0  0  0  0  0  0
   38.8800   24.2980   42.3510 H   0  0  0  0  0  0  0  0  0  0  0  0
   37.7310   23.1760   40.9150 C   0  0  0  0  0  0  0  0  0  0  0  0
   38.1460   22.1800   40.9780 H   0  0  0  0  0  0  0  0  0  0  0  0
   36.7090   23.6410   40.1130 C   0  0  0  0  0  0  0  0  0  0  0  0
   36.1340   23.0570   39.3870 H   0  0  0  0  0  0  0  0  0  0  0  0
   36.5100   24.8960   40.3350 O   0  0  0  0  0  0  0  0  0  0  0  0
  1  2  1  0  0  0  0
  1 13  1  0  0  0  0
  2 14  1  0  0  0  0
  3 15  1  0  0  0  0
  3  2  2  0  0  0  0
  4  3  1  0  0  0  0
  5  4  2  0  0  0  0
  5  6  1  0  0  0  0
  6  1  2  0  0  0  0
  7  5  1  0  0  0  0
  8  7  1  0  0  0  0
  8 16  1  0  0  0  0
  9  8  1  0  0  0  0
  9 19  1  0  0  0  0
 10  9  1  0  0  0  0
 10 11  1  0  0  0  0
 11 12  1  0  0  0  0
 11 22  1  0  0  0  0
 12 24  1  6  0  0  0
 12  7  1  0  0  0  0
 12 27  1  0  0  0  0
 17  8  1  0  0  0  0
 18  9  1  0  0  0  0
 20 10  1  0  0  0  0
 21 10  1  0  0  0  0
 23 11  1  0  0  0  0
 25 26  1  0  0  0  0
 26 27  2  0  0  0  0
 26 31  1  0  0  0  0
 27 28  1  0  0  0  0
 28 32  1  0  0  0  0
 28 29  2  0  0  0  0
 29 33  1  0  0  0  0
 30 29  1  0  0  0  0
 30 34  1  0  0  0  0
 31 30  2  0  0  0  0
 35 36  2  0  0  0  0
 35 31  1  0  0  0  0
 36 37  1  0  0  0  0
 38 39  1  0  0  0  0
 38 36  1  0  0  0  0
 40 42  1  0  0  0  0
 40 38  2  0  0  0  0
 41 40  1  0  0  0  0
 42 35  1  0  0  0  0
M  END
>  <minimizedAffinity>
-6.25821781

$$$$

 OpenBabel03242517243D

 42 45  0  0  1  0  0  0  0  0999 V2000
   36.5760   30.2640   38.1660 C   0  0  0  0  0  0  0  0  0  0  0  0
   35.4520   29.6800   38.7900 C   0  0  0  0  0  0  0  0  0  0  0  0
   35.5240   29.3750   40.1650 C   0  0  0  0  0  0  0  0  0  0  0  0
   36.6770   29.6640   40.8080 N   0  0  0  0  0  0  0  0  0  0  0  0
   37.7450   30.2280   40.1790 C   0  0  0  0  0  0  0  0  0  0  0  0
   37.6930   30.5290   38.8490 N   0  0  0  0  0  0  0  0  0  0  0  0
   38.9250   30.4940   40.9550 N   0  0  0  0  0  0  0  0  0  0  0  0
   39.9050   31.3660   40.3190 C   0  0  0  0  0  0  0  0  0  0  0  0
   41.2470   31.3250   40.9240 C   0  0  0  0  0  0  0  0  0  0  0  0
   41.1620   31.1240   42.4070 C   0  0  0  0  0  0  0  0  0  0  0  0
   40.5210   29.7870   42.6100 C   0  0  0  0  0  0  0  0  0  0  0  0
   39.0790   29.9150   42.2650 C   0  0  2  0  0  0  0  0  0  0  0  0
   36.4950   30.4870   37.1120 H   0  0  0  0  0  0  0  0  0  0  0  0
   34.5630   29.4710   38.2370 H   0  0  0  0  0  0  0  0  0  0  0  0
   34.6850   28.9270   40.6850 H   0  0  0  0  0  0  0  0  0  0  0  0
   39.9780   31.0130   39.2600 H   0  0  0  0  0  0  0  0  0  0  0  0
   39.4770   32.3890   40.2680 H   0  0  0  0  0  0  0  0  0  0  0  0
   41.8060   32.2350   40.6750 H   0  0  0  0  0  0  0  0  0  0  0  0
   41.7990   30.4410   40.4990 H   0  0  0  0  0  0  0  0  0  0  0  0
   40.4830   31.9140   42.8360 H   0  0  0  0  0  0  0  0  0  0  0  0
   42.1100   31.2220   42.9490 H   0  0  0  0  0  0  0  0  0  0  0  0
   40.9930   29.1020   41.8510 H   0  0  0  0  0  0  0  0  0  0  0  0
   40.6620   29.3780   43.6250 H   0  0  0  0  0  0  0  0  0  0  0  0
   38.6090   30.6440   42.9640 H   0  0  0  0  0  0  0  0  0  0  0  0
   39.4890   27.5240   40.7600 F   0  0  0  0  0  0  0  0  0  0  0  0
   38.5310   27.4800   41.7240 C   0  0  0  0  0  0  0  0  0  0  0  0
   38.3250   28.6470   42.4680 C   0  0  0  0  0  0  0  0  0  0  0  0
   37.3420   28.5610   43.4420 C   0  0  0  0  0  0  0  0  0  0  0  0
   36.6090   27.4280   43.6790 C   0  0  0  0  0  0  0  0  0  0  0  0
   36.8370   26.3050   42.9340 C   0  0  0  0  0  0  0  0  0  0  0  0
   37.8070   26.3380   41.9490 C   0  0  0  0  0  0  0  0  0  0  0  0
   37.1580   29.4430   44.0340 H   0  0  0  0  0  0  0  0  0  0  0  0
   35.8450   27.4100   44.4600 H   0  0  0  0  0  0  0  0  0  0  0  0
   36.2460   25.4090   43.1340 H   0  0  0  0  0  0  0  0  0  0  0  0
   38.0170   25.1170   41.1760 C   0  0  0  0  0  0  0  0  0  0  0  0
   38.1760   23.8140   41.5910 C   0  0  0  0  0  0  0  0  0  0  0  0
   38.1740   23.4570   42.6120 H   0  0  0  0  0  0  0  0  0  0  0  0
   38.3500   22.9580   40.5230 C   0  0  0  0  0  0  0  0  0  0  0  0
   38.4990   21.8890   40.5270 H   0  0  0  0  0  0  0  0  0  0  0  0
   38.2850   23.8220   39.4490 C   0  0  0  0  0  0  0  0  0  0  0  0
   38.3770   23.5530   38.3910 H   0  0  0  0  0  0  0  0  0  0  0  0
   38.0960   25.0280   39.8620 O   0  0  0  0  0  0  0  0  0  0  0  0
  1  2  2  0  0  0  0
  1  6  1  0  0  0  0
  2  3  1  0  0  0  0
  3 15  1  0  0  0  0
  3  4  2  0  0  0  0
  5  4  1  0  0  0  0
  5  7  1  0  0  0  0
  6  5  2  0  0  0  0
  7 12  1  0  0  0  0
  8  9  1  0  0  0  0
  8  7  1  0  0  0  0
  9 10  1  0  0  0  0
 10 11  1  0  0  0  0
 10 20  1  0  0  0  0
 10 21  1  0  0  0  0
 11 23  1  0  0  0  0
 12 27  1  0  0  0  0
 12 11  1  0  0  0  0
 12 24  1  1  0  0  0
 13  1  1  0  0  0  0
 14  2  1  0  0  0  0
 16  8  1  0  0  0  0
 17  8  1  0  0  0  0
 18  9  1  0  0  0  0
 19  9  1  0  0  0  0
 22 11  1  0  0  0  0
 25 26  1  0  0  0  0
 26 31  2  0  0  0  0
 26 27  1  0  0  0  0
 27 28  2  0  0  0  0
 28 29  1  0  0  0  0
 28 32  1  0  0  0  0
 29 33  1  0  0  0  0
 30 34  1  0  0  0  0
 30 29  2  0  0  0  0
 31 30  1  0  0  0  0
 35 36  2  0  0  0  0
 35 31  1  0  0  0  0
 36 37  1  0  0  0  0
 38 39  1  0  0  0  0
 38 36  1  0  0  0  0
 40 42  1  0  0  0  0
 40 38  2  0  0  0  0
 41 40  1  0  0  0  0
 42 35  1  0  0  0  0
M  END
>  <minimizedAffinity>
-5.93257141

$$$$

 OpenBabel03242517243D

 42 45  0  0  1  0  0  0  0  0999 V2000
   36.1450   27.4740   37.4970 C   0  0  0  0  0  0  0  0  0  0  0  0
   36.8940   28.3610   36.6930 C   0  0  0  0  0  0  0  0  0  0  0  0
   37.8670   29.1740   37.3090 C   0  0  0  0  0  0  0  0  0  0  0  0
   38.0240   29.0550   38.6460 N   0  0  0  0  0  0  0  0  0  0  0  0
   37.2860   28.1910   39.3960 C   0  0  0  0  0  0  0  0  0  0  0  0
   36.3400   27.3970   38.8170 N   0  0  0  0  0  0  0  0  0  0  0  0
   37.5320   28.1420   40.8110 N   0  0  0  0  0  0  0  0  0  0  0  0
   36.9470   27.0020   41.5060 C   0  0  0  0  0  0  0  0  0  0  0  0
   36.8630   27.1520   42.9690 C   0  0  0  0  0  0  0  0  0  0  0  0
   38.0310   27.9280   43.4970 C   0  0  0  0  0  0  0  0  0  0  0  0
   37.9360   29.2910   42.8850 C   0  0  0  0  0  0  0  0  0  0  0  0
   38.3090   29.1740   41.4500 C   0  0  2  0  0  0  0  0  0  0  0  0
   35.4060   26.8620   37.0010 H   0  0  0  0  0  0  0  0  0  0  0  0
   36.7320   28.4170   35.6400 H   0  0  0  0  0  0  0  0  0  0  0  0
   38.4660   29.8680   36.7300 H   0  0  0  0  0  0  0  0  0  0  0  0
   35.9110   26.9000   41.0960 H   0  0  0  0  0  0  0  0  0  0  0  0
   37.4890   26.0870   41.1890 H   0  0  0  0  0  0  0  0  0  0  0  0
   36.7850   26.1690   43.4490 H   0  0  0  0  0  0  0  0  0  0  0  0
   35.9350   27.7400   43.2100 H   0  0  0  0  0  0  0  0  0  0  0  0
   38.9790   27.4400   43.1340 H   0  0  0  0  0  0  0  0  0  0  0  0
   38.1160   27.9630   44.5890 H   0  0  0  0  0  0  0  0  0  0  0  0
   36.8470   29.5740   42.9330 H   0  0  0  0  0  0  0  0  0  0  0  0
   38.5450   30.0520   43.4030 H   0  0  0  0  0  0  0  0  0  0  0  0
   39.3660   28.8270   41.3830 H   0  0  0  0  0  0  0  0  0  0  0  0
   40.5630   30.3530   40.1550 F   0  0  0  0  0  0  0  0  0  0  0  0
   39.4000   31.0560   40.1110 C   0  0  0  0  0  0  0  0  0  0  0  0
   38.2890   30.4840   40.7420 C   0  0  0  0  0  0  0  0  0  0  0  0
   37.1220   31.2290   40.6730 C   0  0  0  0  0  0  0  0  0  0  0  0
   37.0340   32.4420   40.0420 C   0  0  0  0  0  0  0  0  0  0  0  0
   38.1390   32.9710   39.4350 C   0  0  0  0  0  0  0  0  0  0  0  0
   39.3290   32.2670   39.4740 C   0  0  0  0  0  0  0  0  0  0  0  0
   36.2470   30.8170   41.1490 H   0  0  0  0  0  0  0  0  0  0  0  0
   36.0900   32.9910   40.0150 H   0  0  0  0  0  0  0  0  0  0  0  0
   38.0550   33.9390   38.9350 H   0  0  0  0  0  0  0  0  0  0  0  0
   40.4840   32.8700   38.8150 C   0  0  0  0  0  0  0  0  0  0  0  0
   41.3060   33.8980   39.2170 C   0  0  0  0  0  0  0  0  0  0  0  0
   41.2320   34.4620   40.1360 H   0  0  0  0  0  0  0  0  0  0  0  0
   42.2900   34.1550   38.2840 C   0  0  0  0  0  0  0  0  0  0  0  0
   43.0770   34.8950   38.3140 H   0  0  0  0  0  0  0  0  0  0  0  0
   42.0100   33.2250   37.3050 C   0  0  0  0  0  0  0  0  0  0  0  0
   42.5590   33.0810   36.3680 H   0  0  0  0  0  0  0  0  0  0  0  0
   40.9840   32.5210   37.6440 O   0  0  0  0  0  0  0  0  0  0  0  0
  1  6  1  0  0  0  0
  2  3  1  0  0  0  0
  2  1  2  0  0  0  0
  3  4  2  0  0  0  0
  4  5  1  0  0  0  0
  5  7  1  0  0  0  0
  6  5  2  0  0  0  0
  7 12  1  0  0  0  0
  7  8  1  0  0  0  0
  8  9  1  0  0  0  0
  9 19  1  0  0  0  0
  9 18  1  0  0  0  0
  9 10  1  0  0  0  0
 10 21  1  0  0  0  0
 11 22  1  0  0  0  0
 11 23  1  0  0  0  0
 11 10  1  0  0  0  0
 12 24  1  6  0  0  0
 12 11  1  0  0  0  0
 13  1  1  0  0  0  0
 14  2  1  0  0  0  0
 15  3  1  0  0  0  0
 16  8  1  0  0  0  0
 17  8  1  0  0  0  0
 20 10  1  0  0  0  0
 26 25  1  0  0  0  0
 26 27  1  0  0  0  0
 27 12  1  0  0  0  0
 28 27  2  0  0  0  0
 28 32  1  0  0  0  0
 29 28  1  0  0  0  0
 30 31  1  0  0  0  0
 30 29  2  0  0  0  0
 31 26  2  0  0  0  0
 33 29  1  0  0  0  0
 34 30  1  0  0  0  0
 35 36  2  0  0  0  0
 35 31  1  0  0  0  0
 36 37  1  0  0  0  0
 38 39  1  0  0  0  0
 38 36  1  0  0  0  0
 40 42  1  0  0  0  0
 40 38  2  0  0  0  0
 41 40  1  0  0  0  0
 42 35  1  0  0  0  0
M  END
>  <minimizedAffinity>
-5.84811115

$$$$

 OpenBabel03242517243D

 42 45  0  0  1  0  0  0  0  0999 V2000
   37.8060   30.5440   38.3170 C   0  0  0  0  0  0  0  0  0  0  0  0
   36.5330   30.3220   38.8870 C   0  0  0  0  0  0  0  0  0  0  0  0
   36.4530   29.9800   40.2520 C   0  0  0  0  0  0  0  0  0  0  0  0
   37.6130   29.8840   40.9390 N   0  0  0  0  0  0  0  0  0  0  0  0
   38.8260   30.1040   40.3640 C   0  0  0  0  0  0  0  0  0  0  0  0
   38.9220   30.4350   39.0440 N   0  0  0  0  0  0  0  0  0  0  0  0
   39.9990   29.9760   41.1840 N   0  0  0  0  0  0  0  0  0  0  0  0
   41.2240   30.5150   40.6080 C   0  0  0  0  0  0  0  0  0  0  0  0
   42.4630   30.0480   41.2530 C   0  0  0  0  0  0  0  0  0  0  0  0
   42.2610   29.8510   42.7250 C   0  0  0  0  0  0  0  0  0  0  0  0
   41.2320   28.7730   42.8630 C   0  0  0  0  0  0  0  0  0  0  0  0
   39.9150   29.3480   42.4790 C   0  0  2  0  0  0  0  0  0  0  0  0
   37.8400   30.8040   37.2690 H   0  0  0  0  0  0  0  0  0  0  0  0
   35.6460   30.4100   38.2990 H   0  0  0  0  0  0  0  0  0  0  0  0
   35.4960   29.8020   40.7300 H   0  0  0  0  0  0  0  0  0  0  0  0
   41.2270   30.1810   39.5400 H   0  0  0  0  0  0  0  0  0  0  0  0
   41.1350   31.6210   40.5780 H   0  0  0  0  0  0  0  0  0  0  0  0
   43.2850   30.7460   41.0520 H   0  0  0  0  0  0  0  0  0  0  0  0
   42.7320   29.0470   40.8160 H   0  0  0  0  0  0  0  0  0  0  0  0
   41.8430   30.8020   43.1590 H   0  0  0  0  0  0  0  0  0  0  0  0
   43.1710   29.6390   43.2990 H   0  0  0  0  0  0  0  0  0  0  0  0
   41.5000   27.9920   42.0970 H   0  0  0  0  0  0  0  0  0  0  0  0
   41.1990   28.3190   43.8690 H   0  0  0  0  0  0  0  0  0  0  0  0
   39.6650   30.1720   43.1860 H   0  0  0  0  0  0  0  0  0  0  0  0
   39.7010   26.9120   41.0050 F   0  0  0  0  0  0  0  0  0  0  0  0
   38.7010   27.1800   41.8880 C   0  0  0  0  0  0  0  0  0  0  0  0
   38.7990   28.3720   42.6160 C   0  0  0  0  0  0  0  0  0  0  0  0
   37.7630   28.6070   43.5060 C   0  0  0  0  0  0  0  0  0  0  0  0
   36.7060   27.7530   43.6800 C   0  0  0  0  0  0  0  0  0  0  0  0
   36.6410   26.5980   42.9520 C   0  0  0  0  0  0  0  0  0  0  0  0
   37.6510   26.3150   42.0500 C   0  0  0  0  0  0  0  0  0  0  0  0
   37.8080   29.5160   44.0830 H   0  0  0  0  0  0  0  0  0  0  0  0
   35.9130   27.9840   44.3950 H   0  0  0  0  0  0  0  0  0  0  0  0
   35.7930   25.9260   43.1010 H   0  0  0  0  0  0  0  0  0  0  0  0
   37.5420   25.0710   41.2940 C   0  0  0  0  0  0  0  0  0  0  0  0
   36.6700   24.7070   40.2930 C   0  0  0  0  0  0  0  0  0  0  0  0
   35.8760   25.3120   39.8770 H   0  0  0  0  0  0  0  0  0  0  0  0
   36.9150   23.4260   39.8450 C   0  0  0  0  0  0  0  0  0  0  0  0
   36.4040   22.8650   39.0760 H   0  0  0  0  0  0  0  0  0  0  0  0
   37.9820   23.0450   40.6330 C   0  0  0  0  0  0  0  0  0  0  0  0
   38.5010   22.0800   40.6050 H   0  0  0  0  0  0  0  0  0  0  0  0
   38.3030   24.0020   41.4350 O   0  0  0  0  0  0  0  0  0  0  0  0
  1  2  2  0  0  0  0
  1  6  1  0  0  0  0
  2  3  1  0  0  0  0
  3 15  1  0  0  0  0
  3  4  2  0  0  0  0
  5  4  1  0  0  0  0
  5  7  1  0  0  0  0
  6  5  2  0  0  0  0
  7 12  1  0  0  0  0
  8  7  1  0  0  0  0
  8  9  1  0  0  0  0
  9 10  1  0  0  0  0
 10 11  1  0  0  0  0
 10 20  1  0  0  0  0
 10 21  1  0  0  0  0
 11 23  1  0  0  0  0
 12 27  1  0  0  0  0
 12 11  1  0  0  0  0
 12 24  1  1  0  0  0
 13  1  1  0  0  0  0
 14  2  1  0  0  0  0
 16  8  1  0  0  0  0
 17  8  1  0  0  0  0
 18  9  1  0  0  0  0
 19  9  1  0  0  0  0
 22 11  1  0  0  0  0
 25 26  1  0  0  0  0
 26 31  2  0  0  0  0
 26 27  1  0  0  0  0
 27 28  2  0  0  0  0
 28 29  1  0  0  0  0
 28 32  1  0  0  0  0
 29 33  1  0  0  0  0
 30 34  1  0  0  0  0
 30 29  2  0  0  0  0
 31 30  1  0  0  0  0
 35 42  1  0  0  0  0
 35 31  1  0  0  0  0
 36 35  2  0  0  0  0
 37 36  1  0  0  0  0
 38 36  1  0  0  0  0
 38 40  2  0  0  0  0
 39 38  1  0  0  0  0
 40 42  1  0  0  0  0
 41 40  1  0  0  0  0
M  END
>  <minimizedAffinity>
-5.8087616

$$$$

 OpenBabel03242517243D

 42 45  0  0  1  0  0  0  0  0999 V2000
   41.6770   29.3790   37.8990 C   0  0  0  0  0  0  0  0  0  0  0  0
   40.9450   28.4130   37.1740 C   0  0  0  0  0  0  0  0  0  0  0  0
   39.5610   28.6090   36.9920 C   0  0  0  0  0  0  0  0  0  0  0  0
   39.0130   29.7220   37.5290 N   0  0  0  0  0  0  0  0  0  0  0  0
   39.7440   30.6360   38.2240 C   0  0  0  0  0  0  0  0  0  0  0  0
   41.0840   30.4620   38.4100 N   0  0  0  0  0  0  0  0  0  0  0  0
   39.0640   31.7850   38.7540 N   0  0  0  0  0  0  0  0  0  0  0  0
   39.9280   32.8660   39.2100 C   0  0  0  0  0  0  0  0  0  0  0  0
   39.2720   33.8480   40.0900 C   0  0  0  0  0  0  0  0  0  0  0  0
   37.8400   34.0490   39.6950 C   0  0  0  0  0  0  0  0  0  0  0  0
   37.1650   32.7280   39.8910 C   0  0  0  0  0  0  0  0  0  0  0  0
   37.6240   31.8170   38.8080 C   0  0  2  0  0  0  0  0  0  0  0  0
   42.7350   29.2050   38.0250 H   0  0  0  0  0  0  0  0  0  0  0  0
   41.4260   27.5500   36.7690 H   0  0  0  0  0  0  0  0  0  0  0  0
   38.9620   27.8940   36.4410 H   0  0  0  0  0  0  0  0  0  0  0  0
   40.7540   32.3700   39.7800 H   0  0  0  0  0  0  0  0  0  0  0  0
   40.4090   33.3250   38.3210 H   0  0  0  0  0  0  0  0  0  0  0  0
   39.8250   34.7950   40.0850 H   0  0  0  0  0  0  0  0  0  0  0  0
   39.2750   33.4400   41.1380 H   0  0  0  0  0  0  0  0  0  0  0  0
   37.8040   34.3100   38.6010 H   0  0  0  0  0  0  0  0  0  0  0  0
   37.3220   34.8660   40.2110 H   0  0  0  0  0  0  0  0  0  0  0  0
   37.5580   32.3240   40.8660 H   0  0  0  0  0  0  0  0  0  0  0  0
   36.0630   32.7940   39.9270 H   0  0  0  0  0  0  0  0  0  0  0  0
   37.3040   32.2380   37.8280 H   0  0  0  0  0  0  0  0  0  0  0  0
   37.9870   29.9530   40.9410 F   0  0  0  0  0  0  0  0  0  0  0  0
   37.1680   29.5660   39.9260 C   0  0  0  0  0  0  0  0  0  0  0  0
   36.9830   30.4740   38.8770 C   0  0  0  0  0  0  0  0  0  0  0  0
   36.1410   30.0430   37.8640 C   0  0  0  0  0  0  0  0  0  0  0  0
   35.5220   28.8210   37.8630 C   0  0  0  0  0  0  0  0  0  0  0  0
   35.7250   27.9580   38.9030 C   0  0  0  0  0  0  0  0  0  0  0  0
   36.5560   28.3400   39.9410 C   0  0  0  0  0  0  0  0  0  0  0  0
   35.9770   30.7190   37.0410 H   0  0  0  0  0  0  0  0  0  0  0  0
   34.8660   28.5270   37.0400 H   0  0  0  0  0  0  0  0  0  0  0  0
   35.2260   26.9860   38.8900 H   0  0  0  0  0  0  0  0  0  0  0  0
   36.7450   27.3870   41.0310 C   0  0  0  0  0  0  0  0  0  0  0  0
   37.1300   26.0650   41.0060 C   0  0  0  0  0  0  0  0  0  0  0  0
   37.3680   25.4790   40.1300 H   0  0  0  0  0  0  0  0  0  0  0  0
   37.1850   25.5280   42.2760 C   0  0  0  0  0  0  0  0  0  0  0  0
   37.4510   24.5260   42.5780 H   0  0  0  0  0  0  0  0  0  0  0  0
   36.8130   26.6020   43.0590 C   0  0  0  0  0  0  0  0  0  0  0  0
   36.7250   26.6110   44.1510 H   0  0  0  0  0  0  0  0  0  0  0  0
   36.5750   27.6290   42.3170 O   0  0  0  0  0  0  0  0  0  0  0  0
  1 13  1  0  0  0  0
  1  6  1  0  0  0  0
  2  1  2  0  0  0  0
  3  2  1  0  0  0  0
  3  4  2  0  0  0  0
  4  5  1  0  0  0  0
  5  6  2  0  0  0  0
  5  7  1  0  0  0  0
  7 12  1  0  0  0  0
  7  8  1  0  0  0  0
  8 16  1  0  0  0  0
  8  9  1  0  0  0  0
  9 19  1  0  0  0  0
 10 11  1  0  0  0  0
 10  9  1  0  0  0  0
 10 21  1  0  0  0  0
 11 23  1  0  0  0  0
 11 22  1  0  0  0  0
 12 24  1  6  0  0  0
 12 27  1  0  0  0  0
 12 11  1  0  0  0  0
 14  2  1  0  0  0  0
 15  3  1  0  0  0  0
 17  8  1  0  0  0  0
 18  9  1  0  0  0  0
 20 10  1  0  0  0  0
 26 31  1  0  0  0  0
 26 25  1  0  0  0  0
 27 26  2  0  0  0  0
 28 27  1  0  0  0  0
 29 28  2  0  0  0  0
 29 30  1  0  0  0  0
 30 31  2  0  0  0  0
 31 35  1  0  0  0  0
 32 28  1  0  0  0  0
 33 29  1  0  0  0  0
 34 30  1  0  0  0  0
 35 42  1  0  0  0  0
 36 35  2  0  0  0  0
 36 38  1  0  0  0  0
 37 36  1  0  0  0  0
 38 39  1  0  0  0  0
 38 40  2  0  0  0  0
 40 41  1  0  0  0  0
 42 40  1  0  0  0  0
M  END
>  <minimizedAffinity>
-5.80059719

$$$$

 OpenBabel03242517243D

 42 45  0  0  1  0  0  0  0  0999 V2000
   36.4170   24.1030   40.9260 C   0  0  0  0  0  0  0  0  0  0  0  0
   36.1230   24.1010   39.5450 C   0  0  0  0  0  0  0  0  0  0  0  0
   36.3350   25.2840   38.8070 C   0  0  0  0  0  0  0  0  0  0  0  0
   36.8110   26.3580   39.4740 N   0  0  0  0  0  0  0  0  0  0  0  0
   37.0850   26.3310   40.8080 C   0  0  0  0  0  0  0  0  0  0  0  0
   36.8850   25.1950   41.5370 N   0  0  0  0  0  0  0  0  0  0  0  0
   37.5870   27.5280   41.4210 N   0  0  0  0  0  0  0  0  0  0  0  0
   38.1480   27.3580   42.7560 C   0  0  0  0  0  0  0  0  0  0  0  0
   38.2980   28.6060   43.5230 C   0  0  0  0  0  0  0  0  0  0  0  0
   38.6490   29.7510   42.6220 C   0  0  0  0  0  0  0  0  0  0  0  0
   37.4910   29.9170   41.6890 C   0  0  0  0  0  0  0  0  0  0  0  0
   37.5180   28.7870   40.7220 C   0  0  2  0  0  0  0  0  0  0  0  0
   36.2450   23.1850   41.4690 H   0  0  0  0  0  0  0  0  0  0  0  0
   35.7490   23.2250   39.0650 H   0  0  0  0  0  0  0  0  0  0  0  0
   36.1240   25.3260   37.7450 H   0  0  0  0  0  0  0  0  0  0  0  0
   37.4340   26.6870   43.2970 H   0  0  0  0  0  0  0  0  0  0  0  0
   39.0920   26.7820   42.6640 H   0  0  0  0  0  0  0  0  0  0  0  0
   39.0430   28.4780   44.3180 H   0  0  0  0  0  0  0  0  0  0  0  0
   37.3080   28.8480   44.0000 H   0  0  0  0  0  0  0  0  0  0  0  0
   39.5550   29.4660   42.0180 H   0  0  0  0  0  0  0  0  0  0  0  0
   38.9150   30.6840   43.1320 H   0  0  0  0  0  0  0  0  0  0  0  0
   36.5670   29.8010   42.3230 H   0  0  0  0  0  0  0  0  0  0  0  0
   37.4730   30.8930   41.1740 H   0  0  0  0  0  0  0  0  0  0  0  0
   38.4610   28.8450   40.1320 H   0  0  0  0  0  0  0  0  0  0  0  0
   37.9230   28.8360   37.8970 F   0  0  0  0  0  0  0  0  0  0  0  0
   36.6340   28.8940   38.3280 C   0  0  0  0  0  0  0  0  0  0  0  0
   36.4270   28.8680   39.7120 C   0  0  0  0  0  0  0  0  0  0  0  0
   35.1010   28.9260   40.1120 C   0  0  0  0  0  0  0  0  0  0  0  0
   34.0490   29.0050   39.2370 C   0  0  0  0  0  0  0  0  0  0  0  0
   34.2880   29.0280   37.8910 C   0  0  0  0  0  0  0  0  0  0  0  0
   35.5940   28.9720   37.4400 C   0  0  0  0  0  0  0  0  0  0  0  0
   34.9050   28.9090   41.1710 H   0  0  0  0  0  0  0  0  0  0  0  0
   33.0200   29.0490   39.6020 H   0  0  0  0  0  0  0  0  0  0  0  0
   33.4410   29.0910   37.2040 H   0  0  0  0  0  0  0  0  0  0  0  0
   35.8040   28.9990   35.9950 C   0  0  0  0  0  0  0  0  0  0  0  0
   36.3740   29.9620   35.1930 C   0  0  0  0  0  0  0  0  0  0  0  0
   36.7820   30.9100   35.5140 H   0  0  0  0  0  0  0  0  0  0  0  0
   36.3740   29.5830   33.8660 C   0  0  0  0  0  0  0  0  0  0  0  0
   36.7480   30.1200   33.0070 H   0  0  0  0  0  0  0  0  0  0  0  0
   35.7730   28.3420   33.9210 C   0  0  0  0  0  0  0  0  0  0  0  0
   35.5730   27.6790   33.0730 H   0  0  0  0  0  0  0  0  0  0  0  0
   35.4680   28.0520   35.1390 O   0  0  0  0  0  0  0  0  0  0  0  0
  1 13  1  0  0  0  0
  1  6  1  0  0  0  0
  2  1  2  0  0  0  0
  3  4  2  0  0  0  0
  3  2  1  0  0  0  0
  4  5  1  0  0  0  0
  5  7  1  0  0  0  0
  5  6  2  0  0  0  0
  7  8  1  0  0  0  0
  8 16  1  0  0  0  0
  8  9  1  0  0  0  0
  9 19  1  0  0  0  0
  9 18  1  0  0  0  0
 10 21  1  0  0  0  0
 10  9  1  0  0  0  0
 11 22  1  0  0  0  0
 11 10  1  0  0  0  0
 12 24  1  6  0  0  0
 12  7  1  0  0  0  0
 12 11  1  0  0  0  0
 14  2  1  0  0  0  0
 15  3  1  0  0  0  0
 17  8  1  0  0  0  0
 20 10  1  0  0  0  0
 23 11  1  0  0  0  0
 25 26  1  0  0  0  0
 26 27  1  0  0  0  0
 27 28  2  0  0  0  0
 27 12  1  0  0  0  0
 28 32  1  0  0  0  0
 29 33  1  0  0  0  0
 29 28  1  0  0  0  0
 30 29  2  0  0  0  0
 31 30  1  0  0  0  0
 31 26  2  0  0  0  0
 34 30  1  0  0  0  0
 35 31  1  0  0  0  0
 36 37  1  0  0  0  0
 36 35  2  0  0  0  0
 38 40  2  0  0  0  0
 38 36  1  0  0  0  0
 39 38  1  0  0  0  0
 40 42  1  0  0  0  0
 41 40  1  0  0  0  0
 42 35  1  0  0  0  0
M  END
>  <minimizedAffinity>
-5.77817822

$$$$

 OpenBabel03242517243D

 42 45  0  0  1  0  0  0  0  0999 V2000
   39.6570   31.2410   38.8280 C   0  0  0  0  0  0  0  0  0  0  0  0
   38.6330   31.6350   37.9390 C   0  0  0  0  0  0  0  0  0  0  0  0
   37.3040   31.2690   38.2340 C   0  0  0  0  0  0  0  0  0  0  0  0
   37.0890   30.5560   39.3610 N   0  0  0  0  0  0  0  0  0  0  0  0
   38.0970   30.1900   40.2000 C   0  0  0  0  0  0  0  0  0  0  0  0
   39.3890   30.5350   39.9300 N   0  0  0  0  0  0  0  0  0  0  0  0
   37.7600   29.4310   41.3730 N   0  0  0  0  0  0  0  0  0  0  0  0
   38.8120   29.3360   42.3770 C   0  0  0  0  0  0  0  0  0  0  0  0
   38.6190   28.2650   43.3690 C   0  0  0  0  0  0  0  0  0  0  0  0
   37.1650   28.0770   43.6800 C   0  0  0  0  0  0  0  0  0  0  0  0
   36.5190   27.6450   42.4000 C   0  0  0  0  0  0  0  0  0  0  0  0
   36.4580   28.8270   41.4980 C   0  0  2  0  0  0  0  0  0  0  0  0
   40.6670   31.5330   38.5790 H   0  0  0  0  0  0  0  0  0  0  0  0
   38.8560   32.1990   37.0610 H   0  0  0  0  0  0  0  0  0  0  0  0
   36.4870   31.5520   37.5790 H   0  0  0  0  0  0  0  0  0  0  0  0
   39.7530   29.1310   41.8070 H   0  0  0  0  0  0  0  0  0  0  0  0
   38.9480   30.3390   42.8330 H   0  0  0  0  0  0  0  0  0  0  0  0
   39.1980   28.4770   44.2770 H   0  0  0  0  0  0  0  0  0  0  0  0
   38.9930   27.3010   42.9260 H   0  0  0  0  0  0  0  0  0  0  0  0
   36.7310   29.0720   43.9800 H   0  0  0  0  0  0  0  0  0  0  0  0
   36.9470   27.3960   44.5100 H   0  0  0  0  0  0  0  0  0  0  0  0
   37.2240   26.8980   41.9370 H   0  0  0  0  0  0  0  0  0  0  0  0
   35.5240   27.1870   42.5390 H   0  0  0  0  0  0  0  0  0  0  0  0
   35.8190   29.6060   41.9740 H   0  0  0  0  0  0  0  0  0  0  0  0
   37.4310   26.9560   39.5740 F   0  0  0  0  0  0  0  0  0  0  0  0
   36.2790   27.6070   39.2610 C   0  0  0  0  0  0  0  0  0  0  0  0
   35.7940   28.5250   40.2000 C   0  0  0  0  0  0  0  0  0  0  0  0
   34.6170   29.1660   39.8460 C   0  0  0  0  0  0  0  0  0  0  0  0
   33.9570   28.9390   38.6670 C   0  0  0  0  0  0  0  0  0  0  0  0
   34.4590   28.0350   37.7730 C   0  0  0  0  0  0  0  0  0  0  0  0
   35.6300   27.3670   38.0780 C   0  0  0  0  0  0  0  0  0  0  0  0
   34.2160   29.8800   40.5470 H   0  0  0  0  0  0  0  0  0  0  0  0
   33.0300   29.4700   38.4340 H   0  0  0  0  0  0  0  0  0  0  0  0
   33.9220   27.8630   36.8370 H   0  0  0  0  0  0  0  0  0  0  0  0
   36.1310   26.4120   37.0950 C   0  0  0  0  0  0  0  0  0  0  0  0
   36.7860   26.6190   35.9010 C   0  0  0  0  0  0  0  0  0  0  0  0
   37.0520   27.5720   35.4680 H   0  0  0  0  0  0  0  0  0  0  0  0
   37.0860   25.4270   35.2730 C   0  0  0  0  0  0  0  0  0  0  0  0
   37.5910   25.2640   34.3330 H   0  0  0  0  0  0  0  0  0  0  0  0
   36.5760   24.4990   36.1580 C   0  0  0  0  0  0  0  0  0  0  0  0
   36.6010   23.4100   36.0440 H   0  0  0  0  0  0  0  0  0  0  0  0
   36.0470   25.0970   37.1700 O   0  0  0  0  0  0  0  0  0  0  0  0
  1  6  1  0  0  0  0
  2  3  1  0  0  0  0
  2  1  2  0  0  0  0
  3  4  2  0  0  0  0
  4  5  1  0  0  0  0
  5  7  1  0  0  0  0
  6  5  2  0  0  0  0
  7 12  1  0  0  0  0
  7  8  1  0  0  0  0
  8 17  1  0  0  0  0
  8  9  1  0  0  0  0
  9 10  1  0  0  0  0
  9 18  1  0  0  0  0
 10 20  1  0  0  0  0
 10 21  1  0  0  0  0
 11 23  1  0  0  0  0
 11 10  1  0  0  0  0
 12 24  1  1  0  0  0
 12 11  1  0  0  0  0
 13  1  1  0  0  0  0
 14  2  1  0  0  0  0
 15  3  1  0  0  0  0
 16  8  1  0  0  0  0
 19  9  1  0  0  0  0
 22 11  1  0  0  0  0
 26 25  1  0  0  0  0
 26 27  1  0  0  0  0
 27 12  1  0  0  0  0
 28 27  2  0  0  0  0
 28 32  1  0  0  0  0
 29 28  1  0  0  0  0
 30 31  1  0  0  0  0
 30 29  2  0  0  0  0
 31 26  2  0  0  0  0
 33 29  1  0  0  0  0
 34 30  1  0  0  0  0
 35 42  1  0  0  0  0
 35 31  1  0  0  0  0
 36 35  2  0  0  0  0
 37 36  1  0  0  0  0
 38 36  1  0  0  0  0
 38 40  2  0  0  0  0
 39 38  1  0  0  0  0
 40 42  1  0  0  0  0
 41 40  1  0  0  0  0
M  END
>  <minimizedAffinity>
-5.73691368

$$$$

 OpenBabel03242517243D

 42 45  0  0  1  0  0  0  0  0999 V2000
   35.0620   27.6170   37.9140 C   0  0  0  0  0  0  0  0  0  0  0  0
   35.7290   28.8030   38.2930 C   0  0  0  0  0  0  0  0  0  0  0  0
   36.8600   28.7050   39.1290 C   0  0  0  0  0  0  0  0  0  0  0  0
   37.2410   27.4690   39.5210 N   0  0  0  0  0  0  0  0  0  0  0  0
   36.5780   26.3430   39.1400 C   0  0  0  0  0  0  0  0  0  0  0  0
   35.4810   26.4190   38.3320 N   0  0  0  0  0  0  0  0  0  0  0  0
   37.0660   25.0770   39.6120 N   0  0  0  0  0  0  0  0  0  0  0  0
   36.5200   23.9070   38.9360 C   0  0  0  0  0  0  0  0  0  0  0  0
   36.7090   22.6370   39.6580 C   0  0  0  0  0  0  0  0  0  0  0  0
   38.0140   22.6280   40.3960 C   0  0  0  0  0  0  0  0  0  0  0  0
   37.9270   23.7270   41.4080 C   0  0  0  0  0  0  0  0  0  0  0  0
   38.0280   25.0230   40.6840 C   0  0  2  0  0  0  0  0  0  0  0  0
   34.1980   27.7190   37.2740 H   0  0  0  0  0  0  0  0  0  0  0  0
   35.3870   29.7560   37.9560 H   0  0  0  0  0  0  0  0  0  0  0  0
   37.4030   29.5900   39.4430 H   0  0  0  0  0  0  0  0  0  0  0  0
   35.4220   24.1020   38.8370 H   0  0  0  0  0  0  0  0  0  0  0  0
   36.9190   23.8870   37.9010 H   0  0  0  0  0  0  0  0  0  0  0  0
   36.6360   21.7890   38.9650 H   0  0  0  0  0  0  0  0  0  0  0  0
   35.8920   22.5410   40.4240 H   0  0  0  0  0  0  0  0  0  0  0  0
   38.8370   22.8770   39.6700 H   0  0  0  0  0  0  0  0  0  0  0  0
   38.2930   21.6670   40.8430 H   0  0  0  0  0  0  0  0  0  0  0  0
   36.8900   23.6610   41.8450 H   0  0  0  0  0  0  0  0  0  0  0  0
   38.6790   23.6500   42.2120 H   0  0  0  0  0  0  0  0  0  0  0  0
   39.0230   25.0770   40.1860 H   0  0  0  0  0  0  0  0  0  0  0  0
   40.1090   26.9640   40.9150 F   0  0  0  0  0  0  0  0  0  0  0  0
   39.0180   27.1430   41.7080 C   0  0  0  0  0  0  0  0  0  0  0  0
   37.9920   26.1970   41.6000 C   0  0  0  0  0  0  0  0  0  0  0  0
   36.8980   26.4160   42.4220 C   0  0  0  0  0  0  0  0  0  0  0  0
   36.8020   27.4730   43.2880 C   0  0  0  0  0  0  0  0  0  0  0  0
   37.8230   28.3780   43.3690 C   0  0  0  0  0  0  0  0  0  0  0  0
   38.9380   28.2060   42.5690 C   0  0  0  0  0  0  0  0  0  0  0  0
   36.0900   25.7060   42.3630 H   0  0  0  0  0  0  0  0  0  0  0  0
   35.9170   27.6020   43.9160 H   0  0  0  0  0  0  0  0  0  0  0  0
   37.7330   29.2160   44.0640 H   0  0  0  0  0  0  0  0  0  0  0  0
   40.0040   29.1960   42.6870 C   0  0  0  0  0  0  0  0  0  0  0  0
   39.9660   30.5680   42.5720 C   0  0  0  0  0  0  0  0  0  0  0  0
   39.0960   31.1740   42.3630 H   0  0  0  0  0  0  0  0  0  0  0  0
   41.2130   31.1280   42.7580 C   0  0  0  0  0  0  0  0  0  0  0  0
   41.5010   32.1690   42.7280 H   0  0  0  0  0  0  0  0  0  0  0  0
   41.9960   30.0160   42.9910 C   0  0  0  0  0  0  0  0  0  0  0  0
   43.0730   30.0090   43.1910 H   0  0  0  0  0  0  0  0  0  0  0  0
   41.2750   28.9490   42.9420 O   0  0  0  0  0  0  0  0  0  0  0  0
  1  2  2  0  0  0  0
  1  6  1  0  0  0  0
  2  3  1  0  0  0  0
  3 15  1  0  0  0  0
  3  4  2  0  0  0  0
  5  4  1  0  0  0  0
  5  7  1  0  0  0  0
  6  5  2  0  0  0  0
  7 12  1  0  0  0  0
  8  7  1  0  0  0  0
  8  9  1  0  0  0  0
  9 10  1  0  0  0  0
  9 19  1  0  0  0  0
 10 21  1  0  0  0  0
 10 11  1  0  0  0  0
 11 22  1  0  0  0  0
 11 23  1  0  0  0  0
 12 24  1  6  0  0  0
 12 11  1  0  0  0  0
 12 27  1  0  0  0  0
 13  1  1  0  0  0  0
 14  2  1  0  0  0  0
 16  8  1  0  0  0  0
 17  8  1  0  0  0  0
 18  9  1  0  0  0  0
 20 10  1  0  0  0  0
 25 26  1  0  0  0  0
 26 31  1  0  0  0  0
 27 26  2  0  0  0  0
 27 28  1  0  0  0  0
 28 29  2  0  0  0  0
 29 30  1  0  0  0  0
 29 33  1  0  0  0  0
 30 34  1  0  0  0  0
 31 35  1  0  0  0  0
 31 30  2  0  0  0  0
 32 28  1  0  0  0  0
 35 42  1  0  0  0  0
 36 35  2  0  0  0  0
 36 38  1  0  0  0  0
 37 36  1  0  0  0  0
 38 40  2  0  0  0  0
 39 38  1  0  0  0  0
 40 41  1  0  0  0  0
 42 40  1  0  0  0  0
M  END
>  <minimizedAffinity>
-5.67482042

$$$$
