
 OpenBabel03252504143D

 34 36  0  0  0  0  0  0  0  0999 V2000
   47.6890   29.9380   44.8280 F   0  0  0  0  0  0  0  0  0  0  0  0
   47.6000   30.6660   45.9870 C   0  0  0  0  0  0  0  0  0  0  0  0
   47.0350   31.9190   45.9610 C   0  0  0  0  0  0  0  0  0  0  0  0
   46.9860   32.5870   47.1850 C   0  0  0  0  0  0  0  0  0  0  0  0
   47.4740   32.0190   48.3380 C   0  0  0  0  0  0  0  0  0  0  0  0
   48.0280   30.7520   48.2850 C   0  0  0  0  0  0  0  0  0  0  0  0
   48.1080   30.0360   47.1050 C   0  0  0  0  0  0  0  0  0  0  0  0
   46.5470   33.5860   47.2160 H   0  0  0  0  0  0  0  0  0  0  0  0
   47.4340   32.5370   49.2800 H   0  0  0  0  0  0  0  0  0  0  0  0
   48.4190   30.2840   49.1800 H   0  0  0  0  0  0  0  0  0  0  0  0
   48.6910   28.7000   47.0400 C   0  0  0  0  0  0  0  0  0  0  0  0
   48.0370   27.5630   47.4690 C   0  0  0  0  0  0  0  0  0  0  0  0
   47.0580   27.5210   47.8880 H   0  0  0  0  0  0  0  0  0  0  0  0
   48.9680   26.5570   47.2140 C   0  0  0  0  0  0  0  0  0  0  0  0
   48.8040   25.4990   47.4260 H   0  0  0  0  0  0  0  0  0  0  0  0
   50.1070   27.1200   46.6590 C   0  0  0  0  0  0  0  0  0  0  0  0
   51.0150   26.6260   46.3430 H   0  0  0  0  0  0  0  0  0  0  0  0
   49.8650   28.4140   46.5860 O   0  0  0  0  0  0  0  0  0  0  0  0
   46.8040   34.1020   43.0630 C   0  0  0  0  0  0  0  0  0  0  0  0
   45.6300   33.7040   42.4210 C   0  0  0  0  0  0  0  0  0  0  0  0
   44.9090   32.6530   43.0170 C   0  0  0  0  0  0  0  0  0  0  0  0
   45.3700   32.0830   44.1600 N   0  0  0  0  0  0  0  0  0  0  0  0
   46.5190   32.5150   44.7340 C   0  0  0  0  0  0  0  0  0  0  0  0
   47.2340   33.5240   44.1860 N   0  0  0  0  0  0  0  0  0  0  0  0
   43.9940   32.3220   42.5430 H   0  0  0  0  0  0  0  0  0  0  0  0
   45.1970   34.3770   41.1810 C   0  0  0  0  0  0  0  0  0  0  0  0
   44.9090   35.6970   41.4410 F   0  0  0  0  0  0  0  0  0  0  0  0
   46.2660   34.3590   40.2930 F   0  0  0  0  0  0  0  0  0  0  0  0
   44.1270   33.8130   40.5760 F   0  0  0  0  0  0  0  0  0  0  0  0
   47.5010   35.1210   42.4850 O   0  0  0  0  0  0  0  0  0  0  0  0
   48.8040   35.0460   41.9420 C   0  0  0  0  0  0  0  0  0  0  0  0
   49.6870   35.2910   42.9980 F   0  0  0  0  0  0  0  0  0  0  0  0
   49.0070   33.8300   41.3450 F   0  0  0  0  0  0  0  0  0  0  0  0
   49.0090   36.0980   41.0780 F   0  0  0  0  0  0  0  0  0  0  0  0
  1  2  1  0  0  0  0
  2  7  1  0  0  0  0
  3  2  2  0  0  0  0
  3  4  1  0  0  0  0
  4  8  1  0  0  0  0
  4  5  2  0  0  0  0
  5  9  1  0  0  0  0
  6  5  1  0  0  0  0
  6 10  1  0  0  0  0
  7  6  2  0  0  0  0
 11  7  1  0  0  0  0
 11 12  2  0  0  0  0
 12 13  1  0  0  0  0
 14 15  1  0  0  0  0
 14 12  1  0  0  0  0
 16 14  2  0  0  0  0
 17 16  1  0  0  0  0
 18 16  1  0  0  0  0
 18 11  1  0  0  0  0
 19 24  1  0  0  0  0
 20 21  1  0  0  0  0
 20 19  2  0  0  0  0
 21 22  2  0  0  0  0
 22 23  1  0  0  0  0
 23  3  1  0  0  0  0
 24 23  2  0  0  0  0
 25 21  1  0  0  0  0
 26 27  1  0  0  0  0
 26 20  1  0  0  0  0
 28 26  1  0  0  0  0
 29 26  1  0  0  0  0
 30 19  1  0  0  0  0
 31 30  1  0  0  0  0
 31 32  1  0  0  0  0
 33 31  1  0  0  0  0
 34 31  1  0  0  0  0
M  END
>  <minimizedAffinity>
-5.47623014

>  <minimizedRMSD>
0.19951719

$$$$
