
 OpenBabel03242522033D

 34 36  0  0  1  0  0  0  0  0999 V2000
   47.3680   33.6680   43.1640 N   0  0  0  0  0  0  0  0  0  0  0  0
   46.9680   32.7720   42.0900 C   0  0  0  0  0  0  0  0  0  0  0  0
   48.1620   32.2490   41.3410 C   0  0  0  0  0  0  0  0  0  0  0  0
   49.0720   33.2560   40.9060 N   0  0  0  0  0  0  0  0  0  0  0  0
   49.2700   34.3520   41.7800 C   0  0  2  0  0  0  0  0  0  0  0  0
   48.6380   34.3140   43.1200 C   0  0  0  0  0  0  0  0  0  0  0  0
   46.2740   33.2860   41.3740 H   0  0  0  0  0  0  0  0  0  0  0  0
   46.4480   31.9110   42.5480 H   0  0  0  0  0  0  0  0  0  0  0  0
   48.6920   31.5530   42.0340 H   0  0  0  0  0  0  0  0  0  0  0  0
   47.7920   31.6620   40.4880 H   0  0  0  0  0  0  0  0  0  0  0  0
   49.9530   32.7890   40.6160 H   0  0  0  0  0  0  0  0  0  0  0  0
   50.3720   34.4790   41.9160 H   0  0  0  0  0  0  0  0  0  0  0  0
   49.3390   33.8600   43.8620 H   0  0  0  0  0  0  0  0  0  0  0  0
   48.4940   35.3690   43.4690 H   0  0  0  0  0  0  0  0  0  0  0  0
   44.6980   35.0100   45.4300 C   0  0  0  0  0  0  0  0  0  0  0  0
   45.4950   34.8810   44.2910 C   0  0  0  0  0  0  0  0  0  0  0  0
   46.4890   33.9020   44.2640 C   0  0  0  0  0  0  0  0  0  0  0  0
   46.5990   33.1430   45.3750 N   0  0  0  0  0  0  0  0  0  0  0  0
   45.8330   33.2690   46.4700 C   0  0  0  0  0  0  0  0  0  0  0  0
   44.8660   34.2240   46.4890 N   0  0  0  0  0  0  0  0  0  0  0  0
   43.9240   35.7790   45.4370 H   0  0  0  0  0  0  0  0  0  0  0  0
   45.3900   35.4970   43.4140 H   0  0  0  0  0  0  0  0  0  0  0  0
   46.1230   32.3420   47.5590 C   0  0  0  0  0  0  0  0  0  0  0  0
   45.0320   31.8950   48.3070 C   0  0  0  0  0  0  0  0  0  0  0  0
   43.9670   32.0860   48.2660 H   0  0  0  0  0  0  0  0  0  0  0  0
   45.5390   31.0300   49.2830 C   0  0  0  0  0  0  0  0  0  0  0  0
   45.0460   30.4580   50.0760 H   0  0  0  0  0  0  0  0  0  0  0  0
   46.9190   31.0120   49.0540 C   0  0  0  0  0  0  0  0  0  0  0  0
   47.6630   30.4560   49.6040 H   0  0  0  0  0  0  0  0  0  0  0  0
   47.2260   31.7840   48.0470 O   0  0  0  0  0  0  0  0  0  0  0  0
   48.7700   35.6150   41.0770 C   0  0  0  0  0  0  0  0  0  0  0  0
   49.6130   36.6840   41.4010 F   0  0  0  0  0  0  0  0  0  0  0  0
   47.5500   35.9090   41.6670 F   0  0  0  0  0  0  0  0  0  0  0  0
   48.7160   35.4870   39.7290 F   0  0  0  0  0  0  0  0  0  0  0  0
  1 17  1  0  0  0  0
  2  8  1  0  0  0  0
  2  1  1  0  0  0  0
  3  9  1  0  0  0  0
  3  2  1  0  0  0  0
  4  3  1  0  0  0  0
  4  5  1  0  0  0  0
  5 12  1  1  0  0  0
  5  6  1  0  0  0  0
  6  1  1  0  0  0  0
  6 14  1  0  0  0  0
  6 13  1  0  0  0  0
  7  2  1  0  0  0  0
 10  3  1  0  0  0  0
 11  4  1  0  0  0  0
 15 21  1  0  0  0  0
 15 20  1  0  0  0  0
 16 15  2  0  0  0  0
 17 16  1  0  0  0  0
 17 18  2  0  0  0  0
 18 19  1  0  0  0  0
 19 20  2  0  0  0  0
 19 23  1  0  0  0  0
 22 16  1  0  0  0  0
 23 30  1  0  0  0  0
 23 24  2  0  0  0  0
 24 26  1  0  0  0  0
 25 24  1  0  0  0  0
 26 27  1  0  0  0  0
 28 26  2  0  0  0  0
 28 29  1  0  0  0  0
 30 28  1  0  0  0  0
 31 32  1  0  0  0  0
 31 33  1  0  0  0  0
 31  5  1  0  0  0  0
 34 31  1  0  0  0  0
M  END
>  <minimizedAffinity>
-6.37372732

>  <minimizedRMSD>
0.933520973

$$$$
