
 OpenBabel03252503573D

 19 20  0  0  0  0  0  0  0  0999 V2000
   46.2080   34.7570   43.2400 C   0  0  0  0  0  0  0  0  0  0  0  0
   45.3150   35.8300   43.1840 C   0  0  0  0  0  0  0  0  0  0  0  0
   44.5250   36.0640   44.3140 C   0  0  0  0  0  0  0  0  0  0  0  0
   44.6720   35.2400   45.3880 N   0  0  0  0  0  0  0  0  0  0  0  0
   45.5450   34.2210   45.3920 C   0  0  0  0  0  0  0  0  0  0  0  0
   46.3180   33.9690   44.3240 N   0  0  0  0  0  0  0  0  0  0  0  0
   45.2240   36.4640   42.3180 H   0  0  0  0  0  0  0  0  0  0  0  0
   43.8210   36.8670   44.3410 H   0  0  0  0  0  0  0  0  0  0  0  0
   45.7210   33.3230   46.5310 C   0  0  0  0  0  0  0  0  0  0  0  0
   46.8690   32.5450   46.5500 C   0  0  0  0  0  0  0  0  0  0  0  0
   47.7010   32.4540   45.8730 H   0  0  0  0  0  0  0  0  0  0  0  0
   46.8110   31.7820   47.7210 C   0  0  0  0  0  0  0  0  0  0  0  0
   47.5570   31.0520   48.0590 H   0  0  0  0  0  0  0  0  0  0  0  0
   45.6130   32.1570   48.3400 C   0  0  0  0  0  0  0  0  0  0  0  0
   45.2780   31.7370   49.2780 H   0  0  0  0  0  0  0  0  0  0  0  0
   45.0070   33.0640   47.6050 O   0  0  0  0  0  0  0  0  0  0  0  0
   46.9970   34.5630   42.0470 C   0  0  0  0  0  0  0  0  0  0  0  0
   47.9530   35.2880   41.6520 O   0  0  0  0  0  0  0  0  0  0  0  0
   46.7090   33.6890   41.4490 H   0  0  0  0  0  0  0  0  0  0  0  0
  1  6  1  0  0  0  0
  2  1  2  0  0  0  0
  2  3  1  0  0  0  0
  3  8  1  0  0  0  0
  3  4  2  0  0  0  0
  4  5  1  0  0  0  0
  5  9  1  0  0  0  0
  6  5  2  0  0  0  0
  7  2  1  0  0  0  0
  9 10  2  0  0  0  0
  9 16  1  0  0  0  0
 10 12  1  0  0  0  0
 11 10  1  0  0  0  0
 12 13  1  0  0  0  0
 12 14  2  0  0  0  0
 14 15  1  0  0  0  0
 16 14  1  0  0  0  0
 17  1  1  0  0  0  0
 18 17  2  0  0  0  0
 19 17  1  0  0  0  0
M  END
>  <minimizedAffinity>
-4.50662422

>  <minimizedRMSD>
0.360752493

$$$$
