
 OpenBabel03252502493D

 44 47  0  0  1  0  0  0  0  0999 V2000
   36.9060   29.0220   41.2890 C   0  0  1  0  0  0  0  0  0  0  0  0
   35.7450   29.5530   40.5350 C   0  0  0  0  0  0  0  0  0  0  0  0
   36.6570   30.4600   41.2680 C   0  0  2  0  0  0  0  0  0  0  0  0
   37.7100   28.5690   40.7150 H   0  0  0  0  0  0  0  0  0  0  0  0
   35.7350   29.5080   39.4200 H   0  0  0  0  0  0  0  0  0  0  0  0
   34.7330   29.2960   40.9470 H   0  0  0  0  0  0  0  0  0  0  0  0
   36.1780   31.0300   42.0630 H   0  0  0  0  0  0  0  0  0  0  0  0
   37.5470   31.1930   40.3910 N   0  0  0  0  0  0  0  0  0  0  0  0
   38.7300   31.6630   41.0080 C   0  0  0  0  0  0  0  0  0  0  0  0
   39.5050   32.3860   39.9170 C   0  0  0  0  0  0  0  0  0  0  0  0
   38.7880   33.5290   39.4440 N   0  0  0  0  0  0  0  0  0  0  0  0
   37.3560   33.4130   39.5540 C   0  0  0  0  0  0  0  0  0  0  0  0
   36.9370   31.9610   39.3920 C   0  0  0  0  0  0  0  0  0  0  0  0
   38.4930   32.4450   41.7750 H   0  0  0  0  0  0  0  0  0  0  0  0
   39.3100   30.8190   41.3970 H   0  0  0  0  0  0  0  0  0  0  0  0
   40.4960   32.6380   40.3390 H   0  0  0  0  0  0  0  0  0  0  0  0
   39.6390   31.6660   39.0890 H   0  0  0  0  0  0  0  0  0  0  0  0
   39.1260   33.8680   38.5370 H   0  0  0  0  0  0  0  0  0  0  0  0
   36.9350   34.0490   38.7410 H   0  0  0  0  0  0  0  0  0  0  0  0
   37.0440   33.7510   40.5450 H   0  0  0  0  0  0  0  0  0  0  0  0
   35.8270   31.9500   39.3940 H   0  0  0  0  0  0  0  0  0  0  0  0
   37.2980   31.6440   38.3720 H   0  0  0  0  0  0  0  0  0  0  0  0
   36.6250   28.2930   42.5720 C   0  0  0  0  0  0  0  0  0  0  0  0
   35.9050   28.8900   43.1990 H   0  0  0  0  0  0  0  0  0  0  0  0
   36.1310   27.3130   42.4220 H   0  0  0  0  0  0  0  0  0  0  0  0
   37.9370   28.1420   43.2770 C   0  0  0  0  0  0  0  0  0  0  0  0
   37.9800   28.4440   44.3150 H   0  0  0  0  0  0  0  0  0  0  0  0
   38.6950   28.8020   42.7580 H   0  0  0  0  0  0  0  0  0  0  0  0
   40.0700   25.0600   43.4250 C   0  0  0  0  0  0  0  0  0  0  0  0
   39.5800   26.3620   43.6750 C   0  0  0  0  0  0  0  0  0  0  0  0
   38.4530   26.7580   43.0090 C   0  0  0  0  0  0  0  0  0  0  0  0
   37.8530   25.9040   42.1440 N   0  0  0  0  0  0  0  0  0  0  0  0
   38.3170   24.6920   41.9170 C   0  0  0  0  0  0  0  0  0  0  0  0
   39.4130   24.2620   42.5450 N   0  0  0  0  0  0  0  0  0  0  0  0
   40.9530   24.7340   43.9400 H   0  0  0  0  0  0  0  0  0  0  0  0
   40.1020   26.9980   44.3760 H   0  0  0  0  0  0  0  0  0  0  0  0
   37.6540   23.7850   40.9800 C   0  0  0  0  0  0  0  0  0  0  0  0
   36.4910   23.7240   40.2410 C   0  0  0  0  0  0  0  0  0  0  0  0
   35.8270   24.5710   40.3430 H   0  0  0  0  0  0  0  0  0  0  0  0
   36.5270   22.5270   39.5540 C   0  0  0  0  0  0  0  0  0  0  0  0
   35.6920   22.2840   38.9060 H   0  0  0  0  0  0  0  0  0  0  0  0
   37.7110   21.9060   39.9000 C   0  0  0  0  0  0  0  0  0  0  0  0
   37.9650   20.9500   39.4870 H   0  0  0  0  0  0  0  0  0  0  0  0
   38.3450   22.6860   40.7440 O   0  0  0  0  0  0  0  0  0  0  0  0
  1  4  1  6  0  0  0
  1 23  1  0  0  0  0
  2  6  1  0  0  0  0
  2  3  1  0  0  0  0
  2  1  1  0  0  0  0
  3  1  1  0  0  0  0
  3  7  1  1  0  0  0
  5  2  1  0  0  0  0
  8  9  1  0  0  0  0
  8  3  1  0  0  0  0
  9 15  1  0  0  0  0
  9 14  1  0  0  0  0
 10 16  1  0  0  0  0
 10  9  1  0  0  0  0
 11 12  1  0  0  0  0
 11 10  1  0  0  0  0
 12 20  1  0  0  0  0
 13 21  1  0  0  0  0
 13 12  1  0  0  0  0
 13  8  1  0  0  0  0
 17 10  1  0  0  0  0
 18 11  1  0  0  0  0
 19 12  1  0  0  0  0
 22 13  1  0  0  0  0
 23 24  1  0  0  0  0
 23 26  1  0  0  0  0
 25 23  1  0  0  0  0
 26 27  1  0  0  0  0
 28 26  1  0  0  0  0
 29 30  1  0  0  0  0
 29 35  1  0  0  0  0
 30 36  1  0  0  0  0
 31 26  1  0  0  0  0
 31 30  2  0  0  0  0
 32 31  1  0  0  0  0
 33 32  2  0  0  0  0
 33 34  1  0  0  0  0
 34 29  2  0  0  0  0
 37 33  1  0  0  0  0
 38 39  1  0  0  0  0
 38 37  2  0  0  0  0
 40 42  2  0  0  0  0
 40 38  1  0  0  0  0
 41 40  1  0  0  0  0
 42 44  1  0  0  0  0
 43 42  1  0  0  0  0
 44 37  1  0  0  0  0
M  END
>  <minimizedAffinity>
-5.50058079

$$$$

 OpenBabel03252502493D

 44 47  0  0  1  0  0  0  0  0999 V2000
   37.4160   31.7640   40.0140 C   0  0  1  0  0  0  0  0  0  0  0  0
   37.3310   33.2290   39.8000 C   0  0  0  0  0  0  0  0  0  0  0  0
   38.4820   32.6290   40.5120 C   0  0  2  0  0  0  0  0  0  0  0  0
   37.5470   31.1380   39.1360 H   0  0  0  0  0  0  0  0  0  0  0  0
   37.4320   33.6510   38.7720 H   0  0  0  0  0  0  0  0  0  0  0  0
   36.5180   33.7610   40.3640 H   0  0  0  0  0  0  0  0  0  0  0  0
   38.5960   32.9630   41.5410 H   0  0  0  0  0  0  0  0  0  0  0  0
   39.6850   32.5930   39.7050 N   0  0  0  0  0  0  0  0  0  0  0  0
   40.2240   33.8640   39.3920 C   0  0  0  0  0  0  0  0  0  0  0  0
   41.4660   33.5900   38.5580 C   0  0  0  0  0  0  0  0  0  0  0  0
   41.1300   32.9550   37.3220 N   0  0  0  0  0  0  0  0  0  0  0  0
   39.9330   32.1530   37.3790 C   0  0  0  0  0  0  0  0  0  0  0  0
   39.7720   31.5570   38.7680 C   0  0  0  0  0  0  0  0  0  0  0  0
   39.5310   34.4340   38.7210 H   0  0  0  0  0  0  0  0  0  0  0  0
   40.4890   34.3940   40.3140 H   0  0  0  0  0  0  0  0  0  0  0  0
   41.9820   34.5590   38.4230 H   0  0  0  0  0  0  0  0  0  0  0  0
   42.1110   32.9200   39.1540 H   0  0  0  0  0  0  0  0  0  0  0  0
   41.9320   32.5020   36.8720 H   0  0  0  0  0  0  0  0  0  0  0  0
   40.0640   31.3570   36.6090 H   0  0  0  0  0  0  0  0  0  0  0  0
   39.0670   32.7860   37.1750 H   0  0  0  0  0  0  0  0  0  0  0  0
   38.8920   30.8820   38.7220 H   0  0  0  0  0  0  0  0  0  0  0  0
   40.6930   30.9340   38.9500 H   0  0  0  0  0  0  0  0  0  0  0  0
   36.4920   31.1570   41.0310 C   0  0  0  0  0  0  0  0  0  0  0  0
   37.0300   31.0410   42.0130 H   0  0  0  0  0  0  0  0  0  0  0  0
   35.6120   31.7900   41.2580 H   0  0  0  0  0  0  0  0  0  0  0  0
   36.0820   29.8210   40.4950 C   0  0  0  0  0  0  0  0  0  0  0  0
   36.1770   29.6620   39.4300 H   0  0  0  0  0  0  0  0  0  0  0  0
   34.9800   29.6790   40.7060 H   0  0  0  0  0  0  0  0  0  0  0  0
   37.8690   28.1520   43.3410 C   0  0  0  0  0  0  0  0  0  0  0  0
   37.2610   29.1460   42.5410 C   0  0  0  0  0  0  0  0  0  0  0  0
   36.7260   28.7610   41.3430 C   0  0  0  0  0  0  0  0  0  0  0  0
   36.7950   27.4610   40.9670 N   0  0  0  0  0  0  0  0  0  0  0  0
   37.3640   26.5400   41.7190 C   0  0  0  0  0  0  0  0  0  0  0  0
   37.8990   26.8700   42.8970 N   0  0  0  0  0  0  0  0  0  0  0  0
   38.2930   28.4370   44.2850 H   0  0  0  0  0  0  0  0  0  0  0  0
   37.2360   30.1670   42.8930 H   0  0  0  0  0  0  0  0  0  0  0  0
   37.4280   25.1410   41.2950 C   0  0  0  0  0  0  0  0  0  0  0  0
   38.1700   24.0100   41.5600 C   0  0  0  0  0  0  0  0  0  0  0  0
   38.9570   24.1270   42.2920 H   0  0  0  0  0  0  0  0  0  0  0  0
   37.6540   23.0090   40.7620 C   0  0  0  0  0  0  0  0  0  0  0  0
   38.1050   22.0240   40.8210 H   0  0  0  0  0  0  0  0  0  0  0  0
   36.6170   23.5690   40.0430 C   0  0  0  0  0  0  0  0  0  0  0  0
   36.0560   22.9780   39.3460 H   0  0  0  0  0  0  0  0  0  0  0  0
   36.5190   24.8310   40.3900 O   0  0  0  0  0  0  0  0  0  0  0  0
  1  4  1  6  0  0  0
  1  3  1  0  0  0  0
  1 23  1  0  0  0  0
  2  1  1  0  0  0  0
  2  6  1  0  0  0  0
  2  3  1  0  0  0  0
  3  7  1  1  0  0  0
  5  2  1  0  0  0  0
  8  3  1  0  0  0  0
  9  8  1  0  0  0  0
  9 15  1  0  0  0  0
 10 17  1  0  0  0  0
 10  9  1  0  0  0  0
 11 12  1  0  0  0  0
 11 10  1  0  0  0  0
 12 13  1  0  0  0  0
 13 22  1  0  0  0  0
 13  8  1  0  0  0  0
 14  9  1  0  0  0  0
 16 10  1  0  0  0  0
 18 11  1  0  0  0  0
 19 12  1  0  0  0  0
 20 12  1  0  0  0  0
 21 13  1  0  0  0  0
 23 25  1  0  0  0  0
 23 24  1  0  0  0  0
 26 28  1  0  0  0  0
 26 23  1  0  0  0  0
 26 31  1  0  0  0  0
 27 26  1  0  0  0  0
 29 35  1  0  0  0  0
 30 36  1  0  0  0  0
 30 29  2  0  0  0  0
 31 30  1  0  0  0  0
 32 31  2  0  0  0  0
 32 33  1  0  0  0  0
 33 34  2  0  0  0  0
 34 29  1  0  0  0  0
 37 38  2  0  0  0  0
 37 33  1  0  0  0  0
 38 39  1  0  0  0  0
 40 41  1  0  0  0  0
 40 38  1  0  0  0  0
 42 44  1  0  0  0  0
 42 40  2  0  0  0  0
 43 42  1  0  0  0  0
 44 37  1  0  0  0  0
M  END
>  <minimizedAffinity>
-5.49045372

$$$$

 OpenBabel03252502493D

 44 47  0  0  1  0  0  0  0  0999 V2000
   39.5440   26.6800   42.3300 C   0  0  1  0  0  0  0  0  0  0  0  0
   40.4750   25.6430   42.8360 C   0  0  0  0  0  0  0  0  0  0  0  0
   39.0090   25.4580   42.9220 C   0  0  2  0  0  0  0  0  0  0  0  0
   39.5250   26.8570   41.2580 H   0  0  0  0  0  0  0  0  0  0  0  0
   41.0990   25.0560   42.1200 H   0  0  0  0  0  0  0  0  0  0  0  0
   41.0760   25.9220   43.7420 H   0  0  0  0  0  0  0  0  0  0  0  0
   38.6290   25.3610   43.9370 H   0  0  0  0  0  0  0  0  0  0  0  0
   38.5030   24.5130   41.9480 N   0  0  0  0  0  0  0  0  0  0  0  0
   39.3190   24.3500   40.8030 C   0  0  0  0  0  0  0  0  0  0  0  0
   38.6100   23.3240   39.9340 C   0  0  0  0  0  0  0  0  0  0  0  0
   37.3420   23.8120   39.4860 N   0  0  0  0  0  0  0  0  0  0  0  0
   36.7270   24.7590   40.3820 C   0  0  0  0  0  0  0  0  0  0  0  0
   37.1110   24.4420   41.8180 C   0  0  0  0  0  0  0  0  0  0  0  0
   39.3430   25.2920   40.1970 H   0  0  0  0  0  0  0  0  0  0  0  0
   40.3090   23.9850   41.0990 H   0  0  0  0  0  0  0  0  0  0  0  0
   39.2970   23.0750   39.1030 H   0  0  0  0  0  0  0  0  0  0  0  0
   38.4590   22.4240   40.5570 H   0  0  0  0  0  0  0  0  0  0  0  0
   36.7210   23.0690   39.1500 H   0  0  0  0  0  0  0  0  0  0  0  0
   35.6270   24.6560   40.2250 H   0  0  0  0  0  0  0  0  0  0  0  0
   37.0850   25.7630   40.1450 H   0  0  0  0  0  0  0  0  0  0  0  0
   36.5360   25.1420   42.4610 H   0  0  0  0  0  0  0  0  0  0  0  0
   36.7470   23.3930   42.0150 H   0  0  0  0  0  0  0  0  0  0  0  0
   39.4150   27.9460   43.1300 C   0  0  0  0  0  0  0  0  0  0  0  0
   40.0450   27.8740   44.0600 H   0  0  0  0  0  0  0  0  0  0  0  0
   39.7900   28.8420   42.5980 H   0  0  0  0  0  0  0  0  0  0  0  0
   37.9680   28.0850   43.4840 C   0  0  0  0  0  0  0  0  0  0  0  0
   37.7310   28.4480   44.4750 H   0  0  0  0  0  0  0  0  0  0  0  0
   37.4920   27.0600   43.4370 H   0  0  0  0  0  0  0  0  0  0  0  0
   35.5770   28.9110   40.7130 C   0  0  0  0  0  0  0  0  0  0  0  0
   36.2220   28.2170   41.7620 C   0  0  0  0  0  0  0  0  0  0  0  0
   37.2840   28.8260   42.3710 C   0  0  0  0  0  0  0  0  0  0  0  0
   37.6780   30.0550   41.9560 N   0  0  0  0  0  0  0  0  0  0  0  0
   37.0710   30.6950   40.9770 C   0  0  0  0  0  0  0  0  0  0  0  0
   36.0290   30.1390   40.3540 N   0  0  0  0  0  0  0  0  0  0  0  0
   34.7410   28.4460   40.2260 H   0  0  0  0  0  0  0  0  0  0  0  0
   35.8630   27.2390   42.0490 H   0  0  0  0  0  0  0  0  0  0  0  0
   37.5110   32.0210   40.5440 C   0  0  0  0  0  0  0  0  0  0  0  0
   37.1350   32.9970   39.6440 C   0  0  0  0  0  0  0  0  0  0  0  0
   36.2600   32.7740   39.0510 H   0  0  0  0  0  0  0  0  0  0  0  0
   38.0460   34.0250   39.7820 C   0  0  0  0  0  0  0  0  0  0  0  0
   37.9260   34.9020   39.1540 H   0  0  0  0  0  0  0  0  0  0  0  0
   38.9400   33.6360   40.7590 C   0  0  0  0  0  0  0  0  0  0  0  0
   39.7500   34.2790   41.0440 H   0  0  0  0  0  0  0  0  0  0  0  0
   38.5850   32.4450   41.1820 O   0  0  0  0  0  0  0  0  0  0  0  0
  1  4  1  6  0  0  0
  1  2  1  0  0  0  0
  1  3  1  0  0  0  0
  1 23  1  0  0  0  0
  2  3  1  0  0  0  0
  2  6  1  0  0  0  0
  3  7  1  1  0  0  0
  5  2  1  0  0  0  0
  8  3  1  0  0  0  0
  9 15  1  0  0  0  0
  9  8  1  0  0  0  0
 10 17  1  0  0  0  0
 10  9  1  0  0  0  0
 11 10  1  0  0  0  0
 11 12  1  0  0  0  0
 12 13  1  0  0  0  0
 13  8  1  0  0  0  0
 13 22  1  0  0  0  0
 13 21  1  0  0  0  0
 14  9  1  0  0  0  0
 16 10  1  0  0  0  0
 18 11  1  0  0  0  0
 19 12  1  0  0  0  0
 20 12  1  0  0  0  0
 23 26  1  0  0  0  0
 23 24  1  0  0  0  0
 25 23  1  0  0  0  0
 26 27  1  0  0  0  0
 28 26  1  0  0  0  0
 29 30  1  0  0  0  0
 30 36  1  0  0  0  0
 30 31  2  0  0  0  0
 31 26  1  0  0  0  0
 32 31  1  0  0  0  0
 33 32  2  0  0  0  0
 34 29  2  0  0  0  0
 34 33  1  0  0  0  0
 35 29  1  0  0  0  0
 37 33  1  0  0  0  0
 37 44  1  0  0  0  0
 38 40  1  0  0  0  0
 38 37  2  0  0  0  0
 39 38  1  0  0  0  0
 40 42  2  0  0  0  0
 41 40  1  0  0  0  0
 42 43  1  0  0  0  0
 42 44  1  0  0  0  0
M  END
>  <minimizedAffinity>
-5.37881756

$$$$

 OpenBabel03252502493D

 44 47  0  0  1  0  0  0  0  0999 V2000
   39.0760   30.0420   42.5720 C   0  0  1  0  0  0  0  0  0  0  0  0
   40.2820   30.9030   42.6370 C   0  0  0  0  0  0  0  0  0  0  0  0
   39.7780   30.3940   41.3410 C   0  0  2  0  0  0  0  0  0  0  0  0
   38.1250   30.4920   42.8400 H   0  0  0  0  0  0  0  0  0  0  0  0
   40.1860   31.9780   42.9220 H   0  0  0  0  0  0  0  0  0  0  0  0
   41.1850   30.4480   43.1250 H   0  0  0  0  0  0  0  0  0  0  0  0
   40.4800   29.7540   40.8080 H   0  0  0  0  0  0  0  0  0  0  0  0
   39.1080   31.4120   40.5590 N   0  0  0  0  0  0  0  0  0  0  0  0
   39.0810   32.6940   41.1570 C   0  0  0  0  0  0  0  0  0  0  0  0
   38.3460   33.5930   40.1740 C   0  0  0  0  0  0  0  0  0  0  0  0
   36.9890   33.1740   40.0060 N   0  0  0  0  0  0  0  0  0  0  0  0
   36.7790   31.7620   40.2110 C   0  0  0  0  0  0  0  0  0  0  0  0
   38.0170   30.9860   39.7920 C   0  0  0  0  0  0  0  0  0  0  0  0
   38.4520   32.6860   42.0850 H   0  0  0  0  0  0  0  0  0  0  0  0
   40.1040   33.0540   41.3160 H   0  0  0  0  0  0  0  0  0  0  0  0
   38.4380   34.6280   40.5540 H   0  0  0  0  0  0  0  0  0  0  0  0
   38.8780   33.5150   39.2100 H   0  0  0  0  0  0  0  0  0  0  0  0
   36.5520   33.5570   39.1620 H   0  0  0  0  0  0  0  0  0  0  0  0
   35.8990   31.4910   39.5820 H   0  0  0  0  0  0  0  0  0  0  0  0
   36.6000   31.5770   41.2720 H   0  0  0  0  0  0  0  0  0  0  0  0
   37.7610   29.9090   39.8850 H   0  0  0  0  0  0  0  0  0  0  0  0
   38.1810   31.2230   38.7030 H   0  0  0  0  0  0  0  0  0  0  0  0
   39.2080   28.6260   43.0580 C   0  0  0  0  0  0  0  0  0  0  0  0
   39.7180   28.0000   42.2740 H   0  0  0  0  0  0  0  0  0  0  0  0
   39.8440   28.5290   43.9600 H   0  0  0  0  0  0  0  0  0  0  0  0
   37.8200   28.1270   43.3100 C   0  0  0  0  0  0  0  0  0  0  0  0
   37.0970   28.8380   43.6850 H   0  0  0  0  0  0  0  0  0  0  0  0
   37.8720   27.3270   44.1080 H   0  0  0  0  0  0  0  0  0  0  0  0
   37.1910   25.2980   40.9280 C   0  0  0  0  0  0  0  0  0  0  0  0
   37.6110   26.0180   42.0690 C   0  0  0  0  0  0  0  0  0  0  0  0
   37.3710   27.3650   42.0960 C   0  0  0  0  0  0  0  0  0  0  0  0
   36.7500   27.9540   41.0460 N   0  0  0  0  0  0  0  0  0  0  0  0
   36.3610   27.2750   39.9860 C   0  0  0  0  0  0  0  0  0  0  0  0
   36.5740   25.9580   39.9160 N   0  0  0  0  0  0  0  0  0  0  0  0
   37.3710   24.2400   40.8910 H   0  0  0  0  0  0  0  0  0  0  0  0
   38.1020   25.4930   42.8760 H   0  0  0  0  0  0  0  0  0  0  0  0
   35.6920   27.9300   38.8630 C   0  0  0  0  0  0  0  0  0  0  0  0
   34.8210   28.9760   38.6400 C   0  0  0  0  0  0  0  0  0  0  0  0
   34.4990   29.5120   39.5220 H   0  0  0  0  0  0  0  0  0  0  0  0
   34.6090   29.0250   37.2770 C   0  0  0  0  0  0  0  0  0  0  0  0
   33.9450   29.7890   36.8900 H   0  0  0  0  0  0  0  0  0  0  0  0
   35.3600   28.0070   36.7220 C   0  0  0  0  0  0  0  0  0  0  0  0
   35.3570   27.8440   35.6620 H   0  0  0  0  0  0  0  0  0  0  0  0
   35.9830   27.3870   37.6960 O   0  0  0  0  0  0  0  0  0  0  0  0
  1  2  1  0  0  0  0
  1  4  1  1  0  0  0
  1 23  1  0  0  0  0
  2  5  1  0  0  0  0
  2  6  1  0  0  0  0
  3  7  1  6  0  0  0
  3  1  1  0  0  0  0
  3  2  1  0  0  0  0
  8  9  1  0  0  0  0
  8  3  1  0  0  0  0
  9 15  1  0  0  0  0
  9 14  1  0  0  0  0
 10 16  1  0  0  0  0
 10  9  1  0  0  0  0
 11 10  1  0  0  0  0
 11 12  1  0  0  0  0
 12 20  1  0  0  0  0
 13 21  1  0  0  0  0
 13 12  1  0  0  0  0
 13  8  1  0  0  0  0
 17 10  1  0  0  0  0
 18 11  1  0  0  0  0
 19 12  1  0  0  0  0
 22 13  1  0  0  0  0
 23 26  1  0  0  0  0
 23 25  1  0  0  0  0
 24 23  1  0  0  0  0
 26 27  1  0  0  0  0
 26 28  1  0  0  0  0
 29 30  1  0  0  0  0
 30 31  2  0  0  0  0
 30 36  1  0  0  0  0
 31 26  1  0  0  0  0
 32 31  1  0  0  0  0
 33 32  2  0  0  0  0
 34 33  1  0  0  0  0
 34 29  2  0  0  0  0
 35 29  1  0  0  0  0
 37 33  1  0  0  0  0
 38 37  2  0  0  0  0
 38 39  1  0  0  0  0
 40 38  1  0  0  0  0
 41 40  1  0  0  0  0
 42 40  2  0  0  0  0
 42 44  1  0  0  0  0
 43 42  1  0  0  0  0
 44 37  1  0  0  0  0
M  END
>  <minimizedAffinity>
-5.33309937

$$$$

 OpenBabel03252502493D

 44 47  0  0  1  0  0  0  0  0999 V2000
   37.4170   30.5700   38.6410 C   0  0  1  0  0  0  0  0  0  0  0  0
   37.5260   31.4200   37.4300 C   0  0  0  0  0  0  0  0  0  0  0  0
   37.3110   32.0200   38.7660 C   0  0  2  0  0  0  0  0  0  0  0  0
   38.3050   30.0280   38.9540 H   0  0  0  0  0  0  0  0  0  0  0  0
   38.5030   31.5100   36.8980 H   0  0  0  0  0  0  0  0  0  0  0  0
   36.6840   31.3360   36.6930 H   0  0  0  0  0  0  0  0  0  0  0  0
   36.3830   32.5810   38.8610 H   0  0  0  0  0  0  0  0  0  0  0  0
   38.5040   32.6470   39.3000 N   0  0  0  0  0  0  0  0  0  0  0  0
   39.7010   32.3090   38.6250 C   0  0  0  0  0  0  0  0  0  0  0  0
   40.8050   33.0730   39.3390 C   0  0  0  0  0  0  0  0  0  0  0  0
   40.9430   32.6370   40.6940 N   0  0  0  0  0  0  0  0  0  0  0  0
   39.7250   32.1340   41.2770 C   0  0  0  0  0  0  0  0  0  0  0  0
   38.5270   32.8550   40.6840 C   0  0  0  0  0  0  0  0  0  0  0  0
   39.9440   31.2250   38.7690 H   0  0  0  0  0  0  0  0  0  0  0  0
   39.6370   32.6160   37.5750 H   0  0  0  0  0  0  0  0  0  0  0  0
   41.7270   32.9370   38.7430 H   0  0  0  0  0  0  0  0  0  0  0  0
   40.5200   34.1400   39.3210 H   0  0  0  0  0  0  0  0  0  0  0  0
   41.4600   33.3020   41.2790 H   0  0  0  0  0  0  0  0  0  0  0  0
   39.8110   32.3230   42.3730 H   0  0  0  0  0  0  0  0  0  0  0  0
   39.6320   31.0690   41.0490 H   0  0  0  0  0  0  0  0  0  0  0  0
   37.6340   32.4920   41.2360 H   0  0  0  0  0  0  0  0  0  0  0  0
   38.6730   33.9480   40.9180 H   0  0  0  0  0  0  0  0  0  0  0  0
   36.1560   29.7710   38.8150 C   0  0  0  0  0  0  0  0  0  0  0  0
   35.3710   30.1370   38.0960 H   0  0  0  0  0  0  0  0  0  0  0  0
   36.2820   28.6960   38.5790 H   0  0  0  0  0  0  0  0  0  0  0  0
   35.7100   29.9730   40.2290 C   0  0  0  0  0  0  0  0  0  0  0  0
   34.6470   29.9440   40.4240 H   0  0  0  0  0  0  0  0  0  0  0  0
   36.0300   31.0080   40.5560 H   0  0  0  0  0  0  0  0  0  0  0  0
   37.9170   28.7910   43.0230 C   0  0  0  0  0  0  0  0  0  0  0  0
   37.1450   29.6350   42.1930 C   0  0  0  0  0  0  0  0  0  0  0  0
   36.5300   29.0730   41.1090 C   0  0  0  0  0  0  0  0  0  0  0  0
   36.6770   27.7470   40.8690 N   0  0  0  0  0  0  0  0  0  0  0  0
   37.3990   26.9680   41.6490 C   0  0  0  0  0  0  0  0  0  0  0  0
   38.0180   27.4730   42.7190 N   0  0  0  0  0  0  0  0  0  0  0  0
   38.4060   29.2170   43.8790 H   0  0  0  0  0  0  0  0  0  0  0  0
   37.0640   30.6850   42.4350 H   0  0  0  0  0  0  0  0  0  0  0  0
   37.5470   25.5390   41.3730 C   0  0  0  0  0  0  0  0  0  0  0  0
   36.8430   24.3670   41.5610 C   0  0  0  0  0  0  0  0  0  0  0  0
   35.8880   24.4700   42.0560 H   0  0  0  0  0  0  0  0  0  0  0  0
   37.6190   23.3570   41.0290 C   0  0  0  0  0  0  0  0  0  0  0  0
   37.2390   22.3420   41.0760 H   0  0  0  0  0  0  0  0  0  0  0  0
   38.7630   23.9520   40.5370 C   0  0  0  0  0  0  0  0  0  0  0  0
   39.5260   23.3610   40.0690 H   0  0  0  0  0  0  0  0  0  0  0  0
   38.6770   25.2420   40.7610 O   0  0  0  0  0  0  0  0  0  0  0  0
  1  3  1  0  0  0  0
  1 23  1  0  0  0  0
  1  4  1  1  0  0  0
  2  1  1  0  0  0  0
  2  3  1  0  0  0  0
  3  7  1  1  0  0  0
  3  8  1  0  0  0  0
  5  2  1  0  0  0  0
  6  2  1  0  0  0  0
  8 13  1  0  0  0  0
  9 14  1  0  0  0  0
  9  8  1  0  0  0  0
  9 10  1  0  0  0  0
 10 11  1  0  0  0  0
 11 12  1  0  0  0  0
 11 18  1  0  0  0  0
 12 19  1  0  0  0  0
 13 22  1  0  0  0  0
 13 21  1  0  0  0  0
 13 12  1  0  0  0  0
 15  9  1  0  0  0  0
 16 10  1  0  0  0  0
 17 10  1  0  0  0  0
 20 12  1  0  0  0  0
 23 26  1  0  0  0  0
 24 23  1  0  0  0  0
 25 23  1  0  0  0  0
 26 27  1  0  0  0  0
 26 28  1  0  0  0  0
 26 31  1  0  0  0  0
 29 35  1  0  0  0  0
 30 36  1  0  0  0  0
 30 29  2  0  0  0  0
 31 30  1  0  0  0  0
 32 31  2  0  0  0  0
 32 33  1  0  0  0  0
 33 34  2  0  0  0  0
 34 29  1  0  0  0  0
 37 38  2  0  0  0  0
 37 33  1  0  0  0  0
 38 39  1  0  0  0  0
 40 41  1  0  0  0  0
 40 38  1  0  0  0  0
 42 44  1  0  0  0  0
 42 40  2  0  0  0  0
 43 42  1  0  0  0  0
 44 37  1  0  0  0  0
M  END
>  <minimizedAffinity>
-5.17279339

$$$$

 OpenBabel03252502493D

 44 47  0  0  1  0  0  0  0  0999 V2000
   36.5250   26.4440   39.8250 C   0  0  1  0  0  0  0  0  0  0  0  0
   37.5800   25.4520   40.1460 C   0  0  0  0  0  0  0  0  0  0  0  0
   37.8820   26.9010   40.1090 C   0  0  2  0  0  0  0  0  0  0  0  0
   35.7160   26.5630   40.5400 H   0  0  0  0  0  0  0  0  0  0  0  0
   37.5410   24.8860   41.1060 H   0  0  0  0  0  0  0  0  0  0  0  0
   37.8920   24.7760   39.3050 H   0  0  0  0  0  0  0  0  0  0  0  0
   38.6230   27.1860   39.3630 H   0  0  0  0  0  0  0  0  0  0  0  0
   38.0380   27.4770   41.4290 N   0  0  0  0  0  0  0  0  0  0  0  0
   37.0890   27.0350   42.3820 C   0  0  0  0  0  0  0  0  0  0  0  0
   37.4410   27.7510   43.6770 C   0  0  0  0  0  0  0  0  0  0  0  0
   37.2830   29.1660   43.5440 N   0  0  0  0  0  0  0  0  0  0  0  0
   37.4800   29.6570   42.2030 C   0  0  0  0  0  0  0  0  0  0  0  0
   38.5020   28.7970   41.4780 C   0  0  0  0  0  0  0  0  0  0  0  0
   36.0620   27.3900   42.1120 H   0  0  0  0  0  0  0  0  0  0  0  0
   37.1670   25.9490   42.5100 H   0  0  0  0  0  0  0  0  0  0  0  0
   36.8040   27.3140   44.4690 H   0  0  0  0  0  0  0  0  0  0  0  0
   38.4990   27.5170   43.8950 H   0  0  0  0  0  0  0  0  0  0  0  0
   37.7720   29.6950   44.2740 H   0  0  0  0  0  0  0  0  0  0  0  0
   37.8400   30.7070   42.3140 H   0  0  0  0  0  0  0  0  0  0  0  0
   36.5350   29.6010   41.6580 H   0  0  0  0  0  0  0  0  0  0  0  0
   38.6770   29.2770   40.4930 H   0  0  0  0  0  0  0  0  0  0  0  0
   39.4510   28.8610   42.0830 H   0  0  0  0  0  0  0  0  0  0  0  0
   36.0580   26.5220   38.3990 C   0  0  0  0  0  0  0  0  0  0  0  0
   36.9410   26.6660   37.7160 H   0  0  0  0  0  0  0  0  0  0  0  0
   35.5710   25.5910   38.0450 H   0  0  0  0  0  0  0  0  0  0  0  0
   35.1290   27.6920   38.3140 C   0  0  0  0  0  0  0  0  0  0  0  0
   34.5350   27.9190   39.1890 H   0  0  0  0  0  0  0  0  0  0  0  0
   34.3710   27.4830   37.5020 H   0  0  0  0  0  0  0  0  0  0  0  0
   36.8270   30.0000   35.8920 C   0  0  0  0  0  0  0  0  0  0  0  0
   36.1030   28.9040   36.4130 C   0  0  0  0  0  0  0  0  0  0  0  0
   35.8990   28.8590   37.7650 C   0  0  0  0  0  0  0  0  0  0  0  0
   36.3910   29.8500   38.5480 N   0  0  0  0  0  0  0  0  0  0  0  0
   37.0650   30.8680   38.0540 C   0  0  0  0  0  0  0  0  0  0  0  0
   37.2870   30.9540   36.7400 N   0  0  0  0  0  0  0  0  0  0  0  0
   36.9950   30.0510   34.8330 H   0  0  0  0  0  0  0  0  0  0  0  0
   35.7350   28.1440   35.7390 H   0  0  0  0  0  0  0  0  0  0  0  0
   37.5880   31.9280   38.9170 C   0  0  0  0  0  0  0  0  0  0  0  0
   37.2030   33.1650   39.3910 C   0  0  0  0  0  0  0  0  0  0  0  0
   36.2340   33.5110   39.0610 H   0  0  0  0  0  0  0  0  0  0  0  0
   38.2350   33.6140   40.1910 C   0  0  0  0  0  0  0  0  0  0  0  0
   38.1280   34.5830   40.6670 H   0  0  0  0  0  0  0  0  0  0  0  0
   39.2070   32.6330   40.1730 C   0  0  0  0  0  0  0  0  0  0  0  0
   40.1150   32.7580   40.7290 H   0  0  0  0  0  0  0  0  0  0  0  0
   38.7820   31.6550   39.4080 O   0  0  0  0  0  0  0  0  0  0  0  0
  1  3  1  0  0  0  0
  1  2  1  0  0  0  0
  1  4  1  1  0  0  0
  2  5  1  0  0  0  0
  3  7  1  6  0  0  0
  3  2  1  0  0  0  0
  3  8  1  0  0  0  0
  6  2  1  0  0  0  0
  8 13  1  0  0  0  0
  8  9  1  0  0  0  0
  9 15  1  0  0  0  0
  9 10  1  0  0  0  0
 10 17  1  0  0  0  0
 10 16  1  0  0  0  0
 11 10  1  0  0  0  0
 11 18  1  0  0  0  0
 12 19  1  0  0  0  0
 12 11  1  0  0  0  0
 13 22  1  0  0  0  0
 13 12  1  0  0  0  0
 14  9  1  0  0  0  0
 20 12  1  0  0  0  0
 21 13  1  0  0  0  0
 23  1  1  0  0  0  0
 24 23  1  0  0  0  0
 25 23  1  0  0  0  0
 26 23  1  0  0  0  0
 26 27  1  0  0  0  0
 28 26  1  0  0  0  0
 29 30  2  0  0  0  0
 29 34  1  0  0  0  0
 30 31  1  0  0  0  0
 31 26  1  0  0  0  0
 31 32  2  0  0  0  0
 33 32  1  0  0  0  0
 33 37  1  0  0  0  0
 34 33  2  0  0  0  0
 35 29  1  0  0  0  0
 36 30  1  0  0  0  0
 37 38  2  0  0  0  0
 37 44  1  0  0  0  0
 38 40  1  0  0  0  0
 39 38  1  0  0  0  0
 40 41  1  0  0  0  0
 42 40  2  0  0  0  0
 42 43  1  0  0  0  0
 44 42  1  0  0  0  0
M  END
>  <minimizedAffinity>
-5.05767059

$$$$

 OpenBabel03252502493D

 44 47  0  0  1  0  0  0  0  0999 V2000
   36.5810   26.0690   38.5590 C   0  0  1  0  0  0  0  0  0  0  0  0
   35.4030   25.7670   37.7100 C   0  0  0  0  0  0  0  0  0  0  0  0
   35.6300   27.1300   38.2430 C   0  0  2  0  0  0  0  0  0  0  0  0
   37.5610   26.0170   38.0930 H   0  0  0  0  0  0  0  0  0  0  0  0
   35.5410   25.5310   36.6280 H   0  0  0  0  0  0  0  0  0  0  0  0
   34.6310   25.0910   38.1640 H   0  0  0  0  0  0  0  0  0  0  0  0
   34.8420   27.4890   38.9020 H   0  0  0  0  0  0  0  0  0  0  0  0
   36.1040   28.0560   37.2360 N   0  0  0  0  0  0  0  0  0  0  0  0
   35.4380   27.9660   35.9900 C   0  0  0  0  0  0  0  0  0  0  0  0
   36.0840   29.0180   35.1010 C   0  0  0  0  0  0  0  0  0  0  0  0
   37.4640   28.7210   34.8680 N   0  0  0  0  0  0  0  0  0  0  0  0
   38.0950   27.9840   35.9340 C   0  0  0  0  0  0  0  0  0  0  0  0
   37.4710   28.3590   37.2670 C   0  0  0  0  0  0  0  0  0  0  0  0
   35.6520   26.9830   35.4970 H   0  0  0  0  0  0  0  0  0  0  0  0
   34.3710   28.1770   36.1210 H   0  0  0  0  0  0  0  0  0  0  0  0
   35.4870   29.0640   34.1710 H   0  0  0  0  0  0  0  0  0  0  0  0
   35.9990   29.9830   35.6320 H   0  0  0  0  0  0  0  0  0  0  0  0
   37.9960   29.5280   34.5260 H   0  0  0  0  0  0  0  0  0  0  0  0
   39.1740   28.2630   35.8990 H   0  0  0  0  0  0  0  0  0  0  0  0
   37.9410   26.9150   35.7700 H   0  0  0  0  0  0  0  0  0  0  0  0
   38.0570   27.8330   38.0500 H   0  0  0  0  0  0  0  0  0  0  0  0
   37.6280   29.4680   37.3860 H   0  0  0  0  0  0  0  0  0  0  0  0
   36.5760   25.5370   39.9650 C   0  0  0  0  0  0  0  0  0  0  0  0
   35.7520   26.0260   40.5540 H   0  0  0  0  0  0  0  0  0  0  0  0
   36.3660   24.4510   40.0230 H   0  0  0  0  0  0  0  0  0  0  0  0
   37.9120   25.8680   40.5540 C   0  0  0  0  0  0  0  0  0  0  0  0
   38.7600   25.8870   39.8830 H   0  0  0  0  0  0  0  0  0  0  0  0
   38.1690   25.0720   41.3150 H   0  0  0  0  0  0  0  0  0  0  0  0
   37.4450   28.0930   43.5380 C   0  0  0  0  0  0  0  0  0  0  0  0
   37.5910   26.9340   42.7430 C   0  0  0  0  0  0  0  0  0  0  0  0
   37.7570   27.1030   41.3960 C   0  0  0  0  0  0  0  0  0  0  0  0
   37.7750   28.3540   40.8760 N   0  0  0  0  0  0  0  0  0  0  0  0
   37.6370   29.4290   41.6250 C   0  0  0  0  0  0  0  0  0  0  0  0
   37.4740   29.3130   42.9450 N   0  0  0  0  0  0  0  0  0  0  0  0
   37.3150   27.9780   44.5980 H   0  0  0  0  0  0  0  0  0  0  0  0
   37.5690   25.9620   43.2140 H   0  0  0  0  0  0  0  0  0  0  0  0
   37.6590   30.7720   41.0440 C   0  0  0  0  0  0  0  0  0  0  0  0
   36.8560   31.5800   40.2670 C   0  0  0  0  0  0  0  0  0  0  0  0
   35.9130   31.1480   39.9630 H   0  0  0  0  0  0  0  0  0  0  0  0
   37.5400   32.7670   40.1020 C   0  0  0  0  0  0  0  0  0  0  0  0
   37.0730   33.5490   39.5130 H   0  0  0  0  0  0  0  0  0  0  0  0
   38.7330   32.6360   40.7850 C   0  0  0  0  0  0  0  0  0  0  0  0
   39.4420   33.4410   40.8010 H   0  0  0  0  0  0  0  0  0  0  0  0
   38.7600   31.4410   41.3270 O   0  0  0  0  0  0  0  0  0  0  0  0
  1  4  1  6  0  0  0
  1 23  1  0  0  0  0
  2  6  1  0  0  0  0
  2  3  1  0  0  0  0
  2  1  1  0  0  0  0
  3  1  1  0  0  0  0
  3  7  1  1  0  0  0
  5  2  1  0  0  0  0
  8 13  1  0  0  0  0
  8  3  1  0  0  0  0
  9 15  1  0  0  0  0
  9  8  1  0  0  0  0
 10 17  1  0  0  0  0
 10  9  1  0  0  0  0
 11 10  1  0  0  0  0
 11 12  1  0  0  0  0
 12 13  1  0  0  0  0
 13 22  1  0  0  0  0
 13 21  1  0  0  0  0
 14  9  1  0  0  0  0
 16 10  1  0  0  0  0
 18 11  1  0  0  0  0
 19 12  1  0  0  0  0
 20 12  1  0  0  0  0
 23 25  1  0  0  0  0
 23 26  1  0  0  0  0
 23 24  1  0  0  0  0
 26 28  1  0  0  0  0
 26 31  1  0  0  0  0
 27 26  1  0  0  0  0
 29 35  1  0  0  0  0
 30 36  1  0  0  0  0
 30 29  2  0  0  0  0
 31 30  1  0  0  0  0
 32 31  2  0  0  0  0
 32 33  1  0  0  0  0
 33 34  2  0  0  0  0
 34 29  1  0  0  0  0
 37 44  1  0  0  0  0
 37 33  1  0  0  0  0
 38 37  2  0  0  0  0
 39 38  1  0  0  0  0
 40 38  1  0  0  0  0
 40 42  2  0  0  0  0
 41 40  1  0  0  0  0
 42 43  1  0  0  0  0
 42 44  1  0  0  0  0
M  END
>  <minimizedAffinity>
-4.96245718

$$$$

 OpenBabel03252502493D

 44 47  0  0  1  0  0  0  0  0999 V2000
   37.3280   30.2270   37.4520 C   0  0  1  0  0  0  0  0  0  0  0  0
   37.6920   31.5880   36.9890 C   0  0  0  0  0  0  0  0  0  0  0  0
   37.1890   31.3600   38.3630 C   0  0  2  0  0  0  0  0  0  0  0  0
   38.1310   29.5020   37.5550 H   0  0  0  0  0  0  0  0  0  0  0  0
   38.7610   31.8440   36.7920 H   0  0  0  0  0  0  0  0  0  0  0  0
   37.0310   32.0310   36.1980 H   0  0  0  0  0  0  0  0  0  0  0  0
   36.2580   31.8770   38.5900 H   0  0  0  0  0  0  0  0  0  0  0  0
   38.2330   31.4340   39.3640 N   0  0  0  0  0  0  0  0  0  0  0  0
   37.7890   31.2520   40.6950 C   0  0  0  0  0  0  0  0  0  0  0  0
   39.0330   31.3610   41.5630 C   0  0  0  0  0  0  0  0  0  0  0  0
   39.6070   32.6680   41.4810 N   0  0  0  0  0  0  0  0  0  0  0  0
   39.3650   33.3400   40.2290 C   0  0  0  0  0  0  0  0  0  0  0  0
   39.2800   32.3250   39.1020 C   0  0  0  0  0  0  0  0  0  0  0  0
   37.1270   32.0990   41.0110 H   0  0  0  0  0  0  0  0  0  0  0  0
   37.3300   30.2630   40.8040 H   0  0  0  0  0  0  0  0  0  0  0  0
   38.7340   31.0820   42.5910 H   0  0  0  0  0  0  0  0  0  0  0  0
   39.7550   30.6170   41.1840 H   0  0  0  0  0  0  0  0  0  0  0  0
   40.5780   32.7020   41.8090 H   0  0  0  0  0  0  0  0  0  0  0  0
   40.2260   34.0350   40.0850 H   0  0  0  0  0  0  0  0  0  0  0  0
   38.4120   33.8710   40.2860 H   0  0  0  0  0  0  0  0  0  0  0  0
   39.1870   32.9060   38.1600 H   0  0  0  0  0  0  0  0  0  0  0  0
   40.2690   31.7840   39.0930 H   0  0  0  0  0  0  0  0  0  0  0  0
   36.0650   29.6240   36.9060 C   0  0  0  0  0  0  0  0  0  0  0  0
   35.5480   30.3650   36.2360 H   0  0  0  0  0  0  0  0  0  0  0  0
   36.2430   28.7350   36.2690 H   0  0  0  0  0  0  0  0  0  0  0  0
   35.2040   29.2900   38.0840 C   0  0  0  0  0  0  0  0  0  0  0  0
   34.1350   29.2650   37.9260 H   0  0  0  0  0  0  0  0  0  0  0  0
   35.3560   30.0880   38.8710 H   0  0  0  0  0  0  0  0  0  0  0  0
   36.1350   25.7080   38.6990 C   0  0  0  0  0  0  0  0  0  0  0  0
   35.6080   26.8670   38.0870 C   0  0  0  0  0  0  0  0  0  0  0  0
   35.7660   28.0590   38.7380 C   0  0  0  0  0  0  0  0  0  0  0  0
   36.4120   28.0900   39.9290 N   0  0  0  0  0  0  0  0  0  0  0  0
   36.9000   27.0040   40.4930 C   0  0  0  0  0  0  0  0  0  0  0  0
   36.7690   25.8180   39.8930 N   0  0  0  0  0  0  0  0  0  0  0  0
   36.0190   24.7640   38.2000 H   0  0  0  0  0  0  0  0  0  0  0  0
   35.1030   26.7810   37.1350 H   0  0  0  0  0  0  0  0  0  0  0  0
   37.5930   27.0570   41.7800 C   0  0  0  0  0  0  0  0  0  0  0  0
   38.5290   26.3310   42.4860 C   0  0  0  0  0  0  0  0  0  0  0  0
   38.9000   25.4430   41.9930 H   0  0  0  0  0  0  0  0  0  0  0  0
   38.7210   26.9970   43.6800 C   0  0  0  0  0  0  0  0  0  0  0  0
   39.4300   26.5820   44.3880 H   0  0  0  0  0  0  0  0  0  0  0  0
   37.8950   28.1030   43.6540 C   0  0  0  0  0  0  0  0  0  0  0  0
   37.8690   28.7820   44.4830 H   0  0  0  0  0  0  0  0  0  0  0  0
   37.2480   28.0990   42.5120 O   0  0  0  0  0  0  0  0  0  0  0  0
  1  4  1  1  0  0  0
  1  3  1  0  0  0  0
  2  1  1  0  0  0  0
  2  3  1  0  0  0  0
  3  7  1  1  0  0  0
  3  8  1  0  0  0  0
  5  2  1  0  0  0  0
  6  2  1  0  0  0  0
  8  9  1  0  0  0  0
  9 15  1  0  0  0  0
  9 14  1  0  0  0  0
  9 10  1  0  0  0  0
 10 16  1  0  0  0  0
 11 10  1  0  0  0  0
 11 18  1  0  0  0  0
 12 20  1  0  0  0  0
 12 11  1  0  0  0  0
 13  8  1  0  0  0  0
 13 12  1  0  0  0  0
 17 10  1  0  0  0  0
 19 12  1  0  0  0  0
 21 13  1  0  0  0  0
 22 13  1  0  0  0  0
 23  1  1  0  0  0  0
 23 26  1  0  0  0  0
 24 23  1  0  0  0  0
 25 23  1  0  0  0  0
 26 31  1  0  0  0  0
 26 28  1  0  0  0  0
 27 26  1  0  0  0  0
 29 34  1  0  0  0  0
 30 29  2  0  0  0  0
 30 31  1  0  0  0  0
 31 32  2  0  0  0  0
 32 33  1  0  0  0  0
 33 37  1  0  0  0  0
 34 33  2  0  0  0  0
 35 29  1  0  0  0  0
 36 30  1  0  0  0  0
 37 38  2  0  0  0  0
 37 44  1  0  0  0  0
 38 40  1  0  0  0  0
 39 38  1  0  0  0  0
 40 41  1  0  0  0  0
 42 40  2  0  0  0  0
 42 43  1  0  0  0  0
 44 42  1  0  0  0  0
M  END
>  <minimizedAffinity>
-4.95982361

$$$$

 OpenBabel03252502493D

 44 47  0  0  1  0  0  0  0  0999 V2000
   35.1730   28.5550   39.2040 C   0  0  1  0  0  0  0  0  0  0  0  0
   33.9550   28.8650   38.4170 C   0  0  0  0  0  0  0  0  0  0  0  0
   35.2680   29.4470   38.0520 C   0  0  2  0  0  0  0  0  0  0  0  0
   35.5430   27.5340   39.1730 H   0  0  0  0  0  0  0  0  0  0  0  0
   33.4740   28.0720   37.7980 H   0  0  0  0  0  0  0  0  0  0  0  0
   33.1760   29.4820   38.9400 H   0  0  0  0  0  0  0  0  0  0  0  0
   35.3030   30.5340   38.0950 H   0  0  0  0  0  0  0  0  0  0  0  0
   35.8520   28.8260   36.8810 N   0  0  0  0  0  0  0  0  0  0  0  0
   37.2660   28.7920   36.8740 C   0  0  0  0  0  0  0  0  0  0  0  0
   37.6560   28.1010   35.5760 C   0  0  0  0  0  0  0  0  0  0  0  0
   37.2420   28.8640   34.4400 N   0  0  0  0  0  0  0  0  0  0  0  0
   36.0740   29.6770   34.6690 C   0  0  0  0  0  0  0  0  0  0  0  0
   35.1590   29.0000   35.6770 C   0  0  0  0  0  0  0  0  0  0  0  0
   37.6870   29.8280   36.8000 H   0  0  0  0  0  0  0  0  0  0  0  0
   37.6310   28.2230   37.7360 H   0  0  0  0  0  0  0  0  0  0  0  0
   38.7490   27.9360   35.6150 H   0  0  0  0  0  0  0  0  0  0  0  0
   37.1440   27.1220   35.5680 H   0  0  0  0  0  0  0  0  0  0  0  0
   37.2240   28.3170   33.5730 H   0  0  0  0  0  0  0  0  0  0  0  0
   35.5760   29.7820   33.6770 H   0  0  0  0  0  0  0  0  0  0  0  0
   36.3830   30.6410   35.0800 H   0  0  0  0  0  0  0  0  0  0  0  0
   34.2430   29.6240   35.7410 H   0  0  0  0  0  0  0  0  0  0  0  0
   34.8850   28.0030   35.2290 H   0  0  0  0  0  0  0  0  0  0  0  0
   35.2960   29.1770   40.5670 C   0  0  0  0  0  0  0  0  0  0  0  0
   35.6020   30.2550   40.4670 H   0  0  0  0  0  0  0  0  0  0  0  0
   34.3390   29.2010   41.1250 H   0  0  0  0  0  0  0  0  0  0  0  0
   36.3400   28.3980   41.3030 C   0  0  0  0  0  0  0  0  0  0  0  0
   36.5310   27.3860   40.9720 H   0  0  0  0  0  0  0  0  0  0  0  0
   36.0070   28.2870   42.3770 H   0  0  0  0  0  0  0  0  0  0  0  0
   39.2750   30.2170   42.7700 C   0  0  0  0  0  0  0  0  0  0  0  0
   38.1200   29.4100   42.6580 C   0  0  0  0  0  0  0  0  0  0  0  0
   37.5680   29.2570   41.4170 C   0  0  0  0  0  0  0  0  0  0  0  0
   38.1350   29.8740   40.3520 N   0  0  0  0  0  0  0  0  0  0  0  0
   39.2110   30.6250   40.4650 C   0  0  0  0  0  0  0  0  0  0  0  0
   39.7850   30.8020   41.6580 N   0  0  0  0  0  0  0  0  0  0  0  0
   39.7210   30.3470   43.7380 H   0  0  0  0  0  0  0  0  0  0  0  0
   37.7130   28.9430   43.5440 H   0  0  0  0  0  0  0  0  0  0  0  0
   39.8080   31.2830   39.3030 C   0  0  0  0  0  0  0  0  0  0  0  0
   40.0340   31.0260   37.9670 C   0  0  0  0  0  0  0  0  0  0  0  0
   39.6890   30.0650   37.6110 H   0  0  0  0  0  0  0  0  0  0  0  0
   40.6710   32.1400   37.4580 C   0  0  0  0  0  0  0  0  0  0  0  0
   40.9400   32.1390   36.4070 H   0  0  0  0  0  0  0  0  0  0  0  0
   40.8080   33.0310   38.5030 C   0  0  0  0  0  0  0  0  0  0  0  0
   41.2790   33.9820   38.3490 H   0  0  0  0  0  0  0  0  0  0  0  0
   40.2840   32.4840   39.5740 O   0  0  0  0  0  0  0  0  0  0  0  0
  1  4  1  6  0  0  0
  1 23  1  0  0  0  0
  2  6  1  0  0  0  0
  2  1  1  0  0  0  0
  3  7  1  1  0  0  0
  3  2  1  0  0  0  0
  3  1  1  0  0  0  0
  5  2  1  0  0  0  0
  8  3  1  0  0  0  0
  9  8  1  0  0  0  0
  9 15  1  0  0  0  0
 10 16  1  0  0  0  0
 10  9  1  0  0  0  0
 11 12  1  0  0  0  0
 11 10  1  0  0  0  0
 12 20  1  0  0  0  0
 12 13  1  0  0  0  0
 13 21  1  0  0  0  0
 13  8  1  0  0  0  0
 14  9  1  0  0  0  0
 17 10  1  0  0  0  0
 18 11  1  0  0  0  0
 19 12  1  0  0  0  0
 22 13  1  0  0  0  0
 23 25  1  0  0  0  0
 23 26  1  0  0  0  0
 24 23  1  0  0  0  0
 26 31  1  0  0  0  0
 26 28  1  0  0  0  0
 27 26  1  0  0  0  0
 29 35  1  0  0  0  0
 30 29  1  0  0  0  0
 30 36  1  0  0  0  0
 31 30  2  0  0  0  0
 32 33  2  0  0  0  0
 32 31  1  0  0  0  0
 33 34  1  0  0  0  0
 34 29  2  0  0  0  0
 37 44  1  0  0  0  0
 37 33  1  0  0  0  0
 38 37  2  0  0  0  0
 39 38  1  0  0  0  0
 40 38  1  0  0  0  0
 40 42  2  0  0  0  0
 41 40  1  0  0  0  0
 42 44  1  0  0  0  0
 43 42  1  0  0  0  0
M  END
>  <minimizedAffinity>
-4.89706326

$$$$
