
 OpenBabel03252505593D

 35 37  0  0  0  0  0  0  0  0999 V2000
   36.5780   31.5360   40.5450 C   0  0  0  0  0  0  0  0  0  0  0  0
   37.9100   31.9940   40.6790 C   0  0  0  0  0  0  0  0  0  0  0  0
   38.7950   31.1730   41.3750 C   0  0  0  0  0  0  0  0  0  0  0  0
   38.3350   30.0070   41.8740 N   0  0  0  0  0  0  0  0  0  0  0  0
   37.0690   29.6070   41.7250 C   0  0  0  0  0  0  0  0  0  0  0  0
   36.2000   30.3600   41.0710 N   0  0  0  0  0  0  0  0  0  0  0  0
   35.9040   32.1840   40.0030 H   0  0  0  0  0  0  0  0  0  0  0  0
   40.2110   31.4830   41.5380 C   0  0  0  0  0  0  0  0  0  0  0  0
   40.8920   31.1660   42.6990 C   0  0  0  0  0  0  0  0  0  0  0  0
   40.5310   30.6770   43.6100 H   0  0  0  0  0  0  0  0  0  0  0  0
   42.2130   31.5360   42.6650 C   0  0  0  0  0  0  0  0  0  0  0  0
   42.9950   31.4300   43.3990 H   0  0  0  0  0  0  0  0  0  0  0  0
   42.3100   32.0980   41.4180 C   0  0  0  0  0  0  0  0  0  0  0  0
   43.1820   32.5420   40.9320 H   0  0  0  0  0  0  0  0  0  0  0  0
   41.1720   32.0310   40.8640 O   0  0  0  0  0  0  0  0  0  0  0  0
   38.2770   33.3060   40.0880 C   0  0  0  0  0  0  0  0  0  0  0  0
   37.0710   33.8190   39.6050 F   0  0  0  0  0  0  0  0  0  0  0  0
   39.1010   33.0380   39.0110 F   0  0  0  0  0  0  0  0  0  0  0  0
   38.8050   34.0970   41.0340 F   0  0  0  0  0  0  0  0  0  0  0  0
   36.5970   28.4090   42.2310 O   0  0  0  0  0  0  0  0  0  0  0  0
   37.0730   27.9120   43.4650 C   0  0  0  0  0  0  0  0  0  0  0  0
   37.6450   28.6920   44.0210 H   0  0  0  0  0  0  0  0  0  0  0  0
   36.2680   27.5600   44.1450 H   0  0  0  0  0  0  0  0  0  0  0  0
   37.9770   26.7830   43.1770 C   0  0  0  0  0  0  0  0  0  0  0  0
   39.2370   26.4860   43.6790 C   0  0  0  0  0  0  0  0  0  0  0  0
   39.8460   25.3560   43.2370 C   0  0  0  0  0  0  0  0  0  0  0  0
   39.2970   24.5350   42.3610 N   0  0  0  0  0  0  0  0  0  0  0  0
   38.0710   24.8340   41.8800 C   0  0  0  0  0  0  0  0  0  0  0  0
   37.3920   25.9500   42.2710 N   0  0  0  0  0  0  0  0  0  0  0  0
   39.5590   27.2400   44.3820 H   0  0  0  0  0  0  0  0  0  0  0  0
   40.8320   25.1840   43.6730 H   0  0  0  0  0  0  0  0  0  0  0  0
   37.5220   23.8570   40.8970 C   0  0  0  0  0  0  0  0  0  0  0  0
   38.0840   22.6170   41.0560 F   0  0  0  0  0  0  0  0  0  0  0  0
   37.7600   24.3020   39.5920 F   0  0  0  0  0  0  0  0  0  0  0  0
   36.1530   23.7190   41.0350 F   0  0  0  0  0  0  0  0  0  0  0  0
  1  2  2  0  0  0  0
  1  6  1  0  0  0  0
  2  3  1  0  0  0  0
  3  8  1  0  0  0  0
  3  4  2  0  0  0  0
  5  4  1  0  0  0  0
  5 20  1  0  0  0  0
  6  5  2  0  0  0  0
  7  1  1  0  0  0  0
  8  9  2  0  0  0  0
  9 10  1  0  0  0  0
 11  9  1  0  0  0  0
 11 12  1  0  0  0  0
 13 11  2  0  0  0  0
 14 13  1  0  0  0  0
 15 13  1  0  0  0  0
 15  8  1  0  0  0  0
 16  2  1  0  0  0  0
 16 19  1  0  0  0  0
 17 16  1  0  0  0  0
 18 16  1  0  0  0  0
 20 21  1  0  0  0  0
 21 22  1  0  0  0  0
 21 23  1  0  0  0  0
 24 21  1  0  0  0  0
 24 25  1  0  0  0  0
 25 30  1  0  0  0  0
 26 31  1  0  0  0  0
 26 25  2  0  0  0  0
 27 26  1  0  0  0  0
 28 29  1  0  0  0  0
 28 27  2  0  0  0  0
 29 24  2  0  0  0  0
 32 35  1  0  0  0  0
 32 33  1  0  0  0  0
 32 28  1  0  0  0  0
 34 32  1  0  0  0  0
M  END
>  <minimizedAffinity>
-6.05671358

$$$$

 OpenBabel03252505593D

 35 37  0  0  0  0  0  0  0  0999 V2000
   36.8090   30.4650   40.5130 C   0  0  0  0  0  0  0  0  0  0  0  0
   37.7740   31.4050   40.0810 C   0  0  0  0  0  0  0  0  0  0  0  0
   38.9080   31.5580   40.8760 C   0  0  0  0  0  0  0  0  0  0  0  0
   39.0150   30.8140   41.9970 N   0  0  0  0  0  0  0  0  0  0  0  0
   38.0820   29.9350   42.3710 C   0  0  0  0  0  0  0  0  0  0  0  0
   36.9920   29.7610   41.6410 N   0  0  0  0  0  0  0  0  0  0  0  0
   35.9360   30.3580   39.8850 H   0  0  0  0  0  0  0  0  0  0  0  0
   40.0150   32.4410   40.5250 C   0  0  0  0  0  0  0  0  0  0  0  0
   41.2680   31.9430   40.2170 C   0  0  0  0  0  0  0  0  0  0  0  0
   41.6200   30.9070   40.1830 H   0  0  0  0  0  0  0  0  0  0  0  0
   42.1770   32.9260   39.9140 C   0  0  0  0  0  0  0  0  0  0  0  0
   43.2170   32.8650   39.6370 H   0  0  0  0  0  0  0  0  0  0  0  0
   41.4160   34.0580   40.0520 C   0  0  0  0  0  0  0  0  0  0  0  0
   41.7070   35.1020   39.9120 H   0  0  0  0  0  0  0  0  0  0  0  0
   40.2440   33.7090   40.3890 O   0  0  0  0  0  0  0  0  0  0  0  0
   37.5210   32.1650   38.8300 C   0  0  0  0  0  0  0  0  0  0  0  0
   36.5370   31.4280   38.1690 F   0  0  0  0  0  0  0  0  0  0  0  0
   38.6860   32.1050   38.0890 F   0  0  0  0  0  0  0  0  0  0  0  0
   37.0930   33.4010   39.1310 F   0  0  0  0  0  0  0  0  0  0  0  0
   38.1920   29.1660   43.5150 O   0  0  0  0  0  0  0  0  0  0  0  0
   37.4060   28.0030   43.6780 C   0  0  0  0  0  0  0  0  0  0  0  0
   37.0940   27.8710   44.7410 H   0  0  0  0  0  0  0  0  0  0  0  0
   36.4760   28.0030   43.0690 H   0  0  0  0  0  0  0  0  0  0  0  0
   38.2290   26.8440   43.2830 C   0  0  0  0  0  0  0  0  0  0  0  0
   39.5090   26.4740   43.6720 C   0  0  0  0  0  0  0  0  0  0  0  0
   40.0260   25.3330   43.1480 C   0  0  0  0  0  0  0  0  0  0  0  0
   39.3700   24.5690   42.2930 N   0  0  0  0  0  0  0  0  0  0  0  0
   38.1260   24.9390   41.9220 C   0  0  0  0  0  0  0  0  0  0  0  0
   37.5350   26.0710   42.4020 N   0  0  0  0  0  0  0  0  0  0  0  0
   39.9210   27.1870   44.3700 H   0  0  0  0  0  0  0  0  0  0  0  0
   41.0340   25.1010   43.4970 H   0  0  0  0  0  0  0  0  0  0  0  0
   37.4550   24.0230   40.9570 C   0  0  0  0  0  0  0  0  0  0  0  0
   37.6790   24.4100   39.6610 F   0  0  0  0  0  0  0  0  0  0  0  0
   36.0750   24.0010   41.1940 F   0  0  0  0  0  0  0  0  0  0  0  0
   37.9110   22.7250   41.0950 F   0  0  0  0  0  0  0  0  0  0  0  0
  1  6  1  0  0  0  0
  2  1  2  0  0  0  0
  2  3  1  0  0  0  0
  3  4  2  0  0  0  0
  4  5  1  0  0  0  0
  5 20  1  0  0  0  0
  6  5  2  0  0  0  0
  7  1  1  0  0  0  0
  8  3  1  0  0  0  0
  9  8  2  0  0  0  0
 10  9  1  0  0  0  0
 11 13  2  0  0  0  0
 11  9  1  0  0  0  0
 12 11  1  0  0  0  0
 13 15  1  0  0  0  0
 14 13  1  0  0  0  0
 15  8  1  0  0  0  0
 16 19  1  0  0  0  0
 16  2  1  0  0  0  0
 17 16  1  0  0  0  0
 18 16  1  0  0  0  0
 20 21  1  0  0  0  0
 21 22  1  0  0  0  0
 23 21  1  0  0  0  0
 24 25  1  0  0  0  0
 24 21  1  0  0  0  0
 25 30  1  0  0  0  0
 26 31  1  0  0  0  0
 26 25  2  0  0  0  0
 27 26  1  0  0  0  0
 28 27  2  0  0  0  0
 28 29  1  0  0  0  0
 29 24  2  0  0  0  0
 32 35  1  0  0  0  0
 32 34  1  0  0  0  0
 32 28  1  0  0  0  0
 33 32  1  0  0  0  0
M  END
>  <minimizedAffinity>
-5.88517094

$$$$

 OpenBabel03252505593D

 35 37  0  0  0  0  0  0  0  0999 V2000
   36.5130   24.2580   39.1440 C   0  0  0  0  0  0  0  0  0  0  0  0
   37.0610   24.7610   40.3470 C   0  0  0  0  0  0  0  0  0  0  0  0
   37.0260   26.1420   40.5310 C   0  0  0  0  0  0  0  0  0  0  0  0
   36.4810   26.9070   39.5630 N   0  0  0  0  0  0  0  0  0  0  0  0
   35.9710   26.3950   38.4390 C   0  0  0  0  0  0  0  0  0  0  0  0
   35.9860   25.0890   38.2300 N   0  0  0  0  0  0  0  0  0  0  0  0
   36.5480   23.1860   39.0160 H   0  0  0  0  0  0  0  0  0  0  0  0
   37.4950   26.7970   41.7470 C   0  0  0  0  0  0  0  0  0  0  0  0
   36.6270   27.4720   42.5860 C   0  0  0  0  0  0  0  0  0  0  0  0
   35.5460   27.6220   42.5000 H   0  0  0  0  0  0  0  0  0  0  0  0
   37.2530   28.0220   43.6770 C   0  0  0  0  0  0  0  0  0  0  0  0
   36.8620   28.5970   44.4990 H   0  0  0  0  0  0  0  0  0  0  0  0
   38.5550   27.6480   43.4650 C   0  0  0  0  0  0  0  0  0  0  0  0
   39.4370   27.8570   44.0760 H   0  0  0  0  0  0  0  0  0  0  0  0
   38.6060   26.9810   42.3880 O   0  0  0  0  0  0  0  0  0  0  0  0
   37.6410   23.8020   41.3230 C   0  0  0  0  0  0  0  0  0  0  0  0
   39.0160   24.0370   41.2660 F   0  0  0  0  0  0  0  0  0  0  0  0
   37.3920   22.5360   40.8280 F   0  0  0  0  0  0  0  0  0  0  0  0
   37.1490   24.0500   42.5470 F   0  0  0  0  0  0  0  0  0  0  0  0
   35.4050   27.1760   37.4480 O   0  0  0  0  0  0  0  0  0  0  0  0
   34.7980   28.4120   37.7670 C   0  0  0  0  0  0  0  0  0  0  0  0
   33.9760   28.6550   37.0530 H   0  0  0  0  0  0  0  0  0  0  0  0
   34.3570   28.4440   38.7860 H   0  0  0  0  0  0  0  0  0  0  0  0
   35.8310   29.4610   37.6660 C   0  0  0  0  0  0  0  0  0  0  0  0
   36.5950   29.8720   36.5820 C   0  0  0  0  0  0  0  0  0  0  0  0
   37.4780   30.8840   36.7760 C   0  0  0  0  0  0  0  0  0  0  0  0
   37.6390   31.4900   37.9390 N   0  0  0  0  0  0  0  0  0  0  0  0
   36.8910   31.0810   38.9860 C   0  0  0  0  0  0  0  0  0  0  0  0
   35.9820   30.0710   38.8750 N   0  0  0  0  0  0  0  0  0  0  0  0
   36.3580   29.2930   35.7020 H   0  0  0  0  0  0  0  0  0  0  0  0
   38.0440   31.1570   35.8840 H   0  0  0  0  0  0  0  0  0  0  0  0
   37.1320   31.8150   40.2600 C   0  0  0  0  0  0  0  0  0  0  0  0
   38.3810   31.5510   40.7610 F   0  0  0  0  0  0  0  0  0  0  0  0
   36.1730   31.4530   41.2130 F   0  0  0  0  0  0  0  0  0  0  0  0
   37.0310   33.1820   40.0810 F   0  0  0  0  0  0  0  0  0  0  0  0
  1  2  1  0  0  0  0
  2  3  2  0  0  0  0
  2 16  1  0  0  0  0
  3  8  1  0  0  0  0
  4  3  1  0  0  0  0
  5  4  2  0  0  0  0
  6  5  1  0  0  0  0
  6  1  2  0  0  0  0
  7  1  1  0  0  0  0
  8 15  1  0  0  0  0
  8  9  2  0  0  0  0
  9 11  1  0  0  0  0
 10  9  1  0  0  0  0
 11 12  1  0  0  0  0
 13 11  2  0  0  0  0
 13 14  1  0  0  0  0
 15 13  1  0  0  0  0
 16 19  1  0  0  0  0
 17 16  1  0  0  0  0
 18 16  1  0  0  0  0
 20 21  1  0  0  0  0
 20  5  1  0  0  0  0
 21 23  1  0  0  0  0
 22 21  1  0  0  0  0
 24 21  1  0  0  0  0
 24 29  1  0  0  0  0
 25 26  1  0  0  0  0
 25 24  2  0  0  0  0
 26 27  2  0  0  0  0
 27 28  1  0  0  0  0
 28 32  1  0  0  0  0
 29 28  2  0  0  0  0
 30 25  1  0  0  0  0
 31 26  1  0  0  0  0
 32 33  1  0  0  0  0
 32 34  1  0  0  0  0
 35 32  1  0  0  0  0
M  END
>  <minimizedAffinity>
-5.81527376

$$$$

 OpenBabel03252505593D

 35 37  0  0  0  0  0  0  0  0999 V2000
   36.4340   31.3310   40.4860 C   0  0  0  0  0  0  0  0  0  0  0  0
   37.7800   31.7160   40.6880 C   0  0  0  0  0  0  0  0  0  0  0  0
   38.6140   30.7960   41.3190 C   0  0  0  0  0  0  0  0  0  0  0  0
   38.0960   29.6100   41.6980 N   0  0  0  0  0  0  0  0  0  0  0  0
   36.8180   29.2810   41.4880 C   0  0  0  0  0  0  0  0  0  0  0  0
   35.9960   30.1280   40.8910 N   0  0  0  0  0  0  0  0  0  0  0  0
   35.8000   32.0550   39.9940 H   0  0  0  0  0  0  0  0  0  0  0  0
   40.0380   31.0280   41.5380 C   0  0  0  0  0  0  0  0  0  0  0  0
   40.5850   31.0250   42.8080 C   0  0  0  0  0  0  0  0  0  0  0  0
   40.1010   30.8650   43.7780 H   0  0  0  0  0  0  0  0  0  0  0  0
   41.9370   31.2610   42.8120 C   0  0  0  0  0  0  0  0  0  0  0  0
   42.6410   31.3210   43.6250 H   0  0  0  0  0  0  0  0  0  0  0  0
   42.1940   31.4100   41.4730 C   0  0  0  0  0  0  0  0  0  0  0  0
   43.1460   31.6160   40.9750 H   0  0  0  0  0  0  0  0  0  0  0  0
   41.1040   31.2690   40.8410 O   0  0  0  0  0  0  0  0  0  0  0  0
   38.2150   33.0610   40.2290 C   0  0  0  0  0  0  0  0  0  0  0  0
   37.0410   33.6700   39.7800 F   0  0  0  0  0  0  0  0  0  0  0  0
   39.0460   32.8580   39.1440 F   0  0  0  0  0  0  0  0  0  0  0  0
   38.7590   33.7340   41.2540 F   0  0  0  0  0  0  0  0  0  0  0  0
   36.2850   28.0630   41.8700 O   0  0  0  0  0  0  0  0  0  0  0  0
   36.8020   27.3710   42.9880 C   0  0  0  0  0  0  0  0  0  0  0  0
   37.5610   27.9850   43.5280 H   0  0  0  0  0  0  0  0  0  0  0  0
   36.0290   27.0880   43.7350 H   0  0  0  0  0  0  0  0  0  0  0  0
   37.4560   26.1430   42.4960 C   0  0  0  0  0  0  0  0  0  0  0  0
   36.9110   24.9310   42.0940 C   0  0  0  0  0  0  0  0  0  0  0  0
   37.7620   23.9620   41.6710 C   0  0  0  0  0  0  0  0  0  0  0  0
   39.0730   24.1220   41.6230 N   0  0  0  0  0  0  0  0  0  0  0  0
   39.5910   25.3060   42.0160 C   0  0  0  0  0  0  0  0  0  0  0  0
   38.8040   26.3300   42.4560 N   0  0  0  0  0  0  0  0  0  0  0  0
   35.8350   24.9440   42.1850 H   0  0  0  0  0  0  0  0  0  0  0  0
   37.2680   23.0370   41.3700 H   0  0  0  0  0  0  0  0  0  0  0  0
   41.0750   25.4050   41.9320 C   0  0  0  0  0  0  0  0  0  0  0  0
   41.4980   26.7030   42.0560 F   0  0  0  0  0  0  0  0  0  0  0  0
   41.5230   24.8950   40.7070 F   0  0  0  0  0  0  0  0  0  0  0  0
   41.6860   24.6650   42.9270 F   0  0  0  0  0  0  0  0  0  0  0  0
  1  2  2  0  0  0  0
  1  6  1  0  0  0  0
  2  3  1  0  0  0  0
  3  8  1  0  0  0  0
  3  4  2  0  0  0  0
  5  4  1  0  0  0  0
  5 20  1  0  0  0  0
  6  5  2  0  0  0  0
  7  1  1  0  0  0  0
  8  9  2  0  0  0  0
  9 11  1  0  0  0  0
  9 10  1  0  0  0  0
 11 12  1  0  0  0  0
 13 11  2  0  0  0  0
 14 13  1  0  0  0  0
 15 13  1  0  0  0  0
 15  8  1  0  0  0  0
 16  2  1  0  0  0  0
 16 19  1  0  0  0  0
 17 16  1  0  0  0  0
 18 16  1  0  0  0  0
 20 21  1  0  0  0  0
 21 22  1  0  0  0  0
 21 23  1  0  0  0  0
 24 21  1  0  0  0  0
 25 30  1  0  0  0  0
 25 24  2  0  0  0  0
 26 25  1  0  0  0  0
 27 26  2  0  0  0  0
 27 28  1  0  0  0  0
 28 29  2  0  0  0  0
 29 24  1  0  0  0  0
 31 26  1  0  0  0  0
 32 28  1  0  0  0  0
 32 33  1  0  0  0  0
 32 35  1  0  0  0  0
 34 32  1  0  0  0  0
M  END
>  <minimizedAffinity>
-5.79352331

$$$$

 OpenBabel03252505593D

 35 37  0  0  0  0  0  0  0  0999 V2000
   39.4070   26.5630   43.4310 C   0  0  0  0  0  0  0  0  0  0  0  0
   38.8770   25.8790   42.3110 C   0  0  0  0  0  0  0  0  0  0  0  0
   38.4020   26.6590   41.2590 C   0  0  0  0  0  0  0  0  0  0  0  0
   38.4710   28.0020   41.3690 N   0  0  0  0  0  0  0  0  0  0  0  0
   38.9800   28.6120   42.4440 C   0  0  0  0  0  0  0  0  0  0  0  0
   39.4420   27.9050   43.4620 N   0  0  0  0  0  0  0  0  0  0  0  0
   39.7710   25.9450   44.2380 H   0  0  0  0  0  0  0  0  0  0  0  0
   37.8870   26.0950   40.0160 C   0  0  0  0  0  0  0  0  0  0  0  0
   36.5290   25.9720   39.7850 C   0  0  0  0  0  0  0  0  0  0  0  0
   35.6830   26.2470   40.4230 H   0  0  0  0  0  0  0  0  0  0  0  0
   36.2400   25.4200   38.5620 C   0  0  0  0  0  0  0  0  0  0  0  0
   35.2960   25.1970   38.0930 H   0  0  0  0  0  0  0  0  0  0  0  0
   37.4950   25.2090   38.0510 C   0  0  0  0  0  0  0  0  0  0  0  0
   37.7810   24.7800   37.0870 H   0  0  0  0  0  0  0  0  0  0  0  0
   38.3430   25.6040   38.9070 O   0  0  0  0  0  0  0  0  0  0  0  0
   38.8520   24.3940   42.3280 C   0  0  0  0  0  0  0  0  0  0  0  0
   39.5010   24.0490   43.5160 F   0  0  0  0  0  0  0  0  0  0  0  0
   39.6310   23.9740   41.2660 F   0  0  0  0  0  0  0  0  0  0  0  0
   37.5820   23.9630   42.3170 F   0  0  0  0  0  0  0  0  0  0  0  0
   39.0580   29.9890   42.5570 O   0  0  0  0  0  0  0  0  0  0  0  0
   40.3100   30.6430   42.5060 C   0  0  0  0  0  0  0  0  0  0  0  0
   40.5510   31.1310   43.4800 H   0  0  0  0  0  0  0  0  0  0  0  0
   41.1580   29.9670   42.2680 H   0  0  0  0  0  0  0  0  0  0  0  0
   40.2300   31.6870   41.4660 C   0  0  0  0  0  0  0  0  0  0  0  0
   41.2010   32.5550   40.9850 C   0  0  0  0  0  0  0  0  0  0  0  0
   40.8450   33.4200   40.0010 C   0  0  0  0  0  0  0  0  0  0  0  0
   39.6300   33.4700   39.4870 N   0  0  0  0  0  0  0  0  0  0  0  0
   38.6940   32.6210   39.9630 C   0  0  0  0  0  0  0  0  0  0  0  0
   38.9700   31.7220   40.9510 N   0  0  0  0  0  0  0  0  0  0  0  0
   42.1410   32.4020   41.4930 H   0  0  0  0  0  0  0  0  0  0  0  0
   41.6550   34.0720   39.6690 H   0  0  0  0  0  0  0  0  0  0  0  0
   37.3500   32.7410   39.3300 C   0  0  0  0  0  0  0  0  0  0  0  0
   36.8760   34.0250   39.4010 F   0  0  0  0  0  0  0  0  0  0  0  0
   36.4420   31.8840   39.9630 F   0  0  0  0  0  0  0  0  0  0  0  0
   37.3880   32.3780   37.9960 F   0  0  0  0  0  0  0  0  0  0  0  0
  1  6  1  0  0  0  0
  1  7  1  0  0  0  0
  2 16  1  0  0  0  0
  2  1  2  0  0  0  0
  3  4  2  0  0  0  0
  3  2  1  0  0  0  0
  4  5  1  0  0  0  0
  5 20  1  0  0  0  0
  5  6  2  0  0  0  0
  8  3  1  0  0  0  0
  9  8  2  0  0  0  0
  9 10  1  0  0  0  0
 11  9  1  0  0  0  0
 12 11  1  0  0  0  0
 13 11  2  0  0  0  0
 13 15  1  0  0  0  0
 14 13  1  0  0  0  0
 15  8  1  0  0  0  0
 16 17  1  0  0  0  0
 18 16  1  0  0  0  0
 19 16  1  0  0  0  0
 21 20  1  0  0  0  0
 21 22  1  0  0  0  0
 23 21  1  0  0  0  0
 24 21  1  0  0  0  0
 25 24  1  0  0  0  0
 25 30  1  0  0  0  0
 26 25  2  0  0  0  0
 27 28  2  0  0  0  0
 27 26  1  0  0  0  0
 28 29  1  0  0  0  0
 29 24  2  0  0  0  0
 31 26  1  0  0  0  0
 32 33  1  0  0  0  0
 32 34  1  0  0  0  0
 32 28  1  0  0  0  0
 35 32  1  0  0  0  0
M  END
>  <minimizedAffinity>
-5.64130497

$$$$

 OpenBabel03252505593D

 35 37  0  0  0  0  0  0  0  0999 V2000
   38.6990   27.0260   43.2860 C   0  0  0  0  0  0  0  0  0  0  0  0
   38.3230   26.0520   42.3320 C   0  0  0  0  0  0  0  0  0  0  0  0
   37.4780   26.4650   41.3040 C   0  0  0  0  0  0  0  0  0  0  0  0
   37.0720   27.7510   41.2800 N   0  0  0  0  0  0  0  0  0  0  0  0
   37.4500   28.6430   42.2000 C   0  0  0  0  0  0  0  0  0  0  0  0
   38.2520   28.2890   43.1910 N   0  0  0  0  0  0  0  0  0  0  0  0
   39.3540   26.6900   44.0760 H   0  0  0  0  0  0  0  0  0  0  0  0
   37.0590   25.5890   40.2150 C   0  0  0  0  0  0  0  0  0  0  0  0
   37.6860   25.6160   38.9820 C   0  0  0  0  0  0  0  0  0  0  0  0
   38.5210   26.2340   38.6360 H   0  0  0  0  0  0  0  0  0  0  0  0
   37.1520   24.7220   38.0880 C   0  0  0  0  0  0  0  0  0  0  0  0
   37.4130   24.5050   37.0660 H   0  0  0  0  0  0  0  0  0  0  0  0
   36.1610   24.1410   38.8380 C   0  0  0  0  0  0  0  0  0  0  0  0
   35.4530   23.3590   38.5510 H   0  0  0  0  0  0  0  0  0  0  0  0
   36.1740   24.6700   39.9900 O   0  0  0  0  0  0  0  0  0  0  0  0
   38.8370   24.6660   42.4860 C   0  0  0  0  0  0  0  0  0  0  0  0
   39.5610   24.6950   43.6800 F   0  0  0  0  0  0  0  0  0  0  0  0
   39.7190   24.4540   41.4430 F   0  0  0  0  0  0  0  0  0  0  0  0
   37.8080   23.8070   42.5530 F   0  0  0  0  0  0  0  0  0  0  0  0
   37.0400   29.9640   42.1760 O   0  0  0  0  0  0  0  0  0  0  0  0
   36.6320   30.5670   40.9640 C   0  0  0  0  0  0  0  0  0  0  0  0
   36.6590   29.8390   40.1200 H   0  0  0  0  0  0  0  0  0  0  0  0
   35.6010   30.9810   40.9970 H   0  0  0  0  0  0  0  0  0  0  0  0
   37.5730   31.6640   40.6670 C   0  0  0  0  0  0  0  0  0  0  0  0
   37.3630   32.8880   40.0470 C   0  0  0  0  0  0  0  0  0  0  0  0
   38.4250   33.7220   39.9130 C   0  0  0  0  0  0  0  0  0  0  0  0
   39.6380   33.4220   40.3440 N   0  0  0  0  0  0  0  0  0  0  0  0
   39.8290   32.2290   40.9460 C   0  0  0  0  0  0  0  0  0  0  0  0
   38.8150   31.3350   41.1190 N   0  0  0  0  0  0  0  0  0  0  0  0
   36.3300   32.9970   39.7490 H   0  0  0  0  0  0  0  0  0  0  0  0
   38.1900   34.6660   39.4170 H   0  0  0  0  0  0  0  0  0  0  0  0
   41.2240   31.9690   41.4040 C   0  0  0  0  0  0  0  0  0  0  0  0
   41.9820   33.1100   41.3740 F   0  0  0  0  0  0  0  0  0  0  0  0
   41.8240   31.0010   40.5900 F   0  0  0  0  0  0  0  0  0  0  0  0
   41.2460   31.4810   42.6970 F   0  0  0  0  0  0  0  0  0  0  0  0
  1  7  1  0  0  0  0
  2 16  1  0  0  0  0
  2  1  2  0  0  0  0
  3  2  1  0  0  0  0
  4  3  2  0  0  0  0
  4  5  1  0  0  0  0
  5  6  2  0  0  0  0
  6  1  1  0  0  0  0
  8  3  1  0  0  0  0
  9  8  2  0  0  0  0
 10  9  1  0  0  0  0
 11 13  2  0  0  0  0
 11  9  1  0  0  0  0
 12 11  1  0  0  0  0
 13 15  1  0  0  0  0
 14 13  1  0  0  0  0
 15  8  1  0  0  0  0
 16 19  1  0  0  0  0
 16 17  1  0  0  0  0
 18 16  1  0  0  0  0
 20  5  1  0  0  0  0
 21 23  1  0  0  0  0
 21 20  1  0  0  0  0
 22 21  1  0  0  0  0
 24 21  1  0  0  0  0
 24 29  1  0  0  0  0
 25 24  2  0  0  0  0
 26 25  1  0  0  0  0
 26 27  2  0  0  0  0
 27 28  1  0  0  0  0
 28 29  2  0  0  0  0
 28 32  1  0  0  0  0
 30 25  1  0  0  0  0
 31 26  1  0  0  0  0
 32 35  1  0  0  0  0
 33 32  1  0  0  0  0
 34 32  1  0  0  0  0
M  END
>  <minimizedAffinity>
-5.44967413

$$$$

 OpenBabel03252505593D

 35 37  0  0  0  0  0  0  0  0999 V2000
   36.9650   31.3230   40.2600 C   0  0  0  0  0  0  0  0  0  0  0  0
   37.8380   30.9300   39.2190 C   0  0  0  0  0  0  0  0  0  0  0  0
   38.7890   29.9570   39.5230 C   0  0  0  0  0  0  0  0  0  0  0  0
   38.8210   29.4560   40.7750 N   0  0  0  0  0  0  0  0  0  0  0  0
   37.9770   29.8530   41.7320 C   0  0  0  0  0  0  0  0  0  0  0  0
   37.0610   30.7730   41.4810 N   0  0  0  0  0  0  0  0  0  0  0  0
   36.2340   32.0780   40.0080 H   0  0  0  0  0  0  0  0  0  0  0  0
   39.7130   29.4090   38.5360 C   0  0  0  0  0  0  0  0  0  0  0  0
   41.0720   29.6610   38.5980 C   0  0  0  0  0  0  0  0  0  0  0  0
   41.6400   30.2550   39.3220 H   0  0  0  0  0  0  0  0  0  0  0  0
   41.7760   29.0610   37.5850 C   0  0  0  0  0  0  0  0  0  0  0  0
   42.8300   29.0640   37.3600 H   0  0  0  0  0  0  0  0  0  0  0  0
   40.7780   28.4230   36.8950 C   0  0  0  0  0  0  0  0  0  0  0  0
   40.8510   27.8060   35.9960 H   0  0  0  0  0  0  0  0  0  0  0  0
   39.6770   28.6630   37.4780 O   0  0  0  0  0  0  0  0  0  0  0  0
   37.6980   31.5740   37.8870 C   0  0  0  0  0  0  0  0  0  0  0  0
   36.9190   32.7080   38.1300 F   0  0  0  0  0  0  0  0  0  0  0  0
   36.9690   30.7020   37.1020 F   0  0  0  0  0  0  0  0  0  0  0  0
   38.9100   31.9010   37.4130 F   0  0  0  0  0  0  0  0  0  0  0  0
   38.0030   29.3360   43.0150 O   0  0  0  0  0  0  0  0  0  0  0  0
   37.2180   28.2110   43.3530 C   0  0  0  0  0  0  0  0  0  0  0  0
   36.9070   28.2410   44.4230 H   0  0  0  0  0  0  0  0  0  0  0  0
   36.2870   28.1190   42.7520 H   0  0  0  0  0  0  0  0  0  0  0  0
   38.0410   27.0060   43.1370 C   0  0  0  0  0  0  0  0  0  0  0  0
   39.2690   26.6450   43.6740 C   0  0  0  0  0  0  0  0  0  0  0  0
   39.8000   25.4530   43.3000 C   0  0  0  0  0  0  0  0  0  0  0  0
   39.2030   24.6300   42.4570 N   0  0  0  0  0  0  0  0  0  0  0  0
   38.0090   24.9910   41.9410 C   0  0  0  0  0  0  0  0  0  0  0  0
   37.4090   26.1720   42.2650 N   0  0  0  0  0  0  0  0  0  0  0  0
   39.6360   27.4090   44.3440 H   0  0  0  0  0  0  0  0  0  0  0  0
   40.7650   25.2330   43.7600 H   0  0  0  0  0  0  0  0  0  0  0  0
   37.4030   24.0070   41.0000 C   0  0  0  0  0  0  0  0  0  0  0  0
   37.5770   24.3900   39.6950 F   0  0  0  0  0  0  0  0  0  0  0  0
   36.0340   23.8740   41.2580 F   0  0  0  0  0  0  0  0  0  0  0  0
   37.9680   22.7540   41.1500 F   0  0  0  0  0  0  0  0  0  0  0  0
  1  6  1  0  0  0  0
  2  3  1  0  0  0  0
  2  1  2  0  0  0  0
  3  4  2  0  0  0  0
  4  5  1  0  0  0  0
  5 20  1  0  0  0  0
  6  5  2  0  0  0  0
  7  1  1  0  0  0  0
  8  9  2  0  0  0  0
  8  3  1  0  0  0  0
  9 10  1  0  0  0  0
 11  9  1  0  0  0  0
 12 11  1  0  0  0  0
 13 15  1  0  0  0  0
 13 11  2  0  0  0  0
 14 13  1  0  0  0  0
 15  8  1  0  0  0  0
 16 17  1  0  0  0  0
 16  2  1  0  0  0  0
 18 16  1  0  0  0  0
 19 16  1  0  0  0  0
 20 21  1  0  0  0  0
 21 22  1  0  0  0  0
 23 21  1  0  0  0  0
 24 21  1  0  0  0  0
 24 25  1  0  0  0  0
 25 30  1  0  0  0  0
 26 25  2  0  0  0  0
 26 31  1  0  0  0  0
 27 26  1  0  0  0  0
 28 29  1  0  0  0  0
 28 27  2  0  0  0  0
 29 24  2  0  0  0  0
 32 35  1  0  0  0  0
 32 34  1  0  0  0  0
 32 28  1  0  0  0  0
 33 32  1  0  0  0  0
M  END
>  <minimizedAffinity>
-5.39124298

$$$$

 OpenBabel03252505593D

 35 37  0  0  0  0  0  0  0  0999 V2000
   36.4760   29.8050   41.2400 C   0  0  0  0  0  0  0  0  0  0  0  0
   36.9610   28.5250   41.5980 C   0  0  0  0  0  0  0  0  0  0  0  0
   36.6720   27.4730   40.7310 C   0  0  0  0  0  0  0  0  0  0  0  0
   35.9550   27.7330   39.6180 N   0  0  0  0  0  0  0  0  0  0  0  0
   35.5150   28.9580   39.3130 C   0  0  0  0  0  0  0  0  0  0  0  0
   35.7700   29.9810   40.1110 N   0  0  0  0  0  0  0  0  0  0  0  0
   36.7080   30.6100   41.9220 H   0  0  0  0  0  0  0  0  0  0  0  0
   37.1590   26.1130   40.9360 C   0  0  0  0  0  0  0  0  0  0  0  0
   38.2500   25.6230   40.2420 C   0  0  0  0  0  0  0  0  0  0  0  0
   38.8800   26.1130   39.4920 H   0  0  0  0  0  0  0  0  0  0  0  0
   38.5560   24.3260   40.5700 C   0  0  0  0  0  0  0  0  0  0  0  0
   39.3350   23.6720   40.2110 H   0  0  0  0  0  0  0  0  0  0  0  0
   37.5950   24.0430   41.5050 C   0  0  0  0  0  0  0  0  0  0  0  0
   37.4290   23.1170   42.0610 H   0  0  0  0  0  0  0  0  0  0  0  0
   36.8680   25.0720   41.6500 O   0  0  0  0  0  0  0  0  0  0  0  0
   37.7290   28.3800   42.8610 C   0  0  0  0  0  0  0  0  0  0  0  0
   37.7650   29.6700   43.3960 F   0  0  0  0  0  0  0  0  0  0  0  0
   39.0140   28.0180   42.5030 F   0  0  0  0  0  0  0  0  0  0  0  0
   37.0960   27.5250   43.6800 F   0  0  0  0  0  0  0  0  0  0  0  0
   34.7850   29.2290   38.1700 O   0  0  0  0  0  0  0  0  0  0  0  0
   33.6820   28.4210   37.8130 C   0  0  0  0  0  0  0  0  0  0  0  0
   34.0140   27.4750   37.3250 H   0  0  0  0  0  0  0  0  0  0  0  0
   33.0440   28.1300   38.6760 H   0  0  0  0  0  0  0  0  0  0  0  0
   32.8590   29.1800   36.8530 C   0  0  0  0  0  0  0  0  0  0  0  0
   32.9900   29.3350   35.4790 C   0  0  0  0  0  0  0  0  0  0  0  0
   32.0680   30.0950   34.8360 C   0  0  0  0  0  0  0  0  0  0  0  0
   31.0620   30.6870   35.4530 N   0  0  0  0  0  0  0  0  0  0  0  0
   30.9450   30.5300   36.7900 C   0  0  0  0  0  0  0  0  0  0  0  0
   31.8290   29.7830   37.5100 N   0  0  0  0  0  0  0  0  0  0  0  0
   33.8520   28.7980   35.1120 H   0  0  0  0  0  0  0  0  0  0  0  0
   32.2300   30.1740   33.7590 H   0  0  0  0  0  0  0  0  0  0  0  0
   29.7830   31.2280   37.4090 C   0  0  0  0  0  0  0  0  0  0  0  0
   30.1730   32.3770   38.0490 F   0  0  0  0  0  0  0  0  0  0  0  0
   29.1510   30.3860   38.3310 F   0  0  0  0  0  0  0  0  0  0  0  0
   28.8390   31.5740   36.4600 F   0  0  0  0  0  0  0  0  0  0  0  0
  1  2  1  0  0  0  0
  1  7  1  0  0  0  0
  2 16  1  0  0  0  0
  3  8  1  0  0  0  0
  3  2  2  0  0  0  0
  4  3  1  0  0  0  0
  5  4  2  0  0  0  0
  5  6  1  0  0  0  0
  6  1  2  0  0  0  0
  8 15  1  0  0  0  0
  9 11  1  0  0  0  0
  9  8  2  0  0  0  0
 10  9  1  0  0  0  0
 11 13  2  0  0  0  0
 12 11  1  0  0  0  0
 13 15  1  0  0  0  0
 13 14  1  0  0  0  0
 16 17  1  0  0  0  0
 16 19  1  0  0  0  0
 18 16  1  0  0  0  0
 20  5  1  0  0  0  0
 21 20  1  0  0  0  0
 21 23  1  0  0  0  0
 22 21  1  0  0  0  0
 24 29  1  0  0  0  0
 24 21  1  0  0  0  0
 25 24  2  0  0  0  0
 26 27  2  0  0  0  0
 26 25  1  0  0  0  0
 27 28  1  0  0  0  0
 28 32  1  0  0  0  0
 28 29  2  0  0  0  0
 30 25  1  0  0  0  0
 31 26  1  0  0  0  0
 32 33  1  0  0  0  0
 32 34  1  0  0  0  0
 35 32  1  0  0  0  0
M  END
>  <minimizedAffinity>
-5.38103008

$$$$

 OpenBabel03252505593D

 35 37  0  0  0  0  0  0  0  0999 V2000
   36.3560   28.6400   41.0860 C   0  0  0  0  0  0  0  0  0  0  0  0
   37.3730   27.8100   41.6100 C   0  0  0  0  0  0  0  0  0  0  0  0
   38.5980   27.8110   40.9450 C   0  0  0  0  0  0  0  0  0  0  0  0
   38.7370   28.5910   39.8530 N   0  0  0  0  0  0  0  0  0  0  0  0
   37.7520   29.3640   39.3880 C   0  0  0  0  0  0  0  0  0  0  0  0
   36.5760   29.3900   39.9940 N   0  0  0  0  0  0  0  0  0  0  0  0
   35.4130   28.6290   41.6130 H   0  0  0  0  0  0  0  0  0  0  0  0
   39.7570   27.0550   41.4060 C   0  0  0  0  0  0  0  0  0  0  0  0
   40.8170   27.6740   42.0440 C   0  0  0  0  0  0  0  0  0  0  0  0
   40.9630   28.7300   42.2930 H   0  0  0  0  0  0  0  0  0  0  0  0
   41.8130   26.7990   42.4020 C   0  0  0  0  0  0  0  0  0  0  0  0
   42.7510   26.9660   42.9040 H   0  0  0  0  0  0  0  0  0  0  0  0
   41.3090   25.6070   41.9500 C   0  0  0  0  0  0  0  0  0  0  0  0
   41.7510   24.6090   42.0080 H   0  0  0  0  0  0  0  0  0  0  0  0
   40.1800   25.8300   41.4170 O   0  0  0  0  0  0  0  0  0  0  0  0
   37.0780   26.9930   42.8150 C   0  0  0  0  0  0  0  0  0  0  0  0
   36.9170   25.6950   42.3240 F   0  0  0  0  0  0  0  0  0  0  0  0
   35.8610   27.4310   43.3010 F   0  0  0  0  0  0  0  0  0  0  0  0
   38.1040   27.0700   43.6770 F   0  0  0  0  0  0  0  0  0  0  0  0
   37.8940   30.1700   38.2730 O   0  0  0  0  0  0  0  0  0  0  0  0
   37.2950   31.4500   38.2300 C   0  0  0  0  0  0  0  0  0  0  0  0
   37.2270   31.8290   37.1840 H   0  0  0  0  0  0  0  0  0  0  0  0
   36.2670   31.4760   38.6490 H   0  0  0  0  0  0  0  0  0  0  0  0
   38.1460   32.3700   39.0090 C   0  0  0  0  0  0  0  0  0  0  0  0
   37.8470   33.1570   40.1130 C   0  0  0  0  0  0  0  0  0  0  0  0
   38.8430   33.9130   40.6410 C   0  0  0  0  0  0  0  0  0  0  0  0
   40.0710   33.9310   40.1550 N   0  0  0  0  0  0  0  0  0  0  0  0
   40.3500   33.1620   39.0810 C   0  0  0  0  0  0  0  0  0  0  0  0
   39.4060   32.3750   38.4910 N   0  0  0  0  0  0  0  0  0  0  0  0
   36.8120   33.0410   40.4000 H   0  0  0  0  0  0  0  0  0  0  0  0
   38.5400   34.5050   41.5070 H   0  0  0  0  0  0  0  0  0  0  0  0
   41.7570   33.2400   38.5950 C   0  0  0  0  0  0  0  0  0  0  0  0
   42.4820   34.1610   39.3070 F   0  0  0  0  0  0  0  0  0  0  0  0
   41.7800   33.5900   37.2400 F   0  0  0  0  0  0  0  0  0  0  0  0
   42.3970   32.0200   38.7100 F   0  0  0  0  0  0  0  0  0  0  0  0
  1  2  1  0  0  0  0
  1  7  1  0  0  0  0
  2 16  1  0  0  0  0
  3  8  1  0  0  0  0
  3  2  2  0  0  0  0
  4  3  1  0  0  0  0
  5  4  2  0  0  0  0
  5  6  1  0  0  0  0
  6  1  2  0  0  0  0
  8 15  1  0  0  0  0
  8  9  2  0  0  0  0
  9 10  1  0  0  0  0
  9 11  1  0  0  0  0
 11 12  1  0  0  0  0
 13 14  1  0  0  0  0
 13 11  2  0  0  0  0
 15 13  1  0  0  0  0
 16 18  1  0  0  0  0
 16 19  1  0  0  0  0
 17 16  1  0  0  0  0
 20  5  1  0  0  0  0
 21 20  1  0  0  0  0
 21 23  1  0  0  0  0
 21 24  1  0  0  0  0
 22 21  1  0  0  0  0
 24 25  1  0  0  0  0
 25 30  1  0  0  0  0
 25 26  2  0  0  0  0
 26 31  1  0  0  0  0
 27 26  1  0  0  0  0
 28 27  2  0  0  0  0
 29 24  2  0  0  0  0
 29 28  1  0  0  0  0
 32 35  1  0  0  0  0
 32 28  1  0  0  0  0
 32 33  1  0  0  0  0
 34 32  1  0  0  0  0
M  END
>  <minimizedAffinity>
-5.28723335

$$$$
