
 OpenBabel03242514303D

 37 40  0  0  0  0  0  0  0  0999 V2000
   48.7900   35.4860   40.6910 C   0  0  0  0  0  0  0  0  0  0  0  0
   48.2620   34.8690   39.5470 C   0  0  0  0  0  0  0  0  0  0  0  0
   47.2470   33.9340   39.6950 C   0  0  0  0  0  0  0  0  0  0  0  0
   46.8190   33.6770   40.9500 N   0  0  0  0  0  0  0  0  0  0  0  0
   47.3220   34.2730   42.0430 C   0  0  0  0  0  0  0  0  0  0  0  0
   48.3120   35.1780   41.9190 N   0  0  0  0  0  0  0  0  0  0  0  0
   49.5780   36.2220   40.7320 H   0  0  0  0  0  0  0  0  0  0  0  0
   48.7490   35.2940   38.7320 H   0  0  0  0  0  0  0  0  0  0  0  0
   45.0500   36.0960   42.9660 Cl  0  0  0  0  0  0  0  0  0  0  0  0
   45.7440   34.7810   43.8850 C   0  0  0  0  0  0  0  0  0  0  0  0
   46.7790   34.0090   43.3610 C   0  0  0  0  0  0  0  0  0  0  0  0
   47.2290   33.0120   44.1590 C   0  0  0  0  0  0  0  0  0  0  0  0
   46.7400   32.7260   45.4190 C   0  0  0  0  0  0  0  0  0  0  0  0
   45.7190   33.5020   45.9160 C   0  0  0  0  0  0  0  0  0  0  0  0
   45.1750   33.0650   47.5230 Cl  0  0  0  0  0  0  0  0  0  0  0  0
   45.2230   34.5210   45.1580 C   0  0  0  0  0  0  0  0  0  0  0  0
   48.0380   32.4000   43.7630 H   0  0  0  0  0  0  0  0  0  0  0  0
   47.1880   31.8990   45.9550 H   0  0  0  0  0  0  0  0  0  0  0  0
   44.4320   35.1020   45.5780 H   0  0  0  0  0  0  0  0  0  0  0  0
   49.1250   33.4760   37.4140 Cl  0  0  0  0  0  0  0  0  0  0  0  0
   47.4290   33.0400   37.4340 C   0  0  0  0  0  0  0  0  0  0  0  0
   46.7070   33.2360   38.5610 C   0  0  0  0  0  0  0  0  0  0  0  0
   45.4240   32.7220   38.5120 C   0  0  0  0  0  0  0  0  0  0  0  0
   44.8690   32.0610   37.4360 C   0  0  0  0  0  0  0  0  0  0  0  0
   45.6490   31.8930   36.3030 C   0  0  0  0  0  0  0  0  0  0  0  0
   46.9390   32.3930   36.3160 C   0  0  0  0  0  0  0  0  0  0  0  0
   44.8530   32.8900   39.4450 H   0  0  0  0  0  0  0  0  0  0  0  0
   43.8590   31.7450   37.6100 H   0  0  0  0  0  0  0  0  0  0  0  0
   45.1940   31.3840   35.4910 H   0  0  0  0  0  0  0  0  0  0  0  0
   47.7750   32.2250   35.1320 C   0  0  0  0  0  0  0  0  0  0  0  0
   49.0540   31.7130   35.0970 C   0  0  0  0  0  0  0  0  0  0  0  0
   49.6550   31.3530   35.9070 H   0  0  0  0  0  0  0  0  0  0  0  0
   49.4610   31.7410   33.7640 C   0  0  0  0  0  0  0  0  0  0  0  0
   50.4340   31.3960   33.4360 H   0  0  0  0  0  0  0  0  0  0  0  0
   48.3970   32.2730   33.0620 C   0  0  0  0  0  0  0  0  0  0  0  0
   48.4110   32.4230   31.9910 H   0  0  0  0  0  0  0  0  0  0  0  0
   47.4330   32.5410   33.9070 O   0  0  0  0  0  0  0  0  0  0  0  0
  1  7  1  0  0  0  0
  1  6  1  0  0  0  0
  2  3  1  0  0  0  0
  2  1  2  0  0  0  0
  3  4  2  0  0  0  0
  4  5  1  0  0  0  0
  5 11  1  0  0  0  0
  6  5  2  0  0  0  0
  8  2  1  0  0  0  0
  9 10  1  0  0  0  0
 10 16  1  0  0  0  0
 11 10  2  0  0  0  0
 11 12  1  0  0  0  0
 12 13  2  0  0  0  0
 13 14  1  0  0  0  0
 13 18  1  0  0  0  0
 14 15  1  0  0  0  0
 16 19  1  0  0  0  0
 16 14  2  0  0  0  0
 17 12  1  0  0  0  0
 20 21  1  0  0  0  0
 21 22  1  0  0  0  0
 22  3  1  0  0  0  0
 23 22  2  0  0  0  0
 23 27  1  0  0  0  0
 24 28  1  0  0  0  0
 24 23  1  0  0  0  0
 25 26  1  0  0  0  0
 25 24  2  0  0  0  0
 26 21  2  0  0  0  0
 29 25  1  0  0  0  0
 30 26  1  0  0  0  0
 31 30  2  0  0  0  0
 31 32  1  0  0  0  0
 33 31  1  0  0  0  0
 34 33  1  0  0  0  0
 35 33  2  0  0  0  0
 35 37  1  0  0  0  0
 36 35  1  0  0  0  0
 37 30  1  0  0  0  0
M  END
>  <minimizedAffinity>
-6.27386189

>  <minimizedRMSD>
0.735657215

$$$$
