
 OpenBabel03252507263D

 26 28  0  0  0  0  0  0  0  0999 V2000
   45.5770   34.1480   45.4200 C   0  0  0  0  0  0  0  0  0  0  0  0
   44.6560   35.1920   45.6040 C   0  0  0  0  0  0  0  0  0  0  0  0
   44.4540   36.0750   44.5430 C   0  0  0  0  0  0  0  0  0  0  0  0
   45.1580   35.8860   43.3780 N   0  0  0  0  0  0  0  0  0  0  0  0
   46.0340   34.8620   43.2540 C   0  0  0  0  0  0  0  0  0  0  0  0
   46.2490   33.9960   44.2580 N   0  0  0  0  0  0  0  0  0  0  0  0
   44.1370   35.2760   46.5570 H   0  0  0  0  0  0  0  0  0  0  0  0
   43.7490   36.8890   44.6590 H   0  0  0  0  0  0  0  0  0  0  0  0
   46.7520   34.7050   42.0030 C   0  0  0  0  0  0  0  0  0  0  0  0
   47.9670   35.3520   41.8090 C   0  0  0  0  0  0  0  0  0  0  0  0
   48.7350   35.2770   40.6650 C   0  0  0  0  0  0  0  0  0  0  0  0
   48.1900   34.4740   39.6690 C   0  0  0  0  0  0  0  0  0  0  0  0
   46.9800   33.8200   39.8450 C   0  0  0  0  0  0  0  0  0  0  0  0
   46.2790   33.9450   41.0070 N   0  0  0  0  0  0  0  0  0  0  0  0
   48.3210   35.9580   42.6330 H   0  0  0  0  0  0  0  0  0  0  0  0
   49.6720   35.8100   40.5860 H   0  0  0  0  0  0  0  0  0  0  0  0
   48.7410   34.3700   38.7450 H   0  0  0  0  0  0  0  0  0  0  0  0
   46.6300   33.2140   39.0170 H   0  0  0  0  0  0  0  0  0  0  0  0
   45.8210   33.1990   46.5030 C   0  0  0  0  0  0  0  0  0  0  0  0
   46.8970   32.3270   46.5780 C   0  0  0  0  0  0  0  0  0  0  0  0
   47.7160   32.1990   45.8770 H   0  0  0  0  0  0  0  0  0  0  0  0
   46.7850   31.5930   47.7420 C   0  0  0  0  0  0  0  0  0  0  0  0
   47.4040   30.8210   48.1680 H   0  0  0  0  0  0  0  0  0  0  0  0
   45.6420   32.0450   48.3350 C   0  0  0  0  0  0  0  0  0  0  0  0
   45.1270   31.8000   49.2390 H   0  0  0  0  0  0  0  0  0  0  0  0
   45.1080   32.9710   47.5980 O   0  0  0  0  0  0  0  0  0  0  0  0
  1  2  1  0  0  0  0
  1 19  1  0  0  0  0
  2  7  1  0  0  0  0
  3  8  1  0  0  0  0
  3  2  2  0  0  0  0
  4  3  1  0  0  0  0
  5  4  2  0  0  0  0
  5  6  1  0  0  0  0
  6  1  2  0  0  0  0
  9  5  1  0  0  0  0
 10  9  1  0  0  0  0
 10 15  1  0  0  0  0
 11 10  2  0  0  0  0
 12 13  2  0  0  0  0
 12 11  1  0  0  0  0
 13 14  1  0  0  0  0
 14  9  2  0  0  0  0
 16 11  1  0  0  0  0
 17 12  1  0  0  0  0
 18 13  1  0  0  0  0
 19 20  2  0  0  0  0
 19 26  1  0  0  0  0
 20 22  1  0  0  0  0
 21 20  1  0  0  0  0
 22 23  1  0  0  0  0
 22 24  2  0  0  0  0
 24 25  1  0  0  0  0
 26 24  1  0  0  0  0
M  END
>  <minimizedAffinity>
-5.92454815

>  <minimizedRMSD>
0.585436046

$$$$
