
 OpenBabel03252503073D

 19 20  0  0  0  0  0  0  0  0999 V2000
   37.2980   32.2800   40.2390 C   0  0  0  0  0  0  0  0  0  0  0  0
   37.1220   31.0060   40.8170 C   0  0  0  0  0  0  0  0  0  0  0  0
   38.1570   30.4540   41.5540 C   0  0  0  0  0  0  0  0  0  0  0  0
   39.2960   31.1670   41.6870 N   0  0  0  0  0  0  0  0  0  0  0  0
   39.4530   32.3900   41.1280 C   0  0  0  0  0  0  0  0  0  0  0  0
   38.4630   32.9340   40.4150 N   0  0  0  0  0  0  0  0  0  0  0  0
   36.4760   32.6890   39.6690 H   0  0  0  0  0  0  0  0  0  0  0  0
   40.4020   32.9270   41.2680 H   0  0  0  0  0  0  0  0  0  0  0  0
   37.9860   29.1350   42.1560 C   0  0  0  0  0  0  0  0  0  0  0  0
   37.6560   28.8740   43.4650 C   0  0  0  0  0  0  0  0  0  0  0  0
   37.4750   29.5990   44.2480 H   0  0  0  0  0  0  0  0  0  0  0  0
   37.6120   27.4940   43.5550 C   0  0  0  0  0  0  0  0  0  0  0  0
   37.3780   26.9720   44.4590 H   0  0  0  0  0  0  0  0  0  0  0  0
   37.9210   27.0310   42.2760 C   0  0  0  0  0  0  0  0  0  0  0  0
   37.9360   25.9460   42.1400 H   0  0  0  0  0  0  0  0  0  0  0  0
   38.1420   28.0310   41.4520 O   0  0  0  0  0  0  0  0  0  0  0  0
   35.8730   30.3100   40.6260 C   0  0  0  0  0  0  0  0  0  0  0  0
   35.6830   29.7570   39.5060 O   0  0  0  0  0  0  0  0  0  0  0  0
   35.0000   30.1260   41.2260 H   0  0  0  0  0  0  0  0  0  0  0  0
  1  6  2  0  0  0  0
  1  2  1  0  0  0  0
  2  3  2  0  0  0  0
  3  4  1  0  0  0  0
  3  9  1  0  0  0  0
  5  8  1  0  0  0  0
  5  4  2  0  0  0  0
  6  5  1  0  0  0  0
  7  1  1  0  0  0  0
  9 10  2  0  0  0  0
 10 12  1  0  0  0  0
 10 11  1  0  0  0  0
 12 13  1  0  0  0  0
 14 12  2  0  0  0  0
 15 14  1  0  0  0  0
 16  9  1  0  0  0  0
 16 14  1  0  0  0  0
 17  2  1  0  0  0  0
 17 19  1  0  0  0  0
 18 17  2  0  0  0  0
M  END
>  <minimizedAffinity>
-3.7515049

$$$$

 OpenBabel03252503073D

 19 20  0  0  0  0  0  0  0  0999 V2000
   36.4950   27.8660   42.2160 C   0  0  0  0  0  0  0  0  0  0  0  0
   36.5580   28.8120   41.1730 C   0  0  0  0  0  0  0  0  0  0  0  0
   37.4850   29.8390   41.2540 C   0  0  0  0  0  0  0  0  0  0  0  0
   38.2910   29.8860   42.3360 N   0  0  0  0  0  0  0  0  0  0  0  0
   38.2210   28.9720   43.3310 C   0  0  0  0  0  0  0  0  0  0  0  0
   37.3320   27.9760   43.2660 N   0  0  0  0  0  0  0  0  0  0  0  0
   35.7630   27.0740   42.1300 H   0  0  0  0  0  0  0  0  0  0  0  0
   38.9020   29.0580   44.1900 H   0  0  0  0  0  0  0  0  0  0  0  0
   37.5590   30.8240   40.1790 C   0  0  0  0  0  0  0  0  0  0  0  0
   36.9650   32.0650   40.1700 C   0  0  0  0  0  0  0  0  0  0  0  0
   36.3550   32.5000   40.9500 H   0  0  0  0  0  0  0  0  0  0  0  0
   37.3180   32.6210   38.9530 C   0  0  0  0  0  0  0  0  0  0  0  0
   37.0070   33.5970   38.6430 H   0  0  0  0  0  0  0  0  0  0  0  0
   38.1060   31.6590   38.3220 C   0  0  0  0  0  0  0  0  0  0  0  0
   38.4890   31.9170   37.3300 H   0  0  0  0  0  0  0  0  0  0  0  0
   38.2380   30.5890   39.0740 O   0  0  0  0  0  0  0  0  0  0  0  0
   35.6600   28.6890   40.0520 C   0  0  0  0  0  0  0  0  0  0  0  0
   34.4920   29.1490   40.1910 O   0  0  0  0  0  0  0  0  0  0  0  0
   35.7260   28.2800   39.0590 H   0  0  0  0  0  0  0  0  0  0  0  0
  1  6  1  0  0  0  0
  2  3  1  0  0  0  0
  2  1  2  0  0  0  0
  3  4  2  0  0  0  0
  4  5  1  0  0  0  0
  5  8  1  0  0  0  0
  6  5  2  0  0  0  0
  7  1  1  0  0  0  0
  9  3  1  0  0  0  0
 10  9  2  0  0  0  0
 10 11  1  0  0  0  0
 12 10  1  0  0  0  0
 13 12  1  0  0  0  0
 14 12  2  0  0  0  0
 14 16  1  0  0  0  0
 15 14  1  0  0  0  0
 16  9  1  0  0  0  0
 17 18  2  0  0  0  0
 17  2  1  0  0  0  0
 19 17  1  0  0  0  0
M  END
>  <minimizedAffinity>
-3.75080752

$$$$

 OpenBabel03252503073D

 19 20  0  0  0  0  0  0  0  0999 V2000
   38.2500   23.3210   41.0690 C   0  0  0  0  0  0  0  0  0  0  0  0
   38.3800   24.5030   41.8260 C   0  0  0  0  0  0  0  0  0  0  0  0
   37.6170   25.6070   41.4810 C   0  0  0  0  0  0  0  0  0  0  0  0
   36.7790   25.4990   40.4280 N   0  0  0  0  0  0  0  0  0  0  0  0
   36.6620   24.3590   39.7100 C   0  0  0  0  0  0  0  0  0  0  0  0
   37.3910   23.2850   40.0320 N   0  0  0  0  0  0  0  0  0  0  0  0
   38.8550   22.4720   41.3580 H   0  0  0  0  0  0  0  0  0  0  0  0
   35.9630   24.3250   38.8620 H   0  0  0  0  0  0  0  0  0  0  0  0
   37.7440   26.8370   42.2570 C   0  0  0  0  0  0  0  0  0  0  0  0
   36.8930   27.2670   43.2480 C   0  0  0  0  0  0  0  0  0  0  0  0
   36.0030   26.7640   43.6050 H   0  0  0  0  0  0  0  0  0  0  0  0
   37.4230   28.4690   43.6790 C   0  0  0  0  0  0  0  0  0  0  0  0
   36.9830   29.0590   44.4560 H   0  0  0  0  0  0  0  0  0  0  0  0
   38.5650   28.6680   42.9040 C   0  0  0  0  0  0  0  0  0  0  0  0
   39.1340   29.5820   43.0990 H   0  0  0  0  0  0  0  0  0  0  0  0
   38.7400   27.6780   42.0570 O   0  0  0  0  0  0  0  0  0  0  0  0
   39.3000   24.5340   42.9350 C   0  0  0  0  0  0  0  0  0  0  0  0
   40.5260   24.6780   42.6680 O   0  0  0  0  0  0  0  0  0  0  0  0
   39.2120   24.4620   44.0050 H   0  0  0  0  0  0  0  0  0  0  0  0
  1  7  1  0  0  0  0
  1  2  1  0  0  0  0
  2 17  1  0  0  0  0
  3  2  2  0  0  0  0
  3  9  1  0  0  0  0
  4  3  1  0  0  0  0
  5  6  1  0  0  0  0
  5  4  2  0  0  0  0
  6  1  2  0  0  0  0
  8  5  1  0  0  0  0
  9 10  2  0  0  0  0
 10 11  1  0  0  0  0
 10 12  1  0  0  0  0
 12 13  1  0  0  0  0
 14 15  1  0  0  0  0
 14 12  2  0  0  0  0
 16  9  1  0  0  0  0
 16 14  1  0  0  0  0
 17 19  1  0  0  0  0
 18 17  2  0  0  0  0
M  END
>  <minimizedAffinity>
-3.66595101

$$$$

 OpenBabel03252503073D

 19 20  0  0  0  0  0  0  0  0999 V2000
   39.3830   32.5800   41.1060 C   0  0  0  0  0  0  0  0  0  0  0  0
   38.5160   31.5040   40.8290 C   0  0  0  0  0  0  0  0  0  0  0  0
   37.3730   31.7390   40.0820 C   0  0  0  0  0  0  0  0  0  0  0  0
   37.1400   32.9960   39.6510 N   0  0  0  0  0  0  0  0  0  0  0  0
   37.9800   34.0220   39.9230 C   0  0  0  0  0  0  0  0  0  0  0  0
   39.0870   33.8100   40.6420 N   0  0  0  0  0  0  0  0  0  0  0  0
   40.2690   32.3720   41.6910 H   0  0  0  0  0  0  0  0  0  0  0  0
   37.7430   35.0270   39.5470 H   0  0  0  0  0  0  0  0  0  0  0  0
   36.4670   30.6310   39.7900 C   0  0  0  0  0  0  0  0  0  0  0  0
   36.3590   29.9620   38.5930 C   0  0  0  0  0  0  0  0  0  0  0  0
   36.9230   30.1490   37.6890 H   0  0  0  0  0  0  0  0  0  0  0  0
   35.3780   29.0080   38.8040 C   0  0  0  0  0  0  0  0  0  0  0  0
   35.0610   28.3180   38.0510 H   0  0  0  0  0  0  0  0  0  0  0  0
   34.9720   29.1830   40.1260 C   0  0  0  0  0  0  0  0  0  0  0  0
   34.1890   28.5110   40.4890 H   0  0  0  0  0  0  0  0  0  0  0  0
   35.6370   30.1610   40.7000 O   0  0  0  0  0  0  0  0  0  0  0  0
   38.8380   30.1900   41.3290 C   0  0  0  0  0  0  0  0  0  0  0  0
   38.6410   29.9720   42.5570 O   0  0  0  0  0  0  0  0  0  0  0  0
   39.2290   29.2840   40.9020 H   0  0  0  0  0  0  0  0  0  0  0  0
  1  7  1  0  0  0  0
  2  1  1  0  0  0  0
  2 17  1  0  0  0  0
  3  2  2  0  0  0  0
  4  5  2  0  0  0  0
  4  3  1  0  0  0  0
  5  6  1  0  0  0  0
  6  1  2  0  0  0  0
  8  5  1  0  0  0  0
  9  3  1  0  0  0  0
  9 16  1  0  0  0  0
 10 12  1  0  0  0  0
 10  9  2  0  0  0  0
 11 10  1  0  0  0  0
 12 14  2  0  0  0  0
 13 12  1  0  0  0  0
 14 15  1  0  0  0  0
 14 16  1  0  0  0  0
 17 18  2  0  0  0  0
 19 17  1  0  0  0  0
M  END
>  <minimizedAffinity>
-3.66260743

$$$$

 OpenBabel03252503073D

 19 20  0  0  0  0  0  0  0  0999 V2000
   37.8220   29.2020   42.8620 C   0  0  0  0  0  0  0  0  0  0  0  0
   38.0920   27.8340   42.6580 C   0  0  0  0  0  0  0  0  0  0  0  0
   37.4840   27.1820   41.5960 C   0  0  0  0  0  0  0  0  0  0  0  0
   36.6570   27.8920   40.8010 N   0  0  0  0  0  0  0  0  0  0  0  0
   36.4060   29.2050   41.0070 C   0  0  0  0  0  0  0  0  0  0  0  0
   36.9850   29.8480   42.0260 N   0  0  0  0  0  0  0  0  0  0  0  0
   38.3080   29.6890   43.6960 H   0  0  0  0  0  0  0  0  0  0  0  0
   35.7240   29.7360   40.3280 H   0  0  0  0  0  0  0  0  0  0  0  0
   37.7550   25.7640   41.3760 C   0  0  0  0  0  0  0  0  0  0  0  0
   36.9790   24.7110   41.8000 C   0  0  0  0  0  0  0  0  0  0  0  0
   36.0530   24.7680   42.3580 H   0  0  0  0  0  0  0  0  0  0  0  0
   37.6390   23.5780   41.3580 C   0  0  0  0  0  0  0  0  0  0  0  0
   37.2810   22.5850   41.5320 H   0  0  0  0  0  0  0  0  0  0  0  0
   38.7730   24.0480   40.6960 C   0  0  0  0  0  0  0  0  0  0  0  0
   39.4360   23.2900   40.2680 H   0  0  0  0  0  0  0  0  0  0  0  0
   38.8240   25.3610   40.7180 O   0  0  0  0  0  0  0  0  0  0  0  0
   38.9880   27.1480   43.5550 C   0  0  0  0  0  0  0  0  0  0  0  0
   40.2040   27.4910   43.5340 O   0  0  0  0  0  0  0  0  0  0  0  0
   38.8880   26.3680   44.2880 H   0  0  0  0  0  0  0  0  0  0  0  0
  1  7  1  0  0  0  0
  2  1  1  0  0  0  0
  2 17  1  0  0  0  0
  3  2  2  0  0  0  0
  4  5  2  0  0  0  0
  4  3  1  0  0  0  0
  5  6  1  0  0  0  0
  6  1  2  0  0  0  0
  8  5  1  0  0  0  0
  9  3  1  0  0  0  0
  9 10  2  0  0  0  0
 10 11  1  0  0  0  0
 12 13  1  0  0  0  0
 12 10  1  0  0  0  0
 14 16  1  0  0  0  0
 14 12  2  0  0  0  0
 15 14  1  0  0  0  0
 16  9  1  0  0  0  0
 17 19  1  0  0  0  0
 18 17  2  0  0  0  0
M  END
>  <minimizedAffinity>
-3.64505363

$$$$

 OpenBabel03252503073D

 19 20  0  0  0  0  0  0  0  0999 V2000
   37.2550   25.2200   42.1820 C   0  0  0  0  0  0  0  0  0  0  0  0
   37.2030   26.6270   42.1160 C   0  0  0  0  0  0  0  0  0  0  0  0
   36.8890   27.2300   40.9090 C   0  0  0  0  0  0  0  0  0  0  0  0
   36.6450   26.4370   39.8440 N   0  0  0  0  0  0  0  0  0  0  0  0
   36.6970   25.0870   39.9200 C   0  0  0  0  0  0  0  0  0  0  0  0
   36.9980   24.4910   41.0780 N   0  0  0  0  0  0  0  0  0  0  0  0
   37.5020   24.7720   43.1350 H   0  0  0  0  0  0  0  0  0  0  0  0
   36.4890   24.4890   39.0220 H   0  0  0  0  0  0  0  0  0  0  0  0
   36.8330   28.6870   40.8290 C   0  0  0  0  0  0  0  0  0  0  0  0
   35.6950   29.4570   40.7800 C   0  0  0  0  0  0  0  0  0  0  0  0
   34.6710   29.1070   40.7930 H   0  0  0  0  0  0  0  0  0  0  0  0
   36.1490   30.7620   40.7100 C   0  0  0  0  0  0  0  0  0  0  0  0
   35.4950   31.6080   40.6610 H   0  0  0  0  0  0  0  0  0  0  0  0
   37.5400   30.6700   40.7230 C   0  0  0  0  0  0  0  0  0  0  0  0
   38.0920   31.6140   40.6740 H   0  0  0  0  0  0  0  0  0  0  0  0
   37.9300   29.4180   40.7940 O   0  0  0  0  0  0  0  0  0  0  0  0
   37.4780   27.4000   43.3010 C   0  0  0  0  0  0  0  0  0  0  0  0
   38.6850   27.4980   43.6630 O   0  0  0  0  0  0  0  0  0  0  0  0
   36.8870   27.9550   44.0070 H   0  0  0  0  0  0  0  0  0  0  0  0
  1  7  1  0  0  0  0
  2  1  1  0  0  0  0
  2 17  1  0  0  0  0
  3  2  2  0  0  0  0
  4  5  2  0  0  0  0
  4  3  1  0  0  0  0
  5  6  1  0  0  0  0
  6  1  2  0  0  0  0
  8  5  1  0  0  0  0
  9  3  1  0  0  0  0
 10 11  1  0  0  0  0
 10  9  2  0  0  0  0
 12 14  2  0  0  0  0
 12 10  1  0  0  0  0
 13 12  1  0  0  0  0
 14 16  1  0  0  0  0
 15 14  1  0  0  0  0
 16  9  1  0  0  0  0
 17 18  2  0  0  0  0
 17 19  1  0  0  0  0
M  END
>  <minimizedAffinity>
-3.63091612

$$$$

 OpenBabel03252503073D

 19 20  0  0  0  0  0  0  0  0999 V2000
   39.2010   31.3000   39.2750 C   0  0  0  0  0  0  0  0  0  0  0  0
   38.8780   30.2670   40.1770 C   0  0  0  0  0  0  0  0  0  0  0  0
   37.7260   30.3770   40.9390 C   0  0  0  0  0  0  0  0  0  0  0  0
   36.9600   31.4770   40.7800 N   0  0  0  0  0  0  0  0  0  0  0  0
   37.2800   32.4630   39.9100 C   0  0  0  0  0  0  0  0  0  0  0  0
   38.3880   32.3690   39.1680 N   0  0  0  0  0  0  0  0  0  0  0  0
   40.1050   31.1910   38.6910 H   0  0  0  0  0  0  0  0  0  0  0  0
   36.6200   33.3370   39.8200 H   0  0  0  0  0  0  0  0  0  0  0  0
   37.3820   29.3130   41.8780 C   0  0  0  0  0  0  0  0  0  0  0  0
   36.5480   28.2480   41.6320 C   0  0  0  0  0  0  0  0  0  0  0  0
   36.0190   28.0340   40.7120 H   0  0  0  0  0  0  0  0  0  0  0  0
   36.5350   27.5230   42.8100 C   0  0  0  0  0  0  0  0  0  0  0  0
   35.9710   26.6240   42.9390 H   0  0  0  0  0  0  0  0  0  0  0  0
   37.3750   28.2190   43.6800 C   0  0  0  0  0  0  0  0  0  0  0  0
   37.4980   27.7960   44.6810 H   0  0  0  0  0  0  0  0  0  0  0  0
   37.8720   29.2890   43.1020 O   0  0  0  0  0  0  0  0  0  0  0  0
   39.7520   29.1250   40.2860 C   0  0  0  0  0  0  0  0  0  0  0  0
   39.6580   28.2350   39.3960 O   0  0  0  0  0  0  0  0  0  0  0  0
   40.5160   28.8100   40.9740 H   0  0  0  0  0  0  0  0  0  0  0  0
  1  2  1  0  0  0  0
  2 17  1  0  0  0  0
  2  3  2  0  0  0  0
  3  9  1  0  0  0  0
  4  3  1  0  0  0  0
  5  4  2  0  0  0  0
  6  1  2  0  0  0  0
  6  5  1  0  0  0  0
  7  1  1  0  0  0  0
  8  5  1  0  0  0  0
  9 16  1  0  0  0  0
 10  9  2  0  0  0  0
 10 12  1  0  0  0  0
 11 10  1  0  0  0  0
 12 13  1  0  0  0  0
 12 14  2  0  0  0  0
 14 15  1  0  0  0  0
 16 14  1  0  0  0  0
 17 19  1  0  0  0  0
 18 17  2  0  0  0  0
M  END
>  <minimizedAffinity>
-3.60403967

$$$$

 OpenBabel03252503073D

 19 20  0  0  0  0  0  0  0  0999 V2000
   38.4030   28.7010   43.3360 C   0  0  0  0  0  0  0  0  0  0  0  0
   38.5300   29.7340   42.3860 C   0  0  0  0  0  0  0  0  0  0  0  0
   37.6160   29.8050   41.3460 C   0  0  0  0  0  0  0  0  0  0  0  0
   36.6390   28.8750   41.2920 N   0  0  0  0  0  0  0  0  0  0  0  0
   36.5270   27.8880   42.2110 C   0  0  0  0  0  0  0  0  0  0  0  0
   37.4010   27.8080   43.2190 N   0  0  0  0  0  0  0  0  0  0  0  0
   39.1280   28.6670   44.1390 H   0  0  0  0  0  0  0  0  0  0  0  0
   35.7120   27.1570   42.1190 H   0  0  0  0  0  0  0  0  0  0  0  0
   37.7390   30.8700   40.3550 C   0  0  0  0  0  0  0  0  0  0  0  0
   37.0430   32.0570   40.3450 C   0  0  0  0  0  0  0  0  0  0  0  0
   36.3030   32.3840   41.0630 H   0  0  0  0  0  0  0  0  0  0  0  0
   37.4970   32.7280   39.2230 C   0  0  0  0  0  0  0  0  0  0  0  0
   37.1430   33.6950   38.9360 H   0  0  0  0  0  0  0  0  0  0  0  0
   38.4410   31.8800   38.6440 C   0  0  0  0  0  0  0  0  0  0  0  0
   38.9230   32.2400   37.7290 H   0  0  0  0  0  0  0  0  0  0  0  0
   38.5710   30.7720   39.3370 O   0  0  0  0  0  0  0  0  0  0  0  0
   39.6040   30.6870   42.5170 C   0  0  0  0  0  0  0  0  0  0  0  0
   40.7640   30.3020   42.1960 O   0  0  0  0  0  0  0  0  0  0  0  0
   39.6840   31.7100   42.8380 H   0  0  0  0  0  0  0  0  0  0  0  0
  1  7  1  0  0  0  0
  2 17  1  0  0  0  0
  2  1  2  0  0  0  0
  3  2  1  0  0  0  0
  4  3  2  0  0  0  0
  4  5  1  0  0  0  0
  5  6  2  0  0  0  0
  6  1  1  0  0  0  0
  8  5  1  0  0  0  0
  9  3  1  0  0  0  0
 10  9  2  0  0  0  0
 10 11  1  0  0  0  0
 12 10  1  0  0  0  0
 13 12  1  0  0  0  0
 14 12  2  0  0  0  0
 14 16  1  0  0  0  0
 15 14  1  0  0  0  0
 16  9  1  0  0  0  0
 17 19  1  0  0  0  0
 18 17  2  0  0  0  0
M  END
>  <minimizedAffinity>
-3.53797507

$$$$

 OpenBabel03252503073D

 19 20  0  0  0  0  0  0  0  0999 V2000
   36.8620   30.6110   38.2200 C   0  0  0  0  0  0  0  0  0  0  0  0
   36.9460   30.2740   39.5860 C   0  0  0  0  0  0  0  0  0  0  0  0
   37.3450   28.9950   39.9380 C   0  0  0  0  0  0  0  0  0  0  0  0
   37.6360   28.1230   38.9490 N   0  0  0  0  0  0  0  0  0  0  0  0
   37.5520   28.4580   37.6410 C   0  0  0  0  0  0  0  0  0  0  0  0
   37.1690   29.6890   37.2870 N   0  0  0  0  0  0  0  0  0  0  0  0
   36.5480   31.6160   37.9700 H   0  0  0  0  0  0  0  0  0  0  0  0
   37.8010   27.7090   36.8760 H   0  0  0  0  0  0  0  0  0  0  0  0
   37.4360   28.6350   41.3500 C   0  0  0  0  0  0  0  0  0  0  0  0
   36.4890   27.9530   42.0790 C   0  0  0  0  0  0  0  0  0  0  0  0
   35.5380   27.5800   41.7230 H   0  0  0  0  0  0  0  0  0  0  0  0
   37.0210   27.8550   43.3520 C   0  0  0  0  0  0  0  0  0  0  0  0
   36.5170   27.3700   44.1620 H   0  0  0  0  0  0  0  0  0  0  0  0
   38.2590   28.4920   43.2850 C   0  0  0  0  0  0  0  0  0  0  0  0
   38.8440   28.5200   44.2100 H   0  0  0  0  0  0  0  0  0  0  0  0
   38.4890   28.9540   42.0770 O   0  0  0  0  0  0  0  0  0  0  0  0
   36.6160   31.2660   40.5800 C   0  0  0  0  0  0  0  0  0  0  0  0
   37.2760   32.3420   40.5670 O   0  0  0  0  0  0  0  0  0  0  0  0
   35.9070   31.3350   41.3850 H   0  0  0  0  0  0  0  0  0  0  0  0
  1  2  1  0  0  0  0
  2  3  2  0  0  0  0
  2 17  1  0  0  0  0
  3  9  1  0  0  0  0
  4  3  1  0  0  0  0
  5  4  2  0  0  0  0
  6  5  1  0  0  0  0
  6  1  2  0  0  0  0
  7  1  1  0  0  0  0
  8  5  1  0  0  0  0
  9 16  1  0  0  0  0
  9 10  2  0  0  0  0
 10 12  1  0  0  0  0
 11 10  1  0  0  0  0
 12 13  1  0  0  0  0
 14 12  2  0  0  0  0
 14 15  1  0  0  0  0
 16 14  1  0  0  0  0
 17 19  1  0  0  0  0
 18 17  2  0  0  0  0
M  END
>  <minimizedAffinity>
-3.50766826

$$$$
