
 OpenBabel03252507263D

 26 28  0  0  0  0  0  0  0  0999 V2000
   45.9600   33.6870   45.5990 C   0  0  0  0  0  0  0  0  0  0  0  0
   44.9300   34.5970   45.8910 C   0  0  0  0  0  0  0  0  0  0  0  0
   44.5710   35.5110   44.9000 C   0  0  0  0  0  0  0  0  0  0  0  0
   45.2330   35.4810   43.6960 N   0  0  0  0  0  0  0  0  0  0  0  0
   46.2190   34.5820   43.4670 C   0  0  0  0  0  0  0  0  0  0  0  0
   46.5860   33.6900   44.4020 N   0  0  0  0  0  0  0  0  0  0  0  0
   44.4530   34.5580   46.8680 H   0  0  0  0  0  0  0  0  0  0  0  0
   43.7810   36.2230   45.0990 H   0  0  0  0  0  0  0  0  0  0  0  0
   46.8870   34.5910   42.1790 C   0  0  0  0  0  0  0  0  0  0  0  0
   48.0410   35.3430   41.9970 C   0  0  0  0  0  0  0  0  0  0  0  0
   48.7580   35.4280   40.8200 C   0  0  0  0  0  0  0  0  0  0  0  0
   48.2270   34.6760   39.7780 C   0  0  0  0  0  0  0  0  0  0  0  0
   47.0760   33.9190   39.9420 C   0  0  0  0  0  0  0  0  0  0  0  0
   46.4230   33.8870   41.1380 N   0  0  0  0  0  0  0  0  0  0  0  0
   48.3880   35.9000   42.8570 H   0  0  0  0  0  0  0  0  0  0  0  0
   49.6490   36.0350   40.7530 H   0  0  0  0  0  0  0  0  0  0  0  0
   48.7400   34.6960   38.8270 H   0  0  0  0  0  0  0  0  0  0  0  0
   46.7330   33.3630   39.0770 H   0  0  0  0  0  0  0  0  0  0  0  0
   46.3690   32.7110   46.6050 C   0  0  0  0  0  0  0  0  0  0  0  0
   45.7930   31.4640   46.7940 C   0  0  0  0  0  0  0  0  0  0  0  0
   44.9680   31.0080   46.2530 H   0  0  0  0  0  0  0  0  0  0  0  0
   46.4480   30.8320   47.8340 C   0  0  0  0  0  0  0  0  0  0  0  0
   46.3090   29.8660   48.2880 H   0  0  0  0  0  0  0  0  0  0  0  0
   47.4000   31.7190   48.2400 C   0  0  0  0  0  0  0  0  0  0  0  0
   48.1540   31.7050   48.9980 H   0  0  0  0  0  0  0  0  0  0  0  0
   47.3320   32.7930   47.5130 O   0  0  0  0  0  0  0  0  0  0  0  0
  1  2  1  0  0  0  0
  1 19  1  0  0  0  0
  2  7  1  0  0  0  0
  3  8  1  0  0  0  0
  3  2  2  0  0  0  0
  4  3  1  0  0  0  0
  5  4  2  0  0  0  0
  5  6  1  0  0  0  0
  6  1  2  0  0  0  0
  9  5  1  0  0  0  0
 10  9  1  0  0  0  0
 10 15  1  0  0  0  0
 11 10  2  0  0  0  0
 12 13  2  0  0  0  0
 12 11  1  0  0  0  0
 13 14  1  0  0  0  0
 14  9  2  0  0  0  0
 16 11  1  0  0  0  0
 17 12  1  0  0  0  0
 18 13  1  0  0  0  0
 19 20  2  0  0  0  0
 19 26  1  0  0  0  0
 20 22  1  0  0  0  0
 21 20  1  0  0  0  0
 22 24  2  0  0  0  0
 22 23  1  0  0  0  0
 24 25  1  0  0  0  0
 26 24  1  0  0  0  0
M  END
>  <minimizedAffinity>
-5.63442993

>  <minimizedRMSD>
0.468333483

$$$$
