
 OpenBabel03242512233D

 40 43  0  0  0  0  0  0  0  0999 V2000
   36.5110   28.1250   41.3860 C   0  0  0  0  0  0  0  0  0  0  0  0
   37.1770   27.1150   42.0300 C   0  0  0  0  0  0  0  0  0  0  0  0
   37.3820   25.9320   41.3820 C   0  0  0  0  0  0  0  0  0  0  0  0
   36.9110   25.7720   40.0780 C   0  0  0  0  0  0  0  0  0  0  0  0
   36.2470   26.8060   39.4610 C   0  0  0  0  0  0  0  0  0  0  0  0
   36.0330   28.0170   40.1160 C   0  0  0  0  0  0  0  0  0  0  0  0
   37.9180   25.1810   41.9600 H   0  0  0  0  0  0  0  0  0  0  0  0
   37.0970   24.8260   39.6110 H   0  0  0  0  0  0  0  0  0  0  0  0
   35.9050   26.6350   38.4600 H   0  0  0  0  0  0  0  0  0  0  0  0
   37.6370   27.3740   43.4040 C   0  0  0  0  0  0  0  0  0  0  0  0
   37.4070   26.5730   44.0930 H   0  0  0  0  0  0  0  0  0  0  0  0
   37.2170   28.3030   43.8200 H   0  0  0  0  0  0  0  0  0  0  0  0
   39.1500   27.4870   43.4370 C   0  0  0  0  0  0  0  0  0  0  0  0
   39.8660   26.4670   44.0680 C   0  0  0  0  0  0  0  0  0  0  0  0
   41.2370   26.5950   44.0820 C   0  0  0  0  0  0  0  0  0  0  0  0
   41.8050   27.6670   43.5030 N   0  0  0  0  0  0  0  0  0  0  0  0
   41.0760   28.6450   42.8950 C   0  0  0  0  0  0  0  0  0  0  0  0
   39.7550   28.5400   42.8710 N   0  0  0  0  0  0  0  0  0  0  0  0
   39.4090   25.6190   44.5260 H   0  0  0  0  0  0  0  0  0  0  0  0
   41.8500   25.8210   44.5650 H   0  0  0  0  0  0  0  0  0  0  0  0
   41.6680   29.4420   42.4750 H   0  0  0  0  0  0  0  0  0  0  0  0
   36.2550   29.3750   41.9750 O   0  0  0  0  0  0  0  0  0  0  0  0
   36.9860   29.9190   42.4210 H   0  0  0  0  0  0  0  0  0  0  0  0
   35.3470   29.0030   39.3970 O   0  0  0  0  0  0  0  0  0  0  0  0
   36.1750   29.9120   38.7390 C   0  0  0  0  0  0  0  0  0  0  0  0
   36.3680   29.7350   37.3810 C   0  0  0  0  0  0  0  0  0  0  0  0
   37.1760   30.5880   36.6330 C   0  0  0  0  0  0  0  0  0  0  0  0
   37.7850   31.6130   37.2540 N   0  0  0  0  0  0  0  0  0  0  0  0
   37.5920   31.7820   38.5830 C   0  0  0  0  0  0  0  0  0  0  0  0
   36.8100   30.9520   39.2930 N   0  0  0  0  0  0  0  0  0  0  0  0
   35.8880   28.9240   36.8830 H   0  0  0  0  0  0  0  0  0  0  0  0
   37.2950   30.4110   35.5900 H   0  0  0  0  0  0  0  0  0  0  0  0
   38.2650   32.9030   39.2310 C   0  0  0  0  0  0  0  0  0  0  0  0
   37.7430   34.0190   39.8740 C   0  0  0  0  0  0  0  0  0  0  0  0
   36.6920   34.1820   39.9660 H   0  0  0  0  0  0  0  0  0  0  0  0
   38.8150   34.7970   40.3240 C   0  0  0  0  0  0  0  0  0  0  0  0
   38.7130   35.7430   40.8690 H   0  0  0  0  0  0  0  0  0  0  0  0
   39.9440   34.0830   39.9140 C   0  0  0  0  0  0  0  0  0  0  0  0
   40.9130   34.5010   40.1570 H   0  0  0  0  0  0  0  0  0  0  0  0
   39.5650   33.0000   39.2880 O   0  0  0  0  0  0  0  0  0  0  0  0
  1 22  1  0  0  0  0
  1  2  1  0  0  0  0
  2 10  1  0  0  0  0
  3  7  1  0  0  0  0
  3  2  2  0  0  0  0
  4  3  1  0  0  0  0
  5  4  2  0  0  0  0
  5  6  1  0  0  0  0
  6  1  2  0  0  0  0
  8  4  1  0  0  0  0
  9  5  1  0  0  0  0
 10 13  1  0  0  0  0
 10 12  1  0  0  0  0
 10 11  1  0  0  0  0
 13 14  1  0  0  0  0
 14 15  2  0  0  0  0
 14 19  1  0  0  0  0
 15 20  1  0  0  0  0
 16 15  1  0  0  0  0
 17 16  2  0  0  0  0
 18 17  1  0  0  0  0
 18 13  2  0  0  0  0
 21 17  1  0  0  0  0
 22 23  1  0  0  0  0
 24  6  1  0  0  0  0
 25 30  1  0  0  0  0
 25 24  1  0  0  0  0
 26 25  2  0  0  0  0
 27 28  2  0  0  0  0
 27 26  1  0  0  0  0
 28 29  1  0  0  0  0
 29 33  1  0  0  0  0
 29 30  2  0  0  0  0
 31 26  1  0  0  0  0
 32 27  1  0  0  0  0
 33 40  1  0  0  0  0
 33 34  2  0  0  0  0
 34 35  1  0  0  0  0
 34 36  1  0  0  0  0
 36 37  1  0  0  0  0
 38 39  1  0  0  0  0
 38 36  2  0  0  0  0
 40 38  1  0  0  0  0
M  END
>  <minimizedAffinity>
-6.4913497

$$$$

 OpenBabel03242512233D

 40 43  0  0  0  0  0  0  0  0999 V2000
   36.3410   30.9430   40.1460 C   0  0  0  0  0  0  0  0  0  0  0  0
   36.1270   29.6620   39.7100 C   0  0  0  0  0  0  0  0  0  0  0  0
   36.5160   29.3130   38.4500 C   0  0  0  0  0  0  0  0  0  0  0  0
   37.1240   30.2640   37.6290 C   0  0  0  0  0  0  0  0  0  0  0  0
   37.3240   31.5410   38.0990 C   0  0  0  0  0  0  0  0  0  0  0  0
   36.9300   31.9050   39.3840 C   0  0  0  0  0  0  0  0  0  0  0  0
   36.3110   28.2790   38.1790 H   0  0  0  0  0  0  0  0  0  0  0  0
   37.4120   29.9420   36.6500 H   0  0  0  0  0  0  0  0  0  0  0  0
   37.7950   32.2350   37.4320 H   0  0  0  0  0  0  0  0  0  0  0  0
   35.4790   28.7270   40.6450 C   0  0  0  0  0  0  0  0  0  0  0  0
   34.9600   27.9160   40.1510 H   0  0  0  0  0  0  0  0  0  0  0  0
   34.7590   29.2290   41.3100 H   0  0  0  0  0  0  0  0  0  0  0  0
   36.5220   28.0450   41.5110 C   0  0  0  0  0  0  0  0  0  0  0  0
   36.9620   26.7760   41.1250 C   0  0  0  0  0  0  0  0  0  0  0  0
   37.9090   26.1840   41.9290 C   0  0  0  0  0  0  0  0  0  0  0  0
   38.3530   26.8360   43.0170 N   0  0  0  0  0  0  0  0  0  0  0  0
   37.9030   28.0740   43.3650 C   0  0  0  0  0  0  0  0  0  0  0  0
   36.9910   28.6630   42.6040 N   0  0  0  0  0  0  0  0  0  0  0  0
   36.6050   26.2640   40.2610 H   0  0  0  0  0  0  0  0  0  0  0  0
   38.2910   25.1850   41.6730 H   0  0  0  0  0  0  0  0  0  0  0  0
   38.3500   28.4720   44.2620 H   0  0  0  0  0  0  0  0  0  0  0  0
   35.9750   31.3910   41.4270 O   0  0  0  0  0  0  0  0  0  0  0  0
   36.2340   30.8860   42.2680 H   0  0  0  0  0  0  0  0  0  0  0  0
   37.1810   33.2300   39.7620 O   0  0  0  0  0  0  0  0  0  0  0  0
   38.5310   33.5810   39.7560 C   0  0  0  0  0  0  0  0  0  0  0  0
   38.9140   34.6680   40.5210 C   0  0  0  0  0  0  0  0  0  0  0  0
   40.2360   35.0990   40.5820 C   0  0  0  0  0  0  0  0  0  0  0  0
   41.1670   34.4350   39.8750 N   0  0  0  0  0  0  0  0  0  0  0  0
   40.7880   33.3710   39.1280 C   0  0  0  0  0  0  0  0  0  0  0  0
   39.5070   32.9670   39.0780 N   0  0  0  0  0  0  0  0  0  0  0  0
   38.1810   35.1980   41.0840 H   0  0  0  0  0  0  0  0  0  0  0  0
   40.4830   35.9410   41.1850 H   0  0  0  0  0  0  0  0  0  0  0  0
   41.8180   32.6690   38.3700 C   0  0  0  0  0  0  0  0  0  0  0  0
   41.7450   31.9930   37.1580 C   0  0  0  0  0  0  0  0  0  0  0  0
   40.8350   31.9130   36.6070 H   0  0  0  0  0  0  0  0  0  0  0  0
   43.0180   31.4940   36.8660 C   0  0  0  0  0  0  0  0  0  0  0  0
   43.2700   30.9140   35.9700 H   0  0  0  0  0  0  0  0  0  0  0  0
   43.7990   31.9100   37.9470 C   0  0  0  0  0  0  0  0  0  0  0  0
   44.8460   31.6340   37.9420 H   0  0  0  0  0  0  0  0  0  0  0  0
   43.0530   32.5840   38.7840 O   0  0  0  0  0  0  0  0  0  0  0  0
  1 22  1  0  0  0  0
  2  1  1  0  0  0  0
  2 10  1  0  0  0  0
  3  2  2  0  0  0  0
  4  5  2  0  0  0  0
  4  3  1  0  0  0  0
  5  6  1  0  0  0  0
  6 24  1  0  0  0  0
  6  1  2  0  0  0  0
  7  3  1  0  0  0  0
  8  4  1  0  0  0  0
  9  5  1  0  0  0  0
 10 12  1  0  0  0  0
 10 13  1  0  0  0  0
 11 10  1  0  0  0  0
 13 18  1  0  0  0  0
 14 13  2  0  0  0  0
 14 15  1  0  0  0  0
 15 16  2  0  0  0  0
 16 17  1  0  0  0  0
 17 21  1  0  0  0  0
 18 17  2  0  0  0  0
 19 14  1  0  0  0  0
 20 15  1  0  0  0  0
 22 23  1  0  0  0  0
 25 24  1  0  0  0  0
 25 26  1  0  0  0  0
 26 27  2  0  0  0  0
 26 31  1  0  0  0  0
 27 32  1  0  0  0  0
 28 27  1  0  0  0  0
 29 28  2  0  0  0  0
 30 29  1  0  0  0  0
 30 25  2  0  0  0  0
 33 40  1  0  0  0  0
 33 29  1  0  0  0  0
 34 33  2  0  0  0  0
 35 34  1  0  0  0  0
 36 34  1  0  0  0  0
 36 38  2  0  0  0  0
 37 36  1  0  0  0  0
 38 40  1  0  0  0  0
 39 38  1  0  0  0  0
M  END
>  <minimizedAffinity>
-6.47490501

$$$$

 OpenBabel03242512233D

 40 43  0  0  0  0  0  0  0  0999 V2000
   36.4850   31.1980   39.7300 C   0  0  0  0  0  0  0  0  0  0  0  0
   37.2420   32.1890   39.1630 C   0  0  0  0  0  0  0  0  0  0  0  0
   37.7200   32.0220   37.8970 C   0  0  0  0  0  0  0  0  0  0  0  0
   37.4290   30.8470   37.2020 C   0  0  0  0  0  0  0  0  0  0  0  0
   36.6660   29.8720   37.8000 C   0  0  0  0  0  0  0  0  0  0  0  0
   36.1750   30.0350   39.0940 C   0  0  0  0  0  0  0  0  0  0  0  0
   38.3120   32.8530   37.5180 H   0  0  0  0  0  0  0  0  0  0  0  0
   37.8250   30.7620   36.2110 H   0  0  0  0  0  0  0  0  0  0  0  0
   36.4700   28.9880   37.2260 H   0  0  0  0  0  0  0  0  0  0  0  0
   37.4970   33.3930   39.9720 C   0  0  0  0  0  0  0  0  0  0  0  0
   37.0370   33.3600   40.9510 H   0  0  0  0  0  0  0  0  0  0  0  0
   37.1590   34.3140   39.4740 H   0  0  0  0  0  0  0  0  0  0  0  0
   38.9830   33.5290   40.2510 C   0  0  0  0  0  0  0  0  0  0  0  0
   39.5700   34.7820   40.0580 C   0  0  0  0  0  0  0  0  0  0  0  0
   40.9180   34.8760   40.3200 C   0  0  0  0  0  0  0  0  0  0  0  0
   41.5870   33.7870   40.7390 N   0  0  0  0  0  0  0  0  0  0  0  0
   40.9830   32.5790   40.9170 C   0  0  0  0  0  0  0  0  0  0  0  0
   39.6850   32.4670   40.6700 N   0  0  0  0  0  0  0  0  0  0  0  0
   39.0350   35.6410   39.7260 H   0  0  0  0  0  0  0  0  0  0  0  0
   41.4320   35.8380   40.1860 H   0  0  0  0  0  0  0  0  0  0  0  0
   41.6450   31.7980   41.2570 H   0  0  0  0  0  0  0  0  0  0  0  0
   35.9520   31.2830   41.0290 O   0  0  0  0  0  0  0  0  0  0  0  0
   35.4240   32.0910   41.3400 H   0  0  0  0  0  0  0  0  0  0  0  0
   35.4090   28.9820   39.6080 O   0  0  0  0  0  0  0  0  0  0  0  0
   36.1400   27.8270   39.8880 C   0  0  0  0  0  0  0  0  0  0  0  0
   35.9560   26.7360   39.0570 C   0  0  0  0  0  0  0  0  0  0  0  0
   36.6380   25.5370   39.2510 C   0  0  0  0  0  0  0  0  0  0  0  0
   37.5000   25.4410   40.2780 N   0  0  0  0  0  0  0  0  0  0  0  0
   37.6770   26.5120   41.0880 C   0  0  0  0  0  0  0  0  0  0  0  0
   37.0120   27.6630   40.8890 N   0  0  0  0  0  0  0  0  0  0  0  0
   35.2740   26.8060   38.2420 H   0  0  0  0  0  0  0  0  0  0  0  0
   36.4620   24.7250   38.5860 H   0  0  0  0  0  0  0  0  0  0  0  0
   38.6190   26.3800   42.1940 C   0  0  0  0  0  0  0  0  0  0  0  0
   38.7660   27.1380   43.3490 C   0  0  0  0  0  0  0  0  0  0  0  0
   38.1410   27.9770   43.5620 H   0  0  0  0  0  0  0  0  0  0  0  0
   39.8220   26.5950   44.0890 C   0  0  0  0  0  0  0  0  0  0  0  0
   40.1730   26.9840   45.0520 H   0  0  0  0  0  0  0  0  0  0  0  0
   40.2560   25.5170   43.3130 C   0  0  0  0  0  0  0  0  0  0  0  0
   41.0850   24.9320   43.6930 H   0  0  0  0  0  0  0  0  0  0  0  0
   39.5260   25.4420   42.2310 O   0  0  0  0  0  0  0  0  0  0  0  0
  1 22  1  0  0  0  0
  2  1  1  0  0  0  0
  2 10  1  0  0  0  0
  3  2  2  0  0  0  0
  4  5  2  0  0  0  0
  4  3  1  0  0  0  0
  5  6  1  0  0  0  0
  6 24  1  0  0  0  0
  6  1  2  0  0  0  0
  7  3  1  0  0  0  0
  8  4  1  0  0  0  0
  9  5  1  0  0  0  0
 10 13  1  0  0  0  0
 10 11  1  0  0  0  0
 12 10  1  0  0  0  0
 13 18  1  0  0  0  0
 14 13  2  0  0  0  0
 14 15  1  0  0  0  0
 15 16  2  0  0  0  0
 16 17  1  0  0  0  0
 17 21  1  0  0  0  0
 18 17  2  0  0  0  0
 19 14  1  0  0  0  0
 20 15  1  0  0  0  0
 22 23  1  0  0  0  0
 24 25  1  0  0  0  0
 25 30  1  0  0  0  0
 26 27  1  0  0  0  0
 26 25  2  0  0  0  0
 27 28  2  0  0  0  0
 28 29  1  0  0  0  0
 29 33  1  0  0  0  0
 30 29  2  0  0  0  0
 31 26  1  0  0  0  0
 32 27  1  0  0  0  0
 33 40  1  0  0  0  0
 33 34  2  0  0  0  0
 34 35  1  0  0  0  0
 34 36  1  0  0  0  0
 36 37  1  0  0  0  0
 38 39  1  0  0  0  0
 38 36  2  0  0  0  0
 40 38  1  0  0  0  0
M  END
>  <minimizedAffinity>
-6.46858263

$$$$

 OpenBabel03242512233D

 40 43  0  0  0  0  0  0  0  0999 V2000
   36.4460   31.0690   39.8850 C   0  0  0  0  0  0  0  0  0  0  0  0
   37.1820   31.9840   39.1800 C   0  0  0  0  0  0  0  0  0  0  0  0
   37.6790   31.6400   37.9570 C   0  0  0  0  0  0  0  0  0  0  0  0
   37.4290   30.3660   37.4470 C   0  0  0  0  0  0  0  0  0  0  0  0
   36.6860   29.4710   38.1810 C   0  0  0  0  0  0  0  0  0  0  0  0
   36.1750   29.8140   39.4300 C   0  0  0  0  0  0  0  0  0  0  0  0
   38.2530   32.4220   37.4610 H   0  0  0  0  0  0  0  0  0  0  0  0
   37.8400   30.1430   36.4830 H   0  0  0  0  0  0  0  0  0  0  0  0
   36.5210   28.5050   37.7470 H   0  0  0  0  0  0  0  0  0  0  0  0
   37.3940   33.3040   39.7980 C   0  0  0  0  0  0  0  0  0  0  0  0
   36.8760   33.4260   40.7400 H   0  0  0  0  0  0  0  0  0  0  0  0
   37.0900   34.1310   39.1380 H   0  0  0  0  0  0  0  0  0  0  0  0
   38.8610   33.4910   40.1390 C   0  0  0  0  0  0  0  0  0  0  0  0
   39.4040   34.7710   40.0040 C   0  0  0  0  0  0  0  0  0  0  0  0
   40.7360   34.9110   40.3220 C   0  0  0  0  0  0  0  0  0  0  0  0
   41.4310   33.8380   40.7360 N   0  0  0  0  0  0  0  0  0  0  0  0
   40.8710   32.6010   40.8570 C   0  0  0  0  0  0  0  0  0  0  0  0
   39.5890   32.4460   40.5550 N   0  0  0  0  0  0  0  0  0  0  0  0
   38.8470   35.6180   39.6750 H   0  0  0  0  0  0  0  0  0  0  0  0
   41.2150   35.8960   40.2350 H   0  0  0  0  0  0  0  0  0  0  0  0
   41.5510   31.8380   41.2000 H   0  0  0  0  0  0  0  0  0  0  0  0
   35.8950   31.3350   41.1510 O   0  0  0  0  0  0  0  0  0  0  0  0
   35.3410   32.1650   41.3320 H   0  0  0  0  0  0  0  0  0  0  0  0
   35.4330   28.8300   40.0930 O   0  0  0  0  0  0  0  0  0  0  0  0
   36.2080   27.8830   40.7630 C   0  0  0  0  0  0  0  0  0  0  0  0
   36.6020   28.1770   42.0560 C   0  0  0  0  0  0  0  0  0  0  0  0
   37.3760   27.2990   42.8090 C   0  0  0  0  0  0  0  0  0  0  0  0
   37.7510   26.1310   42.2600 N   0  0  0  0  0  0  0  0  0  0  0  0
   37.3620   25.8470   40.9940 C   0  0  0  0  0  0  0  0  0  0  0  0
   36.6150   26.7040   40.2780 N   0  0  0  0  0  0  0  0  0  0  0  0
   36.3080   29.1020   42.4970 H   0  0  0  0  0  0  0  0  0  0  0  0
   37.6560   27.5700   43.8010 H   0  0  0  0  0  0  0  0  0  0  0  0
   37.7820   24.5720   40.4220 C   0  0  0  0  0  0  0  0  0  0  0  0
   38.4320   24.2890   39.2270 C   0  0  0  0  0  0  0  0  0  0  0  0
   38.7170   25.0550   38.5410 H   0  0  0  0  0  0  0  0  0  0  0  0
   38.6050   22.9030   39.1500 C   0  0  0  0  0  0  0  0  0  0  0  0
   39.0890   22.3810   38.3150 H   0  0  0  0  0  0  0  0  0  0  0  0
   38.0330   22.4260   40.3310 C   0  0  0  0  0  0  0  0  0  0  0  0
   38.0490   21.3550   40.4960 H   0  0  0  0  0  0  0  0  0  0  0  0
   37.5740   23.4340   41.0270 O   0  0  0  0  0  0  0  0  0  0  0  0
  1 22  1  0  0  0  0
  2 10  1  0  0  0  0
  2  1  2  0  0  0  0
  3  2  1  0  0  0  0
  4  3  2  0  0  0  0
  4  5  1  0  0  0  0
  5  6  2  0  0  0  0
  6  1  1  0  0  0  0
  6 24  1  0  0  0  0
  7  3  1  0  0  0  0
  8  4  1  0  0  0  0
  9  5  1  0  0  0  0
 10 13  1  0  0  0  0
 10 11  1  0  0  0  0
 12 10  1  0  0  0  0
 13 18  1  0  0  0  0
 14 13  2  0  0  0  0
 14 15  1  0  0  0  0
 15 16  2  0  0  0  0
 16 17  1  0  0  0  0
 17 21  1  0  0  0  0
 18 17  2  0  0  0  0
 19 14  1  0  0  0  0
 20 15  1  0  0  0  0
 22 23  1  0  0  0  0
 24 25  1  0  0  0  0
 25 26  1  0  0  0  0
 26 31  1  0  0  0  0
 26 27  2  0  0  0  0
 27 32  1  0  0  0  0
 28 27  1  0  0  0  0
 29 28  2  0  0  0  0
 30 25  2  0  0  0  0
 30 29  1  0  0  0  0
 33 29  1  0  0  0  0
 33 40  1  0  0  0  0
 34 33  2  0  0  0  0
 35 34  1  0  0  0  0
 36 34  1  0  0  0  0
 36 38  2  0  0  0  0
 37 36  1  0  0  0  0
 38 39  1  0  0  0  0
 38 40  1  0  0  0  0
M  END
>  <minimizedAffinity>
-6.38960934

$$$$

 OpenBabel03242512233D

 40 43  0  0  0  0  0  0  0  0999 V2000
   36.3260   30.9490   40.0860 C   0  0  0  0  0  0  0  0  0  0  0  0
   36.0750   29.7430   39.4870 C   0  0  0  0  0  0  0  0  0  0  0  0
   36.4970   29.5330   38.2060 C   0  0  0  0  0  0  0  0  0  0  0  0
   37.1760   30.5490   37.5310 C   0  0  0  0  0  0  0  0  0  0  0  0
   37.4110   31.7480   38.1630 C   0  0  0  0  0  0  0  0  0  0  0  0
   36.9830   31.9700   39.4700 C   0  0  0  0  0  0  0  0  0  0  0  0
   36.2600   28.5510   37.8020 H   0  0  0  0  0  0  0  0  0  0  0  0
   37.4880   30.3370   36.5290 H   0  0  0  0  0  0  0  0  0  0  0  0
   37.9370   32.4960   37.6030 H   0  0  0  0  0  0  0  0  0  0  0  0
   35.3520   28.7310   40.2750 C   0  0  0  0  0  0  0  0  0  0  0  0
   34.8210   28.0100   39.6680 H   0  0  0  0  0  0  0  0  0  0  0  0
   34.6280   29.1800   40.9720 H   0  0  0  0  0  0  0  0  0  0  0  0
   36.3320   27.9020   41.0860 C   0  0  0  0  0  0  0  0  0  0  0  0
   36.8550   26.7490   40.4950 C   0  0  0  0  0  0  0  0  0  0  0  0
   37.7420   26.0180   41.2540 C   0  0  0  0  0  0  0  0  0  0  0  0
   38.0520   26.4370   42.4920 N   0  0  0  0  0  0  0  0  0  0  0  0
   37.5230   27.5680   43.0390 C   0  0  0  0  0  0  0  0  0  0  0  0
   36.6670   28.2860   42.3250 N   0  0  0  0  0  0  0  0  0  0  0  0
   36.6050   26.4220   39.5120 H   0  0  0  0  0  0  0  0  0  0  0  0
   38.1850   25.1020   40.8390 H   0  0  0  0  0  0  0  0  0  0  0  0
   37.8650   27.7780   44.0400 H   0  0  0  0  0  0  0  0  0  0  0  0
   35.9290   31.2530   41.4000 O   0  0  0  0  0  0  0  0  0  0  0  0
   36.1340   30.6370   42.1790 H   0  0  0  0  0  0  0  0  0  0  0  0
   37.2750   33.2240   40.0180 O   0  0  0  0  0  0  0  0  0  0  0  0
   38.6270   33.4280   40.2950 C   0  0  0  0  0  0  0  0  0  0  0  0
   39.1430   34.6920   40.0720 C   0  0  0  0  0  0  0  0  0  0  0  0
   40.4790   34.9980   40.3160 C   0  0  0  0  0  0  0  0  0  0  0  0
   41.2890   34.0320   40.7830 N   0  0  0  0  0  0  0  0  0  0  0  0
   40.7790   32.7970   41.0000 C   0  0  0  0  0  0  0  0  0  0  0  0
   39.4880   32.5160   40.7600 N   0  0  0  0  0  0  0  0  0  0  0  0
   38.5050   35.4620   39.7010 H   0  0  0  0  0  0  0  0  0  0  0  0
   40.8300   35.9850   40.1280 H   0  0  0  0  0  0  0  0  0  0  0  0
   41.6810   31.7680   41.5080 C   0  0  0  0  0  0  0  0  0  0  0  0
   41.7740   31.1920   42.7690 C   0  0  0  0  0  0  0  0  0  0  0  0
   41.1300   31.4750   43.5710 H   0  0  0  0  0  0  0  0  0  0  0  0
   42.8090   30.2510   42.7360 C   0  0  0  0  0  0  0  0  0  0  0  0
   43.1180   29.6350   43.5890 H   0  0  0  0  0  0  0  0  0  0  0  0
   43.2860   30.3210   41.4250 C   0  0  0  0  0  0  0  0  0  0  0  0
   44.1080   29.6670   41.1580 H   0  0  0  0  0  0  0  0  0  0  0  0
   42.5980   31.2130   40.7630 O   0  0  0  0  0  0  0  0  0  0  0  0
  1 22  1  0  0  0  0
  2  1  1  0  0  0  0
  2 10  1  0  0  0  0
  3  2  2  0  0  0  0
  4  5  2  0  0  0  0
  4  3  1  0  0  0  0
  5  6  1  0  0  0  0
  6 24  1  0  0  0  0
  6  1  2  0  0  0  0
  7  3  1  0  0  0  0
  8  4  1  0  0  0  0
  9  5  1  0  0  0  0
 10 12  1  0  0  0  0
 10 13  1  0  0  0  0
 11 10  1  0  0  0  0
 13 18  1  0  0  0  0
 14 13  2  0  0  0  0
 14 15  1  0  0  0  0
 15 16  2  0  0  0  0
 16 17  1  0  0  0  0
 17 21  1  0  0  0  0
 18 17  2  0  0  0  0
 19 14  1  0  0  0  0
 20 15  1  0  0  0  0
 22 23  1  0  0  0  0
 24 25  1  0  0  0  0
 25 30  1  0  0  0  0
 26 25  2  0  0  0  0
 26 27  1  0  0  0  0
 27 28  2  0  0  0  0
 28 29  1  0  0  0  0
 29 33  1  0  0  0  0
 30 29  2  0  0  0  0
 31 26  1  0  0  0  0
 32 27  1  0  0  0  0
 33 34  2  0  0  0  0
 34 35  1  0  0  0  0
 36 34  1  0  0  0  0
 36 37  1  0  0  0  0
 38 36  2  0  0  0  0
 39 38  1  0  0  0  0
 40 38  1  0  0  0  0
 40 33  1  0  0  0  0
M  END
>  <minimizedAffinity>
-6.2414875

$$$$

 OpenBabel03242512233D

 40 43  0  0  0  0  0  0  0  0999 V2000
   36.6770   28.7280   41.7630 C   0  0  0  0  0  0  0  0  0  0  0  0
   36.8330   27.3770   41.5910 C   0  0  0  0  0  0  0  0  0  0  0  0
   36.7320   26.8490   40.3370 C   0  0  0  0  0  0  0  0  0  0  0  0
   36.4740   27.6920   39.2550 C   0  0  0  0  0  0  0  0  0  0  0  0
   36.3240   29.0430   39.4630 C   0  0  0  0  0  0  0  0  0  0  0  0
   36.4250   29.5900   40.7400 C   0  0  0  0  0  0  0  0  0  0  0  0
   36.8670   25.7700   40.2830 H   0  0  0  0  0  0  0  0  0  0  0  0
   36.4040   27.2310   38.2910 H   0  0  0  0  0  0  0  0  0  0  0  0
   36.1270   29.6480   38.6010 H   0  0  0  0  0  0  0  0  0  0  0  0
   37.1020   26.5670   42.7900 C   0  0  0  0  0  0  0  0  0  0  0  0
   36.7130   25.5600   42.7250 H   0  0  0  0  0  0  0  0  0  0  0  0
   36.6980   27.0240   43.7060 H   0  0  0  0  0  0  0  0  0  0  0  0
   38.5980   26.3890   42.9760 C   0  0  0  0  0  0  0  0  0  0  0  0
   39.1550   25.1520   42.6410 C   0  0  0  0  0  0  0  0  0  0  0  0
   40.5130   25.0210   42.8190 C   0  0  0  0  0  0  0  0  0  0  0  0
   41.2200   26.0600   43.2940 N   0  0  0  0  0  0  0  0  0  0  0  0
   40.6460   27.2550   43.6120 C   0  0  0  0  0  0  0  0  0  0  0  0
   39.3390   27.4020   43.4480 N   0  0  0  0  0  0  0  0  0  0  0  0
   38.5880   24.3320   42.2650 H   0  0  0  0  0  0  0  0  0  0  0  0
   41.0040   24.0690   42.5710 H   0  0  0  0  0  0  0  0  0  0  0  0
   41.3380   27.9950   43.9810 H   0  0  0  0  0  0  0  0  0  0  0  0
   36.7650   29.3580   43.0170 O   0  0  0  0  0  0  0  0  0  0  0  0
   37.5460   29.2020   43.6440 H   0  0  0  0  0  0  0  0  0  0  0  0
   36.2550   30.9760   40.8420 O   0  0  0  0  0  0  0  0  0  0  0  0
   37.4370   31.7070   40.7160 C   0  0  0  0  0  0  0  0  0  0  0  0
   37.4150   32.8230   39.8990 C   0  0  0  0  0  0  0  0  0  0  0  0
   38.5410   33.6200   39.7080 C   0  0  0  0  0  0  0  0  0  0  0  0
   39.6820   33.2900   40.3380 N   0  0  0  0  0  0  0  0  0  0  0  0
   39.6980   32.1970   41.1370 C   0  0  0  0  0  0  0  0  0  0  0  0
   38.6040   31.4380   41.3120 N   0  0  0  0  0  0  0  0  0  0  0  0
   36.5140   33.0890   39.3970 H   0  0  0  0  0  0  0  0  0  0  0  0
   38.4760   34.4690   39.0690 H   0  0  0  0  0  0  0  0  0  0  0  0
   40.9490   31.8630   41.8090 C   0  0  0  0  0  0  0  0  0  0  0  0
   41.2330   30.8840   42.7530 C   0  0  0  0  0  0  0  0  0  0  0  0
   40.4880   30.2120   43.1160 H   0  0  0  0  0  0  0  0  0  0  0  0
   42.5900   30.9820   43.0780 C   0  0  0  0  0  0  0  0  0  0  0  0
   43.1060   30.3370   43.8000 H   0  0  0  0  0  0  0  0  0  0  0  0
   43.0500   32.0400   42.2910 C   0  0  0  0  0  0  0  0  0  0  0  0
   44.0970   32.3070   42.3760 H   0  0  0  0  0  0  0  0  0  0  0  0
   42.0590   32.5110   41.5790 O   0  0  0  0  0  0  0  0  0  0  0  0
  1 22  1  0  0  0  0
  2  1  1  0  0  0  0
  2 10  1  0  0  0  0
  3  2  2  0  0  0  0
  4  5  2  0  0  0  0
  4  3  1  0  0  0  0
  5  6  1  0  0  0  0
  6 24  1  0  0  0  0
  6  1  2  0  0  0  0
  7  3  1  0  0  0  0
  8  4  1  0  0  0  0
  9  5  1  0  0  0  0
 10 13  1  0  0  0  0
 10 12  1  0  0  0  0
 11 10  1  0  0  0  0
 13 18  1  0  0  0  0
 14 15  1  0  0  0  0
 14 13  2  0  0  0  0
 15 16  2  0  0  0  0
 16 17  1  0  0  0  0
 17 21  1  0  0  0  0
 18 17  2  0  0  0  0
 19 14  1  0  0  0  0
 20 15  1  0  0  0  0
 22 23  1  0  0  0  0
 25 24  1  0  0  0  0
 25 30  1  0  0  0  0
 26 25  2  0  0  0  0
 27 26  1  0  0  0  0
 27 28  2  0  0  0  0
 28 29  1  0  0  0  0
 29 30  2  0  0  0  0
 29 33  1  0  0  0  0
 31 26  1  0  0  0  0
 32 27  1  0  0  0  0
 33 34  2  0  0  0  0
 34 36  1  0  0  0  0
 34 35  1  0  0  0  0
 36 37  1  0  0  0  0
 38 39  1  0  0  0  0
 38 36  2  0  0  0  0
 40 33  1  0  0  0  0
 40 38  1  0  0  0  0
M  END
>  <minimizedAffinity>
-6.20113993

$$$$

 OpenBabel03242512233D

 40 43  0  0  0  0  0  0  0  0999 V2000
   37.1760   29.6140   41.9260 C   0  0  0  0  0  0  0  0  0  0  0  0
   37.3350   30.6130   41.0020 C   0  0  0  0  0  0  0  0  0  0  0  0
   38.4920   31.3360   40.9940 C   0  0  0  0  0  0  0  0  0  0  0  0
   39.4900   31.0460   41.9240 C   0  0  0  0  0  0  0  0  0  0  0  0
   39.2980   30.0360   42.8380 C   0  0  0  0  0  0  0  0  0  0  0  0
   38.1200   29.2930   42.8530 C   0  0  0  0  0  0  0  0  0  0  0  0
   38.5410   32.1110   40.2310 H   0  0  0  0  0  0  0  0  0  0  0  0
   40.3800   31.6400   41.8790 H   0  0  0  0  0  0  0  0  0  0  0  0
   40.0940   29.8500   43.5320 H   0  0  0  0  0  0  0  0  0  0  0  0
   36.2280   30.8490   40.0600 C   0  0  0  0  0  0  0  0  0  0  0  0
   36.1980   31.8590   39.6750 H   0  0  0  0  0  0  0  0  0  0  0  0
   35.2450   30.6300   40.5040 H   0  0  0  0  0  0  0  0  0  0  0  0
   36.3930   29.9750   38.8300 C   0  0  0  0  0  0  0  0  0  0  0  0
   37.0460   30.5230   37.7240 C   0  0  0  0  0  0  0  0  0  0  0  0
   37.1810   29.7060   36.6240 C   0  0  0  0  0  0  0  0  0  0  0  0
   36.6920   28.4550   36.6660 N   0  0  0  0  0  0  0  0  0  0  0  0
   36.0590   27.9510   37.7620 C   0  0  0  0  0  0  0  0  0  0  0  0
   35.9180   28.7210   38.8320 N   0  0  0  0  0  0  0  0  0  0  0  0
   37.4310   31.5160   37.6970 H   0  0  0  0  0  0  0  0  0  0  0  0
   37.6880   30.0860   35.7250 H   0  0  0  0  0  0  0  0  0  0  0  0
   35.7210   26.9340   37.6500 H   0  0  0  0  0  0  0  0  0  0  0  0
   36.0190   28.8190   42.0070 O   0  0  0  0  0  0  0  0  0  0  0  0
   35.6270   28.3550   41.1950 H   0  0  0  0  0  0  0  0  0  0  0  0
   38.0270   28.2880   43.8230 O   0  0  0  0  0  0  0  0  0  0  0  0
   38.5130   27.0470   43.4100 C   0  0  0  0  0  0  0  0  0  0  0  0
   39.7230   26.6280   43.9320 C   0  0  0  0  0  0  0  0  0  0  0  0
   40.2940   25.4070   43.5840 C   0  0  0  0  0  0  0  0  0  0  0  0
   39.6450   24.6140   42.7140 N   0  0  0  0  0  0  0  0  0  0  0  0
   38.4600   25.0280   42.2060 C   0  0  0  0  0  0  0  0  0  0  0  0
   37.9220   26.2100   42.5510 N   0  0  0  0  0  0  0  0  0  0  0  0
   40.2420   27.2520   44.6230 H   0  0  0  0  0  0  0  0  0  0  0  0
   41.2280   25.1270   44.0120 H   0  0  0  0  0  0  0  0  0  0  0  0
   37.7780   24.1480   41.2630 C   0  0  0  0  0  0  0  0  0  0  0  0
   36.5200   24.2500   40.6810 C   0  0  0  0  0  0  0  0  0  0  0  0
   35.8640   25.0660   40.8870 H   0  0  0  0  0  0  0  0  0  0  0  0
   36.3420   23.1410   39.8470 C   0  0  0  0  0  0  0  0  0  0  0  0
   35.4410   22.9480   39.2520 H   0  0  0  0  0  0  0  0  0  0  0  0
   37.5310   22.4220   39.9830 C   0  0  0  0  0  0  0  0  0  0  0  0
   37.6260   21.5030   39.4180 H   0  0  0  0  0  0  0  0  0  0  0  0
   38.3230   23.0500   40.8130 O   0  0  0  0  0  0  0  0  0  0  0  0
  1 22  1  0  0  0  0
  1  6  1  0  0  0  0
  2  1  2  0  0  0  0
  3  2  1  0  0  0  0
  3  4  2  0  0  0  0
  4  5  1  0  0  0  0
  5  6  2  0  0  0  0
  5  9  1  0  0  0  0
  6 24  1  0  0  0  0
  7  3  1  0  0  0  0
  8  4  1  0  0  0  0
 10 12  1  0  0  0  0
 10  2  1  0  0  0  0
 11 10  1  0  0  0  0
 13 18  1  0  0  0  0
 13 10  1  0  0  0  0
 14 13  2  0  0  0  0
 15 16  2  0  0  0  0
 15 14  1  0  0  0  0
 16 17  1  0  0  0  0
 17 18  2  0  0  0  0
 19 14  1  0  0  0  0
 20 15  1  0  0  0  0
 21 17  1  0  0  0  0
 23 22  1  0  0  0  0
 25 24  1  0  0  0  0
 25 26  1  0  0  0  0
 26 31  1  0  0  0  0
 27 26  2  0  0  0  0
 27 32  1  0  0  0  0
 28 27  1  0  0  0  0
 29 30  1  0  0  0  0
 29 28  2  0  0  0  0
 30 25  2  0  0  0  0
 33 29  1  0  0  0  0
 34 35  1  0  0  0  0
 34 33  2  0  0  0  0
 36 38  2  0  0  0  0
 36 34  1  0  0  0  0
 37 36  1  0  0  0  0
 38 40  1  0  0  0  0
 39 38  1  0  0  0  0
 40 33  1  0  0  0  0
M  END
>  <minimizedAffinity>
-6.12908792

$$$$

 OpenBabel03242512233D

 40 43  0  0  0  0  0  0  0  0999 V2000
   38.4280   29.1820   42.7670 C   0  0  0  0  0  0  0  0  0  0  0  0
   38.6980   27.8630   43.0180 C   0  0  0  0  0  0  0  0  0  0  0  0
   39.9910   27.4290   42.9920 C   0  0  0  0  0  0  0  0  0  0  0  0
   41.0140   28.3360   42.7130 C   0  0  0  0  0  0  0  0  0  0  0  0
   40.7090   29.6540   42.4660 C   0  0  0  0  0  0  0  0  0  0  0  0
   39.3910   30.1040   42.4890 C   0  0  0  0  0  0  0  0  0  0  0  0
   40.1220   26.3690   43.2010 H   0  0  0  0  0  0  0  0  0  0  0  0
   42.0130   27.9490   42.7050 H   0  0  0  0  0  0  0  0  0  0  0  0
   41.5290   30.3120   42.2560 H   0  0  0  0  0  0  0  0  0  0  0  0
   37.5540   26.9800   43.3030 C   0  0  0  0  0  0  0  0  0  0  0  0
   36.6620   27.5140   43.6030 H   0  0  0  0  0  0  0  0  0  0  0  0
   37.7800   26.2390   44.0850 H   0  0  0  0  0  0  0  0  0  0  0  0
   37.1480   26.2290   42.0480 C   0  0  0  0  0  0  0  0  0  0  0  0
   37.0100   24.8410   42.1340 C   0  0  0  0  0  0  0  0  0  0  0  0
   36.6390   24.1880   40.9810 C   0  0  0  0  0  0  0  0  0  0  0  0
   36.4340   24.8970   39.8580 N   0  0  0  0  0  0  0  0  0  0  0  0
   36.5770   26.2510   39.8080 C   0  0  0  0  0  0  0  0  0  0  0  0
   36.9340   26.8990   40.9080 N   0  0  0  0  0  0  0  0  0  0  0  0
   37.1740   24.2850   43.0280 H   0  0  0  0  0  0  0  0  0  0  0  0
   36.5150   23.0960   40.9910 H   0  0  0  0  0  0  0  0  0  0  0  0
   36.3790   26.6820   38.8390 H   0  0  0  0  0  0  0  0  0  0  0  0
   37.1270   29.7170   42.7720 O   0  0  0  0  0  0  0  0  0  0  0  0
   36.4860   29.5620   43.5430 H   0  0  0  0  0  0  0  0  0  0  0  0
   39.1900   31.4640   42.2250 O   0  0  0  0  0  0  0  0  0  0  0  0
   38.5280   31.7210   41.0240 C   0  0  0  0  0  0  0  0  0  0  0  0
   38.3090   33.0440   40.6840 C   0  0  0  0  0  0  0  0  0  0  0  0
   37.6570   33.4070   39.5080 C   0  0  0  0  0  0  0  0  0  0  0  0
   37.2300   32.4380   38.6800 N   0  0  0  0  0  0  0  0  0  0  0  0
   37.4480   31.1440   39.0160 C   0  0  0  0  0  0  0  0  0  0  0  0
   38.0780   30.8090   40.1550 N   0  0  0  0  0  0  0  0  0  0  0  0
   38.6450   33.8170   41.3370 H   0  0  0  0  0  0  0  0  0  0  0  0
   37.5110   34.4390   39.2900 H   0  0  0  0  0  0  0  0  0  0  0  0
   36.9750   30.1130   38.0990 C   0  0  0  0  0  0  0  0  0  0  0  0
   35.7230   29.5230   37.9720 C   0  0  0  0  0  0  0  0  0  0  0  0
   34.9020   29.7940   38.5980 H   0  0  0  0  0  0  0  0  0  0  0  0
   35.7920   28.5870   36.9360 C   0  0  0  0  0  0  0  0  0  0  0  0
   34.9540   27.9610   36.6040 H   0  0  0  0  0  0  0  0  0  0  0  0
   37.1140   28.6720   36.4920 C   0  0  0  0  0  0  0  0  0  0  0  0
   37.4080   28.0250   35.6750 H   0  0  0  0  0  0  0  0  0  0  0  0
   37.7490   29.5690   37.2000 O   0  0  0  0  0  0  0  0  0  0  0  0
  1 22  1  0  0  0  0
  1  2  1  0  0  0  0
  2 10  1  0  0  0  0
  3  2  2  0  0  0  0
  3  7  1  0  0  0  0
  4  3  1  0  0  0  0
  5  6  1  0  0  0  0
  5  4  2  0  0  0  0
  6  1  2  0  0  0  0
  8  4  1  0  0  0  0
  9  5  1  0  0  0  0
 10 11  1  0  0  0  0
 10 12  1  0  0  0  0
 13 14  1  0  0  0  0
 13 10  1  0  0  0  0
 14 19  1  0  0  0  0
 15 20  1  0  0  0  0
 15 14  2  0  0  0  0
 16 15  1  0  0  0  0
 17 16  2  0  0  0  0
 17 18  1  0  0  0  0
 18 13  2  0  0  0  0
 21 17  1  0  0  0  0
 22 23  1  0  0  0  0
 24  6  1  0  0  0  0
 25 24  1  0  0  0  0
 26 25  1  0  0  0  0
 26 31  1  0  0  0  0
 27 26  2  0  0  0  0
 28 29  2  0  0  0  0
 28 27  1  0  0  0  0
 29 30  1  0  0  0  0
 30 25  2  0  0  0  0
 32 27  1  0  0  0  0
 33 29  1  0  0  0  0
 34 33  2  0  0  0  0
 34 35  1  0  0  0  0
 36 34  1  0  0  0  0
 37 36  1  0  0  0  0
 38 36  2  0  0  0  0
 38 40  1  0  0  0  0
 39 38  1  0  0  0  0
 40 33  1  0  0  0  0
M  END
>  <minimizedAffinity>
-6.10448408

$$$$

 OpenBabel03242512233D

 40 43  0  0  0  0  0  0  0  0999 V2000
   36.7580   28.7310   41.6190 C   0  0  0  0  0  0  0  0  0  0  0  0
   37.0960   27.4580   41.9970 C   0  0  0  0  0  0  0  0  0  0  0  0
   36.9830   26.4420   41.0940 C   0  0  0  0  0  0  0  0  0  0  0  0
   36.5290   26.7160   39.8040 C   0  0  0  0  0  0  0  0  0  0  0  0
   36.1990   28.0050   39.4570 C   0  0  0  0  0  0  0  0  0  0  0  0
   36.3100   29.0480   40.3730 C   0  0  0  0  0  0  0  0  0  0  0  0
   37.2700   25.4620   41.4710 H   0  0  0  0  0  0  0  0  0  0  0  0
   36.4580   25.8860   39.1310 H   0  0  0  0  0  0  0  0  0  0  0  0
   35.8550   28.1650   38.4540 H   0  0  0  0  0  0  0  0  0  0  0  0
   37.5650   27.2640   43.3790 C   0  0  0  0  0  0  0  0  0  0  0  0
   37.3310   26.2860   43.7800 H   0  0  0  0  0  0  0  0  0  0  0  0
   37.1570   28.0160   44.0720 H   0  0  0  0  0  0  0  0  0  0  0  0
   39.0800   27.3480   43.4340 C   0  0  0  0  0  0  0  0  0  0  0  0
   39.7740   26.2660   43.9820 C   0  0  0  0  0  0  0  0  0  0  0  0
   41.1460   26.3700   44.0170 C   0  0  0  0  0  0  0  0  0  0  0  0
   41.7360   27.4770   43.5360 N   0  0  0  0  0  0  0  0  0  0  0  0
   41.0290   28.5150   43.0070 C   0  0  0  0  0  0  0  0  0  0  0  0
   39.7070   28.4350   42.9630 N   0  0  0  0  0  0  0  0  0  0  0  0
   39.2990   25.3910   44.3630 H   0  0  0  0  0  0  0  0  0  0  0  0
   41.7420   25.5490   44.4380 H   0  0  0  0  0  0  0  0  0  0  0  0
   41.6380   29.3350   42.6600 H   0  0  0  0  0  0  0  0  0  0  0  0
   36.8420   29.8380   42.4810 O   0  0  0  0  0  0  0  0  0  0  0  0
   37.6810   30.0420   43.0130 H   0  0  0  0  0  0  0  0  0  0  0  0
   35.9490   30.3220   39.9170 O   0  0  0  0  0  0  0  0  0  0  0  0
   37.0310   31.1560   39.6340 C   0  0  0  0  0  0  0  0  0  0  0  0
   36.9700   32.4600   40.0910 C   0  0  0  0  0  0  0  0  0  0  0  0
   37.9970   33.3720   39.8600 C   0  0  0  0  0  0  0  0  0  0  0  0
   39.0790   32.9680   39.1730 N   0  0  0  0  0  0  0  0  0  0  0  0
   39.1340   31.6900   38.7290 C   0  0  0  0  0  0  0  0  0  0  0  0
   38.1350   30.8210   38.9580 N   0  0  0  0  0  0  0  0  0  0  0  0
   36.1140   32.7870   40.6360 H   0  0  0  0  0  0  0  0  0  0  0  0
   37.9040   34.3660   40.2310 H   0  0  0  0  0  0  0  0  0  0  0  0
   40.3210   31.2780   37.9860 C   0  0  0  0  0  0  0  0  0  0  0  0
   40.8160   30.0100   37.7080 C   0  0  0  0  0  0  0  0  0  0  0  0
   40.3280   29.1230   38.0450 H   0  0  0  0  0  0  0  0  0  0  0  0
   41.9880   30.1610   36.9590 C   0  0  0  0  0  0  0  0  0  0  0  0
   42.6040   29.3310   36.5910 H   0  0  0  0  0  0  0  0  0  0  0  0
   42.1280   31.5450   36.8290 C   0  0  0  0  0  0  0  0  0  0  0  0
   42.9840   31.9090   36.2740 H   0  0  0  0  0  0  0  0  0  0  0  0
   41.1380   32.1380   37.4420 O   0  0  0  0  0  0  0  0  0  0  0  0
  1  2  1  0  0  0  0
  1 22  1  0  0  0  0
  2 10  1  0  0  0  0
  3  7  1  0  0  0  0
  3  2  2  0  0  0  0
  4  3  1  0  0  0  0
  5  4  2  0  0  0  0
  5  6  1  0  0  0  0
  6  1  2  0  0  0  0
  8  4  1  0  0  0  0
  9  5  1  0  0  0  0
 10 13  1  0  0  0  0
 10 11  1  0  0  0  0
 10 12  1  0  0  0  0
 13 14  1  0  0  0  0
 14 15  2  0  0  0  0
 14 19  1  0  0  0  0
 15 20  1  0  0  0  0
 16 15  1  0  0  0  0
 17 16  2  0  0  0  0
 18 17  1  0  0  0  0
 18 13  2  0  0  0  0
 21 17  1  0  0  0  0
 22 23  1  0  0  0  0
 24  6  1  0  0  0  0
 25 24  1  0  0  0  0
 25 26  1  0  0  0  0
 26 31  1  0  0  0  0
 27 26  2  0  0  0  0
 27 32  1  0  0  0  0
 28 27  1  0  0  0  0
 29 30  1  0  0  0  0
 29 28  2  0  0  0  0
 30 25  2  0  0  0  0
 33 29  1  0  0  0  0
 34 33  2  0  0  0  0
 34 35  1  0  0  0  0
 36 34  1  0  0  0  0
 37 36  1  0  0  0  0
 38 36  2  0  0  0  0
 38 40  1  0  0  0  0
 39 38  1  0  0  0  0
 40 33  1  0  0  0  0
M  END
>  <minimizedAffinity>
-6.07836723

$$$$
