
 OpenBabel03252503063D

 19 20  0  0  0  0  0  0  0  0999 V2000
   45.3930   36.0210   43.2860 C   0  0  0  0  0  0  0  0  0  0  0  0
   46.1670   34.8470   43.1930 C   0  0  0  0  0  0  0  0  0  0  0  0
   46.1300   33.9350   44.2360 C   0  0  0  0  0  0  0  0  0  0  0  0
   45.3500   34.2160   45.3010 N   0  0  0  0  0  0  0  0  0  0  0  0
   44.6110   35.3470   45.3790 C   0  0  0  0  0  0  0  0  0  0  0  0
   44.6350   36.2350   44.3800 N   0  0  0  0  0  0  0  0  0  0  0  0
   45.4380   36.7180   42.4600 H   0  0  0  0  0  0  0  0  0  0  0  0
   43.9910   35.5250   46.2690 H   0  0  0  0  0  0  0  0  0  0  0  0
   46.9290   32.7160   44.1510 C   0  0  0  0  0  0  0  0  0  0  0  0
   47.7290   32.3380   43.0980 C   0  0  0  0  0  0  0  0  0  0  0  0
   47.8900   32.8810   42.1750 H   0  0  0  0  0  0  0  0  0  0  0  0
   48.2720   31.1240   43.4780 C   0  0  0  0  0  0  0  0  0  0  0  0
   48.9480   30.5660   42.8640 H   0  0  0  0  0  0  0  0  0  0  0  0
   47.7500   30.8670   44.7450 C   0  0  0  0  0  0  0  0  0  0  0  0
   48.0660   29.9360   45.2240 H   0  0  0  0  0  0  0  0  0  0  0  0
   46.9460   31.8340   45.1300 O   0  0  0  0  0  0  0  0  0  0  0  0
   46.9760   34.6250   42.0200 C   0  0  0  0  0  0  0  0  0  0  0  0
   47.8840   35.4670   41.7740 O   0  0  0  0  0  0  0  0  0  0  0  0
   47.0120   33.8800   41.2460 H   0  0  0  0  0  0  0  0  0  0  0  0
  1  6  1  0  0  0  0
  2  1  2  0  0  0  0
  2  3  1  0  0  0  0
  3  4  2  0  0  0  0
  4  5  1  0  0  0  0
  5  8  1  0  0  0  0
  6  5  2  0  0  0  0
  7  1  1  0  0  0  0
  9  3  1  0  0  0  0
  9 16  1  0  0  0  0
 10 12  1  0  0  0  0
 10  9  2  0  0  0  0
 11 10  1  0  0  0  0
 12 14  2  0  0  0  0
 13 12  1  0  0  0  0
 14 16  1  0  0  0  0
 14 15  1  0  0  0  0
 17  2  1  0  0  0  0
 18 17  2  0  0  0  0
 19 17  1  0  0  0  0
M  END
>  <minimizedAffinity>
-3.7282474

>  <minimizedRMSD>
0.348796606

$$$$
