
 OpenBabel03242514383D

 32 34  0  0  0  0  0  0  0  0999 V2000
   39.7100   33.4120   39.8530 C   0  0  0  0  0  0  0  0  0  0  0  0
   39.0720   34.5290   39.9050 O   0  0  0  0  0  0  0  0  0  0  0  0
   38.7810   32.3840   40.3600 C   0  0  0  0  0  0  0  0  0  0  0  0
   37.3830   32.2840   40.1350 C   0  0  0  0  0  0  0  0  0  0  0  0
   36.7900   31.2360   40.7320 C   0  0  0  0  0  0  0  0  0  0  0  0
   37.4480   30.3340   41.4910 C   0  0  0  0  0  0  0  0  0  0  0  0
   39.2070   31.0330   41.3770 S   0  0  0  0  0  0  0  0  0  0  0  0
   36.8520   33.0010   39.5300 H   0  0  0  0  0  0  0  0  0  0  0  0
   35.7380   30.9830   40.6860 H   0  0  0  0  0  0  0  0  0  0  0  0
   37.2110   29.1510   42.2570 C   0  0  0  0  0  0  0  0  0  0  0  0
   36.5070   28.0450   41.9170 C   0  0  0  0  0  0  0  0  0  0  0  0
   35.9830   27.8190   41.0150 H   0  0  0  0  0  0  0  0  0  0  0  0
   36.6100   27.2170   43.0410 C   0  0  0  0  0  0  0  0  0  0  0  0
   36.1940   26.2320   43.2010 H   0  0  0  0  0  0  0  0  0  0  0  0
   37.3800   27.8940   43.9940 C   0  0  0  0  0  0  0  0  0  0  0  0
   37.6920   27.5930   45.0020 H   0  0  0  0  0  0  0  0  0  0  0  0
   37.6960   29.0400   43.4410 O   0  0  0  0  0  0  0  0  0  0  0  0
   40.9640   33.5580   39.3710 O   0  0  0  0  0  0  0  0  0  0  0  0
   42.2270   34.1810   37.2250 O   0  0  0  0  0  0  0  0  0  0  0  0
   41.5420   33.0400   37.9020 P   0  0  2  0  0  0  0  0  0  0  0  0
   40.2410   32.5680   36.9500 O   0  0  0  0  0  0  0  0  0  0  0  0
   39.9560   31.6520   37.2380 H   0  0  0  0  0  0  0  0  0  0  0  0
   42.6420   31.7320   38.1360 O   0  0  0  0  0  0  0  0  0  0  0  0
   42.9710   30.4540   36.1340 C   0  0  0  0  0  0  0  0  0  0  0  0
   43.4770   31.3160   37.0990 C   0  0  0  0  0  0  0  0  0  0  0  0
   44.8160   31.7400   36.9950 C   0  0  0  0  0  0  0  0  0  0  0  0
   45.5400   31.2710   35.9380 N   0  0  0  0  0  0  0  0  0  0  0  0
   45.0200   30.4420   35.0270 C   0  0  0  0  0  0  0  0  0  0  0  0
   43.7440   30.0350   35.1240 N   0  0  0  0  0  0  0  0  0  0  0  0
   41.9650   30.0780   36.1300 H   0  0  0  0  0  0  0  0  0  0  0  0
   45.2030   32.4110   37.7490 H   0  0  0  0  0  0  0  0  0  0  0  0
   45.6810   30.1230   34.2210 H   0  0  0  0  0  0  0  0  0  0  0  0
  1  2  2  0  0  0  0
  1  3  1  0  0  0  0
  3  7  1  0  0  0  0
  4  3  2  0  0  0  0
  4  5  1  0  0  0  0
  5  6  2  0  0  0  0
  6 10  1  0  0  0  0
  7  6  1  0  0  0  0
  8  4  1  0  0  0  0
  9  5  1  0  0  0  0
 10 17  1  0  0  0  0
 11 10  2  0  0  0  0
 11 13  1  0  0  0  0
 12 11  1  0  0  0  0
 13 14  1  0  0  0  0
 13 15  2  0  0  0  0
 15 16  1  0  0  0  0
 17 15  1  0  0  0  0
 18  1  1  0  0  0  0
 20 19  2  6  0  0  0
 20 23  1  0  0  0  0
 20 18  1  0  0  0  0
 21 22  1  0  0  0  0
 21 20  1  0  0  0  0
 24 25  1  0  0  0  0
 25 23  1  0  0  0  0
 26 25  2  0  0  0  0
 26 31  1  0  0  0  0
 27 26  1  0  0  0  0
 28 29  1  0  0  0  0
 28 27  2  0  0  0  0
 29 24  2  0  0  0  0
 30 24  1  0  0  0  0
 32 28  1  0  0  0  0
M  END
>  <minimizedAffinity>
-6.03170776

$$$$

 OpenBabel03242514383D

 32 34  0  0  0  0  0  0  0  0999 V2000
   39.4790   33.5880   39.8040 C   0  0  0  0  0  0  0  0  0  0  0  0
   39.0110   34.6840   40.2920 O   0  0  0  0  0  0  0  0  0  0  0  0
   38.6090   32.5090   40.3100 C   0  0  0  0  0  0  0  0  0  0  0  0
   37.2190   32.3320   40.0870 C   0  0  0  0  0  0  0  0  0  0  0  0
   36.6850   31.2520   40.6830 C   0  0  0  0  0  0  0  0  0  0  0  0
   37.3940   30.3860   41.4380 C   0  0  0  0  0  0  0  0  0  0  0  0
   39.1120   31.1810   41.3220 S   0  0  0  0  0  0  0  0  0  0  0  0
   36.6470   33.0200   39.4850 H   0  0  0  0  0  0  0  0  0  0  0  0
   35.6490   30.9410   40.6370 H   0  0  0  0  0  0  0  0  0  0  0  0
   37.2240   29.1890   42.2010 C   0  0  0  0  0  0  0  0  0  0  0  0
   36.5930   28.0420   41.8540 C   0  0  0  0  0  0  0  0  0  0  0  0
   36.0930   27.7850   40.9480 H   0  0  0  0  0  0  0  0  0  0  0  0
   36.7380   27.2210   42.9790 C   0  0  0  0  0  0  0  0  0  0  0  0
   36.3820   26.2120   43.1350 H   0  0  0  0  0  0  0  0  0  0  0  0
   37.4550   27.9430   43.9400 C   0  0  0  0  0  0  0  0  0  0  0  0
   37.7760   27.6620   44.9500 H   0  0  0  0  0  0  0  0  0  0  0  0
   37.7040   29.1070   43.3890 O   0  0  0  0  0  0  0  0  0  0  0  0
   40.5650   33.7940   39.0260 O   0  0  0  0  0  0  0  0  0  0  0  0
   42.3070   33.4500   37.1730 O   0  0  0  0  0  0  0  0  0  0  0  0
   41.1990   32.7560   37.8940 P   0  0  2  0  0  0  0  0  0  0  0  0
   40.0000   32.3800   36.7800 O   0  0  0  0  0  0  0  0  0  0  0  0
   39.4030   31.6840   37.1820 H   0  0  0  0  0  0  0  0  0  0  0  0
   41.7870   31.3330   38.6720 O   0  0  0  0  0  0  0  0  0  0  0  0
   42.3740   29.8370   36.8930 C   0  0  0  0  0  0  0  0  0  0  0  0
   41.6590   30.0870   38.0580 C   0  0  0  0  0  0  0  0  0  0  0  0
   40.8300   29.0730   38.5760 C   0  0  0  0  0  0  0  0  0  0  0  0
   40.7820   27.8940   37.8920 N   0  0  0  0  0  0  0  0  0  0  0  0
   41.4840   27.6880   36.7730 C   0  0  0  0  0  0  0  0  0  0  0  0
   42.2750   28.6520   36.2760 N   0  0  0  0  0  0  0  0  0  0  0  0
   43.0290   30.5460   36.4230 H   0  0  0  0  0  0  0  0  0  0  0  0
   40.2770   29.2750   39.4830 H   0  0  0  0  0  0  0  0  0  0  0  0
   41.3760   26.7110   36.3000 H   0  0  0  0  0  0  0  0  0  0  0  0
  1  2  2  0  0  0  0
  1  3  1  0  0  0  0
  3  7  1  0  0  0  0
  4  3  2  0  0  0  0
  4  5  1  0  0  0  0
  5  6  2  0  0  0  0
  6 10  1  0  0  0  0
  7  6  1  0  0  0  0
  8  4  1  0  0  0  0
  9  5  1  0  0  0  0
 10 17  1  0  0  0  0
 11 10  2  0  0  0  0
 11 13  1  0  0  0  0
 12 11  1  0  0  0  0
 13 14  1  0  0  0  0
 13 15  2  0  0  0  0
 15 16  1  0  0  0  0
 17 15  1  0  0  0  0
 18  1  1  0  0  0  0
 20 19  2  6  0  0  0
 20 23  1  0  0  0  0
 20 18  1  0  0  0  0
 21 22  1  0  0  0  0
 21 20  1  0  0  0  0
 24 25  1  0  0  0  0
 25 26  2  0  0  0  0
 25 23  1  0  0  0  0
 26 31  1  0  0  0  0
 27 26  1  0  0  0  0
 28 27  2  0  0  0  0
 29 28  1  0  0  0  0
 29 24  2  0  0  0  0
 30 24  1  0  0  0  0
 32 28  1  0  0  0  0
M  END
>  <minimizedAffinity>
-5.5283246

$$$$

 OpenBabel03242514383D

 32 34  0  0  0  0  0  0  0  0999 V2000
   37.0180   30.7720   38.3450 C   0  0  0  0  0  0  0  0  0  0  0  0
   37.6330   30.4840   37.2510 O   0  0  0  0  0  0  0  0  0  0  0  0
   37.8380   31.7940   39.0220 C   0  0  0  0  0  0  0  0  0  0  0  0
   37.4150   33.0390   39.5550 C   0  0  0  0  0  0  0  0  0  0  0  0
   38.3920   33.7750   40.1140 C   0  0  0  0  0  0  0  0  0  0  0  0
   39.6820   33.3830   40.1770 C   0  0  0  0  0  0  0  0  0  0  0  0
   39.5540   31.6970   39.3170 S   0  0  0  0  0  0  0  0  0  0  0  0
   36.3860   33.3580   39.5080 H   0  0  0  0  0  0  0  0  0  0  0  0
   38.2780   34.7480   40.5740 H   0  0  0  0  0  0  0  0  0  0  0  0
   40.9530   33.8340   40.6530 C   0  0  0  0  0  0  0  0  0  0  0  0
   41.4530   35.0920   40.6790 C   0  0  0  0  0  0  0  0  0  0  0  0
   41.0130   36.0090   40.3540 H   0  0  0  0  0  0  0  0  0  0  0  0
   42.7240   34.9410   41.2450 C   0  0  0  0  0  0  0  0  0  0  0  0
   43.4710   35.6960   41.4510 H   0  0  0  0  0  0  0  0  0  0  0  0
   42.9030   33.5810   41.5240 C   0  0  0  0  0  0  0  0  0  0  0  0
   43.7550   33.0510   41.9670 H   0  0  0  0  0  0  0  0  0  0  0  0
   41.7960   32.9950   41.1380 O   0  0  0  0  0  0  0  0  0  0  0  0
   35.8750   30.0650   38.4940 O   0  0  0  0  0  0  0  0  0  0  0  0
   33.7950   29.1800   39.7070 O   0  0  0  0  0  0  0  0  0  0  0  0
   35.2480   29.4570   39.9070 P   0  0  2  0  0  0  0  0  0  0  0  0
   35.4030   30.6210   41.1080 O   0  0  0  0  0  0  0  0  0  0  0  0
   36.3470   30.6060   41.4400 H   0  0  0  0  0  0  0  0  0  0  0  0
   36.0820   28.0090   40.3390 O   0  0  0  0  0  0  0  0  0  0  0  0
   36.8140   27.7110   42.6020 C   0  0  0  0  0  0  0  0  0  0  0  0
   37.1070   28.0400   41.2840 C   0  0  0  0  0  0  0  0  0  0  0  0
   38.4290   28.3930   40.9510 C   0  0  0  0  0  0  0  0  0  0  0  0
   39.3510   28.3890   41.9570 N   0  0  0  0  0  0  0  0  0  0  0  0
   39.0330   28.0670   43.2150 C   0  0  0  0  0  0  0  0  0  0  0  0
   37.7740   27.7300   43.5370 N   0  0  0  0  0  0  0  0  0  0  0  0
   35.8390   27.4300   42.9510 H   0  0  0  0  0  0  0  0  0  0  0  0
   38.6490   28.6480   39.9230 H   0  0  0  0  0  0  0  0  0  0  0  0
   39.8420   28.0940   43.9470 H   0  0  0  0  0  0  0  0  0  0  0  0
  1 18  1  0  0  0  0
  1  3  1  0  0  0  0
  2  1  2  0  0  0  0
  3  7  1  0  0  0  0
  3  4  2  0  0  0  0
  4  5  1  0  0  0  0
  5  6  2  0  0  0  0
  5  9  1  0  0  0  0
  6 10  1  0  0  0  0
  7  6  1  0  0  0  0
  8  4  1  0  0  0  0
 10 11  2  0  0  0  0
 10 17  1  0  0  0  0
 11 13  1  0  0  0  0
 12 11  1  0  0  0  0
 13 14  1  0  0  0  0
 13 15  2  0  0  0  0
 15 16  1  0  0  0  0
 17 15  1  0  0  0  0
 18 20  1  0  0  0  0
 20 19  2  6  0  0  0
 20 23  1  0  0  0  0
 20 21  1  0  0  0  0
 21 22  1  0  0  0  0
 23 25  1  0  0  0  0
 24 30  1  0  0  0  0
 24 29  1  0  0  0  0
 25 24  2  0  0  0  0
 26 25  1  0  0  0  0
 26 27  2  0  0  0  0
 27 28  1  0  0  0  0
 28 29  2  0  0  0  0
 28 32  1  0  0  0  0
 31 26  1  0  0  0  0
M  END
>  <minimizedAffinity>
-5.37732935

$$$$

 OpenBabel03242514383D

 32 34  0  0  0  0  0  0  0  0999 V2000
   37.5520   31.9070   39.1570 C   0  0  0  0  0  0  0  0  0  0  0  0
   37.6570   31.7080   37.8900 O   0  0  0  0  0  0  0  0  0  0  0  0
   37.0610   30.6410   39.7340 C   0  0  0  0  0  0  0  0  0  0  0  0
   35.7610   30.3520   40.2260 C   0  0  0  0  0  0  0  0  0  0  0  0
   35.6020   29.1050   40.7010 C   0  0  0  0  0  0  0  0  0  0  0  0
   36.5850   28.1800   40.7210 C   0  0  0  0  0  0  0  0  0  0  0  0
   37.9950   29.1840   39.9470 S   0  0  0  0  0  0  0  0  0  0  0  0
   34.9720   31.0870   40.2130 H   0  0  0  0  0  0  0  0  0  0  0  0
   34.6940   28.6900   41.1180 H   0  0  0  0  0  0  0  0  0  0  0  0
   36.8200   26.8260   41.1140 C   0  0  0  0  0  0  0  0  0  0  0  0
   37.2000   26.3450   42.3220 C   0  0  0  0  0  0  0  0  0  0  0  0
   37.4030   26.8660   43.2310 H   0  0  0  0  0  0  0  0  0  0  0  0
   37.2750   24.9610   42.1280 C   0  0  0  0  0  0  0  0  0  0  0  0
   37.5440   24.1890   42.8370 H   0  0  0  0  0  0  0  0  0  0  0  0
   36.9320   24.7010   40.7970 C   0  0  0  0  0  0  0  0  0  0  0  0
   36.8680   23.7530   40.2490 H   0  0  0  0  0  0  0  0  0  0  0  0
   36.6750   25.8720   40.2660 O   0  0  0  0  0  0  0  0  0  0  0  0
   37.9140   33.1600   39.5130 O   0  0  0  0  0  0  0  0  0  0  0  0
   39.8400   32.3840   41.0210 O   0  0  0  0  0  0  0  0  0  0  0  0
   39.2420   33.6060   40.4060 P   0  0  2  0  0  0  0  0  0  0  0  0
   38.7400   34.6260   41.6420 O   0  0  0  0  0  0  0  0  0  0  0  0
   38.6040   35.5420   41.2590 H   0  0  0  0  0  0  0  0  0  0  0  0
   40.3920   34.3910   39.3870 O   0  0  0  0  0  0  0  0  0  0  0  0
   41.0250   32.7960   37.7120 C   0  0  0  0  0  0  0  0  0  0  0  0
   41.3860   33.6530   38.7450 C   0  0  0  0  0  0  0  0  0  0  0  0
   42.7450   33.7460   39.1050 C   0  0  0  0  0  0  0  0  0  0  0  0
   43.6310   32.9770   38.4080 N   0  0  0  0  0  0  0  0  0  0  0  0
   43.2460   32.1630   37.4190 C   0  0  0  0  0  0  0  0  0  0  0  0
   41.9530   32.0720   37.0730 N   0  0  0  0  0  0  0  0  0  0  0  0
   40.0170   32.6580   37.3680 H   0  0  0  0  0  0  0  0  0  0  0  0
   43.0190   34.4150   39.9090 H   0  0  0  0  0  0  0  0  0  0  0  0
   44.0320   31.5890   36.9240 H   0  0  0  0  0  0  0  0  0  0  0  0
  1 18  1  0  0  0  0
  1  3  1  0  0  0  0
  2  1  2  0  0  0  0
  3  7  1  0  0  0  0
  3  4  2  0  0  0  0
  4  5  1  0  0  0  0
  5  6  2  0  0  0  0
  5  9  1  0  0  0  0
  6 10  1  0  0  0  0
  7  6  1  0  0  0  0
  8  4  1  0  0  0  0
 10 11  2  0  0  0  0
 11 12  1  0  0  0  0
 13 11  1  0  0  0  0
 13 14  1  0  0  0  0
 15 13  2  0  0  0  0
 16 15  1  0  0  0  0
 17 15  1  0  0  0  0
 17 10  1  0  0  0  0
 18 20  1  0  0  0  0
 20 19  2  1  0  0  0
 20 21  1  0  0  0  0
 22 21  1  0  0  0  0
 23 20  1  0  0  0  0
 24 25  1  0  0  0  0
 25 26  2  0  0  0  0
 25 23  1  0  0  0  0
 26 31  1  0  0  0  0
 27 26  1  0  0  0  0
 28 27  2  0  0  0  0
 29 28  1  0  0  0  0
 29 24  2  0  0  0  0
 30 24  1  0  0  0  0
 32 28  1  0  0  0  0
M  END
>  <minimizedAffinity>
-5.36320925

$$$$

 OpenBabel03242514383D

 32 34  0  0  0  0  0  0  0  0999 V2000
   38.3730   31.7390   39.3360 C   0  0  0  0  0  0  0  0  0  0  0  0
   37.4980   32.3020   38.5790 O   0  0  0  0  0  0  0  0  0  0  0  0
   37.7150   30.5520   39.9150 C   0  0  0  0  0  0  0  0  0  0  0  0
   36.4310   30.4710   40.5140 C   0  0  0  0  0  0  0  0  0  0  0  0
   36.0940   29.2500   40.9620 C   0  0  0  0  0  0  0  0  0  0  0  0
   36.8950   28.1680   40.8620 C   0  0  0  0  0  0  0  0  0  0  0  0
   38.3910   28.9470   39.9960 S   0  0  0  0  0  0  0  0  0  0  0  0
   35.7870   31.3320   40.5970 H   0  0  0  0  0  0  0  0  0  0  0  0
   35.1650   28.9790   41.4470 H   0  0  0  0  0  0  0  0  0  0  0  0
   36.9190   26.7760   41.1900 C   0  0  0  0  0  0  0  0  0  0  0  0
   37.1020   26.1900   42.3960 C   0  0  0  0  0  0  0  0  0  0  0  0
   37.2680   26.6330   43.3530 H   0  0  0  0  0  0  0  0  0  0  0  0
   37.0280   24.8190   42.1230 C   0  0  0  0  0  0  0  0  0  0  0  0
   37.1220   23.9840   42.8040 H   0  0  0  0  0  0  0  0  0  0  0  0
   36.8020   24.6740   40.7490 C   0  0  0  0  0  0  0  0  0  0  0  0
   36.6830   23.7710   40.1380 H   0  0  0  0  0  0  0  0  0  0  0  0
   36.7500   25.8940   40.2720 O   0  0  0  0  0  0  0  0  0  0  0  0
   39.5510   32.4030   39.3420 O   0  0  0  0  0  0  0  0  0  0  0  0
   41.3690   33.7900   38.1780 O   0  0  0  0  0  0  0  0  0  0  0  0
   40.6700   32.4730   38.1160 P   0  0  2  0  0  0  0  0  0  0  0  0
   39.8640   32.3720   36.6470 O   0  0  0  0  0  0  0  0  0  0  0  0
   39.6370   31.4120   36.4770 H   0  0  0  0  0  0  0  0  0  0  0  0
   41.8040   31.1830   38.2880 O   0  0  0  0  0  0  0  0  0  0  0  0
   42.4820   30.0490   36.2870 C   0  0  0  0  0  0  0  0  0  0  0  0
   42.7660   30.9520   37.3050 C   0  0  0  0  0  0  0  0  0  0  0  0
   44.0150   31.6020   37.3060 C   0  0  0  0  0  0  0  0  0  0  0  0
   44.8790   31.3000   36.2940 N   0  0  0  0  0  0  0  0  0  0  0  0
   44.5720   30.4250   35.3310 C   0  0  0  0  0  0  0  0  0  0  0  0
   43.3820   29.8030   35.3260 N   0  0  0  0  0  0  0  0  0  0  0  0
   41.5590   29.5070   36.2020 H   0  0  0  0  0  0  0  0  0  0  0  0
   44.2290   32.3030   38.1010 H   0  0  0  0  0  0  0  0  0  0  0  0
   45.3310   30.2510   34.5670 H   0  0  0  0  0  0  0  0  0  0  0  0
  1 18  1  0  0  0  0
  1  3  1  0  0  0  0
  2  1  2  0  0  0  0
  3  7  1  0  0  0  0
  3  4  2  0  0  0  0
  4  8  1  0  0  0  0
  4  5  1  0  0  0  0
  5  9  1  0  0  0  0
  6  5  2  0  0  0  0
  6 10  1  0  0  0  0
  7  6  1  0  0  0  0
 10 11  2  0  0  0  0
 11 12  1  0  0  0  0
 13 11  1  0  0  0  0
 13 14  1  0  0  0  0
 15 13  2  0  0  0  0
 16 15  1  0  0  0  0
 17 15  1  0  0  0  0
 17 10  1  0  0  0  0
 20 19  2  1  0  0  0
 20 23  1  0  0  0  0
 20 18  1  0  0  0  0
 21 20  1  0  0  0  0
 22 21  1  0  0  0  0
 24 25  1  0  0  0  0
 25 26  2  0  0  0  0
 25 23  1  0  0  0  0
 26 31  1  0  0  0  0
 27 26  1  0  0  0  0
 28 27  2  0  0  0  0
 29 28  1  0  0  0  0
 29 24  2  0  0  0  0
 30 24  1  0  0  0  0
 32 28  1  0  0  0  0
M  END
>  <minimizedAffinity>
-5.29902458

$$$$

 OpenBabel03242514383D

 32 34  0  0  0  0  0  0  0  0999 V2000
   37.4320   30.6180   41.1980 C   0  0  0  0  0  0  0  0  0  0  0  0
   36.2170   31.0270   41.0780 O   0  0  0  0  0  0  0  0  0  0  0  0
   37.3530   29.1760   41.4990 C   0  0  0  0  0  0  0  0  0  0  0  0
   37.2150   28.5560   42.7680 C   0  0  0  0  0  0  0  0  0  0  0  0
   37.1760   27.2120   42.7380 C   0  0  0  0  0  0  0  0  0  0  0  0
   37.2590   26.4860   41.6030 C   0  0  0  0  0  0  0  0  0  0  0  0
   37.4190   27.8830   40.3310 S   0  0  0  0  0  0  0  0  0  0  0  0
   37.1490   29.1310   43.6780 H   0  0  0  0  0  0  0  0  0  0  0  0
   37.0760   26.5550   43.5920 H   0  0  0  0  0  0  0  0  0  0  0  0
   37.2580   25.1270   41.1580 C   0  0  0  0  0  0  0  0  0  0  0  0
   38.0760   24.1120   41.5250 C   0  0  0  0  0  0  0  0  0  0  0  0
   38.8880   24.1050   42.2180 H   0  0  0  0  0  0  0  0  0  0  0  0
   37.6190   23.0200   40.7780 C   0  0  0  0  0  0  0  0  0  0  0  0
   37.9900   22.0040   40.7620 H   0  0  0  0  0  0  0  0  0  0  0  0
   36.5430   23.4620   40.0000 C   0  0  0  0  0  0  0  0  0  0  0  0
   35.9120   22.9210   39.2840 H   0  0  0  0  0  0  0  0  0  0  0  0
   36.3970   24.7320   40.2910 O   0  0  0  0  0  0  0  0  0  0  0  0
   38.3300   31.6120   41.0150 O   0  0  0  0  0  0  0  0  0  0  0  0
   39.3970   33.7640   40.1120 O   0  0  0  0  0  0  0  0  0  0  0  0
   38.2950   32.7930   39.8460 P   0  0  2  0  0  0  0  0  0  0  0  0
   36.8330   33.6110   39.9520 O   0  0  0  0  0  0  0  0  0  0  0  0
   36.1280   33.0560   39.5090 H   0  0  0  0  0  0  0  0  0  0  0  0
   38.4890   32.0760   38.2880 O   0  0  0  0  0  0  0  0  0  0  0  0
   40.6780   32.2270   37.3200 C   0  0  0  0  0  0  0  0  0  0  0  0
   39.6930   31.4640   37.9370 C   0  0  0  0  0  0  0  0  0  0  0  0
   39.9460   30.1020   38.1850 C   0  0  0  0  0  0  0  0  0  0  0  0
   41.1580   29.6100   37.7990 N   0  0  0  0  0  0  0  0  0  0  0  0
   42.0830   30.3730   37.2070 C   0  0  0  0  0  0  0  0  0  0  0  0
   41.8450   31.6730   36.9690 N   0  0  0  0  0  0  0  0  0  0  0  0
   40.5760   33.2700   37.0900 H   0  0  0  0  0  0  0  0  0  0  0  0
   39.1750   29.5150   38.6650 H   0  0  0  0  0  0  0  0  0  0  0  0
   43.0210   29.8850   36.9360 H   0  0  0  0  0  0  0  0  0  0  0  0
  1  3  1  0  0  0  0
  2  1  2  0  0  0  0
  3  4  2  0  0  0  0
  4  8  1  0  0  0  0
  5  4  1  0  0  0  0
  5  9  1  0  0  0  0
  6  5  2  0  0  0  0
  7  3  1  0  0  0  0
  7  6  1  0  0  0  0
 10 11  2  0  0  0  0
 10  6  1  0  0  0  0
 11 12  1  0  0  0  0
 13 11  1  0  0  0  0
 14 13  1  0  0  0  0
 15 17  1  0  0  0  0
 15 13  2  0  0  0  0
 16 15  1  0  0  0  0
 17 10  1  0  0  0  0
 18  1  1  0  0  0  0
 20 21  1  0  0  0  0
 20 19  2  1  0  0  0
 20 18  1  0  0  0  0
 22 21  1  0  0  0  0
 23 20  1  0  0  0  0
 24 25  1  0  0  0  0
 25 26  2  0  0  0  0
 25 23  1  0  0  0  0
 26 31  1  0  0  0  0
 27 26  1  0  0  0  0
 28 27  2  0  0  0  0
 29 28  1  0  0  0  0
 29 24  2  0  0  0  0
 30 24  1  0  0  0  0
 32 28  1  0  0  0  0
M  END
>  <minimizedAffinity>
-5.26629066

$$$$

 OpenBabel03242514383D

 32 34  0  0  0  0  0  0  0  0999 V2000
   37.5990   32.2400   39.2870 C   0  0  0  0  0  0  0  0  0  0  0  0
   37.6650   32.2100   38.0010 O   0  0  0  0  0  0  0  0  0  0  0  0
   38.7140   33.0930   39.7380 C   0  0  0  0  0  0  0  0  0  0  0  0
   38.6700   34.4610   40.1120 C   0  0  0  0  0  0  0  0  0  0  0  0
   39.8530   34.9850   40.4770 C   0  0  0  0  0  0  0  0  0  0  0  0
   41.0080   34.2850   40.4960 C   0  0  0  0  0  0  0  0  0  0  0  0
   40.3770   32.5960   39.9080 S   0  0  0  0  0  0  0  0  0  0  0  0
   37.7510   35.0250   40.1000 H   0  0  0  0  0  0  0  0  0  0  0  0
   40.0320   36.0030   40.7960 H   0  0  0  0  0  0  0  0  0  0  0  0
   42.3950   34.4510   40.7980 C   0  0  0  0  0  0  0  0  0  0  0  0
   42.9670   35.0990   41.8400 C   0  0  0  0  0  0  0  0  0  0  0  0
   42.5130   35.6210   42.6530 H   0  0  0  0  0  0  0  0  0  0  0  0
   44.3420   34.9390   41.6280 C   0  0  0  0  0  0  0  0  0  0  0  0
   45.1690   35.3000   42.2240 H   0  0  0  0  0  0  0  0  0  0  0  0
   44.5030   34.1950   40.4540 C   0  0  0  0  0  0  0  0  0  0  0  0
   45.4140   33.8560   39.9450 H   0  0  0  0  0  0  0  0  0  0  0  0
   43.2890   33.9460   40.0260 O   0  0  0  0  0  0  0  0  0  0  0  0
   36.5680   31.5070   39.7650 O   0  0  0  0  0  0  0  0  0  0  0  0
   37.2930   29.0450   39.7210 O   0  0  0  0  0  0  0  0  0  0  0  0
   36.6590   30.0730   40.5990 P   0  0  2  0  0  0  0  0  0  0  0  0
   35.1010   29.5640   40.9640 O   0  0  0  0  0  0  0  0  0  0  0  0
   34.7770   30.0840   41.7570 H   0  0  0  0  0  0  0  0  0  0  0  0
   37.5890   30.2930   42.0360 O   0  0  0  0  0  0  0  0  0  0  0  0
   39.7220   29.2570   42.3940 C   0  0  0  0  0  0  0  0  0  0  0  0
   38.3420   29.2410   42.5590 C   0  0  0  0  0  0  0  0  0  0  0  0
   37.7530   28.1630   43.2470 C   0  0  0  0  0  0  0  0  0  0  0  0
   38.5860   27.1890   43.7150 N   0  0  0  0  0  0  0  0  0  0  0  0
   39.9110   27.2380   43.5390 C   0  0  0  0  0  0  0  0  0  0  0  0
   40.4760   28.2640   42.8830 N   0  0  0  0  0  0  0  0  0  0  0  0
   40.2590   30.0340   41.8850 H   0  0  0  0  0  0  0  0  0  0  0  0
   36.6790   28.1570   43.3710 H   0  0  0  0  0  0  0  0  0  0  0  0
   40.4910   26.4100   43.9510 H   0  0  0  0  0  0  0  0  0  0  0  0
  1  3  1  0  0  0  0
  1 18  1  0  0  0  0
  2  1  2  0  0  0  0
  3  7  1  0  0  0  0
  3  4  2  0  0  0  0
  4  5  1  0  0  0  0
  5  6  2  0  0  0  0
  5  9  1  0  0  0  0
  6 10  1  0  0  0  0
  7  6  1  0  0  0  0
  8  4  1  0  0  0  0
 10 11  2  0  0  0  0
 11 12  1  0  0  0  0
 13 11  1  0  0  0  0
 13 14  1  0  0  0  0
 15 13  2  0  0  0  0
 16 15  1  0  0  0  0
 17 15  1  0  0  0  0
 17 10  1  0  0  0  0
 18 20  1  0  0  0  0
 20 19  2  6  0  0  0
 20 21  1  0  0  0  0
 20 23  1  0  0  0  0
 21 22  1  0  0  0  0
 23 25  1  0  0  0  0
 24 25  2  0  0  0  0
 24 29  1  0  0  0  0
 25 26  1  0  0  0  0
 26 31  1  0  0  0  0
 26 27  2  0  0  0  0
 28 27  1  0  0  0  0
 28 32  1  0  0  0  0
 29 28  2  0  0  0  0
 30 24  1  0  0  0  0
M  END
>  <minimizedAffinity>
-5.23856497

$$$$

 OpenBabel03242514383D

 32 34  0  0  0  0  0  0  0  0999 V2000
   37.7580   30.9470   41.3620 C   0  0  0  0  0  0  0  0  0  0  0  0
   36.5480   31.2180   41.0190 O   0  0  0  0  0  0  0  0  0  0  0  0
   37.7730   29.5180   41.7270 C   0  0  0  0  0  0  0  0  0  0  0  0
   37.7290   28.9480   43.0260 C   0  0  0  0  0  0  0  0  0  0  0  0
   37.7620   27.6040   43.0540 C   0  0  0  0  0  0  0  0  0  0  0  0
   37.8310   26.8330   41.9480 C   0  0  0  0  0  0  0  0  0  0  0  0
   37.8560   28.1790   40.6120 S   0  0  0  0  0  0  0  0  0  0  0  0
   37.6730   29.5580   43.9130 H   0  0  0  0  0  0  0  0  0  0  0  0
   37.7370   26.9810   43.9390 H   0  0  0  0  0  0  0  0  0  0  0  0
   37.8850   25.4580   41.5610 C   0  0  0  0  0  0  0  0  0  0  0  0
   36.9410   24.4980   41.7020 C   0  0  0  0  0  0  0  0  0  0  0  0
   35.9640   24.5580   42.1280 H   0  0  0  0  0  0  0  0  0  0  0  0
   37.5320   23.3550   41.1510 C   0  0  0  0  0  0  0  0  0  0  0  0
   37.1270   22.3570   41.0570 H   0  0  0  0  0  0  0  0  0  0  0  0
   38.8120   23.7130   40.7100 C   0  0  0  0  0  0  0  0  0  0  0  0
   39.5910   23.1140   40.2240 H   0  0  0  0  0  0  0  0  0  0  0  0
   38.9370   24.9870   40.9950 O   0  0  0  0  0  0  0  0  0  0  0  0
   38.5710   32.0240   41.2740 O   0  0  0  0  0  0  0  0  0  0  0  0
   39.2170   34.4370   40.6880 O   0  0  0  0  0  0  0  0  0  0  0  0
   38.5040   33.2430   40.1470 P   0  0  2  0  0  0  0  0  0  0  0  0
   36.8950   33.6570   39.9000 O   0  0  0  0  0  0  0  0  0  0  0  0
   36.4850   32.9770   39.2900 H   0  0  0  0  0  0  0  0  0  0  0  0
   39.2390   32.7180   38.6770 O   0  0  0  0  0  0  0  0  0  0  0  0
   37.6080   31.3400   37.5880 C   0  0  0  0  0  0  0  0  0  0  0  0
   38.8870   31.4940   38.1080 C   0  0  0  0  0  0  0  0  0  0  0  0
   39.7820   30.4090   38.0430 C   0  0  0  0  0  0  0  0  0  0  0  0
   39.3290   29.2590   37.4640 N   0  0  0  0  0  0  0  0  0  0  0  0
   38.0910   29.1460   36.9730 C   0  0  0  0  0  0  0  0  0  0  0  0
   37.2350   30.1780   37.0340 N   0  0  0  0  0  0  0  0  0  0  0  0
   36.8580   32.1080   37.5920 H   0  0  0  0  0  0  0  0  0  0  0  0
   40.7760   30.5360   38.4500 H   0  0  0  0  0  0  0  0  0  0  0  0
   37.8250   28.1840   36.5310 H   0  0  0  0  0  0  0  0  0  0  0  0
  1  3  1  0  0  0  0
  2  1  2  0  0  0  0
  3  4  2  0  0  0  0
  4  5  1  0  0  0  0
  4  8  1  0  0  0  0
  5  9  1  0  0  0  0
  6  5  2  0  0  0  0
  7  3  1  0  0  0  0
  7  6  1  0  0  0  0
 10 11  2  0  0  0  0
 10  6  1  0  0  0  0
 11 12  1  0  0  0  0
 13 11  1  0  0  0  0
 14 13  1  0  0  0  0
 15 17  1  0  0  0  0
 15 13  2  0  0  0  0
 16 15  1  0  0  0  0
 17 10  1  0  0  0  0
 18  1  1  0  0  0  0
 20 19  2  1  0  0  0
 20 18  1  0  0  0  0
 21 20  1  0  0  0  0
 22 21  1  0  0  0  0
 23 20  1  0  0  0  0
 24 30  1  0  0  0  0
 24 25  1  0  0  0  0
 25 23  1  0  0  0  0
 26 25  2  0  0  0  0
 26 31  1  0  0  0  0
 27 26  1  0  0  0  0
 28 29  1  0  0  0  0
 28 27  2  0  0  0  0
 29 24  2  0  0  0  0
 32 28  1  0  0  0  0
M  END
>  <minimizedAffinity>
-5.2369895

$$$$

 OpenBabel03242514383D

 32 34  0  0  0  0  0  0  0  0999 V2000
   36.2970   29.5610   38.2720 C   0  0  0  0  0  0  0  0  0  0  0  0
   35.0570   29.3020   38.0460 O   0  0  0  0  0  0  0  0  0  0  0  0
   36.6330   28.8960   39.5440 C   0  0  0  0  0  0  0  0  0  0  0  0
   35.8240   28.7720   40.7040 C   0  0  0  0  0  0  0  0  0  0  0  0
   36.3980   28.1130   41.7250 C   0  0  0  0  0  0  0  0  0  0  0  0
   37.6450   27.5980   41.6770 C   0  0  0  0  0  0  0  0  0  0  0  0
   38.1390   28.0990   39.9160 S   0  0  0  0  0  0  0  0  0  0  0  0
   34.8270   29.1810   40.7480 H   0  0  0  0  0  0  0  0  0  0  0  0
   35.9520   27.9120   42.6900 H   0  0  0  0  0  0  0  0  0  0  0  0
   38.5740   26.8740   42.4880 C   0  0  0  0  0  0  0  0  0  0  0  0
   39.3930   27.3360   43.4620 C   0  0  0  0  0  0  0  0  0  0  0  0
   39.5220   28.3290   43.8320 H   0  0  0  0  0  0  0  0  0  0  0  0
   40.0690   26.1940   43.9080 C   0  0  0  0  0  0  0  0  0  0  0  0
   40.8200   26.1070   44.6810 H   0  0  0  0  0  0  0  0  0  0  0  0
   39.6020   25.1080   43.1590 C   0  0  0  0  0  0  0  0  0  0  0  0
   39.8750   24.0460   43.1980 H   0  0  0  0  0  0  0  0  0  0  0  0
   38.7120   25.6060   42.3360 O   0  0  0  0  0  0  0  0  0  0  0  0
   36.8470   30.3260   37.3010 O   0  0  0  0  0  0  0  0  0  0  0  0
   37.2890   32.5860   38.4350 O   0  0  0  0  0  0  0  0  0  0  0  0
   37.9010   31.5960   37.5000 P   0  0  2  0  0  0  0  0  0  0  0  0
   38.1270   32.3430   36.0140 O   0  0  0  0  0  0  0  0  0  0  0  0
   38.7770   31.7980   35.4830 H   0  0  0  0  0  0  0  0  0  0  0  0
   39.3980   31.0160   38.1340 O   0  0  0  0  0  0  0  0  0  0  0  0
   40.8160   32.9240   38.4520 C   0  0  0  0  0  0  0  0  0  0  0  0
   40.1630   31.8170   38.9820 C   0  0  0  0  0  0  0  0  0  0  0  0
   40.2970   31.5450   40.3570 C   0  0  0  0  0  0  0  0  0  0  0  0
   41.0700   32.3960   41.0910 N   0  0  0  0  0  0  0  0  0  0  0  0
   41.6840   33.4520   40.5470 C   0  0  0  0  0  0  0  0  0  0  0  0
   41.5590   33.7150   39.2370 N   0  0  0  0  0  0  0  0  0  0  0  0
   40.7730   33.2110   37.4190 H   0  0  0  0  0  0  0  0  0  0  0  0
   39.7870   30.6820   40.7630 H   0  0  0  0  0  0  0  0  0  0  0  0
   42.2810   34.0720   41.2190 H   0  0  0  0  0  0  0  0  0  0  0  0
  1  3  1  0  0  0  0
  2  1  2  0  0  0  0
  3  7  1  0  0  0  0
  3  4  2  0  0  0  0
  4  8  1  0  0  0  0
  4  5  1  0  0  0  0
  5  9  1  0  0  0  0
  6  5  2  0  0  0  0
  6 10  1  0  0  0  0
  7  6  1  0  0  0  0
 10 11  2  0  0  0  0
 11 12  1  0  0  0  0
 11 13  1  0  0  0  0
 13 14  1  0  0  0  0
 15 16  1  0  0  0  0
 15 13  2  0  0  0  0
 17 10  1  0  0  0  0
 17 15  1  0  0  0  0
 18 20  1  0  0  0  0
 18  1  1  0  0  0  0
 20 23  1  0  0  0  0
 20 19  2  1  0  0  0
 21 20  1  0  0  0  0
 22 21  1  0  0  0  0
 23 25  1  0  0  0  0
 24 25  2  0  0  0  0
 24 29  1  0  0  0  0
 25 26  1  0  0  0  0
 26 31  1  0  0  0  0
 26 27  2  0  0  0  0
 28 27  1  0  0  0  0
 28 32  1  0  0  0  0
 29 28  2  0  0  0  0
 30 24  1  0  0  0  0
M  END
>  <minimizedAffinity>
-5.18356037

$$$$
