
 OpenBabel03252506033D

 27 29  0  0  0  0  0  0  0  0999 V2000
   37.6850   31.9330   36.5070 Cl  0  0  0  0  0  0  0  0  0  0  0  0
   37.7460   31.0110   37.9760 C   0  0  0  0  0  0  0  0  0  0  0  0
   38.9320   30.8640   38.6620 C   0  0  0  0  0  0  0  0  0  0  0  0
   38.8640   30.1160   39.8080 C   0  0  0  0  0  0  0  0  0  0  0  0
   37.7330   29.5170   40.3120 C   0  0  0  0  0  0  0  0  0  0  0  0
   36.5670   29.6800   39.6070 C   0  0  0  0  0  0  0  0  0  0  0  0
   35.1430   28.9060   40.2650 Cl  0  0  0  0  0  0  0  0  0  0  0  0
   36.5670   30.4220   38.4450 C   0  0  0  0  0  0  0  0  0  0  0  0
   39.7910   29.9860   40.3680 H   0  0  0  0  0  0  0  0  0  0  0  0
   35.6350   30.5390   37.9020 H   0  0  0  0  0  0  0  0  0  0  0  0
   41.6080   33.3020   38.1990 C   0  0  0  0  0  0  0  0  0  0  0  0
   42.4990   32.6340   37.3520 C   0  0  0  0  0  0  0  0  0  0  0  0
   42.1790   31.3270   36.9320 C   0  0  0  0  0  0  0  0  0  0  0  0
   41.0140   30.7940   37.3800 N   0  0  0  0  0  0  0  0  0  0  0  0
   40.1690   31.4630   38.2000 C   0  0  0  0  0  0  0  0  0  0  0  0
   40.4690   32.7100   38.6030 N   0  0  0  0  0  0  0  0  0  0  0  0
   41.8010   34.3050   38.5530 H   0  0  0  0  0  0  0  0  0  0  0  0
   43.4080   33.1340   37.0410 H   0  0  0  0  0  0  0  0  0  0  0  0
   42.8560   30.7960   36.2770 H   0  0  0  0  0  0  0  0  0  0  0  0
   37.7770   28.7390   41.5460 C   0  0  0  0  0  0  0  0  0  0  0  0
   37.6940   29.2720   42.8160 C   0  0  0  0  0  0  0  0  0  0  0  0
   37.5860   30.3170   43.0860 H   0  0  0  0  0  0  0  0  0  0  0  0
   37.7750   28.2010   43.6800 C   0  0  0  0  0  0  0  0  0  0  0  0
   37.7390   28.2970   44.7510 H   0  0  0  0  0  0  0  0  0  0  0  0
   37.9050   27.0590   42.8890 C   0  0  0  0  0  0  0  0  0  0  0  0
   37.9910   26.0630   43.2770 H   0  0  0  0  0  0  0  0  0  0  0  0
   37.9000   27.4370   41.6430 O   0  0  0  0  0  0  0  0  0  0  0  0
  1  2  1  0  0  0  0
  2  8  2  0  0  0  0
  2  3  1  0  0  0  0
  3  4  2  0  0  0  0
  4  5  1  0  0  0  0
  4  9  1  0  0  0  0
  5 20  1  0  0  0  0
  6  7  1  0  0  0  0
  6  5  2  0  0  0  0
  8  6  1  0  0  0  0
 10  8  1  0  0  0  0
 11 17  1  0  0  0  0
 11 16  1  0  0  0  0
 12 11  2  0  0  0  0
 13 12  1  0  0  0  0
 13 14  2  0  0  0  0
 14 15  1  0  0  0  0
 15 16  2  0  0  0  0
 15  3  1  0  0  0  0
 18 12  1  0  0  0  0
 19 13  1  0  0  0  0
 20 27  1  0  0  0  0
 20 21  2  0  0  0  0
 21 22  1  0  0  0  0
 21 23  1  0  0  0  0
 23 24  1  0  0  0  0
 25 26  1  0  0  0  0
 25 23  2  0  0  0  0
 27 25  1  0  0  0  0
M  END
>  <minimizedAffinity>
-4.77939224

$$$$

 OpenBabel03252506033D

 27 29  0  0  0  0  0  0  0  0999 V2000
   36.9810   32.9750   39.6960 Cl  0  0  0  0  0  0  0  0  0  0  0  0
   37.6360   31.5140   40.3660 C   0  0  0  0  0  0  0  0  0  0  0  0
   38.9970   31.2940   40.3700 C   0  0  0  0  0  0  0  0  0  0  0  0
   39.4020   30.1080   40.9230 C   0  0  0  0  0  0  0  0  0  0  0  0
   38.5780   29.1460   41.4610 C   0  0  0  0  0  0  0  0  0  0  0  0
   37.2280   29.3930   41.4420 C   0  0  0  0  0  0  0  0  0  0  0  0
   36.1990   28.1550   42.1280 Cl  0  0  0  0  0  0  0  0  0  0  0  0
   36.7540   30.5690   40.8990 C   0  0  0  0  0  0  0  0  0  0  0  0
   40.4760   29.9120   40.9380 H   0  0  0  0  0  0  0  0  0  0  0  0
   35.6830   30.7450   40.8940 H   0  0  0  0  0  0  0  0  0  0  0  0
   41.1290   33.0360   37.9760 C   0  0  0  0  0  0  0  0  0  0  0  0
   41.7020   34.0540   38.7470 C   0  0  0  0  0  0  0  0  0  0  0  0
   41.3530   34.1450   40.1100 C   0  0  0  0  0  0  0  0  0  0  0  0
   40.4740   33.2310   40.5930 N   0  0  0  0  0  0  0  0  0  0  0  0
   39.9340   32.2550   39.8240 C   0  0  0  0  0  0  0  0  0  0  0  0
   40.2640   32.1630   38.5240 N   0  0  0  0  0  0  0  0  0  0  0  0
   41.3600   32.9170   36.9270 H   0  0  0  0  0  0  0  0  0  0  0  0
   42.3960   34.7420   38.2810 H   0  0  0  0  0  0  0  0  0  0  0  0
   41.7860   34.9250   40.7200 H   0  0  0  0  0  0  0  0  0  0  0  0
   39.1220   27.9160   42.0260 C   0  0  0  0  0  0  0  0  0  0  0  0
   39.6230   27.7900   43.3050 C   0  0  0  0  0  0  0  0  0  0  0  0
   39.6890   28.5610   44.0650 H   0  0  0  0  0  0  0  0  0  0  0  0
   40.0260   26.4780   43.4240 C   0  0  0  0  0  0  0  0  0  0  0  0
   40.4640   26.0700   44.3180 H   0  0  0  0  0  0  0  0  0  0  0  0
   39.7490   25.8620   42.2040 C   0  0  0  0  0  0  0  0  0  0  0  0
   39.9530   24.8320   41.9870 H   0  0  0  0  0  0  0  0  0  0  0  0
   39.2180   26.7560   41.4190 O   0  0  0  0  0  0  0  0  0  0  0  0
  1  2  1  0  0  0  0
  2  3  2  0  0  0  0
  2  8  1  0  0  0  0
  3  4  1  0  0  0  0
  4  9  1  0  0  0  0
  4  5  2  0  0  0  0
  5 20  1  0  0  0  0
  6  5  1  0  0  0  0
  6  7  1  0  0  0  0
  8  6  2  0  0  0  0
 10  8  1  0  0  0  0
 11 16  2  0  0  0  0
 11 12  1  0  0  0  0
 12 13  2  0  0  0  0
 13 14  1  0  0  0  0
 13 19  1  0  0  0  0
 15  3  1  0  0  0  0
 15 14  2  0  0  0  0
 16 15  1  0  0  0  0
 17 11  1  0  0  0  0
 18 12  1  0  0  0  0
 20 21  2  0  0  0  0
 21 23  1  0  0  0  0
 21 22  1  0  0  0  0
 23 24  1  0  0  0  0
 25 23  2  0  0  0  0
 26 25  1  0  0  0  0
 27 20  1  0  0  0  0
 27 25  1  0  0  0  0
M  END
>  <minimizedAffinity>
-4.7598443

$$$$

 OpenBabel03252506033D

 27 29  0  0  0  0  0  0  0  0999 V2000
   40.1920   30.8110   42.8860 Cl  0  0  0  0  0  0  0  0  0  0  0  0
   39.5980   29.2540   42.3990 C   0  0  0  0  0  0  0  0  0  0  0  0
   38.7780   29.1300   41.2990 C   0  0  0  0  0  0  0  0  0  0  0  0
   38.3700   27.8550   41.0070 C   0  0  0  0  0  0  0  0  0  0  0  0
   38.7060   26.7210   41.7090 C   0  0  0  0  0  0  0  0  0  0  0  0
   39.5240   26.8770   42.8000 C   0  0  0  0  0  0  0  0  0  0  0  0
   39.9360   25.4210   43.6800 Cl  0  0  0  0  0  0  0  0  0  0  0  0
   39.9710   28.1340   43.1480 C   0  0  0  0  0  0  0  0  0  0  0  0
   37.7190   27.7310   40.1390 H   0  0  0  0  0  0  0  0  0  0  0  0
   40.6160   28.2350   44.0140 H   0  0  0  0  0  0  0  0  0  0  0  0
   36.9380   32.0920   40.2250 C   0  0  0  0  0  0  0  0  0  0  0  0
   37.5810   32.4490   39.0350 C   0  0  0  0  0  0  0  0  0  0  0  0
   38.6630   31.6610   38.5920 C   0  0  0  0  0  0  0  0  0  0  0  0
   39.0160   30.5960   39.3550 N   0  0  0  0  0  0  0  0  0  0  0  0
   38.3760   30.2730   40.5040 C   0  0  0  0  0  0  0  0  0  0  0  0
   37.3430   31.0210   40.9320 N   0  0  0  0  0  0  0  0  0  0  0  0
   36.1030   32.6580   40.6140 H   0  0  0  0  0  0  0  0  0  0  0  0
   37.2340   33.3140   38.4860 H   0  0  0  0  0  0  0  0  0  0  0  0
   39.1710   31.9220   37.6740 H   0  0  0  0  0  0  0  0  0  0  0  0
   38.2110   25.4090   41.3070 C   0  0  0  0  0  0  0  0  0  0  0  0
   36.9570   24.9150   41.6020 C   0  0  0  0  0  0  0  0  0  0  0  0
   36.1700   25.4100   42.1620 H   0  0  0  0  0  0  0  0  0  0  0  0
   36.9050   23.6580   41.0400 C   0  0  0  0  0  0  0  0  0  0  0  0
   36.0440   23.0150   41.1010 H   0  0  0  0  0  0  0  0  0  0  0  0
   38.1380   23.4440   40.4240 C   0  0  0  0  0  0  0  0  0  0  0  0
   38.4030   22.5480   39.8970 H   0  0  0  0  0  0  0  0  0  0  0  0
   38.8660   24.5080   40.6130 O   0  0  0  0  0  0  0  0  0  0  0  0
  2  1  1  0  0  0  0
  2  8  1  0  0  0  0
  3  2  2  0  0  0  0
  4  3  1  0  0  0  0
  4  5  2  0  0  0  0
  5  6  1  0  0  0  0
  6  8  2  0  0  0  0
  6  7  1  0  0  0  0
  8 10  1  0  0  0  0
  9  4  1  0  0  0  0
 11 17  1  0  0  0  0
 11 16  1  0  0  0  0
 12 11  2  0  0  0  0
 13 12  1  0  0  0  0
 13 14  2  0  0  0  0
 14 15  1  0  0  0  0
 15 16  2  0  0  0  0
 15  3  1  0  0  0  0
 18 12  1  0  0  0  0
 19 13  1  0  0  0  0
 20 21  2  0  0  0  0
 20  5  1  0  0  0  0
 21 22  1  0  0  0  0
 23 24  1  0  0  0  0
 23 21  1  0  0  0  0
 25 27  1  0  0  0  0
 25 23  2  0  0  0  0
 26 25  1  0  0  0  0
 27 20  1  0  0  0  0
M  END
>  <minimizedAffinity>
-4.71919727

$$$$

 OpenBabel03252506033D

 27 29  0  0  0  0  0  0  0  0999 V2000
   35.5120   28.9170   41.0560 Cl  0  0  0  0  0  0  0  0  0  0  0  0
   36.8390   29.9830   40.7150 C   0  0  0  0  0  0  0  0  0  0  0  0
   38.1400   29.5420   40.8330 C   0  0  0  0  0  0  0  0  0  0  0  0
   39.1070   30.4680   40.5400 C   0  0  0  0  0  0  0  0  0  0  0  0
   38.8840   31.7680   40.1480 C   0  0  0  0  0  0  0  0  0  0  0  0
   37.5790   32.1780   40.0400 C   0  0  0  0  0  0  0  0  0  0  0  0
   37.3210   33.8350   39.5420 Cl  0  0  0  0  0  0  0  0  0  0  0  0
   36.5580   31.2940   40.3200 C   0  0  0  0  0  0  0  0  0  0  0  0
   40.1440   30.1420   40.6260 H   0  0  0  0  0  0  0  0  0  0  0  0
   35.5330   31.6390   40.2290 H   0  0  0  0  0  0  0  0  0  0  0  0
   38.9670   25.9950   40.6230 C   0  0  0  0  0  0  0  0  0  0  0  0
   39.0740   25.6160   41.9660 C   0  0  0  0  0  0  0  0  0  0  0  0
   38.8580   26.5920   42.9600 C   0  0  0  0  0  0  0  0  0  0  0  0
   38.5590   27.8500   42.5480 N   0  0  0  0  0  0  0  0  0  0  0  0
   38.4610   28.1890   41.2410 C   0  0  0  0  0  0  0  0  0  0  0  0
   38.6650   27.2630   40.2880 N   0  0  0  0  0  0  0  0  0  0  0  0
   39.1210   25.2900   39.8180 H   0  0  0  0  0  0  0  0  0  0  0  0
   39.3170   24.5890   42.2070 H   0  0  0  0  0  0  0  0  0  0  0  0
   38.9370   26.3170   44.0030 H   0  0  0  0  0  0  0  0  0  0  0  0
   39.9940   32.6700   39.8600 C   0  0  0  0  0  0  0  0  0  0  0  0
   40.6100   32.7960   38.6320 C   0  0  0  0  0  0  0  0  0  0  0  0
   40.3720   32.2610   37.7190 H   0  0  0  0  0  0  0  0  0  0  0  0
   41.5950   33.7450   38.8000 C   0  0  0  0  0  0  0  0  0  0  0  0
   42.2530   34.0630   38.0100 H   0  0  0  0  0  0  0  0  0  0  0  0
   41.5320   34.1550   40.1310 C   0  0  0  0  0  0  0  0  0  0  0  0
   42.1790   34.8910   40.5680 H   0  0  0  0  0  0  0  0  0  0  0  0
   40.5720   33.4890   40.7070 O   0  0  0  0  0  0  0  0  0  0  0  0
  2  3  1  0  0  0  0
  2  1  1  0  0  0  0
  3 15  1  0  0  0  0
  4  9  1  0  0  0  0
  4  3  2  0  0  0  0
  5  4  1  0  0  0  0
  6  5  2  0  0  0  0
  6  8  1  0  0  0  0
  7  6  1  0  0  0  0
  8  2  2  0  0  0  0
 10  8  1  0  0  0  0
 11 12  1  0  0  0  0
 12 18  1  0  0  0  0
 12 13  2  0  0  0  0
 13 19  1  0  0  0  0
 14 13  1  0  0  0  0
 15 14  2  0  0  0  0
 16 11  2  0  0  0  0
 16 15  1  0  0  0  0
 17 11  1  0  0  0  0
 20  5  1  0  0  0  0
 20 27  1  0  0  0  0
 21 23  1  0  0  0  0
 21 20  2  0  0  0  0
 22 21  1  0  0  0  0
 23 25  2  0  0  0  0
 24 23  1  0  0  0  0
 25 26  1  0  0  0  0
 25 27  1  0  0  0  0
M  END
>  <minimizedAffinity>
-4.69074821

$$$$

 OpenBabel03252506033D

 27 29  0  0  0  0  0  0  0  0999 V2000
   37.7340   31.7970   36.7960 Cl  0  0  0  0  0  0  0  0  0  0  0  0
   37.6670   30.6050   38.0560 C   0  0  0  0  0  0  0  0  0  0  0  0
   38.3870   30.7730   39.2180 C   0  0  0  0  0  0  0  0  0  0  0  0
   38.2600   29.7710   40.1440 C   0  0  0  0  0  0  0  0  0  0  0  0
   37.4890   28.6400   40.0050 C   0  0  0  0  0  0  0  0  0  0  0  0
   36.7830   28.5000   38.8360 C   0  0  0  0  0  0  0  0  0  0  0  0
   35.8110   27.0520   38.6810 Cl  0  0  0  0  0  0  0  0  0  0  0  0
   36.8670   29.4740   37.8630 C   0  0  0  0  0  0  0  0  0  0  0  0
   38.8210   29.8820   41.0730 H   0  0  0  0  0  0  0  0  0  0  0  0
   36.3010   29.3430   36.9470 H   0  0  0  0  0  0  0  0  0  0  0  0
   41.3250   32.9370   39.2590 C   0  0  0  0  0  0  0  0  0  0  0  0
   40.8450   34.1100   39.8510 C   0  0  0  0  0  0  0  0  0  0  0  0
   39.4920   34.1610   40.2430 C   0  0  0  0  0  0  0  0  0  0  0  0
   38.7330   33.0590   40.0190 N   0  0  0  0  0  0  0  0  0  0  0  0
   39.2240   31.9350   39.4450 C   0  0  0  0  0  0  0  0  0  0  0  0
   40.5140   31.8800   39.0690 N   0  0  0  0  0  0  0  0  0  0  0  0
   42.3530   32.8400   38.9390 H   0  0  0  0  0  0  0  0  0  0  0  0
   41.5190   34.9440   39.9930 H   0  0  0  0  0  0  0  0  0  0  0  0
   39.1030   35.0600   40.7020 H   0  0  0  0  0  0  0  0  0  0  0  0
   37.4280   27.6330   41.0590 C   0  0  0  0  0  0  0  0  0  0  0  0
   36.6680   27.7390   42.2060 C   0  0  0  0  0  0  0  0  0  0  0  0
   36.0190   28.5600   42.4930 H   0  0  0  0  0  0  0  0  0  0  0  0
   36.9010   26.5830   42.9200 C   0  0  0  0  0  0  0  0  0  0  0  0
   36.4440   26.3700   43.8710 H   0  0  0  0  0  0  0  0  0  0  0  0
   37.7970   25.8230   42.1690 C   0  0  0  0  0  0  0  0  0  0  0  0
   38.1720   24.8630   42.4650 H   0  0  0  0  0  0  0  0  0  0  0  0
   38.0730   26.4910   41.0850 O   0  0  0  0  0  0  0  0  0  0  0  0
  1  2  1  0  0  0  0
  2  3  1  0  0  0  0
  3 15  1  0  0  0  0
  3  4  2  0  0  0  0
  4  9  1  0  0  0  0
  5  4  1  0  0  0  0
  5 20  1  0  0  0  0
  6  5  2  0  0  0  0
  7  6  1  0  0  0  0
  8  2  2  0  0  0  0
  8  6  1  0  0  0  0
 10  8  1  0  0  0  0
 11 12  1  0  0  0  0
 12 18  1  0  0  0  0
 12 13  2  0  0  0  0
 13 19  1  0  0  0  0
 14 13  1  0  0  0  0
 15 14  2  0  0  0  0
 16 11  2  0  0  0  0
 16 15  1  0  0  0  0
 17 11  1  0  0  0  0
 20 27  1  0  0  0  0
 20 21  2  0  0  0  0
 21 22  1  0  0  0  0
 21 23  1  0  0  0  0
 23 24  1  0  0  0  0
 25 26  1  0  0  0  0
 25 23  2  0  0  0  0
 27 25  1  0  0  0  0
M  END
>  <minimizedAffinity>
-4.51162863

$$$$

 OpenBabel03252506033D

 27 29  0  0  0  0  0  0  0  0999 V2000
   34.7570   29.1360   36.7910 Cl  0  0  0  0  0  0  0  0  0  0  0  0
   35.5620   28.0440   37.8740 C   0  0  0  0  0  0  0  0  0  0  0  0
   36.4770   28.5140   38.7910 C   0  0  0  0  0  0  0  0  0  0  0  0
   37.0510   27.5640   39.5940 C   0  0  0  0  0  0  0  0  0  0  0  0
   36.7900   26.2140   39.5570 C   0  0  0  0  0  0  0  0  0  0  0  0
   35.8740   25.7750   38.6330 C   0  0  0  0  0  0  0  0  0  0  0  0
   35.5610   24.0540   38.6020 Cl  0  0  0  0  0  0  0  0  0  0  0  0
   35.2600   26.6810   37.7940 C   0  0  0  0  0  0  0  0  0  0  0  0
   37.7790   27.9130   40.3280 H   0  0  0  0  0  0  0  0  0  0  0  0
   34.5400   26.3130   37.0710 H   0  0  0  0  0  0  0  0  0  0  0  0
   36.7760   31.8810   40.1640 C   0  0  0  0  0  0  0  0  0  0  0  0
   37.4210   32.5830   39.1390 C   0  0  0  0  0  0  0  0  0  0  0  0
   37.7580   31.8920   37.9580 C   0  0  0  0  0  0  0  0  0  0  0  0
   37.4340   30.5760   37.8890 N   0  0  0  0  0  0  0  0  0  0  0  0
   36.8090   29.9210   38.8960 C   0  0  0  0  0  0  0  0  0  0  0  0
   36.4840   30.5750   40.0250 N   0  0  0  0  0  0  0  0  0  0  0  0
   36.4930   32.3590   41.0910 H   0  0  0  0  0  0  0  0  0  0  0  0
   37.6430   33.6340   39.2780 H   0  0  0  0  0  0  0  0  0  0  0  0
   38.2570   32.4190   37.1560 H   0  0  0  0  0  0  0  0  0  0  0  0
   37.4620   25.2890   40.4640 C   0  0  0  0  0  0  0  0  0  0  0  0
   37.0810   25.0470   41.7670 C   0  0  0  0  0  0  0  0  0  0  0  0
   36.2490   25.4920   42.3040 H   0  0  0  0  0  0  0  0  0  0  0  0
   37.9760   24.1200   42.2560 C   0  0  0  0  0  0  0  0  0  0  0  0
   37.9390   23.7280   43.2570 H   0  0  0  0  0  0  0  0  0  0  0  0
   38.8660   23.8400   41.2190 C   0  0  0  0  0  0  0  0  0  0  0  0
   39.6840   23.1490   41.2950 H   0  0  0  0  0  0  0  0  0  0  0  0
   38.5150   24.5560   40.1900 O   0  0  0  0  0  0  0  0  0  0  0  0
  1  2  1  0  0  0  0
  2  3  1  0  0  0  0
  3 15  1  0  0  0  0
  3  4  2  0  0  0  0
  4  9  1  0  0  0  0
  5  4  1  0  0  0  0
  5 20  1  0  0  0  0
  6  5  2  0  0  0  0
  7  6  1  0  0  0  0
  8  2  2  0  0  0  0
  8  6  1  0  0  0  0
 10  8  1  0  0  0  0
 11 17  1  0  0  0  0
 12 18  1  0  0  0  0
 12 11  2  0  0  0  0
 13 12  1  0  0  0  0
 14 13  2  0  0  0  0
 14 15  1  0  0  0  0
 15 16  2  0  0  0  0
 16 11  1  0  0  0  0
 19 13  1  0  0  0  0
 20 21  2  0  0  0  0
 21 23  1  0  0  0  0
 21 22  1  0  0  0  0
 23 24  1  0  0  0  0
 25 26  1  0  0  0  0
 25 23  2  0  0  0  0
 27 20  1  0  0  0  0
 27 25  1  0  0  0  0
M  END
>  <minimizedAffinity>
-4.46219015

$$$$

 OpenBabel03252506033D

 27 29  0  0  0  0  0  0  0  0999 V2000
   36.2830   31.0120   40.1590 Cl  0  0  0  0  0  0  0  0  0  0  0  0
   37.9680   31.3160   40.4520 C   0  0  0  0  0  0  0  0  0  0  0  0
   38.7150   30.4410   41.2100 C   0  0  0  0  0  0  0  0  0  0  0  0
   40.0320   30.7800   41.3770 C   0  0  0  0  0  0  0  0  0  0  0  0
   40.6490   31.8960   40.8580 C   0  0  0  0  0  0  0  0  0  0  0  0
   39.8780   32.7480   40.1070 C   0  0  0  0  0  0  0  0  0  0  0  0
   40.6830   34.1610   39.4600 Cl  0  0  0  0  0  0  0  0  0  0  0  0
   38.5440   32.4640   39.9010 C   0  0  0  0  0  0  0  0  0  0  0  0
   40.6450   30.1030   41.9740 H   0  0  0  0  0  0  0  0  0  0  0  0
   37.9530   33.1510   39.3040 H   0  0  0  0  0  0  0  0  0  0  0  0
   37.2900   28.1640   43.6800 C   0  0  0  0  0  0  0  0  0  0  0  0
   37.0570   27.0010   42.9380 C   0  0  0  0  0  0  0  0  0  0  0  0
   37.3940   26.9960   41.5690 C   0  0  0  0  0  0  0  0  0  0  0  0
   37.9280   28.1310   41.0520 N   0  0  0  0  0  0  0  0  0  0  0  0
   38.1440   29.2440   41.7930 C   0  0  0  0  0  0  0  0  0  0  0  0
   37.8250   29.2550   43.0990 N   0  0  0  0  0  0  0  0  0  0  0  0
   37.0530   28.2270   44.7330 H   0  0  0  0  0  0  0  0  0  0  0  0
   36.6270   26.1380   43.4310 H   0  0  0  0  0  0  0  0  0  0  0  0
   37.2200   26.1050   40.9810 H   0  0  0  0  0  0  0  0  0  0  0  0
   42.0630   32.1580   41.1000 C   0  0  0  0  0  0  0  0  0  0  0  0
   43.1000   31.6330   40.3570 C   0  0  0  0  0  0  0  0  0  0  0  0
   43.0280   30.9650   39.5050 H   0  0  0  0  0  0  0  0  0  0  0  0
   44.2560   32.1310   40.9190 C   0  0  0  0  0  0  0  0  0  0  0  0
   45.2420   31.8990   40.5550 H   0  0  0  0  0  0  0  0  0  0  0  0
   43.8650   32.9410   41.9850 C   0  0  0  0  0  0  0  0  0  0  0  0
   44.5460   33.4720   42.6210 H   0  0  0  0  0  0  0  0  0  0  0  0
   42.5640   32.9190   42.0440 O   0  0  0  0  0  0  0  0  0  0  0  0
  1  2  1  0  0  0  0
  2  3  1  0  0  0  0
  3  4  2  0  0  0  0
  3 15  1  0  0  0  0
  4  9  1  0  0  0  0
  5 20  1  0  0  0  0
  5  4  1  0  0  0  0
  6  5  2  0  0  0  0
  7  6  1  0  0  0  0
  8  6  1  0  0  0  0
  8  2  2  0  0  0  0
 10  8  1  0  0  0  0
 11 17  1  0  0  0  0
 12 18  1  0  0  0  0
 12 11  2  0  0  0  0
 13 12  1  0  0  0  0
 14 13  2  0  0  0  0
 14 15  1  0  0  0  0
 15 16  2  0  0  0  0
 16 11  1  0  0  0  0
 19 13  1  0  0  0  0
 20 27  1  0  0  0  0
 21 23  1  0  0  0  0
 21 20  2  0  0  0  0
 22 21  1  0  0  0  0
 23 25  2  0  0  0  0
 24 23  1  0  0  0  0
 25 27  1  0  0  0  0
 25 26  1  0  0  0  0
M  END
>  <minimizedAffinity>
-4.44903803

$$$$

 OpenBabel03252506033D

 27 29  0  0  0  0  0  0  0  0999 V2000
   36.3980   30.2200   38.1550 Cl  0  0  0  0  0  0  0  0  0  0  0  0
   37.2640   29.1740   39.2380 C   0  0  0  0  0  0  0  0  0  0  0  0
   38.3350   29.6490   39.9630 C   0  0  0  0  0  0  0  0  0  0  0  0
   38.9430   28.7360   40.7850 C   0  0  0  0  0  0  0  0  0  0  0  0
   38.5750   27.4190   40.9370 C   0  0  0  0  0  0  0  0  0  0  0  0
   37.5050   26.9760   40.2010 C   0  0  0  0  0  0  0  0  0  0  0  0
   37.0580   25.2970   40.4090 Cl  0  0  0  0  0  0  0  0  0  0  0  0
   36.8480   27.8440   39.3550 C   0  0  0  0  0  0  0  0  0  0  0  0
   39.7930   29.0890   41.3700 H   0  0  0  0  0  0  0  0  0  0  0  0
   36.0050   27.4730   38.7820 H   0  0  0  0  0  0  0  0  0  0  0  0
   38.6120   33.2310   40.5960 C   0  0  0  0  0  0  0  0  0  0  0  0
   39.6130   33.6320   39.7050 C   0  0  0  0  0  0  0  0  0  0  0  0
   40.2030   32.6600   38.8720 C   0  0  0  0  0  0  0  0  0  0  0  0
   39.7580   31.3830   38.9900 N   0  0  0  0  0  0  0  0  0  0  0  0
   38.7870   31.0220   39.8610 C   0  0  0  0  0  0  0  0  0  0  0  0
   38.2200   31.9450   40.6580 N   0  0  0  0  0  0  0  0  0  0  0  0
   38.1240   33.9330   41.2580 H   0  0  0  0  0  0  0  0  0  0  0  0
   39.9080   34.6740   39.6760 H   0  0  0  0  0  0  0  0  0  0  0  0
   40.9780   32.9520   38.1770 H   0  0  0  0  0  0  0  0  0  0  0  0
   39.2970   26.5340   41.8450 C   0  0  0  0  0  0  0  0  0  0  0  0
   39.1470   26.5180   43.2160 C   0  0  0  0  0  0  0  0  0  0  0  0
   38.4890   27.1410   43.8140 H   0  0  0  0  0  0  0  0  0  0  0  0
   40.0050   25.5450   43.6780 C   0  0  0  0  0  0  0  0  0  0  0  0
   40.1150   25.2940   44.7190 H   0  0  0  0  0  0  0  0  0  0  0  0
   40.6430   25.0100   42.5590 C   0  0  0  0  0  0  0  0  0  0  0  0
   41.3740   24.2270   42.5970 H   0  0  0  0  0  0  0  0  0  0  0  0
   40.1870   25.6300   41.5080 O   0  0  0  0  0  0  0  0  0  0  0  0
  1  2  1  0  0  0  0
  2  8  2  0  0  0  0
  2  3  1  0  0  0  0
  3  4  2  0  0  0  0
  4  5  1  0  0  0  0
  4  9  1  0  0  0  0
  5 20  1  0  0  0  0
  6  7  1  0  0  0  0
  6  5  2  0  0  0  0
  8  6  1  0  0  0  0
 10  8  1  0  0  0  0
 11 16  1  0  0  0  0
 11 17  1  0  0  0  0
 12 11  2  0  0  0  0
 13 14  2  0  0  0  0
 13 12  1  0  0  0  0
 14 15  1  0  0  0  0
 15  3  1  0  0  0  0
 15 16  2  0  0  0  0
 18 12  1  0  0  0  0
 19 13  1  0  0  0  0
 20 21  2  0  0  0  0
 21 23  1  0  0  0  0
 21 22  1  0  0  0  0
 23 24  1  0  0  0  0
 25 26  1  0  0  0  0
 25 23  2  0  0  0  0
 27 20  1  0  0  0  0
 27 25  1  0  0  0  0
M  END
>  <minimizedAffinity>
-4.43784618

$$$$

 OpenBabel03252506033D

 27 29  0  0  0  0  0  0  0  0999 V2000
   35.2680   28.5430   39.2180 Cl  0  0  0  0  0  0  0  0  0  0  0  0
   36.6500   29.5560   38.9420 C   0  0  0  0  0  0  0  0  0  0  0  0
   37.7090   29.5520   39.8240 C   0  0  0  0  0  0  0  0  0  0  0  0
   38.7460   30.3900   39.5070 C   0  0  0  0  0  0  0  0  0  0  0  0
   38.8080   31.2120   38.4060 C   0  0  0  0  0  0  0  0  0  0  0  0
   37.7390   31.1950   37.5460 C   0  0  0  0  0  0  0  0  0  0  0  0
   37.8400   32.2510   36.1540 Cl  0  0  0  0  0  0  0  0  0  0  0  0
   36.6630   30.3730   37.8070 C   0  0  0  0  0  0  0  0  0  0  0  0
   39.5960   30.4040   40.1900 H   0  0  0  0  0  0  0  0  0  0  0  0
   35.8280   30.3750   37.1150 H   0  0  0  0  0  0  0  0  0  0  0  0
   38.1440   26.6250   41.9590 C   0  0  0  0  0  0  0  0  0  0  0  0
   37.7670   27.0970   43.2210 C   0  0  0  0  0  0  0  0  0  0  0  0
   37.3560   28.4410   43.3430 C   0  0  0  0  0  0  0  0  0  0  0  0
   37.3530   29.1980   42.2180 N   0  0  0  0  0  0  0  0  0  0  0  0
   37.7230   28.7160   41.0070 C   0  0  0  0  0  0  0  0  0  0  0  0
   38.1150   27.4360   40.8850 N   0  0  0  0  0  0  0  0  0  0  0  0
   38.4680   25.6050   41.8050 H   0  0  0  0  0  0  0  0  0  0  0  0
   37.7990   26.4240   44.0680 H   0  0  0  0  0  0  0  0  0  0  0  0
   37.0620   28.8220   44.3110 H   0  0  0  0  0  0  0  0  0  0  0  0
   39.9670   32.0670   38.1670 C   0  0  0  0  0  0  0  0  0  0  0  0
   40.2930   33.1790   38.9150 C   0  0  0  0  0  0  0  0  0  0  0  0
   39.7570   33.5780   39.7700 H   0  0  0  0  0  0  0  0  0  0  0  0
   41.4460   33.6850   38.3550 C   0  0  0  0  0  0  0  0  0  0  0  0
   41.9510   34.5610   38.7230 H   0  0  0  0  0  0  0  0  0  0  0  0
   41.7690   32.8520   37.2840 C   0  0  0  0  0  0  0  0  0  0  0  0
   42.6210   32.9890   36.6480 H   0  0  0  0  0  0  0  0  0  0  0  0
   40.8640   31.9170   37.2210 O   0  0  0  0  0  0  0  0  0  0  0  0
  2  1  1  0  0  0  0
  2  3  1  0  0  0  0
  3 15  1  0  0  0  0
  4  3  2  0  0  0  0
  4  9  1  0  0  0  0
  5  4  1  0  0  0  0
  6  8  1  0  0  0  0
  6  5  2  0  0  0  0
  7  6  1  0  0  0  0
  8  2  2  0  0  0  0
 10  8  1  0  0  0  0
 11 12  1  0  0  0  0
 12 13  2  0  0  0  0
 12 18  1  0  0  0  0
 13 19  1  0  0  0  0
 14 13  1  0  0  0  0
 15 14  2  0  0  0  0
 16 15  1  0  0  0  0
 16 11  2  0  0  0  0
 17 11  1  0  0  0  0
 20  5  1  0  0  0  0
 20 21  2  0  0  0  0
 21 22  1  0  0  0  0
 23 24  1  0  0  0  0
 23 21  1  0  0  0  0
 25 23  2  0  0  0  0
 26 25  1  0  0  0  0
 27 25  1  0  0  0  0
 27 20  1  0  0  0  0
M  END
>  <minimizedAffinity>
-4.429389

$$$$
