
 OpenBabel03242511203D

 38 41  0  0  1  0  0  0  0  0999 V2000
   47.9520   32.9870   41.7750 C   0  0  0  0  0  0  0  0  0  0  0  0
   47.1880   32.2640   42.1850 H   0  0  0  0  0  0  0  0  0  0  0  0
   48.7500   33.0050   42.5130 H   0  0  0  0  0  0  0  0  0  0  0  0
   48.3000   32.5790   40.4280 C   0  0  0  0  0  0  0  0  0  0  0  0
   49.5180   32.2790   40.1240 C   0  0  0  0  0  0  0  0  0  0  0  0
   49.8670   31.8840   38.8160 N   0  0  0  0  0  0  0  0  0  0  0  0
   50.5770   30.9470   37.9730 C   0  0  0  0  0  0  0  0  0  0  0  0
   51.6030   30.2220   38.1050 O   0  0  0  0  0  0  0  0  0  0  0  0
   49.5270   31.2680   36.9390 C   0  0  0  0  0  0  0  0  0  0  0  0
   49.4100   32.6190   37.6150 C   0  0  1  0  0  0  0  0  0  0  0  0
   47.7550   33.2260   37.8910 S   0  0  0  0  0  0  0  0  0  0  0  0
   47.1720   32.5410   39.4750 C   0  0  0  0  0  0  0  0  0  0  0  0
   48.6230   30.6540   37.0220 H   0  0  0  0  0  0  0  0  0  0  0  0
   49.9170   31.4010   35.9180 H   0  0  0  0  0  0  0  0  0  0  0  0
   50.1380   33.3550   37.2320 H   0  0  0  0  0  0  0  0  0  0  0  0
   46.3050   33.1300   39.7600 H   0  0  0  0  0  0  0  0  0  0  0  0
   46.9080   31.4600   39.3280 H   0  0  0  0  0  0  0  0  0  0  0  0
   50.5650   32.3480   41.1540 C   0  0  0  0  0  0  0  0  0  0  0  0
   51.7710   31.9810   40.9690 O   0  0  0  0  0  0  0  0  0  0  0  0
   51.2930   32.5290   42.2770 O   0  0  0  0  0  0  0  0  0  0  0  0
   50.9670   32.4320   43.2510 H   0  0  0  0  0  0  0  0  0  0  0  0
   47.0500   34.5910   41.7500 S   0  0  0  0  0  0  0  0  0  0  0  0
   44.5140   35.8110   44.6670 C   0  0  0  0  0  0  0  0  0  0  0  0
   45.1960   35.7330   43.4300 C   0  0  0  0  0  0  0  0  0  0  0  0
   46.1680   34.7290   43.2760 C   0  0  0  0  0  0  0  0  0  0  0  0
   46.3830   33.9080   44.3170 N   0  0  0  0  0  0  0  0  0  0  0  0
   45.7270   33.9930   45.4850 C   0  0  0  0  0  0  0  0  0  0  0  0
   44.7870   34.9500   45.6610 N   0  0  0  0  0  0  0  0  0  0  0  0
   43.7820   36.6060   44.7140 H   0  0  0  0  0  0  0  0  0  0  0  0
   45.0300   36.3840   42.5990 H   0  0  0  0  0  0  0  0  0  0  0  0
   45.9650   33.0970   46.6140 C   0  0  0  0  0  0  0  0  0  0  0  0
   47.0220   32.2490   46.8980 C   0  0  0  0  0  0  0  0  0  0  0  0
   47.8810   32.1430   46.2460 H   0  0  0  0  0  0  0  0  0  0  0  0
   46.6660   31.6640   48.1160 C   0  0  0  0  0  0  0  0  0  0  0  0
   47.3190   30.9340   48.6020 H   0  0  0  0  0  0  0  0  0  0  0  0
   45.4440   32.1730   48.4990 C   0  0  0  0  0  0  0  0  0  0  0  0
   44.9430   31.8860   49.4070 H   0  0  0  0  0  0  0  0  0  0  0  0
   45.0580   33.0210   47.5850 O   0  0  0  0  0  0  0  0  0  0  0  0
  1  2  1  0  0  0  0
  1  3  1  0  0  0  0
  4  1  1  0  0  0  0
  5  4  2  0  0  0  0
  5 18  1  0  0  0  0
  6  5  1  0  0  0  0
  7  8  2  0  0  0  0
  7  6  1  0  0  0  0
  9 13  1  0  0  0  0
  9 10  1  0  0  0  0
  9  7  1  0  0  0  0
 10 15  1  6  0  0  0
 10 11  1  0  0  0  0
 10  6  1  0  0  0  0
 11 12  1  0  0  0  0
 12 16  1  0  0  0  0
 12  4  1  0  0  0  0
 14  9  1  0  0  0  0
 17 12  1  0  0  0  0
 18 20  1  0  0  0  0
 19 18  2  0  0  0  0
 20 21  1  0  0  0  0
 22  1  1  0  0  0  0
 22 25  1  0  0  0  0
 23 29  1  0  0  0  0
 23 28  1  0  0  0  0
 24 23  2  0  0  0  0
 25 24  1  0  0  0  0
 25 26  2  0  0  0  0
 26 27  1  0  0  0  0
 27 28  2  0  0  0  0
 27 31  1  0  0  0  0
 30 24  1  0  0  0  0
 31 32  2  0  0  0  0
 31 38  1  0  0  0  0
 32 34  1  0  0  0  0
 33 32  1  0  0  0  0
 34 36  2  0  0  0  0
 34 35  1  0  0  0  0
 36 37  1  0  0  0  0
 38 36  1  0  0  0  0
M  END
>  <minimizedAffinity>
-5.72229624

>  <minimizedRMSD>
0.331440121

$$$$
