
 OpenBabel03242518463D

 44 47  0  0  1  0  0  0  0  0999 V2000
   47.4720   33.0430   44.4040 C   0  0  2  0  0  0  0  0  0  0  0  0
   47.3570   33.3950   42.9660 C   0  0  1  0  0  0  0  0  0  0  0  0
   47.2620   32.1560   42.0730 C   0  0  0  0  0  0  0  0  0  0  0  0
   48.3810   31.3950   42.4230 O   0  0  0  0  0  0  0  0  0  0  0  0
   48.2340   30.8100   43.6600 C   0  0  0  0  0  0  0  0  0  0  0  0
   47.2870   31.5240   44.5710 C   0  0  1  0  0  0  0  0  0  0  0  0
   48.4810   33.2670   44.7890 H   0  0  0  0  0  0  0  0  0  0  0  0
   48.3010   33.9310   42.6580 H   0  0  0  0  0  0  0  0  0  0  0  0
   47.4280   32.4630   41.0140 H   0  0  0  0  0  0  0  0  0  0  0  0
   46.3180   31.6220   42.2190 H   0  0  0  0  0  0  0  0  0  0  0  0
   47.8050   29.7790   43.5080 H   0  0  0  0  0  0  0  0  0  0  0  0
   49.1820   30.6540   44.2080 H   0  0  0  0  0  0  0  0  0  0  0  0
   46.2190   31.3610   44.3070 H   0  0  0  0  0  0  0  0  0  0  0  0
   45.0280   36.2210   42.8090 C   0  0  0  0  0  0  0  0  0  0  0  0
   43.9850   35.7650   41.9510 C   0  0  0  0  0  0  0  0  0  0  0  0
   44.1410   34.4470   41.4460 C   0  0  0  0  0  0  0  0  0  0  0  0
   45.2290   33.7260   41.7940 N   0  0  0  0  0  0  0  0  0  0  0  0
   46.1830   34.2180   42.6120 C   0  0  0  0  0  0  0  0  0  0  0  0
   46.0800   35.4660   43.1180 N   0  0  0  0  0  0  0  0  0  0  0  0
   43.1500   36.3890   41.7160 H   0  0  0  0  0  0  0  0  0  0  0  0
   43.3840   34.0640   40.7990 H   0  0  0  0  0  0  0  0  0  0  0  0
   44.8830   37.4760   43.2940 O   0  0  0  0  0  0  0  0  0  0  0  0
   45.4160   37.9080   44.0280 H   0  0  0  0  0  0  0  0  0  0  0  0
   46.5270   33.6810   45.2190 O   0  0  0  0  0  0  0  0  0  0  0  0
   46.9520   34.1710   45.9730 H   0  0  0  0  0  0  0  0  0  0  0  0
   47.4810   31.2420   45.9030 O   0  0  0  0  0  0  0  0  0  0  0  0
   46.3190   28.8090   45.8530 F   0  0  0  0  0  0  0  0  0  0  0  0
   46.1660   29.7160   46.8360 C   0  0  0  0  0  0  0  0  0  0  0  0
   46.7210   30.9730   46.9480 C   0  0  0  0  0  0  0  0  0  0  0  0
   46.3860   31.6760   48.0910 C   0  0  0  0  0  0  0  0  0  0  0  0
   45.5690   31.2420   49.1020 C   0  0  0  0  0  0  0  0  0  0  0  0
   45.0460   29.9970   48.9460 C   0  0  0  0  0  0  0  0  0  0  0  0
   45.3160   29.1940   47.8270 C   0  0  0  0  0  0  0  0  0  0  0  0
   46.8690   32.6690   48.1070 H   0  0  0  0  0  0  0  0  0  0  0  0
   45.3660   31.8610   49.9550 H   0  0  0  0  0  0  0  0  0  0  0  0
   44.3900   29.6480   49.7550 H   0  0  0  0  0  0  0  0  0  0  0  0
   44.6780   27.8810   47.8060 C   0  0  0  0  0  0  0  0  0  0  0  0
   43.9520   27.2670   46.8080 C   0  0  0  0  0  0  0  0  0  0  0  0
   43.7130   27.6550   45.8300 H   0  0  0  0  0  0  0  0  0  0  0  0
   43.5200   26.0270   47.1830 C   0  0  0  0  0  0  0  0  0  0  0  0
   42.9390   25.2560   46.6970 H   0  0  0  0  0  0  0  0  0  0  0  0
   44.0320   25.9430   48.4560 C   0  0  0  0  0  0  0  0  0  0  0  0
   43.9690   25.1360   49.2050 H   0  0  0  0  0  0  0  0  0  0  0  0
   44.6860   27.0270   48.7680 O   0  0  0  0  0  0  0  0  0  0  0  0
  1  6  1  0  0  0  0
  1  7  1  1  0  0  0
  1 24  1  0  0  0  0
  2  8  1  6  0  0  0
  2  1  1  0  0  0  0
  3 10  1  0  0  0  0
  3  4  1  0  0  0  0
  3  2  1  0  0  0  0
  4  5  1  0  0  0  0
  5 12  1  0  0  0  0
  5  6  1  0  0  0  0
  6 13  1  6  0  0  0
  6 26  1  0  0  0  0
  9  3  1  0  0  0  0
 11  5  1  0  0  0  0
 14 19  1  0  0  0  0
 14 22  1  0  0  0  0
 15 14  2  0  0  0  0
 16 17  2  0  0  0  0
 16 15  1  0  0  0  0
 17 18  1  0  0  0  0
 18  2  1  0  0  0  0
 18 19  2  0  0  0  0
 20 15  1  0  0  0  0
 21 16  1  0  0  0  0
 22 23  1  0  0  0  0
 24 25  1  0  0  0  0
 26 29  1  0  0  0  0
 27 28  1  0  0  0  0
 28 29  2  0  0  0  0
 28 33  1  0  0  0  0
 29 30  1  0  0  0  0
 30 34  1  0  0  0  0
 30 31  2  0  0  0  0
 31 35  1  0  0  0  0
 32 31  1  0  0  0  0
 32 36  1  0  0  0  0
 33 32  2  0  0  0  0
 37 33  1  0  0  0  0
 37 44  1  0  0  0  0
 38 40  1  0  0  0  0
 38 37  2  0  0  0  0
 39 38  1  0  0  0  0
 40 42  2  0  0  0  0
 41 40  1  0  0  0  0
 42 44  1  0  0  0  0
 42 43  1  0  0  0  0
M  END
>  <minimizedAffinity>
-5.84187937

>  <minimizedRMSD>
0.677256048

$$$$
