
 OpenBabel03252501263D

 34 37  0  0  0  0  0  0  0  0999 V2000
   45.1640   33.6350   45.5740 F   0  0  0  0  0  0  0  0  0  0  0  0
   45.9670   32.9310   44.7810 C   0  0  0  0  0  0  0  0  0  0  0  0
   45.9260   33.1440   43.4230 C   0  0  0  0  0  0  0  0  0  0  0  0
   46.7570   32.4220   42.5630 C   0  0  0  0  0  0  0  0  0  0  0  0
   47.6380   31.4800   43.0380 C   0  0  0  0  0  0  0  0  0  0  0  0
   47.6600   31.2880   44.3830 C   0  0  0  0  0  0  0  0  0  0  0  0
   46.8430   31.9930   45.2730 C   0  0  0  0  0  0  0  0  0  0  0  0
   46.7360   32.5790   41.4880 H   0  0  0  0  0  0  0  0  0  0  0  0
   48.2860   30.9140   42.3830 H   0  0  0  0  0  0  0  0  0  0  0  0
   48.3480   30.5480   44.7790 H   0  0  0  0  0  0  0  0  0  0  0  0
   46.9560   31.6990   46.6970 C   0  0  0  0  0  0  0  0  0  0  0  0
   46.5180   30.5890   47.3870 C   0  0  0  0  0  0  0  0  0  0  0  0
   46.0110   29.7290   47.0070 H   0  0  0  0  0  0  0  0  0  0  0  0
   46.8330   30.7190   48.7290 C   0  0  0  0  0  0  0  0  0  0  0  0
   46.6680   30.0810   49.5920 H   0  0  0  0  0  0  0  0  0  0  0  0
   47.4680   31.9420   48.7960 C   0  0  0  0  0  0  0  0  0  0  0  0
   47.8650   32.3940   49.6920 H   0  0  0  0  0  0  0  0  0  0  0  0
   47.5150   32.4660   47.5990 O   0  0  0  0  0  0  0  0  0  0  0  0
   43.3060   34.7770   41.7200 C   0  0  0  0  0  0  0  0  0  0  0  0
   44.1510   35.8420   41.9620 C   0  0  0  0  0  0  0  0  0  0  0  0
   45.2440   35.3980   42.6250 C   0  0  0  0  0  0  0  0  0  0  0  0
   45.0790   34.0720   42.7950 N   0  0  0  0  0  0  0  0  0  0  0  0
   43.9070   33.7020   42.2460 N   0  0  0  0  0  0  0  0  0  0  0  0
   43.9970   36.8870   41.6780 H   0  0  0  0  0  0  0  0  0  0  0  0
   46.0890   35.9820   42.9610 H   0  0  0  0  0  0  0  0  0  0  0  0
   40.0650   36.0190   40.5520 C   0  0  0  0  0  0  0  0  0  0  0  0
   39.6230   34.9680   39.7140 C   0  0  0  0  0  0  0  0  0  0  0  0
   40.4430   33.8520   39.5660 C   0  0  0  0  0  0  0  0  0  0  0  0
   41.6170   33.8500   40.2370 N   0  0  0  0  0  0  0  0  0  0  0  0
   42.0310   34.8520   41.0300 C   0  0  0  0  0  0  0  0  0  0  0  0
   41.2550   35.9410   41.1900 N   0  0  0  0  0  0  0  0  0  0  0  0
   39.4530   36.8900   40.6850 H   0  0  0  0  0  0  0  0  0  0  0  0
   38.6770   35.0440   39.2150 H   0  0  0  0  0  0  0  0  0  0  0  0
   40.1410   33.0260   38.9340 H   0  0  0  0  0  0  0  0  0  0  0  0
  2  7  1  0  0  0  0
  2  1  1  0  0  0  0
  3  2  2  0  0  0  0
  4  5  2  0  0  0  0
  4  3  1  0  0  0  0
  5  6  1  0  0  0  0
  6 10  1  0  0  0  0
  6  7  2  0  0  0  0
  7 11  1  0  0  0  0
  8  4  1  0  0  0  0
  9  5  1  0  0  0  0
 11 12  2  0  0  0  0
 11 18  1  0  0  0  0
 12 14  1  0  0  0  0
 13 12  1  0  0  0  0
 14 16  2  0  0  0  0
 14 15  1  0  0  0  0
 16 17  1  0  0  0  0
 18 16  1  0  0  0  0
 19 20  1  0  0  0  0
 19 23  2  0  0  0  0
 20 21  2  0  0  0  0
 21 22  1  0  0  0  0
 21 25  1  0  0  0  0
 22  3  1  0  0  0  0
 23 22  1  0  0  0  0
 24 20  1  0  0  0  0
 26 32  1  0  0  0  0
 26 31  1  0  0  0  0
 27 26  2  0  0  0  0
 28 27  1  0  0  0  0
 28 29  2  0  0  0  0
 29 30  1  0  0  0  0
 30 31  2  0  0  0  0
 30 19  1  0  0  0  0
 33 27  1  0  0  0  0
 34 28  1  0  0  0  0
M  END
>  <minimizedAffinity>
-5.57792997

>  <minimizedRMSD>
8.06879616

$$$$
