
 OpenBabel03252507263D

 26 28  0  0  0  0  0  0  0  0999 V2000
   45.8570   33.6240   45.5540 C   0  0  0  0  0  0  0  0  0  0  0  0
   44.8990   34.5980   45.8790 C   0  0  0  0  0  0  0  0  0  0  0  0
   44.6220   35.5810   44.9280 C   0  0  0  0  0  0  0  0  0  0  0  0
   45.2920   35.5510   43.7280 N   0  0  0  0  0  0  0  0  0  0  0  0
   46.2060   34.5880   43.4660 C   0  0  0  0  0  0  0  0  0  0  0  0
   46.4940   33.6300   44.3620 N   0  0  0  0  0  0  0  0  0  0  0  0
   44.4110   34.5550   46.8510 H   0  0  0  0  0  0  0  0  0  0  0  0
   43.8880   36.3430   45.1530 H   0  0  0  0  0  0  0  0  0  0  0  0
   46.8860   34.6010   42.1840 C   0  0  0  0  0  0  0  0  0  0  0  0
   48.0430   35.3510   42.0150 C   0  0  0  0  0  0  0  0  0  0  0  0
   48.7710   35.4400   40.8450 C   0  0  0  0  0  0  0  0  0  0  0  0
   48.2470   34.6930   39.7950 C   0  0  0  0  0  0  0  0  0  0  0  0
   47.0940   33.9380   39.9460 C   0  0  0  0  0  0  0  0  0  0  0  0
   46.4300   33.9030   41.1360 N   0  0  0  0  0  0  0  0  0  0  0  0
   48.3840   35.9040   42.8810 H   0  0  0  0  0  0  0  0  0  0  0  0
   49.6640   36.0460   40.7880 H   0  0  0  0  0  0  0  0  0  0  0  0
   48.7690   34.7160   38.8490 H   0  0  0  0  0  0  0  0  0  0  0  0
   46.7570   33.3870   39.0760 H   0  0  0  0  0  0  0  0  0  0  0  0
   46.1790   32.5760   46.5180 C   0  0  0  0  0  0  0  0  0  0  0  0
   47.1370   32.6750   47.5190 C   0  0  0  0  0  0  0  0  0  0  0  0
   47.7880   33.5100   47.7550 H   0  0  0  0  0  0  0  0  0  0  0  0
   47.1530   31.4880   48.2270 C   0  0  0  0  0  0  0  0  0  0  0  0
   47.7410   31.1620   49.0660 H   0  0  0  0  0  0  0  0  0  0  0  0
   46.2050   30.7100   47.6300 C   0  0  0  0  0  0  0  0  0  0  0  0
   45.8410   29.7190   47.8020 H   0  0  0  0  0  0  0  0  0  0  0  0
   45.6610   31.3630   46.6490 O   0  0  0  0  0  0  0  0  0  0  0  0
  1  2  1  0  0  0  0
  1 19  1  0  0  0  0
  2  7  1  0  0  0  0
  3  8  1  0  0  0  0
  3  2  2  0  0  0  0
  4  3  1  0  0  0  0
  5  4  2  0  0  0  0
  5  6  1  0  0  0  0
  6  1  2  0  0  0  0
  9  5  1  0  0  0  0
 10  9  1  0  0  0  0
 10 15  1  0  0  0  0
 11 10  2  0  0  0  0
 12 13  2  0  0  0  0
 12 11  1  0  0  0  0
 13 14  1  0  0  0  0
 14  9  2  0  0  0  0
 16 11  1  0  0  0  0
 17 12  1  0  0  0  0
 18 13  1  0  0  0  0
 19 26  1  0  0  0  0
 19 20  2  0  0  0  0
 20 21  1  0  0  0  0
 20 22  1  0  0  0  0
 22 23  1  0  0  0  0
 24 25  1  0  0  0  0
 24 22  2  0  0  0  0
 26 24  1  0  0  0  0
M  END
>  <minimizedAffinity>
-5.64854622

>  <minimizedRMSD>
0.388848603

$$$$
