
 OpenBabel03252508543D

 42 45  0  0  1  0  0  0  0  0999 V2000
   43.2290   34.3400   40.6470 C   0  0  0  0  0  0  0  0  0  0  0  0
   43.1860   35.4930   40.1340 O   0  0  0  0  0  0  0  0  0  0  0  0
   41.8550   33.9360   40.4630 N   0  0  0  0  0  0  0  0  0  0  0  0
   41.3940   33.8850   39.0930 C   0  0  0  0  0  0  0  0  0  0  0  0
   40.6150   35.2000   38.8890 C   0  0  0  0  0  0  0  0  0  0  0  0
   39.9000   35.4730   40.2020 C   0  0  0  0  0  0  0  0  0  0  0  0
   39.5530   34.1750   40.9380 C   0  0  0  0  0  0  0  0  0  0  0  0
   40.8440   33.5690   41.4550 C   0  0  1  0  0  0  0  0  0  0  0  0
   40.7100   33.0160   38.9590 H   0  0  0  0  0  0  0  0  0  0  0  0
   42.2050   33.8650   38.3610 H   0  0  0  0  0  0  0  0  0  0  0  0
   41.3460   36.0120   38.6810 H   0  0  0  0  0  0  0  0  0  0  0  0
   39.8610   35.0740   38.0930 H   0  0  0  0  0  0  0  0  0  0  0  0
   39.0180   36.0980   40.0650 H   0  0  0  0  0  0  0  0  0  0  0  0
   40.5850   36.0420   40.8900 H   0  0  0  0  0  0  0  0  0  0  0  0
   39.0920   33.4730   40.2460 H   0  0  0  0  0  0  0  0  0  0  0  0
   38.9140   34.4990   41.7850 H   0  0  0  0  0  0  0  0  0  0  0  0
   41.1110   34.1470   42.3700 H   0  0  0  0  0  0  0  0  0  0  0  0
   40.7780   32.1260   41.6730 C   0  0  0  0  0  0  0  0  0  0  0  0
   41.7740   31.2730   42.1210 C   0  0  0  0  0  0  0  0  0  0  0  0
   42.7790   31.5460   42.3850 H   0  0  0  0  0  0  0  0  0  0  0  0
   41.1840   30.0250   42.1460 C   0  0  0  0  0  0  0  0  0  0  0  0
   41.6400   29.0870   42.4420 H   0  0  0  0  0  0  0  0  0  0  0  0
   39.8660   30.2030   41.7110 C   0  0  0  0  0  0  0  0  0  0  0  0
   39.1320   29.4070   41.6180 H   0  0  0  0  0  0  0  0  0  0  0  0
   39.6430   31.4840   41.4310 O   0  0  0  0  0  0  0  0  0  0  0  0
   44.3020   33.6920   41.2080 O   0  0  0  0  0  0  0  0  0  0  0  0
   45.6310   34.0030   41.0090 C   0  0  0  0  0  0  0  0  0  0  0  0
   46.3150   34.6420   42.0540 C   0  0  0  0  0  0  0  0  0  0  0  0
   47.6710   34.9420   41.8120 C   0  0  0  0  0  0  0  0  0  0  0  0
   48.2220   34.5980   40.6040 N   0  0  0  0  0  0  0  0  0  0  0  0
   47.5180   33.9950   39.6610 C   0  0  0  0  0  0  0  0  0  0  0  0
   46.2190   33.6880   39.8420 N   0  0  0  0  0  0  0  0  0  0  0  0
   48.2270   35.4330   42.5920 H   0  0  0  0  0  0  0  0  0  0  0  0
   47.9360   33.7160   38.6980 H   0  0  0  0  0  0  0  0  0  0  0  0
   45.6320   34.9560   43.2860 C   0  0  0  0  0  0  0  0  0  0  0  0
   45.0160   36.1860   43.5030 C   0  0  0  0  0  0  0  0  0  0  0  0
   44.4980   36.0630   44.7760 C   0  0  0  0  0  0  0  0  0  0  0  0
   44.7830   34.8450   45.2890 N   0  0  0  0  0  0  0  0  0  0  0  0
   45.4690   34.1910   44.3710 N   0  0  0  0  0  0  0  0  0  0  0  0
   44.9450   37.0430   42.8520 H   0  0  0  0  0  0  0  0  0  0  0  0
   43.9290   36.8320   45.3220 H   0  0  0  0  0  0  0  0  0  0  0  0
   44.5480   34.4160   46.2180 H   0  0  0  0  0  0  0  0  0  0  0  0
  1 26  1  0  0  0  0
  2  1  2  0  0  0  0
  3  1  1  0  0  0  0
  3  8  1  0  0  0  0
  4  3  1  0  0  0  0
  5  4  1  0  0  0  0
  5  6  1  0  0  0  0
  6 14  1  0  0  0  0
  6  7  1  0  0  0  0
  7  8  1  0  0  0  0
  7 16  1  0  0  0  0
  8 18  1  0  0  0  0
  8 17  1  1  0  0  0
  9  4  1  0  0  0  0
 10  4  1  0  0  0  0
 11  5  1  0  0  0  0
 12  5  1  0  0  0  0
 13  6  1  0  0  0  0
 15  7  1  0  0  0  0
 18 19  2  0  0  0  0
 19 21  1  0  0  0  0
 19 20  1  0  0  0  0
 21 22  1  0  0  0  0
 23 21  2  0  0  0  0
 24 23  1  0  0  0  0
 25 18  1  0  0  0  0
 25 23  1  0  0  0  0
 27 26  1  0  0  0  0
 27 28  1  0  0  0  0
 28 35  1  0  0  0  0
 29 28  2  0  0  0  0
 29 33  1  0  0  0  0
 30 29  1  0  0  0  0
 31 32  1  0  0  0  0
 31 30  2  0  0  0  0
 32 27  2  0  0  0  0
 34 31  1  0  0  0  0
 35 36  1  0  0  0  0
 35 39  2  0  0  0  0
 36 37  2  0  0  0  0
 37 38  1  0  0  0  0
 37 41  1  0  0  0  0
 38 42  1  0  0  0  0
 39 38  1  0  0  0  0
 40 36  1  0  0  0  0
M  END
>  <minimizedAffinity>
-6.54255867

>  <minimizedRMSD>
0.672041714

$$$$
