
 OpenBabel03252500163D

 37 40  0  0  0  0  0  0  0  0999 V2000
   40.9350   31.7170   40.2930 Cl  0  0  0  0  0  0  0  0  0  0  0  0
   40.1380   33.2470   40.1660 C   0  0  0  0  0  0  0  0  0  0  0  0
   40.8530   34.3890   39.9870 C   0  0  0  0  0  0  0  0  0  0  0  0
   40.2480   35.6450   39.8790 C   0  0  0  0  0  0  0  0  0  0  0  0
   38.8760   35.6530   39.9670 C   0  0  0  0  0  0  0  0  0  0  0  0
   38.1440   34.4920   40.1500 C   0  0  0  0  0  0  0  0  0  0  0  0
   38.7590   33.3100   40.2480 C   0  0  0  0  0  0  0  0  0  0  0  0
   40.8090   36.5610   39.7360 H   0  0  0  0  0  0  0  0  0  0  0  0
   38.3360   36.6030   39.8920 H   0  0  0  0  0  0  0  0  0  0  0  0
   37.0570   34.5360   40.2150 H   0  0  0  0  0  0  0  0  0  0  0  0
   44.2640   34.0550   38.6280 C   0  0  0  0  0  0  0  0  0  0  0  0
   45.0750   34.1840   39.7940 C   0  0  0  0  0  0  0  0  0  0  0  0
   44.4350   34.3800   41.0040 C   0  0  0  0  0  0  0  0  0  0  0  0
   43.0660   34.4420   41.0330 N   0  0  0  0  0  0  0  0  0  0  0  0
   42.3280   34.3150   39.9000 C   0  0  0  0  0  0  0  0  0  0  0  0
   42.9400   34.1240   38.7190 N   0  0  0  0  0  0  0  0  0  0  0  0
   44.8100   33.9040   37.7190 H   0  0  0  0  0  0  0  0  0  0  0  0
   46.1470   34.1430   39.8260 H   0  0  0  0  0  0  0  0  0  0  0  0
   45.1780   34.5290   42.2950 C   0  0  0  0  0  0  0  0  0  0  0  0
   45.9490   35.6610   42.2890 F   0  0  0  0  0  0  0  0  0  0  0  0
   44.2480   34.6160   43.3300 F   0  0  0  0  0  0  0  0  0  0  0  0
   45.9340   33.4020   42.4530 F   0  0  0  0  0  0  0  0  0  0  0  0
   38.0150   32.0640   40.4420 C   0  0  0  0  0  0  0  0  0  0  0  0
   37.0070   31.6060   39.5860 C   0  0  0  0  0  0  0  0  0  0  0  0
   36.5220   30.4070   40.0650 C   0  0  0  0  0  0  0  0  0  0  0  0
   37.2790   30.1940   41.2120 C   0  0  0  0  0  0  0  0  0  0  0  0
   38.1390   31.1770   41.4020 O   0  0  0  0  0  0  0  0  0  0  0  0
   36.6550   32.1010   38.6940 H   0  0  0  0  0  0  0  0  0  0  0  0
   35.7460   29.7590   39.6750 H   0  0  0  0  0  0  0  0  0  0  0  0
   37.1490   29.0380   42.0940 C   0  0  0  0  0  0  0  0  0  0  0  0
   37.4690   28.9850   43.4350 C   0  0  0  0  0  0  0  0  0  0  0  0
   37.8640   29.8470   43.9630 H   0  0  0  0  0  0  0  0  0  0  0  0
   37.2160   27.7310   43.9530 C   0  0  0  0  0  0  0  0  0  0  0  0
   37.3670   27.3900   44.9670 H   0  0  0  0  0  0  0  0  0  0  0  0
   36.7320   27.0470   42.8530 C   0  0  0  0  0  0  0  0  0  0  0  0
   36.4130   26.0010   42.8520 H   0  0  0  0  0  0  0  0  0  0  0  0
   36.7020   27.8270   41.7870 O   0  0  0  0  0  0  0  0  0  0  0  0
  2  7  1  0  0  0  0
  2  1  1  0  0  0  0
  3  2  2  0  0  0  0
  4  5  2  0  0  0  0
  4  3  1  0  0  0  0
  5  6  1  0  0  0  0
  6 10  1  0  0  0  0
  6  7  2  0  0  0  0
  7 23  1  0  0  0  0
  8  4  1  0  0  0  0
  9  5  1  0  0  0  0
 11 16  2  0  0  0  0
 11 12  1  0  0  0  0
 12 18  1  0  0  0  0
 12 13  2  0  0  0  0
 13 14  1  0  0  0  0
 13 19  1  0  0  0  0
 15  3  1  0  0  0  0
 15 14  2  0  0  0  0
 16 15  1  0  0  0  0
 17 11  1  0  0  0  0
 19 22  1  0  0  0  0
 19 21  1  0  0  0  0
 20 19  1  0  0  0  0
 23 27  1  0  0  0  0
 24 25  1  0  0  0  0
 24 23  2  0  0  0  0
 25 26  2  0  0  0  0
 26 27  1  0  0  0  0
 26 30  1  0  0  0  0
 28 24  1  0  0  0  0
 29 25  1  0  0  0  0
 30 31  2  0  0  0  0
 31 33  1  0  0  0  0
 31 32  1  0  0  0  0
 33 34  1  0  0  0  0
 35 33  2  0  0  0  0
 36 35  1  0  0  0  0
 37 30  1  0  0  0  0
 37 35  1  0  0  0  0
M  END
>  <minimizedAffinity>
-6.85487127

$$$$

 OpenBabel03252500163D

 37 40  0  0  0  0  0  0  0  0999 V2000
   41.1220   31.6150   40.4250 Cl  0  0  0  0  0  0  0  0  0  0  0  0
   40.4140   33.1870   40.2960 C   0  0  0  0  0  0  0  0  0  0  0  0
   41.1920   34.2860   40.1060 C   0  0  0  0  0  0  0  0  0  0  0  0
   40.6600   35.5740   39.9960 C   0  0  0  0  0  0  0  0  0  0  0  0
   39.2910   35.6610   40.0930 C   0  0  0  0  0  0  0  0  0  0  0  0
   38.4950   34.5460   40.2860 C   0  0  0  0  0  0  0  0  0  0  0  0
   39.0420   33.3300   40.3870 C   0  0  0  0  0  0  0  0  0  0  0  0
   41.2710   36.4550   39.8450 H   0  0  0  0  0  0  0  0  0  0  0  0
   38.8060   36.6410   40.0170 H   0  0  0  0  0  0  0  0  0  0  0  0
   37.4120   34.6520   40.3590 H   0  0  0  0  0  0  0  0  0  0  0  0
   44.7850   34.4090   40.9260 C   0  0  0  0  0  0  0  0  0  0  0  0
   45.3840   33.8050   39.7820 C   0  0  0  0  0  0  0  0  0  0  0  0
   44.5460   33.3760   38.7680 C   0  0  0  0  0  0  0  0  0  0  0  0
   43.1930   33.5470   38.9040 N   0  0  0  0  0  0  0  0  0  0  0  0
   42.6590   34.1260   40.0100 C   0  0  0  0  0  0  0  0  0  0  0  0
   43.4650   34.5470   41.0010 N   0  0  0  0  0  0  0  0  0  0  0  0
   45.4780   34.7220   41.6800 H   0  0  0  0  0  0  0  0  0  0  0  0
   46.4340   33.6480   39.6260 H   0  0  0  0  0  0  0  0  0  0  0  0
   45.0570   32.7290   37.5180 C   0  0  0  0  0  0  0  0  0  0  0  0
   45.8570   31.6570   37.8140 F   0  0  0  0  0  0  0  0  0  0  0  0
   43.9640   32.2900   36.7730 F   0  0  0  0  0  0  0  0  0  0  0  0
   45.7320   33.6880   36.8200 F   0  0  0  0  0  0  0  0  0  0  0  0
   38.2290   32.1310   40.5910 C   0  0  0  0  0  0  0  0  0  0  0  0
   37.1760   31.7380   39.7560 C   0  0  0  0  0  0  0  0  0  0  0  0
   36.6310   30.5670   40.2410 C   0  0  0  0  0  0  0  0  0  0  0  0
   37.3980   30.3030   41.3700 C   0  0  0  0  0  0  0  0  0  0  0  0
   38.3190   31.2320   41.5450 O   0  0  0  0  0  0  0  0  0  0  0  0
   36.8360   32.2580   38.8740 H   0  0  0  0  0  0  0  0  0  0  0  0
   35.8090   29.9690   39.8650 H   0  0  0  0  0  0  0  0  0  0  0  0
   37.2180   29.1530   42.2500 C   0  0  0  0  0  0  0  0  0  0  0  0
   37.8670   28.9190   43.4440 C   0  0  0  0  0  0  0  0  0  0  0  0
   38.6030   29.6120   43.8400 H   0  0  0  0  0  0  0  0  0  0  0  0
   37.4480   27.7320   44.0100 C   0  0  0  0  0  0  0  0  0  0  0  0
   37.7760   27.2870   44.9390 H   0  0  0  0  0  0  0  0  0  0  0  0
   36.5190   27.2770   43.0910 C   0  0  0  0  0  0  0  0  0  0  0  0
   35.9510   26.3470   43.1790 H   0  0  0  0  0  0  0  0  0  0  0  0
   36.4040   28.1190   42.0800 O   0  0  0  0  0  0  0  0  0  0  0  0
  2  7  1  0  0  0  0
  2  1  1  0  0  0  0
  3  2  2  0  0  0  0
  4  5  2  0  0  0  0
  4  3  1  0  0  0  0
  5  6  1  0  0  0  0
  6 10  1  0  0  0  0
  6  7  2  0  0  0  0
  7 23  1  0  0  0  0
  8  4  1  0  0  0  0
  9  5  1  0  0  0  0
 11 16  1  0  0  0  0
 11 17  1  0  0  0  0
 12 11  2  0  0  0  0
 13 14  2  0  0  0  0
 13 12  1  0  0  0  0
 14 15  1  0  0  0  0
 15  3  1  0  0  0  0
 15 16  2  0  0  0  0
 18 12  1  0  0  0  0
 19 20  1  0  0  0  0
 19 13  1  0  0  0  0
 21 19  1  0  0  0  0
 22 19  1  0  0  0  0
 23 27  1  0  0  0  0
 24 25  1  0  0  0  0
 24 23  2  0  0  0  0
 25 26  2  0  0  0  0
 26 27  1  0  0  0  0
 26 30  1  0  0  0  0
 28 24  1  0  0  0  0
 29 25  1  0  0  0  0
 30 31  2  0  0  0  0
 31 32  1  0  0  0  0
 31 33  1  0  0  0  0
 33 34  1  0  0  0  0
 35 36  1  0  0  0  0
 35 33  2  0  0  0  0
 37 30  1  0  0  0  0
 37 35  1  0  0  0  0
M  END
>  <minimizedAffinity>
-6.82969379

$$$$

 OpenBabel03252500163D

 37 40  0  0  0  0  0  0  0  0999 V2000
   40.5110   31.2590   41.9590 Cl  0  0  0  0  0  0  0  0  0  0  0  0
   38.8850   31.1670   41.3750 C   0  0  0  0  0  0  0  0  0  0  0  0
   38.3550   32.1770   40.6340 C   0  0  0  0  0  0  0  0  0  0  0  0
   37.0470   32.1420   40.1430 C   0  0  0  0  0  0  0  0  0  0  0  0
   36.3240   31.0170   40.4600 C   0  0  0  0  0  0  0  0  0  0  0  0
   36.8580   29.9870   41.2140 C   0  0  0  0  0  0  0  0  0  0  0  0
   38.1140   30.0570   41.6660 C   0  0  0  0  0  0  0  0  0  0  0  0
   36.6160   32.9410   39.5510 H   0  0  0  0  0  0  0  0  0  0  0  0
   35.2900   30.9230   40.1080 H   0  0  0  0  0  0  0  0  0  0  0  0
   36.2550   29.1090   41.4470 H   0  0  0  0  0  0  0  0  0  0  0  0
   39.6660   35.6230   40.6310 C   0  0  0  0  0  0  0  0  0  0  0  0
   40.7600   35.5370   39.7210 C   0  0  0  0  0  0  0  0  0  0  0  0
   41.0160   34.3090   39.1370 C   0  0  0  0  0  0  0  0  0  0  0  0
   40.2190   33.2400   39.4540 N   0  0  0  0  0  0  0  0  0  0  0  0
   39.1850   33.3620   40.3270 C   0  0  0  0  0  0  0  0  0  0  0  0
   38.9280   34.5510   40.8990 N   0  0  0  0  0  0  0  0  0  0  0  0
   39.5130   36.5950   41.0540 H   0  0  0  0  0  0  0  0  0  0  0  0
   41.4140   36.3400   39.4390 H   0  0  0  0  0  0  0  0  0  0  0  0
   42.1360   34.0950   38.1660 C   0  0  0  0  0  0  0  0  0  0  0  0
   41.7200   33.3460   37.0970 F   0  0  0  0  0  0  0  0  0  0  0  0
   42.5680   35.3390   37.7120 F   0  0  0  0  0  0  0  0  0  0  0  0
   43.1450   33.4810   38.8520 F   0  0  0  0  0  0  0  0  0  0  0  0
   38.7100   28.9860   42.4660 C   0  0  0  0  0  0  0  0  0  0  0  0
   38.0060   28.2060   43.3910 C   0  0  0  0  0  0  0  0  0  0  0  0
   38.8710   27.2970   43.9630 C   0  0  0  0  0  0  0  0  0  0  0  0
   40.0820   27.5770   43.3410 C   0  0  0  0  0  0  0  0  0  0  0  0
   39.9540   28.5650   42.4750 O   0  0  0  0  0  0  0  0  0  0  0  0
   36.9560   28.2930   43.6290 H   0  0  0  0  0  0  0  0  0  0  0  0
   38.6910   26.5360   44.7130 H   0  0  0  0  0  0  0  0  0  0  0  0
   41.3360   26.8760   43.6030 C   0  0  0  0  0  0  0  0  0  0  0  0
   42.2890   27.2150   44.5390 C   0  0  0  0  0  0  0  0  0  0  0  0
   42.1720   28.0780   45.1880 H   0  0  0  0  0  0  0  0  0  0  0  0
   43.3470   26.3290   44.5100 C   0  0  0  0  0  0  0  0  0  0  0  0
   44.2370   26.3370   45.1240 H   0  0  0  0  0  0  0  0  0  0  0  0
   42.9700   25.4490   43.5110 C   0  0  0  0  0  0  0  0  0  0  0  0
   43.5530   24.5860   43.1800 H   0  0  0  0  0  0  0  0  0  0  0  0
   41.8000   25.7890   43.0010 O   0  0  0  0  0  0  0  0  0  0  0  0
  2  7  1  0  0  0  0
  2  1  1  0  0  0  0
  3  2  2  0  0  0  0
  4  5  2  0  0  0  0
  4  3  1  0  0  0  0
  5  6  1  0  0  0  0
  6 10  1  0  0  0  0
  6  7  2  0  0  0  0
  7 23  1  0  0  0  0
  8  4  1  0  0  0  0
  9  5  1  0  0  0  0
 11 16  1  0  0  0  0
 11 17  1  0  0  0  0
 12 11  2  0  0  0  0
 13 14  2  0  0  0  0
 13 12  1  0  0  0  0
 14 15  1  0  0  0  0
 15  3  1  0  0  0  0
 15 16  2  0  0  0  0
 18 12  1  0  0  0  0
 19 22  1  0  0  0  0
 19 13  1  0  0  0  0
 20 19  1  0  0  0  0
 21 19  1  0  0  0  0
 23 27  1  0  0  0  0
 23 24  2  0  0  0  0
 24 28  1  0  0  0  0
 24 25  1  0  0  0  0
 25 29  1  0  0  0  0
 26 30  1  0  0  0  0
 26 25  2  0  0  0  0
 27 26  1  0  0  0  0
 30 31  2  0  0  0  0
 31 32  1  0  0  0  0
 33 31  1  0  0  0  0
 33 34  1  0  0  0  0
 35 33  2  0  0  0  0
 36 35  1  0  0  0  0
 37 35  1  0  0  0  0
 37 30  1  0  0  0  0
M  END
>  <minimizedAffinity>
-6.78502893

$$$$

 OpenBabel03252500163D

 37 40  0  0  0  0  0  0  0  0999 V2000
   37.8900   28.1570   39.4540 Cl  0  0  0  0  0  0  0  0  0  0  0  0
   37.7120   28.0160   41.1690 C   0  0  0  0  0  0  0  0  0  0  0  0
   37.6810   26.7940   41.7660 C   0  0  0  0  0  0  0  0  0  0  0  0
   37.5400   26.6350   43.1470 C   0  0  0  0  0  0  0  0  0  0  0  0
   37.4320   27.8000   43.8700 C   0  0  0  0  0  0  0  0  0  0  0  0
   37.4630   29.0460   43.2680 C   0  0  0  0  0  0  0  0  0  0  0  0
   37.6000   29.1560   41.9430 C   0  0  0  0  0  0  0  0  0  0  0  0
   37.5140   25.6670   43.6320 H   0  0  0  0  0  0  0  0  0  0  0  0
   37.3170   27.7510   44.9590 H   0  0  0  0  0  0  0  0  0  0  0  0
   37.3740   29.9490   43.8730 H   0  0  0  0  0  0  0  0  0  0  0  0
   39.1290   23.9950   39.8520 C   0  0  0  0  0  0  0  0  0  0  0  0
   37.9700   23.3120   39.3790 C   0  0  0  0  0  0  0  0  0  0  0  0
   36.7340   23.8250   39.7270 C   0  0  0  0  0  0  0  0  0  0  0  0
   36.6740   24.9550   40.5010 N   0  0  0  0  0  0  0  0  0  0  0  0
   37.8020   25.5780   40.9320 C   0  0  0  0  0  0  0  0  0  0  0  0
   39.0080   25.0870   40.6000 N   0  0  0  0  0  0  0  0  0  0  0  0
   40.0590   23.5550   39.5530 H   0  0  0  0  0  0  0  0  0  0  0  0
   37.9610   22.4260   38.7720 H   0  0  0  0  0  0  0  0  0  0  0  0
   35.4470   23.1970   39.2910 C   0  0  0  0  0  0  0  0  0  0  0  0
   34.9160   23.8620   38.2170 F   0  0  0  0  0  0  0  0  0  0  0  0
   35.7040   21.8760   38.9270 F   0  0  0  0  0  0  0  0  0  0  0  0
   34.6070   23.2210   40.3670 F   0  0  0  0  0  0  0  0  0  0  0  0
   37.6360   30.4570   41.2740 C   0  0  0  0  0  0  0  0  0  0  0  0
   36.5610   31.0160   40.5730 C   0  0  0  0  0  0  0  0  0  0  0  0
   36.9390   32.2440   40.0730 C   0  0  0  0  0  0  0  0  0  0  0  0
   38.2540   32.3710   40.5070 C   0  0  0  0  0  0  0  0  0  0  0  0
   38.6280   31.3150   41.2030 O   0  0  0  0  0  0  0  0  0  0  0  0
   35.5880   30.5680   40.4380 H   0  0  0  0  0  0  0  0  0  0  0  0
   36.3820   32.9630   39.4850 H   0  0  0  0  0  0  0  0  0  0  0  0
   39.1150   33.5180   40.2330 C   0  0  0  0  0  0  0  0  0  0  0  0
   38.8030   34.8480   40.4260 C   0  0  0  0  0  0  0  0  0  0  0  0
   37.8390   35.1580   40.8180 H   0  0  0  0  0  0  0  0  0  0  0  0
   39.8570   35.6600   40.0600 C   0  0  0  0  0  0  0  0  0  0  0  0
   39.9070   36.7390   40.0980 H   0  0  0  0  0  0  0  0  0  0  0  0
   40.8060   34.7450   39.6420 C   0  0  0  0  0  0  0  0  0  0  0  0
   41.8020   34.9980   39.2680 H   0  0  0  0  0  0  0  0  0  0  0  0
   40.3510   33.5100   39.7520 O   0  0  0  0  0  0  0  0  0  0  0  0
  1  2  1  0  0  0  0
  2  3  2  0  0  0  0
  2  7  1  0  0  0  0
  3  4  1  0  0  0  0
  4  8  1  0  0  0  0
  4  5  2  0  0  0  0
  5  9  1  0  0  0  0
  6  5  1  0  0  0  0
  6 10  1  0  0  0  0
  7  6  2  0  0  0  0
 11 16  1  0  0  0  0
 12 13  1  0  0  0  0
 12 11  2  0  0  0  0
 13 14  2  0  0  0  0
 14 15  1  0  0  0  0
 15  3  1  0  0  0  0
 16 15  2  0  0  0  0
 17 11  1  0  0  0  0
 18 12  1  0  0  0  0
 19 13  1  0  0  0  0
 19 22  1  0  0  0  0
 20 19  1  0  0  0  0
 21 19  1  0  0  0  0
 23  7  1  0  0  0  0
 24 23  2  0  0  0  0
 25 26  2  0  0  0  0
 25 24  1  0  0  0  0
 26 27  1  0  0  0  0
 27 23  1  0  0  0  0
 28 24  1  0  0  0  0
 29 25  1  0  0  0  0
 30 31  2  0  0  0  0
 30 26  1  0  0  0  0
 31 32  1  0  0  0  0
 33 34  1  0  0  0  0
 33 31  1  0  0  0  0
 35 37  1  0  0  0  0
 35 33  2  0  0  0  0
 36 35  1  0  0  0  0
 37 30  1  0  0  0  0
M  END
>  <minimizedAffinity>
-6.55534601

$$$$

 OpenBabel03252500163D

 37 40  0  0  0  0  0  0  0  0999 V2000
   40.3870   30.2500   41.7100 Cl  0  0  0  0  0  0  0  0  0  0  0  0
   39.0520   31.0700   40.9770 C   0  0  0  0  0  0  0  0  0  0  0  0
   37.7920   30.5650   41.0660 C   0  0  0  0  0  0  0  0  0  0  0  0
   36.6870   31.1960   40.4890 C   0  0  0  0  0  0  0  0  0  0  0  0
   36.9540   32.3660   39.8190 C   0  0  0  0  0  0  0  0  0  0  0  0
   38.2340   32.8850   39.7250 C   0  0  0  0  0  0  0  0  0  0  0  0
   39.2660   32.2510   40.2910 C   0  0  0  0  0  0  0  0  0  0  0  0
   35.6800   30.8020   40.5550 H   0  0  0  0  0  0  0  0  0  0  0  0
   36.1340   32.9150   39.3410 H   0  0  0  0  0  0  0  0  0  0  0  0
   38.4100   33.8160   39.1860 H   0  0  0  0  0  0  0  0  0  0  0  0
   37.3120   28.1540   43.8140 C   0  0  0  0  0  0  0  0  0  0  0  0
   37.1540   26.9190   43.1180 C   0  0  0  0  0  0  0  0  0  0  0  0
   37.2150   26.9470   41.7370 C   0  0  0  0  0  0  0  0  0  0  0  0
   37.4240   28.1440   41.1020 N   0  0  0  0  0  0  0  0  0  0  0  0
   37.5700   29.3000   41.8000 C   0  0  0  0  0  0  0  0  0  0  0  0
   37.5110   29.2840   43.1430 N   0  0  0  0  0  0  0  0  0  0  0  0
   37.2560   28.0750   44.8810 H   0  0  0  0  0  0  0  0  0  0  0  0
   36.9890   25.9570   43.5650 H   0  0  0  0  0  0  0  0  0  0  0  0
   37.0640   25.7170   40.8970 C   0  0  0  0  0  0  0  0  0  0  0  0
   36.2340   25.9500   39.8320 F   0  0  0  0  0  0  0  0  0  0  0  0
   38.3230   25.3520   40.4220 F   0  0  0  0  0  0  0  0  0  0  0  0
   36.5790   24.7350   41.7120 F   0  0  0  0  0  0  0  0  0  0  0  0
   40.6320   32.7720   40.2110 C   0  0  0  0  0  0  0  0  0  0  0  0
   41.4640   32.6360   39.0940 C   0  0  0  0  0  0  0  0  0  0  0  0
   42.6750   33.2400   39.3600 C   0  0  0  0  0  0  0  0  0  0  0  0
   42.5110   33.7240   40.6530 C   0  0  0  0  0  0  0  0  0  0  0  0
   41.3110   33.4350   41.1190 O   0  0  0  0  0  0  0  0  0  0  0  0
   41.2130   32.1390   38.1690 H   0  0  0  0  0  0  0  0  0  0  0  0
   43.5600   33.3370   38.7420 H   0  0  0  0  0  0  0  0  0  0  0  0
   43.5260   34.4570   41.4040 C   0  0  0  0  0  0  0  0  0  0  0  0
   44.8580   34.5920   41.0750 C   0  0  0  0  0  0  0  0  0  0  0  0
   45.2750   34.1370   40.1820 H   0  0  0  0  0  0  0  0  0  0  0  0
   45.5240   35.3530   42.0140 C   0  0  0  0  0  0  0  0  0  0  0  0
   46.5690   35.6280   42.0250 H   0  0  0  0  0  0  0  0  0  0  0  0
   44.5190   35.6610   42.9140 C   0  0  0  0  0  0  0  0  0  0  0  0
   44.6470   36.2620   43.8180 H   0  0  0  0  0  0  0  0  0  0  0  0
   43.3700   35.1290   42.5370 O   0  0  0  0  0  0  0  0  0  0  0  0
  2  3  1  0  0  0  0
  2  1  1  0  0  0  0
  3 15  1  0  0  0  0
  4  8  1  0  0  0  0
  4  3  2  0  0  0  0
  5  4  1  0  0  0  0
  6  5  2  0  0  0  0
  6  7  1  0  0  0  0
  7  2  2  0  0  0  0
  9  5  1  0  0  0  0
 10  6  1  0  0  0  0
 11 17  1  0  0  0  0
 12 18  1  0  0  0  0
 12 11  2  0  0  0  0
 13 12  1  0  0  0  0
 14 13  2  0  0  0  0
 14 15  1  0  0  0  0
 15 16  2  0  0  0  0
 16 11  1  0  0  0  0
 19 22  1  0  0  0  0
 19 13  1  0  0  0  0
 20 19  1  0  0  0  0
 21 19  1  0  0  0  0
 23  7  1  0  0  0  0
 23 27  1  0  0  0  0
 24 25  1  0  0  0  0
 24 23  2  0  0  0  0
 25 26  2  0  0  0  0
 26 27  1  0  0  0  0
 26 30  1  0  0  0  0
 28 24  1  0  0  0  0
 29 25  1  0  0  0  0
 30 37  1  0  0  0  0
 31 30  2  0  0  0  0
 31 33  1  0  0  0  0
 32 31  1  0  0  0  0
 33 34  1  0  0  0  0
 33 35  2  0  0  0  0
 35 36  1  0  0  0  0
 37 35  1  0  0  0  0
M  END
>  <minimizedAffinity>
-6.40868998

$$$$

 OpenBabel03252500163D

 37 40  0  0  0  0  0  0  0  0999 V2000
   37.8310   28.1970   39.4010 Cl  0  0  0  0  0  0  0  0  0  0  0  0
   37.7260   28.0310   41.1190 C   0  0  0  0  0  0  0  0  0  0  0  0
   37.7080   26.8010   41.6990 C   0  0  0  0  0  0  0  0  0  0  0  0
   37.6250   26.6230   43.0830 C   0  0  0  0  0  0  0  0  0  0  0  0
   37.5610   27.7770   43.8270 C   0  0  0  0  0  0  0  0  0  0  0  0
   37.5780   29.0320   43.2420 C   0  0  0  0  0  0  0  0  0  0  0  0
   37.6590   29.1610   41.9140 C   0  0  0  0  0  0  0  0  0  0  0  0
   37.6110   25.6480   43.5530 H   0  0  0  0  0  0  0  0  0  0  0  0
   37.4930   27.7130   44.9190 H   0  0  0  0  0  0  0  0  0  0  0  0
   37.5260   29.9260   43.8630 H   0  0  0  0  0  0  0  0  0  0  0  0
   36.7660   23.7070   39.9280 C   0  0  0  0  0  0  0  0  0  0  0  0
   37.9670   23.3680   39.2380 C   0  0  0  0  0  0  0  0  0  0  0  0
   39.0580   24.2010   39.3990 C   0  0  0  0  0  0  0  0  0  0  0  0
   38.9420   25.3060   40.2030 N   0  0  0  0  0  0  0  0  0  0  0  0
   37.7800   25.5970   40.8430 C   0  0  0  0  0  0  0  0  0  0  0  0
   36.7140   24.7920   40.6940 N   0  0  0  0  0  0  0  0  0  0  0  0
   35.9530   23.0290   39.7690 H   0  0  0  0  0  0  0  0  0  0  0  0
   38.1100   22.5170   38.5990 H   0  0  0  0  0  0  0  0  0  0  0  0
   40.3730   23.9490   38.7280 C   0  0  0  0  0  0  0  0  0  0  0  0
   41.4140   24.3270   39.5330 F   0  0  0  0  0  0  0  0  0  0  0  0
   40.4750   22.5850   38.4600 F   0  0  0  0  0  0  0  0  0  0  0  0
   40.3610   24.6470   37.5540 F   0  0  0  0  0  0  0  0  0  0  0  0
   37.6800   30.4720   41.2640 C   0  0  0  0  0  0  0  0  0  0  0  0
   36.5780   31.0560   40.6280 C   0  0  0  0  0  0  0  0  0  0  0  0
   36.9480   32.2860   40.1270 C   0  0  0  0  0  0  0  0  0  0  0  0
   38.2860   32.3880   40.4930 C   0  0  0  0  0  0  0  0  0  0  0  0
   38.6800   31.3160   41.1540 O   0  0  0  0  0  0  0  0  0  0  0  0
   35.5930   30.6240   40.5370 H   0  0  0  0  0  0  0  0  0  0  0  0
   36.3720   33.0220   39.5790 H   0  0  0  0  0  0  0  0  0  0  0  0
   39.1480   33.5270   40.1930 C   0  0  0  0  0  0  0  0  0  0  0  0
   38.8680   34.8570   40.4260 C   0  0  0  0  0  0  0  0  0  0  0  0
   37.9330   35.1740   40.8760 H   0  0  0  0  0  0  0  0  0  0  0  0
   39.9130   35.6610   40.0160 C   0  0  0  0  0  0  0  0  0  0  0  0
   39.9820   36.7380   40.0700 H   0  0  0  0  0  0  0  0  0  0  0  0
   40.8230   34.7400   39.5290 C   0  0  0  0  0  0  0  0  0  0  0  0
   41.8000   34.9840   39.1050 H   0  0  0  0  0  0  0  0  0  0  0  0
   40.3550   33.5090   39.6430 O   0  0  0  0  0  0  0  0  0  0  0  0
  1  2  1  0  0  0  0
  2  3  2  0  0  0  0
  2  7  1  0  0  0  0
  3  4  1  0  0  0  0
  4  8  1  0  0  0  0
  4  5  2  0  0  0  0
  5  9  1  0  0  0  0
  6  5  1  0  0  0  0
  6 10  1  0  0  0  0
  7  6  2  0  0  0  0
 11 16  1  0  0  0  0
 12 13  1  0  0  0  0
 12 11  2  0  0  0  0
 13 14  2  0  0  0  0
 14 15  1  0  0  0  0
 15  3  1  0  0  0  0
 16 15  2  0  0  0  0
 17 11  1  0  0  0  0
 18 12  1  0  0  0  0
 19 13  1  0  0  0  0
 19 20  1  0  0  0  0
 21 19  1  0  0  0  0
 22 19  1  0  0  0  0
 23  7  1  0  0  0  0
 24 23  2  0  0  0  0
 25 26  2  0  0  0  0
 25 24  1  0  0  0  0
 26 27  1  0  0  0  0
 27 23  1  0  0  0  0
 28 24  1  0  0  0  0
 29 25  1  0  0  0  0
 30 31  2  0  0  0  0
 30 26  1  0  0  0  0
 31 32  1  0  0  0  0
 33 34  1  0  0  0  0
 33 31  1  0  0  0  0
 35 37  1  0  0  0  0
 35 33  2  0  0  0  0
 36 35  1  0  0  0  0
 37 30  1  0  0  0  0
M  END
>  <minimizedAffinity>
-6.21933985

$$$$

 OpenBabel03252500163D

 37 40  0  0  0  0  0  0  0  0999 V2000
   35.6750   29.3710   38.5430 Cl  0  0  0  0  0  0  0  0  0  0  0  0
   35.4890   27.6700   38.2880 C   0  0  0  0  0  0  0  0  0  0  0  0
   36.2790   26.7780   38.9440 C   0  0  0  0  0  0  0  0  0  0  0  0
   36.1610   25.3970   38.7680 C   0  0  0  0  0  0  0  0  0  0  0  0
   35.1890   24.9930   37.8820 C   0  0  0  0  0  0  0  0  0  0  0  0
   34.3830   25.8960   37.2120 C   0  0  0  0  0  0  0  0  0  0  0  0
   34.5270   27.2110   37.4080 C   0  0  0  0  0  0  0  0  0  0  0  0
   36.7850   24.6790   39.2850 H   0  0  0  0  0  0  0  0  0  0  0  0
   35.0410   23.9230   37.6940 H   0  0  0  0  0  0  0  0  0  0  0  0
   33.6220   25.5400   36.5160 H   0  0  0  0  0  0  0  0  0  0  0  0
   39.4310   28.1550   40.2720 C   0  0  0  0  0  0  0  0  0  0  0  0
   39.1840   28.1940   41.6760 C   0  0  0  0  0  0  0  0  0  0  0  0
   37.9530   27.7510   42.1250 C   0  0  0  0  0  0  0  0  0  0  0  0
   37.0340   27.2980   41.2150 N   0  0  0  0  0  0  0  0  0  0  0  0
   37.3060   27.2770   39.8840 C   0  0  0  0  0  0  0  0  0  0  0  0
   38.5000   27.7050   39.4380 N   0  0  0  0  0  0  0  0  0  0  0  0
   40.3980   28.5090   39.9800 H   0  0  0  0  0  0  0  0  0  0  0  0
   39.8670   28.5380   42.4300 H   0  0  0  0  0  0  0  0  0  0  0  0
   37.5770   27.7440   43.5740 C   0  0  0  0  0  0  0  0  0  0  0  0
   38.5100   27.0720   44.3190 F   0  0  0  0  0  0  0  0  0  0  0  0
   37.5050   29.0630   44.0170 F   0  0  0  0  0  0  0  0  0  0  0  0
   36.3450   27.1620   43.6630 F   0  0  0  0  0  0  0  0  0  0  0  0
   33.6910   28.1920   36.7150 C   0  0  0  0  0  0  0  0  0  0  0  0
   33.7920   28.4950   35.3530 C   0  0  0  0  0  0  0  0  0  0  0  0
   32.8580   29.4590   35.0360 C   0  0  0  0  0  0  0  0  0  0  0  0
   32.2220   29.6960   36.2490 C   0  0  0  0  0  0  0  0  0  0  0  0
   32.7310   28.9420   37.2060 O   0  0  0  0  0  0  0  0  0  0  0  0
   34.4850   28.0540   34.6520 H   0  0  0  0  0  0  0  0  0  0  0  0
   32.6400   29.9380   34.0890 H   0  0  0  0  0  0  0  0  0  0  0  0
   31.1360   30.6500   36.4490 C   0  0  0  0  0  0  0  0  0  0  0  0
   30.7810   31.6830   35.6080 C   0  0  0  0  0  0  0  0  0  0  0  0
   31.3130   31.8750   34.6820 H   0  0  0  0  0  0  0  0  0  0  0  0
   29.7040   32.3830   36.1130 C   0  0  0  0  0  0  0  0  0  0  0  0
   29.2060   33.2390   35.6790 H   0  0  0  0  0  0  0  0  0  0  0  0
   29.4410   31.7120   37.2940 C   0  0  0  0  0  0  0  0  0  0  0  0
   28.6450   31.9670   37.9980 H   0  0  0  0  0  0  0  0  0  0  0  0
   30.2850   30.7110   37.4660 O   0  0  0  0  0  0  0  0  0  0  0  0
  2  1  1  0  0  0  0
  2  3  1  0  0  0  0
  3 15  1  0  0  0  0
  4  3  2  0  0  0  0
  4  8  1  0  0  0  0
  5  4  1  0  0  0  0
  6  7  1  0  0  0  0
  6  5  2  0  0  0  0
  7  2  2  0  0  0  0
  9  5  1  0  0  0  0
 10  6  1  0  0  0  0
 11 12  1  0  0  0  0
 12 13  2  0  0  0  0
 12 18  1  0  0  0  0
 13 19  1  0  0  0  0
 14 13  1  0  0  0  0
 15 14  2  0  0  0  0
 16 15  1  0  0  0  0
 16 11  2  0  0  0  0
 17 11  1  0  0  0  0
 19 22  1  0  0  0  0
 19 21  1  0  0  0  0
 19 20  1  0  0  0  0
 23 27  1  0  0  0  0
 23  7  1  0  0  0  0
 24 23  2  0  0  0  0
 25 24  1  0  0  0  0
 25 26  2  0  0  0  0
 26 30  1  0  0  0  0
 26 27  1  0  0  0  0
 28 24  1  0  0  0  0
 29 25  1  0  0  0  0
 30 37  1  0  0  0  0
 31 33  1  0  0  0  0
 31 30  2  0  0  0  0
 32 31  1  0  0  0  0
 33 35  2  0  0  0  0
 34 33  1  0  0  0  0
 35 37  1  0  0  0  0
 35 36  1  0  0  0  0
M  END
>  <minimizedAffinity>
-6.20359659

$$$$

 OpenBabel03252500163D

 37 40  0  0  0  0  0  0  0  0999 V2000
   38.7540   28.4480   39.6890 Cl  0  0  0  0  0  0  0  0  0  0  0  0
   38.1030   28.2090   41.2740 C   0  0  0  0  0  0  0  0  0  0  0  0
   37.3150   27.1350   41.5460 C   0  0  0  0  0  0  0  0  0  0  0  0
   36.7700   26.9040   42.8120 C   0  0  0  0  0  0  0  0  0  0  0  0
   37.0800   27.8390   43.7710 C   0  0  0  0  0  0  0  0  0  0  0  0
   37.8810   28.9340   43.4990 C   0  0  0  0  0  0  0  0  0  0  0  0
   38.3840   29.1200   42.2750 C   0  0  0  0  0  0  0  0  0  0  0  0
   36.1420   26.0510   43.0390 H   0  0  0  0  0  0  0  0  0  0  0  0
   36.6860   27.7210   44.7870 H   0  0  0  0  0  0  0  0  0  0  0  0
   38.1070   29.6560   44.2850 H   0  0  0  0  0  0  0  0  0  0  0  0
   35.9520   25.6390   38.4640 C   0  0  0  0  0  0  0  0  0  0  0  0
   36.4950   24.3200   38.4940 C   0  0  0  0  0  0  0  0  0  0  0  0
   37.3060   23.9830   39.5620 C   0  0  0  0  0  0  0  0  0  0  0  0
   37.5530   24.9170   40.5340 N   0  0  0  0  0  0  0  0  0  0  0  0
   37.0170   26.1640   40.4700 C   0  0  0  0  0  0  0  0  0  0  0  0
   36.2270   26.5010   39.4370 N   0  0  0  0  0  0  0  0  0  0  0  0
   35.3310   25.8460   37.6160 H   0  0  0  0  0  0  0  0  0  0  0  0
   36.3340   23.5530   37.7610 H   0  0  0  0  0  0  0  0  0  0  0  0
   37.9330   22.6310   39.7040 C   0  0  0  0  0  0  0  0  0  0  0  0
   38.7160   22.5700   40.8260 F   0  0  0  0  0  0  0  0  0  0  0  0
   36.9160   21.6830   39.8050 F   0  0  0  0  0  0  0  0  0  0  0  0
   38.6570   22.4060   38.5680 F   0  0  0  0  0  0  0  0  0  0  0  0
   39.2340   30.2670   41.9540 C   0  0  0  0  0  0  0  0  0  0  0  0
   40.6150   30.3150   42.1790 C   0  0  0  0  0  0  0  0  0  0  0  0
   41.0960   31.5380   41.7610 C   0  0  0  0  0  0  0  0  0  0  0  0
   39.9580   32.1840   41.2920 C   0  0  0  0  0  0  0  0  0  0  0  0
   38.8920   31.4170   41.4180 O   0  0  0  0  0  0  0  0  0  0  0  0
   41.2170   29.5300   42.6100 H   0  0  0  0  0  0  0  0  0  0  0  0
   42.1040   31.9370   41.7760 H   0  0  0  0  0  0  0  0  0  0  0  0
   39.9340   33.5320   40.7320 C   0  0  0  0  0  0  0  0  0  0  0  0
   38.8470   34.3780   40.6650 C   0  0  0  0  0  0  0  0  0  0  0  0
   37.8730   34.0880   41.0450 H   0  0  0  0  0  0  0  0  0  0  0  0
   39.1900   35.5760   40.0710 C   0  0  0  0  0  0  0  0  0  0  0  0
   38.5530   36.4280   39.8820 H   0  0  0  0  0  0  0  0  0  0  0  0
   40.5330   35.3950   39.7910 C   0  0  0  0  0  0  0  0  0  0  0  0
   41.1800   36.1330   39.3100 H   0  0  0  0  0  0  0  0  0  0  0  0
   40.9400   34.2020   40.1850 O   0  0  0  0  0  0  0  0  0  0  0  0
  1  2  1  0  0  0  0
  2  3  2  0  0  0  0
  2  7  1  0  0  0  0
  3  4  1  0  0  0  0
  4  8  1  0  0  0  0
  4  5  2  0  0  0  0
  5  9  1  0  0  0  0
  6  5  1  0  0  0  0
  6 10  1  0  0  0  0
  7  6  2  0  0  0  0
 11 12  2  0  0  0  0
 11 16  1  0  0  0  0
 12 13  1  0  0  0  0
 13 19  1  0  0  0  0
 13 14  2  0  0  0  0
 15 14  1  0  0  0  0
 15  3  1  0  0  0  0
 16 15  2  0  0  0  0
 17 11  1  0  0  0  0
 18 12  1  0  0  0  0
 19 21  1  0  0  0  0
 19 20  1  0  0  0  0
 22 19  1  0  0  0  0
 23 24  2  0  0  0  0
 23  7  1  0  0  0  0
 24 28  1  0  0  0  0
 25 29  1  0  0  0  0
 25 24  1  0  0  0  0
 26 27  1  0  0  0  0
 26 25  2  0  0  0  0
 27 23  1  0  0  0  0
 30 26  1  0  0  0  0
 31 30  2  0  0  0  0
 31 32  1  0  0  0  0
 33 31  1  0  0  0  0
 34 33  1  0  0  0  0
 35 33  2  0  0  0  0
 35 37  1  0  0  0  0
 36 35  1  0  0  0  0
 37 30  1  0  0  0  0
M  END
>  <minimizedAffinity>
-6.20117855

$$$$

 OpenBabel03252500163D

 37 40  0  0  0  0  0  0  0  0999 V2000
   40.6050   30.1900   41.0750 Cl  0  0  0  0  0  0  0  0  0  0  0  0
   39.3150   31.2420   40.6040 C   0  0  0  0  0  0  0  0  0  0  0  0
   39.5760   32.4610   40.0620 C   0  0  0  0  0  0  0  0  0  0  0  0
   38.5640   33.3410   39.6670 C   0  0  0  0  0  0  0  0  0  0  0  0
   37.2790   32.8930   39.8640 C   0  0  0  0  0  0  0  0  0  0  0  0
   37.0080   31.6530   40.4160 C   0  0  0  0  0  0  0  0  0  0  0  0
   38.0040   30.8400   40.7810 C   0  0  0  0  0  0  0  0  0  0  0  0
   38.7610   34.3140   39.2340 H   0  0  0  0  0  0  0  0  0  0  0  0
   36.4350   33.5320   39.5780 H   0  0  0  0  0  0  0  0  0  0  0  0
   35.9760   31.3310   40.5580 H   0  0  0  0  0  0  0  0  0  0  0  0
   42.8880   33.0230   38.5410 C   0  0  0  0  0  0  0  0  0  0  0  0
   43.5950   33.6950   39.5810 C   0  0  0  0  0  0  0  0  0  0  0  0
   42.9230   33.9350   40.7660 C   0  0  0  0  0  0  0  0  0  0  0  0
   41.6210   33.5230   40.8900 N   0  0  0  0  0  0  0  0  0  0  0  0
   40.9810   32.8850   39.8760 C   0  0  0  0  0  0  0  0  0  0  0  0
   41.6260   32.6470   38.7210 N   0  0  0  0  0  0  0  0  0  0  0  0
   43.4550   32.8630   37.6470 H   0  0  0  0  0  0  0  0  0  0  0  0
   44.6110   34.0380   39.5360 H   0  0  0  0  0  0  0  0  0  0  0  0
   43.5590   34.6310   41.9290 C   0  0  0  0  0  0  0  0  0  0  0  0
   43.9080   33.7360   42.9040 F   0  0  0  0  0  0  0  0  0  0  0  0
   44.7050   35.2840   41.4770 F   0  0  0  0  0  0  0  0  0  0  0  0
   42.6570   35.5510   42.3840 F   0  0  0  0  0  0  0  0  0  0  0  0
   37.7520   29.5230   41.3670 C   0  0  0  0  0  0  0  0  0  0  0  0
   37.5570   29.2910   42.7340 C   0  0  0  0  0  0  0  0  0  0  0  0
   37.3470   27.9430   42.9350 C   0  0  0  0  0  0  0  0  0  0  0  0
   37.4260   27.4140   41.6520 C   0  0  0  0  0  0  0  0  0  0  0  0
   37.6620   28.3610   40.7630 O   0  0  0  0  0  0  0  0  0  0  0  0
   37.5680   30.0370   43.5140 H   0  0  0  0  0  0  0  0  0  0  0  0
   37.1620   27.3920   43.8490 H   0  0  0  0  0  0  0  0  0  0  0  0
   37.2690   26.0010   41.3210 C   0  0  0  0  0  0  0  0  0  0  0  0
   37.8240   24.9310   41.9900 C   0  0  0  0  0  0  0  0  0  0  0  0
   38.4550   25.0680   42.8630 H   0  0  0  0  0  0  0  0  0  0  0  0
   37.4630   23.7380   41.3990 C   0  0  0  0  0  0  0  0  0  0  0  0
   37.7430   22.7380   41.6980 H   0  0  0  0  0  0  0  0  0  0  0  0
   36.6680   24.1560   40.3470 C   0  0  0  0  0  0  0  0  0  0  0  0
   36.1800   23.4950   39.6260 H   0  0  0  0  0  0  0  0  0  0  0  0
   36.5710   25.4730   40.3240 O   0  0  0  0  0  0  0  0  0  0  0  0
  2  7  1  0  0  0  0
  2  1  1  0  0  0  0
  3  2  2  0  0  0  0
  4  5  2  0  0  0  0
  4  3  1  0  0  0  0
  5  6  1  0  0  0  0
  6 10  1  0  0  0  0
  6  7  2  0  0  0  0
  7 23  1  0  0  0  0
  8  4  1  0  0  0  0
  9  5  1  0  0  0  0
 11 16  2  0  0  0  0
 11 12  1  0  0  0  0
 12 13  2  0  0  0  0
 13 14  1  0  0  0  0
 13 19  1  0  0  0  0
 15  3  1  0  0  0  0
 15 14  2  0  0  0  0
 16 15  1  0  0  0  0
 17 11  1  0  0  0  0
 18 12  1  0  0  0  0
 19 22  1  0  0  0  0
 19 20  1  0  0  0  0
 21 19  1  0  0  0  0
 23 24  2  0  0  0  0
 24 25  1  0  0  0  0
 24 28  1  0  0  0  0
 25 29  1  0  0  0  0
 26 25  2  0  0  0  0
 27 23  1  0  0  0  0
 27 26  1  0  0  0  0
 30 26  1  0  0  0  0
 30 31  2  0  0  0  0
 31 32  1  0  0  0  0
 33 34  1  0  0  0  0
 33 31  1  0  0  0  0
 35 33  2  0  0  0  0
 36 35  1  0  0  0  0
 37 35  1  0  0  0  0
 37 30  1  0  0  0  0
M  END
>  <minimizedAffinity>
-6.12769508

$$$$
