
 OpenBabel03252507263D

 26 28  0  0  0  0  0  0  0  0999 V2000
   45.7210   34.0280   45.5150 C   0  0  0  0  0  0  0  0  0  0  0  0
   44.7260   34.9990   45.7160 C   0  0  0  0  0  0  0  0  0  0  0  0
   44.4330   35.8590   44.6560 C   0  0  0  0  0  0  0  0  0  0  0  0
   45.1240   35.7180   43.4760 N   0  0  0  0  0  0  0  0  0  0  0  0
   46.0740   34.7640   43.3370 C   0  0  0  0  0  0  0  0  0  0  0  0
   46.3770   33.9230   44.3380 N   0  0  0  0  0  0  0  0  0  0  0  0
   44.2230   35.0480   46.6800 H   0  0  0  0  0  0  0  0  0  0  0  0
   43.6710   36.6160   44.7850 H   0  0  0  0  0  0  0  0  0  0  0  0
   46.7740   34.6570   42.0700 C   0  0  0  0  0  0  0  0  0  0  0  0
   47.9720   35.3330   41.8750 C   0  0  0  0  0  0  0  0  0  0  0  0
   48.7230   35.3060   40.7170 C   0  0  0  0  0  0  0  0  0  0  0  0
   48.1780   34.5200   39.7080 C   0  0  0  0  0  0  0  0  0  0  0  0
   46.9830   33.8380   39.8850 C   0  0  0  0  0  0  0  0  0  0  0  0
   46.2990   33.9160   41.0610 N   0  0  0  0  0  0  0  0  0  0  0  0
   48.3280   35.9240   42.7100 H   0  0  0  0  0  0  0  0  0  0  0  0
   49.6480   35.8600   40.6390 H   0  0  0  0  0  0  0  0  0  0  0  0
   48.7150   34.4530   38.7730 H   0  0  0  0  0  0  0  0  0  0  0  0
   46.6320   33.2480   39.0460 H   0  0  0  0  0  0  0  0  0  0  0  0
   46.0610   33.1070   46.5950 C   0  0  0  0  0  0  0  0  0  0  0  0
   45.2330   32.7790   47.6590 C   0  0  0  0  0  0  0  0  0  0  0  0
   44.2280   33.1330   47.8720 H   0  0  0  0  0  0  0  0  0  0  0  0
   45.9000   31.8820   48.4730 C   0  0  0  0  0  0  0  0  0  0  0  0
   45.6120   31.3910   49.3850 H   0  0  0  0  0  0  0  0  0  0  0  0
   47.1100   31.6970   47.8720 C   0  0  0  0  0  0  0  0  0  0  0  0
   47.9720   31.1080   48.1040 H   0  0  0  0  0  0  0  0  0  0  0  0
   47.1750   32.4160   46.7930 O   0  0  0  0  0  0  0  0  0  0  0  0
  1  2  1  0  0  0  0
  1 19  1  0  0  0  0
  2  7  1  0  0  0  0
  3  8  1  0  0  0  0
  3  2  2  0  0  0  0
  4  3  1  0  0  0  0
  5  4  2  0  0  0  0
  5  6  1  0  0  0  0
  6  1  2  0  0  0  0
  9  5  1  0  0  0  0
 10  9  1  0  0  0  0
 10 15  1  0  0  0  0
 11 10  2  0  0  0  0
 12 13  2  0  0  0  0
 12 11  1  0  0  0  0
 13 14  1  0  0  0  0
 14  9  2  0  0  0  0
 16 11  1  0  0  0  0
 17 12  1  0  0  0  0
 18 13  1  0  0  0  0
 19 26  1  0  0  0  0
 19 20  2  0  0  0  0
 20 21  1  0  0  0  0
 20 22  1  0  0  0  0
 22 23  1  0  0  0  0
 24 25  1  0  0  0  0
 24 22  2  0  0  0  0
 26 24  1  0  0  0  0
M  END
>  <minimizedAffinity>
-5.90988159

>  <minimizedRMSD>
0.46576336

$$$$
