
 OpenBabel03242510473D

 20 21  0  0  0  0  0  0  0  0999 V2000
   36.9520   28.8470   41.8670 C   0  0  0  0  0  0  0  0  0  0  0  0
   35.8230   28.4070   41.1310 C   0  0  0  0  0  0  0  0  0  0  0  0
   35.3190   29.2880   40.1460 C   0  0  0  0  0  0  0  0  0  0  0  0
   35.9350   30.4810   39.9660 N   0  0  0  0  0  0  0  0  0  0  0  0
   37.0050   30.8630   40.6860 C   0  0  0  0  0  0  0  0  0  0  0  0
   37.5140   30.0480   41.6350 N   0  0  0  0  0  0  0  0  0  0  0  0
   35.3440   27.4620   41.2800 H   0  0  0  0  0  0  0  0  0  0  0  0
   34.4580   29.0060   39.5500 H   0  0  0  0  0  0  0  0  0  0  0  0
   37.6850   32.1430   40.5110 C   0  0  0  0  0  0  0  0  0  0  0  0
   37.3090   33.2370   39.7410 C   0  0  0  0  0  0  0  0  0  0  0  0
   36.3940   33.2080   39.1620 H   0  0  0  0  0  0  0  0  0  0  0  0
   38.3340   34.1610   39.9600 C   0  0  0  0  0  0  0  0  0  0  0  0
   38.2810   35.1290   39.4610 H   0  0  0  0  0  0  0  0  0  0  0  0
   39.2560   33.5840   40.8350 C   0  0  0  0  0  0  0  0  0  0  0  0
   40.1060   34.1990   41.0890 H   0  0  0  0  0  0  0  0  0  0  0  0
   38.8300   32.3690   41.1430 O   0  0  0  0  0  0  0  0  0  0  0  0
   37.4650   27.8930   42.9050 C   0  0  0  0  0  0  0  0  0  0  0  0
   38.4440   28.4720   43.6790 F   0  0  0  0  0  0  0  0  0  0  0  0
   36.3710   27.4920   43.6710 F   0  0  0  0  0  0  0  0  0  0  0  0
   37.9380   26.7380   42.2820 F   0  0  0  0  0  0  0  0  0  0  0  0
  1 17  1  0  0  0  0
  2  7  1  0  0  0  0
  2  1  2  0  0  0  0
  3  2  1  0  0  0  0
  4  3  2  0  0  0  0
  4  5  1  0  0  0  0
  5  6  2  0  0  0  0
  6  1  1  0  0  0  0
  8  3  1  0  0  0  0
  9  5  1  0  0  0  0
  9 16  1  0  0  0  0
 10 12  1  0  0  0  0
 10  9  2  0  0  0  0
 11 10  1  0  0  0  0
 12 14  2  0  0  0  0
 13 12  1  0  0  0  0
 14 15  1  0  0  0  0
 14 16  1  0  0  0  0
 17 19  1  0  0  0  0
 17 18  1  0  0  0  0
 20 17  1  0  0  0  0
M  END
>  <minimizedAffinity>
-4.80003834

$$$$

 OpenBabel03242510473D

 20 21  0  0  0  0  0  0  0  0999 V2000
   37.6930   28.7820   42.2000 C   0  0  0  0  0  0  0  0  0  0  0  0
   38.9470   28.3930   42.7360 C   0  0  0  0  0  0  0  0  0  0  0  0
   40.0110   29.3150   42.6060 C   0  0  0  0  0  0  0  0  0  0  0  0
   39.7750   30.4970   41.9880 N   0  0  0  0  0  0  0  0  0  0  0  0
   38.5700   30.8290   41.4900 C   0  0  0  0  0  0  0  0  0  0  0  0
   37.5300   29.9740   41.5960 N   0  0  0  0  0  0  0  0  0  0  0  0
   39.1230   27.4570   43.2230 H   0  0  0  0  0  0  0  0  0  0  0  0
   40.9930   29.0740   42.9980 H   0  0  0  0  0  0  0  0  0  0  0  0
   38.2920   32.0960   40.8190 C   0  0  0  0  0  0  0  0  0  0  0  0
   37.2570   32.4190   39.9510 C   0  0  0  0  0  0  0  0  0  0  0  0
   36.5130   31.6780   39.6880 H   0  0  0  0  0  0  0  0  0  0  0  0
   37.5010   33.7570   39.6320 C   0  0  0  0  0  0  0  0  0  0  0  0
   36.8190   34.2660   38.9510 H   0  0  0  0  0  0  0  0  0  0  0  0
   38.6500   34.1610   40.3140 C   0  0  0  0  0  0  0  0  0  0  0  0
   38.9540   35.1840   40.1530 H   0  0  0  0  0  0  0  0  0  0  0  0
   39.0970   33.1320   41.0180 O   0  0  0  0  0  0  0  0  0  0  0  0
   36.5830   27.7860   42.3510 C   0  0  0  0  0  0  0  0  0  0  0  0
   36.2510   27.5990   43.6730 F   0  0  0  0  0  0  0  0  0  0  0  0
   35.5010   28.2590   41.6100 F   0  0  0  0  0  0  0  0  0  0  0  0
   36.9550   26.5800   41.7550 F   0  0  0  0  0  0  0  0  0  0  0  0
  1 17  1  0  0  0  0
  1  2  1  0  0  0  0
  2  7  1  0  0  0  0
  3  2  2  0  0  0  0
  3  8  1  0  0  0  0
  4  3  1  0  0  0  0
  5  6  1  0  0  0  0
  5  4  2  0  0  0  0
  6  1  2  0  0  0  0
  9 16  1  0  0  0  0
  9  5  1  0  0  0  0
 10  9  2  0  0  0  0
 11 10  1  0  0  0  0
 12 10  1  0  0  0  0
 12 14  2  0  0  0  0
 13 12  1  0  0  0  0
 14 16  1  0  0  0  0
 15 14  1  0  0  0  0
 17 18  1  0  0  0  0
 19 17  1  0  0  0  0
 20 17  1  0  0  0  0
M  END
>  <minimizedAffinity>
-4.7587676

$$$$

 OpenBabel03242510473D

 20 21  0  0  0  0  0  0  0  0999 V2000
   37.0550   27.5940   41.5910 C   0  0  0  0  0  0  0  0  0  0  0  0
   36.9150   26.7650   40.4490 C   0  0  0  0  0  0  0  0  0  0  0  0
   37.0170   27.3930   39.1860 C   0  0  0  0  0  0  0  0  0  0  0  0
   37.2400   28.7280   39.1420 N   0  0  0  0  0  0  0  0  0  0  0  0
   37.3660   29.4820   40.2490 C   0  0  0  0  0  0  0  0  0  0  0  0
   37.2750   28.9170   41.4720 N   0  0  0  0  0  0  0  0  0  0  0  0
   36.7390   25.7100   40.4950 H   0  0  0  0  0  0  0  0  0  0  0  0
   36.9200   26.8100   38.2770 H   0  0  0  0  0  0  0  0  0  0  0  0
   37.6060   30.9220   40.2250 C   0  0  0  0  0  0  0  0  0  0  0  0
   36.9700   31.9040   39.4760 C   0  0  0  0  0  0  0  0  0  0  0  0
   36.1750   31.6390   38.7910 H   0  0  0  0  0  0  0  0  0  0  0  0
   37.6120   33.0820   39.8660 C   0  0  0  0  0  0  0  0  0  0  0  0
   37.2960   34.0240   39.4180 H   0  0  0  0  0  0  0  0  0  0  0  0
   38.5830   32.7520   40.8140 C   0  0  0  0  0  0  0  0  0  0  0  0
   39.1580   33.5790   41.2010 H   0  0  0  0  0  0  0  0  0  0  0  0
   38.5480   31.4410   41.0020 O   0  0  0  0  0  0  0  0  0  0  0  0
   36.9410   26.9020   42.9160 C   0  0  0  0  0  0  0  0  0  0  0  0
   35.9290   27.4380   43.6790 F   0  0  0  0  0  0  0  0  0  0  0  0
   36.7310   25.5480   42.6570 F   0  0  0  0  0  0  0  0  0  0  0  0
   38.1630   26.9760   43.5860 F   0  0  0  0  0  0  0  0  0  0  0  0
  1 17  1  0  0  0  0
  2  7  1  0  0  0  0
  2  1  2  0  0  0  0
  3  2  1  0  0  0  0
  4  3  2  0  0  0  0
  4  5  1  0  0  0  0
  5  6  2  0  0  0  0
  6  1  1  0  0  0  0
  8  3  1  0  0  0  0
  9  5  1  0  0  0  0
  9 16  1  0  0  0  0
 10 12  1  0  0  0  0
 10  9  2  0  0  0  0
 11 10  1  0  0  0  0
 12 14  2  0  0  0  0
 13 12  1  0  0  0  0
 14 16  1  0  0  0  0
 14 15  1  0  0  0  0
 17 20  1  0  0  0  0
 17 18  1  0  0  0  0
 19 17  1  0  0  0  0
M  END
>  <minimizedAffinity>
-4.5363903

$$$$

 OpenBabel03242510473D

 20 21  0  0  0  0  0  0  0  0999 V2000
   37.8220   31.8700   39.8210 C   0  0  0  0  0  0  0  0  0  0  0  0
   37.3600   31.6240   38.5030 C   0  0  0  0  0  0  0  0  0  0  0  0
   36.7950   30.3520   38.2500 C   0  0  0  0  0  0  0  0  0  0  0  0
   36.7300   29.4580   39.2650 N   0  0  0  0  0  0  0  0  0  0  0  0
   37.1810   29.7290   40.5040 C   0  0  0  0  0  0  0  0  0  0  0  0
   37.7260   30.9330   40.7830 N   0  0  0  0  0  0  0  0  0  0  0  0
   37.4160   32.3380   37.7080 H   0  0  0  0  0  0  0  0  0  0  0  0
   36.4240   30.1070   37.2620 H   0  0  0  0  0  0  0  0  0  0  0  0
   37.1210   28.7810   41.6130 C   0  0  0  0  0  0  0  0  0  0  0  0
   36.8340   27.4220   41.5900 C   0  0  0  0  0  0  0  0  0  0  0  0
   36.6140   26.9260   40.6530 H   0  0  0  0  0  0  0  0  0  0  0  0
   36.9220   27.0440   42.9320 C   0  0  0  0  0  0  0  0  0  0  0  0
   36.7390   26.0030   43.1970 H   0  0  0  0  0  0  0  0  0  0  0  0
   37.2530   28.1770   43.6790 C   0  0  0  0  0  0  0  0  0  0  0  0
   37.3520   28.0230   44.7420 H   0  0  0  0  0  0  0  0  0  0  0  0
   37.3620   29.2030   42.8480 O   0  0  0  0  0  0  0  0  0  0  0  0
   38.4160   33.2260   40.0600 C   0  0  0  0  0  0  0  0  0  0  0  0
   39.4930   33.4560   39.2350 F   0  0  0  0  0  0  0  0  0  0  0  0
   37.4020   34.1610   39.8580 F   0  0  0  0  0  0  0  0  0  0  0  0
   38.7810   33.3430   41.4020 F   0  0  0  0  0  0  0  0  0  0  0  0
  1 17  1  0  0  0  0
  1  6  1  0  0  0  0
  2  1  2  0  0  0  0
  3  2  1  0  0  0  0
  3  4  2  0  0  0  0
  4  5  1  0  0  0  0
  5  6  2  0  0  0  0
  5  9  1  0  0  0  0
  7  2  1  0  0  0  0
  8  3  1  0  0  0  0
  9 16  1  0  0  0  0
 10  9  2  0  0  0  0
 10 12  1  0  0  0  0
 11 10  1  0  0  0  0
 12 13  1  0  0  0  0
 12 14  2  0  0  0  0
 14 15  1  0  0  0  0
 16 14  1  0  0  0  0
 17 20  1  0  0  0  0
 18 17  1  0  0  0  0
 19 17  1  0  0  0  0
M  END
>  <minimizedAffinity>
-4.49930429

$$$$

 OpenBabel03242510473D

 20 21  0  0  0  0  0  0  0  0999 V2000
   37.2410   26.8460   41.9090 C   0  0  0  0  0  0  0  0  0  0  0  0
   37.4100   27.1220   43.2900 C   0  0  0  0  0  0  0  0  0  0  0  0
   37.4950   28.4830   43.6640 C   0  0  0  0  0  0  0  0  0  0  0  0
   37.4130   29.4280   42.6970 N   0  0  0  0  0  0  0  0  0  0  0  0
   37.2540   29.1260   41.3960 C   0  0  0  0  0  0  0  0  0  0  0  0
   37.1670   27.8370   41.0010 N   0  0  0  0  0  0  0  0  0  0  0  0
   37.4730   26.3680   44.0460 H   0  0  0  0  0  0  0  0  0  0  0  0
   37.6230   28.7560   44.7050 H   0  0  0  0  0  0  0  0  0  0  0  0
   37.1620   30.1270   40.3370 C   0  0  0  0  0  0  0  0  0  0  0  0
   37.0730   29.9440   38.9620 C   0  0  0  0  0  0  0  0  0  0  0  0
   37.0650   28.9460   38.5440 H   0  0  0  0  0  0  0  0  0  0  0  0
   37.0140   31.2470   38.4600 C   0  0  0  0  0  0  0  0  0  0  0  0
   36.9380   31.3890   37.3830 H   0  0  0  0  0  0  0  0  0  0  0  0
   37.0690   32.1290   39.5410 C   0  0  0  0  0  0  0  0  0  0  0  0
   37.0320   33.1780   39.2890 H   0  0  0  0  0  0  0  0  0  0  0  0
   37.1590   31.4160   40.6530 O   0  0  0  0  0  0  0  0  0  0  0  0
   37.1540   25.3950   41.5410 C   0  0  0  0  0  0  0  0  0  0  0  0
   38.4030   24.8370   41.3960 F   0  0  0  0  0  0  0  0  0  0  0  0
   36.4180   24.7600   42.5410 F   0  0  0  0  0  0  0  0  0  0  0  0
   36.4060   25.2560   40.3710 F   0  0  0  0  0  0  0  0  0  0  0  0
  1  2  1  0  0  0  0
  2  3  2  0  0  0  0
  2  7  1  0  0  0  0
  3  8  1  0  0  0  0
  4  3  1  0  0  0  0
  5  4  2  0  0  0  0
  6  5  1  0  0  0  0
  6  1  2  0  0  0  0
  9 16  1  0  0  0  0
  9  5  1  0  0  0  0
 10  9  2  0  0  0  0
 11 10  1  0  0  0  0
 12 10  1  0  0  0  0
 12 14  2  0  0  0  0
 13 12  1  0  0  0  0
 14 16  1  0  0  0  0
 15 14  1  0  0  0  0
 17  1  1  0  0  0  0
 17 19  1  0  0  0  0
 18 17  1  0  0  0  0
 20 17  1  0  0  0  0
M  END
>  <minimizedAffinity>
-4.43706989

$$$$

 OpenBabel03242510473D

 20 21  0  0  0  0  0  0  0  0999 V2000
   36.7510   28.9480   41.4240 C   0  0  0  0  0  0  0  0  0  0  0  0
   37.4920   29.3980   42.5470 C   0  0  0  0  0  0  0  0  0  0  0  0
   38.2170   28.4210   43.2680 C   0  0  0  0  0  0  0  0  0  0  0  0
   38.1630   27.1340   42.8510 N   0  0  0  0  0  0  0  0  0  0  0  0
   37.4470   26.7460   41.7800 C   0  0  0  0  0  0  0  0  0  0  0  0
   36.7420   27.6500   41.0670 N   0  0  0  0  0  0  0  0  0  0  0  0
   37.5280   30.4180   42.8670 H   0  0  0  0  0  0  0  0  0  0  0  0
   38.8030   28.7060   44.1340 H   0  0  0  0  0  0  0  0  0  0  0  0
   37.3730   25.3640   41.3130 C   0  0  0  0  0  0  0  0  0  0  0  0
   38.1180   24.2620   41.7140 C   0  0  0  0  0  0  0  0  0  0  0  0
   38.8800   24.3660   42.4760 H   0  0  0  0  0  0  0  0  0  0  0  0
   37.6140   23.2210   40.9300 C   0  0  0  0  0  0  0  0  0  0  0  0
   38.0360   22.2230   41.0510 H   0  0  0  0  0  0  0  0  0  0  0  0
   36.6090   23.7430   40.1140 C   0  0  0  0  0  0  0  0  0  0  0  0
   36.1320   23.0370   39.4510 H   0  0  0  0  0  0  0  0  0  0  0  0
   36.4940   25.0370   40.3740 O   0  0  0  0  0  0  0  0  0  0  0  0
   35.9910   30.0040   40.6790 C   0  0  0  0  0  0  0  0  0  0  0  0
   35.9000   31.1670   41.4080 F   0  0  0  0  0  0  0  0  0  0  0  0
   36.6490   30.2060   39.4660 F   0  0  0  0  0  0  0  0  0  0  0  0
   34.7240   29.5210   40.3500 F   0  0  0  0  0  0  0  0  0  0  0  0
  1  2  1  0  0  0  0
  2  7  1  0  0  0  0
  2  3  2  0  0  0  0
  3  8  1  0  0  0  0
  4  3  1  0  0  0  0
  5  4  2  0  0  0  0
  6  1  2  0  0  0  0
  6  5  1  0  0  0  0
  9 10  2  0  0  0  0
  9  5  1  0  0  0  0
 10 11  1  0  0  0  0
 12 13  1  0  0  0  0
 12 10  1  0  0  0  0
 14 16  1  0  0  0  0
 14 12  2  0  0  0  0
 15 14  1  0  0  0  0
 16  9  1  0  0  0  0
 17 18  1  0  0  0  0
 17  1  1  0  0  0  0
 19 17  1  0  0  0  0
 20 17  1  0  0  0  0
M  END
>  <minimizedAffinity>
-4.33162403

$$$$

 OpenBabel03242510473D

 20 21  0  0  0  0  0  0  0  0999 V2000
   38.3090   26.4000   42.3750 C   0  0  0  0  0  0  0  0  0  0  0  0
   38.7000   27.3270   43.3750 C   0  0  0  0  0  0  0  0  0  0  0  0
   38.1360   28.6220   43.3030 C   0  0  0  0  0  0  0  0  0  0  0  0
   37.2690   28.8970   42.3000 N   0  0  0  0  0  0  0  0  0  0  0  0
   36.9230   27.9900   41.3680 C   0  0  0  0  0  0  0  0  0  0  0  0
   37.4410   26.7430   41.4050 N   0  0  0  0  0  0  0  0  0  0  0  0
   39.3860   27.1000   44.1640 H   0  0  0  0  0  0  0  0  0  0  0  0
   38.3970   29.3730   44.0400 H   0  0  0  0  0  0  0  0  0  0  0  0
   35.9910   28.2640   40.2770 C   0  0  0  0  0  0  0  0  0  0  0  0
   34.9600   29.1930   40.2190 C   0  0  0  0  0  0  0  0  0  0  0  0
   34.7590   29.8400   41.0630 H   0  0  0  0  0  0  0  0  0  0  0  0
   34.4180   29.0020   38.9450 C   0  0  0  0  0  0  0  0  0  0  0  0
   33.5750   29.6210   38.6360 H   0  0  0  0  0  0  0  0  0  0  0  0
   35.1410   27.9870   38.3150 C   0  0  0  0  0  0  0  0  0  0  0  0
   34.8220   27.7380   37.3150 H   0  0  0  0  0  0  0  0  0  0  0  0
   36.0790   27.5680   39.1510 O   0  0  0  0  0  0  0  0  0  0  0  0
   38.9220   25.0360   42.4760 C   0  0  0  0  0  0  0  0  0  0  0  0
   39.7380   24.7700   41.4000 F   0  0  0  0  0  0  0  0  0  0  0  0
   39.6250   24.9880   43.6790 F   0  0  0  0  0  0  0  0  0  0  0  0
   37.9130   24.0790   42.5850 F   0  0  0  0  0  0  0  0  0  0  0  0
  1 17  1  0  0  0  0
  1  2  1  0  0  0  0
  2  7  1  0  0  0  0
  3  2  2  0  0  0  0
  3  8  1  0  0  0  0
  4  3  1  0  0  0  0
  5  6  1  0  0  0  0
  5  4  2  0  0  0  0
  6  1  2  0  0  0  0
  9  5  1  0  0  0  0
 10  9  2  0  0  0  0
 10 11  1  0  0  0  0
 12 10  1  0  0  0  0
 13 12  1  0  0  0  0
 14 12  2  0  0  0  0
 14 16  1  0  0  0  0
 15 14  1  0  0  0  0
 16  9  1  0  0  0  0
 17 20  1  0  0  0  0
 17 19  1  0  0  0  0
 18 17  1  0  0  0  0
M  END
>  <minimizedAffinity>
-4.3076849

$$$$

 OpenBabel03242510473D

 20 21  0  0  0  0  0  0  0  0999 V2000
   38.4110   31.6160   39.7070 C   0  0  0  0  0  0  0  0  0  0  0  0
   39.5150   32.4790   39.9230 C   0  0  0  0  0  0  0  0  0  0  0  0
   40.3170   32.2190   41.0580 C   0  0  0  0  0  0  0  0  0  0  0  0
   39.9900   31.1780   41.8600 N   0  0  0  0  0  0  0  0  0  0  0  0
   38.9320   30.3810   41.6210 C   0  0  0  0  0  0  0  0  0  0  0  0
   38.1440   30.5980   40.5470 N   0  0  0  0  0  0  0  0  0  0  0  0
   39.7660   33.2990   39.2820 H   0  0  0  0  0  0  0  0  0  0  0  0
   41.1760   32.8450   41.2740 H   0  0  0  0  0  0  0  0  0  0  0  0
   38.5600   29.2540   42.4720 C   0  0  0  0  0  0  0  0  0  0  0  0
   39.3370   28.1850   42.8990 C   0  0  0  0  0  0  0  0  0  0  0  0
   40.3740   28.1090   42.6000 H   0  0  0  0  0  0  0  0  0  0  0  0
   38.4570   27.4300   43.6790 C   0  0  0  0  0  0  0  0  0  0  0  0
   38.8230   26.5160   44.1460 H   0  0  0  0  0  0  0  0  0  0  0  0
   37.2190   28.0750   43.6800 C   0  0  0  0  0  0  0  0  0  0  0  0
   36.4410   27.5910   44.2500 H   0  0  0  0  0  0  0  0  0  0  0  0
   37.3210   29.1690   42.9400 O   0  0  0  0  0  0  0  0  0  0  0  0
   37.5780   31.9140   38.4960 C   0  0  0  0  0  0  0  0  0  0  0  0
   38.3370   31.9070   37.3490 F   0  0  0  0  0  0  0  0  0  0  0  0
   36.5630   30.9590   38.4490 F   0  0  0  0  0  0  0  0  0  0  0  0
   36.9380   33.1430   38.6630 F   0  0  0  0  0  0  0  0  0  0  0  0
  1  2  2  0  0  0  0
  1  6  1  0  0  0  0
  2  3  1  0  0  0  0
  3  8  1  0  0  0  0
  3  4  2  0  0  0  0
  5  4  1  0  0  0  0
  5  9  1  0  0  0  0
  6  5  2  0  0  0  0
  7  2  1  0  0  0  0
  9 10  2  0  0  0  0
  9 16  1  0  0  0  0
 10 12  1  0  0  0  0
 11 10  1  0  0  0  0
 12 14  2  0  0  0  0
 12 13  1  0  0  0  0
 14 15  1  0  0  0  0
 16 14  1  0  0  0  0
 17 20  1  0  0  0  0
 17  1  1  0  0  0  0
 18 17  1  0  0  0  0
 19 17  1  0  0  0  0
M  END
>  <minimizedAffinity>
-4.27761507

$$$$

 OpenBabel03242510473D

 20 21  0  0  0  0  0  0  0  0999 V2000
   36.9080   27.1770   41.3380 C   0  0  0  0  0  0  0  0  0  0  0  0
   36.7580   26.2860   40.2450 C   0  0  0  0  0  0  0  0  0  0  0  0
   36.6940   26.8610   38.9550 C   0  0  0  0  0  0  0  0  0  0  0  0
   36.7780   28.2070   38.8390 N   0  0  0  0  0  0  0  0  0  0  0  0
   36.9190   29.0210   39.9020 C   0  0  0  0  0  0  0  0  0  0  0  0
   36.9840   28.5080   41.1490 N   0  0  0  0  0  0  0  0  0  0  0  0
   36.6930   25.2220   40.3470 H   0  0  0  0  0  0  0  0  0  0  0  0
   36.5820   26.2290   38.0810 H   0  0  0  0  0  0  0  0  0  0  0  0
   37.0110   30.4750   39.8020 C   0  0  0  0  0  0  0  0  0  0  0  0
   36.8660   31.4330   40.7970 C   0  0  0  0  0  0  0  0  0  0  0  0
   36.6540   31.1340   41.8160 H   0  0  0  0  0  0  0  0  0  0  0  0
   37.0580   32.6410   40.1210 C   0  0  0  0  0  0  0  0  0  0  0  0
   36.9960   33.5710   40.6850 H   0  0  0  0  0  0  0  0  0  0  0  0
   37.3040   32.3500   38.7780 C   0  0  0  0  0  0  0  0  0  0  0  0
   37.4690   33.2030   38.1390 H   0  0  0  0  0  0  0  0  0  0  0  0
   37.2670   31.0350   38.6260 O   0  0  0  0  0  0  0  0  0  0  0  0
   36.9720   26.5410   42.6940 C   0  0  0  0  0  0  0  0  0  0  0  0
   38.2410   26.6110   43.2230 F   0  0  0  0  0  0  0  0  0  0  0  0
   36.0410   27.1940   43.5000 F   0  0  0  0  0  0  0  0  0  0  0  0
   36.5410   25.2170   42.6080 F   0  0  0  0  0  0  0  0  0  0  0  0
  1 17  1  0  0  0  0
  2  7  1  0  0  0  0
  2  1  2  0  0  0  0
  3  2  1  0  0  0  0
  4  3  2  0  0  0  0
  4  5  1  0  0  0  0
  5  6  2  0  0  0  0
  6  1  1  0  0  0  0
  8  3  1  0  0  0  0
  9  5  1  0  0  0  0
  9 10  2  0  0  0  0
 10 11  1  0  0  0  0
 12 13  1  0  0  0  0
 12 10  1  0  0  0  0
 14 12  2  0  0  0  0
 15 14  1  0  0  0  0
 16 14  1  0  0  0  0
 16  9  1  0  0  0  0
 17 18  1  0  0  0  0
 17 19  1  0  0  0  0
 20 17  1  0  0  0  0
M  END
>  <minimizedAffinity>
-4.25154543

$$$$
