
 OpenBabel03252502033D

 33 36  0  0  0  0  0  0  0  0999 V2000
   37.0130   32.0590   39.7680 C   0  0  0  0  0  0  0  0  0  0  0  0
   36.8700   31.0510   40.7270 C   0  0  0  0  0  0  0  0  0  0  0  0
   37.9830   30.2770   40.9920 C   0  0  0  0  0  0  0  0  0  0  0  0
   39.1140   30.5400   40.3190 N   0  0  0  0  0  0  0  0  0  0  0  0
   39.2530   31.4850   39.4160 C   0  0  0  0  0  0  0  0  0  0  0  0
   38.1810   32.2340   39.1600 N   0  0  0  0  0  0  0  0  0  0  0  0
   36.1220   32.6750   39.5590 H   0  0  0  0  0  0  0  0  0  0  0  0
   40.4000   31.8960   38.6060 C   0  0  0  0  0  0  0  0  0  0  0  0
   40.8980   33.1640   38.5750 N   0  0  0  0  0  0  0  0  0  0  0  0
   41.9380   33.5720   37.8520 C   0  0  0  0  0  0  0  0  0  0  0  0
   42.5950   32.6960   37.0640 N   0  0  0  0  0  0  0  0  0  0  0  0
   42.2050   31.4060   37.0020 C   0  0  0  0  0  0  0  0  0  0  0  0
   42.8820   30.5100   36.1920 C   0  0  0  0  0  0  0  0  0  0  0  0
   42.4930   29.1990   36.1240 C   0  0  0  0  0  0  0  0  0  0  0  0
   41.4130   28.8120   36.8850 C   0  0  0  0  0  0  0  0  0  0  0  0
   40.7680   29.7320   37.6750 C   0  0  0  0  0  0  0  0  0  0  0  0
   41.1160   31.0540   37.7800 C   0  0  0  0  0  0  0  0  0  0  0  0
   42.2350   34.6120   37.9170 H   0  0  0  0  0  0  0  0  0  0  0  0
   43.7260   30.8550   35.6100 H   0  0  0  0  0  0  0  0  0  0  0  0
   42.9750   28.4510   35.5150 H   0  0  0  0  0  0  0  0  0  0  0  0
   41.0910   27.7820   36.8450 H   0  0  0  0  0  0  0  0  0  0  0  0
   39.9190   29.3720   38.2580 H   0  0  0  0  0  0  0  0  0  0  0  0
   37.9470   29.2100   41.9640 C   0  0  0  0  0  0  0  0  0  0  0  0
   38.8700   28.7750   42.8860 C   0  0  0  0  0  0  0  0  0  0  0  0
   39.8350   29.1850   43.0420 H   0  0  0  0  0  0  0  0  0  0  0  0
   38.3860   27.7070   43.6080 C   0  0  0  0  0  0  0  0  0  0  0  0
   38.8130   27.1090   44.4010 H   0  0  0  0  0  0  0  0  0  0  0  0
   37.1230   27.5240   43.0730 C   0  0  0  0  0  0  0  0  0  0  0  0
   36.3520   26.8040   43.3110 H   0  0  0  0  0  0  0  0  0  0  0  0
   36.9230   28.4120   42.1350 O   0  0  0  0  0  0  0  0  0  0  0  0
   35.6250   30.8850   41.3580 N   0  0  0  0  0  0  0  0  0  0  0  0
   35.1390   30.2180   40.7120 H   0  0  0  0  0  0  0  0  0  0  0  0
   35.4180   31.3950   42.2620 H   0  0  0  0  0  0  0  0  0  0  0  0
  1  2  1  0  0  0  0
  2  3  2  0  0  0  0
  2 31  1  0  0  0  0
  3 23  1  0  0  0  0
  4  3  1  0  0  0  0
  5  4  2  0  0  0  0
  6  5  1  0  0  0  0
  6  1  2  0  0  0  0
  7  1  1  0  0  0  0
  8  5  1  0  0  0  0
  9  8  1  0  0  0  0
 10 18  1  0  0  0  0
 10  9  2  0  0  0  0
 11 10  1  0  0  0  0
 12 11  2  0  0  0  0
 12 17  1  0  0  0  0
 13 12  1  0  0  0  0
 14 13  2  0  0  0  0
 14 15  1  0  0  0  0
 15 16  2  0  0  0  0
 16 17  1  0  0  0  0
 16 22  1  0  0  0  0
 17  8  2  0  0  0  0
 19 13  1  0  0  0  0
 20 14  1  0  0  0  0
 21 15  1  0  0  0  0
 23 30  1  0  0  0  0
 23 24  2  0  0  0  0
 24 25  1  0  0  0  0
 24 26  1  0  0  0  0
 26 27  1  0  0  0  0
 28 29  1  0  0  0  0
 28 26  2  0  0  0  0
 30 28  1  0  0  0  0
 31 33  1  0  0  0  0
 32 31  1  0  0  0  0
M  END
>  <minimizedAffinity>
-6.32783556

$$$$

 OpenBabel03252502033D

 33 36  0  0  0  0  0  0  0  0999 V2000
   37.2060   32.1220   39.8220 C   0  0  0  0  0  0  0  0  0  0  0  0
   36.9280   31.1120   40.7490 C   0  0  0  0  0  0  0  0  0  0  0  0
   37.9630   30.2560   41.0700 C   0  0  0  0  0  0  0  0  0  0  0  0
   39.1520   30.4460   40.4790 N   0  0  0  0  0  0  0  0  0  0  0  0
   39.4190   31.3930   39.6060 C   0  0  0  0  0  0  0  0  0  0  0  0
   38.4220   32.2220   39.2950 N   0  0  0  0  0  0  0  0  0  0  0  0
   36.3780   32.8040   39.5670 H   0  0  0  0  0  0  0  0  0  0  0  0
   40.6440   31.7320   38.8820 C   0  0  0  0  0  0  0  0  0  0  0  0
   40.9180   31.3230   37.6120 N   0  0  0  0  0  0  0  0  0  0  0  0
   42.0200   31.6130   36.9230 C   0  0  0  0  0  0  0  0  0  0  0  0
   42.9810   32.3760   37.4830 N   0  0  0  0  0  0  0  0  0  0  0  0
   42.8360   32.8490   38.7380 C   0  0  0  0  0  0  0  0  0  0  0  0
   43.8250   33.6310   39.3080 C   0  0  0  0  0  0  0  0  0  0  0  0
   43.6850   34.1160   40.5810 C   0  0  0  0  0  0  0  0  0  0  0  0
   42.5320   33.7960   41.2640 C   0  0  0  0  0  0  0  0  0  0  0  0
   41.5750   33.0160   40.6630 C   0  0  0  0  0  0  0  0  0  0  0  0
   41.6650   32.5060   39.3930 C   0  0  0  0  0  0  0  0  0  0  0  0
   42.1170   31.2230   35.9180 H   0  0  0  0  0  0  0  0  0  0  0  0
   44.7150   33.8600   38.7380 H   0  0  0  0  0  0  0  0  0  0  0  0
   44.4150   34.7300   41.0840 H   0  0  0  0  0  0  0  0  0  0  0  0
   42.4030   34.1690   42.2690 H   0  0  0  0  0  0  0  0  0  0  0  0
   40.6820   32.7930   41.2480 H   0  0  0  0  0  0  0  0  0  0  0  0
   37.7860   29.1790   42.0160 C   0  0  0  0  0  0  0  0  0  0  0  0
   38.5830   28.7100   43.0340 C   0  0  0  0  0  0  0  0  0  0  0  0
   39.5320   29.0930   43.3100 H   0  0  0  0  0  0  0  0  0  0  0  0
   37.9900   27.6460   43.6780 C   0  0  0  0  0  0  0  0  0  0  0  0
   38.3060   27.0290   44.5080 H   0  0  0  0  0  0  0  0  0  0  0  0
   36.7960   27.5020   42.9950 C   0  0  0  0  0  0  0  0  0  0  0  0
   35.9850   26.7990   43.1300 H   0  0  0  0  0  0  0  0  0  0  0  0
   36.7300   28.4050   42.0530 O   0  0  0  0  0  0  0  0  0  0  0  0
   35.6350   31.0270   41.2930 N   0  0  0  0  0  0  0  0  0  0  0  0
   35.1480   30.4070   40.6030 H   0  0  0  0  0  0  0  0  0  0  0  0
   35.4050   31.5360   42.1920 H   0  0  0  0  0  0  0  0  0  0  0  0
  1  2  1  0  0  0  0
  2  3  2  0  0  0  0
  2 31  1  0  0  0  0
  3 23  1  0  0  0  0
  4  3  1  0  0  0  0
  5  4  2  0  0  0  0
  6  5  1  0  0  0  0
  6  1  2  0  0  0  0
  7  1  1  0  0  0  0
  8 17  1  0  0  0  0
  8  5  1  0  0  0  0
  9  8  2  0  0  0  0
 10 11  2  0  0  0  0
 10  9  1  0  0  0  0
 11 12  1  0  0  0  0
 12 13  2  0  0  0  0
 12 17  1  0  0  0  0
 13 14  1  0  0  0  0
 14 20  1  0  0  0  0
 14 15  2  0  0  0  0
 15 21  1  0  0  0  0
 16 22  1  0  0  0  0
 16 15  1  0  0  0  0
 17 16  2  0  0  0  0
 18 10  1  0  0  0  0
 19 13  1  0  0  0  0
 23 30  1  0  0  0  0
 23 24  2  0  0  0  0
 24 25  1  0  0  0  0
 24 26  1  0  0  0  0
 26 27  1  0  0  0  0
 28 29  1  0  0  0  0
 28 26  2  0  0  0  0
 30 28  1  0  0  0  0
 31 33  1  0  0  0  0
 32 31  1  0  0  0  0
M  END
>  <minimizedAffinity>
-6.13463306

$$$$

 OpenBabel03252502033D

 33 36  0  0  0  0  0  0  0  0999 V2000
   36.2850   30.7960   40.9840 C   0  0  0  0  0  0  0  0  0  0  0  0
   37.2090   31.6330   40.3500 C   0  0  0  0  0  0  0  0  0  0  0  0
   38.3320   31.0340   39.8160 C   0  0  0  0  0  0  0  0  0  0  0  0
   38.4620   29.7030   39.9380 N   0  0  0  0  0  0  0  0  0  0  0  0
   37.5970   28.9120   40.5330 C   0  0  0  0  0  0  0  0  0  0  0  0
   36.5110   29.4880   41.0490 N   0  0  0  0  0  0  0  0  0  0  0  0
   35.3890   31.2780   41.4100 H   0  0  0  0  0  0  0  0  0  0  0  0
   37.5890   27.4650   40.7470 C   0  0  0  0  0  0  0  0  0  0  0  0
   36.8240   26.5920   40.0340 N   0  0  0  0  0  0  0  0  0  0  0  0
   36.7920   25.2720   40.2000 C   0  0  0  0  0  0  0  0  0  0  0  0
   37.5650   24.6950   41.1430 N   0  0  0  0  0  0  0  0  0  0  0  0
   38.3720   25.4450   41.9210 C   0  0  0  0  0  0  0  0  0  0  0  0
   39.1640   24.8480   42.8870 C   0  0  0  0  0  0  0  0  0  0  0  0
   39.9870   25.6030   43.6790 C   0  0  0  0  0  0  0  0  0  0  0  0
   39.9940   26.9650   43.4790 C   0  0  0  0  0  0  0  0  0  0  0  0
   39.1930   27.5190   42.5110 C   0  0  0  0  0  0  0  0  0  0  0  0
   38.3530   26.8100   41.6910 C   0  0  0  0  0  0  0  0  0  0  0  0
   36.1370   24.6880   39.5660 H   0  0  0  0  0  0  0  0  0  0  0  0
   39.1290   23.7740   43.0120 H   0  0  0  0  0  0  0  0  0  0  0  0
   40.6280   25.2030   44.4480 H   0  0  0  0  0  0  0  0  0  0  0  0
   40.6370   27.5780   44.0940 H   0  0  0  0  0  0  0  0  0  0  0  0
   39.2370   28.6030   42.3940 H   0  0  0  0  0  0  0  0  0  0  0  0
   39.3510   31.8040   39.1400 C   0  0  0  0  0  0  0  0  0  0  0  0
   39.9570   31.6500   37.9150 C   0  0  0  0  0  0  0  0  0  0  0  0
   39.7590   30.8800   37.2140 H   0  0  0  0  0  0  0  0  0  0  0  0
   40.8830   32.6440   37.6920 C   0  0  0  0  0  0  0  0  0  0  0  0
   41.5450   32.8520   36.8620 H   0  0  0  0  0  0  0  0  0  0  0  0
   40.8020   33.4030   38.8460 C   0  0  0  0  0  0  0  0  0  0  0  0
   41.3360   34.2950   39.1450 H   0  0  0  0  0  0  0  0  0  0  0  0
   39.9080   32.8770   39.6420 O   0  0  0  0  0  0  0  0  0  0  0  0
   36.9480   33.0130   40.2930 N   0  0  0  0  0  0  0  0  0  0  0  0
   37.3800   33.3550   41.1840 H   0  0  0  0  0  0  0  0  0  0  0  0
   36.4280   33.4190   39.4650 H   0  0  0  0  0  0  0  0  0  0  0  0
  1  6  1  0  0  0  0
  1  7  1  0  0  0  0
  2  1  2  0  0  0  0
  3  4  2  0  0  0  0
  3  2  1  0  0  0  0
  4  5  1  0  0  0  0
  5  8  1  0  0  0  0
  5  6  2  0  0  0  0
  8 17  1  0  0  0  0
  9 10  1  0  0  0  0
  9  8  2  0  0  0  0
 10 11  2  0  0  0  0
 11 12  1  0  0  0  0
 12 13  1  0  0  0  0
 13 19  1  0  0  0  0
 13 14  2  0  0  0  0
 14 20  1  0  0  0  0
 15 14  1  0  0  0  0
 15 21  1  0  0  0  0
 16 15  2  0  0  0  0
 17 12  2  0  0  0  0
 17 16  1  0  0  0  0
 18 10  1  0  0  0  0
 22 16  1  0  0  0  0
 23 30  1  0  0  0  0
 23  3  1  0  0  0  0
 24 23  2  0  0  0  0
 25 24  1  0  0  0  0
 26 24  1  0  0  0  0
 26 28  2  0  0  0  0
 27 26  1  0  0  0  0
 28 29  1  0  0  0  0
 28 30  1  0  0  0  0
 31  2  1  0  0  0  0
 31 32  1  0  0  0  0
 33 31  1  0  0  0  0
M  END
>  <minimizedAffinity>
-6.04935694

$$$$

 OpenBabel03252502033D

 33 36  0  0  0  0  0  0  0  0999 V2000
   36.4270   31.1620   41.0170 C   0  0  0  0  0  0  0  0  0  0  0  0
   37.3320   31.9480   40.2980 C   0  0  0  0  0  0  0  0  0  0  0  0
   38.5490   31.3740   39.9850 C   0  0  0  0  0  0  0  0  0  0  0  0
   38.7800   30.1150   40.3890 N   0  0  0  0  0  0  0  0  0  0  0  0
   37.9330   29.3720   41.0660 C   0  0  0  0  0  0  0  0  0  0  0  0
   36.7570   29.9240   41.3680 N   0  0  0  0  0  0  0  0  0  0  0  0
   35.4570   31.6240   41.2650 H   0  0  0  0  0  0  0  0  0  0  0  0
   38.0280   28.0030   41.5720 C   0  0  0  0  0  0  0  0  0  0  0  0
   38.6730   27.6580   42.7220 N   0  0  0  0  0  0  0  0  0  0  0  0
   38.7790   26.4240   43.2130 C   0  0  0  0  0  0  0  0  0  0  0  0
   38.2160   25.3890   42.5550 N   0  0  0  0  0  0  0  0  0  0  0  0
   37.5470   25.5920   41.4020 C   0  0  0  0  0  0  0  0  0  0  0  0
   36.9710   24.5270   40.7310 C   0  0  0  0  0  0  0  0  0  0  0  0
   36.2880   24.7250   39.5610 C   0  0  0  0  0  0  0  0  0  0  0  0
   36.2000   26.0130   39.0830 C   0  0  0  0  0  0  0  0  0  0  0  0
   36.7850   27.0430   39.7780 C   0  0  0  0  0  0  0  0  0  0  0  0
   37.4780   26.9000   40.9530 C   0  0  0  0  0  0  0  0  0  0  0  0
   39.3210   26.2830   44.1390 H   0  0  0  0  0  0  0  0  0  0  0  0
   37.0640   23.5300   41.1410 H   0  0  0  0  0  0  0  0  0  0  0  0
   35.8180   23.9410   38.9900 H   0  0  0  0  0  0  0  0  0  0  0  0
   35.6650   26.1900   38.1620 H   0  0  0  0  0  0  0  0  0  0  0  0
   36.6840   28.0440   39.3560 H   0  0  0  0  0  0  0  0  0  0  0  0
   39.5580   32.0960   39.2450 C   0  0  0  0  0  0  0  0  0  0  0  0
   40.1360   31.8670   38.0180 C   0  0  0  0  0  0  0  0  0  0  0  0
   39.9190   31.0600   37.3670 H   0  0  0  0  0  0  0  0  0  0  0  0
   41.0650   32.8400   37.7190 C   0  0  0  0  0  0  0  0  0  0  0  0
   41.7100   32.9940   36.8650 H   0  0  0  0  0  0  0  0  0  0  0  0
   41.0130   33.6640   38.8290 C   0  0  0  0  0  0  0  0  0  0  0  0
   41.5590   34.5670   39.0650 H   0  0  0  0  0  0  0  0  0  0  0  0
   40.1330   33.1920   39.6730 O   0  0  0  0  0  0  0  0  0  0  0  0
   36.9610   33.2550   39.9370 N   0  0  0  0  0  0  0  0  0  0  0  0
   37.2750   33.8090   40.7690 H   0  0  0  0  0  0  0  0  0  0  0  0
   36.4900   33.4330   39.0060 H   0  0  0  0  0  0  0  0  0  0  0  0
  1  7  1  0  0  0  0
  1  6  1  0  0  0  0
  2  1  2  0  0  0  0
  3  2  1  0  0  0  0
  3  4  2  0  0  0  0
  4  5  1  0  0  0  0
  5  6  2  0  0  0  0
  5  8  1  0  0  0  0
  8  9  1  0  0  0  0
  9 10  2  0  0  0  0
 10 18  1  0  0  0  0
 11 10  1  0  0  0  0
 12 11  2  0  0  0  0
 13 19  1  0  0  0  0
 13 12  1  0  0  0  0
 14 13  2  0  0  0  0
 15 14  1  0  0  0  0
 15 16  2  0  0  0  0
 16 17  1  0  0  0  0
 17 12  1  0  0  0  0
 17  8  2  0  0  0  0
 20 14  1  0  0  0  0
 21 15  1  0  0  0  0
 22 16  1  0  0  0  0
 23 30  1  0  0  0  0
 23  3  1  0  0  0  0
 24 23  2  0  0  0  0
 25 24  1  0  0  0  0
 26 24  1  0  0  0  0
 26 28  2  0  0  0  0
 27 26  1  0  0  0  0
 28 29  1  0  0  0  0
 28 30  1  0  0  0  0
 31  2  1  0  0  0  0
 31 32  1  0  0  0  0
 33 31  1  0  0  0  0
M  END
>  <minimizedAffinity>
-5.86535454

$$$$

 OpenBabel03252502033D

 33 36  0  0  0  0  0  0  0  0999 V2000
   37.1580   30.1480   36.7170 C   0  0  0  0  0  0  0  0  0  0  0  0
   37.9930   31.2310   37.0080 C   0  0  0  0  0  0  0  0  0  0  0  0
   38.6920   31.1810   38.1980 C   0  0  0  0  0  0  0  0  0  0  0  0
   38.5250   30.1090   38.9880 N   0  0  0  0  0  0  0  0  0  0  0  0
   37.7410   29.0880   38.7200 C   0  0  0  0  0  0  0  0  0  0  0  0
   37.0660   29.1340   37.5710 N   0  0  0  0  0  0  0  0  0  0  0  0
   36.6020   30.1920   35.7660 H   0  0  0  0  0  0  0  0  0  0  0  0
   37.4530   27.8610   39.4610 C   0  0  0  0  0  0  0  0  0  0  0  0
   37.2540   26.6450   38.8780 N   0  0  0  0  0  0  0  0  0  0  0  0
   36.9910   25.5090   39.5210 C   0  0  0  0  0  0  0  0  0  0  0  0
   36.9030   25.5040   40.8680 N   0  0  0  0  0  0  0  0  0  0  0  0
   37.0790   26.6410   41.5700 C   0  0  0  0  0  0  0  0  0  0  0  0
   36.9880   26.6310   42.9510 C   0  0  0  0  0  0  0  0  0  0  0  0
   37.1670   27.7820   43.6720 C   0  0  0  0  0  0  0  0  0  0  0  0
   37.4370   28.9380   42.9740 C   0  0  0  0  0  0  0  0  0  0  0  0
   37.5190   28.9060   41.6030 C   0  0  0  0  0  0  0  0  0  0  0  0
   37.3490   27.7840   40.8350 C   0  0  0  0  0  0  0  0  0  0  0  0
   36.8530   24.6070   38.9390 H   0  0  0  0  0  0  0  0  0  0  0  0
   36.7750   25.7010   43.4610 H   0  0  0  0  0  0  0  0  0  0  0  0
   37.1100   27.8430   44.7460 H   0  0  0  0  0  0  0  0  0  0  0  0
   37.5820   29.8560   43.5250 H   0  0  0  0  0  0  0  0  0  0  0  0
   37.7350   29.8500   41.1000 H   0  0  0  0  0  0  0  0  0  0  0  0
   39.5830   32.2460   38.5980 C   0  0  0  0  0  0  0  0  0  0  0  0
   39.5540   33.1170   39.6620 C   0  0  0  0  0  0  0  0  0  0  0  0
   38.8140   33.1500   40.4200 H   0  0  0  0  0  0  0  0  0  0  0  0
   40.6320   33.9730   39.6310 C   0  0  0  0  0  0  0  0  0  0  0  0
   40.9430   34.7770   40.2840 H   0  0  0  0  0  0  0  0  0  0  0  0
   41.3100   33.5700   38.4940 C   0  0  0  0  0  0  0  0  0  0  0  0
   42.2230   33.9400   38.0470 H   0  0  0  0  0  0  0  0  0  0  0  0
   40.6660   32.5770   37.9400 O   0  0  0  0  0  0  0  0  0  0  0  0
   38.0750   32.2930   36.0900 N   0  0  0  0  0  0  0  0  0  0  0  0
   37.2980   32.9180   36.4080 H   0  0  0  0  0  0  0  0  0  0  0  0
   38.8140   32.2800   35.3320 H   0  0  0  0  0  0  0  0  0  0  0  0
  1  2  2  0  0  0  0
  1  6  1  0  0  0  0
  2  3  1  0  0  0  0
  3 23  1  0  0  0  0
  3  4  2  0  0  0  0
  5  4  1  0  0  0  0
  5  8  1  0  0  0  0
  6  5  2  0  0  0  0
  7  1  1  0  0  0  0
  8 17  1  0  0  0  0
  9  8  2  0  0  0  0
  9 10  1  0  0  0  0
 10 11  2  0  0  0  0
 11 12  1  0  0  0  0
 12 13  1  0  0  0  0
 13 19  1  0  0  0  0
 13 14  2  0  0  0  0
 14 20  1  0  0  0  0
 15 21  1  0  0  0  0
 15 14  1  0  0  0  0
 16 15  2  0  0  0  0
 17 12  2  0  0  0  0
 17 16  1  0  0  0  0
 18 10  1  0  0  0  0
 22 16  1  0  0  0  0
 23 24  2  0  0  0  0
 24 25  1  0  0  0  0
 26 24  1  0  0  0  0
 26 27  1  0  0  0  0
 28 26  2  0  0  0  0
 29 28  1  0  0  0  0
 30 28  1  0  0  0  0
 30 23  1  0  0  0  0
 31 32  1  0  0  0  0
 31  2  1  0  0  0  0
 33 31  1  0  0  0  0
M  END
>  <minimizedAffinity>
-5.8078661

$$$$

 OpenBabel03252502033D

 33 36  0  0  0  0  0  0  0  0999 V2000
   37.3760   31.2010   38.3990 C   0  0  0  0  0  0  0  0  0  0  0  0
   38.5800   31.3100   37.6960 C   0  0  0  0  0  0  0  0  0  0  0  0
   39.6530   30.5830   38.1740 C   0  0  0  0  0  0  0  0  0  0  0  0
   39.4710   29.8290   39.2700 N   0  0  0  0  0  0  0  0  0  0  0  0
   38.3410   29.7230   39.9350 C   0  0  0  0  0  0  0  0  0  0  0  0
   37.3050   30.4230   39.4740 N   0  0  0  0  0  0  0  0  0  0  0  0
   36.5220   31.7830   38.0150 H   0  0  0  0  0  0  0  0  0  0  0  0
   37.9830   28.9550   41.1270 C   0  0  0  0  0  0  0  0  0  0  0  0
   37.9540   29.4720   42.3870 N   0  0  0  0  0  0  0  0  0  0  0  0
   37.6320   28.8040   43.4930 C   0  0  0  0  0  0  0  0  0  0  0  0
   37.2960   27.5000   43.4160 N   0  0  0  0  0  0  0  0  0  0  0  0
   37.2830   26.8640   42.2270 C   0  0  0  0  0  0  0  0  0  0  0  0
   36.9380   25.5260   42.1540 C   0  0  0  0  0  0  0  0  0  0  0  0
   36.9210   24.8740   40.9500 C   0  0  0  0  0  0  0  0  0  0  0  0
   37.2600   25.5960   39.8270 C   0  0  0  0  0  0  0  0  0  0  0  0
   37.5980   26.9220   39.9420 C   0  0  0  0  0  0  0  0  0  0  0  0
   37.6300   27.6220   41.1210 C   0  0  0  0  0  0  0  0  0  0  0  0
   37.6490   29.3320   44.4380 H   0  0  0  0  0  0  0  0  0  0  0  0
   36.6780   24.9950   43.0590 H   0  0  0  0  0  0  0  0  0  0  0  0
   36.6620   23.8350   40.8220 H   0  0  0  0  0  0  0  0  0  0  0  0
   37.2530   25.0990   38.8680 H   0  0  0  0  0  0  0  0  0  0  0  0
   37.8570   27.4470   39.0220 H   0  0  0  0  0  0  0  0  0  0  0  0
   40.9420   30.6220   37.5250 C   0  0  0  0  0  0  0  0  0  0  0  0
   41.7220   29.6350   36.9690 C   0  0  0  0  0  0  0  0  0  0  0  0
   41.4830   28.6030   36.9260 H   0  0  0  0  0  0  0  0  0  0  0  0
   42.8900   30.1540   36.4590 C   0  0  0  0  0  0  0  0  0  0  0  0
   43.7330   29.6970   35.9570 H   0  0  0  0  0  0  0  0  0  0  0  0
   42.7720   31.5040   36.7350 C   0  0  0  0  0  0  0  0  0  0  0  0
   43.4400   32.3300   36.5280 H   0  0  0  0  0  0  0  0  0  0  0  0
   41.6370   31.7180   37.3470 O   0  0  0  0  0  0  0  0  0  0  0  0
   38.6320   32.1390   36.5620 N   0  0  0  0  0  0  0  0  0  0  0  0
   38.8920   33.0640   36.9780 H   0  0  0  0  0  0  0  0  0  0  0  0
   38.4280   31.7370   35.6040 H   0  0  0  0  0  0  0  0  0  0  0  0
  1  6  1  0  0  0  0
  2  3  1  0  0  0  0
  2  1  2  0  0  0  0
  3  4  2  0  0  0  0
  4  5  1  0  0  0  0
  5  8  1  0  0  0  0
  6  5  2  0  0  0  0
  7  1  1  0  0  0  0
  8  9  1  0  0  0  0
  9 10  2  0  0  0  0
 10 18  1  0  0  0  0
 11 10  1  0  0  0  0
 12 11  2  0  0  0  0
 13 12  1  0  0  0  0
 13 19  1  0  0  0  0
 14 13  2  0  0  0  0
 15 16  2  0  0  0  0
 15 14  1  0  0  0  0
 16 17  1  0  0  0  0
 17  8  2  0  0  0  0
 17 12  1  0  0  0  0
 20 14  1  0  0  0  0
 21 15  1  0  0  0  0
 22 16  1  0  0  0  0
 23  3  1  0  0  0  0
 24 23  2  0  0  0  0
 25 24  1  0  0  0  0
 26 28  2  0  0  0  0
 26 24  1  0  0  0  0
 27 26  1  0  0  0  0
 28 30  1  0  0  0  0
 29 28  1  0  0  0  0
 30 23  1  0  0  0  0
 31 32  1  0  0  0  0
 31  2  1  0  0  0  0
 33 31  1  0  0  0  0
M  END
>  <minimizedAffinity>
-5.78442192

$$$$

 OpenBabel03252502033D

 33 36  0  0  0  0  0  0  0  0999 V2000
   39.2760   31.4380   39.0070 C   0  0  0  0  0  0  0  0  0  0  0  0
   40.2250   31.4000   37.9810 C   0  0  0  0  0  0  0  0  0  0  0  0
   41.2290   30.4570   38.0910 C   0  0  0  0  0  0  0  0  0  0  0  0
   41.2270   29.6490   39.1630 N   0  0  0  0  0  0  0  0  0  0  0  0
   40.3380   29.6810   40.1310 C   0  0  0  0  0  0  0  0  0  0  0  0
   39.3680   30.5900   40.0260 N   0  0  0  0  0  0  0  0  0  0  0  0
   38.4770   32.1920   38.9160 H   0  0  0  0  0  0  0  0  0  0  0  0
   40.1950   28.8820   41.3470 C   0  0  0  0  0  0  0  0  0  0  0  0
   41.2360   28.5210   42.1490 N   0  0  0  0  0  0  0  0  0  0  0  0
   41.1430   27.7970   43.2630 C   0  0  0  0  0  0  0  0  0  0  0  0
   39.9380   27.3570   43.6800 N   0  0  0  0  0  0  0  0  0  0  0  0
   38.8230   27.6440   42.9770 C   0  0  0  0  0  0  0  0  0  0  0  0
   37.5880   27.1900   43.4090 C   0  0  0  0  0  0  0  0  0  0  0  0
   36.4520   27.4790   42.7020 C   0  0  0  0  0  0  0  0  0  0  0  0
   36.5860   28.2300   41.5550 C   0  0  0  0  0  0  0  0  0  0  0  0
   37.8290   28.6600   41.1600 C   0  0  0  0  0  0  0  0  0  0  0  0
   38.9960   28.4010   41.8300 C   0  0  0  0  0  0  0  0  0  0  0  0
   42.0500   27.5780   43.8120 H   0  0  0  0  0  0  0  0  0  0  0  0
   37.5270   26.6030   44.3150 H   0  0  0  0  0  0  0  0  0  0  0  0
   35.4620   27.1570   42.9820 H   0  0  0  0  0  0  0  0  0  0  0  0
   35.7010   28.4680   40.9840 H   0  0  0  0  0  0  0  0  0  0  0  0
   37.8780   29.2520   40.2450 H   0  0  0  0  0  0  0  0  0  0  0  0
   42.2600   30.3310   37.0870 C   0  0  0  0  0  0  0  0  0  0  0  0
   42.4970   29.3730   36.1280 C   0  0  0  0  0  0  0  0  0  0  0  0
   41.9140   28.5040   35.9590 H   0  0  0  0  0  0  0  0  0  0  0  0
   43.6160   29.6800   35.3870 C   0  0  0  0  0  0  0  0  0  0  0  0
   44.1060   29.1770   34.5640 H   0  0  0  0  0  0  0  0  0  0  0  0
   44.0390   30.8710   35.9500 C   0  0  0  0  0  0  0  0  0  0  0  0
   44.8810   31.5070   35.7100 H   0  0  0  0  0  0  0  0  0  0  0  0
   43.2260   31.1990   36.9200 O   0  0  0  0  0  0  0  0  0  0  0  0
   40.1080   32.3060   36.9120 N   0  0  0  0  0  0  0  0  0  0  0  0
   40.6490   33.1310   37.2650 H   0  0  0  0  0  0  0  0  0  0  0  0
   39.5640   32.0350   36.0460 H   0  0  0  0  0  0  0  0  0  0  0  0
  1  6  1  0  0  0  0
  2  3  1  0  0  0  0
  2  1  2  0  0  0  0
  3  4  2  0  0  0  0
  4  5  1  0  0  0  0
  5  8  1  0  0  0  0
  6  5  2  0  0  0  0
  7  1  1  0  0  0  0
  8 17  2  0  0  0  0
  8  9  1  0  0  0  0
  9 10  2  0  0  0  0
 10 11  1  0  0  0  0
 10 18  1  0  0  0  0
 12 13  1  0  0  0  0
 12 11  2  0  0  0  0
 13 19  1  0  0  0  0
 14 20  1  0  0  0  0
 14 13  2  0  0  0  0
 15 14  1  0  0  0  0
 16 15  2  0  0  0  0
 16 17  1  0  0  0  0
 17 12  1  0  0  0  0
 21 15  1  0  0  0  0
 22 16  1  0  0  0  0
 23  3  1  0  0  0  0
 24 23  2  0  0  0  0
 25 24  1  0  0  0  0
 26 28  2  0  0  0  0
 26 24  1  0  0  0  0
 27 26  1  0  0  0  0
 28 30  1  0  0  0  0
 29 28  1  0  0  0  0
 30 23  1  0  0  0  0
 31 32  1  0  0  0  0
 31  2  1  0  0  0  0
 33 31  1  0  0  0  0
M  END
>  <minimizedAffinity>
-5.54073906

$$$$

 OpenBabel03252502033D

 33 36  0  0  0  0  0  0  0  0999 V2000
   37.3420   30.6450   37.9870 C   0  0  0  0  0  0  0  0  0  0  0  0
   38.3600   31.5430   37.6540 C   0  0  0  0  0  0  0  0  0  0  0  0
   39.4100   31.6580   38.5440 C   0  0  0  0  0  0  0  0  0  0  0  0
   39.3830   30.9090   39.6570 N   0  0  0  0  0  0  0  0  0  0  0  0
   38.4280   30.0640   39.9760 C   0  0  0  0  0  0  0  0  0  0  0  0
   37.4150   29.9510   39.1170 N   0  0  0  0  0  0  0  0  0  0  0  0
   36.5050   30.5570   37.2740 H   0  0  0  0  0  0  0  0  0  0  0  0
   38.2520   29.1850   41.1320 C   0  0  0  0  0  0  0  0  0  0  0  0
   37.6120   29.5510   42.2780 N   0  0  0  0  0  0  0  0  0  0  0  0
   37.4330   28.7780   43.3480 C   0  0  0  0  0  0  0  0  0  0  0  0
   37.9060   27.5140   43.3500 N   0  0  0  0  0  0  0  0  0  0  0  0
   38.5590   27.0250   42.2780 C   0  0  0  0  0  0  0  0  0  0  0  0
   39.0420   25.7270   42.2850 C   0  0  0  0  0  0  0  0  0  0  0  0
   39.7060   25.2230   41.1990 C   0  0  0  0  0  0  0  0  0  0  0  0
   39.8730   26.0500   40.1110 C   0  0  0  0  0  0  0  0  0  0  0  0
   39.3800   27.3320   40.1430 C   0  0  0  0  0  0  0  0  0  0  0  0
   38.7090   27.8850   41.2030 C   0  0  0  0  0  0  0  0  0  0  0  0
   36.9060   29.1900   44.1990 H   0  0  0  0  0  0  0  0  0  0  0  0
   38.8900   25.1100   43.1600 H   0  0  0  0  0  0  0  0  0  0  0  0
   40.1060   24.2240   41.1390 H   0  0  0  0  0  0  0  0  0  0  0  0
   40.3940   25.6700   39.2440 H   0  0  0  0  0  0  0  0  0  0  0  0
   39.5390   27.9440   39.2540 H   0  0  0  0  0  0  0  0  0  0  0  0
   40.5150   32.5560   38.2980 C   0  0  0  0  0  0  0  0  0  0  0  0
   41.0550   33.5740   39.0480 C   0  0  0  0  0  0  0  0  0  0  0  0
   40.7200   33.8900   40.0030 H   0  0  0  0  0  0  0  0  0  0  0  0
   42.1180   34.1600   38.3960 C   0  0  0  0  0  0  0  0  0  0  0  0
   42.7780   34.9740   38.6640 H   0  0  0  0  0  0  0  0  0  0  0  0
   42.1880   33.4400   37.2170 C   0  0  0  0  0  0  0  0  0  0  0  0
   42.8620   33.5260   36.3760 H   0  0  0  0  0  0  0  0  0  0  0  0
   41.2470   32.5330   37.2120 O   0  0  0  0  0  0  0  0  0  0  0  0
   38.2630   32.2670   36.4520 N   0  0  0  0  0  0  0  0  0  0  0  0
   37.7290   33.1170   36.7520 H   0  0  0  0  0  0  0  0  0  0  0  0
   38.6900   31.8790   35.5650 H   0  0  0  0  0  0  0  0  0  0  0  0
  1  6  1  0  0  0  0
  2  1  2  0  0  0  0
  2  3  1  0  0  0  0
  3  4  2  0  0  0  0
  4  5  1  0  0  0  0
  5  8  1  0  0  0  0
  6  5  2  0  0  0  0
  7  1  1  0  0  0  0
  8 17  2  0  0  0  0
  8  9  1  0  0  0  0
  9 10  2  0  0  0  0
 10 11  1  0  0  0  0
 10 18  1  0  0  0  0
 12 13  1  0  0  0  0
 12 11  2  0  0  0  0
 13 19  1  0  0  0  0
 14 13  2  0  0  0  0
 15 16  2  0  0  0  0
 15 14  1  0  0  0  0
 16 17  1  0  0  0  0
 17 12  1  0  0  0  0
 20 14  1  0  0  0  0
 21 15  1  0  0  0  0
 22 16  1  0  0  0  0
 23  3  1  0  0  0  0
 23 24  2  0  0  0  0
 24 25  1  0  0  0  0
 26 27  1  0  0  0  0
 26 24  1  0  0  0  0
 28 26  2  0  0  0  0
 29 28  1  0  0  0  0
 30 28  1  0  0  0  0
 30 23  1  0  0  0  0
 31 32  1  0  0  0  0
 31  2  1  0  0  0  0
 33 31  1  0  0  0  0
M  END
>  <minimizedAffinity>
-5.50742531

$$$$

 OpenBabel03252502033D

 33 36  0  0  0  0  0  0  0  0999 V2000
   38.3630   28.3380   36.7580 C   0  0  0  0  0  0  0  0  0  0  0  0
   37.0760   28.3940   36.2130 C   0  0  0  0  0  0  0  0  0  0  0  0
   36.0790   28.9160   37.0140 C   0  0  0  0  0  0  0  0  0  0  0  0
   36.4080   29.3290   38.2480 N   0  0  0  0  0  0  0  0  0  0  0  0
   37.6150   29.2780   38.7660 C   0  0  0  0  0  0  0  0  0  0  0  0
   38.5790   28.7750   37.9930 N   0  0  0  0  0  0  0  0  0  0  0  0
   39.1560   27.9200   36.1150 H   0  0  0  0  0  0  0  0  0  0  0  0
   38.1310   29.6820   40.0730 C   0  0  0  0  0  0  0  0  0  0  0  0
   38.9910   30.7220   40.2660 N   0  0  0  0  0  0  0  0  0  0  0  0
   39.4800   31.1180   41.4390 C   0  0  0  0  0  0  0  0  0  0  0  0
   39.1260   30.4690   42.5680 N   0  0  0  0  0  0  0  0  0  0  0  0
   38.2800   29.4200   42.5190 C   0  0  0  0  0  0  0  0  0  0  0  0
   37.9200   28.7580   43.6800 C   0  0  0  0  0  0  0  0  0  0  0  0
   37.0600   27.6930   43.6380 C   0  0  0  0  0  0  0  0  0  0  0  0
   36.5750   27.3110   42.4070 C   0  0  0  0  0  0  0  0  0  0  0  0
   36.9570   27.9940   41.2790 C   0  0  0  0  0  0  0  0  0  0  0  0
   37.8120   29.0650   41.2650 C   0  0  0  0  0  0  0  0  0  0  0  0
   40.1570   31.9620   41.4570 H   0  0  0  0  0  0  0  0  0  0  0  0
   38.3240   29.0900   44.6270 H   0  0  0  0  0  0  0  0  0  0  0  0
   36.7400   27.1340   44.5020 H   0  0  0  0  0  0  0  0  0  0  0  0
   35.8950   26.4730   42.3540 H   0  0  0  0  0  0  0  0  0  0  0  0
   36.5420   27.6500   40.3300 H   0  0  0  0  0  0  0  0  0  0  0  0
   34.7150   29.0200   36.5520 C   0  0  0  0  0  0  0  0  0  0  0  0
   33.5110   28.9110   37.2080 C   0  0  0  0  0  0  0  0  0  0  0  0
   33.3810   28.7150   38.2420 H   0  0  0  0  0  0  0  0  0  0  0  0
   32.4560   29.0890   36.3420 C   0  0  0  0  0  0  0  0  0  0  0  0
   31.3840   29.0740   36.4860 H   0  0  0  0  0  0  0  0  0  0  0  0
   33.0880   29.3120   35.1320 C   0  0  0  0  0  0  0  0  0  0  0  0
   32.6820   29.5040   34.1470 H   0  0  0  0  0  0  0  0  0  0  0  0
   34.3820   29.2620   35.3080 O   0  0  0  0  0  0  0  0  0  0  0  0
   36.8710   27.9250   34.9040 N   0  0  0  0  0  0  0  0  0  0  0  0
   36.6650   26.9110   35.0640 H   0  0  0  0  0  0  0  0  0  0  0  0
   36.9490   28.5920   34.0850 H   0  0  0  0  0  0  0  0  0  0  0  0
  1  6  1  0  0  0  0
  2  1  2  0  0  0  0
  2  3  1  0  0  0  0
  3  4  2  0  0  0  0
  4  5  1  0  0  0  0
  5  8  1  0  0  0  0
  6  5  2  0  0  0  0
  7  1  1  0  0  0  0
  8  9  2  0  0  0  0
  8 17  1  0  0  0  0
  9 10  1  0  0  0  0
 10 18  1  0  0  0  0
 10 11  2  0  0  0  0
 12 11  1  0  0  0  0
 12 13  1  0  0  0  0
 13 19  1  0  0  0  0
 14 13  2  0  0  0  0
 14 20  1  0  0  0  0
 15 14  1  0  0  0  0
 16 15  2  0  0  0  0
 17 16  1  0  0  0  0
 17 12  2  0  0  0  0
 21 15  1  0  0  0  0
 22 16  1  0  0  0  0
 23  3  1  0  0  0  0
 23 24  2  0  0  0  0
 24 25  1  0  0  0  0
 26 27  1  0  0  0  0
 26 24  1  0  0  0  0
 28 30  1  0  0  0  0
 28 26  2  0  0  0  0
 29 28  1  0  0  0  0
 30 23  1  0  0  0  0
 31 32  1  0  0  0  0
 31  2  1  0  0  0  0
 33 31  1  0  0  0  0
M  END
>  <minimizedAffinity>
-5.3959856

$$$$
