
 OpenBabel03242520383D

 34 37  0  0  1  0  0  0  0  0999 V2000
   39.1390   28.5630   41.2340 C   0  0  0  0  0  0  0  0  0  0  0  0
   38.1290   29.2950   41.9640 C   0  0  0  0  0  0  0  0  0  0  0  0
   37.7780   28.8140   43.1970 C   0  0  0  0  0  0  0  0  0  0  0  0
   38.3730   27.6970   43.6790 N   0  0  0  0  0  0  0  0  0  0  0  0
   39.3140   27.0320   42.9740 C   0  0  0  0  0  0  0  0  0  0  0  0
   39.6900   27.4750   41.7490 N   0  0  0  0  0  0  0  0  0  0  0  0
   39.3890   28.9740   40.2640 H   0  0  0  0  0  0  0  0  0  0  0  0
   37.0270   29.3080   43.8090 H   0  0  0  0  0  0  0  0  0  0  0  0
   37.4850   30.5100   41.3960 C   0  0  1  0  0  0  0  0  0  0  0  0
   37.4400   30.7410   39.9850 C   0  0  0  0  0  0  0  0  0  0  0  0
   36.1750   30.3120   40.6110 C   0  0  1  0  0  0  0  0  0  0  0  0
   37.4700   31.3460   42.1290 H   0  0  0  0  0  0  0  0  0  0  0  0
   37.8820   30.0850   39.2090 H   0  0  0  0  0  0  0  0  0  0  0  0
   37.4380   31.8180   39.6400 H   0  0  0  0  0  0  0  0  0  0  0  0
   35.3970   31.0900   40.8560 H   0  0  0  0  0  0  0  0  0  0  0  0
   35.5920   28.9630   40.4410 C   0  0  0  0  0  0  0  0  0  0  0  0
   35.4410   28.3110   41.6530 F   0  0  0  0  0  0  0  0  0  0  0  0
   36.3670   28.1720   39.5910 F   0  0  0  0  0  0  0  0  0  0  0  0
   34.3360   29.1210   39.9090 F   0  0  0  0  0  0  0  0  0  0  0  0
   39.9210   25.8090   43.5740 C   0  0  2  0  0  0  0  0  0  0  0  0
   40.9630   25.1700   42.6670 C   0  0  0  0  0  0  0  0  0  0  0  0
   39.6720   24.4750   42.9720 C   0  0  2  0  0  0  0  0  0  0  0  0
   40.0480   25.8570   44.6580 H   0  0  0  0  0  0  0  0  0  0  0  0
   41.8910   24.9100   43.1910 H   0  0  0  0  0  0  0  0  0  0  0  0
   41.0960   25.5460   41.6540 H   0  0  0  0  0  0  0  0  0  0  0  0
   39.8270   23.6110   43.6560 H   0  0  0  0  0  0  0  0  0  0  0  0
   38.6440   24.2420   41.9570 C   0  0  0  0  0  0  0  0  0  0  0  0
   37.2800   24.4210   42.2120 C   0  0  0  0  0  0  0  0  0  0  0  0
   36.7700   24.7390   43.1370 H   0  0  0  0  0  0  0  0  0  0  0  0
   36.5430   24.1290   41.0720 C   0  0  0  0  0  0  0  0  0  0  0  0
   35.4870   24.1490   40.8800 H   0  0  0  0  0  0  0  0  0  0  0  0
   37.5130   23.7800   40.1570 C   0  0  0  0  0  0  0  0  0  0  0  0
   37.2970   23.4840   39.1320 H   0  0  0  0  0  0  0  0  0  0  0  0
   38.7020   23.8570   40.7030 O   0  0  0  0  0  0  0  0  0  0  0  0
  1  6  2  0  0  0  0
  1  2  1  0  0  0  0
  2  3  2  0  0  0  0
  3  4  1  0  0  0  0
  3  8  1  0  0  0  0
  5 20  1  0  0  0  0
  5  4  2  0  0  0  0
  6  5  1  0  0  0  0
  7  1  1  0  0  0  0
  9  2  1  0  0  0  0
  9 12  1  1  0  0  0
 10 11  1  0  0  0  0
 10  9  1  0  0  0  0
 11 15  1  1  0  0  0
 11  9  1  0  0  0  0
 13 10  1  0  0  0  0
 14 10  1  0  0  0  0
 16 11  1  0  0  0  0
 16 17  1  0  0  0  0
 18 16  1  0  0  0  0
 19 16  1  0  0  0  0
 20 23  1  1  0  0  0
 21 22  1  0  0  0  0
 21 24  1  0  0  0  0
 21 20  1  0  0  0  0
 22 20  1  0  0  0  0
 22 26  1  1  0  0  0
 25 21  1  0  0  0  0
 27 28  2  0  0  0  0
 27 22  1  0  0  0  0
 28 29  1  0  0  0  0
 30 28  1  0  0  0  0
 31 30  1  0  0  0  0
 32 34  1  0  0  0  0
 32 30  2  0  0  0  0
 33 32  1  0  0  0  0
 34 27  1  0  0  0  0
M  END
>  <minimizedAffinity>
-5.58943844

$$$$

 OpenBabel03242520383D

 34 37  0  0  1  0  0  0  0  0999 V2000
   38.7020   28.5100   40.1930 C   0  0  0  0  0  0  0  0  0  0  0  0
   38.7590   28.4090   41.6340 C   0  0  0  0  0  0  0  0  0  0  0  0
   38.1950   29.4290   42.3540 C   0  0  0  0  0  0  0  0  0  0  0  0
   37.6190   30.4710   41.7080 N   0  0  0  0  0  0  0  0  0  0  0  0
   37.5810   30.5390   40.3600 C   0  0  0  0  0  0  0  0  0  0  0  0
   38.1270   29.5500   39.6100 N   0  0  0  0  0  0  0  0  0  0  0  0
   39.1580   27.6850   39.6600 H   0  0  0  0  0  0  0  0  0  0  0  0
   38.1960   29.4280   43.4400 H   0  0  0  0  0  0  0  0  0  0  0  0
   39.4150   27.2570   42.3090 C   0  0  1  0  0  0  0  0  0  0  0  0
   39.1470   26.9440   43.6790 C   0  0  0  0  0  0  0  0  0  0  0  0
   38.5240   26.0560   42.6790 C   0  0  1  0  0  0  0  0  0  0  0  0
   40.3800   26.9930   41.8230 H   0  0  0  0  0  0  0  0  0  0  0  0
   38.4780   27.5140   44.3530 H   0  0  0  0  0  0  0  0  0  0  0  0
   39.9810   26.4570   44.2670 H   0  0  0  0  0  0  0  0  0  0  0  0
   39.0110   25.0660   42.4510 H   0  0  0  0  0  0  0  0  0  0  0  0
   37.0790   26.0610   42.3640 C   0  0  0  0  0  0  0  0  0  0  0  0
   36.8430   26.3510   41.0310 F   0  0  0  0  0  0  0  0  0  0  0  0
   36.3840   26.9760   43.1580 F   0  0  0  0  0  0  0  0  0  0  0  0
   36.6030   24.7940   42.5920 F   0  0  0  0  0  0  0  0  0  0  0  0
   36.9290   31.7200   39.7250 C   0  0  2  0  0  0  0  0  0  0  0  0
   37.2930   31.8670   38.2550 C   0  0  0  0  0  0  0  0  0  0  0  0
   37.7450   32.8730   39.2670 C   0  0  2  0  0  0  0  0  0  0  0  0
   35.9240   31.9310   40.0970 H   0  0  0  0  0  0  0  0  0  0  0  0
   36.4230   32.0530   37.6110 H   0  0  0  0  0  0  0  0  0  0  0  0
   38.0550   31.2210   37.8230 H   0  0  0  0  0  0  0  0  0  0  0  0
   37.1920   33.8320   39.1630 H   0  0  0  0  0  0  0  0  0  0  0  0
   39.1520   33.0430   39.6320 C   0  0  0  0  0  0  0  0  0  0  0  0
   40.2000   32.6570   38.7890 C   0  0  0  0  0  0  0  0  0  0  0  0
   40.1680   32.1950   37.7880 H   0  0  0  0  0  0  0  0  0  0  0  0
   41.4190   32.9360   39.3920 C   0  0  0  0  0  0  0  0  0  0  0  0
   42.4300   32.7860   39.0620 H   0  0  0  0  0  0  0  0  0  0  0  0
   41.0490   33.4920   40.5980 C   0  0  0  0  0  0  0  0  0  0  0  0
   41.7600   33.8370   41.3460 H   0  0  0  0  0  0  0  0  0  0  0  0
   39.7430   33.5340   40.6960 O   0  0  0  0  0  0  0  0  0  0  0  0
  1  2  1  0  0  0  0
  2  9  1  0  0  0  0
  2  3  2  0  0  0  0
  3  8  1  0  0  0  0
  4  3  1  0  0  0  0
  5  4  2  0  0  0  0
  6  1  2  0  0  0  0
  6  5  1  0  0  0  0
  7  1  1  0  0  0  0
  9 12  1  6  0  0  0
  9 11  1  0  0  0  0
  9 10  1  0  0  0  0
 10 14  1  0  0  0  0
 10 13  1  0  0  0  0
 11 15  1  6  0  0  0
 11 10  1  0  0  0  0
 16 19  1  0  0  0  0
 16 11  1  0  0  0  0
 16 18  1  0  0  0  0
 17 16  1  0  0  0  0
 20 23  1  1  0  0  0
 20  5  1  0  0  0  0
 21 22  1  0  0  0  0
 21 20  1  0  0  0  0
 22 26  1  6  0  0  0
 22 27  1  0  0  0  0
 22 20  1  0  0  0  0
 24 21  1  0  0  0  0
 25 21  1  0  0  0  0
 27 34  1  0  0  0  0
 28 30  1  0  0  0  0
 28 27  2  0  0  0  0
 29 28  1  0  0  0  0
 30 32  2  0  0  0  0
 31 30  1  0  0  0  0
 32 34  1  0  0  0  0
 32 33  1  0  0  0  0
M  END
>  <minimizedAffinity>
-5.44809008

$$$$

 OpenBabel03242520383D

 34 37  0  0  1  0  0  0  0  0999 V2000
   36.5740   28.9320   41.7630 C   0  0  0  0  0  0  0  0  0  0  0  0
   37.2680   30.1630   41.4590 C   0  0  0  0  0  0  0  0  0  0  0  0
   38.5590   30.2780   41.9030 C   0  0  0  0  0  0  0  0  0  0  0  0
   39.1260   29.2610   42.5940 N   0  0  0  0  0  0  0  0  0  0  0  0
   38.4540   28.1220   42.8640 C   0  0  0  0  0  0  0  0  0  0  0  0
   37.1740   27.9680   42.4420 N   0  0  0  0  0  0  0  0  0  0  0  0
   35.5570   28.8800   41.3950 H   0  0  0  0  0  0  0  0  0  0  0  0
   39.1480   31.1720   41.7150 H   0  0  0  0  0  0  0  0  0  0  0  0
   36.6070   31.2660   40.7110 C   0  0  1  0  0  0  0  0  0  0  0  0
   37.3670   32.2990   40.0770 C   0  0  0  0  0  0  0  0  0  0  0  0
   36.7800   31.2840   39.1810 C   0  0  1  0  0  0  0  0  0  0  0  0
   35.5670   31.4360   41.0670 H   0  0  0  0  0  0  0  0  0  0  0  0
   38.4710   32.3940   40.0980 H   0  0  0  0  0  0  0  0  0  0  0  0
   36.8830   33.3170   39.9940 H   0  0  0  0  0  0  0  0  0  0  0  0
   35.8240   31.5250   38.6360 H   0  0  0  0  0  0  0  0  0  0  0  0
   37.5710   30.2370   38.4980 C   0  0  0  0  0  0  0  0  0  0  0  0
   37.0740   28.9690   38.7490 F   0  0  0  0  0  0  0  0  0  0  0  0
   38.9160   30.2810   38.8740 F   0  0  0  0  0  0  0  0  0  0  0  0
   37.4610   30.4530   37.1470 F   0  0  0  0  0  0  0  0  0  0  0  0
   39.1500   27.0490   43.6310 C   0  0  2  0  0  0  0  0  0  0  0  0
   40.4090   26.5560   42.9340 C   0  0  0  0  0  0  0  0  0  0  0  0
   39.2150   25.6650   43.0960 C   0  0  2  0  0  0  0  0  0  0  0  0
   39.0960   27.1670   44.7160 H   0  0  0  0  0  0  0  0  0  0  0  0
   41.2740   26.4820   43.6050 H   0  0  0  0  0  0  0  0  0  0  0  0
   40.6360   26.9020   41.9270 H   0  0  0  0  0  0  0  0  0  0  0  0
   39.3990   24.8730   43.8550 H   0  0  0  0  0  0  0  0  0  0  0  0
   38.4100   25.2150   41.9600 C   0  0  0  0  0  0  0  0  0  0  0  0
   37.2300   24.4790   42.1200 C   0  0  0  0  0  0  0  0  0  0  0  0
   36.7330   24.1320   43.0410 H   0  0  0  0  0  0  0  0  0  0  0  0
   36.6810   24.1910   40.8780 C   0  0  0  0  0  0  0  0  0  0  0  0
   35.7930   23.6560   40.5960 H   0  0  0  0  0  0  0  0  0  0  0  0
   37.5690   24.7780   40.0020 C   0  0  0  0  0  0  0  0  0  0  0  0
   37.4550   24.7530   38.9200 H   0  0  0  0  0  0  0  0  0  0  0  0
   38.5450   25.3530   40.6620 O   0  0  0  0  0  0  0  0  0  0  0  0
  1  6  1  0  0  0  0
  2  1  2  0  0  0  0
  2  3  1  0  0  0  0
  3  4  2  0  0  0  0
  4  5  1  0  0  0  0
  5 20  1  0  0  0  0
  6  5  2  0  0  0  0
  7  1  1  0  0  0  0
  8  3  1  0  0  0  0
  9 12  1  1  0  0  0
  9  2  1  0  0  0  0
 10 13  1  0  0  0  0
 10  9  1  0  0  0  0
 11 15  1  6  0  0  0
 11 10  1  0  0  0  0
 11  9  1  0  0  0  0
 14 10  1  0  0  0  0
 16 17  1  0  0  0  0
 16 18  1  0  0  0  0
 16 11  1  0  0  0  0
 19 16  1  0  0  0  0
 20 23  1  1  0  0  0
 21 22  1  0  0  0  0
 21 24  1  0  0  0  0
 21 20  1  0  0  0  0
 22 20  1  0  0  0  0
 22 26  1  1  0  0  0
 25 21  1  0  0  0  0
 27 28  2  0  0  0  0
 27 22  1  0  0  0  0
 28 29  1  0  0  0  0
 30 28  1  0  0  0  0
 31 30  1  0  0  0  0
 32 34  1  0  0  0  0
 32 30  2  0  0  0  0
 33 32  1  0  0  0  0
 34 27  1  0  0  0  0
M  END
>  <minimizedAffinity>
-5.26273441

$$$$

 OpenBabel03242520383D

 34 37  0  0  1  0  0  0  0  0999 V2000
   36.3990   30.3770   40.5340 C   0  0  0  0  0  0  0  0  0  0  0  0
   36.9680   29.8060   39.3340 C   0  0  0  0  0  0  0  0  0  0  0  0
   38.0190   28.9420   39.4910 C   0  0  0  0  0  0  0  0  0  0  0  0
   38.4790   28.6600   40.7330 N   0  0  0  0  0  0  0  0  0  0  0  0
   37.9290   29.2080   41.8370 C   0  0  0  0  0  0  0  0  0  0  0  0
   36.8860   30.0680   41.7260 N   0  0  0  0  0  0  0  0  0  0  0  0
   35.5710   31.0530   40.3680 H   0  0  0  0  0  0  0  0  0  0  0  0
   38.5020   28.4710   38.6390 H   0  0  0  0  0  0  0  0  0  0  0  0
   36.4470   30.1520   37.9840 C   0  0  1  0  0  0  0  0  0  0  0  0
   36.5290   29.2300   36.8930 C   0  0  0  0  0  0  0  0  0  0  0  0
   35.1940   29.3990   37.4980 C   0  0  1  0  0  0  0  0  0  0  0  0
   36.4250   31.2520   37.8230 H   0  0  0  0  0  0  0  0  0  0  0  0
   36.9910   28.2230   36.9320 H   0  0  0  0  0  0  0  0  0  0  0  0
   36.6210   29.6680   35.8550 H   0  0  0  0  0  0  0  0  0  0  0  0
   34.4490   30.0750   36.9910 H   0  0  0  0  0  0  0  0  0  0  0  0
   34.5450   28.3810   38.3510 C   0  0  0  0  0  0  0  0  0  0  0  0
   33.9590   28.9460   39.4720 F   0  0  0  0  0  0  0  0  0  0  0  0
   35.4500   27.3980   38.7570 F   0  0  0  0  0  0  0  0  0  0  0  0
   33.5380   27.8080   37.6150 F   0  0  0  0  0  0  0  0  0  0  0  0
   38.4930   28.8470   43.1690 C   0  0  2  0  0  0  0  0  0  0  0  0
   39.8870   28.2430   43.0680 C   0  0  0  0  0  0  0  0  0  0  0  0
   38.7210   27.4230   43.5270 C   0  0  2  0  0  0  0  0  0  0  0  0
   38.2150   29.5300   43.9740 H   0  0  0  0  0  0  0  0  0  0  0  0
   40.5980   28.6770   43.7820 H   0  0  0  0  0  0  0  0  0  0  0  0
   40.3010   28.0110   42.0890 H   0  0  0  0  0  0  0  0  0  0  0  0
   38.7760   27.2130   44.6180 H   0  0  0  0  0  0  0  0  0  0  0  0
   38.1820   26.3120   42.7420 C   0  0  0  0  0  0  0  0  0  0  0  0
   39.0030   25.3660   42.1180 C   0  0  0  0  0  0  0  0  0  0  0  0
   40.1030   25.2850   42.1010 H   0  0  0  0  0  0  0  0  0  0  0  0
   38.2230   24.4330   41.4470 C   0  0  0  0  0  0  0  0  0  0  0  0
   38.4850   23.5700   40.8630 H   0  0  0  0  0  0  0  0  0  0  0  0
   36.9390   24.8630   41.7000 C   0  0  0  0  0  0  0  0  0  0  0  0
   36.0490   24.3630   41.3230 H   0  0  0  0  0  0  0  0  0  0  0  0
   36.9590   25.9430   42.4440 O   0  0  0  0  0  0  0  0  0  0  0  0
  1  6  1  0  0  0  0
  2  3  1  0  0  0  0
  2  1  2  0  0  0  0
  3  4  2  0  0  0  0
  4  5  1  0  0  0  0
  5 20  1  0  0  0  0
  6  5  2  0  0  0  0
  7  1  1  0  0  0  0
  8  3  1  0  0  0  0
  9 12  1  6  0  0  0
  9  2  1  0  0  0  0
 10 13  1  0  0  0  0
 10 11  1  0  0  0  0
 10  9  1  0  0  0  0
 11 15  1  6  0  0  0
 11  9  1  0  0  0  0
 11 16  1  0  0  0  0
 14 10  1  0  0  0  0
 16 18  1  0  0  0  0
 16 17  1  0  0  0  0
 19 16  1  0  0  0  0
 20 22  1  0  0  0  0
 20 23  1  1  0  0  0
 21 20  1  0  0  0  0
 21 22  1  0  0  0  0
 21 24  1  0  0  0  0
 22 26  1  1  0  0  0
 25 21  1  0  0  0  0
 27 22  1  0  0  0  0
 28 27  2  0  0  0  0
 29 28  1  0  0  0  0
 30 32  2  0  0  0  0
 30 28  1  0  0  0  0
 31 30  1  0  0  0  0
 32 34  1  0  0  0  0
 33 32  1  0  0  0  0
 34 27  1  0  0  0  0
M  END
>  <minimizedAffinity>
-5.21583891

$$$$

 OpenBabel03242520383D

 34 37  0  0  1  0  0  0  0  0999 V2000
   36.8020   29.8740   41.9180 C   0  0  0  0  0  0  0  0  0  0  0  0
   37.9110   29.1110   42.4430 C   0  0  0  0  0  0  0  0  0  0  0  0
   39.1610   29.4290   41.9820 C   0  0  0  0  0  0  0  0  0  0  0  0
   39.3120   30.4220   41.0720 N   0  0  0  0  0  0  0  0  0  0  0  0
   38.2560   31.1170   40.5980 C   0  0  0  0  0  0  0  0  0  0  0  0
   37.0020   30.8350   41.0290 N   0  0  0  0  0  0  0  0  0  0  0  0
   35.8310   29.5930   42.3060 H   0  0  0  0  0  0  0  0  0  0  0  0
   40.0470   28.9030   42.3280 H   0  0  0  0  0  0  0  0  0  0  0  0
   37.7070   28.0170   43.4300 C   0  0  1  0  0  0  0  0  0  0  0  0
   36.4190   27.4280   43.6350 C   0  0  0  0  0  0  0  0  0  0  0  0
   37.3870   26.6170   42.8740 C   0  0  1  0  0  0  0  0  0  0  0  0
   38.4780   28.0390   44.2310 H   0  0  0  0  0  0  0  0  0  0  0  0
   35.4820   27.7300   43.1260 H   0  0  0  0  0  0  0  0  0  0  0  0
   36.1970   27.0260   44.6680 H   0  0  0  0  0  0  0  0  0  0  0  0
   37.9500   25.7980   43.4050 H   0  0  0  0  0  0  0  0  0  0  0  0
   37.2960   26.3850   41.4160 C   0  0  0  0  0  0  0  0  0  0  0  0
   38.5010   26.6310   40.7790 F   0  0  0  0  0  0  0  0  0  0  0  0
   36.3030   27.1740   40.8310 F   0  0  0  0  0  0  0  0  0  0  0  0
   37.0040   25.0570   41.2270 F   0  0  0  0  0  0  0  0  0  0  0  0
   38.5050   32.1950   39.5980 C   0  0  2  0  0  0  0  0  0  0  0  0
   37.2350   32.6320   38.8830 C   0  0  0  0  0  0  0  0  0  0  0  0
   38.3320   31.9270   38.1470 C   0  0  2  0  0  0  0  0  0  0  0  0
   39.2810   32.9060   39.8890 H   0  0  0  0  0  0  0  0  0  0  0  0
   37.1210   33.7230   38.8330 H   0  0  0  0  0  0  0  0  0  0  0  0
   36.3110   32.0800   39.0440 H   0  0  0  0  0  0  0  0  0  0  0  0
   38.8780   32.6190   37.4700 H   0  0  0  0  0  0  0  0  0  0  0  0
   38.1730   30.5770   37.6030 C   0  0  0  0  0  0  0  0  0  0  0  0
   36.9390   30.0840   37.1650 C   0  0  0  0  0  0  0  0  0  0  0  0
   35.9490   30.5700   37.1480 H   0  0  0  0  0  0  0  0  0  0  0  0
   37.0870   28.7830   36.7020 C   0  0  0  0  0  0  0  0  0  0  0  0
   36.3810   28.0850   36.2920 H   0  0  0  0  0  0  0  0  0  0  0  0
   38.4320   28.5410   36.8830 C   0  0  0  0  0  0  0  0  0  0  0  0
   38.9170   27.6010   36.6250 H   0  0  0  0  0  0  0  0  0  0  0  0
   39.0170   29.5930   37.4020 O   0  0  0  0  0  0  0  0  0  0  0  0
  1  7  1  0  0  0  0
  1  2  1  0  0  0  0
  2  9  1  0  0  0  0
  3  8  1  0  0  0  0
  3  2  2  0  0  0  0
  4  3  1  0  0  0  0
  5  6  1  0  0  0  0
  5  4  2  0  0  0  0
  6  1  2  0  0  0  0
  9 10  1  0  0  0  0
  9 12  1  1  0  0  0
 10 14  1  0  0  0  0
 11 15  1  1  0  0  0
 11  9  1  0  0  0  0
 11 10  1  0  0  0  0
 13 10  1  0  0  0  0
 16 11  1  0  0  0  0
 17 16  1  0  0  0  0
 18 16  1  0  0  0  0
 19 16  1  0  0  0  0
 20 23  1  1  0  0  0
 20  5  1  0  0  0  0
 21 25  1  0  0  0  0
 21 20  1  0  0  0  0
 22 26  1  6  0  0  0
 22 21  1  0  0  0  0
 22 20  1  0  0  0  0
 24 21  1  0  0  0  0
 27 22  1  0  0  0  0
 28 27  2  0  0  0  0
 29 28  1  0  0  0  0
 30 32  2  0  0  0  0
 30 28  1  0  0  0  0
 31 30  1  0  0  0  0
 32 34  1  0  0  0  0
 33 32  1  0  0  0  0
 34 27  1  0  0  0  0
M  END
>  <minimizedAffinity>
-5.19466734

$$$$

 OpenBabel03242520383D

 34 37  0  0  1  0  0  0  0  0999 V2000
   36.5910   29.2710   41.6580 C   0  0  0  0  0  0  0  0  0  0  0  0
   37.1170   27.9350   41.4890 C   0  0  0  0  0  0  0  0  0  0  0  0
   37.4140   27.5380   40.2130 C   0  0  0  0  0  0  0  0  0  0  0  0
   37.2090   28.3880   39.1780 N   0  0  0  0  0  0  0  0  0  0  0  0
   36.7150   29.6300   39.3650 C   0  0  0  0  0  0  0  0  0  0  0  0
   36.4090   30.0630   40.6130 N   0  0  0  0  0  0  0  0  0  0  0  0
   36.3700   29.5470   42.6810 H   0  0  0  0  0  0  0  0  0  0  0  0
   37.8130   26.5500   40.0020 H   0  0  0  0  0  0  0  0  0  0  0  0
   37.3140   27.0230   42.6480 C   0  0  1  0  0  0  0  0  0  0  0  0
   38.1940   25.8980   42.5710 C   0  0  0  0  0  0  0  0  0  0  0  0
   38.6880   27.0530   43.3430 C   0  0  1  0  0  0  0  0  0  0  0  0
   36.4400   27.0400   43.3360 H   0  0  0  0  0  0  0  0  0  0  0  0
   38.7700   25.5890   41.6760 H   0  0  0  0  0  0  0  0  0  0  0  0
   37.9360   24.9990   43.2060 H   0  0  0  0  0  0  0  0  0  0  0  0
   38.6090   27.0320   44.4670 H   0  0  0  0  0  0  0  0  0  0  0  0
   39.7560   27.9610   42.8700 C   0  0  0  0  0  0  0  0  0  0  0  0
   39.3900   29.2910   42.9850 F   0  0  0  0  0  0  0  0  0  0  0  0
   40.1020   27.6980   41.5420 F   0  0  0  0  0  0  0  0  0  0  0  0
   40.8480   27.7710   43.6800 F   0  0  0  0  0  0  0  0  0  0  0  0
   36.5180   30.5050   38.1740 C   0  0  2  0  0  0  0  0  0  0  0  0
   37.7160   30.4940   37.2360 C   0  0  0  0  0  0  0  0  0  0  0  0
   37.3400   31.7290   37.9960 C   0  0  2  0  0  0  0  0  0  0  0  0
   35.4910   30.5310   37.8020 H   0  0  0  0  0  0  0  0  0  0  0  0
   37.4390   30.3630   36.1830 H   0  0  0  0  0  0  0  0  0  0  0  0
   38.6300   29.9850   37.5390 H   0  0  0  0  0  0  0  0  0  0  0  0
   36.9020   32.5000   37.3260 H   0  0  0  0  0  0  0  0  0  0  0  0
   38.1780   32.2830   39.0600 C   0  0  0  0  0  0  0  0  0  0  0  0
   37.8060   33.4110   39.7990 C   0  0  0  0  0  0  0  0  0  0  0  0
   36.9000   34.0360   39.7270 H   0  0  0  0  0  0  0  0  0  0  0  0
   38.7870   33.7080   40.7360 C   0  0  0  0  0  0  0  0  0  0  0  0
   38.8600   34.4860   41.4730 H   0  0  0  0  0  0  0  0  0  0  0  0
   39.7300   32.7270   40.5190 C   0  0  0  0  0  0  0  0  0  0  0  0
   40.6570   32.6440   41.0830 H   0  0  0  0  0  0  0  0  0  0  0  0
   39.3430   31.9320   39.5510 O   0  0  0  0  0  0  0  0  0  0  0  0
  1  7  1  0  0  0  0
  2  1  1  0  0  0  0
  2  9  1  0  0  0  0
  3  2  2  0  0  0  0
  4  5  2  0  0  0  0
  4  3  1  0  0  0  0
  5  6  1  0  0  0  0
  6  1  2  0  0  0  0
  8  3  1  0  0  0  0
  9 12  1  1  0  0  0
  9 11  1  0  0  0  0
 10  9  1  0  0  0  0
 10 14  1  0  0  0  0
 10 11  1  0  0  0  0
 11 15  1  1  0  0  0
 13 10  1  0  0  0  0
 16 17  1  0  0  0  0
 16 11  1  0  0  0  0
 16 19  1  0  0  0  0
 18 16  1  0  0  0  0
 20 23  1  6  0  0  0
 20  5  1  0  0  0  0
 21 25  1  0  0  0  0
 21 22  1  0  0  0  0
 21 20  1  0  0  0  0
 22 26  1  6  0  0  0
 22 20  1  0  0  0  0
 22 27  1  0  0  0  0
 24 21  1  0  0  0  0
 27 34  1  0  0  0  0
 27 28  2  0  0  0  0
 28 30  1  0  0  0  0
 29 28  1  0  0  0  0
 30 31  1  0  0  0  0
 32 30  2  0  0  0  0
 32 33  1  0  0  0  0
 34 32  1  0  0  0  0
M  END
>  <minimizedAffinity>
-5.19218636

$$$$

 OpenBabel03242520383D

 34 37  0  0  1  0  0  0  0  0999 V2000
   37.6080   29.6010   39.2850 C   0  0  0  0  0  0  0  0  0  0  0  0
   37.1360   30.8910   39.7370 C   0  0  0  0  0  0  0  0  0  0  0  0
   36.4760   30.9280   40.9370 C   0  0  0  0  0  0  0  0  0  0  0  0
   36.2920   29.7860   41.6410 N   0  0  0  0  0  0  0  0  0  0  0  0
   36.7440   28.5950   41.1930 C   0  0  0  0  0  0  0  0  0  0  0  0
   37.4020   28.5140   40.0110 N   0  0  0  0  0  0  0  0  0  0  0  0
   38.1240   29.6130   38.3330 H   0  0  0  0  0  0  0  0  0  0  0  0
   36.0910   31.8580   41.3460 H   0  0  0  0  0  0  0  0  0  0  0  0
   37.3420   32.1230   38.9300 C   0  0  1  0  0  0  0  0  0  0  0  0
   37.2490   33.4240   39.5160 C   0  0  0  0  0  0  0  0  0  0  0  0
   38.6120   32.9480   39.2130 C   0  0  1  0  0  0  0  0  0  0  0  0
   37.1280   31.9470   37.8520 H   0  0  0  0  0  0  0  0  0  0  0  0
   37.0000   33.6390   40.5740 H   0  0  0  0  0  0  0  0  0  0  0  0
   36.8990   34.2660   38.8480 H   0  0  0  0  0  0  0  0  0  0  0  0
   39.1170   33.3060   38.2720 H   0  0  0  0  0  0  0  0  0  0  0  0
   39.5790   32.5160   40.2450 C   0  0  0  0  0  0  0  0  0  0  0  0
   40.0710   31.2470   39.9910 F   0  0  0  0  0  0  0  0  0  0  0  0
   39.0120   32.5380   41.5210 F   0  0  0  0  0  0  0  0  0  0  0  0
   40.6460   33.3790   40.1970 F   0  0  0  0  0  0  0  0  0  0  0  0
   36.5000   27.3820   42.0270 C   0  0  2  0  0  0  0  0  0  0  0  0
   36.7310   27.6370   43.5090 C   0  0  0  0  0  0  0  0  0  0  0  0
   37.6250   26.7190   42.7340 C   0  0  2  0  0  0  0  0  0  0  0  0
   35.6870   26.7470   41.6680 H   0  0  0  0  0  0  0  0  0  0  0  0
   35.9250   27.2500   44.1450 H   0  0  0  0  0  0  0  0  0  0  0  0
   37.1550   28.5870   43.8310 H   0  0  0  0  0  0  0  0  0  0  0  0
   37.4510   25.6550   43.0080 H   0  0  0  0  0  0  0  0  0  0  0  0
   39.0280   27.0330   42.4620 C   0  0  0  0  0  0  0  0  0  0  0  0
   39.7280   28.0210   43.1630 C   0  0  0  0  0  0  0  0  0  0  0  0
   39.3880   28.6870   43.9740 H   0  0  0  0  0  0  0  0  0  0  0  0
   41.0330   28.0990   42.6950 C   0  0  0  0  0  0  0  0  0  0  0  0
   41.8580   28.7250   42.9800 H   0  0  0  0  0  0  0  0  0  0  0  0
   41.0680   27.1340   41.7120 C   0  0  0  0  0  0  0  0  0  0  0  0
   41.9510   26.9100   41.1170 H   0  0  0  0  0  0  0  0  0  0  0  0
   39.9000   26.5470   41.6090 O   0  0  0  0  0  0  0  0  0  0  0  0
  1  2  2  0  0  0  0
  1  6  1  0  0  0  0
  2  3  1  0  0  0  0
  3  8  1  0  0  0  0
  3  4  2  0  0  0  0
  5  4  1  0  0  0  0
  5 20  1  0  0  0  0
  6  5  2  0  0  0  0
  7  1  1  0  0  0  0
  9 12  1  6  0  0  0
  9 11  1  0  0  0  0
  9 10  1  0  0  0  0
  9  2  1  0  0  0  0
 10 13  1  0  0  0  0
 11 15  1  6  0  0  0
 11 10  1  0  0  0  0
 11 16  1  0  0  0  0
 14 10  1  0  0  0  0
 16 18  1  0  0  0  0
 17 16  1  0  0  0  0
 19 16  1  0  0  0  0
 20 23  1  6  0  0  0
 20 22  1  0  0  0  0
 20 21  1  0  0  0  0
 21 25  1  0  0  0  0
 21 24  1  0  0  0  0
 22 26  1  1  0  0  0
 22 21  1  0  0  0  0
 27 22  1  0  0  0  0
 27 28  2  0  0  0  0
 28 29  1  0  0  0  0
 30 31  1  0  0  0  0
 30 28  1  0  0  0  0
 32 30  2  0  0  0  0
 33 32  1  0  0  0  0
 34 32  1  0  0  0  0
 34 27  1  0  0  0  0
M  END
>  <minimizedAffinity>
-5.16674757

$$$$

 OpenBabel03242520383D

 34 37  0  0  1  0  0  0  0  0999 V2000
   37.6960   26.7850   40.1130 C   0  0  0  0  0  0  0  0  0  0  0  0
   37.1360   26.3970   41.3880 C   0  0  0  0  0  0  0  0  0  0  0  0
   36.8300   27.4020   42.2670 C   0  0  0  0  0  0  0  0  0  0  0  0
   37.0580   28.6920   41.9220 N   0  0  0  0  0  0  0  0  0  0  0  0
   37.5830   29.0250   40.7240 C   0  0  0  0  0  0  0  0  0  0  0  0
   37.9000   28.0610   39.8250 N   0  0  0  0  0  0  0  0  0  0  0  0
   37.9240   25.9630   39.4470 H   0  0  0  0  0  0  0  0  0  0  0  0
   36.4050   27.1940   43.2450 H   0  0  0  0  0  0  0  0  0  0  0  0
   36.9140   24.9690   41.7390 C   0  0  1  0  0  0  0  0  0  0  0  0
   37.5710   23.9150   41.0290 C   0  0  0  0  0  0  0  0  0  0  0  0
   38.0920   24.2090   42.3770 C   0  0  1  0  0  0  0  0  0  0  0  0
   35.9320   24.8180   42.2400 H   0  0  0  0  0  0  0  0  0  0  0  0
   38.2570   24.0460   40.1690 H   0  0  0  0  0  0  0  0  0  0  0  0
   37.0250   22.9270   40.9540 H   0  0  0  0  0  0  0  0  0  0  0  0
   37.7740   23.5560   43.2390 H   0  0  0  0  0  0  0  0  0  0  0  0
   39.3820   24.8870   42.6290 C   0  0  0  0  0  0  0  0  0  0  0  0
   39.9080   25.4380   41.4720 F   0  0  0  0  0  0  0  0  0  0  0  0
   40.3210   24.0140   43.1850 F   0  0  0  0  0  0  0  0  0  0  0  0
   39.1420   25.9230   43.4960 F   0  0  0  0  0  0  0  0  0  0  0  0
   37.8050   30.4680   40.4200 C   0  0  2  0  0  0  0  0  0  0  0  0
   36.5430   31.3010   40.5930 C   0  0  0  0  0  0  0  0  0  0  0  0
   37.1550   31.0950   39.2410 C   0  0  2  0  0  0  0  0  0  0  0  0
   38.7900   30.8410   40.7090 H   0  0  0  0  0  0  0  0  0  0  0  0
   36.7100   32.2240   41.1620 H   0  0  0  0  0  0  0  0  0  0  0  0
   35.5940   30.8040   40.7880 H   0  0  0  0  0  0  0  0  0  0  0  0
   37.6420   32.0240   38.8700 H   0  0  0  0  0  0  0  0  0  0  0  0
   36.4970   30.3180   38.1900 C   0  0  0  0  0  0  0  0  0  0  0  0
   37.0480   30.1630   36.9130 C   0  0  0  0  0  0  0  0  0  0  0  0
   37.9890   30.5580   36.4970 H   0  0  0  0  0  0  0  0  0  0  0  0
   36.2120   29.3800   36.1290 C   0  0  0  0  0  0  0  0  0  0  0  0
   36.2920   29.0450   35.1120 H   0  0  0  0  0  0  0  0  0  0  0  0
   35.1700   29.0880   36.9830 C   0  0  0  0  0  0  0  0  0  0  0  0
   34.3110   28.4810   36.7030 H   0  0  0  0  0  0  0  0  0  0  0  0
   35.3710   29.6440   38.1530 O   0  0  0  0  0  0  0  0  0  0  0  0
  1  2  1  0  0  0  0
  2  9  1  0  0  0  0
  2  3  2  0  0  0  0
  3  8  1  0  0  0  0
  4  3  1  0  0  0  0
  5  4  2  0  0  0  0
  6  1  2  0  0  0  0
  6  5  1  0  0  0  0
  7  1  1  0  0  0  0
  9 12  1  1  0  0  0
  9 11  1  0  0  0  0
 10  9  1  0  0  0  0
 10 11  1  0  0  0  0
 11 16  1  0  0  0  0
 11 15  1  1  0  0  0
 13 10  1  0  0  0  0
 14 10  1  0  0  0  0
 16 18  1  0  0  0  0
 16 19  1  0  0  0  0
 17 16  1  0  0  0  0
 20 21  1  0  0  0  0
 20 23  1  1  0  0  0
 20  5  1  0  0  0  0
 21 25  1  0  0  0  0
 21 24  1  0  0  0  0
 22 26  1  6  0  0  0
 22 20  1  0  0  0  0
 22 21  1  0  0  0  0
 27 22  1  0  0  0  0
 28 27  2  0  0  0  0
 29 28  1  0  0  0  0
 30 28  1  0  0  0  0
 30 32  2  0  0  0  0
 31 30  1  0  0  0  0
 32 34  1  0  0  0  0
 33 32  1  0  0  0  0
 34 27  1  0  0  0  0
M  END
>  <minimizedAffinity>
-5.1251235

$$$$

 OpenBabel03242520383D

 34 37  0  0  1  0  0  0  0  0999 V2000
   37.1290   28.6880   40.5290 C   0  0  0  0  0  0  0  0  0  0  0  0
   38.1820   29.3330   39.7770 C   0  0  0  0  0  0  0  0  0  0  0  0
   39.4480   29.2710   40.2970 C   0  0  0  0  0  0  0  0  0  0  0  0
   39.6640   28.6260   41.4680 N   0  0  0  0  0  0  0  0  0  0  0  0
   38.6610   28.0330   42.1490 C   0  0  0  0  0  0  0  0  0  0  0  0
   37.3930   28.0700   41.6690 N   0  0  0  0  0  0  0  0  0  0  0  0
   36.1440   28.7590   40.0850 H   0  0  0  0  0  0  0  0  0  0  0  0
   40.2940   29.7300   39.7930 H   0  0  0  0  0  0  0  0  0  0  0  0
   37.9050   30.0470   38.5020 C   0  0  1  0  0  0  0  0  0  0  0  0
   36.5740   30.4180   38.1290 C   0  0  0  0  0  0  0  0  0  0  0  0
   37.4430   31.5130   38.6010 C   0  0  1  0  0  0  0  0  0  0  0  0
   38.6960   29.8550   37.7450 H   0  0  0  0  0  0  0  0  0  0  0  0
   35.6560   30.1990   38.7090 H   0  0  0  0  0  0  0  0  0  0  0  0
   36.3440   30.4610   37.0230 H   0  0  0  0  0  0  0  0  0  0  0  0
   37.9410   32.1790   37.8420 H   0  0  0  0  0  0  0  0  0  0  0  0
   37.2910   32.1710   39.9170 C   0  0  0  0  0  0  0  0  0  0  0  0
   36.9500   33.5070   39.7880 F   0  0  0  0  0  0  0  0  0  0  0  0
   38.4570   32.0710   40.6790 F   0  0  0  0  0  0  0  0  0  0  0  0
   36.2560   31.5520   40.5710 F   0  0  0  0  0  0  0  0  0  0  0  0
   38.9810   27.3430   43.4320 C   0  0  2  0  0  0  0  0  0  0  0  0
   40.3910   26.7700   43.4510 C   0  0  0  0  0  0  0  0  0  0  0  0
   39.1920   25.8730   43.4620 C   0  0  2  0  0  0  0  0  0  0  0  0
   38.5310   27.8040   44.3140 H   0  0  0  0  0  0  0  0  0  0  0  0
   40.9400   27.0040   44.3720 H   0  0  0  0  0  0  0  0  0  0  0  0
   40.9890   26.7870   42.5410 H   0  0  0  0  0  0  0  0  0  0  0  0
   39.0520   25.3950   44.4560 H   0  0  0  0  0  0  0  0  0  0  0  0
   38.8530   25.0000   42.3370 C   0  0  0  0  0  0  0  0  0  0  0  0
   37.5810   24.4370   42.1790 C   0  0  0  0  0  0  0  0  0  0  0  0
   36.6820   24.5340   42.8100 H   0  0  0  0  0  0  0  0  0  0  0  0
   37.5480   23.6580   41.0310 C   0  0  0  0  0  0  0  0  0  0  0  0
   36.7630   23.0780   40.5830 H   0  0  0  0  0  0  0  0  0  0  0  0
   38.8270   23.7860   40.5320 C   0  0  0  0  0  0  0  0  0  0  0  0
   39.1710   23.3010   39.6200 H   0  0  0  0  0  0  0  0  0  0  0  0
   39.5420   24.5620   41.3100 O   0  0  0  0  0  0  0  0  0  0  0  0
  1  6  1  0  0  0  0
  2  3  1  0  0  0  0
  2  1  2  0  0  0  0
  3  4  2  0  0  0  0
  4  5  1  0  0  0  0
  5 20  1  0  0  0  0
  6  5  2  0  0  0  0
  7  1  1  0  0  0  0
  8  3  1  0  0  0  0
  9 12  1  6  0  0  0
  9 11  1  0  0  0  0
  9  2  1  0  0  0  0
 10  9  1  0  0  0  0
 10 11  1  0  0  0  0
 10 13  1  0  0  0  0
 11 15  1  6  0  0  0
 11 16  1  0  0  0  0
 14 10  1  0  0  0  0
 16 19  1  0  0  0  0
 16 18  1  0  0  0  0
 17 16  1  0  0  0  0
 20 21  1  0  0  0  0
 20 22  1  0  0  0  0
 20 23  1  1  0  0  0
 21 22  1  0  0  0  0
 21 24  1  0  0  0  0
 22 26  1  1  0  0  0
 25 21  1  0  0  0  0
 27 22  1  0  0  0  0
 28 27  2  0  0  0  0
 28 29  1  0  0  0  0
 30 28  1  0  0  0  0
 31 30  1  0  0  0  0
 32 30  2  0  0  0  0
 32 34  1  0  0  0  0
 33 32  1  0  0  0  0
 34 27  1  0  0  0  0
M  END
>  <minimizedAffinity>
-5.11141491

$$$$
