
 OpenBabel03242515053D

 38 40  0  0  0  0  0  0  0  0999 V2000
   44.9780   34.6550   42.2680 C   0  0  0  0  0  0  0  0  0  0  0  0
   46.2650   34.3190   41.8510 C   0  0  0  0  0  0  0  0  0  0  0  0
   47.2210   33.9650   42.8190 C   0  0  0  0  0  0  0  0  0  0  0  0
   46.8210   33.9750   44.1060 N   0  0  0  0  0  0  0  0  0  0  0  0
   45.5730   34.3020   44.4900 C   0  0  0  0  0  0  0  0  0  0  0  0
   44.6790   34.6350   43.5660 N   0  0  0  0  0  0  0  0  0  0  0  0
   46.5940   34.3070   40.8360 H   0  0  0  0  0  0  0  0  0  0  0  0
   48.5840   33.6030   42.4450 C   0  0  0  0  0  0  0  0  0  0  0  0
   48.8950   32.5610   41.5970 C   0  0  0  0  0  0  0  0  0  0  0  0
   48.2310   31.8730   41.0940 H   0  0  0  0  0  0  0  0  0  0  0  0
   50.2940   32.6170   41.5530 C   0  0  0  0  0  0  0  0  0  0  0  0
   50.9360   31.9560   40.9870 H   0  0  0  0  0  0  0  0  0  0  0  0
   50.7350   33.6670   42.3570 C   0  0  0  0  0  0  0  0  0  0  0  0
   51.7430   34.0080   42.5630 H   0  0  0  0  0  0  0  0  0  0  0  0
   49.6520   34.2180   42.8640 O   0  0  0  0  0  0  0  0  0  0  0  0
   45.2720   34.2720   45.9090 C   0  0  0  0  0  0  0  0  0  0  0  0
   44.3800   35.0350   46.3390 O   0  0  0  0  0  0  0  0  0  0  0  0
   46.0300   33.3570   46.7210 N   0  0  0  0  0  0  0  0  0  0  0  0
   45.7400   32.4610   47.1740 H   0  0  0  0  0  0  0  0  0  0  0  0
   47.0220   33.6300   46.8800 H   0  0  0  0  0  0  0  0  0  0  0  0
   43.8270   35.0960   40.9750 S   0  0  0  0  0  0  0  0  0  0  0  0
   42.1120   34.9180   41.4820 C   0  0  0  0  0  0  0  0  0  0  0  0
   42.0700   35.0760   42.5830 H   0  0  0  0  0  0  0  0  0  0  0  0
   41.8030   33.8650   41.2270 H   0  0  0  0  0  0  0  0  0  0  0  0
   41.1770   35.8750   40.8240 C   0  0  0  0  0  0  0  0  0  0  0  0
   41.6990   36.7230   40.3330 H   0  0  0  0  0  0  0  0  0  0  0  0
   40.5350   36.3330   41.6220 H   0  0  0  0  0  0  0  0  0  0  0  0
   42.0040   36.1030   37.9130 Cl  0  0  0  0  0  0  0  0  0  0  0  0
   40.6120   35.2310   38.4660 C   0  0  0  0  0  0  0  0  0  0  0  0
   40.3240   35.1920   39.8330 C   0  0  0  0  0  0  0  0  0  0  0  0
   39.2000   34.4770   40.1950 C   0  0  0  0  0  0  0  0  0  0  0  0
   38.3340   33.8010   39.3430 C   0  0  0  0  0  0  0  0  0  0  0  0
   38.6550   33.8650   37.9990 C   0  0  0  0  0  0  0  0  0  0  0  0
   37.6170   33.0390   36.8370 Cl  0  0  0  0  0  0  0  0  0  0  0  0
   39.7650   34.5630   37.5790 C   0  0  0  0  0  0  0  0  0  0  0  0
   38.9780   34.4480   41.2550 H   0  0  0  0  0  0  0  0  0  0  0  0
   37.4850   33.2750   39.7340 H   0  0  0  0  0  0  0  0  0  0  0  0
   39.9930   34.5970   36.5210 H   0  0  0  0  0  0  0  0  0  0  0  0
  1  6  1  0  0  0  0
  2  1  2  0  0  0  0
  2  3  1  0  0  0  0
  3  4  2  0  0  0  0
  4  5  1  0  0  0  0
  5 16  1  0  0  0  0
  6  5  2  0  0  0  0
  7  2  1  0  0  0  0
  8  3  1  0  0  0  0
  8 15  1  0  0  0  0
  9  8  2  0  0  0  0
 10  9  1  0  0  0  0
 11  9  1  0  0  0  0
 11 13  2  0  0  0  0
 12 11  1  0  0  0  0
 13 14  1  0  0  0  0
 13 15  1  0  0  0  0
 16 17  2  0  0  0  0
 16 18  1  0  0  0  0
 18 20  1  0  0  0  0
 18 19  1  0  0  0  0
 21 22  1  0  0  0  0
 21  1  1  0  0  0  0
 22 23  1  0  0  0  0
 24 22  1  0  0  0  0
 25 22  1  0  0  0  0
 25 27  1  0  0  0  0
 26 25  1  0  0  0  0
 28 29  1  0  0  0  0
 29 30  1  0  0  0  0
 30 31  2  0  0  0  0
 30 25  1  0  0  0  0
 31 36  1  0  0  0  0
 32 37  1  0  0  0  0
 32 31  1  0  0  0  0
 33 32  2  0  0  0  0
 34 33  1  0  0  0  0
 35 33  1  0  0  0  0
 35 29  2  0  0  0  0
 38 35  1  0  0  0  0
M  END
>  <minimizedAffinity>
-6.87603951

>  <minimizedRMSD>
0.456987798

$$$$
