
 OpenBabel03242513353D

 20 21  0  0  0  0  0  0  0  0999 V2000
   36.3650   28.8480   41.5170 C   0  0  0  0  0  0  0  0  0  0  0  0
   37.3870   28.2060   42.2080 C   0  0  0  0  0  0  0  0  0  0  0  0
   38.5860   28.9070   42.3690 C   0  0  0  0  0  0  0  0  0  0  0  0
   38.6920   30.1610   41.8500 N   0  0  0  0  0  0  0  0  0  0  0  0
   37.6660   30.7360   41.1870 C   0  0  0  0  0  0  0  0  0  0  0  0
   36.4990   30.0910   41.0140 N   0  0  0  0  0  0  0  0  0  0  0  0
   35.3740   28.4150   41.3180 H   0  0  0  0  0  0  0  0  0  0  0  0
   39.3800   28.4050   42.9070 H   0  0  0  0  0  0  0  0  0  0  0  0
   37.7980   32.0880   40.6340 C   0  0  0  0  0  0  0  0  0  0  0  0
   37.0100   32.5460   39.5730 C   0  0  0  0  0  0  0  0  0  0  0  0
   36.2390   32.0970   38.9950 H   0  0  0  0  0  0  0  0  0  0  0  0
   37.4560   33.8300   39.3860 C   0  0  0  0  0  0  0  0  0  0  0  0
   37.1860   34.6190   38.6990 H   0  0  0  0  0  0  0  0  0  0  0  0
   38.4570   34.1120   40.2920 C   0  0  0  0  0  0  0  0  0  0  0  0
   39.1190   34.9110   40.5770 H   0  0  0  0  0  0  0  0  0  0  0  0
   38.6290   33.0210   41.0300 O   0  0  0  0  0  0  0  0  0  0  0  0
   37.1310   26.8450   42.7150 C   0  0  0  0  0  0  0  0  0  0  0  0
   36.7600   26.0850   41.6200 F   0  0  0  0  0  0  0  0  0  0  0  0
   36.0940   26.8990   43.6180 F   0  0  0  0  0  0  0  0  0  0  0  0
   38.2940   26.3770   43.3170 F   0  0  0  0  0  0  0  0  0  0  0  0
  1  2  1  0  0  0  0
  2  3  2  0  0  0  0
  2 17  1  0  0  0  0
  3  8  1  0  0  0  0
  4  3  1  0  0  0  0
  5  4  2  0  0  0  0
  6  5  1  0  0  0  0
  6  1  2  0  0  0  0
  7  1  1  0  0  0  0
  9 16  1  0  0  0  0
  9  5  1  0  0  0  0
 10  9  2  0  0  0  0
 11 10  1  0  0  0  0
 12 10  1  0  0  0  0
 12 14  2  0  0  0  0
 13 12  1  0  0  0  0
 14 15  1  0  0  0  0
 14 16  1  0  0  0  0
 17 20  1  0  0  0  0
 17 19  1  0  0  0  0
 18 17  1  0  0  0  0
M  END
>  <minimizedAffinity>
-4.7665453

$$$$

 OpenBabel03242513353D

 20 21  0  0  0  0  0  0  0  0999 V2000
   38.8620   28.9550   42.5380 C   0  0  0  0  0  0  0  0  0  0  0  0
   37.5490   28.5360   42.3510 C   0  0  0  0  0  0  0  0  0  0  0  0
   36.7040   29.3900   41.6360 C   0  0  0  0  0  0  0  0  0  0  0  0
   37.1990   30.5680   41.1680 N   0  0  0  0  0  0  0  0  0  0  0  0
   38.4840   30.9240   41.3800 C   0  0  0  0  0  0  0  0  0  0  0  0
   39.3250   30.1270   42.0620 N   0  0  0  0  0  0  0  0  0  0  0  0
   39.6310   28.3830   43.0790 H   0  0  0  0  0  0  0  0  0  0  0  0
   35.6820   29.0630   41.4920 H   0  0  0  0  0  0  0  0  0  0  0  0
   39.0010   32.1980   40.8680 C   0  0  0  0  0  0  0  0  0  0  0  0
   38.1790   33.1540   40.2630 C   0  0  0  0  0  0  0  0  0  0  0  0
   37.1360   33.1890   40.0570 H   0  0  0  0  0  0  0  0  0  0  0  0
   39.0540   34.1610   39.9450 C   0  0  0  0  0  0  0  0  0  0  0  0
   38.9400   35.1230   39.4670 H   0  0  0  0  0  0  0  0  0  0  0  0
   40.3280   33.8140   40.3430 C   0  0  0  0  0  0  0  0  0  0  0  0
   41.3330   34.1990   40.3430 H   0  0  0  0  0  0  0  0  0  0  0  0
   40.2440   32.6100   40.8990 O   0  0  0  0  0  0  0  0  0  0  0  0
   37.1510   27.2330   42.9160 C   0  0  0  0  0  0  0  0  0  0  0  0
   38.2220   26.7940   43.6740 F   0  0  0  0  0  0  0  0  0  0  0  0
   36.9210   26.3550   41.8810 F   0  0  0  0  0  0  0  0  0  0  0  0
   36.0020   27.4200   43.6770 F   0  0  0  0  0  0  0  0  0  0  0  0
  1  7  1  0  0  0  0
  2  1  1  0  0  0  0
  2 17  1  0  0  0  0
  3  2  2  0  0  0  0
  4  5  2  0  0  0  0
  4  3  1  0  0  0  0
  5  6  1  0  0  0  0
  6  1  2  0  0  0  0
  8  3  1  0  0  0  0
  9 16  1  0  0  0  0
  9  5  1  0  0  0  0
 10  9  2  0  0  0  0
 11 10  1  0  0  0  0
 12 10  1  0  0  0  0
 12 14  2  0  0  0  0
 13 12  1  0  0  0  0
 14 15  1  0  0  0  0
 14 16  1  0  0  0  0
 17 18  1  0  0  0  0
 17 20  1  0  0  0  0
 19 17  1  0  0  0  0
M  END
>  <minimizedAffinity>
-4.51439285

$$$$

 OpenBabel03242513353D

 20 21  0  0  0  0  0  0  0  0999 V2000
   37.2740   28.4060   41.0690 C   0  0  0  0  0  0  0  0  0  0  0  0
   37.9330   28.0550   42.2420 C   0  0  0  0  0  0  0  0  0  0  0  0
   38.6320   29.0670   42.9070 C   0  0  0  0  0  0  0  0  0  0  0  0
   38.6350   30.3220   42.3810 N   0  0  0  0  0  0  0  0  0  0  0  0
   37.9770   30.6060   41.2370 C   0  0  0  0  0  0  0  0  0  0  0  0
   37.2930   29.6590   40.5720 N   0  0  0  0  0  0  0  0  0  0  0  0
   36.6870   27.7120   40.4480 H   0  0  0  0  0  0  0  0  0  0  0  0
   39.1450   28.7910   43.8200 H   0  0  0  0  0  0  0  0  0  0  0  0
   37.9910   31.9650   40.6850 C   0  0  0  0  0  0  0  0  0  0  0  0
   39.0060   32.8830   40.9720 C   0  0  0  0  0  0  0  0  0  0  0  0
   39.8840   32.8300   41.5700 H   0  0  0  0  0  0  0  0  0  0  0  0
   38.6300   33.9960   40.2640 C   0  0  0  0  0  0  0  0  0  0  0  0
   39.0590   34.9790   40.1390 H   0  0  0  0  0  0  0  0  0  0  0  0
   37.4500   33.7450   39.5940 C   0  0  0  0  0  0  0  0  0  0  0  0
   36.7500   34.2270   38.9350 H   0  0  0  0  0  0  0  0  0  0  0  0
   37.1010   32.4950   39.8820 O   0  0  0  0  0  0  0  0  0  0  0  0
   37.8430   26.6540   42.6930 C   0  0  0  0  0  0  0  0  0  0  0  0
   38.8020   26.5000   43.6790 F   0  0  0  0  0  0  0  0  0  0  0  0
   38.1300   25.8280   41.6300 F   0  0  0  0  0  0  0  0  0  0  0  0
   36.5540   26.4290   43.1670 F   0  0  0  0  0  0  0  0  0  0  0  0
  1  2  1  0  0  0  0
  2 17  1  0  0  0  0
  2  3  2  0  0  0  0
  3  8  1  0  0  0  0
  4  3  1  0  0  0  0
  5  4  2  0  0  0  0
  6  1  2  0  0  0  0
  6  5  1  0  0  0  0
  7  1  1  0  0  0  0
  9 10  2  0  0  0  0
  9  5  1  0  0  0  0
 10 11  1  0  0  0  0
 12 10  1  0  0  0  0
 13 12  1  0  0  0  0
 14 16  1  0  0  0  0
 14 12  2  0  0  0  0
 15 14  1  0  0  0  0
 16  9  1  0  0  0  0
 17 20  1  0  0  0  0
 17 18  1  0  0  0  0
 19 17  1  0  0  0  0
M  END
>  <minimizedAffinity>
-4.33022738

$$$$

 OpenBabel03242513353D

 20 21  0  0  0  0  0  0  0  0999 V2000
   39.0310   31.2560   40.7980 C   0  0  0  0  0  0  0  0  0  0  0  0
   37.9760   32.1150   40.5080 C   0  0  0  0  0  0  0  0  0  0  0  0
   36.6830   31.5920   40.6070 C   0  0  0  0  0  0  0  0  0  0  0  0
   36.5250   30.2910   40.9750 N   0  0  0  0  0  0  0  0  0  0  0  0
   37.5860   29.5030   41.2450 C   0  0  0  0  0  0  0  0  0  0  0  0
   38.8430   29.9720   41.1610 N   0  0  0  0  0  0  0  0  0  0  0  0
   40.0950   31.5350   40.7600 H   0  0  0  0  0  0  0  0  0  0  0  0
   35.8640   32.2620   40.3800 H   0  0  0  0  0  0  0  0  0  0  0  0
   37.3960   28.1030   41.6400 C   0  0  0  0  0  0  0  0  0  0  0  0
   36.8040   27.7380   42.8540 C   0  0  0  0  0  0  0  0  0  0  0  0
   36.4070   28.2990   43.6650 H   0  0  0  0  0  0  0  0  0  0  0  0
   36.8270   26.3670   42.8120 C   0  0  0  0  0  0  0  0  0  0  0  0
   36.4960   25.5960   43.4920 H   0  0  0  0  0  0  0  0  0  0  0  0
   37.4040   25.9460   41.6310 C   0  0  0  0  0  0  0  0  0  0  0  0
   37.6610   25.0430   41.1080 H   0  0  0  0  0  0  0  0  0  0  0  0
   37.7330   27.0400   40.9520 O   0  0  0  0  0  0  0  0  0  0  0  0
   38.2990   33.5010   40.1210 C   0  0  0  0  0  0  0  0  0  0  0  0
   38.6810   34.1500   41.2820 F   0  0  0  0  0  0  0  0  0  0  0  0
   37.1660   34.0910   39.6080 F   0  0  0  0  0  0  0  0  0  0  0  0
   39.3170   33.4650   39.1740 F   0  0  0  0  0  0  0  0  0  0  0  0
  1  6  1  0  0  0  0
  2  3  1  0  0  0  0
  2  1  2  0  0  0  0
  3  4  2  0  0  0  0
  4  5  1  0  0  0  0
  5  9  1  0  0  0  0
  6  5  2  0  0  0  0
  7  1  1  0  0  0  0
  8  3  1  0  0  0  0
  9 10  2  0  0  0  0
 10 11  1  0  0  0  0
 12 10  1  0  0  0  0
 12 13  1  0  0  0  0
 14 12  2  0  0  0  0
 15 14  1  0  0  0  0
 16 14  1  0  0  0  0
 16  9  1  0  0  0  0
 17  2  1  0  0  0  0
 17 18  1  0  0  0  0
 19 17  1  0  0  0  0
 20 17  1  0  0  0  0
M  END
>  <minimizedAffinity>
-4.31599903

$$$$

 OpenBabel03242513353D

 20 21  0  0  0  0  0  0  0  0999 V2000
   37.6300   27.0340   40.4350 C   0  0  0  0  0  0  0  0  0  0  0  0
   37.3290   26.5700   41.7120 C   0  0  0  0  0  0  0  0  0  0  0  0
   37.1440   27.5310   42.7110 C   0  0  0  0  0  0  0  0  0  0  0  0
   37.2670   28.8480   42.3900 N   0  0  0  0  0  0  0  0  0  0  0  0
   37.5610   29.2400   41.1330 C   0  0  0  0  0  0  0  0  0  0  0  0
   37.7450   28.3450   40.1470 N   0  0  0  0  0  0  0  0  0  0  0  0
   37.8000   26.3900   39.5590 H   0  0  0  0  0  0  0  0  0  0  0  0
   36.9100   27.1680   43.7040 H   0  0  0  0  0  0  0  0  0  0  0  0
   37.6900   30.6650   40.8060 C   0  0  0  0  0  0  0  0  0  0  0  0
   36.7630   31.3380   40.0030 C   0  0  0  0  0  0  0  0  0  0  0  0
   35.8740   31.0310   39.5090 H   0  0  0  0  0  0  0  0  0  0  0  0
   37.2590   32.6160   39.9600 C   0  0  0  0  0  0  0  0  0  0  0  0
   36.9300   33.5270   39.4810 H   0  0  0  0  0  0  0  0  0  0  0  0
   38.4210   32.6900   40.7010 C   0  0  0  0  0  0  0  0  0  0  0  0
   39.1770   33.3980   40.9930 H   0  0  0  0  0  0  0  0  0  0  0  0
   38.6410   31.4770   41.1960 O   0  0  0  0  0  0  0  0  0  0  0  0
   37.2280   25.1130   41.9130 C   0  0  0  0  0  0  0  0  0  0  0  0
   36.9190   24.5700   40.6780 F   0  0  0  0  0  0  0  0  0  0  0  0
   36.2080   24.8590   42.8020 F   0  0  0  0  0  0  0  0  0  0  0  0
   38.4460   24.6540   42.4060 F   0  0  0  0  0  0  0  0  0  0  0  0
  1  2  1  0  0  0  0
  2 17  1  0  0  0  0
  2  3  2  0  0  0  0
  3  8  1  0  0  0  0
  4  3  1  0  0  0  0
  5  4  2  0  0  0  0
  6  1  2  0  0  0  0
  6  5  1  0  0  0  0
  7  1  1  0  0  0  0
  9  5  1  0  0  0  0
  9 16  1  0  0  0  0
 10  9  2  0  0  0  0
 11 10  1  0  0  0  0
 12 10  1  0  0  0  0
 12 14  2  0  0  0  0
 13 12  1  0  0  0  0
 14 15  1  0  0  0  0
 14 16  1  0  0  0  0
 17 20  1  0  0  0  0
 17 19  1  0  0  0  0
 18 17  1  0  0  0  0
M  END
>  <minimizedAffinity>
-4.29229259

$$$$

 OpenBabel03242513353D

 20 21  0  0  0  0  0  0  0  0999 V2000
   38.4140   30.1900   39.3910 C   0  0  0  0  0  0  0  0  0  0  0  0
   37.4630   31.1630   39.6800 C   0  0  0  0  0  0  0  0  0  0  0  0
   36.3630   30.7690   40.4470 C   0  0  0  0  0  0  0  0  0  0  0  0
   36.2780   29.4760   40.8640 N   0  0  0  0  0  0  0  0  0  0  0  0
   37.2310   28.5740   40.5530 C   0  0  0  0  0  0  0  0  0  0  0  0
   38.3040   28.9170   39.8180 N   0  0  0  0  0  0  0  0  0  0  0  0
   39.3270   30.3620   38.7990 H   0  0  0  0  0  0  0  0  0  0  0  0
   35.6240   31.5280   40.6710 H   0  0  0  0  0  0  0  0  0  0  0  0
   37.1230   27.1840   41.0100 C   0  0  0  0  0  0  0  0  0  0  0  0
   37.1260   26.8360   42.3650 C   0  0  0  0  0  0  0  0  0  0  0  0
   37.1960   27.4060   43.2600 H   0  0  0  0  0  0  0  0  0  0  0  0
   37.0080   25.4710   42.3370 C   0  0  0  0  0  0  0  0  0  0  0  0
   36.9600   24.7110   43.1040 H   0  0  0  0  0  0  0  0  0  0  0  0
   36.9380   25.0360   41.0290 C   0  0  0  0  0  0  0  0  0  0  0  0
   36.8470   24.1290   40.4590 H   0  0  0  0  0  0  0  0  0  0  0  0
   37.0130   26.1160   40.2590 O   0  0  0  0  0  0  0  0  0  0  0  0
   37.6870   32.5250   39.1610 C   0  0  0  0  0  0  0  0  0  0  0  0
   37.1670   32.5440   37.8790 F   0  0  0  0  0  0  0  0  0  0  0  0
   39.0420   32.7650   39.1200 F   0  0  0  0  0  0  0  0  0  0  0  0
   37.0460   33.4250   40.0070 F   0  0  0  0  0  0  0  0  0  0  0  0
  1  2  2  0  0  0  0
  1  6  1  0  0  0  0
  2  3  1  0  0  0  0
  3  8  1  0  0  0  0
  3  4  2  0  0  0  0
  5  4  1  0  0  0  0
  5  9  1  0  0  0  0
  6  5  2  0  0  0  0
  7  1  1  0  0  0  0
  9 10  2  0  0  0  0
 10 11  1  0  0  0  0
 12 10  1  0  0  0  0
 12 13  1  0  0  0  0
 14 12  2  0  0  0  0
 15 14  1  0  0  0  0
 16  9  1  0  0  0  0
 16 14  1  0  0  0  0
 17  2  1  0  0  0  0
 17 20  1  0  0  0  0
 18 17  1  0  0  0  0
 19 17  1  0  0  0  0
M  END
>  <minimizedAffinity>
-4.0640974

$$$$

 OpenBabel03242513353D

 20 21  0  0  0  0  0  0  0  0999 V2000
   36.6910   27.0560   40.5720 C   0  0  0  0  0  0  0  0  0  0  0  0
   36.5490   27.9960   41.5870 C   0  0  0  0  0  0  0  0  0  0  0  0
   35.9090   29.1950   41.2590 C   0  0  0  0  0  0  0  0  0  0  0  0
   35.4660   29.3800   39.9860 N   0  0  0  0  0  0  0  0  0  0  0  0
   35.6310   28.4310   39.0400 C   0  0  0  0  0  0  0  0  0  0  0  0
   36.2410   27.2660   39.3200 N   0  0  0  0  0  0  0  0  0  0  0  0
   37.1720   26.0730   40.6910 H   0  0  0  0  0  0  0  0  0  0  0  0
   35.8000   29.9260   42.0510 H   0  0  0  0  0  0  0  0  0  0  0  0
   35.1470   28.6470   37.6720 C   0  0  0  0  0  0  0  0  0  0  0  0
   33.7980   28.8700   37.3780 C   0  0  0  0  0  0  0  0  0  0  0  0
   32.9240   28.9300   37.9820 H   0  0  0  0  0  0  0  0  0  0  0  0
   33.7960   29.0180   36.0150 C   0  0  0  0  0  0  0  0  0  0  0  0
   33.0200   29.2070   35.2880 H   0  0  0  0  0  0  0  0  0  0  0  0
   35.0810   28.8880   35.5300 C   0  0  0  0  0  0  0  0  0  0  0  0
   35.6260   28.9100   34.6030 H   0  0  0  0  0  0  0  0  0  0  0  0
   35.8680   28.6630   36.5780 O   0  0  0  0  0  0  0  0  0  0  0  0
   37.0790   27.6600   42.9220 C   0  0  0  0  0  0  0  0  0  0  0  0
   35.9960   27.2490   43.6790 F   0  0  0  0  0  0  0  0  0  0  0  0
   37.6330   28.7920   43.4750 F   0  0  0  0  0  0  0  0  0  0  0  0
   38.0330   26.6580   42.7730 F   0  0  0  0  0  0  0  0  0  0  0  0
  1  7  1  0  0  0  0
  1  2  1  0  0  0  0
  2 17  1  0  0  0  0
  3  2  2  0  0  0  0
  3  8  1  0  0  0  0
  4  3  1  0  0  0  0
  5  6  1  0  0  0  0
  5  4  2  0  0  0  0
  6  1  2  0  0  0  0
  9  5  1  0  0  0  0
 10  9  2  0  0  0  0
 10 11  1  0  0  0  0
 12 10  1  0  0  0  0
 13 12  1  0  0  0  0
 14 12  2  0  0  0  0
 14 16  1  0  0  0  0
 15 14  1  0  0  0  0
 16  9  1  0  0  0  0
 17 19  1  0  0  0  0
 17 18  1  0  0  0  0
 20 17  1  0  0  0  0
M  END
>  <minimizedAffinity>
-4.01283503

$$$$

 OpenBabel03242513353D

 20 21  0  0  0  0  0  0  0  0999 V2000
   36.1780   27.3850   39.3110 C   0  0  0  0  0  0  0  0  0  0  0  0
   35.3670   28.5080   39.4360 C   0  0  0  0  0  0  0  0  0  0  0  0
   35.6080   29.3500   40.5260 C   0  0  0  0  0  0  0  0  0  0  0  0
   36.6070   29.0350   41.3950 N   0  0  0  0  0  0  0  0  0  0  0  0
   37.3640   27.9310   41.2240 C   0  0  0  0  0  0  0  0  0  0  0  0
   37.1610   27.0980   40.1880 N   0  0  0  0  0  0  0  0  0  0  0  0
   36.0990   26.6410   38.5040 H   0  0  0  0  0  0  0  0  0  0  0  0
   34.9750   30.2240   40.6210 H   0  0  0  0  0  0  0  0  0  0  0  0
   38.4360   27.6060   42.1710 C   0  0  0  0  0  0  0  0  0  0  0  0
   39.5690   28.4110   42.3300 C   0  0  0  0  0  0  0  0  0  0  0  0
   39.8830   29.3190   41.8740 H   0  0  0  0  0  0  0  0  0  0  0  0
   40.2890   27.7510   43.2920 C   0  0  0  0  0  0  0  0  0  0  0  0
   41.2350   27.9430   43.7770 H   0  0  0  0  0  0  0  0  0  0  0  0
   39.6130   26.6120   43.6800 C   0  0  0  0  0  0  0  0  0  0  0  0
   39.7080   25.7780   44.3530 H   0  0  0  0  0  0  0  0  0  0  0  0
   38.4910   26.5680   42.9690 O   0  0  0  0  0  0  0  0  0  0  0  0
   34.3220   28.7240   38.4180 C   0  0  0  0  0  0  0  0  0  0  0  0
   33.2110   29.1970   39.0930 F   0  0  0  0  0  0  0  0  0  0  0  0
   34.0290   27.5170   37.8240 F   0  0  0  0  0  0  0  0  0  0  0  0
   34.8040   29.6360   37.4840 F   0  0  0  0  0  0  0  0  0  0  0  0
  1  2  2  0  0  0  0
  1  6  1  0  0  0  0
  2  3  1  0  0  0  0
  3  8  1  0  0  0  0
  3  4  2  0  0  0  0
  5  4  1  0  0  0  0
  5  9  1  0  0  0  0
  6  5  2  0  0  0  0
  7  1  1  0  0  0  0
  9 10  2  0  0  0  0
  9 16  1  0  0  0  0
 10 12  1  0  0  0  0
 11 10  1  0  0  0  0
 12 14  2  0  0  0  0
 12 13  1  0  0  0  0
 14 15  1  0  0  0  0
 16 14  1  0  0  0  0
 17 18  1  0  0  0  0
 17  2  1  0  0  0  0
 19 17  1  0  0  0  0
 20 17  1  0  0  0  0
M  END
>  <minimizedAffinity>
-3.99769807

$$$$

 OpenBabel03242513353D

 20 21  0  0  0  0  0  0  0  0999 V2000
   35.6630   27.5520   38.3910 C   0  0  0  0  0  0  0  0  0  0  0  0
   34.5460   28.3590   38.1960 C   0  0  0  0  0  0  0  0  0  0  0  0
   34.1870   29.2110   39.2440 C   0  0  0  0  0  0  0  0  0  0  0  0
   34.9330   29.2090   40.3830 N   0  0  0  0  0  0  0  0  0  0  0  0
   36.0080   28.4040   40.5160 C   0  0  0  0  0  0  0  0  0  0  0  0
   36.3840   27.5710   39.5290 N   0  0  0  0  0  0  0  0  0  0  0  0
   36.0560   26.8380   37.6510 H   0  0  0  0  0  0  0  0  0  0  0  0
   33.3170   29.8380   39.0910 H   0  0  0  0  0  0  0  0  0  0  0  0
   36.8010   28.4140   41.7500 C   0  0  0  0  0  0  0  0  0  0  0  0
   36.7000   27.4080   42.7170 C   0  0  0  0  0  0  0  0  0  0  0  0
   36.1140   26.5230   42.7850 H   0  0  0  0  0  0  0  0  0  0  0  0
   37.5950   27.8070   43.6760 C   0  0  0  0  0  0  0  0  0  0  0  0
   37.9040   27.3920   44.6250 H   0  0  0  0  0  0  0  0  0  0  0  0
   38.1930   28.9900   43.2930 C   0  0  0  0  0  0  0  0  0  0  0  0
   38.9210   29.7030   43.6380 H   0  0  0  0  0  0  0  0  0  0  0  0
   37.6770   29.3190   42.1140 O   0  0  0  0  0  0  0  0  0  0  0  0
   33.8330   28.2550   36.9100 C   0  0  0  0  0  0  0  0  0  0  0  0
   32.5250   28.6320   37.1580 F   0  0  0  0  0  0  0  0  0  0  0  0
   33.8690   26.9450   36.4890 F   0  0  0  0  0  0  0  0  0  0  0  0
   34.4620   29.0910   35.9930 F   0  0  0  0  0  0  0  0  0  0  0  0
  1  6  1  0  0  0  0
  2  1  2  0  0  0  0
  2  3  1  0  0  0  0
  3  4  2  0  0  0  0
  4  5  1  0  0  0  0
  5  9  1  0  0  0  0
  6  5  2  0  0  0  0
  7  1  1  0  0  0  0
  8  3  1  0  0  0  0
  9 16  1  0  0  0  0
  9 10  2  0  0  0  0
 10 11  1  0  0  0  0
 10 12  1  0  0  0  0
 12 13  1  0  0  0  0
 14 15  1  0  0  0  0
 14 12  2  0  0  0  0
 16 14  1  0  0  0  0
 17 18  1  0  0  0  0
 17  2  1  0  0  0  0
 19 17  1  0  0  0  0
 20 17  1  0  0  0  0
M  END
>  <minimizedAffinity>
-3.9606657

$$$$
