
 OpenBabel03242513243D

 44 47  0  0  1  0  0  0  0  0999 V2000
   46.2700   29.9600   47.5940 C   0  0  2  0  0  0  0  0  0  0  0  0
   44.9280   30.4460   48.1200 C   0  0  0  0  0  0  0  0  0  0  0  0
   45.4440   31.1010   49.3940 C   0  0  0  0  0  0  0  0  0  0  0  0
   46.5950   31.7420   49.0180 O   0  0  0  0  0  0  0  0  0  0  0  0
   47.1070   31.1550   47.8870 C   0  0  1  0  0  0  0  0  0  0  0  0
   46.5090   29.0590   48.1530 H   0  0  0  0  0  0  0  0  0  0  0  0
   44.4380   31.1780   47.4630 H   0  0  0  0  0  0  0  0  0  0  0  0
   44.2830   29.5780   48.3440 H   0  0  0  0  0  0  0  0  0  0  0  0
   44.6910   31.8190   49.7540 H   0  0  0  0  0  0  0  0  0  0  0  0
   45.6040   30.3180   50.1680 H   0  0  0  0  0  0  0  0  0  0  0  0
   47.0800   31.8850   47.0820 H   0  0  0  0  0  0  0  0  0  0  0  0
   48.5330   30.7790   48.1310 C   0  0  1  0  0  0  0  0  0  0  0  0
   49.0790   31.4240   49.3930 C   0  0  0  0  0  0  0  0  0  0  0  0
   49.8620   30.3030   50.0180 C   0  0  0  0  0  0  0  0  0  0  0  0
   49.9510   29.3040   49.0410 O   0  0  0  0  0  0  0  0  0  0  0  0
   48.6670   29.3050   48.5050 C   0  0  0  0  0  0  0  0  0  0  0  0
   49.2040   30.9580   47.2720 H   0  0  0  0  0  0  0  0  0  0  0  0
   48.2420   31.7800   50.0170 H   0  0  0  0  0  0  0  0  0  0  0  0
   49.7070   32.3000   49.1080 H   0  0  0  0  0  0  0  0  0  0  0  0
   50.8990   30.6750   50.2480 H   0  0  0  0  0  0  0  0  0  0  0  0
   49.3810   29.9560   50.9410 H   0  0  0  0  0  0  0  0  0  0  0  0
   48.0090   29.0580   49.3730 H   0  0  0  0  0  0  0  0  0  0  0  0
   48.5410   28.6480   47.6380 H   0  0  0  0  0  0  0  0  0  0  0  0
   46.2030   29.5920   46.1500 C   0  0  0  0  0  0  0  0  0  0  0  0
   45.2550   29.0010   46.0200 H   0  0  0  0  0  0  0  0  0  0  0  0
   47.0410   28.9220   45.8520 H   0  0  0  0  0  0  0  0  0  0  0  0
   45.3460   30.8060   44.2150 C   0  0  0  0  0  0  0  0  0  0  0  0
   46.1490   30.7530   45.2410 C   0  0  0  0  0  0  0  0  0  0  0  0
   44.1550   33.3610   41.8990 C   0  0  0  0  0  0  0  0  0  0  0  0
   45.3220   34.1500   41.6890 C   0  0  0  0  0  0  0  0  0  0  0  0
   46.4780   33.7640   42.3590 C   0  0  0  0  0  0  0  0  0  0  0  0
   46.4290   32.6730   43.1650 N   0  0  0  0  0  0  0  0  0  0  0  0
   45.3100   31.9470   43.3440 C   0  0  0  0  0  0  0  0  0  0  0  0
   44.1810   32.2750   42.7260 N   0  0  0  0  0  0  0  0  0  0  0  0
   43.2400   33.6380   41.3900 H   0  0  0  0  0  0  0  0  0  0  0  0
   45.3330   34.9980   41.0530 H   0  0  0  0  0  0  0  0  0  0  0  0
   47.7400   34.4840   42.2320 C   0  0  0  0  0  0  0  0  0  0  0  0
   48.9150   34.1350   42.8520 C   0  0  0  0  0  0  0  0  0  0  0  0
   49.1550   33.3270   43.5130 H   0  0  0  0  0  0  0  0  0  0  0  0
   49.8690   35.0760   42.4690 C   0  0  0  0  0  0  0  0  0  0  0  0
   50.9010   35.2270   42.6820 H   0  0  0  0  0  0  0  0  0  0  0  0
   49.2100   35.9400   41.6370 C   0  0  0  0  0  0  0  0  0  0  0  0
   49.5650   36.8270   41.1050 H   0  0  0  0  0  0  0  0  0  0  0  0
   47.9700   35.5700   41.5180 O   0  0  0  0  0  0  0  0  0  0  0  0
  1  5  1  0  0  0  0
  1  2  1  0  0  0  0
  1  6  1  1  0  0  0
  2  8  1  0  0  0  0
  2  3  1  0  0  0  0
  3  9  1  0  0  0  0
  3 10  1  0  0  0  0
  4  3  1  0  0  0  0
  5 11  1  6  0  0  0
  5 12  1  0  0  0  0
  5  4  1  0  0  0  0
  7  2  1  0  0  0  0
 12 17  1  6  0  0  0
 12 16  1  0  0  0  0
 12 13  1  0  0  0  0
 13 18  1  0  0  0  0
 13 14  1  0  0  0  0
 14 20  1  0  0  0  0
 14 21  1  0  0  0  0
 15 14  1  0  0  0  0
 16 15  1  0  0  0  0
 16 22  1  0  0  0  0
 19 13  1  0  0  0  0
 23 16  1  0  0  0  0
 24  1  1  0  0  0  0
 25 24  1  0  0  0  0
 26 24  1  0  0  0  0
 27 28  2  0  0  0  0
 28 24  1  0  0  0  0
 29 34  1  0  0  0  0
 30 29  2  0  0  0  0
 30 31  1  0  0  0  0
 31 32  2  0  0  0  0
 32 33  1  0  0  0  0
 33 27  1  0  0  0  0
 34 33  2  0  0  0  0
 35 29  1  0  0  0  0
 36 30  1  0  0  0  0
 37 31  1  0  0  0  0
 37 38  2  0  0  0  0
 38 39  1  0  0  0  0
 40 41  1  0  0  0  0
 40 38  1  0  0  0  0
 42 40  2  0  0  0  0
 43 42  1  0  0  0  0
 44 42  1  0  0  0  0
 44 37  1  0  0  0  0
M  END
>  <minimizedAffinity>
-5.22410774

>  <minimizedRMSD>
1.98921633

$$$$
