
 OpenBabel03242515053D

 38 40  0  0  0  0  0  0  0  0999 V2000
   44.6930   34.6560   42.0970 C   0  0  0  0  0  0  0  0  0  0  0  0
   45.8460   34.0660   41.5800 C   0  0  0  0  0  0  0  0  0  0  0  0
   46.8150   33.5750   42.4710 C   0  0  0  0  0  0  0  0  0  0  0  0
   46.5610   33.7120   43.7880 N   0  0  0  0  0  0  0  0  0  0  0  0
   45.4420   34.2830   44.2690 C   0  0  0  0  0  0  0  0  0  0  0  0
   44.5330   34.7430   43.4170 N   0  0  0  0  0  0  0  0  0  0  0  0
   46.0590   33.9520   40.5410 H   0  0  0  0  0  0  0  0  0  0  0  0
   48.0420   32.9480   41.9900 C   0  0  0  0  0  0  0  0  0  0  0  0
   48.8260   32.1110   42.7560 C   0  0  0  0  0  0  0  0  0  0  0  0
   48.6810   31.7920   43.7770 H   0  0  0  0  0  0  0  0  0  0  0  0
   49.8590   31.7760   41.8720 C   0  0  0  0  0  0  0  0  0  0  0  0
   50.6950   31.1260   42.0930 H   0  0  0  0  0  0  0  0  0  0  0  0
   49.6450   32.4170   40.6520 C   0  0  0  0  0  0  0  0  0  0  0  0
   50.2330   32.3940   39.7420 H   0  0  0  0  0  0  0  0  0  0  0  0
   48.5310   33.1060   40.7950 O   0  0  0  0  0  0  0  0  0  0  0  0
   45.2910   34.3660   45.7100 C   0  0  0  0  0  0  0  0  0  0  0  0
   44.4630   35.1820   46.1700 O   0  0  0  0  0  0  0  0  0  0  0  0
   46.1130   33.4940   46.5070 N   0  0  0  0  0  0  0  0  0  0  0  0
   45.8540   32.6420   47.0550 H   0  0  0  0  0  0  0  0  0  0  0  0
   47.1200   33.7520   46.5420 H   0  0  0  0  0  0  0  0  0  0  0  0
   43.5140   35.2550   40.8970 S   0  0  0  0  0  0  0  0  0  0  0  0
   41.8370   35.3130   41.5400 C   0  0  0  0  0  0  0  0  0  0  0  0
   41.8880   35.7300   42.5710 H   0  0  0  0  0  0  0  0  0  0  0  0
   41.4600   34.2520   41.5660 H   0  0  0  0  0  0  0  0  0  0  0  0
   40.9010   36.1440   40.7310 C   0  0  0  0  0  0  0  0  0  0  0  0
   41.4110   36.9640   40.1830 H   0  0  0  0  0  0  0  0  0  0  0  0
   40.1880   36.6470   41.4370 H   0  0  0  0  0  0  0  0  0  0  0  0
   41.7650   36.2820   37.8250 Cl  0  0  0  0  0  0  0  0  0  0  0  0
   40.4590   35.3040   38.4090 C   0  0  0  0  0  0  0  0  0  0  0  0
   40.1450   35.3170   39.7710 C   0  0  0  0  0  0  0  0  0  0  0  0
   39.0930   34.5120   40.1580 C   0  0  0  0  0  0  0  0  0  0  0  0
   38.3210   33.6990   39.3370 C   0  0  0  0  0  0  0  0  0  0  0  0
   38.6640   33.7150   37.9970 C   0  0  0  0  0  0  0  0  0  0  0  0
   37.7440   32.7160   36.8720 Cl  0  0  0  0  0  0  0  0  0  0  0  0
   39.7050   34.4980   37.5520 C   0  0  0  0  0  0  0  0  0  0  0  0
   38.8520   34.5240   41.2150 H   0  0  0  0  0  0  0  0  0  0  0  0
   37.5230   33.1110   39.7460 H   0  0  0  0  0  0  0  0  0  0  0  0
   39.9530   34.4920   36.4970 H   0  0  0  0  0  0  0  0  0  0  0  0
  1  6  1  0  0  0  0
  2  1  2  0  0  0  0
  2  3  1  0  0  0  0
  3  4  2  0  0  0  0
  4  5  1  0  0  0  0
  5 16  1  0  0  0  0
  6  5  2  0  0  0  0
  7  2  1  0  0  0  0
  8  3  1  0  0  0  0
  8  9  2  0  0  0  0
  9 10  1  0  0  0  0
 11 12  1  0  0  0  0
 11  9  1  0  0  0  0
 13 15  1  0  0  0  0
 13 11  2  0  0  0  0
 14 13  1  0  0  0  0
 15  8  1  0  0  0  0
 16 17  2  0  0  0  0
 16 18  1  0  0  0  0
 18 20  1  0  0  0  0
 18 19  1  0  0  0  0
 21 22  1  0  0  0  0
 21  1  1  0  0  0  0
 22 24  1  0  0  0  0
 22 23  1  0  0  0  0
 25 27  1  0  0  0  0
 25 22  1  0  0  0  0
 26 25  1  0  0  0  0
 28 29  1  0  0  0  0
 29 30  1  0  0  0  0
 30 31  2  0  0  0  0
 30 25  1  0  0  0  0
 31 36  1  0  0  0  0
 32 37  1  0  0  0  0
 32 31  1  0  0  0  0
 33 32  2  0  0  0  0
 34 33  1  0  0  0  0
 35 33  1  0  0  0  0
 35 29  2  0  0  0  0
 38 35  1  0  0  0  0
M  END
>  <minimizedAffinity>
-6.50806284

>  <minimizedRMSD>
0.699424088

$$$$
