
 OpenBabel03252509113D

 30 33  0  0  0  0  0  0  0  0999 V2000
   44.8370   29.8170   43.6370 C   0  0  0  0  0  0  0  0  0  0  0  0
   45.5120   30.5720   44.5810 C   0  0  0  0  0  0  0  0  0  0  0  0
   45.6290   30.1730   45.8980 C   0  0  0  0  0  0  0  0  0  0  0  0
   45.0560   28.9750   46.3120 C   0  0  0  0  0  0  0  0  0  0  0  0
   44.9690   28.2870   47.4800 N   0  0  0  0  0  0  0  0  0  0  0  0
   44.2680   27.1480   47.2690 C   0  0  0  0  0  0  0  0  0  0  0  0
   43.9270   27.1460   45.9660 N   0  0  0  0  0  0  0  0  0  0  0  0
   44.3940   28.2500   45.3510 C   0  0  0  0  0  0  0  0  0  0  0  0
   44.2540   28.6110   44.0290 C   0  0  0  0  0  0  0  0  0  0  0  0
   44.7650   30.1620   42.6100 H   0  0  0  0  0  0  0  0  0  0  0  0
   45.4090   28.6680   48.3360 H   0  0  0  0  0  0  0  0  0  0  0  0
   44.0650   26.4320   48.0580 H   0  0  0  0  0  0  0  0  0  0  0  0
   43.7170   27.9860   43.3310 H   0  0  0  0  0  0  0  0  0  0  0  0
   45.9980   34.1500   43.9120 C   0  0  0  0  0  0  0  0  0  0  0  0
   47.3070   34.1970   43.4290 C   0  0  0  0  0  0  0  0  0  0  0  0
   48.0240   32.9920   43.3330 C   0  0  0  0  0  0  0  0  0  0  0  0
   47.3740   31.8550   43.7260 N   0  0  0  0  0  0  0  0  0  0  0  0
   46.1210   31.8310   44.1860 C   0  0  0  0  0  0  0  0  0  0  0  0
   45.4200   32.9800   44.2850 N   0  0  0  0  0  0  0  0  0  0  0  0
   45.4530   35.0890   43.9820 H   0  0  0  0  0  0  0  0  0  0  0  0
   47.7670   35.1240   43.1340 H   0  0  0  0  0  0  0  0  0  0  0  0
   49.0410   32.9680   42.9660 H   0  0  0  0  0  0  0  0  0  0  0  0
   46.3340   30.9490   46.9140 C   0  0  0  0  0  0  0  0  0  0  0  0
   45.4880   31.6580   47.7720 C   0  0  0  0  0  0  0  0  0  0  0  0
   44.4240   31.7930   47.8920 H   0  0  0  0  0  0  0  0  0  0  0  0
   46.3110   32.3390   48.6760 C   0  0  0  0  0  0  0  0  0  0  0  0
   46.0490   33.0060   49.5100 H   0  0  0  0  0  0  0  0  0  0  0  0
   47.6130   31.9930   48.3010 C   0  0  0  0  0  0  0  0  0  0  0  0
   48.5520   32.3070   48.7450 H   0  0  0  0  0  0  0  0  0  0  0  0
   47.5670   31.1800   47.2690 O   0  0  0  0  0  0  0  0  0  0  0  0
  1  9  2  0  0  0  0
  1  2  1  0  0  0  0
  2  3  2  0  0  0  0
  3  4  1  0  0  0  0
  3 23  1  0  0  0  0
  4  5  1  0  0  0  0
  5 11  1  0  0  0  0
  6  5  1  0  0  0  0
  6 12  1  0  0  0  0
  7  6  2  0  0  0  0
  8  7  1  0  0  0  0
  8  4  2  0  0  0  0
  9  8  1  0  0  0  0
 10  1  1  0  0  0  0
 13  9  1  0  0  0  0
 14 20  1  0  0  0  0
 14 19  1  0  0  0  0
 15 14  2  0  0  0  0
 16 15  1  0  0  0  0
 16 17  2  0  0  0  0
 17 18  1  0  0  0  0
 18 19  2  0  0  0  0
 18  2  1  0  0  0  0
 21 15  1  0  0  0  0
 22 16  1  0  0  0  0
 23 30  1  0  0  0  0
 23 24  2  0  0  0  0
 24 25  1  0  0  0  0
 24 26  1  0  0  0  0
 26 27  1  0  0  0  0
 28 26  2  0  0  0  0
 28 29  1  0  0  0  0
 30 28  1  0  0  0  0
M  END
>  <minimizedAffinity>
-4.05632019

>  <minimizedRMSD>
3.74412775

$$$$
