
 OpenBabel03252506563D

 37 41  0  0  0  0  0  0  0  0999 V2000
   47.2880   31.2640   45.2210 C   0  0  0  0  0  0  0  0  0  0  0  0
   46.9290   32.6030   45.1390 C   0  0  0  0  0  0  0  0  0  0  0  0
   46.3150   33.2770   46.1680 C   0  0  0  0  0  0  0  0  0  0  0  0
   46.0230   32.6180   47.3610 C   0  0  0  0  0  0  0  0  0  0  0  0
   45.4430   32.9410   48.5550 N   0  0  0  0  0  0  0  0  0  0  0  0
   45.4430   31.8400   49.3460 C   0  0  0  0  0  0  0  0  0  0  0  0
   46.0240   30.8450   48.6350 N   0  0  0  0  0  0  0  0  0  0  0  0
   46.3870   31.2950   47.4130 C   0  0  0  0  0  0  0  0  0  0  0  0
   46.9980   30.5950   46.4160 C   0  0  0  0  0  0  0  0  0  0  0  0
   47.7690   30.7580   44.3990 H   0  0  0  0  0  0  0  0  0  0  0  0
   46.0300   34.3260   46.1110 H   0  0  0  0  0  0  0  0  0  0  0  0
   45.0820   33.9030   48.7490 H   0  0  0  0  0  0  0  0  0  0  0  0
   45.0360   31.8500   50.3430 H   0  0  0  0  0  0  0  0  0  0  0  0
   46.6830   35.0520   42.3960 C   0  0  0  0  0  0  0  0  0  0  0  0
   47.7690   34.6970   41.5890 C   0  0  0  0  0  0  0  0  0  0  0  0
   48.5750   33.6310   41.9840 C   0  0  0  0  0  0  0  0  0  0  0  0
   48.2660   32.9730   43.1500 N   0  0  0  0  0  0  0  0  0  0  0  0
   47.2160   33.3350   43.9060 C   0  0  0  0  0  0  0  0  0  0  0  0
   46.4210   34.3680   43.5410 N   0  0  0  0  0  0  0  0  0  0  0  0
   46.0730   35.8850   42.0650 H   0  0  0  0  0  0  0  0  0  0  0  0
   48.0350   35.1950   40.6710 H   0  0  0  0  0  0  0  0  0  0  0  0
   49.4330   33.2780   41.4370 H   0  0  0  0  0  0  0  0  0  0  0  0
   47.3460   29.1800   46.5790 C   0  0  0  0  0  0  0  0  0  0  0  0
   48.5210   28.6120   46.1500 C   0  0  0  0  0  0  0  0  0  0  0  0
   48.4200   27.2650   46.5110 C   0  0  0  0  0  0  0  0  0  0  0  0
   47.2020   27.0990   47.1310 C   0  0  0  0  0  0  0  0  0  0  0  0
   46.5940   28.2870   47.1450 O   0  0  0  0  0  0  0  0  0  0  0  0
   49.3770   29.0410   45.6420 H   0  0  0  0  0  0  0  0  0  0  0  0
   49.1160   26.4540   46.3670 H   0  0  0  0  0  0  0  0  0  0  0  0
   46.5700   25.9140   47.7080 C   0  0  0  0  0  0  0  0  0  0  0  0
   45.6890   25.1380   46.9490 C   0  0  0  0  0  0  0  0  0  0  0  0
   45.3740   25.2930   45.9070 H   0  0  0  0  0  0  0  0  0  0  0  0
   45.2300   24.0840   47.7120 C   0  0  0  0  0  0  0  0  0  0  0  0
   44.5540   23.2730   47.5160 H   0  0  0  0  0  0  0  0  0  0  0  0
   45.8680   24.2760   48.9190 C   0  0  0  0  0  0  0  0  0  0  0  0
   45.8520   23.7340   49.8480 H   0  0  0  0  0  0  0  0  0  0  0  0
   46.6420   25.3490   48.8890 O   0  0  0  0  0  0  0  0  0  0  0  0
  1  9  1  0  0  0  0
  2  1  2  0  0  0  0
  2  3  1  0  0  0  0
  3  4  2  0  0  0  0
  4  8  1  0  0  0  0
  4  5  1  0  0  0  0
  5 12  1  0  0  0  0
  5  6  1  0  0  0  0
  6 13  1  0  0  0  0
  7  6  2  0  0  0  0
  8  7  1  0  0  0  0
  9 23  1  0  0  0  0
  9  8  2  0  0  0  0
 10  1  1  0  0  0  0
 11  3  1  0  0  0  0
 14 19  1  0  0  0  0
 15 16  1  0  0  0  0
 15 14  2  0  0  0  0
 16 17  2  0  0  0  0
 17 18  1  0  0  0  0
 18  2  1  0  0  0  0
 19 18  2  0  0  0  0
 20 14  1  0  0  0  0
 21 15  1  0  0  0  0
 22 16  1  0  0  0  0
 23 27  1  0  0  0  0
 24 25  1  0  0  0  0
 24 23  2  0  0  0  0
 25 26  2  0  0  0  0
 26 27  1  0  0  0  0
 26 30  1  0  0  0  0
 28 24  1  0  0  0  0
 29 25  1  0  0  0  0
 30 37  1  0  0  0  0
 31 30  2  0  0  0  0
 31 33  1  0  0  0  0
 32 31  1  0  0  0  0
 33 35  2  0  0  0  0
 34 33  1  0  0  0  0
 35 36  1  0  0  0  0
 37 35  1  0  0  0  0
M  END
>  <minimizedAffinity>
-5.66124296

>  <minimizedRMSD>
0.971556306

$$$$
