
 OpenBabel03252508543D

 42 45  0  0  1  0  0  0  0  0999 V2000
   43.3070   34.4410   40.7090 C   0  0  0  0  0  0  0  0  0  0  0  0
   43.2690   35.6010   40.2120 O   0  0  0  0  0  0  0  0  0  0  0  0
   41.9390   34.0330   40.4880 N   0  0  0  0  0  0  0  0  0  0  0  0
   41.5100   33.9990   39.1070 C   0  0  0  0  0  0  0  0  0  0  0  0
   40.7300   35.3130   38.9030 C   0  0  0  0  0  0  0  0  0  0  0  0
   39.9830   35.5630   40.2040 C   0  0  0  0  0  0  0  0  0  0  0  0
   39.6250   34.2530   40.9110 C   0  0  0  0  0  0  0  0  0  0  0  0
   40.9070   33.6460   41.4500 C   0  0  1  0  0  0  0  0  0  0  0  0
   40.8350   33.1290   38.9430 H   0  0  0  0  0  0  0  0  0  0  0  0
   42.3380   33.9950   38.3930 H   0  0  0  0  0  0  0  0  0  0  0  0
   41.4610   36.1320   38.7250 H   0  0  0  0  0  0  0  0  0  0  0  0
   39.9940   35.1960   38.0880 H   0  0  0  0  0  0  0  0  0  0  0  0
   39.1000   36.1860   40.0550 H   0  0  0  0  0  0  0  0  0  0  0  0
   40.6490   36.1260   40.9160 H   0  0  0  0  0  0  0  0  0  0  0  0
   39.1840   33.5600   40.2000 H   0  0  0  0  0  0  0  0  0  0  0  0
   38.9650   34.5620   41.7480 H   0  0  0  0  0  0  0  0  0  0  0  0
   41.1490   34.2120   42.3790 H   0  0  0  0  0  0  0  0  0  0  0  0
   40.8440   32.2000   41.6450 C   0  0  0  0  0  0  0  0  0  0  0  0
   39.8040   31.3330   41.3460 C   0  0  0  0  0  0  0  0  0  0  0  0
   38.8560   31.5950   40.9120 H   0  0  0  0  0  0  0  0  0  0  0  0
   40.2620   30.0870   41.7270 C   0  0  0  0  0  0  0  0  0  0  0  0
   39.7370   29.1420   41.6530 H   0  0  0  0  0  0  0  0  0  0  0  0
   41.5520   30.2810   42.2330 C   0  0  0  0  0  0  0  0  0  0  0  0
   42.1910   29.4900   42.6200 H   0  0  0  0  0  0  0  0  0  0  0  0
   41.8820   31.5680   42.1730 O   0  0  0  0  0  0  0  0  0  0  0  0
   44.3690   33.7890   41.2860 O   0  0  0  0  0  0  0  0  0  0  0  0
   45.7000   34.1150   41.1290 C   0  0  0  0  0  0  0  0  0  0  0  0
   46.3500   34.7400   42.2050 C   0  0  0  0  0  0  0  0  0  0  0  0
   47.7090   35.0550   42.0060 C   0  0  0  0  0  0  0  0  0  0  0  0
   48.2960   34.7390   40.8070 N   0  0  0  0  0  0  0  0  0  0  0  0
   47.6230   34.1490   39.8330 C   0  0  0  0  0  0  0  0  0  0  0  0
   46.3230   33.8270   39.9730 N   0  0  0  0  0  0  0  0  0  0  0  0
   48.2400   35.5360   42.8100 H   0  0  0  0  0  0  0  0  0  0  0  0
   48.0700   33.8910   38.8780 H   0  0  0  0  0  0  0  0  0  0  0  0
   45.6310   35.0240   43.4230 C   0  0  0  0  0  0  0  0  0  0  0  0
   44.9920   36.2420   43.6430 C   0  0  0  0  0  0  0  0  0  0  0  0
   44.4440   36.0920   44.9010 C   0  0  0  0  0  0  0  0  0  0  0  0
   44.7320   34.8700   45.4010 N   0  0  0  0  0  0  0  0  0  0  0  0
   45.4500   34.2400   44.4910 N   0  0  0  0  0  0  0  0  0  0  0  0
   44.9270   37.1090   43.0040 H   0  0  0  0  0  0  0  0  0  0  0  0
   43.8500   36.8450   45.4430 H   0  0  0  0  0  0  0  0  0  0  0  0
   44.4780   34.4230   46.3170 H   0  0  0  0  0  0  0  0  0  0  0  0
  1 26  1  0  0  0  0
  2  1  2  0  0  0  0
  3  1  1  0  0  0  0
  3  8  1  0  0  0  0
  4  3  1  0  0  0  0
  5  4  1  0  0  0  0
  5  6  1  0  0  0  0
  6  7  1  0  0  0  0
  6 14  1  0  0  0  0
  7  8  1  0  0  0  0
  7 16  1  0  0  0  0
  8 18  1  0  0  0  0
  8 17  1  1  0  0  0
  9  4  1  0  0  0  0
 10  4  1  0  0  0  0
 11  5  1  0  0  0  0
 12  5  1  0  0  0  0
 13  6  1  0  0  0  0
 15  7  1  0  0  0  0
 18 25  1  0  0  0  0
 19 18  2  0  0  0  0
 19 21  1  0  0  0  0
 20 19  1  0  0  0  0
 21 23  2  0  0  0  0
 22 21  1  0  0  0  0
 23 24  1  0  0  0  0
 25 23  1  0  0  0  0
 27 26  1  0  0  0  0
 27 28  1  0  0  0  0
 28 35  1  0  0  0  0
 29 28  2  0  0  0  0
 29 33  1  0  0  0  0
 30 29  1  0  0  0  0
 31 32  1  0  0  0  0
 31 30  2  0  0  0  0
 32 27  2  0  0  0  0
 34 31  1  0  0  0  0
 35 36  1  0  0  0  0
 35 39  2  0  0  0  0
 36 37  2  0  0  0  0
 37 38  1  0  0  0  0
 37 41  1  0  0  0  0
 38 42  1  0  0  0  0
 39 38  1  0  0  0  0
 40 36  1  0  0  0  0
M  END
>  <minimizedAffinity>
-6.54112053

>  <minimizedRMSD>
0.482598901

$$$$
