
 OpenBabel03252508543D

 42 45  0  0  1  0  0  0  0  0999 V2000
   43.2230   34.3260   40.5960 C   0  0  0  0  0  0  0  0  0  0  0  0
   43.1870   35.4520   40.0250 O   0  0  0  0  0  0  0  0  0  0  0  0
   41.8450   33.9240   40.4360 N   0  0  0  0  0  0  0  0  0  0  0  0
   41.3800   33.8060   39.0720 C   0  0  0  0  0  0  0  0  0  0  0  0
   40.6110   35.1140   38.8010 C   0  0  0  0  0  0  0  0  0  0  0  0
   39.9010   35.4600   40.1010 C   0  0  0  0  0  0  0  0  0  0  0  0
   39.5460   34.2040   40.9020 C   0  0  0  0  0  0  0  0  0  0  0  0
   40.8340   33.6150   41.4480 C   0  0  1  0  0  0  0  0  0  0  0  0
   40.6910   32.9360   38.9830 H   0  0  0  0  0  0  0  0  0  0  0  0
   42.1890   33.7430   38.3400 H   0  0  0  0  0  0  0  0  0  0  0  0
   41.3470   35.9090   38.5520 H   0  0  0  0  0  0  0  0  0  0  0  0
   39.8540   34.9540   38.0150 H   0  0  0  0  0  0  0  0  0  0  0  0
   39.0230   36.0830   39.9330 H   0  0  0  0  0  0  0  0  0  0  0  0
   40.5920   36.0580   40.7570 H   0  0  0  0  0  0  0  0  0  0  0  0
   39.0780   33.4710   40.2490 H   0  0  0  0  0  0  0  0  0  0  0  0
   38.9120   34.5760   41.7330 H   0  0  0  0  0  0  0  0  0  0  0  0
   41.1070   34.2370   42.3310 H   0  0  0  0  0  0  0  0  0  0  0  0
   40.7580   32.1860   41.7390 C   0  0  0  0  0  0  0  0  0  0  0  0
   39.6750   31.3320   41.5990 C   0  0  0  0  0  0  0  0  0  0  0  0
   38.6940   31.5950   41.2460 H   0  0  0  0  0  0  0  0  0  0  0  0
   40.1420   30.1000   42.0110 C   0  0  0  0  0  0  0  0  0  0  0  0
   39.5920   29.1670   42.0500 H   0  0  0  0  0  0  0  0  0  0  0  0
   41.4790   30.2870   42.3740 C   0  0  0  0  0  0  0  0  0  0  0  0
   42.1360   29.5040   42.7450 H   0  0  0  0  0  0  0  0  0  0  0  0
   41.8310   31.5580   42.2010 O   0  0  0  0  0  0  0  0  0  0  0  0
   44.2920   33.7000   41.1880 O   0  0  0  0  0  0  0  0  0  0  0  0
   45.6220   34.0060   40.9890 C   0  0  0  0  0  0  0  0  0  0  0  0
   46.3090   34.6380   42.0370 C   0  0  0  0  0  0  0  0  0  0  0  0
   47.6660   34.9340   41.7950 C   0  0  0  0  0  0  0  0  0  0  0  0
   48.2150   34.5930   40.5850 N   0  0  0  0  0  0  0  0  0  0  0  0
   47.5080   33.9970   39.6390 C   0  0  0  0  0  0  0  0  0  0  0  0
   46.2090   33.6940   39.8200 N   0  0  0  0  0  0  0  0  0  0  0  0
   48.2250   35.4200   42.5770 H   0  0  0  0  0  0  0  0  0  0  0  0
   47.9250   33.7200   38.6750 H   0  0  0  0  0  0  0  0  0  0  0  0
   45.6290   34.9490   43.2700 C   0  0  0  0  0  0  0  0  0  0  0  0
   45.0080   36.1770   43.4890 C   0  0  0  0  0  0  0  0  0  0  0  0
   44.4950   36.0520   44.7640 C   0  0  0  0  0  0  0  0  0  0  0  0
   44.7850   34.8350   45.2760 N   0  0  0  0  0  0  0  0  0  0  0  0
   45.4710   34.1840   44.3560 N   0  0  0  0  0  0  0  0  0  0  0  0
   44.9330   37.0340   42.8380 H   0  0  0  0  0  0  0  0  0  0  0  0
   43.9240   36.8190   45.3110 H   0  0  0  0  0  0  0  0  0  0  0  0
   44.5540   34.4050   46.2050 H   0  0  0  0  0  0  0  0  0  0  0  0
  1 26  1  0  0  0  0
  2  1  2  0  0  0  0
  3  1  1  0  0  0  0
  3  8  1  0  0  0  0
  4  3  1  0  0  0  0
  5  4  1  0  0  0  0
  5  6  1  0  0  0  0
  6 14  1  0  0  0  0
  6  7  1  0  0  0  0
  7  8  1  0  0  0  0
  7 16  1  0  0  0  0
  8 18  1  0  0  0  0
  8 17  1  1  0  0  0
  9  4  1  0  0  0  0
 10  4  1  0  0  0  0
 11  5  1  0  0  0  0
 12  5  1  0  0  0  0
 13  6  1  0  0  0  0
 15  7  1  0  0  0  0
 18 25  1  0  0  0  0
 19 18  2  0  0  0  0
 19 21  1  0  0  0  0
 20 19  1  0  0  0  0
 21 22  1  0  0  0  0
 21 23  2  0  0  0  0
 23 24  1  0  0  0  0
 25 23  1  0  0  0  0
 27 26  1  0  0  0  0
 27 28  1  0  0  0  0
 28 35  1  0  0  0  0
 29 28  2  0  0  0  0
 29 33  1  0  0  0  0
 30 29  1  0  0  0  0
 31 32  1  0  0  0  0
 31 30  2  0  0  0  0
 32 27  2  0  0  0  0
 34 31  1  0  0  0  0
 35 36  1  0  0  0  0
 35 39  2  0  0  0  0
 36 37  2  0  0  0  0
 37 38  1  0  0  0  0
 37 41  1  0  0  0  0
 38 42  1  0  0  0  0
 39 38  1  0  0  0  0
 40 36  1  0  0  0  0
M  END
>  <minimizedAffinity>
-6.56336403

>  <minimizedRMSD>
0.753104448

$$$$
