
 OpenBabel03252506563D

 37 41  0  0  0  0  0  0  0  0999 V2000
   47.1720   31.2960   45.1540 C   0  0  0  0  0  0  0  0  0  0  0  0
   46.8760   32.6520   45.1380 C   0  0  0  0  0  0  0  0  0  0  0  0
   46.3160   33.3080   46.2090 C   0  0  0  0  0  0  0  0  0  0  0  0
   46.0190   32.6110   47.3790 C   0  0  0  0  0  0  0  0  0  0  0  0
   45.4800   32.9080   48.5980 N   0  0  0  0  0  0  0  0  0  0  0  0
   45.4450   31.7750   49.3420 C   0  0  0  0  0  0  0  0  0  0  0  0
   45.9630   30.7860   48.5750 N   0  0  0  0  0  0  0  0  0  0  0  0
   46.3210   31.2730   47.3660 C   0  0  0  0  0  0  0  0  0  0  0  0
   46.8770   30.5890   46.3250 C   0  0  0  0  0  0  0  0  0  0  0  0
   47.6120   30.8050   44.3000 H   0  0  0  0  0  0  0  0  0  0  0  0
   46.0800   34.3710   46.2030 H   0  0  0  0  0  0  0  0  0  0  0  0
   45.1690   33.8760   48.8420 H   0  0  0  0  0  0  0  0  0  0  0  0
   45.0600   31.7590   50.3480 H   0  0  0  0  0  0  0  0  0  0  0  0
   46.5890   35.1210   42.4160 C   0  0  0  0  0  0  0  0  0  0  0  0
   47.7400   34.8620   41.6640 C   0  0  0  0  0  0  0  0  0  0  0  0
   48.6020   33.8510   42.0870 C   0  0  0  0  0  0  0  0  0  0  0  0
   48.2830   33.1530   43.2280 N   0  0  0  0  0  0  0  0  0  0  0  0
   47.1710   33.4240   43.9310 C   0  0  0  0  0  0  0  0  0  0  0  0
   46.3200   34.4010   43.5380 N   0  0  0  0  0  0  0  0  0  0  0  0
   45.9370   35.9120   42.0650 H   0  0  0  0  0  0  0  0  0  0  0  0
   48.0140   35.3920   40.7680 H   0  0  0  0  0  0  0  0  0  0  0  0
   49.5110   33.5720   41.5830 H   0  0  0  0  0  0  0  0  0  0  0  0
   47.1610   29.1540   46.4200 C   0  0  0  0  0  0  0  0  0  0  0  0
   48.3950   28.5890   46.2090 C   0  0  0  0  0  0  0  0  0  0  0  0
   48.1990   27.2180   46.4020 C   0  0  0  0  0  0  0  0  0  0  0  0
   46.8700   27.0360   46.7150 C   0  0  0  0  0  0  0  0  0  0  0  0
   46.2900   28.2380   46.7120 O   0  0  0  0  0  0  0  0  0  0  0  0
   49.3490   29.0330   45.9500 H   0  0  0  0  0  0  0  0  0  0  0  0
   48.8990   26.4000   46.3360 H   0  0  0  0  0  0  0  0  0  0  0  0
   46.1100   25.8250   47.0150 C   0  0  0  0  0  0  0  0  0  0  0  0
   44.7690   25.7150   46.6340 C   0  0  0  0  0  0  0  0  0  0  0  0
   44.1510   26.4540   46.1050 H   0  0  0  0  0  0  0  0  0  0  0  0
   44.2790   24.4860   47.0290 C   0  0  0  0  0  0  0  0  0  0  0  0
   43.3200   24.0120   46.9340 H   0  0  0  0  0  0  0  0  0  0  0  0
   45.3660   23.9000   47.6390 C   0  0  0  0  0  0  0  0  0  0  0  0
   45.5130   22.9470   48.1140 H   0  0  0  0  0  0  0  0  0  0  0  0
   46.4210   24.7020   47.6180 O   0  0  0  0  0  0  0  0  0  0  0  0
  1  9  1  0  0  0  0
  2  1  2  0  0  0  0
  2  3  1  0  0  0  0
  3  4  2  0  0  0  0
  4  5  1  0  0  0  0
  5 12  1  0  0  0  0
  5  6  1  0  0  0  0
  6 13  1  0  0  0  0
  7  6  2  0  0  0  0
  8  4  1  0  0  0  0
  8  7  1  0  0  0  0
  9 23  1  0  0  0  0
  9  8  2  0  0  0  0
 10  1  1  0  0  0  0
 11  3  1  0  0  0  0
 14 19  1  0  0  0  0
 15 16  1  0  0  0  0
 15 14  2  0  0  0  0
 16 17  2  0  0  0  0
 17 18  1  0  0  0  0
 18  2  1  0  0  0  0
 19 18  2  0  0  0  0
 20 14  1  0  0  0  0
 21 15  1  0  0  0  0
 22 16  1  0  0  0  0
 23 27  1  0  0  0  0
 24 25  1  0  0  0  0
 24 23  2  0  0  0  0
 25 26  2  0  0  0  0
 26 30  1  0  0  0  0
 27 26  1  0  0  0  0
 28 24  1  0  0  0  0
 29 25  1  0  0  0  0
 30 37  1  0  0  0  0
 31 30  2  0  0  0  0
 31 33  1  0  0  0  0
 32 31  1  0  0  0  0
 33 35  2  0  0  0  0
 34 33  1  0  0  0  0
 35 36  1  0  0  0  0
 37 35  1  0  0  0  0
M  END
>  <minimizedAffinity>
-5.53295088

>  <minimizedRMSD>
0.566107392

$$$$
