
 OpenBabel03252508543D

 42 45  0  0  1  0  0  0  0  0999 V2000
   43.2970   34.4370   40.7170 C   0  0  0  0  0  0  0  0  0  0  0  0
   43.2570   35.6010   40.2290 O   0  0  0  0  0  0  0  0  0  0  0  0
   41.9310   34.0260   40.4880 N   0  0  0  0  0  0  0  0  0  0  0  0
   41.5070   34.0010   39.1050 C   0  0  0  0  0  0  0  0  0  0  0  0
   40.7230   35.3140   38.9090 C   0  0  0  0  0  0  0  0  0  0  0  0
   39.9700   35.5510   40.2090 C   0  0  0  0  0  0  0  0  0  0  0  0
   39.6150   34.2330   40.9050 C   0  0  0  0  0  0  0  0  0  0  0  0
   40.8980   33.6270   41.4440 C   0  0  1  0  0  0  0  0  0  0  0  0
   40.8360   33.1290   38.9330 H   0  0  0  0  0  0  0  0  0  0  0  0
   42.3380   34.0050   38.3940 H   0  0  0  0  0  0  0  0  0  0  0  0
   41.4510   36.1370   38.7400 H   0  0  0  0  0  0  0  0  0  0  0  0
   39.9910   35.2000   38.0910 H   0  0  0  0  0  0  0  0  0  0  0  0
   39.0860   36.1710   40.0620 H   0  0  0  0  0  0  0  0  0  0  0  0
   40.6310   36.1100   40.9280 H   0  0  0  0  0  0  0  0  0  0  0  0
   39.1790   33.5440   40.1860 H   0  0  0  0  0  0  0  0  0  0  0  0
   38.9510   34.5330   41.7420 H   0  0  0  0  0  0  0  0  0  0  0  0
   41.1350   34.1860   42.3780 H   0  0  0  0  0  0  0  0  0  0  0  0
   40.8390   32.1790   41.6270 C   0  0  0  0  0  0  0  0  0  0  0  0
   41.8470   31.3160   42.0260 C   0  0  0  0  0  0  0  0  0  0  0  0
   42.8600   31.5840   42.2690 H   0  0  0  0  0  0  0  0  0  0  0  0
   41.2600   30.0670   42.0350 C   0  0  0  0  0  0  0  0  0  0  0  0
   41.7250   29.1240   42.2940 H   0  0  0  0  0  0  0  0  0  0  0  0
   39.9310   30.2540   41.6410 C   0  0  0  0  0  0  0  0  0  0  0  0
   39.1950   29.4590   41.5460 H   0  0  0  0  0  0  0  0  0  0  0  0
   39.6990   31.5410   41.4000 O   0  0  0  0  0  0  0  0  0  0  0  0
   44.3600   33.7850   41.2930 O   0  0  0  0  0  0  0  0  0  0  0  0
   45.6910   34.1090   41.1330 C   0  0  0  0  0  0  0  0  0  0  0  0
   46.3420   34.7370   42.2060 C   0  0  0  0  0  0  0  0  0  0  0  0
   47.7010   35.0510   42.0040 C   0  0  0  0  0  0  0  0  0  0  0  0
   48.2860   34.7310   40.8050 N   0  0  0  0  0  0  0  0  0  0  0  0
   47.6120   34.1390   39.8340 C   0  0  0  0  0  0  0  0  0  0  0  0
   46.3120   33.8180   39.9770 N   0  0  0  0  0  0  0  0  0  0  0  0
   48.2340   35.5340   42.8060 H   0  0  0  0  0  0  0  0  0  0  0  0
   48.0570   33.8790   38.8790 H   0  0  0  0  0  0  0  0  0  0  0  0
   45.6260   35.0250   43.4240 C   0  0  0  0  0  0  0  0  0  0  0  0
   44.9940   36.2460   43.6450 C   0  0  0  0  0  0  0  0  0  0  0  0
   44.4440   36.0990   44.9030 C   0  0  0  0  0  0  0  0  0  0  0  0
   44.7260   34.8750   45.4030 N   0  0  0  0  0  0  0  0  0  0  0  0
   45.4400   34.2420   44.4920 N   0  0  0  0  0  0  0  0  0  0  0  0
   44.9330   37.1140   43.0060 H   0  0  0  0  0  0  0  0  0  0  0  0
   43.8550   36.8550   45.4450 H   0  0  0  0  0  0  0  0  0  0  0  0
   44.4700   34.4290   46.3180 H   0  0  0  0  0  0  0  0  0  0  0  0
  1 26  1  0  0  0  0
  2  1  2  0  0  0  0
  3  1  1  0  0  0  0
  3  8  1  0  0  0  0
  4  3  1  0  0  0  0
  5  4  1  0  0  0  0
  5  6  1  0  0  0  0
  6  7  1  0  0  0  0
  6 14  1  0  0  0  0
  7  8  1  0  0  0  0
  7 16  1  0  0  0  0
  8 18  1  0  0  0  0
  8 17  1  1  0  0  0
  9  4  1  0  0  0  0
 10  4  1  0  0  0  0
 11  5  1  0  0  0  0
 12  5  1  0  0  0  0
 13  6  1  0  0  0  0
 15  7  1  0  0  0  0
 18 19  2  0  0  0  0
 19 21  1  0  0  0  0
 19 20  1  0  0  0  0
 21 22  1  0  0  0  0
 23 21  2  0  0  0  0
 24 23  1  0  0  0  0
 25 18  1  0  0  0  0
 25 23  1  0  0  0  0
 27 26  1  0  0  0  0
 27 28  1  0  0  0  0
 28 35  1  0  0  0  0
 29 28  2  0  0  0  0
 29 33  1  0  0  0  0
 30 29  1  0  0  0  0
 31 32  1  0  0  0  0
 31 30  2  0  0  0  0
 32 27  2  0  0  0  0
 34 31  1  0  0  0  0
 35 36  1  0  0  0  0
 35 39  2  0  0  0  0
 36 37  2  0  0  0  0
 37 38  1  0  0  0  0
 37 41  1  0  0  0  0
 38 42  1  0  0  0  0
 39 38  1  0  0  0  0
 40 36  1  0  0  0  0
M  END
>  <minimizedAffinity>
-6.5514636

>  <minimizedRMSD>
0.452080786

$$$$
