
 OpenBabel03252508233D

 47 50  0  0  0  0  0  0  0  0999 V2000
   45.6760   33.2070   38.9210 C   0  0  0  0  0  0  0  0  0  0  0  0
   46.2140   33.2300   37.6520 C   0  0  0  0  0  0  0  0  0  0  0  0
   47.4760   33.6860   37.3550 C   0  0  0  0  0  0  0  0  0  0  0  0
   48.2280   34.1480   38.4440 C   0  0  0  0  0  0  0  0  0  0  0  0
   47.7380   34.1450   39.7250 C   0  0  0  0  0  0  0  0  0  0  0  0
   46.4800   33.6820   39.9700 C   0  0  0  0  0  0  0  0  0  0  0  0
   45.7040   32.8830   36.7680 H   0  0  0  0  0  0  0  0  0  0  0  0
   47.9200   33.7150   36.3740 H   0  0  0  0  0  0  0  0  0  0  0  0
   49.2440   34.5240   38.2630 H   0  0  0  0  0  0  0  0  0  0  0  0
   48.3910   34.5200   40.5070 H   0  0  0  0  0  0  0  0  0  0  0  0
   46.0710   33.7160   41.3190 N   0  0  0  0  0  0  0  0  0  0  0  0
   45.4160   34.8330   41.9360 C   0  0  0  0  0  0  0  0  0  0  0  0
   44.6940   34.4160   43.1930 C   0  0  0  0  0  0  0  0  0  0  0  0
   44.0650   33.1410   43.1230 N   0  0  0  0  0  0  0  0  0  0  0  0
   44.9170   32.0830   42.7180 C   0  0  0  0  0  0  0  0  0  0  0  0
   46.2560   32.6250   42.2890 C   0  0  0  0  0  0  0  0  0  0  0  0
   44.8590   35.5060   41.2790 H   0  0  0  0  0  0  0  0  0  0  0  0
   46.2700   35.4730   42.3160 H   0  0  0  0  0  0  0  0  0  0  0  0
   43.8920   35.1840   43.3760 H   0  0  0  0  0  0  0  0  0  0  0  0
   45.3420   34.4550   44.1030 H   0  0  0  0  0  0  0  0  0  0  0  0
   43.6710   32.9390   44.0510 H   0  0  0  0  0  0  0  0  0  0  0  0
   44.4560   31.6150   41.8040 H   0  0  0  0  0  0  0  0  0  0  0  0
   45.0420   31.3340   43.4960 H   0  0  0  0  0  0  0  0  0  0  0  0
   46.7500   33.0280   43.2020 H   0  0  0  0  0  0  0  0  0  0  0  0
   46.8990   31.8180   41.8850 H   0  0  0  0  0  0  0  0  0  0  0  0
   44.3270   32.7310   39.2360 C   0  0  0  0  0  0  0  0  0  0  0  0
   44.2270   32.2610   40.2180 H   0  0  0  0  0  0  0  0  0  0  0  0
   44.0980   31.9310   38.4740 H   0  0  0  0  0  0  0  0  0  0  0  0
   43.2960   33.8300   39.0750 C   0  0  0  0  0  0  0  0  0  0  0  0
   42.8460   33.8020   38.0390 H   0  0  0  0  0  0  0  0  0  0  0  0
   43.6600   34.8360   39.2180 H   0  0  0  0  0  0  0  0  0  0  0  0
   40.2530   34.4020   41.2320 C   0  0  0  0  0  0  0  0  0  0  0  0
   41.3050   34.6530   40.3180 C   0  0  0  0  0  0  0  0  0  0  0  0
   42.1870   33.6080   40.0310 C   0  0  0  0  0  0  0  0  0  0  0  0
   41.9820   32.4060   40.6510 N   0  0  0  0  0  0  0  0  0  0  0  0
   40.9810   32.2000   41.5090 C   0  0  0  0  0  0  0  0  0  0  0  0
   40.1180   33.1950   41.8000 N   0  0  0  0  0  0  0  0  0  0  0  0
   39.5740   35.2170   41.4480 H   0  0  0  0  0  0  0  0  0  0  0  0
   41.4090   35.6190   39.8670 H   0  0  0  0  0  0  0  0  0  0  0  0
   40.9160   30.8530   42.0750 C   0  0  0  0  0  0  0  0  0  0  0  0
   41.1660   29.5650   41.6780 C   0  0  0  0  0  0  0  0  0  0  0  0
   41.5120   29.4570   40.6660 H   0  0  0  0  0  0  0  0  0  0  0  0
   40.8780   28.7460   42.7700 C   0  0  0  0  0  0  0  0  0  0  0  0
   41.0220   27.6780   42.6330 H   0  0  0  0  0  0  0  0  0  0  0  0
   40.4640   29.6050   43.7790 C   0  0  0  0  0  0  0  0  0  0  0  0
   40.1880   29.1670   44.7300 H   0  0  0  0  0  0  0  0  0  0  0  0
   40.4970   30.8340   43.3400 O   0  0  0  0  0  0  0  0  0  0  0  0
  1 26  1  0  0  0  0
  1  6  1  0  0  0  0
  2  1  2  0  0  0  0
  3  2  1  0  0  0  0
  3  4  2  0  0  0  0
  4  5  1  0  0  0  0
  5  6  2  0  0  0  0
  5 10  1  0  0  0  0
  6 11  1  0  0  0  0
  7  2  1  0  0  0  0
  8  3  1  0  0  0  0
  9  4  1  0  0  0  0
 11 12  1  0  0  0  0
 11 16  1  0  0  0  0
 12 18  1  0  0  0  0
 12 13  1  0  0  0  0
 13 19  1  0  0  0  0
 13 20  1  0  0  0  0
 14 13  1  0  0  0  0
 14 21  1  0  0  0  0
 15 14  1  0  0  0  0
 15 23  1  0  0  0  0
 16 15  1  0  0  0  0
 16 24  1  0  0  0  0
 17 12  1  0  0  0  0
 22 15  1  0  0  0  0
 25 16  1  0  0  0  0
 26 27  1  0  0  0  0
 28 26  1  0  0  0  0
 29 31  1  0  0  0  0
 29 26  1  0  0  0  0
 29 34  1  0  0  0  0
 30 29  1  0  0  0  0
 32 38  1  0  0  0  0
 32 37  1  0  0  0  0
 33 32  2  0  0  0  0
 34 33  1  0  0  0  0
 34 35  2  0  0  0  0
 35 36  1  0  0  0  0
 36 37  2  0  0  0  0
 36 40  1  0  0  0  0
 39 33  1  0  0  0  0
 40 47  1  0  0  0  0
 41 40  2  0  0  0  0
 41 43  1  0  0  0  0
 42 41  1  0  0  0  0
 43 45  2  0  0  0  0
 44 43  1  0  0  0  0
 45 46  1  0  0  0  0
 47 45  1  0  0  0  0
M  END
>  <minimizedAffinity>
-5.00620508

>  <minimizedRMSD>
2.80000567

$$$$
