
 OpenBabel03242512533D

 43 47  0  0  1  0  0  0  0  0999 V2000
   36.6060   29.9010   38.4860 N   0  0  0  0  0  0  0  0  0  0  0  0
   36.2490   29.4820   37.1250 C   0  0  0  0  0  0  0  0  0  0  0  0
   34.7880   29.1800   37.3870 C   0  0  0  0  0  0  0  0  0  0  0  0
   34.9050   28.2550   38.5710 C   0  0  0  0  0  0  0  0  0  0  0  0
   35.9880   28.9100   39.4070 C   0  0  1  0  0  0  0  0  0  0  0  0
   36.7830   28.5500   36.9020 H   0  0  0  0  0  0  0  0  0  0  0  0
   36.3940   30.3000   36.4170 H   0  0  0  0  0  0  0  0  0  0  0  0
   34.3460   30.1420   37.7560 H   0  0  0  0  0  0  0  0  0  0  0  0
   34.2520   28.7590   36.5370 H   0  0  0  0  0  0  0  0  0  0  0  0
   33.9360   28.2330   39.0810 H   0  0  0  0  0  0  0  0  0  0  0  0
   35.2270   27.2630   38.1780 H   0  0  0  0  0  0  0  0  0  0  0  0
   35.5200   29.5230   40.1240 H   0  0  0  0  0  0  0  0  0  0  0  0
   37.0630   28.0070   39.7690 C   0  0  0  0  0  0  0  0  0  0  0  0
   37.7230   27.2820   38.8330 N   0  0  0  0  0  0  0  0  0  0  0  0
   38.7250   26.4180   39.0910 C   0  0  0  0  0  0  0  0  0  0  0  0
   39.1100   26.2550   40.3670 N   0  0  0  0  0  0  0  0  0  0  0  0
   38.4970   26.9420   41.3320 C   0  0  0  0  0  0  0  0  0  0  0  0
   38.9390   26.7310   42.6260 C   0  0  0  0  0  0  0  0  0  0  0  0
   38.2940   27.4540   43.6240 C   0  0  0  0  0  0  0  0  0  0  0  0
   37.2540   28.3560   43.4180 C   0  0  0  0  0  0  0  0  0  0  0  0
   36.8830   28.4960   42.0960 C   0  0  0  0  0  0  0  0  0  0  0  0
   37.4600   27.8340   41.0710 C   0  0  0  0  0  0  0  0  0  0  0  0
   39.1960   25.8820   38.2810 H   0  0  0  0  0  0  0  0  0  0  0  0
   39.7390   26.0500   42.8750 H   0  0  0  0  0  0  0  0  0  0  0  0
   38.6620   27.2710   44.6370 H   0  0  0  0  0  0  0  0  0  0  0  0
   36.8170   28.8660   44.2430 H   0  0  0  0  0  0  0  0  0  0  0  0
   36.0640   29.1830   41.9760 H   0  0  0  0  0  0  0  0  0  0  0  0
   37.7740   32.9030   40.3330 C   0  0  0  0  0  0  0  0  0  0  0  0
   36.9530   31.8610   39.9450 C   0  0  0  0  0  0  0  0  0  0  0  0
   37.3620   30.9880   38.9490 C   0  0  0  0  0  0  0  0  0  0  0  0
   38.5810   31.1970   38.3830 N   0  0  0  0  0  0  0  0  0  0  0  0
   39.3940   32.2220   38.7590 C   0  0  0  0  0  0  0  0  0  0  0  0
   38.9790   33.0700   39.7370 N   0  0  0  0  0  0  0  0  0  0  0  0
   37.4600   33.5880   41.1090 H   0  0  0  0  0  0  0  0  0  0  0  0
   36.0150   31.7810   40.4180 H   0  0  0  0  0  0  0  0  0  0  0  0
   40.6810   32.3420   38.0740 C   0  0  0  0  0  0  0  0  0  0  0  0
   41.4640   31.4000   37.4410 C   0  0  0  0  0  0  0  0  0  0  0  0
   41.1780   30.3390   37.3730 H   0  0  0  0  0  0  0  0  0  0  0  0
   42.5750   32.1120   36.9780 C   0  0  0  0  0  0  0  0  0  0  0  0
   43.3440   31.5750   36.4390 H   0  0  0  0  0  0  0  0  0  0  0  0
   42.3930   33.4430   37.3620 C   0  0  0  0  0  0  0  0  0  0  0  0
   43.1960   34.0920   37.0570 H   0  0  0  0  0  0  0  0  0  0  0  0
   41.2610   33.5230   38.0040 O   0  0  0  0  0  0  0  0  0  0  0  0
  1 30  1  0  0  0  0
  1  5  1  0  0  0  0
  2  3  1  0  0  0  0
  2  1  1  0  0  0  0
  3  8  1  0  0  0  0
  3  4  1  0  0  0  0
  4 10  1  0  0  0  0
  4  5  1  0  0  0  0
  5 13  1  0  0  0  0
  5 12  1  1  0  0  0
  6  2  1  0  0  0  0
  7  2  1  0  0  0  0
  9  3  1  0  0  0  0
 11  4  1  0  0  0  0
 13 22  1  0  0  0  0
 14 15  1  0  0  0  0
 14 13  2  0  0  0  0
 15 16  2  0  0  0  0
 16 17  1  0  0  0  0
 17 18  1  0  0  0  0
 18 24  1  0  0  0  0
 18 19  2  0  0  0  0
 19 25  1  0  0  0  0
 20 19  1  0  0  0  0
 20 26  1  0  0  0  0
 21 20  2  0  0  0  0
 22 17  2  0  0  0  0
 22 21  1  0  0  0  0
 23 15  1  0  0  0  0
 27 21  1  0  0  0  0
 28 34  1  0  0  0  0
 29 28  1  0  0  0  0
 29 35  1  0  0  0  0
 30 29  2  0  0  0  0
 31 32  2  0  0  0  0
 31 30  1  0  0  0  0
 32 33  1  0  0  0  0
 33 28  2  0  0  0  0
 36 32  1  0  0  0  0
 37 36  2  0  0  0  0
 38 37  1  0  0  0  0
 39 41  2  0  0  0  0
 39 37  1  0  0  0  0
 40 39  1  0  0  0  0
 41 43  1  0  0  0  0
 42 41  1  0  0  0  0
 43 36  1  0  0  0  0
M  END
>  <minimizedAffinity>
-6.12960529

$$$$

 OpenBabel03242512533D

 43 47  0  0  1  0  0  0  0  0999 V2000
   37.0120   30.1820   38.6240 N   0  0  0  0  0  0  0  0  0  0  0  0
   36.8690   29.8830   37.1940 C   0  0  0  0  0  0  0  0  0  0  0  0
   35.4360   29.3950   37.2360 C   0  0  0  0  0  0  0  0  0  0  0  0
   35.5260   28.3620   38.3290 C   0  0  0  0  0  0  0  0  0  0  0  0
   36.4170   29.0330   39.3570 C   0  0  1  0  0  0  0  0  0  0  0  0
   37.5350   29.0450   36.9510 H   0  0  0  0  0  0  0  0  0  0  0  0
   36.9950   30.7850   36.5950 H   0  0  0  0  0  0  0  0  0  0  0  0
   34.8390   30.2560   37.6380 H   0  0  0  0  0  0  0  0  0  0  0  0
   35.0560   29.0170   36.2870 H   0  0  0  0  0  0  0  0  0  0  0  0
   34.5140   28.1770   38.7050 H   0  0  0  0  0  0  0  0  0  0  0  0
   36.0090   27.4610   37.8840 H   0  0  0  0  0  0  0  0  0  0  0  0
   35.7980   29.5060   40.0640 H   0  0  0  0  0  0  0  0  0  0  0  0
   37.5440   28.2170   39.7630 C   0  0  0  0  0  0  0  0  0  0  0  0
   38.3720   27.6500   38.8520 N   0  0  0  0  0  0  0  0  0  0  0  0
   39.4340   26.8750   39.1510 C   0  0  0  0  0  0  0  0  0  0  0  0
   39.7040   26.6390   40.4440 N   0  0  0  0  0  0  0  0  0  0  0  0
   38.9240   27.1710   41.3860 C   0  0  0  0  0  0  0  0  0  0  0  0
   39.2550   26.8930   42.7000 C   0  0  0  0  0  0  0  0  0  0  0  0
   38.4360   27.4530   43.6750 C   0  0  0  0  0  0  0  0  0  0  0  0
   37.3270   28.2570   43.4270 C   0  0  0  0  0  0  0  0  0  0  0  0
   37.0780   28.4760   42.0870 C   0  0  0  0  0  0  0  0  0  0  0  0
   37.8260   27.9700   41.0830 C   0  0  0  0  0  0  0  0  0  0  0  0
   40.0410   26.4640   38.3580 H   0  0  0  0  0  0  0  0  0  0  0  0
   40.0980   26.2780   42.9830 H   0  0  0  0  0  0  0  0  0  0  0  0
   38.7180   27.2200   44.7050 H   0  0  0  0  0  0  0  0  0  0  0  0
   36.7540   28.6440   44.2360 H   0  0  0  0  0  0  0  0  0  0  0  0
   36.2030   29.0820   41.9320 H   0  0  0  0  0  0  0  0  0  0  0  0
   37.7220   33.6060   39.8730 C   0  0  0  0  0  0  0  0  0  0  0  0
   37.1000   32.5850   39.1780 C   0  0  0  0  0  0  0  0  0  0  0  0
   37.5720   31.2860   39.2850 C   0  0  0  0  0  0  0  0  0  0  0  0
   38.6480   31.0640   40.0850 N   0  0  0  0  0  0  0  0  0  0  0  0
   39.2660   32.0650   40.7710 C   0  0  0  0  0  0  0  0  0  0  0  0
   38.7920   33.3340   40.6580 N   0  0  0  0  0  0  0  0  0  0  0  0
   37.3580   34.6220   39.7950 H   0  0  0  0  0  0  0  0  0  0  0  0
   36.2850   32.8440   38.5640 H   0  0  0  0  0  0  0  0  0  0  0  0
   40.4150   31.7000   41.5990 C   0  0  0  0  0  0  0  0  0  0  0  0
   40.5550   30.7530   42.5920 C   0  0  0  0  0  0  0  0  0  0  0  0
   39.7290   30.0960   42.9060 H   0  0  0  0  0  0  0  0  0  0  0  0
   41.8830   30.8710   43.0130 C   0  0  0  0  0  0  0  0  0  0  0  0
   42.2340   30.2190   43.8010 H   0  0  0  0  0  0  0  0  0  0  0  0
   42.4640   31.8840   42.2460 C   0  0  0  0  0  0  0  0  0  0  0  0
   43.4970   32.0670   42.4860 H   0  0  0  0  0  0  0  0  0  0  0  0
   41.5550   32.3390   41.4290 O   0  0  0  0  0  0  0  0  0  0  0  0
  1 30  1  0  0  0  0
  1  5  1  0  0  0  0
  2  3  1  0  0  0  0
  2  1  1  0  0  0  0
  3  8  1  0  0  0  0
  3  4  1  0  0  0  0
  4 10  1  0  0  0  0
  4  5  1  0  0  0  0
  5 13  1  0  0  0  0
  5 12  1  1  0  0  0
  6  2  1  0  0  0  0
  7  2  1  0  0  0  0
  9  3  1  0  0  0  0
 11  4  1  0  0  0  0
 13 22  1  0  0  0  0
 14 15  1  0  0  0  0
 14 13  2  0  0  0  0
 15 16  2  0  0  0  0
 16 17  1  0  0  0  0
 17 18  1  0  0  0  0
 18 24  1  0  0  0  0
 18 19  2  0  0  0  0
 19 25  1  0  0  0  0
 20 19  1  0  0  0  0
 20 26  1  0  0  0  0
 21 20  2  0  0  0  0
 22 17  2  0  0  0  0
 22 21  1  0  0  0  0
 23 15  1  0  0  0  0
 27 21  1  0  0  0  0
 28 33  1  0  0  0  0
 29 30  1  0  0  0  0
 29 28  2  0  0  0  0
 30 31  2  0  0  0  0
 31 32  1  0  0  0  0
 32 36  1  0  0  0  0
 33 32  2  0  0  0  0
 34 28  1  0  0  0  0
 35 29  1  0  0  0  0
 36 37  2  0  0  0  0
 37 38  1  0  0  0  0
 37 39  1  0  0  0  0
 39 40  1  0  0  0  0
 41 42  1  0  0  0  0
 41 39  2  0  0  0  0
 43 36  1  0  0  0  0
 43 41  1  0  0  0  0
M  END
>  <minimizedAffinity>
-6.01150846

$$$$

 OpenBabel03242512533D

 43 47  0  0  1  0  0  0  0  0999 V2000
   40.5630   29.1070   42.4320 N   0  0  0  0  0  0  0  0  0  0  0  0
   41.9360   28.6050   42.5600 C   0  0  0  0  0  0  0  0  0  0  0  0
   42.5160   29.7990   43.2910 C   0  0  0  0  0  0  0  0  0  0  0  0
   42.0870   30.9180   42.3770 C   0  0  0  0  0  0  0  0  0  0  0  0
   40.6710   30.5260   42.0030 C   0  0  1  0  0  0  0  0  0  0  0  0
   42.3730   28.5420   41.5550 H   0  0  0  0  0  0  0  0  0  0  0  0
   41.9610   27.6900   43.1530 H   0  0  0  0  0  0  0  0  0  0  0  0
   41.9170   29.8900   44.2350 H   0  0  0  0  0  0  0  0  0  0  0  0
   43.5900   29.7460   43.4670 H   0  0  0  0  0  0  0  0  0  0  0  0
   42.1300   31.8540   42.9440 H   0  0  0  0  0  0  0  0  0  0  0  0
   42.7710   30.8970   41.4960 H   0  0  0  0  0  0  0  0  0  0  0  0
   40.0130   31.0170   42.6630 H   0  0  0  0  0  0  0  0  0  0  0  0
   40.4350   30.5100   40.5730 C   0  0  0  0  0  0  0  0  0  0  0  0
   41.2970   29.9020   39.7210 N   0  0  0  0  0  0  0  0  0  0  0  0
   41.1510   29.8500   38.3820 C   0  0  0  0  0  0  0  0  0  0  0  0
   40.0760   30.4400   37.8370 N   0  0  0  0  0  0  0  0  0  0  0  0
   39.1930   31.0550   38.6250 C   0  0  0  0  0  0  0  0  0  0  0  0
   38.1050   31.6440   38.0050 C   0  0  0  0  0  0  0  0  0  0  0  0
   37.1900   32.2810   38.8360 C   0  0  0  0  0  0  0  0  0  0  0  0
   37.2890   32.3680   40.2220 C   0  0  0  0  0  0  0  0  0  0  0  0
   38.4080   31.7530   40.7470 C   0  0  0  0  0  0  0  0  0  0  0  0
   39.3390   31.1130   40.0080 C   0  0  0  0  0  0  0  0  0  0  0  0
   41.8880   29.3420   37.7790 H   0  0  0  0  0  0  0  0  0  0  0  0
   37.9500   31.6240   36.9360 H   0  0  0  0  0  0  0  0  0  0  0  0
   36.3400   32.7370   38.3230 H   0  0  0  0  0  0  0  0  0  0  0  0
   36.5410   32.8770   40.7810 H   0  0  0  0  0  0  0  0  0  0  0  0
   38.4630   31.8580   41.8150 H   0  0  0  0  0  0  0  0  0  0  0  0
   37.0970   28.3280   43.5150 C   0  0  0  0  0  0  0  0  0  0  0  0
   38.2800   29.0290   43.3650 C   0  0  0  0  0  0  0  0  0  0  0  0
   39.3260   28.4770   42.6430 C   0  0  0  0  0  0  0  0  0  0  0  0
   39.1450   27.2440   42.1020 N   0  0  0  0  0  0  0  0  0  0  0  0
   37.9840   26.5470   42.2460 C   0  0  0  0  0  0  0  0  0  0  0  0
   36.9650   27.1000   42.9560 N   0  0  0  0  0  0  0  0  0  0  0  0
   36.2760   28.7530   44.0770 H   0  0  0  0  0  0  0  0  0  0  0  0
   38.3470   29.9700   43.8340 H   0  0  0  0  0  0  0  0  0  0  0  0
   37.9100   25.2290   41.6170 C   0  0  0  0  0  0  0  0  0  0  0  0
   36.8530   24.3570   41.4560 C   0  0  0  0  0  0  0  0  0  0  0  0
   35.8390   24.5800   41.8220 H   0  0  0  0  0  0  0  0  0  0  0  0
   37.3950   23.2610   40.7790 C   0  0  0  0  0  0  0  0  0  0  0  0
   36.7440   22.4310   40.5360 H   0  0  0  0  0  0  0  0  0  0  0  0
   38.7480   23.5380   40.5730 C   0  0  0  0  0  0  0  0  0  0  0  0
   39.2750   22.7550   40.0560 H   0  0  0  0  0  0  0  0  0  0  0  0
   38.9990   24.7110   41.0860 O   0  0  0  0  0  0  0  0  0  0  0  0
  1  2  1  0  0  0  0
  1 30  1  0  0  0  0
  2  7  1  0  0  0  0
  2  3  1  0  0  0  0
  3  9  1  0  0  0  0
  3  8  1  0  0  0  0
  4 10  1  0  0  0  0
  4  3  1  0  0  0  0
  5  4  1  0  0  0  0
  5  1  1  0  0  0  0
  5 12  1  1  0  0  0
  6  2  1  0  0  0  0
 11  4  1  0  0  0  0
 13  5  1  0  0  0  0
 14 13  2  0  0  0  0
 15 14  1  0  0  0  0
 16 15  2  0  0  0  0
 16 17  1  0  0  0  0
 17 22  1  0  0  0  0
 18 17  2  0  0  0  0
 18 19  1  0  0  0  0
 19 20  2  0  0  0  0
 20 21  1  0  0  0  0
 20 26  1  0  0  0  0
 21 27  1  0  0  0  0
 22 13  1  0  0  0  0
 22 21  2  0  0  0  0
 23 15  1  0  0  0  0
 24 18  1  0  0  0  0
 25 19  1  0  0  0  0
 28 34  1  0  0  0  0
 29 28  1  0  0  0  0
 29 35  1  0  0  0  0
 30 29  2  0  0  0  0
 31 32  2  0  0  0  0
 31 30  1  0  0  0  0
 32 33  1  0  0  0  0
 33 28  2  0  0  0  0
 36 32  1  0  0  0  0
 37 36  2  0  0  0  0
 37 38  1  0  0  0  0
 39 37  1  0  0  0  0
 40 39  1  0  0  0  0
 41 39  2  0  0  0  0
 41 43  1  0  0  0  0
 42 41  1  0  0  0  0
 43 36  1  0  0  0  0
M  END
>  <minimizedAffinity>
-5.81985569

$$$$

 OpenBabel03242512533D

 43 47  0  0  1  0  0  0  0  0999 V2000
   36.8080   28.7430   37.7430 N   0  0  0  0  0  0  0  0  0  0  0  0
   36.0920   28.1340   36.6160 C   0  0  0  0  0  0  0  0  0  0  0  0
   34.7670   28.8420   36.8170 C   0  0  0  0  0  0  0  0  0  0  0  0
   34.5080   28.5370   38.2700 C   0  0  0  0  0  0  0  0  0  0  0  0
   35.8760   28.7100   38.9020 C   0  0  1  0  0  0  0  0  0  0  0  0
   35.9710   27.0640   36.8240 H   0  0  0  0  0  0  0  0  0  0  0  0
   36.5710   28.3880   35.6690 H   0  0  0  0  0  0  0  0  0  0  0  0
   35.0000   29.9370   36.7410 H   0  0  0  0  0  0  0  0  0  0  0  0
   33.9750   28.5240   36.1400 H   0  0  0  0  0  0  0  0  0  0  0  0
   33.7770   29.2620   38.6430 H   0  0  0  0  0  0  0  0  0  0  0  0
   34.1570   27.4810   38.3220 H   0  0  0  0  0  0  0  0  0  0  0  0
   35.9400   29.6920   39.2760 H   0  0  0  0  0  0  0  0  0  0  0  0
   36.2940   27.5700   39.6930 C   0  0  0  0  0  0  0  0  0  0  0  0
   36.1920   26.3040   39.2190 N   0  0  0  0  0  0  0  0  0  0  0  0
   36.5520   25.1950   39.8960 C   0  0  0  0  0  0  0  0  0  0  0  0
   37.0510   25.3400   41.1330 N   0  0  0  0  0  0  0  0  0  0  0  0
   37.1750   26.5620   41.6540 C   0  0  0  0  0  0  0  0  0  0  0  0
   37.6970   26.6470   42.9320 C   0  0  0  0  0  0  0  0  0  0  0  0
   37.8230   27.9260   43.4640 C   0  0  0  0  0  0  0  0  0  0  0  0
   37.4680   29.1050   42.8150 C   0  0  0  0  0  0  0  0  0  0  0  0
   36.9560   28.9170   41.5460 C   0  0  0  0  0  0  0  0  0  0  0  0
   36.8040   27.7110   40.9600 C   0  0  0  0  0  0  0  0  0  0  0  0
   36.4360   24.2240   39.4390 H   0  0  0  0  0  0  0  0  0  0  0  0
   37.9990   25.7840   43.5070 H   0  0  0  0  0  0  0  0  0  0  0  0
   38.2390   27.9670   44.4740 H   0  0  0  0  0  0  0  0  0  0  0  0
   37.5980   30.0430   43.2990 H   0  0  0  0  0  0  0  0  0  0  0  0
   36.6710   29.8450   41.0840 H   0  0  0  0  0  0  0  0  0  0  0  0
   40.4630   29.3130   37.4210 C   0  0  0  0  0  0  0  0  0  0  0  0
   39.2310   28.7020   37.2770 C   0  0  0  0  0  0  0  0  0  0  0  0
   38.1010   29.2800   37.8340 C   0  0  0  0  0  0  0  0  0  0  0  0
   38.2530   30.4490   38.5110 N   0  0  0  0  0  0  0  0  0  0  0  0
   39.4630   31.0560   38.6580 C   0  0  0  0  0  0  0  0  0  0  0  0
   40.5630   30.4770   38.1060 N   0  0  0  0  0  0  0  0  0  0  0  0
   41.3490   28.8670   36.9890 H   0  0  0  0  0  0  0  0  0  0  0  0
   39.2020   27.7870   36.7560 H   0  0  0  0  0  0  0  0  0  0  0  0
   39.4980   32.3100   39.4090 C   0  0  0  0  0  0  0  0  0  0  0  0
   38.5840   32.8760   40.2740 C   0  0  0  0  0  0  0  0  0  0  0  0
   37.6250   32.3960   40.5200 H   0  0  0  0  0  0  0  0  0  0  0  0
   39.1740   34.0760   40.6800 C   0  0  0  0  0  0  0  0  0  0  0  0
   38.6340   34.7080   41.3730 H   0  0  0  0  0  0  0  0  0  0  0  0
   40.4100   34.1610   40.0340 C   0  0  0  0  0  0  0  0  0  0  0  0
   40.9600   35.0550   40.2720 H   0  0  0  0  0  0  0  0  0  0  0  0
   40.5510   33.0940   39.2980 O   0  0  0  0  0  0  0  0  0  0  0  0
  1 30  1  0  0  0  0
  1  5  1  0  0  0  0
  2  3  1  0  0  0  0
  2  6  1  0  0  0  0
  2  1  1  0  0  0  0
  3  4  1  0  0  0  0
  4 11  1  0  0  0  0
  4 10  1  0  0  0  0
  4  5  1  0  0  0  0
  5 12  1  1  0  0  0
  5 13  1  0  0  0  0
  7  2  1  0  0  0  0
  8  3  1  0  0  0  0
  9  3  1  0  0  0  0
 13 22  1  0  0  0  0
 14 13  2  0  0  0  0
 14 15  1  0  0  0  0
 15 16  2  0  0  0  0
 16 17  1  0  0  0  0
 17 18  1  0  0  0  0
 18 19  2  0  0  0  0
 18 24  1  0  0  0  0
 19 25  1  0  0  0  0
 20 26  1  0  0  0  0
 20 19  1  0  0  0  0
 21 20  2  0  0  0  0
 22 21  1  0  0  0  0
 22 17  2  0  0  0  0
 23 15  1  0  0  0  0
 27 21  1  0  0  0  0
 28 33  1  0  0  0  0
 29 28  2  0  0  0  0
 29 30  1  0  0  0  0
 30 31  2  0  0  0  0
 31 32  1  0  0  0  0
 32 36  1  0  0  0  0
 33 32  2  0  0  0  0
 34 28  1  0  0  0  0
 35 29  1  0  0  0  0
 36 37  2  0  0  0  0
 37 38  1  0  0  0  0
 37 39  1  0  0  0  0
 39 40  1  0  0  0  0
 41 42  1  0  0  0  0
 41 39  2  0  0  0  0
 43 36  1  0  0  0  0
 43 41  1  0  0  0  0
M  END
>  <minimizedAffinity>
-5.77916002

$$$$

 OpenBabel03242512533D

 43 47  0  0  1  0  0  0  0  0999 V2000
   37.7180   27.7860   40.7120 N   0  0  0  0  0  0  0  0  0  0  0  0
   38.2360   26.6470   41.4800 C   0  0  0  0  0  0  0  0  0  0  0  0
   37.1200   26.5730   42.5010 C   0  0  0  0  0  0  0  0  0  0  0  0
   37.0920   27.9990   42.9850 C   0  0  0  0  0  0  0  0  0  0  0  0
   37.2670   28.7950   41.7060 C   0  0  1  0  0  0  0  0  0  0  0  0
   39.1640   26.9600   41.9730 H   0  0  0  0  0  0  0  0  0  0  0  0
   38.3020   25.7550   40.8550 H   0  0  0  0  0  0  0  0  0  0  0  0
   36.1830   26.4030   41.9070 H   0  0  0  0  0  0  0  0  0  0  0  0
   37.2710   25.8320   43.2860 H   0  0  0  0  0  0  0  0  0  0  0  0
   36.1220   28.1760   43.4630 H   0  0  0  0  0  0  0  0  0  0  0  0
   37.9580   28.1250   43.6750 H   0  0  0  0  0  0  0  0  0  0  0  0
   36.3110   29.0570   41.3520 H   0  0  0  0  0  0  0  0  0  0  0  0
   38.3400   29.7670   41.7740 C   0  0  0  0  0  0  0  0  0  0  0  0
   39.4860   29.5090   42.4530 N   0  0  0  0  0  0  0  0  0  0  0  0
   40.5230   30.3630   42.5670 C   0  0  0  0  0  0  0  0  0  0  0  0
   40.4290   31.5600   41.9690 N   0  0  0  0  0  0  0  0  0  0  0  0
   39.3260   31.8710   41.2870 C   0  0  0  0  0  0  0  0  0  0  0  0
   39.2890   33.1190   40.6920 C   0  0  0  0  0  0  0  0  0  0  0  0
   38.1350   33.4310   39.9820 C   0  0  0  0  0  0  0  0  0  0  0  0
   37.0330   32.5940   39.8310 C   0  0  0  0  0  0  0  0  0  0  0  0
   37.1640   31.3720   40.4620 C   0  0  0  0  0  0  0  0  0  0  0  0
   38.2510   30.9940   41.1670 C   0  0  0  0  0  0  0  0  0  0  0  0
   41.3990   30.0730   43.1280 H   0  0  0  0  0  0  0  0  0  0  0  0
   40.0990   33.8310   40.7580 H   0  0  0  0  0  0  0  0  0  0  0  0
   38.1310   34.4220   39.5200 H   0  0  0  0  0  0  0  0  0  0  0  0
   36.1890   32.9150   39.2700 H   0  0  0  0  0  0  0  0  0  0  0  0
   36.2870   30.7610   40.3440 H   0  0  0  0  0  0  0  0  0  0  0  0
   38.4770   28.1800   37.0980 C   0  0  0  0  0  0  0  0  0  0  0  0
   38.6840   27.9610   38.4480 C   0  0  0  0  0  0  0  0  0  0  0  0
   37.6140   27.9960   39.3280 C   0  0  0  0  0  0  0  0  0  0  0  0
   36.3790   28.2480   38.8180 N   0  0  0  0  0  0  0  0  0  0  0  0
   36.1680   28.4650   37.4910 C   0  0  0  0  0  0  0  0  0  0  0  0
   37.2270   28.4280   36.6390 N   0  0  0  0  0  0  0  0  0  0  0  0
   39.3080   28.1540   36.4060 H   0  0  0  0  0  0  0  0  0  0  0  0
   39.6740   27.7930   38.7650 H   0  0  0  0  0  0  0  0  0  0  0  0
   34.7940   28.7270   37.0650 C   0  0  0  0  0  0  0  0  0  0  0  0
   33.6260   28.8500   37.7890 C   0  0  0  0  0  0  0  0  0  0  0  0
   33.5950   28.7530   38.8850 H   0  0  0  0  0  0  0  0  0  0  0  0
   32.6380   29.0990   36.8320 C   0  0  0  0  0  0  0  0  0  0  0  0
   31.6180   29.2330   37.1670 H   0  0  0  0  0  0  0  0  0  0  0  0
   33.2710   29.1120   35.5870 C   0  0  0  0  0  0  0  0  0  0  0  0
   32.6010   29.2970   34.7650 H   0  0  0  0  0  0  0  0  0  0  0  0
   34.5410   28.8880   35.7810 O   0  0  0  0  0  0  0  0  0  0  0  0
  1  2  1  0  0  0  0
  1  5  1  0  0  0  0
  2  6  1  0  0  0  0
  2  3  1  0  0  0  0
  3  4  1  0  0  0  0
  3  9  1  0  0  0  0
  4 10  1  0  0  0  0
  4 11  1  0  0  0  0
  5 12  1  6  0  0  0
  5 13  1  0  0  0  0
  5  4  1  0  0  0  0
  7  2  1  0  0  0  0
  8  3  1  0  0  0  0
 13 14  1  0  0  0  0
 14 15  2  0  0  0  0
 15 23  1  0  0  0  0
 16 15  1  0  0  0  0
 17 16  2  0  0  0  0
 18 24  1  0  0  0  0
 18 17  1  0  0  0  0
 19 18  2  0  0  0  0
 20 19  1  0  0  0  0
 20 21  2  0  0  0  0
 21 22  1  0  0  0  0
 22 17  1  0  0  0  0
 22 13  2  0  0  0  0
 25 19  1  0  0  0  0
 26 20  1  0  0  0  0
 27 21  1  0  0  0  0
 28 29  1  0  0  0  0
 29 35  1  0  0  0  0
 29 30  2  0  0  0  0
 30  1  1  0  0  0  0
 31 30  1  0  0  0  0
 32 31  2  0  0  0  0
 33 28  2  0  0  0  0
 33 32  1  0  0  0  0
 34 28  1  0  0  0  0
 36 32  1  0  0  0  0
 36 37  2  0  0  0  0
 37 38  1  0  0  0  0
 39 40  1  0  0  0  0
 39 37  1  0  0  0  0
 41 43  1  0  0  0  0
 41 39  2  0  0  0  0
 42 41  1  0  0  0  0
 43 36  1  0  0  0  0
M  END
>  <minimizedAffinity>
-5.7663002

$$$$

 OpenBabel03242512533D

 43 47  0  0  1  0  0  0  0  0999 V2000
   36.8060   29.2500   38.1970 N   0  0  0  0  0  0  0  0  0  0  0  0
   36.2430   28.7330   36.9440 C   0  0  0  0  0  0  0  0  0  0  0  0
   34.7910   29.0560   37.2310 C   0  0  0  0  0  0  0  0  0  0  0  0
   34.6260   28.4100   38.5820 C   0  0  0  0  0  0  0  0  0  0  0  0
   35.9200   28.7660   39.2880 C   0  0  1  0  0  0  0  0  0  0  0  0
   36.3810   27.6450   36.9290 H   0  0  0  0  0  0  0  0  0  0  0  0
   36.6390   29.2790   36.0860 H   0  0  0  0  0  0  0  0  0  0  0  0
   34.7570   30.1670   37.3840 H   0  0  0  0  0  0  0  0  0  0  0  0
   34.0890   28.7050   36.4740 H   0  0  0  0  0  0  0  0  0  0  0  0
   33.7470   28.8520   39.0640 H   0  0  0  0  0  0  0  0  0  0  0  0
   34.5350   27.3130   38.4080 H   0  0  0  0  0  0  0  0  0  0  0  0
   35.7530   29.6380   39.8530 H   0  0  0  0  0  0  0  0  0  0  0  0
   36.6040   27.6190   39.8520 C   0  0  0  0  0  0  0  0  0  0  0  0
   36.7880   26.4830   39.1350 N   0  0  0  0  0  0  0  0  0  0  0  0
   37.4070   25.3750   39.5910 C   0  0  0  0  0  0  0  0  0  0  0  0
   37.8810   25.3830   40.8460 N   0  0  0  0  0  0  0  0  0  0  0  0
   37.7280   26.4730   41.6000 C   0  0  0  0  0  0  0  0  0  0  0  0
   38.2390   26.4210   42.8850 C   0  0  0  0  0  0  0  0  0  0  0  0
   38.0760   27.5630   43.6610 C   0  0  0  0  0  0  0  0  0  0  0  0
   37.4470   28.7330   43.2470 C   0  0  0  0  0  0  0  0  0  0  0  0
   36.9690   28.6880   41.9520 C   0  0  0  0  0  0  0  0  0  0  0  0
   37.0900   27.6190   41.1350 C   0  0  0  0  0  0  0  0  0  0  0  0
   37.5100   24.5140   38.9480 H   0  0  0  0  0  0  0  0  0  0  0  0
   38.7430   25.5540   43.2880 H   0  0  0  0  0  0  0  0  0  0  0  0
   38.4890   27.4970   44.6710 H   0  0  0  0  0  0  0  0  0  0  0  0
   37.3650   29.5620   43.9090 H   0  0  0  0  0  0  0  0  0  0  0  0
   36.4700   29.5980   41.6730 H   0  0  0  0  0  0  0  0  0  0  0  0
   39.1360   31.8260   39.5110 C   0  0  0  0  0  0  0  0  0  0  0  0
   37.9700   31.1020   39.3380 C   0  0  0  0  0  0  0  0  0  0  0  0
   37.9350   30.0460   38.4430 C   0  0  0  0  0  0  0  0  0  0  0  0
   39.0730   29.7570   37.7560 N   0  0  0  0  0  0  0  0  0  0  0  0
   40.2240   30.4660   37.9190 C   0  0  0  0  0  0  0  0  0  0  0  0
   40.2430   31.5000   38.8020 N   0  0  0  0  0  0  0  0  0  0  0  0
   39.1690   32.6520   40.2090 H   0  0  0  0  0  0  0  0  0  0  0  0
   37.1270   31.4040   39.8930 H   0  0  0  0  0  0  0  0  0  0  0  0
   41.3800   30.0600   37.1220 C   0  0  0  0  0  0  0  0  0  0  0  0
   41.7850   28.8180   36.6760 C   0  0  0  0  0  0  0  0  0  0  0  0
   41.2220   27.8970   36.8940 H   0  0  0  0  0  0  0  0  0  0  0  0
   42.9630   29.0620   35.9640 C   0  0  0  0  0  0  0  0  0  0  0  0
   43.4740   28.2230   35.5110 H   0  0  0  0  0  0  0  0  0  0  0  0
   43.1970   30.4370   36.0240 C   0  0  0  0  0  0  0  0  0  0  0  0
   44.0880   30.7460   35.5050 H   0  0  0  0  0  0  0  0  0  0  0  0
   42.2350   30.9780   36.7180 O   0  0  0  0  0  0  0  0  0  0  0  0
  1 30  1  0  0  0  0
  1  5  1  0  0  0  0
  2  3  1  0  0  0  0
  2  1  1  0  0  0  0
  3  8  1  0  0  0  0
  3  4  1  0  0  0  0
  4 10  1  0  0  0  0
  4  5  1  0  0  0  0
  5 13  1  0  0  0  0
  5 12  1  1  0  0  0
  6  2  1  0  0  0  0
  7  2  1  0  0  0  0
  9  3  1  0  0  0  0
 11  4  1  0  0  0  0
 13 22  1  0  0  0  0
 14 15  1  0  0  0  0
 14 13  2  0  0  0  0
 15 16  2  0  0  0  0
 16 17  1  0  0  0  0
 17 18  1  0  0  0  0
 18 24  1  0  0  0  0
 18 19  2  0  0  0  0
 19 25  1  0  0  0  0
 20 19  1  0  0  0  0
 20 26  1  0  0  0  0
 21 20  2  0  0  0  0
 22 17  2  0  0  0  0
 22 21  1  0  0  0  0
 23 15  1  0  0  0  0
 27 21  1  0  0  0  0
 28 34  1  0  0  0  0
 29 28  1  0  0  0  0
 29 35  1  0  0  0  0
 30 29  2  0  0  0  0
 31 32  2  0  0  0  0
 31 30  1  0  0  0  0
 32 33  1  0  0  0  0
 33 28  2  0  0  0  0
 36 32  1  0  0  0  0
 37 38  1  0  0  0  0
 37 36  2  0  0  0  0
 39 41  2  0  0  0  0
 39 37  1  0  0  0  0
 40 39  1  0  0  0  0
 41 43  1  0  0  0  0
 42 41  1  0  0  0  0
 43 36  1  0  0  0  0
M  END
>  <minimizedAffinity>
-5.66353464

$$$$

 OpenBabel03242512533D

 43 47  0  0  1  0  0  0  0  0999 V2000
   38.7170   30.8560   40.5420 N   0  0  0  0  0  0  0  0  0  0  0  0
   38.5910   31.6800   39.3340 C   0  0  0  0  0  0  0  0  0  0  0  0
   37.2910   32.3680   39.6990 C   0  0  0  0  0  0  0  0  0  0  0  0
   36.4290   31.1750   40.0250 C   0  0  0  0  0  0  0  0  0  0  0  0
   37.3730   30.2760   40.8000 C   0  0  1  0  0  0  0  0  0  0  0  0
   38.4250   31.0120   38.4790 H   0  0  0  0  0  0  0  0  0  0  0  0
   39.4290   32.3720   39.2470 H   0  0  0  0  0  0  0  0  0  0  0  0
   37.4980   32.9040   40.6630 H   0  0  0  0  0  0  0  0  0  0  0  0
   36.8880   33.0180   38.9240 H   0  0  0  0  0  0  0  0  0  0  0  0
   35.5850   31.5230   40.6310 H   0  0  0  0  0  0  0  0  0  0  0  0
   36.1250   30.7200   39.0540 H   0  0  0  0  0  0  0  0  0  0  0  0
   37.2330   30.4660   41.8270 H   0  0  0  0  0  0  0  0  0  0  0  0
   37.4360   28.9240   40.2830 C   0  0  0  0  0  0  0  0  0  0  0  0
   37.7220   28.6770   38.9810 N   0  0  0  0  0  0  0  0  0  0  0  0
   37.7920   27.4510   38.4260 C   0  0  0  0  0  0  0  0  0  0  0  0
   37.5650   26.3850   39.2080 N   0  0  0  0  0  0  0  0  0  0  0  0
   37.2790   26.5650   40.4990 C   0  0  0  0  0  0  0  0  0  0  0  0
   37.0560   25.4280   41.2540 C   0  0  0  0  0  0  0  0  0  0  0  0
   36.7590   25.6280   42.5980 C   0  0  0  0  0  0  0  0  0  0  0  0
   36.6720   26.8670   43.2260 C   0  0  0  0  0  0  0  0  0  0  0  0
   36.9080   27.9400   42.3900 C   0  0  0  0  0  0  0  0  0  0  0  0
   37.2040   27.8290   41.0770 C   0  0  0  0  0  0  0  0  0  0  0  0
   38.0270   27.3480   37.3770 H   0  0  0  0  0  0  0  0  0  0  0  0
   37.1040   24.4280   40.8480 H   0  0  0  0  0  0  0  0  0  0  0  0
   36.5890   24.7140   43.1740 H   0  0  0  0  0  0  0  0  0  0  0  0
   36.4390   26.9270   44.2620 H   0  0  0  0  0  0  0  0  0  0  0  0
   36.8110   28.8800   42.9020 H   0  0  0  0  0  0  0  0  0  0  0  0
   41.7800   31.1900   42.6150 C   0  0  0  0  0  0  0  0  0  0  0  0
   40.7240   31.5510   41.7990 C   0  0  0  0  0  0  0  0  0  0  0  0
   39.8210   30.5920   41.3680 C   0  0  0  0  0  0  0  0  0  0  0  0
   40.0140   29.3090   41.7740 N   0  0  0  0  0  0  0  0  0  0  0  0
   41.0520   28.9460   42.5770 C   0  0  0  0  0  0  0  0  0  0  0  0
   41.9300   29.8970   42.9920 N   0  0  0  0  0  0  0  0  0  0  0  0
   42.4890   31.9340   42.9550 H   0  0  0  0  0  0  0  0  0  0  0  0
   40.6570   32.5630   41.5130 H   0  0  0  0  0  0  0  0  0  0  0  0
   41.1540   27.5350   42.9450 C   0  0  0  0  0  0  0  0  0  0  0  0
   40.2970   26.7170   43.6520 C   0  0  0  0  0  0  0  0  0  0  0  0
   39.3390   27.0730   44.0610 H   0  0  0  0  0  0  0  0  0  0  0  0
   40.9330   25.4720   43.6800 C   0  0  0  0  0  0  0  0  0  0  0  0
   40.4430   24.6530   44.1890 H   0  0  0  0  0  0  0  0  0  0  0  0
   42.1370   25.6160   42.9870 C   0  0  0  0  0  0  0  0  0  0  0  0
   42.7200   24.7120   42.9430 H   0  0  0  0  0  0  0  0  0  0  0  0
   42.2170   26.8510   42.5740 O   0  0  0  0  0  0  0  0  0  0  0  0
  1  5  1  0  0  0  0
  1 30  1  0  0  0  0
  2  3  1  0  0  0  0
  2  1  1  0  0  0  0
  3  4  1  0  0  0  0
  3  8  1  0  0  0  0
  4 10  1  0  0  0  0
  4  5  1  0  0  0  0
  5 12  1  1  0  0  0
  6  2  1  0  0  0  0
  7  2  1  0  0  0  0
  9  3  1  0  0  0  0
 11  4  1  0  0  0  0
 13  5  1  0  0  0  0
 13 22  1  0  0  0  0
 14 13  2  0  0  0  0
 15 14  1  0  0  0  0
 15 16  2  0  0  0  0
 16 17  1  0  0  0  0
 17 22  2  0  0  0  0
 17 18  1  0  0  0  0
 18 19  2  0  0  0  0
 19 25  1  0  0  0  0
 19 20  1  0  0  0  0
 20 26  1  0  0  0  0
 21 27  1  0  0  0  0
 21 20  2  0  0  0  0
 22 21  1  0  0  0  0
 23 15  1  0  0  0  0
 24 18  1  0  0  0  0
 28 34  1  0  0  0  0
 28 33  1  0  0  0  0
 29 28  2  0  0  0  0
 30 31  2  0  0  0  0
 30 29  1  0  0  0  0
 31 32  1  0  0  0  0
 32 36  1  0  0  0  0
 32 33  2  0  0  0  0
 35 29  1  0  0  0  0
 36 37  2  0  0  0  0
 37 39  1  0  0  0  0
 37 38  1  0  0  0  0
 39 40  1  0  0  0  0
 41 39  2  0  0  0  0
 42 41  1  0  0  0  0
 43 36  1  0  0  0  0
 43 41  1  0  0  0  0
M  END
>  <minimizedAffinity>
-5.6282773

$$$$

 OpenBabel03242512533D

 43 47  0  0  1  0  0  0  0  0999 V2000
   37.1590   25.7260   40.5150 N   0  0  0  0  0  0  0  0  0  0  0  0
   36.3400   25.5180   39.3150 C   0  0  0  0  0  0  0  0  0  0  0  0
   35.9620   24.0750   39.5810 C   0  0  0  0  0  0  0  0  0  0  0  0
   37.3230   23.4700   39.8130 C   0  0  0  0  0  0  0  0  0  0  0  0
   38.0230   24.5230   40.6500 C   0  0  1  0  0  0  0  0  0  0  0  0
   36.9980   25.5690   38.4380 H   0  0  0  0  0  0  0  0  0  0  0  0
   35.4800   26.1890   39.3100 H   0  0  0  0  0  0  0  0  0  0  0  0
   35.4270   24.0840   40.5670 H   0  0  0  0  0  0  0  0  0  0  0  0
   35.3870   23.6020   38.7850 H   0  0  0  0  0  0  0  0  0  0  0  0
   37.1860   22.5260   40.3520 H   0  0  0  0  0  0  0  0  0  0  0  0
   37.7990   23.3500   38.8130 H   0  0  0  0  0  0  0  0  0  0  0  0
   37.9030   24.2660   41.6640 H   0  0  0  0  0  0  0  0  0  0  0  0
   39.3110   24.9200   40.1180 C   0  0  0  0  0  0  0  0  0  0  0  0
   39.5000   25.1060   38.7880 N   0  0  0  0  0  0  0  0  0  0  0  0
   40.6670   25.4670   38.2180 C   0  0  0  0  0  0  0  0  0  0  0  0
   41.7300   25.6610   39.0130 N   0  0  0  0  0  0  0  0  0  0  0  0
   41.6050   25.4940   40.3310 C   0  0  0  0  0  0  0  0  0  0  0  0
   42.7350   25.7110   41.0980 C   0  0  0  0  0  0  0  0  0  0  0  0
   42.5930   25.5340   42.4700 C   0  0  0  0  0  0  0  0  0  0  0  0
   41.4170   25.1610   43.1150 C   0  0  0  0  0  0  0  0  0  0  0  0
   40.3460   24.9670   42.2650 C   0  0  0  0  0  0  0  0  0  0  0  0
   40.4030   25.1200   40.9250 C   0  0  0  0  0  0  0  0  0  0  0  0
   40.7270   25.5920   37.1470 H   0  0  0  0  0  0  0  0  0  0  0  0
   43.6880   26.0020   40.6810 H   0  0  0  0  0  0  0  0  0  0  0  0
   43.4990   25.7130   43.0550 H   0  0  0  0  0  0  0  0  0  0  0  0
   41.3980   25.0490   44.1730 H   0  0  0  0  0  0  0  0  0  0  0  0
   39.4620   24.6590   42.7930 H   0  0  0  0  0  0  0  0  0  0  0  0
   37.1770   27.7660   43.6180 C   0  0  0  0  0  0  0  0  0  0  0  0
   37.1180   26.6510   42.8030 C   0  0  0  0  0  0  0  0  0  0  0  0
   37.2060   26.7920   41.4270 C   0  0  0  0  0  0  0  0  0  0  0  0
   37.3510   28.0460   40.9240 N   0  0  0  0  0  0  0  0  0  0  0  0
   37.4090   29.1500   41.7210 C   0  0  0  0  0  0  0  0  0  0  0  0
   37.3210   28.9960   43.0690 N   0  0  0  0  0  0  0  0  0  0  0  0
   37.1080   27.6630   44.6930 H   0  0  0  0  0  0  0  0  0  0  0  0
   36.9830   25.7160   43.2700 H   0  0  0  0  0  0  0  0  0  0  0  0
   37.5650   30.4450   41.0610 C   0  0  0  0  0  0  0  0  0  0  0  0
   36.6310   31.3730   40.6490 C   0  0  0  0  0  0  0  0  0  0  0  0
   35.5480   31.2250   40.7840 H   0  0  0  0  0  0  0  0  0  0  0  0
   37.3810   32.4090   40.0870 C   0  0  0  0  0  0  0  0  0  0  0  0
   36.8580   33.2670   39.6860 H   0  0  0  0  0  0  0  0  0  0  0  0
   38.7250   32.0430   40.1950 C   0  0  0  0  0  0  0  0  0  0  0  0
   39.4040   32.7730   39.7890 H   0  0  0  0  0  0  0  0  0  0  0  0
   38.7770   30.8770   40.7770 O   0  0  0  0  0  0  0  0  0  0  0  0
  1  5  1  0  0  0  0
  1 30  1  0  0  0  0
  2  3  1  0  0  0  0
  2  1  1  0  0  0  0
  3  4  1  0  0  0  0
  3  8  1  0  0  0  0
  4 10  1  0  0  0  0
  4  5  1  0  0  0  0
  5 12  1  1  0  0  0
  6  2  1  0  0  0  0
  7  2  1  0  0  0  0
  9  3  1  0  0  0  0
 11  4  1  0  0  0  0
 13  5  1  0  0  0  0
 13 22  1  0  0  0  0
 14 13  2  0  0  0  0
 15 14  1  0  0  0  0
 15 16  2  0  0  0  0
 16 17  1  0  0  0  0
 17 22  2  0  0  0  0
 17 18  1  0  0  0  0
 18 19  2  0  0  0  0
 19 25  1  0  0  0  0
 19 20  1  0  0  0  0
 20 26  1  0  0  0  0
 21 27  1  0  0  0  0
 21 20  2  0  0  0  0
 22 21  1  0  0  0  0
 23 15  1  0  0  0  0
 24 18  1  0  0  0  0
 28 34  1  0  0  0  0
 29 35  1  0  0  0  0
 29 28  2  0  0  0  0
 30 29  1  0  0  0  0
 31 30  2  0  0  0  0
 31 32  1  0  0  0  0
 32 33  2  0  0  0  0
 33 28  1  0  0  0  0
 36 32  1  0  0  0  0
 37 38  1  0  0  0  0
 37 36  2  0  0  0  0
 39 41  2  0  0  0  0
 39 37  1  0  0  0  0
 40 39  1  0  0  0  0
 41 43  1  0  0  0  0
 42 41  1  0  0  0  0
 43 36  1  0  0  0  0
M  END
>  <minimizedAffinity>
-5.58257818

$$$$

 OpenBabel03242512533D

 43 47  0  0  1  0  0  0  0  0999 V2000
   37.9020   30.3550   39.2010 N   0  0  0  0  0  0  0  0  0  0  0  0
   38.2490   31.6820   39.7240 C   0  0  0  0  0  0  0  0  0  0  0  0
   39.7340   31.6290   39.4280 C   0  0  0  0  0  0  0  0  0  0  0  0
   40.1000   30.3210   40.0810 C   0  0  0  0  0  0  0  0  0  0  0  0
   38.9410   29.4190   39.7040 C   0  0  1  0  0  0  0  0  0  0  0  0
   38.0910   31.6750   40.8100 H   0  0  0  0  0  0  0  0  0  0  0  0
   37.7320   32.4660   39.1680 H   0  0  0  0  0  0  0  0  0  0  0  0
   39.8120   31.4830   38.3190 H   0  0  0  0  0  0  0  0  0  0  0  0
   40.3000   32.4880   39.7890 H   0  0  0  0  0  0  0  0  0  0  0  0
   41.0520   29.9850   39.6560 H   0  0  0  0  0  0  0  0  0  0  0  0
   40.1420   30.5080   41.1790 H   0  0  0  0  0  0  0  0  0  0  0  0
   39.2120   28.8870   38.8370 H   0  0  0  0  0  0  0  0  0  0  0  0
   38.3350   28.7540   40.8400 C   0  0  0  0  0  0  0  0  0  0  0  0
   38.1100   29.4090   42.0060 N   0  0  0  0  0  0  0  0  0  0  0  0
   37.5590   28.8590   43.1060 C   0  0  0  0  0  0  0  0  0  0  0  0
   37.2000   27.5670   43.0590 N   0  0  0  0  0  0  0  0  0  0  0  0
   37.3960   26.8700   41.9380 C   0  0  0  0  0  0  0  0  0  0  0  0
   37.0040   25.5440   41.9500 C   0  0  0  0  0  0  0  0  0  0  0  0
   37.2130   24.8270   40.7770 C   0  0  0  0  0  0  0  0  0  0  0  0
   37.7780   25.3390   39.6130 C   0  0  0  0  0  0  0  0  0  0  0  0
   38.1380   26.6700   39.6990 C   0  0  0  0  0  0  0  0  0  0  0  0
   37.9670   27.4330   40.8000 C   0  0  0  0  0  0  0  0  0  0  0  0
   37.4160   29.4570   43.9930 H   0  0  0  0  0  0  0  0  0  0  0  0
   36.5570   25.0650   42.8100 H   0  0  0  0  0  0  0  0  0  0  0  0
   36.8930   23.7830   40.8110 H   0  0  0  0  0  0  0  0  0  0  0  0
   37.9010   24.7180   38.7580 H   0  0  0  0  0  0  0  0  0  0  0  0
   38.5900   27.0260   38.7910 H   0  0  0  0  0  0  0  0  0  0  0  0
   34.6740   28.9920   37.9730 C   0  0  0  0  0  0  0  0  0  0  0  0
   35.6640   29.3750   38.8590 C   0  0  0  0  0  0  0  0  0  0  0  0
   36.8410   29.9330   38.3860 C   0  0  0  0  0  0  0  0  0  0  0  0
   36.9770   30.0840   37.0420 N   0  0  0  0  0  0  0  0  0  0  0  0
   36.0080   29.7080   36.1630 C   0  0  0  0  0  0  0  0  0  0  0  0
   34.8580   29.1620   36.6410 N   0  0  0  0  0  0  0  0  0  0  0  0
   33.7530   28.5560   38.3360 H   0  0  0  0  0  0  0  0  0  0  0  0
   35.4880   29.2050   39.8840 H   0  0  0  0  0  0  0  0  0  0  0  0
   36.2730   29.9210   34.7410 C   0  0  0  0  0  0  0  0  0  0  0  0
   36.4910   29.0250   33.7140 C   0  0  0  0  0  0  0  0  0  0  0  0
   36.4900   27.9350   33.8670 H   0  0  0  0  0  0  0  0  0  0  0  0
   36.6850   29.8220   32.5820 C   0  0  0  0  0  0  0  0  0  0  0  0
   36.8780   29.3350   31.6350 H   0  0  0  0  0  0  0  0  0  0  0  0
   36.5720   31.1510   32.9960 C   0  0  0  0  0  0  0  0  0  0  0  0
   36.7050   31.8630   32.2000 H   0  0  0  0  0  0  0  0  0  0  0  0
   36.3280   31.1530   34.2770 O   0  0  0  0  0  0  0  0  0  0  0  0
  1  5  1  0  0  0  0
  1  2  1  0  0  0  0
  2  6  1  0  0  0  0
  3  2  1  0  0  0  0
  3  9  1  0  0  0  0
  3  4  1  0  0  0  0
  4 11  1  0  0  0  0
  5 12  1  6  0  0  0
  5  4  1  0  0  0  0
  5 13  1  0  0  0  0
  7  2  1  0  0  0  0
  8  3  1  0  0  0  0
 10  4  1  0  0  0  0
 13 14  1  0  0  0  0
 14 15  2  0  0  0  0
 15 23  1  0  0  0  0
 16 15  1  0  0  0  0
 17 18  1  0  0  0  0
 17 16  2  0  0  0  0
 18 24  1  0  0  0  0
 19 25  1  0  0  0  0
 19 18  2  0  0  0  0
 20 21  2  0  0  0  0
 20 19  1  0  0  0  0
 21 22  1  0  0  0  0
 22 13  2  0  0  0  0
 22 17  1  0  0  0  0
 26 20  1  0  0  0  0
 27 21  1  0  0  0  0
 28 34  1  0  0  0  0
 28 29  1  0  0  0  0
 29 35  1  0  0  0  0
 30 29  2  0  0  0  0
 30  1  1  0  0  0  0
 31 30  1  0  0  0  0
 32 33  1  0  0  0  0
 32 31  2  0  0  0  0
 33 28  2  0  0  0  0
 36 32  1  0  0  0  0
 37 38  1  0  0  0  0
 37 36  2  0  0  0  0
 39 41  2  0  0  0  0
 39 37  1  0  0  0  0
 40 39  1  0  0  0  0
 41 43  1  0  0  0  0
 42 41  1  0  0  0  0
 43 36  1  0  0  0  0
M  END
>  <minimizedAffinity>
-5.57593012

$$$$
