
 OpenBabel03242517233D

 42 45  0  0  1  0  0  0  0  0999 V2000
   44.6170   35.3550   45.5490 C   0  0  0  0  0  0  0  0  0  0  0  0
   44.4380   35.9330   44.2730 C   0  0  0  0  0  0  0  0  0  0  0  0
   44.9700   35.2700   43.1490 C   0  0  0  0  0  0  0  0  0  0  0  0
   45.6270   34.1080   43.3630 N   0  0  0  0  0  0  0  0  0  0  0  0
   45.7840   33.5740   44.6050 C   0  0  0  0  0  0  0  0  0  0  0  0
   45.2760   34.2030   45.7040 N   0  0  0  0  0  0  0  0  0  0  0  0
   46.5000   32.3340   44.7240 N   0  0  0  0  0  0  0  0  0  0  0  0
   46.3720   31.6610   46.0100 C   0  0  0  0  0  0  0  0  0  0  0  0
   47.3880   30.6250   46.2650 C   0  0  0  0  0  0  0  0  0  0  0  0
   47.7620   29.9170   44.9980 C   0  0  0  0  0  0  0  0  0  0  0  0
   48.3700   30.9530   44.1060 C   0  0  0  0  0  0  0  0  0  0  0  0
   47.2760   31.8340   43.6170 C   0  0  2  0  0  0  0  0  0  0  0  0
   44.2000   35.8830   46.3940 H   0  0  0  0  0  0  0  0  0  0  0  0
   43.9100   36.8530   44.1580 H   0  0  0  0  0  0  0  0  0  0  0  0
   44.8540   35.6770   42.1510 H   0  0  0  0  0  0  0  0  0  0  0  0
   46.4790   32.4650   46.7820 H   0  0  0  0  0  0  0  0  0  0  0  0
   45.3310   31.2880   46.1050 H   0  0  0  0  0  0  0  0  0  0  0  0
   47.0330   29.9210   47.0270 H   0  0  0  0  0  0  0  0  0  0  0  0
   48.3160   31.1290   46.6520 H   0  0  0  0  0  0  0  0  0  0  0  0
   46.8210   29.5350   44.5110 H   0  0  0  0  0  0  0  0  0  0  0  0
   48.4080   29.0400   45.1240 H   0  0  0  0  0  0  0  0  0  0  0  0
   49.0380   31.5740   44.7680 H   0  0  0  0  0  0  0  0  0  0  0  0
   48.9560   30.5300   43.2710 H   0  0  0  0  0  0  0  0  0  0  0  0
   46.5660   31.2200   43.0170 H   0  0  0  0  0  0  0  0  0  0  0  0
   46.7900   31.8530   40.8040 F   0  0  0  0  0  0  0  0  0  0  0  0
   47.5180   32.8880   41.3030 C   0  0  0  0  0  0  0  0  0  0  0  0
   47.7600   32.8870   42.6820 C   0  0  0  0  0  0  0  0  0  0  0  0
   48.5030   33.9580   43.1520 C   0  0  0  0  0  0  0  0  0  0  0  0
   48.9810   34.9590   42.3470 C   0  0  0  0  0  0  0  0  0  0  0  0
   48.7270   34.9280   41.0050 C   0  0  0  0  0  0  0  0  0  0  0  0
   47.9890   33.8810   40.4850 C   0  0  0  0  0  0  0  0  0  0  0  0
   48.7070   33.9880   44.2100 H   0  0  0  0  0  0  0  0  0  0  0  0
   49.5630   35.7840   42.7670 H   0  0  0  0  0  0  0  0  0  0  0  0
   49.1140   35.7330   40.3750 H   0  0  0  0  0  0  0  0  0  0  0  0
   47.7410   33.8880   39.0450 C   0  0  0  0  0  0  0  0  0  0  0  0
   48.4620   34.4520   38.0180 C   0  0  0  0  0  0  0  0  0  0  0  0
   49.3810   35.0150   38.1070 H   0  0  0  0  0  0  0  0  0  0  0  0
   47.8700   34.2200   36.7940 C   0  0  0  0  0  0  0  0  0  0  0  0
   48.1950   34.5320   35.8120 H   0  0  0  0  0  0  0  0  0  0  0  0
   46.7560   33.4850   37.1470 C   0  0  0  0  0  0  0  0  0  0  0  0
   45.9970   33.0870   36.4660 H   0  0  0  0  0  0  0  0  0  0  0  0
   46.7230   33.3210   38.4260 O   0  0  0  0  0  0  0  0  0  0  0  0
  1  6  1  0  0  0  0
  1 13  1  0  0  0  0
  2  1  2  0  0  0  0
  3  4  2  0  0  0  0
  3  2  1  0  0  0  0
  4  5  1  0  0  0  0
  5  7  1  0  0  0  0
  5  6  2  0  0  0  0
  7  8  1  0  0  0  0
  8 17  1  0  0  0  0
  8  9  1  0  0  0  0
  8 16  1  0  0  0  0
  9 19  1  0  0  0  0
  9 18  1  0  0  0  0
 10 21  1  0  0  0  0
 10  9  1  0  0  0  0
 11 22  1  0  0  0  0
 11 10  1  0  0  0  0
 12 24  1  6  0  0  0
 12 11  1  0  0  0  0
 12  7  1  0  0  0  0
 14  2  1  0  0  0  0
 15  3  1  0  0  0  0
 20 10  1  0  0  0  0
 23 11  1  0  0  0  0
 25 26  1  0  0  0  0
 26 27  1  0  0  0  0
 27 28  2  0  0  0  0
 27 12  1  0  0  0  0
 28 32  1  0  0  0  0
 29 33  1  0  0  0  0
 29 28  1  0  0  0  0
 30 29  2  0  0  0  0
 31 30  1  0  0  0  0
 31 26  2  0  0  0  0
 34 30  1  0  0  0  0
 35 31  1  0  0  0  0
 36 37  1  0  0  0  0
 36 35  2  0  0  0  0
 38 40  2  0  0  0  0
 38 36  1  0  0  0  0
 39 38  1  0  0  0  0
 40 42  1  0  0  0  0
 41 40  1  0  0  0  0
 42 35  1  0  0  0  0
M  END
>  <minimizedAffinity>
-6.19069099

>  <minimizedRMSD>
1.00652504

$$$$
