
 OpenBabel03242515053D

 38 40  0  0  0  0  0  0  0  0999 V2000
   44.9750   34.6590   42.2670 C   0  0  0  0  0  0  0  0  0  0  0  0
   46.2620   34.3210   41.8500 C   0  0  0  0  0  0  0  0  0  0  0  0
   47.2180   33.9650   42.8170 C   0  0  0  0  0  0  0  0  0  0  0  0
   46.8190   33.9760   44.1040 N   0  0  0  0  0  0  0  0  0  0  0  0
   45.5710   34.3040   44.4890 C   0  0  0  0  0  0  0  0  0  0  0  0
   44.6770   34.6380   43.5650 N   0  0  0  0  0  0  0  0  0  0  0  0
   46.5910   34.3090   40.8350 H   0  0  0  0  0  0  0  0  0  0  0  0
   48.5800   33.6030   42.4420 C   0  0  0  0  0  0  0  0  0  0  0  0
   48.8900   32.5630   41.5900 C   0  0  0  0  0  0  0  0  0  0  0  0
   48.2250   31.8790   41.0840 H   0  0  0  0  0  0  0  0  0  0  0  0
   50.2890   32.6170   41.5470 C   0  0  0  0  0  0  0  0  0  0  0  0
   50.9300   31.9570   40.9790 H   0  0  0  0  0  0  0  0  0  0  0  0
   50.7320   33.6630   42.3560 C   0  0  0  0  0  0  0  0  0  0  0  0
   51.7410   34.0000   42.5640 H   0  0  0  0  0  0  0  0  0  0  0  0
   49.6490   34.2130   42.8640 O   0  0  0  0  0  0  0  0  0  0  0  0
   45.2710   34.2740   45.9080 C   0  0  0  0  0  0  0  0  0  0  0  0
   44.3800   35.0380   46.3380 O   0  0  0  0  0  0  0  0  0  0  0  0
   46.0290   33.3580   46.7200 N   0  0  0  0  0  0  0  0  0  0  0  0
   45.7380   32.4630   47.1730 H   0  0  0  0  0  0  0  0  0  0  0  0
   47.0210   33.6310   46.8780 H   0  0  0  0  0  0  0  0  0  0  0  0
   43.8240   35.1000   40.9750 S   0  0  0  0  0  0  0  0  0  0  0  0
   42.1090   34.9180   41.4810 C   0  0  0  0  0  0  0  0  0  0  0  0
   42.0670   35.0750   42.5820 H   0  0  0  0  0  0  0  0  0  0  0  0
   41.8030   33.8660   41.2240 H   0  0  0  0  0  0  0  0  0  0  0  0
   41.1740   35.8750   40.8240 C   0  0  0  0  0  0  0  0  0  0  0  0
   41.6940   36.7240   40.3330 H   0  0  0  0  0  0  0  0  0  0  0  0
   40.5300   36.3320   41.6220 H   0  0  0  0  0  0  0  0  0  0  0  0
   42.0020   36.1040   37.9130 Cl  0  0  0  0  0  0  0  0  0  0  0  0
   40.6100   35.2310   38.4650 C   0  0  0  0  0  0  0  0  0  0  0  0
   40.3210   35.1920   39.8320 C   0  0  0  0  0  0  0  0  0  0  0  0
   39.1970   34.4760   40.1930 C   0  0  0  0  0  0  0  0  0  0  0  0
   38.3320   33.7990   39.3410 C   0  0  0  0  0  0  0  0  0  0  0  0
   38.6540   33.8640   37.9970 C   0  0  0  0  0  0  0  0  0  0  0  0
   37.6170   33.0370   36.8350 Cl  0  0  0  0  0  0  0  0  0  0  0  0
   39.7630   34.5620   37.5780 C   0  0  0  0  0  0  0  0  0  0  0  0
   38.9750   34.4470   41.2540 H   0  0  0  0  0  0  0  0  0  0  0  0
   37.4830   33.2730   39.7310 H   0  0  0  0  0  0  0  0  0  0  0  0
   39.9920   34.5970   36.5200 H   0  0  0  0  0  0  0  0  0  0  0  0
  1  6  1  0  0  0  0
  2  1  2  0  0  0  0
  2  3  1  0  0  0  0
  3  4  2  0  0  0  0
  4  5  1  0  0  0  0
  5 16  1  0  0  0  0
  6  5  2  0  0  0  0
  7  2  1  0  0  0  0
  8  3  1  0  0  0  0
  8 15  1  0  0  0  0
  9  8  2  0  0  0  0
 10  9  1  0  0  0  0
 11  9  1  0  0  0  0
 11 13  2  0  0  0  0
 12 11  1  0  0  0  0
 13 14  1  0  0  0  0
 13 15  1  0  0  0  0
 16 17  2  0  0  0  0
 16 18  1  0  0  0  0
 18 20  1  0  0  0  0
 18 19  1  0  0  0  0
 21 22  1  0  0  0  0
 21  1  1  0  0  0  0
 22 23  1  0  0  0  0
 24 22  1  0  0  0  0
 25 22  1  0  0  0  0
 25 27  1  0  0  0  0
 26 25  1  0  0  0  0
 28 29  1  0  0  0  0
 29 30  1  0  0  0  0
 30 31  2  0  0  0  0
 30 25  1  0  0  0  0
 31 36  1  0  0  0  0
 32 37  1  0  0  0  0
 32 31  1  0  0  0  0
 33 32  2  0  0  0  0
 34 33  1  0  0  0  0
 35 33  1  0  0  0  0
 35 29  2  0  0  0  0
 38 35  1  0  0  0  0
M  END
>  <minimizedAffinity>
-6.88064194

>  <minimizedRMSD>
0.46790266

$$$$
