
 OpenBabel03252509113D

 30 33  0  0  0  0  0  0  0  0999 V2000
   43.6870   35.1690   40.9670 C   0  0  0  0  0  0  0  0  0  0  0  0
   43.5060   33.7970   41.0160 C   0  0  0  0  0  0  0  0  0  0  0  0
   43.8870   33.0410   42.1060 C   0  0  0  0  0  0  0  0  0  0  0  0
   44.4760   33.6590   43.2060 C   0  0  0  0  0  0  0  0  0  0  0  0
   44.9600   33.2550   44.4090 N   0  0  0  0  0  0  0  0  0  0  0  0
   45.4240   34.3350   45.0820 C   0  0  0  0  0  0  0  0  0  0  0  0
   45.2190   35.3990   44.2820 N   0  0  0  0  0  0  0  0  0  0  0  0
   44.6400   35.0210   43.1250 C   0  0  0  0  0  0  0  0  0  0  0  0
   44.2740   35.8110   42.0580 C   0  0  0  0  0  0  0  0  0  0  0  0
   43.3740   35.7320   40.0930 H   0  0  0  0  0  0  0  0  0  0  0  0
   44.9290   32.2530   44.6670 H   0  0  0  0  0  0  0  0  0  0  0  0
   45.8610   34.2640   46.0710 H   0  0  0  0  0  0  0  0  0  0  0  0
   44.4370   36.8780   42.0690 H   0  0  0  0  0  0  0  0  0  0  0  0
   43.0950   31.9800   37.8520 C   0  0  0  0  0  0  0  0  0  0  0  0
   41.7100   31.8340   37.7590 C   0  0  0  0  0  0  0  0  0  0  0  0
   40.9150   32.3640   38.7900 C   0  0  0  0  0  0  0  0  0  0  0  0
   41.5710   32.9870   39.8140 N   0  0  0  0  0  0  0  0  0  0  0  0
   42.8970   33.1160   39.8860 C   0  0  0  0  0  0  0  0  0  0  0  0
   43.6740   32.6120   38.9040 N   0  0  0  0  0  0  0  0  0  0  0  0
   43.7000   31.5640   37.0490 H   0  0  0  0  0  0  0  0  0  0  0  0
   41.2490   31.3310   36.9260 H   0  0  0  0  0  0  0  0  0  0  0  0
   39.8370   32.2810   38.7710 H   0  0  0  0  0  0  0  0  0  0  0  0
   43.7090   31.5940   42.1850 C   0  0  0  0  0  0  0  0  0  0  0  0
   44.8540   30.8650   41.8490 C   0  0  0  0  0  0  0  0  0  0  0  0
   45.8630   31.0870   41.5380 H   0  0  0  0  0  0  0  0  0  0  0  0
   44.5200   29.5120   41.9750 C   0  0  0  0  0  0  0  0  0  0  0  0
   45.1310   28.6130   41.8040 H   0  0  0  0  0  0  0  0  0  0  0  0
   43.1840   29.5130   42.3820 C   0  0  0  0  0  0  0  0  0  0  0  0
   42.5390   28.6660   42.5930 H   0  0  0  0  0  0  0  0  0  0  0  0
   42.7610   30.7530   42.4890 O   0  0  0  0  0  0  0  0  0  0  0  0
  1  2  2  0  0  0  0
  1  9  1  0  0  0  0
  2  3  1  0  0  0  0
  3 23  1  0  0  0  0
  3  4  2  0  0  0  0
  4  5  1  0  0  0  0
  5 11  1  0  0  0  0
  5  6  1  0  0  0  0
  6 12  1  0  0  0  0
  7  6  2  0  0  0  0
  8  4  1  0  0  0  0
  8  7  1  0  0  0  0
  9 13  1  0  0  0  0
  9  8  2  0  0  0  0
 10  1  1  0  0  0  0
 14 19  1  0  0  0  0
 15 14  2  0  0  0  0
 15 16  1  0  0  0  0
 16 17  2  0  0  0  0
 17 18  1  0  0  0  0
 18  2  1  0  0  0  0
 19 18  2  0  0  0  0
 20 14  1  0  0  0  0
 21 15  1  0  0  0  0
 22 16  1  0  0  0  0
 23 30  1  0  0  0  0
 24 26  1  0  0  0  0
 24 23  2  0  0  0  0
 25 24  1  0  0  0  0
 26 28  2  0  0  0  0
 27 26  1  0  0  0  0
 28 30  1  0  0  0  0
 28 29  1  0  0  0  0
M  END
>  <minimizedAffinity>
-4.04549646

>  <minimizedRMSD>
6.5568223

$$$$
