
 OpenBabel03252505253D

 42 45  0  0  1  0  0  0  0  0999 V2000
   48.0060   32.0040   44.3210 F   0  0  0  0  0  0  0  0  0  0  0  0
   47.0660   32.9720   44.4940 C   0  0  0  0  0  0  0  0  0  0  0  0
   46.2500   32.8850   45.6020 C   0  0  0  0  0  0  0  0  0  0  0  0
   45.3010   33.8670   45.7710 C   0  0  0  0  0  0  0  0  0  0  0  0
   45.1980   34.8850   44.8480 C   0  0  0  0  0  0  0  0  0  0  0  0
   46.0050   34.9710   43.7520 C   0  0  0  0  0  0  0  0  0  0  0  0
   46.9670   33.9710   43.5850 C   0  0  0  0  0  0  0  0  0  0  0  0
   44.6700   33.7700   46.6600 H   0  0  0  0  0  0  0  0  0  0  0  0
   44.4200   35.5990   45.0820 H   0  0  0  0  0  0  0  0  0  0  0  0
   45.8720   35.7860   43.0740 H   0  0  0  0  0  0  0  0  0  0  0  0
   47.7840   34.0970   42.4350 N   0  0  0  0  0  0  0  0  0  0  0  0
   48.8170   33.2500   41.9010 C   0  0  0  0  0  0  0  0  0  0  0  0
   48.4220   33.1130   40.4240 C   0  0  0  0  0  0  0  0  0  0  0  0
   47.5870   34.3320   40.1650 C   0  0  0  0  0  0  0  0  0  0  0  0
   47.8310   35.1460   41.4170 C   0  0  2  0  0  0  0  0  0  0  0  0
   49.8320   33.6790   42.0050 H   0  0  0  0  0  0  0  0  0  0  0  0
   48.7790   32.2700   42.4170 H   0  0  0  0  0  0  0  0  0  0  0  0
   49.3500   33.2150   39.8260 H   0  0  0  0  0  0  0  0  0  0  0  0
   47.8840   32.1610   40.2500 H   0  0  0  0  0  0  0  0  0  0  0  0
   46.5260   33.9990   40.1910 H   0  0  0  0  0  0  0  0  0  0  0  0
   47.8510   34.8600   39.2400 H   0  0  0  0  0  0  0  0  0  0  0  0
   46.9650   35.8470   41.5200 H   0  0  0  0  0  0  0  0  0  0  0  0
   49.0980   35.9290   41.4080 C   0  0  0  0  0  0  0  0  0  0  0  0
   49.8800   35.4370   40.8040 H   0  0  0  0  0  0  0  0  0  0  0  0
   48.9010   36.9250   40.9640 H   0  0  0  0  0  0  0  0  0  0  0  0
   49.4430   36.0720   42.4520 H   0  0  0  0  0  0  0  0  0  0  0  0
   45.6660   29.7600   47.4180 C   0  0  0  0  0  0  0  0  0  0  0  0
   46.7080   29.7420   48.3570 C   0  0  0  0  0  0  0  0  0  0  0  0
   47.5840   30.8210   48.3280 C   0  0  0  0  0  0  0  0  0  0  0  0
   47.3970   31.8080   47.4250 N   0  0  0  0  0  0  0  0  0  0  0  0
   46.3960   31.7910   46.5500 C   0  0  0  0  0  0  0  0  0  0  0  0
   45.5370   30.7790   46.5420 N   0  0  0  0  0  0  0  0  0  0  0  0
   44.9640   28.9210   47.4200 H   0  0  0  0  0  0  0  0  0  0  0  0
   46.8610   28.9640   49.0730 H   0  0  0  0  0  0  0  0  0  0  0  0
   48.7180   30.9510   49.2390 C   0  0  0  0  0  0  0  0  0  0  0  0
   49.4960   32.0890   49.2960 C   0  0  0  0  0  0  0  0  0  0  0  0
   49.4830   33.0340   48.7710 H   0  0  0  0  0  0  0  0  0  0  0  0
   50.4630   31.8620   50.2540 C   0  0  0  0  0  0  0  0  0  0  0  0
   51.2970   32.4010   50.6830 H   0  0  0  0  0  0  0  0  0  0  0  0
   50.2250   30.5920   50.7370 C   0  0  0  0  0  0  0  0  0  0  0  0
   50.6240   29.8930   51.4600 H   0  0  0  0  0  0  0  0  0  0  0  0
   49.1780   30.0760   50.1120 O   0  0  0  0  0  0  0  0  0  0  0  0
  1  2  1  0  0  0  0
  2  3  1  0  0  0  0
  3  4  2  0  0  0  0
  3 31  1  0  0  0  0
  4  8  1  0  0  0  0
  5  9  1  0  0  0  0
  5  4  1  0  0  0  0
  6  5  2  0  0  0  0
  7  6  1  0  0  0  0
  7  2  2  0  0  0  0
 10  6  1  0  0  0  0
 11  7  1  0  0  0  0
 12 16  1  0  0  0  0
 12 17  1  0  0  0  0
 12 11  1  0  0  0  0
 13 12  1  0  0  0  0
 14 20  1  0  0  0  0
 14 13  1  0  0  0  0
 14 15  1  0  0  0  0
 15 22  1  1  0  0  0
 15 11  1  0  0  0  0
 18 13  1  0  0  0  0
 19 13  1  0  0  0  0
 21 14  1  0  0  0  0
 23 15  1  0  0  0  0
 23 26  1  0  0  0  0
 24 23  1  0  0  0  0
 25 23  1  0  0  0  0
 27 33  1  0  0  0  0
 27 28  1  0  0  0  0
 28 34  1  0  0  0  0
 29 28  2  0  0  0  0
 29 35  1  0  0  0  0
 30 29  1  0  0  0  0
 31 30  2  0  0  0  0
 32 31  1  0  0  0  0
 32 27  2  0  0  0  0
 35 36  2  0  0  0  0
 35 42  1  0  0  0  0
 36 38  1  0  0  0  0
 37 36  1  0  0  0  0
 38 39  1  0  0  0  0
 38 40  2  0  0  0  0
 40 41  1  0  0  0  0
 42 40  1  0  0  0  0
M  END
>  <minimizedAffinity>
-6.10816383

>  <minimizedRMSD>
8.13055325

$$$$
