
 OpenBabel03252505223D

 27 29  0  0  0  0  0  0  0  0999 V2000
   39.4190   29.8580   41.5140 F   0  0  0  0  0  0  0  0  0  0  0  0
   38.1130   29.6250   41.2500 C   0  0  0  0  0  0  0  0  0  0  0  0
   37.6390   28.3340   41.4570 C   0  0  0  0  0  0  0  0  0  0  0  0
   36.3260   28.0780   41.1980 C   0  0  0  0  0  0  0  0  0  0  0  0
   35.4950   29.0720   40.7450 C   0  0  0  0  0  0  0  0  0  0  0  0
   35.9450   30.3450   40.5370 C   0  0  0  0  0  0  0  0  0  0  0  0
   37.3030   30.6290   40.8010 C   0  0  0  0  0  0  0  0  0  0  0  0
   35.9190   27.0830   41.3460 H   0  0  0  0  0  0  0  0  0  0  0  0
   34.4440   28.8530   40.5410 H   0  0  0  0  0  0  0  0  0  0  0  0
   35.2910   31.1290   40.1800 H   0  0  0  0  0  0  0  0  0  0  0  0
   39.7010   26.2720   43.6770 C   0  0  0  0  0  0  0  0  0  0  0  0
   40.2700   25.3240   42.8070 C   0  0  0  0  0  0  0  0  0  0  0  0
   39.9220   25.4250   41.4640 C   0  0  0  0  0  0  0  0  0  0  0  0
   39.0640   26.4200   41.0730 N   0  0  0  0  0  0  0  0  0  0  0  0
   38.5510   27.2950   41.9410 C   0  0  0  0  0  0  0  0  0  0  0  0
   38.8660   27.2250   43.2420 N   0  0  0  0  0  0  0  0  0  0  0  0
   39.9770   26.1860   44.7250 H   0  0  0  0  0  0  0  0  0  0  0  0
   40.9360   24.5650   43.1620 H   0  0  0  0  0  0  0  0  0  0  0  0
   40.3230   24.7260   40.7240 H   0  0  0  0  0  0  0  0  0  0  0  0
   37.7580   32.0000   40.5710 C   0  0  0  0  0  0  0  0  0  0  0  0
   37.2550   32.9190   39.6960 C   0  0  0  0  0  0  0  0  0  0  0  0
   36.4320   32.8270   39.0050 H   0  0  0  0  0  0  0  0  0  0  0  0
   37.9580   34.1020   39.7730 C   0  0  0  0  0  0  0  0  0  0  0  0
   37.9180   35.0680   39.2910 H   0  0  0  0  0  0  0  0  0  0  0  0
   38.9080   33.8120   40.7550 C   0  0  0  0  0  0  0  0  0  0  0  0
   39.7010   34.4140   41.1830 H   0  0  0  0  0  0  0  0  0  0  0  0
   38.7460   32.5880   41.1780 O   0  0  0  0  0  0  0  0  0  0  0  0
  2  3  1  0  0  0  0
  2  1  1  0  0  0  0
  3 15  1  0  0  0  0
  4  8  1  0  0  0  0
  4  3  2  0  0  0  0
  5  4  1  0  0  0  0
  6  5  2  0  0  0  0
  6  7  1  0  0  0  0
  7  2  2  0  0  0  0
  9  5  1  0  0  0  0
 10  6  1  0  0  0  0
 11 17  1  0  0  0  0
 12 18  1  0  0  0  0
 12 11  2  0  0  0  0
 13 12  1  0  0  0  0
 14 13  2  0  0  0  0
 14 15  1  0  0  0  0
 15 16  2  0  0  0  0
 16 11  1  0  0  0  0
 19 13  1  0  0  0  0
 20  7  1  0  0  0  0
 20 27  1  0  0  0  0
 21 23  1  0  0  0  0
 21 20  2  0  0  0  0
 22 21  1  0  0  0  0
 23 25  2  0  0  0  0
 24 23  1  0  0  0  0
 25 27  1  0  0  0  0
 25 26  1  0  0  0  0
M  END
>  <minimizedAffinity>
-5.13022423

$$$$

 OpenBabel03252505223D

 27 29  0  0  0  0  0  0  0  0999 V2000
   37.5200   28.3430   39.6250 F   0  0  0  0  0  0  0  0  0  0  0  0
   37.4540   28.1870   40.9670 C   0  0  0  0  0  0  0  0  0  0  0  0
   37.7420   29.2960   41.7550 C   0  0  0  0  0  0  0  0  0  0  0  0
   37.6810   29.1600   43.1100 C   0  0  0  0  0  0  0  0  0  0  0  0
   37.3420   27.9570   43.6790 C   0  0  0  0  0  0  0  0  0  0  0  0
   37.0560   26.8580   42.9180 C   0  0  0  0  0  0  0  0  0  0  0  0
   37.1140   26.9800   41.5130 C   0  0  0  0  0  0  0  0  0  0  0  0
   37.8990   30.0020   43.7580 H   0  0  0  0  0  0  0  0  0  0  0  0
   37.2970   27.8620   44.7650 H   0  0  0  0  0  0  0  0  0  0  0  0
   36.7890   25.9100   43.3650 H   0  0  0  0  0  0  0  0  0  0  0  0
   37.4780   32.5740   40.1390 C   0  0  0  0  0  0  0  0  0  0  0  0
   38.8200   32.9420   39.9260 C   0  0  0  0  0  0  0  0  0  0  0  0
   39.7870   32.0380   40.3510 C   0  0  0  0  0  0  0  0  0  0  0  0
   39.3880   30.8660   40.9400 N   0  0  0  0  0  0  0  0  0  0  0  0
   38.1000   30.5650   41.1180 C   0  0  0  0  0  0  0  0  0  0  0  0
   37.1430   31.4150   40.7210 N   0  0  0  0  0  0  0  0  0  0  0  0
   36.7270   33.2870   39.8050 H   0  0  0  0  0  0  0  0  0  0  0  0
   39.0800   33.8700   39.4610 H   0  0  0  0  0  0  0  0  0  0  0  0
   40.8530   32.2490   40.2200 H   0  0  0  0  0  0  0  0  0  0  0  0
   36.8030   25.7900   40.7220 C   0  0  0  0  0  0  0  0  0  0  0  0
   36.8380   24.4850   41.1170 C   0  0  0  0  0  0  0  0  0  0  0  0
   37.0970   24.0660   42.0770 H   0  0  0  0  0  0  0  0  0  0  0  0
   36.4760   23.6500   40.0810 C   0  0  0  0  0  0  0  0  0  0  0  0
   36.3650   22.5860   39.9370 H   0  0  0  0  0  0  0  0  0  0  0  0
   36.2260   24.5600   39.0510 C   0  0  0  0  0  0  0  0  0  0  0  0
   35.9100   24.4090   38.0250 H   0  0  0  0  0  0  0  0  0  0  0  0
   36.4300   25.7760   39.4770 O   0  0  0  0  0  0  0  0  0  0  0  0
  1  2  1  0  0  0  0
  2  7  2  0  0  0  0
  2  3  1  0  0  0  0
  3  4  2  0  0  0  0
  4  5  1  0  0  0  0
  4  8  1  0  0  0  0
  5  9  1  0  0  0  0
  6 10  1  0  0  0  0
  6  5  2  0  0  0  0
  7  6  1  0  0  0  0
 11 16  1  0  0  0  0
 12 11  2  0  0  0  0
 12 13  1  0  0  0  0
 13 14  2  0  0  0  0
 14 15  1  0  0  0  0
 15  3  1  0  0  0  0
 16 15  2  0  0  0  0
 17 11  1  0  0  0  0
 18 12  1  0  0  0  0
 19 13  1  0  0  0  0
 20 21  2  0  0  0  0
 20  7  1  0  0  0  0
 21 22  1  0  0  0  0
 23 21  1  0  0  0  0
 24 23  1  0  0  0  0
 25 27  1  0  0  0  0
 25 23  2  0  0  0  0
 26 25  1  0  0  0  0
 27 20  1  0  0  0  0
M  END
>  <minimizedAffinity>
-5.03995514

$$$$

 OpenBabel03252505223D

 27 29  0  0  0  0  0  0  0  0999 V2000
   40.1510   30.5510   41.5480 F   0  0  0  0  0  0  0  0  0  0  0  0
   39.1010   31.1500   40.9430 C   0  0  0  0  0  0  0  0  0  0  0  0
   39.3710   32.2440   40.1270 C   0  0  0  0  0  0  0  0  0  0  0  0
   38.3260   32.8620   39.5080 C   0  0  0  0  0  0  0  0  0  0  0  0
   37.0410   32.4130   39.6860 C   0  0  0  0  0  0  0  0  0  0  0  0
   36.7590   31.3390   40.4840 C   0  0  0  0  0  0  0  0  0  0  0  0
   37.8290   30.6860   41.1330 C   0  0  0  0  0  0  0  0  0  0  0  0
   38.4950   33.7190   38.8640 H   0  0  0  0  0  0  0  0  0  0  0  0
   36.2130   32.9170   39.1830 H   0  0  0  0  0  0  0  0  0  0  0  0
   35.7470   30.9840   40.6240 H   0  0  0  0  0  0  0  0  0  0  0  0
   42.4960   34.1090   40.5520 C   0  0  0  0  0  0  0  0  0  0  0  0
   43.3560   33.5230   39.6050 C   0  0  0  0  0  0  0  0  0  0  0  0
   42.8280   32.4890   38.8390 C   0  0  0  0  0  0  0  0  0  0  0  0
   41.5270   32.1090   39.0450 N   0  0  0  0  0  0  0  0  0  0  0  0
   40.7520   32.6990   39.9580 C   0  0  0  0  0  0  0  0  0  0  0  0
   41.2320   33.6980   40.7120 N   0  0  0  0  0  0  0  0  0  0  0  0
   42.9170   34.9160   41.1470 H   0  0  0  0  0  0  0  0  0  0  0  0
   44.3670   33.8570   39.4820 H   0  0  0  0  0  0  0  0  0  0  0  0
   43.4330   31.9830   38.0810 H   0  0  0  0  0  0  0  0  0  0  0  0
   37.5010   29.5400   41.9800 C   0  0  0  0  0  0  0  0  0  0  0  0
   36.6740   28.4930   41.6960 C   0  0  0  0  0  0  0  0  0  0  0  0
   36.1020   28.2950   40.8030 H   0  0  0  0  0  0  0  0  0  0  0  0
   36.6220   27.6100   42.7530 C   0  0  0  0  0  0  0  0  0  0  0  0
   36.1210   26.6780   42.9700 H   0  0  0  0  0  0  0  0  0  0  0  0
   37.4780   28.2140   43.6770 C   0  0  0  0  0  0  0  0  0  0  0  0
   37.7780   27.9150   44.6740 H   0  0  0  0  0  0  0  0  0  0  0  0
   37.9540   29.3210   43.1790 O   0  0  0  0  0  0  0  0  0  0  0  0
  2  7  1  0  0  0  0
  2  1  1  0  0  0  0
  3  2  2  0  0  0  0
  4  5  2  0  0  0  0
  4  3  1  0  0  0  0
  5  6  1  0  0  0  0
  6 10  1  0  0  0  0
  6  7  2  0  0  0  0
  7 20  1  0  0  0  0
  8  4  1  0  0  0  0
  9  5  1  0  0  0  0
 11 16  1  0  0  0  0
 11 17  1  0  0  0  0
 12 11  2  0  0  0  0
 13 14  2  0  0  0  0
 13 12  1  0  0  0  0
 14 15  1  0  0  0  0
 15  3  1  0  0  0  0
 15 16  2  0  0  0  0
 18 12  1  0  0  0  0
 19 13  1  0  0  0  0
 20 27  1  0  0  0  0
 21 20  2  0  0  0  0
 21 23  1  0  0  0  0
 22 21  1  0  0  0  0
 23 24  1  0  0  0  0
 23 25  2  0  0  0  0
 25 26  1  0  0  0  0
 27 25  1  0  0  0  0
M  END
>  <minimizedAffinity>
-4.8763814

$$$$

 OpenBabel03252505223D

 27 29  0  0  0  0  0  0  0  0999 V2000
   37.9650   28.1890   39.7100 F   0  0  0  0  0  0  0  0  0  0  0  0
   37.6590   27.9420   41.0040 C   0  0  0  0  0  0  0  0  0  0  0  0
   37.6100   29.0300   41.8690 C   0  0  0  0  0  0  0  0  0  0  0  0
   37.3020   28.8030   43.1770 C   0  0  0  0  0  0  0  0  0  0  0  0
   37.0470   27.5300   43.6260 C   0  0  0  0  0  0  0  0  0  0  0  0
   37.0910   26.4510   42.7880 C   0  0  0  0  0  0  0  0  0  0  0  0
   37.4070   26.6680   41.4300 C   0  0  0  0  0  0  0  0  0  0  0  0
   37.2550   29.6250   43.8830 H   0  0  0  0  0  0  0  0  0  0  0  0
   36.8020   27.3630   44.6770 H   0  0  0  0  0  0  0  0  0  0  0  0
   36.8900   25.4490   43.1410 H   0  0  0  0  0  0  0  0  0  0  0  0
   39.3310   32.1730   41.1000 C   0  0  0  0  0  0  0  0  0  0  0  0
   38.3660   32.9060   40.3850 C   0  0  0  0  0  0  0  0  0  0  0  0
   37.1360   32.2880   40.1860 C   0  0  0  0  0  0  0  0  0  0  0  0
   36.9370   31.0280   40.6880 N   0  0  0  0  0  0  0  0  0  0  0  0
   37.8870   30.3750   41.3600 C   0  0  0  0  0  0  0  0  0  0  0  0
   39.0840   30.9420   41.5680 N   0  0  0  0  0  0  0  0  0  0  0  0
   40.2900   32.6630   41.2500 H   0  0  0  0  0  0  0  0  0  0  0  0
   38.5700   33.8890   40.0130 H   0  0  0  0  0  0  0  0  0  0  0  0
   36.3330   32.7930   39.6410 H   0  0  0  0  0  0  0  0  0  0  0  0
   37.4470   25.4960   40.5550 C   0  0  0  0  0  0  0  0  0  0  0  0
   36.4210   24.6630   40.2180 C   0  0  0  0  0  0  0  0  0  0  0  0
   35.3860   24.6940   40.5210 H   0  0  0  0  0  0  0  0  0  0  0  0
   36.8570   23.6690   39.3670 C   0  0  0  0  0  0  0  0  0  0  0  0
   36.4160   22.8230   38.8620 H   0  0  0  0  0  0  0  0  0  0  0  0
   38.2120   23.9810   39.2300 C   0  0  0  0  0  0  0  0  0  0  0  0
   39.0010   23.5020   38.6630 H   0  0  0  0  0  0  0  0  0  0  0  0
   38.4950   25.0410   39.9350 O   0  0  0  0  0  0  0  0  0  0  0  0
  1  2  1  0  0  0  0
  2  7  2  0  0  0  0
  2  3  1  0  0  0  0
  3  4  2  0  0  0  0
  4  5  1  0  0  0  0
  4  8  1  0  0  0  0
  5  9  1  0  0  0  0
  6 10  1  0  0  0  0
  6  5  2  0  0  0  0
  7  6  1  0  0  0  0
 11 17  1  0  0  0  0
 11 16  1  0  0  0  0
 12 11  2  0  0  0  0
 13 12  1  0  0  0  0
 13 14  2  0  0  0  0
 14 15  1  0  0  0  0
 15 16  2  0  0  0  0
 15  3  1  0  0  0  0
 18 12  1  0  0  0  0
 19 13  1  0  0  0  0
 20  7  1  0  0  0  0
 21 22  1  0  0  0  0
 21 20  2  0  0  0  0
 23 21  1  0  0  0  0
 24 23  1  0  0  0  0
 25 23  2  0  0  0  0
 25 27  1  0  0  0  0
 26 25  1  0  0  0  0
 27 20  1  0  0  0  0
M  END
>  <minimizedAffinity>
-4.78449059

$$$$

 OpenBabel03252505223D

 27 29  0  0  0  0  0  0  0  0999 V2000
   38.5630   29.8140   41.2880 F   0  0  0  0  0  0  0  0  0  0  0  0
   37.6570   29.7080   40.2900 C   0  0  0  0  0  0  0  0  0  0  0  0
   37.5610   30.7700   39.3970 C   0  0  0  0  0  0  0  0  0  0  0  0
   36.6540   30.6830   38.3840 C   0  0  0  0  0  0  0  0  0  0  0  0
   35.8560   29.5740   38.2510 C   0  0  0  0  0  0  0  0  0  0  0  0
   35.9380   28.5230   39.1200 C   0  0  0  0  0  0  0  0  0  0  0  0
   36.8720   28.5940   40.1760 C   0  0  0  0  0  0  0  0  0  0  0  0
   36.5500   31.4910   37.6670 H   0  0  0  0  0  0  0  0  0  0  0  0
   35.1330   29.5180   37.4340 H   0  0  0  0  0  0  0  0  0  0  0  0
   35.3100   27.6480   39.0160 H   0  0  0  0  0  0  0  0  0  0  0  0
   40.4200   33.0480   39.1450 C   0  0  0  0  0  0  0  0  0  0  0  0
   40.0190   34.1600   39.9080 C   0  0  0  0  0  0  0  0  0  0  0  0
   38.7600   34.0910   40.4950 C   0  0  0  0  0  0  0  0  0  0  0  0
   37.9980   32.9690   40.3000 N   0  0  0  0  0  0  0  0  0  0  0  0
   38.4260   31.9400   39.5650 C   0  0  0  0  0  0  0  0  0  0  0  0
   39.6340   31.9750   38.9870 N   0  0  0  0  0  0  0  0  0  0  0  0
   41.4060   33.1100   38.6900 H   0  0  0  0  0  0  0  0  0  0  0  0
   40.6520   35.0150   40.0310 H   0  0  0  0  0  0  0  0  0  0  0  0
   38.3760   34.9140   41.1040 H   0  0  0  0  0  0  0  0  0  0  0  0
   36.9400   27.4560   41.0900 C   0  0  0  0  0  0  0  0  0  0  0  0
   37.0650   26.1330   40.7810 C   0  0  0  0  0  0  0  0  0  0  0  0
   37.1390   25.6600   39.8140 H   0  0  0  0  0  0  0  0  0  0  0  0
   37.0920   25.3630   41.9240 C   0  0  0  0  0  0  0  0  0  0  0  0
   37.1760   24.3120   42.1570 H   0  0  0  0  0  0  0  0  0  0  0  0
   36.9750   26.3300   42.9260 C   0  0  0  0  0  0  0  0  0  0  0  0
   36.9470   26.2390   44.0060 H   0  0  0  0  0  0  0  0  0  0  0  0
   36.8910   27.5150   42.3890 O   0  0  0  0  0  0  0  0  0  0  0  0
  2  1  1  0  0  0  0
  3 15  1  0  0  0  0
  3  2  2  0  0  0  0
  4  3  1  0  0  0  0
  5  4  2  0  0  0  0
  5  6  1  0  0  0  0
  6  7  2  0  0  0  0
  7  2  1  0  0  0  0
  7 20  1  0  0  0  0
  8  4  1  0  0  0  0
  9  5  1  0  0  0  0
 10  6  1  0  0  0  0
 11 12  1  0  0  0  0
 12 18  1  0  0  0  0
 12 13  2  0  0  0  0
 13 19  1  0  0  0  0
 14 13  1  0  0  0  0
 15 14  2  0  0  0  0
 16 11  2  0  0  0  0
 16 15  1  0  0  0  0
 17 11  1  0  0  0  0
 20 27  1  0  0  0  0
 21 20  2  0  0  0  0
 21 23  1  0  0  0  0
 22 21  1  0  0  0  0
 23 24  1  0  0  0  0
 23 25  2  0  0  0  0
 25 26  1  0  0  0  0
 27 25  1  0  0  0  0
M  END
>  <minimizedAffinity>
-4.74749279

$$$$

 OpenBabel03252505223D

 27 29  0  0  0  0  0  0  0  0999 V2000
   37.8410   27.7410   39.5880 F   0  0  0  0  0  0  0  0  0  0  0  0
   37.7480   27.9130   40.9260 C   0  0  0  0  0  0  0  0  0  0  0  0
   37.7040   26.7690   41.7170 C   0  0  0  0  0  0  0  0  0  0  0  0
   37.6100   26.9200   43.0680 C   0  0  0  0  0  0  0  0  0  0  0  0
   37.5610   28.1710   43.6310 C   0  0  0  0  0  0  0  0  0  0  0  0
   37.6030   29.3040   42.8690 C   0  0  0  0  0  0  0  0  0  0  0  0
   37.7000   29.1670   41.4670 C   0  0  0  0  0  0  0  0  0  0  0  0
   37.5730   26.0520   43.7180 H   0  0  0  0  0  0  0  0  0  0  0  0
   37.4860   28.2770   44.7150 H   0  0  0  0  0  0  0  0  0  0  0  0
   37.5640   30.2900   43.3110 H   0  0  0  0  0  0  0  0  0  0  0  0
   38.9810   23.6920   40.1910 C   0  0  0  0  0  0  0  0  0  0  0  0
   37.8130   22.9630   39.9010 C   0  0  0  0  0  0  0  0  0  0  0  0
   36.6050   23.5600   40.2450 C   0  0  0  0  0  0  0  0  0  0  0  0
   36.6210   24.7980   40.8330 N   0  0  0  0  0  0  0  0  0  0  0  0
   37.7580   25.4490   41.0860 C   0  0  0  0  0  0  0  0  0  0  0  0
   38.9390   24.9000   40.7670 N   0  0  0  0  0  0  0  0  0  0  0  0
   39.9210   23.2180   39.9190 H   0  0  0  0  0  0  0  0  0  0  0  0
   37.8540   21.9970   39.4400 H   0  0  0  0  0  0  0  0  0  0  0  0
   35.6530   23.0570   40.0520 H   0  0  0  0  0  0  0  0  0  0  0  0
   37.7440   30.3960   40.6740 C   0  0  0  0  0  0  0  0  0  0  0  0
   36.7480   31.3060   40.4770 C   0  0  0  0  0  0  0  0  0  0  0  0
   35.7380   31.3100   40.8580 H   0  0  0  0  0  0  0  0  0  0  0  0
   37.1790   32.3340   39.6650 C   0  0  0  0  0  0  0  0  0  0  0  0
   36.7530   33.2380   39.2560 H   0  0  0  0  0  0  0  0  0  0  0  0
   38.4990   31.9600   39.4010 C   0  0  0  0  0  0  0  0  0  0  0  0
   39.2710   32.4360   38.8080 H   0  0  0  0  0  0  0  0  0  0  0  0
   38.7700   30.8380   40.0070 O   0  0  0  0  0  0  0  0  0  0  0  0
  1  2  1  0  0  0  0
  2  7  2  0  0  0  0
  2  3  1  0  0  0  0
  3  4  2  0  0  0  0
  4  5  1  0  0  0  0
  4  8  1  0  0  0  0
  5  9  1  0  0  0  0
  6 10  1  0  0  0  0
  6  5  2  0  0  0  0
  7  6  1  0  0  0  0
 11 16  1  0  0  0  0
 12 11  2  0  0  0  0
 12 13  1  0  0  0  0
 13 14  2  0  0  0  0
 14 15  1  0  0  0  0
 15  3  1  0  0  0  0
 16 15  2  0  0  0  0
 17 11  1  0  0  0  0
 18 12  1  0  0  0  0
 19 13  1  0  0  0  0
 20  7  1  0  0  0  0
 21 20  2  0  0  0  0
 21 22  1  0  0  0  0
 23 21  1  0  0  0  0
 24 23  1  0  0  0  0
 25 23  2  0  0  0  0
 25 27  1  0  0  0  0
 26 25  1  0  0  0  0
 27 20  1  0  0  0  0
M  END
>  <minimizedAffinity>
-4.72258902

$$$$

 OpenBabel03252505223D

 27 29  0  0  0  0  0  0  0  0999 V2000
   40.1580   30.4900   41.3570 F   0  0  0  0  0  0  0  0  0  0  0  0
   39.1480   31.2280   40.8420 C   0  0  0  0  0  0  0  0  0  0  0  0
   37.8580   30.7250   40.9710 C   0  0  0  0  0  0  0  0  0  0  0  0
   36.8260   31.4530   40.4600 C   0  0  0  0  0  0  0  0  0  0  0  0
   37.0580   32.6530   39.8330 C   0  0  0  0  0  0  0  0  0  0  0  0
   38.3190   33.1600   39.6990 C   0  0  0  0  0  0  0  0  0  0  0  0
   39.4010   32.4200   40.2240 C   0  0  0  0  0  0  0  0  0  0  0  0
   35.8050   31.0940   40.5390 H   0  0  0  0  0  0  0  0  0  0  0  0
   36.2210   33.2260   39.4280 H   0  0  0  0  0  0  0  0  0  0  0  0
   38.5030   34.1060   39.2060 H   0  0  0  0  0  0  0  0  0  0  0  0
   37.4690   28.1920   43.5910 C   0  0  0  0  0  0  0  0  0  0  0  0
   37.2330   27.0080   42.8670 C   0  0  0  0  0  0  0  0  0  0  0  0
   37.2140   27.1200   41.4810 C   0  0  0  0  0  0  0  0  0  0  0  0
   37.4230   28.3480   40.9110 N   0  0  0  0  0  0  0  0  0  0  0  0
   37.6430   29.4420   41.6440 C   0  0  0  0  0  0  0  0  0  0  0  0
   37.6660   29.3680   42.9820 N   0  0  0  0  0  0  0  0  0  0  0  0
   37.4810   28.0960   44.6740 H   0  0  0  0  0  0  0  0  0  0  0  0
   37.0750   26.0710   43.3600 H   0  0  0  0  0  0  0  0  0  0  0  0
   37.0380   26.2450   40.8470 H   0  0  0  0  0  0  0  0  0  0  0  0
   40.7400   32.9860   40.0670 C   0  0  0  0  0  0  0  0  0  0  0  0
   41.4010   33.2790   38.9100 C   0  0  0  0  0  0  0  0  0  0  0  0
   41.0780   33.1560   37.8880 H   0  0  0  0  0  0  0  0  0  0  0  0
   42.6480   33.8010   39.1770 C   0  0  0  0  0  0  0  0  0  0  0  0
   43.4850   34.1610   38.5980 H   0  0  0  0  0  0  0  0  0  0  0  0
   42.6710   33.7950   40.5740 C   0  0  0  0  0  0  0  0  0  0  0  0
   43.4340   34.1080   41.2780 H   0  0  0  0  0  0  0  0  0  0  0  0
   41.5480   33.3160   41.0320 O   0  0  0  0  0  0  0  0  0  0  0  0
  2  3  1  0  0  0  0
  2  1  1  0  0  0  0
  3 15  1  0  0  0  0
  4  8  1  0  0  0  0
  4  3  2  0  0  0  0
  5  4  1  0  0  0  0
  6  5  2  0  0  0  0
  6  7  1  0  0  0  0
  7  2  2  0  0  0  0
  9  5  1  0  0  0  0
 10  6  1  0  0  0  0
 11 17  1  0  0  0  0
 12 18  1  0  0  0  0
 12 11  2  0  0  0  0
 13 12  1  0  0  0  0
 14 13  2  0  0  0  0
 14 15  1  0  0  0  0
 15 16  2  0  0  0  0
 16 11  1  0  0  0  0
 19 13  1  0  0  0  0
 20  7  1  0  0  0  0
 20 27  1  0  0  0  0
 21 23  1  0  0  0  0
 21 20  2  0  0  0  0
 22 21  1  0  0  0  0
 23 25  2  0  0  0  0
 24 23  1  0  0  0  0
 25 27  1  0  0  0  0
 25 26  1  0  0  0  0
M  END
>  <minimizedAffinity>
-4.69253683

$$$$

 OpenBabel03252505223D

 27 29  0  0  0  0  0  0  0  0999 V2000
   39.8360   29.7090   40.0130 F   0  0  0  0  0  0  0  0  0  0  0  0
   38.9090   30.6870   39.9090 C   0  0  0  0  0  0  0  0  0  0  0  0
   37.7380   30.5400   40.6450 C   0  0  0  0  0  0  0  0  0  0  0  0
   36.7900   31.5150   40.5550 C   0  0  0  0  0  0  0  0  0  0  0  0
   36.9900   32.6140   39.7560 C   0  0  0  0  0  0  0  0  0  0  0  0
   38.1350   32.7740   39.0270 C   0  0  0  0  0  0  0  0  0  0  0  0
   39.1280   31.7740   39.1090 C   0  0  0  0  0  0  0  0  0  0  0  0
   35.8630   31.4360   41.1130 H   0  0  0  0  0  0  0  0  0  0  0  0
   36.2220   33.3880   39.6940 H   0  0  0  0  0  0  0  0  0  0  0  0
   38.2930   33.6390   38.3990 H   0  0  0  0  0  0  0  0  0  0  0  0
   36.9870   27.1180   41.7210 C   0  0  0  0  0  0  0  0  0  0  0  0
   37.2230   27.1540   43.1080 C   0  0  0  0  0  0  0  0  0  0  0  0
   37.6380   28.3710   43.6380 C   0  0  0  0  0  0  0  0  0  0  0  0
   37.7910   29.4430   42.7980 N   0  0  0  0  0  0  0  0  0  0  0  0
   37.5540   29.3560   41.4870 C   0  0  0  0  0  0  0  0  0  0  0  0
   37.1530   28.1970   40.9450 N   0  0  0  0  0  0  0  0  0  0  0  0
   36.6630   26.1630   41.3150 H   0  0  0  0  0  0  0  0  0  0  0  0
   37.0880   26.2870   43.7230 H   0  0  0  0  0  0  0  0  0  0  0  0
   37.8400   28.4800   44.7070 H   0  0  0  0  0  0  0  0  0  0  0  0
   40.3430   31.9690   38.3200 C   0  0  0  0  0  0  0  0  0  0  0  0
   41.1520   33.0670   38.2770 C   0  0  0  0  0  0  0  0  0  0  0  0
   41.0650   34.0020   38.8080 H   0  0  0  0  0  0  0  0  0  0  0  0
   42.2040   32.8660   37.4090 C   0  0  0  0  0  0  0  0  0  0  0  0
   43.0570   33.4350   37.0700 H   0  0  0  0  0  0  0  0  0  0  0  0
   41.9540   31.5720   36.9460 C   0  0  0  0  0  0  0  0  0  0  0  0
   42.4930   30.9490   36.2420 H   0  0  0  0  0  0  0  0  0  0  0  0
   40.8710   31.1050   37.5030 O   0  0  0  0  0  0  0  0  0  0  0  0
  2  1  1  0  0  0  0
  2  3  1  0  0  0  0
  3 15  1  0  0  0  0
  4  3  2  0  0  0  0
  4  8  1  0  0  0  0
  5  4  1  0  0  0  0
  6  7  1  0  0  0  0
  6  5  2  0  0  0  0
  7  2  2  0  0  0  0
  9  5  1  0  0  0  0
 10  6  1  0  0  0  0
 11 12  1  0  0  0  0
 12 13  2  0  0  0  0
 12 18  1  0  0  0  0
 13 19  1  0  0  0  0
 14 13  1  0  0  0  0
 15 14  2  0  0  0  0
 16 15  1  0  0  0  0
 16 11  2  0  0  0  0
 17 11  1  0  0  0  0
 20  7  1  0  0  0  0
 21 20  2  0  0  0  0
 21 22  1  0  0  0  0
 23 21  1  0  0  0  0
 24 23  1  0  0  0  0
 25 23  2  0  0  0  0
 25 27  1  0  0  0  0
 26 25  1  0  0  0  0
 27 20  1  0  0  0  0
M  END
>  <minimizedAffinity>
-4.69099855

$$$$

 OpenBabel03252505223D

 27 29  0  0  0  0  0  0  0  0999 V2000
   39.8950   28.9050   41.1260 F   0  0  0  0  0  0  0  0  0  0  0  0
   38.8100   28.3880   41.7460 C   0  0  0  0  0  0  0  0  0  0  0  0
   37.5810   28.9880   41.4920 C   0  0  0  0  0  0  0  0  0  0  0  0
   36.4750   28.4820   42.1070 C   0  0  0  0  0  0  0  0  0  0  0  0
   36.5760   27.4070   42.9560 C   0  0  0  0  0  0  0  0  0  0  0  0
   37.7760   26.8070   43.2160 C   0  0  0  0  0  0  0  0  0  0  0  0
   38.9320   27.3170   42.5870 C   0  0  0  0  0  0  0  0  0  0  0  0
   35.4990   28.9220   41.9350 H   0  0  0  0  0  0  0  0  0  0  0  0
   35.6810   27.0110   43.4410 H   0  0  0  0  0  0  0  0  0  0  0  0
   37.8560   25.9600   43.8830 H   0  0  0  0  0  0  0  0  0  0  0  0
   37.1300   31.0030   38.4650 C   0  0  0  0  0  0  0  0  0  0  0  0
   37.3770   32.3160   38.9080 C   0  0  0  0  0  0  0  0  0  0  0  0
   37.6960   32.4690   40.2530 C   0  0  0  0  0  0  0  0  0  0  0  0
   37.7500   31.3580   41.0530 N   0  0  0  0  0  0  0  0  0  0  0  0
   37.5070   30.1330   40.5820 C   0  0  0  0  0  0  0  0  0  0  0  0
   37.1960   29.9510   39.2910 N   0  0  0  0  0  0  0  0  0  0  0  0
   36.8810   30.8910   37.4120 H   0  0  0  0  0  0  0  0  0  0  0  0
   37.3220   33.1520   38.2410 H   0  0  0  0  0  0  0  0  0  0  0  0
   37.9020   33.4580   40.6730 H   0  0  0  0  0  0  0  0  0  0  0  0
   40.2030   26.6570   42.8820 C   0  0  0  0  0  0  0  0  0  0  0  0
   41.2380   27.1220   43.6390 C   0  0  0  0  0  0  0  0  0  0  0  0
   41.3330   28.0570   44.1690 H   0  0  0  0  0  0  0  0  0  0  0  0
   42.2660   26.2040   43.6800 C   0  0  0  0  0  0  0  0  0  0  0  0
   43.2420   26.1430   44.1370 H   0  0  0  0  0  0  0  0  0  0  0  0
   41.7590   25.1670   42.8920 C   0  0  0  0  0  0  0  0  0  0  0  0
   42.1830   24.2100   42.6120 H   0  0  0  0  0  0  0  0  0  0  0  0
   40.5690   25.4820   42.4600 O   0  0  0  0  0  0  0  0  0  0  0  0
  1  2  1  0  0  0  0
  2  7  1  0  0  0  0
  3  2  2  0  0  0  0
  3  4  1  0  0  0  0
  4  5  2  0  0  0  0
  5  6  1  0  0  0  0
  5  9  1  0  0  0  0
  6 10  1  0  0  0  0
  7 20  1  0  0  0  0
  7  6  2  0  0  0  0
  8  4  1  0  0  0  0
 11 12  2  0  0  0  0
 11 16  1  0  0  0  0
 12 13  1  0  0  0  0
 13 19  1  0  0  0  0
 13 14  2  0  0  0  0
 15 14  1  0  0  0  0
 15  3  1  0  0  0  0
 16 15  2  0  0  0  0
 17 11  1  0  0  0  0
 18 12  1  0  0  0  0
 20 21  2  0  0  0  0
 21 23  1  0  0  0  0
 21 22  1  0  0  0  0
 23 24  1  0  0  0  0
 25 23  2  0  0  0  0
 26 25  1  0  0  0  0
 27 20  1  0  0  0  0
 27 25  1  0  0  0  0
M  END
>  <minimizedAffinity>
-4.65588903

$$$$
