
 OpenBabel03252504143D

 34 36  0  0  0  0  0  0  0  0999 V2000
   47.7200   30.0590   44.9190 F   0  0  0  0  0  0  0  0  0  0  0  0
   47.5550   30.8230   46.0470 C   0  0  0  0  0  0  0  0  0  0  0  0
   46.9460   32.0520   45.9510 C   0  0  0  0  0  0  0  0  0  0  0  0
   46.8200   32.7590   47.1460 C   0  0  0  0  0  0  0  0  0  0  0  0
   47.2780   32.2520   48.3390 C   0  0  0  0  0  0  0  0  0  0  0  0
   47.8800   31.0050   48.3550 C   0  0  0  0  0  0  0  0  0  0  0  0
   48.0370   30.2520   47.2070 C   0  0  0  0  0  0  0  0  0  0  0  0
   46.3440   33.7420   47.1230 H   0  0  0  0  0  0  0  0  0  0  0  0
   47.1790   32.8000   49.2590 H   0  0  0  0  0  0  0  0  0  0  0  0
   48.2490   30.5840   49.2820 H   0  0  0  0  0  0  0  0  0  0  0  0
   48.6700   28.9380   47.2150 C   0  0  0  0  0  0  0  0  0  0  0  0
   50.0170   28.7400   46.9870 C   0  0  0  0  0  0  0  0  0  0  0  0
   50.7380   29.4980   46.7840 H   0  0  0  0  0  0  0  0  0  0  0  0
   50.1480   27.3550   47.0930 C   0  0  0  0  0  0  0  0  0  0  0  0
   51.0890   26.8160   46.9710 H   0  0  0  0  0  0  0  0  0  0  0  0
   48.9080   26.8010   47.3710 C   0  0  0  0  0  0  0  0  0  0  0  0
   48.6550   25.7600   47.5150 H   0  0  0  0  0  0  0  0  0  0  0  0
   48.0690   27.8160   47.4290 O   0  0  0  0  0  0  0  0  0  0  0  0
   46.7700   34.1130   42.9610 C   0  0  0  0  0  0  0  0  0  0  0  0
   45.6310   33.6580   42.2930 C   0  0  0  0  0  0  0  0  0  0  0  0
   44.9160   32.6110   42.9030 C   0  0  0  0  0  0  0  0  0  0  0  0
   45.3480   32.0990   44.0840 N   0  0  0  0  0  0  0  0  0  0  0  0
   46.4620   32.5850   44.6820 C   0  0  0  0  0  0  0  0  0  0  0  0
   47.1710   33.5910   44.1220 N   0  0  0  0  0  0  0  0  0  0  0  0
   44.0290   32.2370   42.4090 H   0  0  0  0  0  0  0  0  0  0  0  0
   45.2290   34.2690   41.0110 C   0  0  0  0  0  0  0  0  0  0  0  0
   44.9140   35.5940   41.2030 F   0  0  0  0  0  0  0  0  0  0  0  0
   46.3260   34.2290   40.1590 F   0  0  0  0  0  0  0  0  0  0  0  0
   44.1870   33.6630   40.3980 F   0  0  0  0  0  0  0  0  0  0  0  0
   47.4610   35.1270   42.3690 O   0  0  0  0  0  0  0  0  0  0  0  0
   48.7790   35.0610   41.8600 C   0  0  0  0  0  0  0  0  0  0  0  0
   49.6290   35.3780   42.9240 F   0  0  0  0  0  0  0  0  0  0  0  0
   49.0260   33.8250   41.3260 F   0  0  0  0  0  0  0  0  0  0  0  0
   48.9780   36.0770   40.9520 F   0  0  0  0  0  0  0  0  0  0  0  0
  1  2  1  0  0  0  0
  2  7  1  0  0  0  0
  3  2  2  0  0  0  0
  3  4  1  0  0  0  0
  4  5  2  0  0  0  0
  5  6  1  0  0  0  0
  5  9  1  0  0  0  0
  6 10  1  0  0  0  0
  7 11  1  0  0  0  0
  7  6  2  0  0  0  0
  8  4  1  0  0  0  0
 11 18  1  0  0  0  0
 12 14  1  0  0  0  0
 12 11  2  0  0  0  0
 13 12  1  0  0  0  0
 14 16  2  0  0  0  0
 15 14  1  0  0  0  0
 16 18  1  0  0  0  0
 16 17  1  0  0  0  0
 19 24  1  0  0  0  0
 20 21  1  0  0  0  0
 20 19  2  0  0  0  0
 21 22  2  0  0  0  0
 22 23  1  0  0  0  0
 23  3  1  0  0  0  0
 24 23  2  0  0  0  0
 25 21  1  0  0  0  0
 26 27  1  0  0  0  0
 26 20  1  0  0  0  0
 28 26  1  0  0  0  0
 29 26  1  0  0  0  0
 30 19  1  0  0  0  0
 31 30  1  0  0  0  0
 31 32  1  0  0  0  0
 33 31  1  0  0  0  0
 34 31  1  0  0  0  0
M  END
>  <minimizedAffinity>
-5.51471996

>  <minimizedRMSD>
0.563559711

$$$$
