
 OpenBabel03242516503D

 42 45  0  0  1  0  0  0  0  0999 V2000
   47.8390   32.8880   41.7250 C   0  0  1  0  0  0  0  0  0  0  0  0
   47.4740   32.1890   40.4770 C   0  0  0  0  0  0  0  0  0  0  0  0
   48.4990   32.6510   39.4340 C   0  0  0  0  0  0  0  0  0  0  0  0
   48.1670   34.1040   39.1380 C   0  0  0  0  0  0  0  0  0  0  0  0
   48.1670   34.9770   40.3560 C   0  0  0  0  0  0  0  0  0  0  0  0
   47.6790   34.3910   41.6140 C   0  0  1  0  0  0  0  0  0  0  0  0
   48.9510   32.7610   41.8960 H   0  0  0  0  0  0  0  0  0  0  0  0
   46.4740   32.4210   40.0980 H   0  0  0  0  0  0  0  0  0  0  0  0
   47.6000   31.0880   40.6480 H   0  0  0  0  0  0  0  0  0  0  0  0
   49.5180   32.5130   39.7930 H   0  0  0  0  0  0  0  0  0  0  0  0
   48.2610   32.0790   38.5100 H   0  0  0  0  0  0  0  0  0  0  0  0
   48.8820   34.5120   38.3980 H   0  0  0  0  0  0  0  0  0  0  0  0
   47.1750   34.0940   38.6380 H   0  0  0  0  0  0  0  0  0  0  0  0
   49.2100   35.3730   40.4620 H   0  0  0  0  0  0  0  0  0  0  0  0
   47.5460   35.8830   40.1120 H   0  0  0  0  0  0  0  0  0  0  0  0
   48.3020   34.8060   42.4650 H   0  0  0  0  0  0  0  0  0  0  0  0
   45.4510   31.0460   43.9980 C   0  0  0  0  0  0  0  0  0  0  0  0
   46.1090   31.5390   42.8740 C   0  0  0  0  0  0  0  0  0  0  0  0
   47.1950   32.3980   42.9370 C   0  0  0  0  0  0  0  0  0  0  0  0
   47.5930   32.7410   44.1730 N   0  0  0  0  0  0  0  0  0  0  0  0
   46.9650   32.2710   45.2770 C   0  0  0  0  0  0  0  0  0  0  0  0
   45.9250   31.4470   45.2040 N   0  0  0  0  0  0  0  0  0  0  0  0
   44.6140   30.3830   43.9210 H   0  0  0  0  0  0  0  0  0  0  0  0
   45.7290   31.2170   41.9120 H   0  0  0  0  0  0  0  0  0  0  0  0
   47.4140   32.6460   46.1930 H   0  0  0  0  0  0  0  0  0  0  0  0
   46.3060   34.8050   41.9500 C   0  0  0  0  0  0  0  0  0  0  0  0
   45.8930   35.4880   43.1000 C   0  0  0  0  0  0  0  0  0  0  0  0
   44.5240   35.7920   43.1710 C   0  0  0  0  0  0  0  0  0  0  0  0
   43.7160   35.4020   42.1320 C   0  0  0  0  0  0  0  0  0  0  0  0
   44.1370   34.7300   41.0070 C   0  0  0  0  0  0  0  0  0  0  0  0
   45.4530   34.4390   40.9390 N   0  0  0  0  0  0  0  0  0  0  0  0
   46.6660   35.7070   43.8010 H   0  0  0  0  0  0  0  0  0  0  0  0
   44.2320   36.3090   44.0490 H   0  0  0  0  0  0  0  0  0  0  0  0
   42.6690   35.6790   42.2710 H   0  0  0  0  0  0  0  0  0  0  0  0
   43.1890   34.3600   39.9520 C   0  0  0  0  0  0  0  0  0  0  0  0
   42.2360   35.2100   39.4260 C   0  0  0  0  0  0  0  0  0  0  0  0
   41.9990   36.2420   39.6570 H   0  0  0  0  0  0  0  0  0  0  0  0
   41.6040   34.4030   38.4790 C   0  0  0  0  0  0  0  0  0  0  0  0
   40.7840   34.6680   37.8230 H   0  0  0  0  0  0  0  0  0  0  0  0
   42.1940   33.1380   38.4810 C   0  0  0  0  0  0  0  0  0  0  0  0
   41.9780   32.2570   37.8920 H   0  0  0  0  0  0  0  0  0  0  0  0
   43.1420   33.1940   39.3970 O   0  0  0  0  0  0  0  0  0  0  0  0
  1  7  1  1  0  0  0
  1 19  1  0  0  0  0
  2  9  1  0  0  0  0
  2  1  1  0  0  0  0
  3 10  1  0  0  0  0
  3  2  1  0  0  0  0
  4  3  1  0  0  0  0
  4  5  1  0  0  0  0
  5 14  1  0  0  0  0
  5  6  1  0  0  0  0
  6  1  1  0  0  0  0
  6 26  1  0  0  0  0
  6 16  1  1  0  0  0
  8  2  1  0  0  0  0
 11  3  1  0  0  0  0
 12  4  1  0  0  0  0
 13  4  1  0  0  0  0
 15  5  1  0  0  0  0
 17 22  1  0  0  0  0
 18 19  1  0  0  0  0
 18 17  2  0  0  0  0
 19 20  2  0  0  0  0
 20 21  1  0  0  0  0
 21 25  1  0  0  0  0
 22 21  2  0  0  0  0
 23 17  1  0  0  0  0
 24 18  1  0  0  0  0
 26 27  1  0  0  0  0
 27 28  2  0  0  0  0
 27 32  1  0  0  0  0
 28 33  1  0  0  0  0
 29 34  1  0  0  0  0
 29 28  1  0  0  0  0
 30 29  2  0  0  0  0
 31 30  1  0  0  0  0
 31 26  2  0  0  0  0
 35 30  1  0  0  0  0
 36 37  1  0  0  0  0
 36 35  2  0  0  0  0
 38 40  2  0  0  0  0
 38 36  1  0  0  0  0
 39 38  1  0  0  0  0
 40 42  1  0  0  0  0
 41 40  1  0  0  0  0
 42 35  1  0  0  0  0
M  END
>  <minimizedAffinity>
-5.49629879

>  <minimizedRMSD>
0.428813487

$$$$
