
 OpenBabel03242515053D

 38 40  0  0  0  0  0  0  0  0999 V2000
   44.9830   34.6550   42.2680 C   0  0  0  0  0  0  0  0  0  0  0  0
   46.2760   34.3310   41.8570 C   0  0  0  0  0  0  0  0  0  0  0  0
   47.2300   33.9850   42.8300 C   0  0  0  0  0  0  0  0  0  0  0  0
   46.8240   33.9920   44.1150 N   0  0  0  0  0  0  0  0  0  0  0  0
   45.5710   34.3080   44.4930 C   0  0  0  0  0  0  0  0  0  0  0  0
   44.6790   34.6320   43.5640 N   0  0  0  0  0  0  0  0  0  0  0  0
   46.6090   34.3210   40.8440 H   0  0  0  0  0  0  0  0  0  0  0  0
   48.5980   33.6360   42.4620 C   0  0  0  0  0  0  0  0  0  0  0  0
   49.6950   34.4170   42.7580 C   0  0  0  0  0  0  0  0  0  0  0  0
   49.7340   35.3620   43.2800 H   0  0  0  0  0  0  0  0  0  0  0  0
   50.7490   33.6740   42.2110 C   0  0  0  0  0  0  0  0  0  0  0  0
   51.7940   33.9510   42.2320 H   0  0  0  0  0  0  0  0  0  0  0  0
   50.2390   32.5150   41.6290 C   0  0  0  0  0  0  0  0  0  0  0  0
   50.7530   31.7120   41.1160 H   0  0  0  0  0  0  0  0  0  0  0  0
   48.9360   32.5560   41.8170 O   0  0  0  0  0  0  0  0  0  0  0  0
   45.2640   34.2750   45.9110 C   0  0  0  0  0  0  0  0  0  0  0  0
   44.3740   35.0410   46.3390 O   0  0  0  0  0  0  0  0  0  0  0  0
   46.0150   33.3540   46.7230 N   0  0  0  0  0  0  0  0  0  0  0  0
   45.7180   32.4580   47.1730 H   0  0  0  0  0  0  0  0  0  0  0  0
   47.0070   33.6230   46.8870 H   0  0  0  0  0  0  0  0  0  0  0  0
   43.8350   35.0850   40.9700 S   0  0  0  0  0  0  0  0  0  0  0  0
   42.1190   34.9090   41.4740 C   0  0  0  0  0  0  0  0  0  0  0  0
   42.0770   35.0640   42.5760 H   0  0  0  0  0  0  0  0  0  0  0  0
   41.8090   33.8570   41.2160 H   0  0  0  0  0  0  0  0  0  0  0  0
   41.1870   35.8690   40.8180 C   0  0  0  0  0  0  0  0  0  0  0  0
   41.7110   36.7150   40.3260 H   0  0  0  0  0  0  0  0  0  0  0  0
   40.5470   36.3300   41.6170 H   0  0  0  0  0  0  0  0  0  0  0  0
   42.0060   36.1000   37.9050 Cl  0  0  0  0  0  0  0  0  0  0  0  0
   40.6140   35.2300   38.4610 C   0  0  0  0  0  0  0  0  0  0  0  0
   40.3290   35.1890   39.8290 C   0  0  0  0  0  0  0  0  0  0  0  0
   39.2050   34.4770   40.1930 C   0  0  0  0  0  0  0  0  0  0  0  0
   38.3340   33.8030   39.3430 C   0  0  0  0  0  0  0  0  0  0  0  0
   38.6520   33.8690   37.9980 C   0  0  0  0  0  0  0  0  0  0  0  0
   37.6090   33.0460   36.8380 Cl  0  0  0  0  0  0  0  0  0  0  0  0
   39.7620   34.5640   37.5760 C   0  0  0  0  0  0  0  0  0  0  0  0
   38.9860   34.4470   41.2540 H   0  0  0  0  0  0  0  0  0  0  0  0
   37.4860   33.2790   39.7350 H   0  0  0  0  0  0  0  0  0  0  0  0
   39.9870   34.6000   36.5170 H   0  0  0  0  0  0  0  0  0  0  0  0
  1  6  1  0  0  0  0
  2  1  2  0  0  0  0
  2  3  1  0  0  0  0
  3  4  2  0  0  0  0
  4  5  1  0  0  0  0
  5 16  1  0  0  0  0
  6  5  2  0  0  0  0
  7  2  1  0  0  0  0
  8  9  2  0  0  0  0
  8  3  1  0  0  0  0
  9 10  1  0  0  0  0
 11 12  1  0  0  0  0
 11  9  1  0  0  0  0
 13 15  1  0  0  0  0
 13 11  2  0  0  0  0
 14 13  1  0  0  0  0
 15  8  1  0  0  0  0
 16 17  2  0  0  0  0
 16 18  1  0  0  0  0
 18 20  1  0  0  0  0
 18 19  1  0  0  0  0
 21 22  1  0  0  0  0
 21  1  1  0  0  0  0
 22 23  1  0  0  0  0
 24 22  1  0  0  0  0
 25 22  1  0  0  0  0
 25 27  1  0  0  0  0
 26 25  1  0  0  0  0
 28 29  1  0  0  0  0
 29 30  1  0  0  0  0
 30 31  2  0  0  0  0
 30 25  1  0  0  0  0
 31 36  1  0  0  0  0
 32 37  1  0  0  0  0
 32 31  1  0  0  0  0
 33 32  2  0  0  0  0
 34 33  1  0  0  0  0
 35 33  1  0  0  0  0
 35 29  2  0  0  0  0
 38 35  1  0  0  0  0
M  END
>  <minimizedAffinity>
-6.96359968

>  <minimizedRMSD>
0.472901702

$$$$
