
 OpenBabel03242518193D

 29 31  0  0  0  0  0  0  0  0999 V2000
   45.6460   34.5550   44.0650 C   0  0  0  0  0  0  0  0  0  0  0  0
   44.8440   34.9590   45.1010 C   0  0  0  0  0  0  0  0  0  0  0  0
   45.1860   34.1860   46.2130 C   0  0  0  0  0  0  0  0  0  0  0  0
   46.1930   33.3480   45.7690 C   0  0  0  0  0  0  0  0  0  0  0  0
   46.4110   33.6110   44.5230 O   0  0  0  0  0  0  0  0  0  0  0  0
   44.0720   35.7190   45.1350 H   0  0  0  0  0  0  0  0  0  0  0  0
   44.7230   34.2690   47.2010 H   0  0  0  0  0  0  0  0  0  0  0  0
   46.8390   32.3660   46.6320 C   0  0  0  0  0  0  0  0  0  0  0  0
   47.2170   32.4790   47.9550 C   0  0  0  0  0  0  0  0  0  0  0  0
   47.0420   33.4000   48.5030 H   0  0  0  0  0  0  0  0  0  0  0  0
   47.8010   31.2730   48.3570 C   0  0  0  0  0  0  0  0  0  0  0  0
   48.1660   31.1400   49.3480 H   0  0  0  0  0  0  0  0  0  0  0  0
   47.7370   30.4900   47.2240 C   0  0  0  0  0  0  0  0  0  0  0  0
   48.1270   29.4690   47.2330 H   0  0  0  0  0  0  0  0  0  0  0  0
   47.1750   31.1440   46.2330 O   0  0  0  0  0  0  0  0  0  0  0  0
   45.5970   35.1450   42.6710 C   0  0  0  0  0  0  0  0  0  0  0  0
   45.7340   36.2310   42.6940 H   0  0  0  0  0  0  0  0  0  0  0  0
   46.4310   34.7060   42.0530 H   0  0  0  0  0  0  0  0  0  0  0  0
   42.8530   33.1060   41.3700 C   0  0  0  0  0  0  0  0  0  0  0  0
   41.9920   34.0430   40.7590 C   0  0  0  0  0  0  0  0  0  0  0  0
   42.3730   35.3790   40.8060 C   0  0  0  0  0  0  0  0  0  0  0  0
   43.5250   35.7050   41.4200 N   0  0  0  0  0  0  0  0  0  0  0  0
   44.3300   34.7820   41.9970 C   0  0  0  0  0  0  0  0  0  0  0  0
   43.9860   33.4730   41.9680 N   0  0  0  0  0  0  0  0  0  0  0  0
   42.6060   32.0460   41.3660 H   0  0  0  0  0  0  0  0  0  0  0  0
   41.7100   36.0780   40.3370 H   0  0  0  0  0  0  0  0  0  0  0  0
   40.8320   33.5230   40.1650 N   0  0  0  0  0  0  0  0  0  0  0  0
   40.9340   32.6600   39.5690 H   0  0  0  0  0  0  0  0  0  0  0  0
   39.9530   34.0620   40.3790 H   0  0  0  0  0  0  0  0  0  0  0  0
  1  5  1  0  0  0  0
  1  2  2  0  0  0  0
  2  6  1  0  0  0  0
  2  3  1  0  0  0  0
  3  7  1  0  0  0  0
  4  3  2  0  0  0  0
  4  8  1  0  0  0  0
  5  4  1  0  0  0  0
  8  9  2  0  0  0  0
  9 11  1  0  0  0  0
  9 10  1  0  0  0  0
 11 12  1  0  0  0  0
 13 14  1  0  0  0  0
 13 11  2  0  0  0  0
 15  8  1  0  0  0  0
 15 13  1  0  0  0  0
 16 17  1  0  0  0  0
 16  1  1  0  0  0  0
 18 16  1  0  0  0  0
 19 24  1  0  0  0  0
 20 21  1  0  0  0  0
 20 19  2  0  0  0  0
 21 22  2  0  0  0  0
 22 23  1  0  0  0  0
 23 16  1  0  0  0  0
 24 23  2  0  0  0  0
 25 19  1  0  0  0  0
 26 21  1  0  0  0  0
 27 29  1  0  0  0  0
 27 20  1  0  0  0  0
 28 27  1  0  0  0  0
M  END
>  <minimizedAffinity>
-4.7892499

>  <minimizedRMSD>
4.43797445

$$$$
