
 OpenBabel03252506563D

 37 41  0  0  0  0  0  0  0  0999 V2000
   47.2030   31.2990   45.1540 C   0  0  0  0  0  0  0  0  0  0  0  0
   46.8870   32.6500   45.1170 C   0  0  0  0  0  0  0  0  0  0  0  0
   46.3130   33.3140   46.1750 C   0  0  0  0  0  0  0  0  0  0  0  0
   46.0220   32.6310   47.3550 C   0  0  0  0  0  0  0  0  0  0  0  0
   45.4750   32.9390   48.5680 N   0  0  0  0  0  0  0  0  0  0  0  0
   45.4540   31.8160   49.3290 C   0  0  0  0  0  0  0  0  0  0  0  0
   45.9890   30.8230   48.5790 N   0  0  0  0  0  0  0  0  0  0  0  0
   46.3440   31.2970   47.3630 C   0  0  0  0  0  0  0  0  0  0  0  0
   46.9130   30.6060   46.3360 C   0  0  0  0  0  0  0  0  0  0  0  0
   47.6530   30.8010   44.3100 H   0  0  0  0  0  0  0  0  0  0  0  0
   46.0620   34.3730   46.1530 H   0  0  0  0  0  0  0  0  0  0  0  0
   45.1490   33.9050   48.7960 H   0  0  0  0  0  0  0  0  0  0  0  0
   45.0650   31.8110   50.3330 H   0  0  0  0  0  0  0  0  0  0  0  0
   46.6150   35.1260   42.3990 C   0  0  0  0  0  0  0  0  0  0  0  0
   47.7300   34.8180   41.6110 C   0  0  0  0  0  0  0  0  0  0  0  0
   48.5620   33.7730   42.0100 C   0  0  0  0  0  0  0  0  0  0  0  0
   48.2510   33.0910   43.1610 N   0  0  0  0  0  0  0  0  0  0  0  0
   47.1740   33.4080   43.8990 C   0  0  0  0  0  0  0  0  0  0  0  0
   46.3530   34.4180   43.5300 N   0  0  0  0  0  0  0  0  0  0  0  0
   45.9860   35.9420   42.0660 H   0  0  0  0  0  0  0  0  0  0  0  0
   47.9970   35.3350   40.7060 H   0  0  0  0  0  0  0  0  0  0  0  0
   49.4420   33.4560   41.4770 H   0  0  0  0  0  0  0  0  0  0  0  0
   47.2190   29.1770   46.4530 C   0  0  0  0  0  0  0  0  0  0  0  0
   48.4770   28.6370   46.3370 C   0  0  0  0  0  0  0  0  0  0  0  0
   48.2940   27.2620   46.5160 C   0  0  0  0  0  0  0  0  0  0  0  0
   46.9500   27.0530   46.7280 C   0  0  0  0  0  0  0  0  0  0  0  0
   46.3470   28.2430   46.6790 O   0  0  0  0  0  0  0  0  0  0  0  0
   49.4380   29.1000   46.1500 H   0  0  0  0  0  0  0  0  0  0  0  0
   49.0130   26.4580   46.5050 H   0  0  0  0  0  0  0  0  0  0  0  0
   46.1930   25.8270   46.9710 C   0  0  0  0  0  0  0  0  0  0  0  0
   44.8010   25.8130   46.8460 C   0  0  0  0  0  0  0  0  0  0  0  0
   44.1360   26.6460   46.5740 H   0  0  0  0  0  0  0  0  0  0  0  0
   44.3250   24.5480   47.1250 C   0  0  0  0  0  0  0  0  0  0  0  0
   43.3420   24.1190   47.1440 H   0  0  0  0  0  0  0  0  0  0  0  0
   45.4760   23.8420   47.4100 C   0  0  0  0  0  0  0  0  0  0  0  0
   45.6550   22.8190   47.6870 H   0  0  0  0  0  0  0  0  0  0  0  0
   46.5500   24.6110   47.3130 O   0  0  0  0  0  0  0  0  0  0  0  0
  1  9  1  0  0  0  0
  2  1  2  0  0  0  0
  2  3  1  0  0  0  0
  3  4  2  0  0  0  0
  4  8  1  0  0  0  0
  4  5  1  0  0  0  0
  5 12  1  0  0  0  0
  5  6  1  0  0  0  0
  6 13  1  0  0  0  0
  7  6  2  0  0  0  0
  8  7  1  0  0  0  0
  9 23  1  0  0  0  0
  9  8  2  0  0  0  0
 10  1  1  0  0  0  0
 11  3  1  0  0  0  0
 14 19  1  0  0  0  0
 15 16  1  0  0  0  0
 15 14  2  0  0  0  0
 16 17  2  0  0  0  0
 17 18  1  0  0  0  0
 18  2  1  0  0  0  0
 19 18  2  0  0  0  0
 20 14  1  0  0  0  0
 21 15  1  0  0  0  0
 22 16  1  0  0  0  0
 23 27  1  0  0  0  0
 24 23  2  0  0  0  0
 24 25  1  0  0  0  0
 25 26  2  0  0  0  0
 26 30  1  0  0  0  0
 27 26  1  0  0  0  0
 28 24  1  0  0  0  0
 29 25  1  0  0  0  0
 30 37  1  0  0  0  0
 31 30  2  0  0  0  0
 31 33  1  0  0  0  0
 32 31  1  0  0  0  0
 33 34  1  0  0  0  0
 33 35  2  0  0  0  0
 35 36  1  0  0  0  0
 37 35  1  0  0  0  0
M  END
>  <minimizedAffinity>
-5.51840782

>  <minimizedRMSD>
0.505192041

$$$$
