
 OpenBabel03252508543D

 42 45  0  0  1  0  0  0  0  0999 V2000
   43.2740   34.4040   40.7130 C   0  0  0  0  0  0  0  0  0  0  0  0
   43.2310   35.5520   40.1870 O   0  0  0  0  0  0  0  0  0  0  0  0
   41.9080   33.9850   40.5040 N   0  0  0  0  0  0  0  0  0  0  0  0
   41.4760   33.9160   39.1250 C   0  0  0  0  0  0  0  0  0  0  0  0
   40.6900   35.2210   38.8910 C   0  0  0  0  0  0  0  0  0  0  0  0
   39.9450   35.5000   40.1860 C   0  0  0  0  0  0  0  0  0  0  0  0
   39.5940   34.2060   40.9270 C   0  0  0  0  0  0  0  0  0  0  0  0
   40.8800   33.6170   41.4780 C   0  0  1  0  0  0  0  0  0  0  0  0
   40.8050   33.0390   38.9850 H   0  0  0  0  0  0  0  0  0  0  0  0
   42.3030   33.8970   38.4100 H   0  0  0  0  0  0  0  0  0  0  0  0
   41.4170   36.0380   38.6910 H   0  0  0  0  0  0  0  0  0  0  0  0
   39.9540   35.0810   38.0810 H   0  0  0  0  0  0  0  0  0  0  0  0
   39.0590   36.1150   40.0240 H   0  0  0  0  0  0  0  0  0  0  0  0
   40.6100   36.0830   40.8830 H   0  0  0  0  0  0  0  0  0  0  0  0
   39.1540   33.4930   40.2330 H   0  0  0  0  0  0  0  0  0  0  0  0
   38.9340   34.5330   41.7570 H   0  0  0  0  0  0  0  0  0  0  0  0
   41.1210   34.2070   42.3920 H   0  0  0  0  0  0  0  0  0  0  0  0
   40.8220   32.1760   41.7090 C   0  0  0  0  0  0  0  0  0  0  0  0
   41.8520   31.3140   42.0480 C   0  0  0  0  0  0  0  0  0  0  0  0
   42.8840   31.5780   42.2010 H   0  0  0  0  0  0  0  0  0  0  0  0
   41.2570   30.0720   42.1430 C   0  0  0  0  0  0  0  0  0  0  0  0
   41.7320   29.1310   42.3910 H   0  0  0  0  0  0  0  0  0  0  0  0
   39.9010   30.2630   41.8530 C   0  0  0  0  0  0  0  0  0  0  0  0
   39.1530   29.4750   41.8430 H   0  0  0  0  0  0  0  0  0  0  0  0
   39.6620   31.5450   41.5930 O   0  0  0  0  0  0  0  0  0  0  0  0
   44.3410   33.7720   41.3030 O   0  0  0  0  0  0  0  0  0  0  0  0
   45.6700   34.0980   41.1360 C   0  0  0  0  0  0  0  0  0  0  0  0
   46.3250   34.7320   42.2030 C   0  0  0  0  0  0  0  0  0  0  0  0
   47.6830   35.0480   41.9930 C   0  0  0  0  0  0  0  0  0  0  0  0
   48.2620   34.7250   40.7920 N   0  0  0  0  0  0  0  0  0  0  0  0
   47.5840   34.1270   39.8270 C   0  0  0  0  0  0  0  0  0  0  0  0
   46.2860   33.8040   39.9770 N   0  0  0  0  0  0  0  0  0  0  0  0
   48.2180   35.5360   42.7900 H   0  0  0  0  0  0  0  0  0  0  0  0
   48.0260   33.8650   38.8700 H   0  0  0  0  0  0  0  0  0  0  0  0
   45.6140   35.0230   43.4240 C   0  0  0  0  0  0  0  0  0  0  0  0
   44.9860   36.2460   43.6450 C   0  0  0  0  0  0  0  0  0  0  0  0
   44.4420   36.1010   44.9060 C   0  0  0  0  0  0  0  0  0  0  0  0
   44.7220   34.8770   45.4060 N   0  0  0  0  0  0  0  0  0  0  0  0
   45.4310   34.2410   44.4930 N   0  0  0  0  0  0  0  0  0  0  0  0
   44.9250   37.1130   43.0060 H   0  0  0  0  0  0  0  0  0  0  0  0
   43.8560   36.8590   45.4500 H   0  0  0  0  0  0  0  0  0  0  0  0
   44.4680   34.4330   46.3220 H   0  0  0  0  0  0  0  0  0  0  0  0
  1 26  1  0  0  0  0
  2  1  2  0  0  0  0
  3  1  1  0  0  0  0
  3  8  1  0  0  0  0
  4  3  1  0  0  0  0
  5  4  1  0  0  0  0
  5  6  1  0  0  0  0
  6 14  1  0  0  0  0
  6  7  1  0  0  0  0
  7  8  1  0  0  0  0
  7 16  1  0  0  0  0
  8 18  1  0  0  0  0
  8 17  1  1  0  0  0
  9  4  1  0  0  0  0
 10  4  1  0  0  0  0
 11  5  1  0  0  0  0
 12  5  1  0  0  0  0
 13  6  1  0  0  0  0
 15  7  1  0  0  0  0
 18 19  2  0  0  0  0
 19 21  1  0  0  0  0
 19 20  1  0  0  0  0
 21 22  1  0  0  0  0
 23 21  2  0  0  0  0
 24 23  1  0  0  0  0
 25 18  1  0  0  0  0
 25 23  1  0  0  0  0
 27 26  1  0  0  0  0
 27 28  1  0  0  0  0
 28 35  1  0  0  0  0
 29 28  2  0  0  0  0
 29 33  1  0  0  0  0
 30 29  1  0  0  0  0
 31 32  1  0  0  0  0
 31 30  2  0  0  0  0
 32 27  2  0  0  0  0
 34 31  1  0  0  0  0
 35 36  1  0  0  0  0
 35 39  2  0  0  0  0
 36 37  2  0  0  0  0
 37 38  1  0  0  0  0
 37 41  1  0  0  0  0
 38 42  1  0  0  0  0
 39 38  1  0  0  0  0
 40 36  1  0  0  0  0
M  END
>  <minimizedAffinity>
-6.56442881

>  <minimizedRMSD>
0.58251977

$$$$
