
 OpenBabel03242515003D

 36 38  0  0  0  0  0  0  0  0999 V2000
   43.6190   34.8740   40.7490 S   0  0  0  0  0  0  0  0  0  0  0  0
   44.9390   34.6100   41.9360 C   0  0  0  0  0  0  0  0  0  0  0  0
   46.2500   34.6510   41.4340 C   0  0  0  0  0  0  0  0  0  0  0  0
   47.3110   34.4500   42.3240 C   0  0  0  0  0  0  0  0  0  0  0  0
   47.0060   34.2260   43.6360 N   0  0  0  0  0  0  0  0  0  0  0  0
   45.7440   34.1900   44.1010 C   0  0  0  0  0  0  0  0  0  0  0  0
   44.7510   34.3830   43.2380 N   0  0  0  0  0  0  0  0  0  0  0  0
   46.4190   34.8320   40.3850 H   0  0  0  0  0  0  0  0  0  0  0  0
   48.3100   34.4770   41.9630 H   0  0  0  0  0  0  0  0  0  0  0  0
   45.5460   33.9450   45.5130 C   0  0  0  0  0  0  0  0  0  0  0  0
   44.7530   34.7210   46.1190 O   0  0  0  0  0  0  0  0  0  0  0  0
   46.2020   32.8670   46.2460 C   0  0  0  0  0  0  0  0  0  0  0  0
   46.0700   31.5380   45.9000 C   0  0  0  0  0  0  0  0  0  0  0  0
   45.4950   31.0880   45.0760 H   0  0  0  0  0  0  0  0  0  0  0  0
   46.8380   30.8660   46.8320 C   0  0  0  0  0  0  0  0  0  0  0  0
   46.9380   29.7790   46.8240 H   0  0  0  0  0  0  0  0  0  0  0  0
   47.3970   31.8130   47.6980 C   0  0  0  0  0  0  0  0  0  0  0  0
   48.0330   31.4560   48.4970 H   0  0  0  0  0  0  0  0  0  0  0  0
   46.9730   32.9800   47.2860 O   0  0  0  0  0  0  0  0  0  0  0  0
   42.0230   35.0810   41.5320 C   0  0  0  0  0  0  0  0  0  0  0  0
   42.1940   35.4490   42.5610 H   0  0  0  0  0  0  0  0  0  0  0  0
   41.5290   34.0840   41.5610 H   0  0  0  0  0  0  0  0  0  0  0  0
   41.1180   36.0060   40.7880 C   0  0  0  0  0  0  0  0  0  0  0  0
   41.6200   36.8560   40.2990 H   0  0  0  0  0  0  0  0  0  0  0  0
   40.4020   36.4530   41.5140 H   0  0  0  0  0  0  0  0  0  0  0  0
   41.9130   36.2290   37.8620 Cl  0  0  0  0  0  0  0  0  0  0  0  0
   40.5690   35.3010   38.4280 C   0  0  0  0  0  0  0  0  0  0  0  0
   40.2870   35.2650   39.8050 C   0  0  0  0  0  0  0  0  0  0  0  0
   39.2010   34.5070   40.1850 C   0  0  0  0  0  0  0  0  0  0  0  0
   38.3600   33.7750   39.3480 C   0  0  0  0  0  0  0  0  0  0  0  0
   38.6650   33.8340   38.0030 C   0  0  0  0  0  0  0  0  0  0  0  0
   37.6570   32.9410   36.8610 Cl  0  0  0  0  0  0  0  0  0  0  0  0
   39.7360   34.5750   37.5660 C   0  0  0  0  0  0  0  0  0  0  0  0
   39.0070   34.4960   41.2540 H   0  0  0  0  0  0  0  0  0  0  0  0
   37.5390   33.2170   39.7600 H   0  0  0  0  0  0  0  0  0  0  0  0
   39.9350   34.5880   36.4950 H   0  0  0  0  0  0  0  0  0  0  0  0
  1 20  1  0  0  0  0
  1  2  1  0  0  0  0
  2  7  1  0  0  0  0
  3  2  2  0  0  0  0
  3  4  1  0  0  0  0
  4  5  2  0  0  0  0
  5  6  1  0  0  0  0
  6 10  1  0  0  0  0
  7  6  2  0  0  0  0
  8  3  1  0  0  0  0
  9  4  1  0  0  0  0
 10 11  2  0  0  0  0
 10 12  1  0  0  0  0
 12 19  1  0  0  0  0
 13 12  2  0  0  0  0
 13 15  1  0  0  0  0
 14 13  1  0  0  0  0
 15 17  2  0  0  0  0
 16 15  1  0  0  0  0
 17 18  1  0  0  0  0
 19 17  1  0  0  0  0
 20 22  1  0  0  0  0
 20 21  1  0  0  0  0
 23 25  1  0  0  0  0
 23 20  1  0  0  0  0
 24 23  1  0  0  0  0
 26 27  1  0  0  0  0
 27 28  1  0  0  0  0
 28 29  2  0  0  0  0
 28 23  1  0  0  0  0
 29 34  1  0  0  0  0
 30 35  1  0  0  0  0
 30 29  1  0  0  0  0
 31 30  2  0  0  0  0
 32 31  1  0  0  0  0
 33 31  1  0  0  0  0
 33 27  2  0  0  0  0
 36 33  1  0  0  0  0
M  END
>  <minimizedAffinity>
-6.54714537

>  <minimizedRMSD>
0.319456697

$$$$
