
 OpenBabel03242515003D

 36 38  0  0  0  0  0  0  0  0999 V2000
   43.4170   34.9230   40.7250 S   0  0  0  0  0  0  0  0  0  0  0  0
   44.6990   34.6900   41.9590 C   0  0  0  0  0  0  0  0  0  0  0  0
   46.0150   34.5820   41.4820 C   0  0  0  0  0  0  0  0  0  0  0  0
   47.0480   34.3980   42.4090 C   0  0  0  0  0  0  0  0  0  0  0  0
   46.7110   34.3350   43.7300 N   0  0  0  0  0  0  0  0  0  0  0  0
   45.4450   34.4410   44.1710 C   0  0  0  0  0  0  0  0  0  0  0  0
   44.4790   34.6140   43.2740 N   0  0  0  0  0  0  0  0  0  0  0  0
   46.2100   34.6400   40.4240 H   0  0  0  0  0  0  0  0  0  0  0  0
   48.0500   34.3140   42.0670 H   0  0  0  0  0  0  0  0  0  0  0  0
   45.2110   34.3590   45.5970 C   0  0  0  0  0  0  0  0  0  0  0  0
   44.5160   35.2800   46.1130 O   0  0  0  0  0  0  0  0  0  0  0  0
   45.7280   33.2860   46.4400 C   0  0  0  0  0  0  0  0  0  0  0  0
   46.8350   32.5350   46.1020 C   0  0  0  0  0  0  0  0  0  0  0  0
   47.4750   32.6040   45.2070 H   0  0  0  0  0  0  0  0  0  0  0  0
   46.9800   31.6490   47.1510 C   0  0  0  0  0  0  0  0  0  0  0  0
   47.7820   30.9090   47.1780 H   0  0  0  0  0  0  0  0  0  0  0  0
   45.9580   31.9010   48.0750 C   0  0  0  0  0  0  0  0  0  0  0  0
   45.9210   31.2910   48.9680 H   0  0  0  0  0  0  0  0  0  0  0  0
   45.2550   32.8870   47.5830 O   0  0  0  0  0  0  0  0  0  0  0  0
   41.7940   35.1260   41.4530 C   0  0  0  0  0  0  0  0  0  0  0  0
   41.9260   35.5200   42.4770 H   0  0  0  0  0  0  0  0  0  0  0  0
   41.3120   34.1240   41.4880 H   0  0  0  0  0  0  0  0  0  0  0  0
   40.9010   36.0210   40.6590 C   0  0  0  0  0  0  0  0  0  0  0  0
   41.4060   36.8720   40.1740 H   0  0  0  0  0  0  0  0  0  0  0  0
   40.1500   36.4680   41.3500 H   0  0  0  0  0  0  0  0  0  0  0  0
   41.7570   36.2670   37.7520 Cl  0  0  0  0  0  0  0  0  0  0  0  0
   40.4340   35.2920   38.2890 C   0  0  0  0  0  0  0  0  0  0  0  0
   40.1210   35.2490   39.6590 C   0  0  0  0  0  0  0  0  0  0  0  0
   39.0550   34.4530   40.0150 C   0  0  0  0  0  0  0  0  0  0  0  0
   38.2610   33.6890   39.1610 C   0  0  0  0  0  0  0  0  0  0  0  0
   38.5950   33.7550   37.8230 C   0  0  0  0  0  0  0  0  0  0  0  0
   37.6480   32.8240   36.6610 Cl  0  0  0  0  0  0  0  0  0  0  0  0
   39.6490   34.5340   37.4100 C   0  0  0  0  0  0  0  0  0  0  0  0
   38.8350   34.4370   41.0790 H   0  0  0  0  0  0  0  0  0  0  0  0
   37.4510   33.1030   39.5550 H   0  0  0  0  0  0  0  0  0  0  0  0
   39.8730   34.5510   36.3430 H   0  0  0  0  0  0  0  0  0  0  0  0
  1 20  1  0  0  0  0
  1  2  1  0  0  0  0
  2  7  1  0  0  0  0
  3  2  2  0  0  0  0
  3  4  1  0  0  0  0
  4  5  2  0  0  0  0
  5  6  1  0  0  0  0
  6 10  1  0  0  0  0
  7  6  2  0  0  0  0
  8  3  1  0  0  0  0
  9  4  1  0  0  0  0
 10 11  2  0  0  0  0
 10 12  1  0  0  0  0
 12 19  1  0  0  0  0
 13 12  2  0  0  0  0
 13 15  1  0  0  0  0
 14 13  1  0  0  0  0
 15 16  1  0  0  0  0
 15 17  2  0  0  0  0
 17 18  1  0  0  0  0
 19 17  1  0  0  0  0
 20 22  1  0  0  0  0
 20 21  1  0  0  0  0
 23 25  1  0  0  0  0
 23 20  1  0  0  0  0
 24 23  1  0  0  0  0
 26 27  1  0  0  0  0
 27 28  1  0  0  0  0
 28 29  2  0  0  0  0
 28 23  1  0  0  0  0
 29 34  1  0  0  0  0
 30 35  1  0  0  0  0
 30 29  1  0  0  0  0
 31 30  2  0  0  0  0
 32 31  1  0  0  0  0
 33 31  1  0  0  0  0
 33 27  2  0  0  0  0
 36 33  1  0  0  0  0
M  END
>  <minimizedAffinity>
-6.73025036

>  <minimizedRMSD>
0.256954521

$$$$
