
 OpenBabel03242515003D

 36 38  0  0  0  0  0  0  0  0999 V2000
   43.5010   34.9830   40.7550 S   0  0  0  0  0  0  0  0  0  0  0  0
   44.7720   34.6900   41.9870 C   0  0  0  0  0  0  0  0  0  0  0  0
   46.0830   34.5320   41.5100 C   0  0  0  0  0  0  0  0  0  0  0  0
   47.1070   34.3010   42.4360 C   0  0  0  0  0  0  0  0  0  0  0  0
   46.7670   34.2430   43.7570 N   0  0  0  0  0  0  0  0  0  0  0  0
   45.5060   34.3970   44.1980 C   0  0  0  0  0  0  0  0  0  0  0  0
   44.5480   34.6150   43.3010 N   0  0  0  0  0  0  0  0  0  0  0  0
   46.2800   34.5890   40.4520 H   0  0  0  0  0  0  0  0  0  0  0  0
   48.1050   34.1780   42.0940 H   0  0  0  0  0  0  0  0  0  0  0  0
   45.2680   34.3150   45.6230 C   0  0  0  0  0  0  0  0  0  0  0  0
   44.5010   35.1870   46.1220 O   0  0  0  0  0  0  0  0  0  0  0  0
   45.8590   33.2970   46.4840 C   0  0  0  0  0  0  0  0  0  0  0  0
   45.2360   32.8250   47.6210 C   0  0  0  0  0  0  0  0  0  0  0  0
   44.2620   33.1080   48.0490 H   0  0  0  0  0  0  0  0  0  0  0  0
   46.1190   31.8910   48.1300 C   0  0  0  0  0  0  0  0  0  0  0  0
   45.9070   31.3330   49.0440 H   0  0  0  0  0  0  0  0  0  0  0  0
   47.2310   31.8390   47.2830 C   0  0  0  0  0  0  0  0  0  0  0  0
   48.0290   31.1520   47.5350 H   0  0  0  0  0  0  0  0  0  0  0  0
   47.0040   32.7020   46.3270 O   0  0  0  0  0  0  0  0  0  0  0  0
   41.8660   35.1070   41.4720 C   0  0  0  0  0  0  0  0  0  0  0  0
   41.9760   35.4600   42.5140 H   0  0  0  0  0  0  0  0  0  0  0  0
   41.4130   34.0910   41.4580 H   0  0  0  0  0  0  0  0  0  0  0  0
   40.9550   36.0110   40.7080 C   0  0  0  0  0  0  0  0  0  0  0  0
   41.4470   36.8730   40.2300 H   0  0  0  0  0  0  0  0  0  0  0  0
   40.2130   36.4400   41.4180 H   0  0  0  0  0  0  0  0  0  0  0  0
   41.7970   36.2690   37.7980 Cl  0  0  0  0  0  0  0  0  0  0  0  0
   40.4700   35.3000   38.3350 C   0  0  0  0  0  0  0  0  0  0  0  0
   40.1640   35.2500   39.7070 C   0  0  0  0  0  0  0  0  0  0  0  0
   39.0940   34.4600   40.0640 C   0  0  0  0  0  0  0  0  0  0  0  0
   38.2900   33.7080   39.2090 C   0  0  0  0  0  0  0  0  0  0  0  0
   38.6180   33.7810   37.8690 C   0  0  0  0  0  0  0  0  0  0  0  0
   37.6570   32.8640   36.7060 Cl  0  0  0  0  0  0  0  0  0  0  0  0
   39.6750   34.5540   37.4560 C   0  0  0  0  0  0  0  0  0  0  0  0
   38.8800   34.4390   41.1280 H   0  0  0  0  0  0  0  0  0  0  0  0
   37.4780   33.1250   39.6030 H   0  0  0  0  0  0  0  0  0  0  0  0
   39.8930   34.5770   36.3880 H   0  0  0  0  0  0  0  0  0  0  0  0
  1 20  1  0  0  0  0
  1  2  1  0  0  0  0
  2  7  1  0  0  0  0
  3  2  2  0  0  0  0
  3  4  1  0  0  0  0
  4  5  2  0  0  0  0
  5  6  1  0  0  0  0
  6 10  1  0  0  0  0
  7  6  2  0  0  0  0
  8  3  1  0  0  0  0
  9  4  1  0  0  0  0
 10 11  2  0  0  0  0
 10 12  1  0  0  0  0
 12 13  2  0  0  0  0
 13 14  1  0  0  0  0
 13 15  1  0  0  0  0
 15 16  1  0  0  0  0
 17 18  1  0  0  0  0
 17 15  2  0  0  0  0
 19 12  1  0  0  0  0
 19 17  1  0  0  0  0
 20 21  1  0  0  0  0
 22 20  1  0  0  0  0
 23 25  1  0  0  0  0
 23 20  1  0  0  0  0
 24 23  1  0  0  0  0
 26 27  1  0  0  0  0
 27 28  1  0  0  0  0
 28 29  2  0  0  0  0
 28 23  1  0  0  0  0
 29 34  1  0  0  0  0
 30 35  1  0  0  0  0
 30 29  1  0  0  0  0
 31 30  2  0  0  0  0
 32 31  1  0  0  0  0
 33 31  1  0  0  0  0
 33 27  2  0  0  0  0
 36 33  1  0  0  0  0
M  END
>  <minimizedAffinity>
-6.79113531

>  <minimizedRMSD>
0.133223966

$$$$
