
 OpenBabel03242515003D

 36 38  0  0  0  0  0  0  0  0999 V2000
   43.5180   34.9340   40.7420 S   0  0  0  0  0  0  0  0  0  0  0  0
   44.8100   34.6860   41.9620 C   0  0  0  0  0  0  0  0  0  0  0  0
   46.1310   34.6940   41.4870 C   0  0  0  0  0  0  0  0  0  0  0  0
   47.1720   34.5040   42.4040 C   0  0  0  0  0  0  0  0  0  0  0  0
   46.8370   34.3210   43.7140 N   0  0  0  0  0  0  0  0  0  0  0  0
   45.5660   34.3170   44.1540 C   0  0  0  0  0  0  0  0  0  0  0  0
   44.5930   34.4980   43.2660 N   0  0  0  0  0  0  0  0  0  0  0  0
   46.3240   34.8440   40.4370 H   0  0  0  0  0  0  0  0  0  0  0  0
   48.1780   34.5070   42.0630 H   0  0  0  0  0  0  0  0  0  0  0  0
   45.3350   34.1130   45.5680 C   0  0  0  0  0  0  0  0  0  0  0  0
   44.6360   34.9840   46.1610 O   0  0  0  0  0  0  0  0  0  0  0  0
   45.8610   32.9770   46.3180 C   0  0  0  0  0  0  0  0  0  0  0  0
   46.3690   31.8490   45.7070 C   0  0  0  0  0  0  0  0  0  0  0  0
   46.4630   31.6210   44.6340 H   0  0  0  0  0  0  0  0  0  0  0  0
   46.7500   31.0360   46.7580 C   0  0  0  0  0  0  0  0  0  0  0  0
   47.1970   30.0530   46.5970 H   0  0  0  0  0  0  0  0  0  0  0  0
   46.4570   31.7050   47.9520 C   0  0  0  0  0  0  0  0  0  0  0  0
   46.6940   31.2070   48.8830 H   0  0  0  0  0  0  0  0  0  0  0  0
   45.9310   32.8520   47.6090 O   0  0  0  0  0  0  0  0  0  0  0  0
   41.8960   35.0880   41.4820 C   0  0  0  0  0  0  0  0  0  0  0  0
   42.0270   35.4460   42.5200 H   0  0  0  0  0  0  0  0  0  0  0  0
   41.4280   34.0780   41.4820 H   0  0  0  0  0  0  0  0  0  0  0  0
   40.9880   35.9990   40.7250 C   0  0  0  0  0  0  0  0  0  0  0  0
   41.4820   36.8610   40.2480 H   0  0  0  0  0  0  0  0  0  0  0  0
   40.2510   36.4310   41.4400 H   0  0  0  0  0  0  0  0  0  0  0  0
   41.8180   36.2670   37.8120 Cl  0  0  0  0  0  0  0  0  0  0  0  0
   40.4880   35.3020   38.3510 C   0  0  0  0  0  0  0  0  0  0  0  0
   40.1880   35.2470   39.7240 C   0  0  0  0  0  0  0  0  0  0  0  0
   39.1160   34.4610   40.0820 C   0  0  0  0  0  0  0  0  0  0  0  0
   38.3030   33.7170   39.2280 C   0  0  0  0  0  0  0  0  0  0  0  0
   38.6260   33.7940   37.8870 C   0  0  0  0  0  0  0  0  0  0  0  0
   37.6550   32.8880   36.7240 Cl  0  0  0  0  0  0  0  0  0  0  0  0
   39.6850   34.5640   37.4720 C   0  0  0  0  0  0  0  0  0  0  0  0
   38.9070   34.4360   41.1480 H   0  0  0  0  0  0  0  0  0  0  0  0
   37.4910   33.1360   39.6230 H   0  0  0  0  0  0  0  0  0  0  0  0
   39.8980   34.5910   36.4040 H   0  0  0  0  0  0  0  0  0  0  0  0
  1 20  1  0  0  0  0
  1  2  1  0  0  0  0
  2  7  1  0  0  0  0
  3  2  2  0  0  0  0
  3  4  1  0  0  0  0
  4  5  2  0  0  0  0
  5  6  1  0  0  0  0
  6 10  1  0  0  0  0
  7  6  2  0  0  0  0
  8  3  1  0  0  0  0
  9  4  1  0  0  0  0
 10 11  2  0  0  0  0
 10 12  1  0  0  0  0
 12 19  1  0  0  0  0
 13 12  2  0  0  0  0
 13 15  1  0  0  0  0
 14 13  1  0  0  0  0
 15 17  2  0  0  0  0
 16 15  1  0  0  0  0
 17 18  1  0  0  0  0
 19 17  1  0  0  0  0
 20 21  1  0  0  0  0
 22 20  1  0  0  0  0
 23 25  1  0  0  0  0
 23 20  1  0  0  0  0
 24 23  1  0  0  0  0
 26 27  1  0  0  0  0
 27 28  1  0  0  0  0
 28 29  2  0  0  0  0
 28 23  1  0  0  0  0
 29 34  1  0  0  0  0
 30 35  1  0  0  0  0
 30 29  1  0  0  0  0
 31 30  2  0  0  0  0
 32 31  1  0  0  0  0
 33 31  1  0  0  0  0
 33 27  2  0  0  0  0
 36 33  1  0  0  0  0
M  END
>  <minimizedAffinity>
-6.49289274

>  <minimizedRMSD>
0.245767757

$$$$
