
 OpenBabel03242515003D

 36 38  0  0  0  0  0  0  0  0999 V2000
   43.5070   34.9910   40.7570 S   0  0  0  0  0  0  0  0  0  0  0  0
   44.7760   34.6930   41.9900 C   0  0  0  0  0  0  0  0  0  0  0  0
   46.0870   34.5320   41.5140 C   0  0  0  0  0  0  0  0  0  0  0  0
   47.1100   34.2980   42.4400 C   0  0  0  0  0  0  0  0  0  0  0  0
   46.7690   34.2390   43.7610 N   0  0  0  0  0  0  0  0  0  0  0  0
   45.5070   34.3960   44.2010 C   0  0  0  0  0  0  0  0  0  0  0  0
   44.5510   34.6170   43.3040 N   0  0  0  0  0  0  0  0  0  0  0  0
   46.2860   34.5900   40.4560 H   0  0  0  0  0  0  0  0  0  0  0  0
   48.1080   34.1730   42.0990 H   0  0  0  0  0  0  0  0  0  0  0  0
   45.2680   34.3130   45.6260 C   0  0  0  0  0  0  0  0  0  0  0  0
   44.5000   35.1840   46.1250 O   0  0  0  0  0  0  0  0  0  0  0  0
   45.8590   33.2950   46.4870 C   0  0  0  0  0  0  0  0  0  0  0  0
   45.2370   32.8230   47.6240 C   0  0  0  0  0  0  0  0  0  0  0  0
   44.2620   33.1070   48.0520 H   0  0  0  0  0  0  0  0  0  0  0  0
   46.1190   31.8890   48.1340 C   0  0  0  0  0  0  0  0  0  0  0  0
   45.9070   31.3300   49.0470 H   0  0  0  0  0  0  0  0  0  0  0  0
   47.2310   31.8360   47.2850 C   0  0  0  0  0  0  0  0  0  0  0  0
   48.0290   31.1500   47.5370 H   0  0  0  0  0  0  0  0  0  0  0  0
   47.0040   32.7000   46.3300 O   0  0  0  0  0  0  0  0  0  0  0  0
   41.8700   35.1060   41.4710 C   0  0  0  0  0  0  0  0  0  0  0  0
   41.9770   35.4540   42.5150 H   0  0  0  0  0  0  0  0  0  0  0  0
   41.4210   34.0880   41.4520 H   0  0  0  0  0  0  0  0  0  0  0  0
   40.9580   36.0090   40.7100 C   0  0  0  0  0  0  0  0  0  0  0  0
   41.4480   36.8730   40.2320 H   0  0  0  0  0  0  0  0  0  0  0  0
   40.2160   36.4370   41.4210 H   0  0  0  0  0  0  0  0  0  0  0  0
   41.8000   36.2680   37.8000 Cl  0  0  0  0  0  0  0  0  0  0  0  0
   40.4720   35.3000   38.3370 C   0  0  0  0  0  0  0  0  0  0  0  0
   40.1660   35.2500   39.7090 C   0  0  0  0  0  0  0  0  0  0  0  0
   39.0950   34.4600   40.0650 C   0  0  0  0  0  0  0  0  0  0  0  0
   38.2900   33.7090   39.2110 C   0  0  0  0  0  0  0  0  0  0  0  0
   38.6180   33.7820   37.8710 C   0  0  0  0  0  0  0  0  0  0  0  0
   37.6560   32.8660   36.7070 Cl  0  0  0  0  0  0  0  0  0  0  0  0
   39.6760   34.5550   37.4570 C   0  0  0  0  0  0  0  0  0  0  0  0
   38.8810   34.4390   41.1300 H   0  0  0  0  0  0  0  0  0  0  0  0
   37.4780   33.1270   39.6040 H   0  0  0  0  0  0  0  0  0  0  0  0
   39.8940   34.5780   36.3900 H   0  0  0  0  0  0  0  0  0  0  0  0
  1 20  1  0  0  0  0
  1  2  1  0  0  0  0
  2  7  1  0  0  0  0
  3  2  2  0  0  0  0
  3  4  1  0  0  0  0
  4  5  2  0  0  0  0
  5  6  1  0  0  0  0
  6 10  1  0  0  0  0
  7  6  2  0  0  0  0
  8  3  1  0  0  0  0
  9  4  1  0  0  0  0
 10 11  2  0  0  0  0
 10 12  1  0  0  0  0
 12 13  2  0  0  0  0
 13 14  1  0  0  0  0
 13 15  1  0  0  0  0
 15 16  1  0  0  0  0
 17 18  1  0  0  0  0
 17 15  2  0  0  0  0
 19 12  1  0  0  0  0
 19 17  1  0  0  0  0
 20 21  1  0  0  0  0
 22 20  1  0  0  0  0
 23 25  1  0  0  0  0
 23 20  1  0  0  0  0
 24 23  1  0  0  0  0
 26 27  1  0  0  0  0
 27 28  1  0  0  0  0
 28 29  2  0  0  0  0
 28 23  1  0  0  0  0
 29 34  1  0  0  0  0
 30 35  1  0  0  0  0
 30 29  1  0  0  0  0
 31 30  2  0  0  0  0
 32 31  1  0  0  0  0
 33 31  1  0  0  0  0
 33 27  2  0  0  0  0
 36 33  1  0  0  0  0
M  END
>  <minimizedAffinity>
-6.79018354

>  <minimizedRMSD>
0.171052933

$$$$
