
 OpenBabel03242515003D

 36 38  0  0  0  0  0  0  0  0999 V2000
   43.4440   34.9440   40.7310 S   0  0  0  0  0  0  0  0  0  0  0  0
   44.7130   34.6930   41.9740 C   0  0  0  0  0  0  0  0  0  0  0  0
   46.0290   34.5530   41.5060 C   0  0  0  0  0  0  0  0  0  0  0  0
   47.0520   34.3540   42.4410 C   0  0  0  0  0  0  0  0  0  0  0  0
   46.7070   34.3100   43.7610 N   0  0  0  0  0  0  0  0  0  0  0  0
   45.4400   34.4470   44.1930 C   0  0  0  0  0  0  0  0  0  0  0  0
   44.4830   34.6330   43.2880 N   0  0  0  0  0  0  0  0  0  0  0  0
   46.2320   34.5980   40.4490 H   0  0  0  0  0  0  0  0  0  0  0  0
   48.0550   34.2460   42.1060 H   0  0  0  0  0  0  0  0  0  0  0  0
   45.1960   34.3820   45.6180 C   0  0  0  0  0  0  0  0  0  0  0  0
   44.5020   35.3120   46.1190 O   0  0  0  0  0  0  0  0  0  0  0  0
   45.7020   33.3170   46.4770 C   0  0  0  0  0  0  0  0  0  0  0  0
   46.8340   32.5860   46.1750 C   0  0  0  0  0  0  0  0  0  0  0  0
   47.5030   32.6680   45.3040 H   0  0  0  0  0  0  0  0  0  0  0  0
   46.9570   31.6990   47.2290 C   0  0  0  0  0  0  0  0  0  0  0  0
   47.7710   30.9740   47.2810 H   0  0  0  0  0  0  0  0  0  0  0  0
   45.9010   31.9310   48.1160 C   0  0  0  0  0  0  0  0  0  0  0  0
   45.8430   31.3180   49.0070 H   0  0  0  0  0  0  0  0  0  0  0  0
   45.1970   32.9060   47.6020 O   0  0  0  0  0  0  0  0  0  0  0  0
   41.8100   35.1090   41.4430 C   0  0  0  0  0  0  0  0  0  0  0  0
   41.9240   35.4830   42.4770 H   0  0  0  0  0  0  0  0  0  0  0  0
   41.3410   34.1000   41.4510 H   0  0  0  0  0  0  0  0  0  0  0  0
   40.9150   36.0100   40.6580 C   0  0  0  0  0  0  0  0  0  0  0  0
   41.4180   36.8630   40.1750 H   0  0  0  0  0  0  0  0  0  0  0  0
   40.1670   36.4540   41.3540 H   0  0  0  0  0  0  0  0  0  0  0  0
   41.7660   36.2580   37.7500 Cl  0  0  0  0  0  0  0  0  0  0  0  0
   40.4390   35.2880   38.2870 C   0  0  0  0  0  0  0  0  0  0  0  0
   40.1290   35.2430   39.6570 C   0  0  0  0  0  0  0  0  0  0  0  0
   39.0590   34.4520   40.0140 C   0  0  0  0  0  0  0  0  0  0  0  0
   38.2600   33.6940   39.1590 C   0  0  0  0  0  0  0  0  0  0  0  0
   38.5920   33.7620   37.8200 C   0  0  0  0  0  0  0  0  0  0  0  0
   37.6380   32.8380   36.6580 Cl  0  0  0  0  0  0  0  0  0  0  0  0
   39.6490   34.5360   37.4070 C   0  0  0  0  0  0  0  0  0  0  0  0
   38.8420   34.4350   41.0780 H   0  0  0  0  0  0  0  0  0  0  0  0
   37.4480   33.1110   39.5530 H   0  0  0  0  0  0  0  0  0  0  0  0
   39.8710   34.5550   36.3410 H   0  0  0  0  0  0  0  0  0  0  0  0
  1 20  1  0  0  0  0
  1  2  1  0  0  0  0
  2  7  1  0  0  0  0
  3  2  2  0  0  0  0
  3  4  1  0  0  0  0
  4  5  2  0  0  0  0
  5  6  1  0  0  0  0
  6 10  1  0  0  0  0
  7  6  2  0  0  0  0
  8  3  1  0  0  0  0
  9  4  1  0  0  0  0
 10 11  2  0  0  0  0
 10 12  1  0  0  0  0
 12 19  1  0  0  0  0
 13 12  2  0  0  0  0
 13 15  1  0  0  0  0
 14 13  1  0  0  0  0
 15 16  1  0  0  0  0
 15 17  2  0  0  0  0
 17 18  1  0  0  0  0
 19 17  1  0  0  0  0
 20 22  1  0  0  0  0
 20 21  1  0  0  0  0
 23 25  1  0  0  0  0
 23 20  1  0  0  0  0
 24 23  1  0  0  0  0
 26 27  1  0  0  0  0
 27 28  1  0  0  0  0
 28 29  2  0  0  0  0
 28 23  1  0  0  0  0
 29 34  1  0  0  0  0
 30 35  1  0  0  0  0
 30 29  1  0  0  0  0
 31 30  2  0  0  0  0
 32 31  1  0  0  0  0
 33 31  1  0  0  0  0
 33 27  2  0  0  0  0
 36 33  1  0  0  0  0
M  END
>  <minimizedAffinity>
-6.73209429

>  <minimizedRMSD>
0.249283746

$$$$
