
 OpenBabel03242515003D

 36 38  0  0  0  0  0  0  0  0999 V2000
   43.6310   34.8780   40.7490 S   0  0  0  0  0  0  0  0  0  0  0  0
   44.9490   34.6120   41.9380 C   0  0  0  0  0  0  0  0  0  0  0  0
   46.2610   34.6500   41.4390 C   0  0  0  0  0  0  0  0  0  0  0  0
   47.3200   34.4470   42.3310 C   0  0  0  0  0  0  0  0  0  0  0  0
   47.0120   34.2220   43.6420 N   0  0  0  0  0  0  0  0  0  0  0  0
   45.7490   34.1890   44.1040 C   0  0  0  0  0  0  0  0  0  0  0  0
   44.7570   34.3830   43.2400 N   0  0  0  0  0  0  0  0  0  0  0  0
   46.4320   34.8320   40.3910 H   0  0  0  0  0  0  0  0  0  0  0  0
   48.3190   34.4730   41.9720 H   0  0  0  0  0  0  0  0  0  0  0  0
   45.5470   33.9420   45.5160 C   0  0  0  0  0  0  0  0  0  0  0  0
   44.7530   34.7170   46.1200 O   0  0  0  0  0  0  0  0  0  0  0  0
   46.2030   32.8650   46.2500 C   0  0  0  0  0  0  0  0  0  0  0  0
   46.0690   31.5360   45.9060 C   0  0  0  0  0  0  0  0  0  0  0  0
   45.4920   31.0840   45.0830 H   0  0  0  0  0  0  0  0  0  0  0  0
   46.8360   30.8640   46.8380 C   0  0  0  0  0  0  0  0  0  0  0  0
   46.9350   29.7770   46.8320 H   0  0  0  0  0  0  0  0  0  0  0  0
   47.3980   31.8120   47.7020 C   0  0  0  0  0  0  0  0  0  0  0  0
   48.0350   31.4550   48.5010 H   0  0  0  0  0  0  0  0  0  0  0  0
   46.9760   32.9790   47.2880 O   0  0  0  0  0  0  0  0  0  0  0  0
   42.0310   35.0670   41.5290 C   0  0  0  0  0  0  0  0  0  0  0  0
   42.1960   35.4250   42.5620 H   0  0  0  0  0  0  0  0  0  0  0  0
   41.5420   34.0670   41.5440 H   0  0  0  0  0  0  0  0  0  0  0  0
   41.1240   35.9950   40.7910 C   0  0  0  0  0  0  0  0  0  0  0  0
   41.6230   36.8480   40.3050 H   0  0  0  0  0  0  0  0  0  0  0  0
   40.4090   36.4390   41.5220 H   0  0  0  0  0  0  0  0  0  0  0  0
   41.9160   36.2260   37.8650 Cl  0  0  0  0  0  0  0  0  0  0  0  0
   40.5700   35.2980   38.4300 C   0  0  0  0  0  0  0  0  0  0  0  0
   40.2900   35.2590   39.8070 C   0  0  0  0  0  0  0  0  0  0  0  0
   39.2040   34.5020   40.1860 C   0  0  0  0  0  0  0  0  0  0  0  0
   38.3600   33.7740   39.3480 C   0  0  0  0  0  0  0  0  0  0  0  0
   38.6640   33.8360   38.0020 C   0  0  0  0  0  0  0  0  0  0  0  0
   37.6530   32.9480   36.8590 Cl  0  0  0  0  0  0  0  0  0  0  0  0
   39.7360   34.5760   37.5670 C   0  0  0  0  0  0  0  0  0  0  0  0
   39.0100   34.4880   41.2550 H   0  0  0  0  0  0  0  0  0  0  0  0
   37.5390   33.2160   39.7590 H   0  0  0  0  0  0  0  0  0  0  0  0
   39.9340   34.5910   36.4950 H   0  0  0  0  0  0  0  0  0  0  0  0
  1 20  1  0  0  0  0
  1  2  1  0  0  0  0
  2  7  1  0  0  0  0
  3  2  2  0  0  0  0
  3  4  1  0  0  0  0
  4  5  2  0  0  0  0
  5  6  1  0  0  0  0
  6 10  1  0  0  0  0
  7  6  2  0  0  0  0
  8  3  1  0  0  0  0
  9  4  1  0  0  0  0
 10 11  2  0  0  0  0
 10 12  1  0  0  0  0
 12 19  1  0  0  0  0
 13 12  2  0  0  0  0
 13 15  1  0  0  0  0
 14 13  1  0  0  0  0
 15 17  2  0  0  0  0
 16 15  1  0  0  0  0
 17 18  1  0  0  0  0
 19 17  1  0  0  0  0
 20 22  1  0  0  0  0
 20 21  1  0  0  0  0
 23 25  1  0  0  0  0
 23 20  1  0  0  0  0
 24 23  1  0  0  0  0
 26 27  1  0  0  0  0
 27 28  1  0  0  0  0
 28 29  2  0  0  0  0
 28 23  1  0  0  0  0
 29 34  1  0  0  0  0
 30 35  1  0  0  0  0
 30 29  1  0  0  0  0
 31 30  2  0  0  0  0
 32 31  1  0  0  0  0
 33 31  1  0  0  0  0
 33 27  2  0  0  0  0
 36 33  1  0  0  0  0
M  END
>  <minimizedAffinity>
-6.54350948

>  <minimizedRMSD>
0.356537908

$$$$
