
 OpenBabel03252507163D

 28 30  0  0  0  0  0  0  0  0999 V2000
   45.3150   36.2110   43.3410 C   0  0  0  0  0  0  0  0  0  0  0  0
   45.9260   34.9880   43.0250 C   0  0  0  0  0  0  0  0  0  0  0  0
   45.8490   33.9740   43.9610 C   0  0  0  0  0  0  0  0  0  0  0  0
   45.2040   34.1800   45.1280 N   0  0  0  0  0  0  0  0  0  0  0  0
   44.6170   35.3840   45.4120 C   0  0  0  0  0  0  0  0  0  0  0  0
   44.6850   36.3590   44.5210 N   0  0  0  0  0  0  0  0  0  0  0  0
   45.3530   37.0300   42.6330 H   0  0  0  0  0  0  0  0  0  0  0  0
   44.1210   35.4520   46.3770 H   0  0  0  0  0  0  0  0  0  0  0  0
   46.4820   32.6830   43.6530 C   0  0  0  0  0  0  0  0  0  0  0  0
   45.6990   31.6060   43.3010 C   0  0  0  0  0  0  0  0  0  0  0  0
   46.3290   30.4130   43.0190 C   0  0  0  0  0  0  0  0  0  0  0  0
   47.7220   30.2500   43.0750 C   0  0  0  0  0  0  0  0  0  0  0  0
   48.4410   31.3770   43.4350 C   0  0  0  0  0  0  0  0  0  0  0  0
   47.8110   32.5370   43.7090 N   0  0  0  0  0  0  0  0  0  0  0  0
   44.6430   31.7260   43.2590 H   0  0  0  0  0  0  0  0  0  0  0  0
   45.7140   29.5640   42.7420 H   0  0  0  0  0  0  0  0  0  0  0  0
   48.2130   29.3170   42.8540 H   0  0  0  0  0  0  0  0  0  0  0  0
   49.5240   31.3290   43.5000 H   0  0  0  0  0  0  0  0  0  0  0  0
   46.5970   34.8080   41.7840 C   0  0  0  0  0  0  0  0  0  0  0  0
   47.7480   35.2920   41.6580 O   0  0  0  0  0  0  0  0  0  0  0  0
   46.0340   34.0960   40.6400 C   0  0  0  0  0  0  0  0  0  0  0  0
   46.8320   33.4810   39.6850 C   0  0  0  0  0  0  0  0  0  0  0  0
   47.9020   33.4120   39.6020 H   0  0  0  0  0  0  0  0  0  0  0  0
   46.0070   32.8860   38.7240 C   0  0  0  0  0  0  0  0  0  0  0  0
   46.2140   32.3170   37.8260 H   0  0  0  0  0  0  0  0  0  0  0  0
   44.7180   33.1910   39.1770 C   0  0  0  0  0  0  0  0  0  0  0  0
   43.7390   32.9350   38.7450 H   0  0  0  0  0  0  0  0  0  0  0  0
   44.7990   33.8870   40.2810 O   0  0  0  0  0  0  0  0  0  0  0  0
  1  6  1  0  0  0  0
  2  1  2  0  0  0  0
  2  3  1  0  0  0  0
  3  4  2  0  0  0  0
  4  5  1  0  0  0  0
  5  8  1  0  0  0  0
  6  5  2  0  0  0  0
  7  1  1  0  0  0  0
  9 14  1  0  0  0  0
  9  3  1  0  0  0  0
 10  9  2  0  0  0  0
 11 12  2  0  0  0  0
 11 10  1  0  0  0  0
 12 13  1  0  0  0  0
 13 18  1  0  0  0  0
 13 14  2  0  0  0  0
 15 10  1  0  0  0  0
 16 11  1  0  0  0  0
 17 12  1  0  0  0  0
 19  2  1  0  0  0  0
 20 19  2  0  0  0  0
 21 19  1  0  0  0  0
 22 21  2  0  0  0  0
 23 22  1  0  0  0  0
 24 26  2  0  0  0  0
 24 22  1  0  0  0  0
 25 24  1  0  0  0  0
 26 28  1  0  0  0  0
 27 26  1  0  0  0  0
 28 21  1  0  0  0  0
M  END
>  <minimizedAffinity>
-4.30909777

>  <minimizedRMSD>
0.51602155

$$$$
