
 OpenBabel03242516163D

 42 45  0  0  1  0  0  0  0  0999 V2000
   48.1550   34.5950   41.6990 C   0  0  0  0  0  0  0  0  0  0  0  0
   49.0030   35.8460   41.4500 C   0  0  0  0  0  0  0  0  0  0  0  0
   49.5100   34.6820   42.1650 C   0  0  0  0  0  0  0  0  0  0  0  0
   49.4050   36.0440   40.4450 H   0  0  0  0  0  0  0  0  0  0  0  0
   48.6240   36.7720   41.9290 H   0  0  0  0  0  0  0  0  0  0  0  0
   50.2600   34.0450   41.6490 H   0  0  0  0  0  0  0  0  0  0  0  0
   49.9090   35.0410   43.1350 H   0  0  0  0  0  0  0  0  0  0  0  0
   47.8580   33.8530   40.4470 C   0  0  0  0  0  0  0  0  0  0  0  0
   48.2760   34.5380   39.1620 C   0  0  0  0  0  0  0  0  0  0  0  0
   47.9860   33.5410   38.0460 C   0  0  0  0  0  0  0  0  0  0  0  0
   46.5910   33.5600   37.8590 O   0  0  0  0  0  0  0  0  0  0  0  0
   46.1230   32.8440   38.9920 C   0  0  0  0  0  0  0  0  0  0  0  0
   46.3390   33.6740   40.2460 C   0  0  0  0  0  0  0  0  0  0  0  0
   48.2970   32.8420   40.4750 H   0  0  0  0  0  0  0  0  0  0  0  0
   47.7310   35.4670   38.9850 H   0  0  0  0  0  0  0  0  0  0  0  0
   49.3820   34.6560   39.1510 H   0  0  0  0  0  0  0  0  0  0  0  0
   48.5380   33.8370   37.1410 H   0  0  0  0  0  0  0  0  0  0  0  0
   48.2730   32.5220   38.3210 H   0  0  0  0  0  0  0  0  0  0  0  0
   45.0270   32.7540   38.8380 H   0  0  0  0  0  0  0  0  0  0  0  0
   46.5850   31.8550   39.0540 H   0  0  0  0  0  0  0  0  0  0  0  0
   45.9860   33.0570   41.0780 H   0  0  0  0  0  0  0  0  0  0  0  0
   45.8310   34.6300   40.1160 H   0  0  0  0  0  0  0  0  0  0  0  0
   46.2490   35.9400   42.6550 C   0  0  0  0  0  0  0  0  0  0  0  0
   47.0200   34.7680   42.6620 C   0  0  0  0  0  0  0  0  0  0  0  0
   46.7030   33.7890   43.5990 C   0  0  0  0  0  0  0  0  0  0  0  0
   45.6660   34.0080   44.4610 N   0  0  0  0  0  0  0  0  0  0  0  0
   44.9700   35.1450   44.4060 C   0  0  0  0  0  0  0  0  0  0  0  0
   45.2410   36.0940   43.5320 N   0  0  0  0  0  0  0  0  0  0  0  0
   43.8820   35.4080   45.2910 N   0  0  0  0  0  0  0  0  0  0  0  0
   46.4970   36.6960   41.9310 H   0  0  0  0  0  0  0  0  0  0  0  0
   44.4170   35.8000   46.1060 H   0  0  0  0  0  0  0  0  0  0  0  0
   42.9170   35.1900   44.9910 H   0  0  0  0  0  0  0  0  0  0  0  0
   47.4430   32.5680   43.7400 C   0  0  2  0  0  0  0  0  0  0  0  0
   47.7830   31.9860   44.8520 O   0  0  0  0  0  0  0  0  0  0  0  0
   48.0980   31.5260   42.9530 C   0  0  0  0  0  0  0  0  0  0  0  0
   47.5810   30.6070   42.0860 C   0  0  0  0  0  0  0  0  0  0  0  0
   46.5340   30.4700   41.7910 H   0  0  0  0  0  0  0  0  0  0  0  0
   48.6320   29.8180   41.5900 C   0  0  0  0  0  0  0  0  0  0  0  0
   48.4590   29.0260   40.8880 H   0  0  0  0  0  0  0  0  0  0  0  0
   49.7530   30.3110   42.1980 C   0  0  0  0  0  0  0  0  0  0  0  0
   50.7480   29.9220   42.0330 H   0  0  0  0  0  0  0  0  0  0  0  0
   49.3580   31.2660   42.9430 O   0  0  0  0  0  0  0  0  0  0  0  0
  1  3  1  0  0  0  0
  1 24  1  0  0  0  0
  2  1  1  0  0  0  0
  2  5  1  0  0  0  0
  2  3  1  0  0  0  0
  3  7  1  0  0  0  0
  4  2  1  0  0  0  0
  6  3  1  0  0  0  0
  8 14  1  0  0  0  0
  8  1  1  0  0  0  0
  9  8  1  0  0  0  0
 10 18  1  0  0  0  0
 10  9  1  0  0  0  0
 11 10  1  0  0  0  0
 11 12  1  0  0  0  0
 12 20  1  0  0  0  0
 12 13  1  0  0  0  0
 13  8  1  0  0  0  0
 13 21  1  0  0  0  0
 15  9  1  0  0  0  0
 16  9  1  0  0  0  0
 17 10  1  0  0  0  0
 19 12  1  0  0  0  0
 22 13  1  0  0  0  0
 23 24  2  0  0  0  0
 23 28  1  0  0  0  0
 24 25  1  0  0  0  0
 25 33  1  0  0  0  0
 25 26  2  0  0  0  0
 27 26  1  0  0  0  0
 27 29  1  0  0  0  0
 28 27  2  0  0  0  0
 29 31  1  0  0  0  0
 30 23  1  0  0  0  0
 32 29  1  0  0  0  0
 33 34  1  1  0  0  0
 35 33  1  0  0  0  0
 36 35  2  0  0  0  0
 37 36  1  0  0  0  0
 38 36  1  0  0  0  0
 38 40  2  0  0  0  0
 39 38  1  0  0  0  0
 40 42  1  0  0  0  0
 41 40  1  0  0  0  0
 42 35  1  0  0  0  0
M  END
>  <minimizedAffinity>
-5.24258566

>  <minimizedRMSD>
1.36151683

$$$$
