
 OpenBabel03242520013D

 29 31  0  0  1  0  0  0  0  0999 V2000
   39.1220   29.8610   42.4130 Br  0  0  0  0  0  0  0  0  0  0  0  0
   37.6090   29.7440   41.2680 C   0  0  0  0  0  0  0  0  0  0  0  0
   37.3530   30.6640   40.2860 C   0  0  0  0  0  0  0  0  0  0  0  0
   36.2010   30.5060   39.5220 C   0  0  0  0  0  0  0  0  0  0  0  0
   35.3140   29.4650   39.7140 C   0  0  0  0  0  0  0  0  0  0  0  0
   35.5770   28.5250   40.7160 C   0  0  0  0  0  0  0  0  0  0  0  0
   36.7360   28.7080   41.4630 C   0  0  0  0  0  0  0  0  0  0  0  0
   36.0590   31.2620   38.7700 H   0  0  0  0  0  0  0  0  0  0  0  0
   34.4510   29.4310   39.0710 H   0  0  0  0  0  0  0  0  0  0  0  0
   34.8770   27.7120   40.8590 H   0  0  0  0  0  0  0  0  0  0  0  0
   40.3540   32.6870   39.2020 C   0  0  0  0  0  0  0  0  0  0  0  0
   39.4580   31.6140   39.3430 C   0  0  0  0  0  0  0  0  0  0  0  0
   38.3200   31.7360   40.0990 C   0  0  0  0  0  0  0  0  0  0  0  0
   38.1480   32.9660   40.6860 N   0  0  0  0  0  0  0  0  0  0  0  0
   39.0040   33.9820   40.5480 C   0  0  0  0  0  0  0  0  0  0  0  0
   40.0960   33.8550   39.8170 N   0  0  0  0  0  0  0  0  0  0  0  0
   41.1910   32.4320   38.5810 H   0  0  0  0  0  0  0  0  0  0  0  0
   39.6010   30.6510   38.8790 H   0  0  0  0  0  0  0  0  0  0  0  0
   38.7830   34.9060   41.0450 H   0  0  0  0  0  0  0  0  0  0  0  0
   36.9770   27.6910   42.4510 C   0  0  1  0  0  3  0  0  0  0  0  0
   36.5770   27.8610   43.6800 O   0  0  0  0  0  1  0  0  0  0  0  0
   37.6580   26.3900   42.2600 C   0  0  0  0  0  0  0  0  0  0  0  0
   36.9710   25.2000   42.1740 C   0  0  0  0  0  0  0  0  0  0  0  0
   35.9100   24.9310   42.2180 H   0  0  0  0  0  0  0  0  0  0  0  0
   37.8730   24.1650   41.9940 C   0  0  0  0  0  0  0  0  0  0  0  0
   37.7270   23.1160   41.8860 H   0  0  0  0  0  0  0  0  0  0  0  0
   39.1050   24.7840   41.9770 C   0  0  0  0  0  0  0  0  0  0  0  0
   40.1020   24.3420   41.8570 H   0  0  0  0  0  0  0  0  0  0  0  0
   38.9090   26.0520   42.1330 O   0  0  0  0  0  0  0  0  0  0  0  0
  2  7  1  0  0  0  0
  2  1  1  0  0  0  0
  3  2  2  0  0  0  0
  4  5  2  0  0  0  0
  4  3  1  0  0  0  0
  5  6  1  0  0  0  0
  6 10  1  0  0  0  0
  6  7  2  0  0  0  0
  7 20  1  0  0  0  0
  8  4  1  0  0  0  0
  9  5  1  0  0  0  0
 11 12  2  0  0  0  0
 11 16  1  0  0  0  0
 12 13  1  0  0  0  0
 13  3  1  0  0  0  0
 13 14  2  0  0  0  0
 15 14  1  0  0  0  0
 15 19  1  0  0  0  0
 16 15  2  0  0  0  0
 17 11  1  0  0  0  0
 18 12  1  0  0  0  0
 20 21  1  6  0  0  0
 22 20  1  0  0  0  0
 23 24  1  0  0  0  0
 23 22  2  0  0  0  0
 25 23  1  0  0  0  0
 26 25  1  0  0  0  0
 27 25  2  0  0  0  0
 27 29  1  0  0  0  0
 28 27  1  0  0  0  0
 29 22  1  0  0  0  0
M  END
>  <minimizedAffinity>
-5.40846443

$$$$

 OpenBabel03242520013D

 29 31  0  0  1  0  0  0  0  0999 V2000
   36.3980   26.7670   38.9900 Br  0  0  0  0  0  0  0  0  0  0  0  0
   36.9290   27.0510   40.7940 C   0  0  0  0  0  0  0  0  0  0  0  0
   37.6180   26.1130   41.5160 C   0  0  0  0  0  0  0  0  0  0  0  0
   37.9320   26.4060   42.8410 C   0  0  0  0  0  0  0  0  0  0  0  0
   37.5790   27.5960   43.4470 C   0  0  0  0  0  0  0  0  0  0  0  0
   36.8770   28.5530   42.7070 C   0  0  0  0  0  0  0  0  0  0  0  0
   36.5770   28.2340   41.3870 C   0  0  0  0  0  0  0  0  0  0  0  0
   38.4730   25.6290   43.3520 H   0  0  0  0  0  0  0  0  0  0  0  0
   37.8680   27.7260   44.4760 H   0  0  0  0  0  0  0  0  0  0  0  0
   36.6050   29.4820   43.1910 H   0  0  0  0  0  0  0  0  0  0  0  0
   37.7100   22.5440   40.2810 C   0  0  0  0  0  0  0  0  0  0  0  0
   37.2990   23.7030   40.9630 C   0  0  0  0  0  0  0  0  0  0  0  0
   37.9910   24.8810   40.8380 C   0  0  0  0  0  0  0  0  0  0  0  0
   39.0870   24.8200   40.0130 N   0  0  0  0  0  0  0  0  0  0  0  0
   39.4720   23.7160   39.3690 C   0  0  0  0  0  0  0  0  0  0  0  0
   38.8000   22.5880   39.4940 N   0  0  0  0  0  0  0  0  0  0  0  0
   37.0660   21.7100   40.4830 H   0  0  0  0  0  0  0  0  0  0  0  0
   36.4370   23.7410   41.6100 H   0  0  0  0  0  0  0  0  0  0  0  0
   40.3430   23.7680   38.7440 H   0  0  0  0  0  0  0  0  0  0  0  0
   35.8900   29.2690   40.6630 C   0  0  1  0  0  3  0  0  0  0  0  0
   34.6170   29.1580   40.4070 O   0  0  0  0  0  1  0  0  0  0  0  0
   36.4590   30.5280   40.1320 C   0  0  0  0  0  0  0  0  0  0  0  0
   36.7270   30.7130   38.7930 C   0  0  0  0  0  0  0  0  0  0  0  0
   36.6150   30.0860   37.9030 H   0  0  0  0  0  0  0  0  0  0  0  0
   37.2470   31.9830   38.6050 C   0  0  0  0  0  0  0  0  0  0  0  0
   37.5700   32.4860   37.7240 H   0  0  0  0  0  0  0  0  0  0  0  0
   37.2730   32.5330   39.8690 C   0  0  0  0  0  0  0  0  0  0  0  0
   37.6110   33.5280   40.1860 H   0  0  0  0  0  0  0  0  0  0  0  0
   36.8100   31.6500   40.6910 O   0  0  0  0  0  0  0  0  0  0  0  0
  1  2  1  0  0  0  0
  2  7  2  0  0  0  0
  2  3  1  0  0  0  0
  3  4  2  0  0  0  0
  4  8  1  0  0  0  0
  4  5  1  0  0  0  0
  5  9  1  0  0  0  0
  6 10  1  0  0  0  0
  6  5  2  0  0  0  0
  7  6  1  0  0  0  0
 11 17  1  0  0  0  0
 11 12  1  0  0  0  0
 12 18  1  0  0  0  0
 13 12  2  0  0  0  0
 13  3  1  0  0  0  0
 14 13  1  0  0  0  0
 15 16  1  0  0  0  0
 15 14  2  0  0  0  0
 16 11  2  0  0  0  0
 19 15  1  0  0  0  0
 20 21  1  1  0  0  0
 20  7  1  0  0  0  0
 22 20  1  0  0  0  0
 22 29  1  0  0  0  0
 23 22  2  0  0  0  0
 24 23  1  0  0  0  0
 25 23  1  0  0  0  0
 25 27  2  0  0  0  0
 26 25  1  0  0  0  0
 27 28  1  0  0  0  0
 27 29  1  0  0  0  0
M  END
>  <minimizedAffinity>
-5.36198664

$$$$

 OpenBabel03242520013D

 29 31  0  0  1  0  0  0  0  0999 V2000
   39.1930   29.7530   42.3960 Br  0  0  0  0  0  0  0  0  0  0  0  0
   37.6710   29.6650   41.2590 C   0  0  0  0  0  0  0  0  0  0  0  0
   37.4330   30.5850   40.2730 C   0  0  0  0  0  0  0  0  0  0  0  0
   36.2730   30.4510   39.5160 C   0  0  0  0  0  0  0  0  0  0  0  0
   35.3630   29.4320   39.7190 C   0  0  0  0  0  0  0  0  0  0  0  0
   35.6090   28.4910   40.7250 C   0  0  0  0  0  0  0  0  0  0  0  0
   36.7750   28.6510   41.4650 C   0  0  0  0  0  0  0  0  0  0  0  0
   36.1450   31.2050   38.7600 H   0  0  0  0  0  0  0  0  0  0  0  0
   34.4950   29.4150   39.0800 H   0  0  0  0  0  0  0  0  0  0  0  0
   34.8900   27.6970   40.8760 H   0  0  0  0  0  0  0  0  0  0  0  0
   39.3220   33.8550   40.3950 C   0  0  0  0  0  0  0  0  0  0  0  0
   38.3300   32.8850   40.6250 C   0  0  0  0  0  0  0  0  0  0  0  0
   38.4240   31.6330   40.0750 C   0  0  0  0  0  0  0  0  0  0  0  0
   39.5420   31.4240   39.3050 N   0  0  0  0  0  0  0  0  0  0  0  0
   40.4800   32.3500   39.0910 C   0  0  0  0  0  0  0  0  0  0  0  0
   40.3810   33.5530   39.6250 N   0  0  0  0  0  0  0  0  0  0  0  0
   39.1020   34.7790   40.8940 H   0  0  0  0  0  0  0  0  0  0  0  0
   37.4550   33.0580   41.2320 H   0  0  0  0  0  0  0  0  0  0  0  0
   41.3190   32.0920   38.4740 H   0  0  0  0  0  0  0  0  0  0  0  0
   36.9970   27.6350   42.4580 C   0  0  1  0  0  3  0  0  0  0  0  0
   36.5740   27.8050   43.6790 O   0  0  0  0  0  1  0  0  0  0  0  0
   37.6810   26.3340   42.2800 C   0  0  0  0  0  0  0  0  0  0  0  0
   37.0000   25.1720   41.9910 C   0  0  0  0  0  0  0  0  0  0  0  0
   35.9430   24.9300   41.8400 H   0  0  0  0  0  0  0  0  0  0  0  0
   37.9040   24.1290   41.8810 C   0  0  0  0  0  0  0  0  0  0  0  0
   37.7620   23.0960   41.6700 H   0  0  0  0  0  0  0  0  0  0  0  0
   39.1310   24.7140   42.1140 C   0  0  0  0  0  0  0  0  0  0  0  0
   40.1280   24.2560   42.1240 H   0  0  0  0  0  0  0  0  0  0  0  0
   38.9300   25.9720   42.3340 O   0  0  0  0  0  0  0  0  0  0  0  0
  2  7  1  0  0  0  0
  2  1  1  0  0  0  0
  3  2  2  0  0  0  0
  4  5  2  0  0  0  0
  4  3  1  0  0  0  0
  5  6  1  0  0  0  0
  6 10  1  0  0  0  0
  6  7  2  0  0  0  0
  7 20  1  0  0  0  0
  8  4  1  0  0  0  0
  9  5  1  0  0  0  0
 11 12  1  0  0  0  0
 11 17  1  0  0  0  0
 12 18  1  0  0  0  0
 13  3  1  0  0  0  0
 13 12  2  0  0  0  0
 14 13  1  0  0  0  0
 15 14  2  0  0  0  0
 15 16  1  0  0  0  0
 16 11  2  0  0  0  0
 19 15  1  0  0  0  0
 20 21  1  6  0  0  0
 22 29  1  0  0  0  0
 22 20  1  0  0  0  0
 23 22  2  0  0  0  0
 24 23  1  0  0  0  0
 25 23  1  0  0  0  0
 25 27  2  0  0  0  0
 26 25  1  0  0  0  0
 27 28  1  0  0  0  0
 27 29  1  0  0  0  0
M  END
>  <minimizedAffinity>
-5.3469429

$$$$

 OpenBabel03242520013D

 29 31  0  0  1  0  0  0  0  0999 V2000
   38.6060   28.2750   39.2760 Br  0  0  0  0  0  0  0  0  0  0  0  0
   37.9780   28.1120   41.0640 C   0  0  0  0  0  0  0  0  0  0  0  0
   37.7890   29.1940   41.8820 C   0  0  0  0  0  0  0  0  0  0  0  0
   37.3570   28.9650   43.1850 C   0  0  0  0  0  0  0  0  0  0  0  0
   37.1140   27.6990   43.6790 C   0  0  0  0  0  0  0  0  0  0  0  0
   37.3070   26.5940   42.8430 C   0  0  0  0  0  0  0  0  0  0  0  0
   37.7380   26.8530   41.5460 C   0  0  0  0  0  0  0  0  0  0  0  0
   37.2290   29.8560   43.7740 H   0  0  0  0  0  0  0  0  0  0  0  0
   36.7840   27.6270   44.7020 H   0  0  0  0  0  0  0  0  0  0  0  0
   37.1130   25.6060   43.2390 H   0  0  0  0  0  0  0  0  0  0  0  0
   37.3970   32.5070   40.1080 C   0  0  0  0  0  0  0  0  0  0  0  0
   37.0960   31.2360   40.6270 C   0  0  0  0  0  0  0  0  0  0  0  0
   38.0350   30.5140   41.3190 C   0  0  0  0  0  0  0  0  0  0  0  0
   39.2550   31.1320   41.4510 N   0  0  0  0  0  0  0  0  0  0  0  0
   39.5330   32.3400   40.9540 C   0  0  0  0  0  0  0  0  0  0  0  0
   38.6230   33.0270   40.2900 N   0  0  0  0  0  0  0  0  0  0  0  0
   36.5590   32.9380   39.5940 H   0  0  0  0  0  0  0  0  0  0  0  0
   36.1360   30.7580   40.5190 H   0  0  0  0  0  0  0  0  0  0  0  0
   40.5170   32.7410   41.1090 H   0  0  0  0  0  0  0  0  0  0  0  0
   37.8800   25.6860   40.7190 C   0  0  1  0  0  3  0  0  0  0  0  0
   39.0320   25.0830   40.6260 O   0  0  0  0  0  1  0  0  0  0  0  0
   36.8360   25.0240   39.9050 C   0  0  0  0  0  0  0  0  0  0  0  0
   36.2550   23.8310   40.2740 C   0  0  0  0  0  0  0  0  0  0  0  0
   36.3830   23.1560   41.1260 H   0  0  0  0  0  0  0  0  0  0  0  0
   35.3180   23.4670   39.3210 C   0  0  0  0  0  0  0  0  0  0  0  0
   34.6740   22.6220   39.2560 H   0  0  0  0  0  0  0  0  0  0  0  0
   35.3700   24.4800   38.3870 C   0  0  0  0  0  0  0  0  0  0  0  0
   34.7930   24.5990   37.4600 H   0  0  0  0  0  0  0  0  0  0  0  0
   36.2550   25.3340   38.7820 O   0  0  0  0  0  0  0  0  0  0  0  0
  1  2  1  0  0  0  0
  2  7  2  0  0  0  0
  2  3  1  0  0  0  0
  3  4  2  0  0  0  0
  4  5  1  0  0  0  0
  4  8  1  0  0  0  0
  5  9  1  0  0  0  0
  6 10  1  0  0  0  0
  6  5  2  0  0  0  0
  7  6  1  0  0  0  0
 11 16  2  0  0  0  0
 11 12  1  0  0  0  0
 12 13  2  0  0  0  0
 13 14  1  0  0  0  0
 13  3  1  0  0  0  0
 15 19  1  0  0  0  0
 15 14  2  0  0  0  0
 16 15  1  0  0  0  0
 17 11  1  0  0  0  0
 18 12  1  0  0  0  0
 20 21  1  1  0  0  0
 20  7  1  0  0  0  0
 22 23  2  0  0  0  0
 22 20  1  0  0  0  0
 23 24  1  0  0  0  0
 25 23  1  0  0  0  0
 26 25  1  0  0  0  0
 27 29  1  0  0  0  0
 27 25  2  0  0  0  0
 28 27  1  0  0  0  0
 29 22  1  0  0  0  0
M  END
>  <minimizedAffinity>
-5.0048275

$$$$

 OpenBabel03242520013D

 29 31  0  0  1  0  0  0  0  0999 V2000
   40.6770   30.0790   39.7670 Br  0  0  0  0  0  0  0  0  0  0  0  0
   39.3260   31.4170   39.7730 C   0  0  0  0  0  0  0  0  0  0  0  0
   39.5950   32.7380   39.5270 C   0  0  0  0  0  0  0  0  0  0  0  0
   38.5400   33.6440   39.5880 C   0  0  0  0  0  0  0  0  0  0  0  0
   37.2450   33.2650   39.8830 C   0  0  0  0  0  0  0  0  0  0  0  0
   36.9730   31.9160   40.1320 C   0  0  0  0  0  0  0  0  0  0  0  0
   38.0450   31.0330   40.0640 C   0  0  0  0  0  0  0  0  0  0  0  0
   38.8180   34.6630   39.3850 H   0  0  0  0  0  0  0  0  0  0  0  0
   36.5000   34.0420   39.9060 H   0  0  0  0  0  0  0  0  0  0  0  0
   35.9550   31.6280   40.3620 H   0  0  0  0  0  0  0  0  0  0  0  0
   42.7900   33.5180   37.6680 C   0  0  0  0  0  0  0  0  0  0  0  0
   41.4520   33.1650   37.9190 C   0  0  0  0  0  0  0  0  0  0  0  0
   40.9670   33.0970   39.2000 C   0  0  0  0  0  0  0  0  0  0  0  0
   41.8820   33.3960   40.1800 N   0  0  0  0  0  0  0  0  0  0  0  0
   43.1510   33.7290   39.9340 C   0  0  0  0  0  0  0  0  0  0  0  0
   43.6100   33.7930   38.6980 N   0  0  0  0  0  0  0  0  0  0  0  0
   43.0120   33.5250   36.6180 H   0  0  0  0  0  0  0  0  0  0  0  0
   40.7400   32.9320   37.1430 H   0  0  0  0  0  0  0  0  0  0  0  0
   43.7920   33.9470   40.7670 H   0  0  0  0  0  0  0  0  0  0  0  0
   37.7010   29.6550   40.2900 C   0  0  1  0  0  3  0  0  0  0  0  0
   37.5570   28.8410   39.2830 O   0  0  0  0  0  1  0  0  0  0  0  0
   37.4720   28.9830   41.5890 C   0  0  0  0  0  0  0  0  0  0  0  0
   36.6310   27.9000   41.7250 C   0  0  0  0  0  0  0  0  0  0  0  0
   36.0050   27.3350   41.0280 H   0  0  0  0  0  0  0  0  0  0  0  0
   36.6250   27.4920   43.0480 C   0  0  0  0  0  0  0  0  0  0  0  0
   36.1070   26.7010   43.5360 H   0  0  0  0  0  0  0  0  0  0  0  0
   37.4840   28.3660   43.6790 C   0  0  0  0  0  0  0  0  0  0  0  0
   37.7780   28.4090   44.7370 H   0  0  0  0  0  0  0  0  0  0  0  0
   37.9320   29.1890   42.7890 O   0  0  0  0  0  0  0  0  0  0  0  0
  1  2  1  0  0  0  0
  2  7  1  0  0  0  0
  3  4  1  0  0  0  0
  3  2  2  0  0  0  0
  4  5  2  0  0  0  0
  5  9  1  0  0  0  0
  5  6  1  0  0  0  0
  6 10  1  0  0  0  0
  7  6  2  0  0  0  0
  7 20  1  0  0  0  0
  8  4  1  0  0  0  0
 11 12  2  0  0  0  0
 11 16  1  0  0  0  0
 12 13  1  0  0  0  0
 13  3  1  0  0  0  0
 13 14  2  0  0  0  0
 15 14  1  0  0  0  0
 15 19  1  0  0  0  0
 16 15  2  0  0  0  0
 17 11  1  0  0  0  0
 18 12  1  0  0  0  0
 20 21  1  1  0  0  0
 20 22  1  0  0  0  0
 22 23  2  0  0  0  0
 22 29  1  0  0  0  0
 23 25  1  0  0  0  0
 24 23  1  0  0  0  0
 25 26  1  0  0  0  0
 25 27  2  0  0  0  0
 27 28  1  0  0  0  0
 29 27  1  0  0  0  0
M  END
>  <minimizedAffinity>
-4.9920311

$$$$

 OpenBabel03242520013D

 29 31  0  0  1  0  0  0  0  0999 V2000
   37.1330   29.6190   40.7110 Br  0  0  0  0  0  0  0  0  0  0  0  0
   38.6720   29.1850   41.7390 C   0  0  0  0  0  0  0  0  0  0  0  0
   39.8020   29.9590   41.7400 C   0  0  0  0  0  0  0  0  0  0  0  0
   40.8870   29.5370   42.5030 C   0  0  0  0  0  0  0  0  0  0  0  0
   40.8660   28.3770   43.2520 C   0  0  0  0  0  0  0  0  0  0  0  0
   39.7110   27.5880   43.2520 C   0  0  0  0  0  0  0  0  0  0  0  0
   38.6430   28.0350   42.4810 C   0  0  0  0  0  0  0  0  0  0  0  0
   41.7410   30.1890   42.4600 H   0  0  0  0  0  0  0  0  0  0  0  0
   41.7570   28.1370   43.8080 H   0  0  0  0  0  0  0  0  0  0  0  0
   39.7050   26.6810   43.8430 H   0  0  0  0  0  0  0  0  0  0  0  0
   40.2750   32.5120   38.9950 C   0  0  0  0  0  0  0  0  0  0  0  0
   40.3290   31.2980   39.7040 C   0  0  0  0  0  0  0  0  0  0  0  0
   39.7790   31.1850   40.9550 C   0  0  0  0  0  0  0  0  0  0  0  0
   39.1900   32.3310   41.4320 N   0  0  0  0  0  0  0  0  0  0  0  0
   39.1430   33.4790   40.7530 C   0  0  0  0  0  0  0  0  0  0  0  0
   39.6750   33.5800   39.5500 N   0  0  0  0  0  0  0  0  0  0  0  0
   40.7490   32.4370   38.0360 H   0  0  0  0  0  0  0  0  0  0  0  0
   40.7940   30.4040   39.3220 H   0  0  0  0  0  0  0  0  0  0  0  0
   38.6600   34.3220   41.2100 H   0  0  0  0  0  0  0  0  0  0  0  0
   37.4700   27.2070   42.5490 C   0  0  1  0  0  3  0  0  0  0  0  0
   36.5740   27.4110   43.4740 O   0  0  0  0  0  1  0  0  0  0  0  0
   37.1070   26.0810   41.6590 C   0  0  0  0  0  0  0  0  0  0  0  0
   36.9490   24.7930   42.1210 C   0  0  0  0  0  0  0  0  0  0  0  0
   37.0360   24.3240   43.1070 H   0  0  0  0  0  0  0  0  0  0  0  0
   36.6100   23.9680   41.0620 C   0  0  0  0  0  0  0  0  0  0  0  0
   36.4080   22.9230   41.0220 H   0  0  0  0  0  0  0  0  0  0  0  0
   36.5730   24.8090   39.9710 C   0  0  0  0  0  0  0  0  0  0  0  0
   36.3450   24.5770   38.9220 H   0  0  0  0  0  0  0  0  0  0  0  0
   36.8660   25.9990   40.3820 O   0  0  0  0  0  0  0  0  0  0  0  0
  1  2  1  0  0  0  0
  2  3  2  0  0  0  0
  2  7  1  0  0  0  0
  3  4  1  0  0  0  0
  4  5  2  0  0  0  0
  5  6  1  0  0  0  0
  5  9  1  0  0  0  0
  6 10  1  0  0  0  0
  7 20  1  0  0  0  0
  7  6  2  0  0  0  0
  8  4  1  0  0  0  0
 11 16  2  0  0  0  0
 11 12  1  0  0  0  0
 12 13  2  0  0  0  0
 13 14  1  0  0  0  0
 13  3  1  0  0  0  0
 15 19  1  0  0  0  0
 15 14  2  0  0  0  0
 16 15  1  0  0  0  0
 17 11  1  0  0  0  0
 18 12  1  0  0  0  0
 20 21  1  6  0  0  0
 22 23  2  0  0  0  0
 22 20  1  0  0  0  0
 23 24  1  0  0  0  0
 25 23  1  0  0  0  0
 26 25  1  0  0  0  0
 27 29  1  0  0  0  0
 27 25  2  0  0  0  0
 28 27  1  0  0  0  0
 29 22  1  0  0  0  0
M  END
>  <minimizedAffinity>
-4.96753216

$$$$

 OpenBabel03242520013D

 29 31  0  0  1  0  0  0  0  0999 V2000
   38.5290   28.7280   39.2120 Br  0  0  0  0  0  0  0  0  0  0  0  0
   38.0440   28.5070   41.0370 C   0  0  0  0  0  0  0  0  0  0  0  0
   38.3350   29.4420   41.9960 C   0  0  0  0  0  0  0  0  0  0  0  0
   37.9660   29.1700   43.3100 C   0  0  0  0  0  0  0  0  0  0  0  0
   37.3220   28.0050   43.6800 C   0  0  0  0  0  0  0  0  0  0  0  0
   37.0240   27.0530   42.6990 C   0  0  0  0  0  0  0  0  0  0  0  0
   37.4040   27.3520   41.3950 C   0  0  0  0  0  0  0  0  0  0  0  0
   38.2230   29.9430   44.0130 H   0  0  0  0  0  0  0  0  0  0  0  0
   37.0790   27.8900   44.7230 H   0  0  0  0  0  0  0  0  0  0  0  0
   36.5190   26.1450   42.9990 H   0  0  0  0  0  0  0  0  0  0  0  0
   40.9320   32.0650   41.1910 C   0  0  0  0  0  0  0  0  0  0  0  0
   40.3530   30.8580   41.6210 C   0  0  0  0  0  0  0  0  0  0  0  0
   38.9960   30.6650   41.5660 C   0  0  0  0  0  0  0  0  0  0  0  0
   38.2830   31.7270   41.0670 N   0  0  0  0  0  0  0  0  0  0  0  0
   38.8390   32.8710   40.6600 C   0  0  0  0  0  0  0  0  0  0  0  0
   40.1460   33.0480   40.7160 N   0  0  0  0  0  0  0  0  0  0  0  0
   41.9990   32.0590   41.2980 H   0  0  0  0  0  0  0  0  0  0  0  0
   40.9210   30.0290   42.0120 H   0  0  0  0  0  0  0  0  0  0  0  0
   38.1980   33.6440   40.2840 H   0  0  0  0  0  0  0  0  0  0  0  0
   37.0380   26.3570   40.4240 C   0  0  1  0  0  3  0  0  0  0  0  0
   36.0850   26.5950   39.5670 O   0  0  0  0  0  1  0  0  0  0  0  0
   37.6290   25.0120   40.2420 C   0  0  0  0  0  0  0  0  0  0  0  0
   37.0710   23.8780   40.7900 C   0  0  0  0  0  0  0  0  0  0  0  0
   36.1860   23.6900   41.4070 H   0  0  0  0  0  0  0  0  0  0  0  0
   37.8410   22.7800   40.4470 C   0  0  0  0  0  0  0  0  0  0  0  0
   37.7340   21.7460   40.6780 H   0  0  0  0  0  0  0  0  0  0  0  0
   38.8640   23.3040   39.6850 C   0  0  0  0  0  0  0  0  0  0  0  0
   39.7060   22.7890   39.2040 H   0  0  0  0  0  0  0  0  0  0  0  0
   38.6810   24.5810   39.6090 O   0  0  0  0  0  0  0  0  0  0  0  0
  1  2  1  0  0  0  0
  2  7  2  0  0  0  0
  2  3  1  0  0  0  0
  3  4  2  0  0  0  0
  4  5  1  0  0  0  0
  4  8  1  0  0  0  0
  5  9  1  0  0  0  0
  6 10  1  0  0  0  0
  6  5  2  0  0  0  0
  7  6  1  0  0  0  0
 11 17  1  0  0  0  0
 11 12  1  0  0  0  0
 12 18  1  0  0  0  0
 13 12  2  0  0  0  0
 13  3  1  0  0  0  0
 14 13  1  0  0  0  0
 15 16  1  0  0  0  0
 15 14  2  0  0  0  0
 16 11  2  0  0  0  0
 19 15  1  0  0  0  0
 20 21  1  6  0  0  0
 20  7  1  0  0  0  0
 22 20  1  0  0  0  0
 22 23  2  0  0  0  0
 23 24  1  0  0  0  0
 25 26  1  0  0  0  0
 25 23  1  0  0  0  0
 27 25  2  0  0  0  0
 28 27  1  0  0  0  0
 29 27  1  0  0  0  0
 29 22  1  0  0  0  0
M  END
>  <minimizedAffinity>
-4.8914938

$$$$

 OpenBabel03242520013D

 29 31  0  0  1  0  0  0  0  0999 V2000
   39.2120   27.6200   39.5970 Br  0  0  0  0  0  0  0  0  0  0  0  0
   38.2790   27.6140   41.2540 C   0  0  0  0  0  0  0  0  0  0  0  0
   37.5280   26.5480   41.6740 C   0  0  0  0  0  0  0  0  0  0  0  0
   36.8580   26.6560   42.8890 C   0  0  0  0  0  0  0  0  0  0  0  0
   36.9220   27.7870   43.6800 C   0  0  0  0  0  0  0  0  0  0  0  0
   37.6900   28.8740   43.2500 C   0  0  0  0  0  0  0  0  0  0  0  0
   38.3490   28.7380   42.0330 C   0  0  0  0  0  0  0  0  0  0  0  0
   36.2870   25.7860   43.1610 H   0  0  0  0  0  0  0  0  0  0  0  0
   36.3660   27.7720   44.6020 H   0  0  0  0  0  0  0  0  0  0  0  0
   37.7350   29.7550   43.8760 H   0  0  0  0  0  0  0  0  0  0  0  0
   36.6060   24.0000   39.0420 C   0  0  0  0  0  0  0  0  0  0  0  0
   36.5800   25.1650   39.8290 C   0  0  0  0  0  0  0  0  0  0  0  0
   37.5010   25.3670   40.8250 C   0  0  0  0  0  0  0  0  0  0  0  0
   38.4200   24.3560   40.9730 N   0  0  0  0  0  0  0  0  0  0  0  0
   38.4380   23.2530   40.2220 C   0  0  0  0  0  0  0  0  0  0  0  0
   37.5480   23.0670   39.2660 N   0  0  0  0  0  0  0  0  0  0  0  0
   35.8210   23.9930   38.3100 H   0  0  0  0  0  0  0  0  0  0  0  0
   35.8540   25.9530   39.7060 H   0  0  0  0  0  0  0  0  0  0  0  0
   39.1970   22.5180   40.4140 H   0  0  0  0  0  0  0  0  0  0  0  0
   39.1560   29.8680   41.6600 C   0  0  1  0  0  3  0  0  0  0  0  0
   40.4340   29.8770   41.9140 O   0  0  0  0  0  1  0  0  0  0  0  0
   38.7130   31.1080   40.9810 C   0  0  0  0  0  0  0  0  0  0  0  0
   37.4240   31.2850   40.5300 C   0  0  0  0  0  0  0  0  0  0  0  0
   36.5230   30.6630   40.5440 H   0  0  0  0  0  0  0  0  0  0  0  0
   37.3140   32.5350   39.9450 C   0  0  0  0  0  0  0  0  0  0  0  0
   36.4880   33.0270   39.4890 H   0  0  0  0  0  0  0  0  0  0  0  0
   38.5740   33.0820   40.0680 C   0  0  0  0  0  0  0  0  0  0  0  0
   38.9390   34.0640   39.7400 H   0  0  0  0  0  0  0  0  0  0  0  0
   39.3210   32.2150   40.6680 O   0  0  0  0  0  0  0  0  0  0  0  0
  1  2  1  0  0  0  0
  2  3  2  0  0  0  0
  2  7  1  0  0  0  0
  3  4  1  0  0  0  0
  4  8  1  0  0  0  0
  4  5  2  0  0  0  0
  5  9  1  0  0  0  0
  6  5  1  0  0  0  0
  6 10  1  0  0  0  0
  7  6  2  0  0  0  0
 11 16  2  0  0  0  0
 11 12  1  0  0  0  0
 12 13  2  0  0  0  0
 13 14  1  0  0  0  0
 13  3  1  0  0  0  0
 15 19  1  0  0  0  0
 15 14  2  0  0  0  0
 16 15  1  0  0  0  0
 17 11  1  0  0  0  0
 18 12  1  0  0  0  0
 20 21  1  6  0  0  0
 20  7  1  0  0  0  0
 22 20  1  0  0  0  0
 23 24  1  0  0  0  0
 23 22  2  0  0  0  0
 25 27  2  0  0  0  0
 25 23  1  0  0  0  0
 26 25  1  0  0  0  0
 27 29  1  0  0  0  0
 28 27  1  0  0  0  0
 29 22  1  0  0  0  0
M  END
>  <minimizedAffinity>
-4.8701272

$$$$

 OpenBabel03242520013D

 29 31  0  0  1  0  0  0  0  0999 V2000
   40.9010   30.2790   40.8700 Br  0  0  0  0  0  0  0  0  0  0  0  0
   39.1620   30.8980   40.4150 C   0  0  0  0  0  0  0  0  0  0  0  0
   38.9450   31.8410   39.4450 C   0  0  0  0  0  0  0  0  0  0  0  0
   37.6360   32.2520   39.2100 C   0  0  0  0  0  0  0  0  0  0  0  0
   36.5580   31.7470   39.9110 C   0  0  0  0  0  0  0  0  0  0  0  0
   36.7810   30.7830   40.9000 C   0  0  0  0  0  0  0  0  0  0  0  0
   38.0980   30.3920   41.1120 C   0  0  0  0  0  0  0  0  0  0  0  0
   37.5340   32.9930   38.4380 H   0  0  0  0  0  0  0  0  0  0  0  0
   35.5840   32.1300   39.6540 H   0  0  0  0  0  0  0  0  0  0  0  0
   35.9300   30.3940   41.4430 H   0  0  0  0  0  0  0  0  0  0  0  0
   41.7880   32.2080   36.9850 C   0  0  0  0  0  0  0  0  0  0  0  0
   40.6680   31.6790   37.6500 C   0  0  0  0  0  0  0  0  0  0  0  0
   40.1030   32.3350   38.7140 C   0  0  0  0  0  0  0  0  0  0  0  0
   40.7150   33.5160   39.0550 N   0  0  0  0  0  0  0  0  0  0  0  0
   41.7790   34.0120   38.4180 C   0  0  0  0  0  0  0  0  0  0  0  0
   42.3160   33.3750   37.3950 N   0  0  0  0  0  0  0  0  0  0  0  0
   42.1090   31.5780   36.1780 H   0  0  0  0  0  0  0  0  0  0  0  0
   40.1940   30.7500   37.3760 H   0  0  0  0  0  0  0  0  0  0  0  0
   42.1870   34.9440   38.7580 H   0  0  0  0  0  0  0  0  0  0  0  0
   38.2650   29.3720   42.1110 C   0  0  1  0  0  3  0  0  0  0  0  0
   38.6040   29.6920   43.3280 O   0  0  0  0  0  1  0  0  0  0  0  0
   38.0940   27.9100   41.9450 C   0  0  0  0  0  0  0  0  0  0  0  0
   37.1110   27.2010   42.6000 C   0  0  0  0  0  0  0  0  0  0  0  0
   36.3200   27.4750   43.3050 H   0  0  0  0  0  0  0  0  0  0  0  0
   37.1990   25.8660   42.2440 C   0  0  0  0  0  0  0  0  0  0  0  0
   36.6220   25.0210   42.5370 H   0  0  0  0  0  0  0  0  0  0  0  0
   38.2600   25.8160   41.3640 C   0  0  0  0  0  0  0  0  0  0  0  0
   38.6830   24.9520   40.8340 H   0  0  0  0  0  0  0  0  0  0  0  0
   38.7230   27.0160   41.2390 O   0  0  0  0  0  0  0  0  0  0  0  0
  2  1  1  0  0  0  0
  2  7  1  0  0  0  0
  3  2  2  0  0  0  0
  4  3  1  0  0  0  0
  4  5  2  0  0  0  0
  5  6  1  0  0  0  0
  6  7  2  0  0  0  0
  6 10  1  0  0  0  0
  7 20  1  0  0  0  0
  8  4  1  0  0  0  0
  9  5  1  0  0  0  0
 11 16  2  0  0  0  0
 11 12  1  0  0  0  0
 12 13  2  0  0  0  0
 13 14  1  0  0  0  0
 13  3  1  0  0  0  0
 15 19  1  0  0  0  0
 15 14  2  0  0  0  0
 16 15  1  0  0  0  0
 17 11  1  0  0  0  0
 18 12  1  0  0  0  0
 20 21  1  1  0  0  0
 22 20  1  0  0  0  0
 22 23  2  0  0  0  0
 23 24  1  0  0  0  0
 25 26  1  0  0  0  0
 25 23  1  0  0  0  0
 27 25  2  0  0  0  0
 28 27  1  0  0  0  0
 29 27  1  0  0  0  0
 29 22  1  0  0  0  0
M  END
>  <minimizedAffinity>
-4.85770893

$$$$
