
 OpenBabel03242520003D

 29 31  0  0  1  0  0  0  0  0999 V2000
   44.5990   33.0860   41.2060 Br  0  0  0  0  0  0  0  0  0  0  0  0
   46.2730   33.9670   41.0150 C   0  0  0  0  0  0  0  0  0  0  0  0
   46.8040   34.7630   41.9950 C   0  0  0  0  0  0  0  0  0  0  0  0
   48.0220   35.3900   41.7440 C   0  0  0  0  0  0  0  0  0  0  0  0
   48.7080   35.2390   40.5540 C   0  0  0  0  0  0  0  0  0  0  0  0
   48.1650   34.4240   39.5550 C   0  0  0  0  0  0  0  0  0  0  0  0
   46.9480   33.8110   39.8340 C   0  0  0  0  0  0  0  0  0  0  0  0
   48.3830   36.0000   42.5520 H   0  0  0  0  0  0  0  0  0  0  0  0
   49.6420   35.7660   40.4580 H   0  0  0  0  0  0  0  0  0  0  0  0
   48.7110   34.3120   38.6280 H   0  0  0  0  0  0  0  0  0  0  0  0
   44.4830   35.9480   44.7300 C   0  0  0  0  0  0  0  0  0  0  0  0
   45.1680   35.8880   43.5040 C   0  0  0  0  0  0  0  0  0  0  0  0
   46.0630   34.8820   43.2420 C   0  0  0  0  0  0  0  0  0  0  0  0
   46.2190   33.9710   44.2570 N   0  0  0  0  0  0  0  0  0  0  0  0
   45.5640   34.0350   45.4200 C   0  0  0  0  0  0  0  0  0  0  0  0
   44.7050   35.0060   45.6630 N   0  0  0  0  0  0  0  0  0  0  0  0
   43.8220   36.7930   44.7790 H   0  0  0  0  0  0  0  0  0  0  0  0
   45.0400   36.6090   42.7110 H   0  0  0  0  0  0  0  0  0  0  0  0
   45.7530   33.2740   46.1530 H   0  0  0  0  0  0  0  0  0  0  0  0
   46.4570   32.9550   38.7890 C   0  0  1  0  0  0  0  0  0  0  0  0
   45.6600   33.4270   37.8720 O   0  0  0  0  0  0  0  0  0  0  0  0
   46.7470   31.5170   38.5890 C   0  0  0  0  0  0  0  0  0  0  0  0
   46.4560   30.8590   37.4140 C   0  0  0  0  0  0  0  0  0  0  0  0
   46.0040   31.1650   36.4650 H   0  0  0  0  0  0  0  0  0  0  0  0
   46.8430   29.5340   37.5270 C   0  0  0  0  0  0  0  0  0  0  0  0
   46.7830   28.7240   36.8390 H   0  0  0  0  0  0  0  0  0  0  0  0
   47.3680   29.4380   38.7980 C   0  0  0  0  0  0  0  0  0  0  0  0
   47.7950   28.5650   39.3090 H   0  0  0  0  0  0  0  0  0  0  0  0
   47.2820   30.6040   39.3480 O   0  0  0  0  0  0  0  0  0  0  0  0
  2  1  1  0  0  0  0
  2  3  1  0  0  0  0
  3 13  1  0  0  0  0
  4  3  2  0  0  0  0
  4  8  1  0  0  0  0
  5  4  1  0  0  0  0
  6  7  1  0  0  0  0
  6  5  2  0  0  0  0
  7  2  2  0  0  0  0
  9  5  1  0  0  0  0
 10  6  1  0  0  0  0
 11 17  1  0  0  0  0
 11 16  1  0  0  0  0
 12 11  2  0  0  0  0
 13 12  1  0  0  0  0
 13 14  2  0  0  0  0
 14 15  1  0  0  0  0
 15 16  2  0  0  0  0
 15 19  1  0  0  0  0
 18 12  1  0  0  0  0
 20 21  1  6  0  0  0
 20  7  1  0  0  0  0
 22 20  1  0  0  0  0
 22 29  1  0  0  0  0
 23 25  1  0  0  0  0
 23 22  2  0  0  0  0
 24 23  1  0  0  0  0
 25 27  2  0  0  0  0
 26 25  1  0  0  0  0
 27 28  1  0  0  0  0
 27 29  1  0  0  0  0
M  END
>  <minimizedAffinity>
-5.08935642

>  <minimizedRMSD>
0.964526594

$$$$
