
 OpenBabel03242523113D

 51 55  0  0  1  0  0  0  0  0999 V2000
   45.9140   32.6910   46.5200 C   0  0  0  0  0  0  0  0  0  0  0  0
   46.4610   32.7830   45.2240 C   0  0  0  0  0  0  0  0  0  0  0  0
   47.2880   31.7180   44.9570 C   0  0  0  0  0  0  0  0  0  0  0  0
   47.5720   30.6900   45.8040 C   0  0  0  0  0  0  0  0  0  0  0  0
   46.9890   30.6810   47.0680 C   0  0  0  0  0  0  0  0  0  0  0  0
   46.1510   31.6950   47.4280 C   0  0  0  0  0  0  0  0  0  0  0  0
   47.4730   29.5330   47.6730 O   0  0  0  0  0  0  0  0  0  0  0  0
   48.2770   28.7900   46.7640 C   0  0  2  0  0  0  0  0  0  0  0  0
   48.3900   29.6000   45.5800 O   0  0  0  0  0  0  0  0  0  0  0  0
   45.2070   33.3740   47.0370 H   0  0  0  0  0  0  0  0  0  0  0  0
   47.7050   31.7660   44.0000 H   0  0  0  0  0  0  0  0  0  0  0  0
   45.7690   31.5810   48.4060 H   0  0  0  0  0  0  0  0  0  0  0  0
   49.3260   28.7340   47.1320 H   0  0  0  0  0  0  0  0  0  0  0  0
   45.8720   35.6960   42.9440 C   0  0  0  0  0  0  0  0  0  0  0  0
   46.4760   34.5070   43.3590 C   0  0  0  0  0  0  0  0  0  0  0  0
   46.0860   33.9400   44.5340 C   0  0  0  0  0  0  0  0  0  0  0  0
   45.1120   34.5820   45.2470 N   0  0  0  0  0  0  0  0  0  0  0  0
   44.5370   35.7210   44.8460 C   0  0  0  0  0  0  0  0  0  0  0  0
   44.9150   36.2630   43.7120 N   0  0  0  0  0  0  0  0  0  0  0  0
   46.1830   36.1520   41.9990 H   0  0  0  0  0  0  0  0  0  0  0  0
   43.7660   36.2790   45.3570 H   0  0  0  0  0  0  0  0  0  0  0  0
   47.4760   33.9770   42.5450 N   0  0  0  0  0  0  0  0  0  0  0  0
   48.8600   34.2400   42.7840 C   0  0  0  0  0  0  0  0  0  0  0  0
   49.8080   33.4600   41.9250 C   0  0  0  0  0  0  0  0  0  0  0  0
   49.4420   32.1280   41.6920 N   0  0  0  0  0  0  0  0  0  0  0  0
   48.1090   31.8840   41.4290 C   0  0  0  0  0  0  0  0  0  0  0  0
   47.2800   33.1510   41.4230 C   0  0  0  0  0  0  0  0  0  0  0  0
   49.1490   34.1620   43.8520 H   0  0  0  0  0  0  0  0  0  0  0  0
   49.0150   35.3270   42.5220 H   0  0  0  0  0  0  0  0  0  0  0  0
   50.8090   33.4770   42.4320 H   0  0  0  0  0  0  0  0  0  0  0  0
   49.9700   33.9800   40.9620 H   0  0  0  0  0  0  0  0  0  0  0  0
   50.1370   31.6820   41.0870 H   0  0  0  0  0  0  0  0  0  0  0  0
   47.9990   31.4600   40.3880 H   0  0  0  0  0  0  0  0  0  0  0  0
   47.6860   31.1090   42.0850 H   0  0  0  0  0  0  0  0  0  0  0  0
   47.5690   33.7260   40.5100 H   0  0  0  0  0  0  0  0  0  0  0  0
   46.2130   32.8980   41.2910 H   0  0  0  0  0  0  0  0  0  0  0  0
   47.6410   27.6250   46.4760 O   0  0  0  0  0  0  0  0  0  0  0  0
   46.2730   25.9630   47.7490 C   0  0  0  0  0  0  0  0  0  0  0  0
   47.2780   26.4750   46.9800 C   0  0  0  0  0  0  0  0  0  0  0  0
   48.2420   25.5370   46.5770 C   0  0  0  0  0  0  0  0  0  0  0  0
   49.1520   25.6400   45.9650 H   0  0  0  0  0  0  0  0  0  0  0  0
   48.1420   24.1940   46.9540 C   0  0  0  0  0  0  0  0  0  0  0  0
   48.8240   23.3940   46.7020 H   0  0  0  0  0  0  0  0  0  0  0  0
   47.0970   23.7550   47.7320 C   0  0  0  0  0  0  0  0  0  0  0  0
   46.1360   24.6490   48.1440 C   0  0  0  0  0  0  0  0  0  0  0  0
   44.0660   26.3670   48.3720 N   0  0  0  0  0  0  0  0  0  0  0  0
   45.2670   26.8640   48.2290 C   0  0  0  0  0  0  0  0  0  0  0  0
   44.8180   28.1090   48.6920 N   0  0  0  0  0  0  0  0  0  0  0  0
   43.2660   26.9240   48.7220 H   0  0  0  0  0  0  0  0  0  0  0  0
   44.8740   28.4400   49.6900 H   0  0  0  0  0  0  0  0  0  0  0  0
   44.3750   28.8820   48.1500 H   0  0  0  0  0  0  0  0  0  0  0  0
  1 10  1  0  0  0  0
  1  6  1  0  0  0  0
  2  1  2  0  0  0  0
  3  2  1  0  0  0  0
  3  4  2  0  0  0  0
  4  5  1  0  0  0  0
  5  6  2  0  0  0  0
  5  7  1  0  0  0  0
  6 12  1  0  0  0  0
  8 13  1  1  0  0  0
  8  7  1  0  0  0  0
  9  4  1  0  0  0  0
  9  8  1  0  0  0  0
 11  3  1  0  0  0  0
 14 15  2  0  0  0  0
 14 19  1  0  0  0  0
 15 16  1  0  0  0  0
 16  2  1  0  0  0  0
 16 17  2  0  0  0  0
 18 17  1  0  0  0  0
 18 21  1  0  0  0  0
 19 18  2  0  0  0  0
 20 14  1  0  0  0  0
 22 23  1  0  0  0  0
 22 15  1  0  0  0  0
 23 28  1  0  0  0  0
 24 30  1  0  0  0  0
 24 23  1  0  0  0  0
 25 24  1  0  0  0  0
 26 25  1  0  0  0  0
 26 34  1  0  0  0  0
 27 26  1  0  0  0  0
 27 22  1  0  0  0  0
 29 23  1  0  0  0  0
 31 24  1  0  0  0  0
 32 25  1  0  0  0  0
 33 26  1  0  0  0  0
 35 27  1  0  0  0  0
 36 27  1  0  0  0  0
 37  8  1  0  0  0  0
 37 39  1  0  0  0  0
 38 45  1  0  0  0  0
 38 47  1  0  0  0  0
 39 38  2  0  0  0  0
 40 42  2  0  0  0  0
 40 39  1  0  0  0  0
 41 40  1  0  0  0  0
 42 44  1  0  0  0  0
 43 42  1  0  0  0  0
 44 45  2  0  0  0  0
 46 49  1  0  0  0  0
 47 46  2  0  0  0  0
 47 48  1  0  0  0  0
 48 50  1  0  0  0  0
 51 48  1  0  0  0  0
M  END
>  <minimizedAffinity>
-5.5453701

>  <minimizedRMSD>
4.05468369

$$$$
