
 OpenBabel03242511083D

 48 52  0  0  1  0  0  0  0  0999 V2000
   46.0740   32.2700   43.9460 C   0  0  0  0  0  0  0  0  0  0  0  0
   46.2490   31.6290   45.1700 C   0  0  0  0  0  0  0  0  0  0  0  0
   45.9620   32.2300   46.3910 C   0  0  0  0  0  0  0  0  0  0  0  0
   45.4800   33.5240   46.4270 C   0  0  0  0  0  0  0  0  0  0  0  0
   45.2970   34.1770   45.2510 C   0  0  0  0  0  0  0  0  0  0  0  0
   44.8130   35.4670   45.2760 C   0  0  0  0  0  0  0  0  0  0  0  0
   44.5980   36.1920   44.1100 C   0  0  0  0  0  0  0  0  0  0  0  0
   44.8940   35.5540   42.9100 C   0  0  0  0  0  0  0  0  0  0  0  0
   45.3810   34.2520   42.9200 C   0  0  0  0  0  0  0  0  0  0  0  0
   45.5930   33.5440   44.0620 C   0  0  0  0  0  0  0  0  0  0  0  0
   46.6210   30.6150   45.2310 H   0  0  0  0  0  0  0  0  0  0  0  0
   46.1140   31.6920   47.3200 H   0  0  0  0  0  0  0  0  0  0  0  0
   45.2710   33.9520   47.3900 H   0  0  0  0  0  0  0  0  0  0  0  0
   44.5980   35.9160   46.2430 H   0  0  0  0  0  0  0  0  0  0  0  0
   44.2160   37.1970   44.2520 H   0  0  0  0  0  0  0  0  0  0  0  0
   44.6860   36.2170   42.0810 H   0  0  0  0  0  0  0  0  0  0  0  0
   44.3860   33.3400   40.9740 C   0  0  0  0  0  0  0  0  0  0  0  0
   45.5620   33.8660   41.5330 C   0  0  0  0  0  0  0  0  0  0  0  0
   46.6300   33.9560   40.6630 C   0  0  0  0  0  0  0  0  0  0  0  0
   47.5000   34.3830   41.1820 H   0  0  0  0  0  0  0  0  0  0  0  0
   46.5700   33.5670   39.3500 C   0  0  0  0  0  0  0  0  0  0  0  0
   47.5040   33.7110   38.8210 H   0  0  0  0  0  0  0  0  0  0  0  0
   45.4130   33.0530   38.8100 C   0  0  0  0  0  3  0  0  0  0  0  0
   44.3290   32.9490   39.6490 C   0  0  0  0  0  3  0  0  0  0  0  0
   42.1820   33.9910   41.7240 N   0  0  0  0  0  0  0  0  0  0  0  0
   43.1550   33.1530   41.6900 C   0  0  0  0  0  0  0  0  0  0  0  0
   42.8720   31.9920   42.4610 N   0  0  0  0  0  0  0  0  0  0  0  0
   41.3090   33.8270   42.2510 H   0  0  0  0  0  0  0  0  0  0  0  0
   42.3560   31.1390   42.0910 H   0  0  0  0  0  0  0  0  0  0  0  0
   43.1770   31.9290   43.4770 H   0  0  0  0  0  0  0  0  0  0  0  0
   46.3970   31.5840   42.7670 N   0  0  0  0  0  0  0  0  0  0  0  0
   45.7770   31.6760   41.9340 H   0  0  0  0  0  0  0  0  0  0  0  0
   48.9120   31.2140   42.6220 C   0  0  1  0  0  0  0  0  0  0  0  0
   48.2880   30.6730   41.3530 C   0  0  0  0  0  0  0  0  0  0  0  0
   47.5440   30.7250   42.6830 C   0  0  2  0  0  0  0  0  0  0  0  0
   49.2330   32.2720   42.4710 H   0  0  0  0  0  0  0  0  0  0  0  0
   47.9640   31.3490   40.5530 H   0  0  0  0  0  0  0  0  0  0  0  0
   48.5820   29.6530   41.0060 H   0  0  0  0  0  0  0  0  0  0  0  0
   47.4080   29.7320   43.1960 H   0  0  0  0  0  0  0  0  0  0  0  0
   50.7110   28.8900   44.9010 C   0  0  0  0  0  0  0  0  0  0  0  0
   52.0600   29.0530   44.4410 C   0  0  0  0  0  0  0  0  0  0  0  0
   52.3070   29.9410   43.3600 C   0  0  0  0  0  0  0  0  0  0  0  0
   51.2750   30.5880   42.8180 N   0  0  0  0  0  0  0  0  0  0  0  0
   50.0070   30.4190   43.2700 C   0  0  0  0  0  0  0  0  0  0  0  0
   49.7230   29.5690   44.3130 N   0  0  0  0  0  0  0  0  0  0  0  0
   50.5430   28.2090   45.7270 H   0  0  0  0  0  0  0  0  0  0  0  0
   52.8440   28.5070   44.9170 H   0  0  0  0  0  0  0  0  0  0  0  0
   53.3270   30.0550   43.0220 H   0  0  0  0  0  0  0  0  0  0  0  0
  1 10  2  0  0  0  0
  1  2  1  0  0  0  0
  2 11  1  0  0  0  0
  2  3  2  0  0  0  0
  3  4  1  0  0  0  0
  3 12  1  0  0  0  0
  4 13  1  0  0  0  0
  5  6  1  0  0  0  0
  5  4  2  0  0  0  0
  6 14  1  0  0  0  0
  7 15  1  0  0  0  0
  7  6  2  0  0  0  0
  8  9  2  0  0  0  0
  8  7  1  0  0  0  0
  9 10  1  0  0  0  0
 10  5  1  0  0  0  0
 16  8  1  0  0  0  0
 17 18  1  0  0  0  0
 17 26  1  0  0  0  0
 18  9  1  0  0  0  0
 19 20  1  0  0  0  0
 19 18  2  0  0  0  0
 21 19  1  0  0  0  0
 22 21  1  0  0  0  0
 23 21  2  0  0  0  0
 23 24  1  0  0  0  0
 24 17  2  0  0  0  0
 25 28  1  0  0  0  0
 26 25  2  0  0  0  0
 26 27  1  0  0  0  0
 27 30  1  0  0  0  0
 29 27  1  0  0  0  0
 31  1  1  0  0  0  0
 32 31  1  0  0  0  0
 33 36  1  1  0  0  0
 33 35  1  0  0  0  0
 33 44  1  0  0  0  0
 34 33  1  0  0  0  0
 34 35  1  0  0  0  0
 35 31  1  0  0  0  0
 35 39  1  1  0  0  0
 37 34  1  0  0  0  0
 38 34  1  0  0  0  0
 40 46  1  0  0  0  0
 41 40  1  0  0  0  0
 41 47  1  0  0  0  0
 42 41  2  0  0  0  0
 43 44  2  0  0  0  0
 43 42  1  0  0  0  0
 44 45  1  0  0  0  0
 45 40  2  0  0  0  0
 48 42  1  0  0  0  0
M  END
>  <minimizedAffinity>
-5.52288151

>  <minimizedRMSD>
1.97349918

$$$$
