
 OpenBabel03252506373D

 49 52  0  0  1  0  0  0  0  0999 V2000
   46.5170   29.8820   43.2210 O   0  0  0  0  0  0  0  0  0  0  0  0
   45.5780   29.6730   44.0090 C   0  0  0  0  0  0  0  0  0  0  0  0
   45.2520   29.8250   45.4440 C   0  0  1  0  0  0  0  0  0  0  0  0
   44.4650   28.5650   45.7080 C   0  0  0  0  0  0  0  0  0  0  0  0
   43.4590   28.7030   44.5650 C   0  0  0  0  0  0  0  0  0  0  0  0
   44.3600   29.1010   43.4890 N   0  0  0  0  0  0  0  0  0  0  0  0
   44.4170   30.5810   45.3980 H   0  0  0  0  0  0  0  0  0  0  0  0
   43.9450   28.6080   46.6920 H   0  0  0  0  0  0  0  0  0  0  0  0
   45.0610   27.6650   45.5770 H   0  0  0  0  0  0  0  0  0  0  0  0
   42.7100   29.4860   44.7870 H   0  0  0  0  0  0  0  0  0  0  0  0
   43.0250   27.7330   44.3110 H   0  0  0  0  0  0  0  0  0  0  0  0
   43.5030   29.9660   41.4110 C   0  0  0  0  0  0  0  0  0  0  0  0
   43.9700   28.9020   42.1250 C   0  0  0  0  0  0  0  0  0  0  0  0
   44.0790   27.6430   41.5640 C   0  0  0  0  0  0  0  0  0  0  0  0
   44.4570   26.8290   42.1770 H   0  0  0  0  0  0  0  0  0  0  0  0
   43.7170   27.4240   40.2660 C   0  0  0  0  0  0  0  0  0  0  0  0
   43.8120   26.4260   39.8490 H   0  0  0  0  0  0  0  0  0  0  0  0
   43.2400   28.4750   39.5110 C   0  0  0  0  0  3  0  0  0  0  0  0
   43.1440   29.7190   40.1010 C   0  0  0  0  0  3  0  0  0  0  0  0
   44.3760   32.1140   41.8380 N   0  0  0  0  0  0  0  0  0  0  0  0
   43.3550   31.3210   41.9270 C   0  0  0  0  0  0  0  0  0  0  0  0
   42.1970   31.8900   42.5280 N   0  0  0  0  0  0  0  0  0  0  0  0
   44.3030   33.0920   42.1960 H   0  0  0  0  0  0  0  0  0  0  0  0
   41.9580   32.8860   42.3860 H   0  0  0  0  0  0  0  0  0  0  0  0
   41.3350   32.0890   43.0440 H   0  0  0  0  0  0  0  0  0  0  0  0
   46.5720   30.1410   46.5430 S   0  0  0  0  0  0  0  0  0  0  0  0
   44.4880   35.6220   45.0860 C   0  0  0  0  0  0  0  0  0  0  0  0
   45.1420   35.6010   43.8440 C   0  0  0  0  0  0  0  0  0  0  0  0
   46.0550   34.6310   43.5900 C   0  0  0  0  0  0  0  0  0  0  0  0
   46.2820   33.7240   44.5720 N   0  0  0  0  0  0  0  0  0  0  0  0
   45.6590   33.7530   45.7410 C   0  0  0  0  0  0  0  0  0  0  0  0
   44.7560   34.6950   46.0200 N   0  0  0  0  0  0  0  0  0  0  0  0
   45.9750   32.7460   46.7160 N   0  0  0  0  0  0  0  0  0  0  0  0
   45.2240   32.5120   47.9090 C   0  0  0  0  0  0  0  0  0  0  0  0
   46.2940   32.1450   48.9160 C   0  0  0  0  0  0  0  0  0  0  0  0
   47.5760   32.0470   48.1620 C   0  0  0  0  0  0  0  0  0  0  0  0
   47.0900   31.8270   46.7270 C   0  0  1  0  0  0  0  0  0  0  0  0
   43.7600   36.3820   45.3100 H   0  0  0  0  0  0  0  0  0  0  0  0
   46.5660   34.5950   42.6490 H   0  0  0  0  0  0  0  0  0  0  0  0
   44.9300   33.5580   48.2620 H   0  0  0  0  0  0  0  0  0  0  0  0
   44.3150   31.9920   47.9390 H   0  0  0  0  0  0  0  0  0  0  0  0
   46.0060   31.1140   49.2770 H   0  0  0  0  0  0  0  0  0  0  0  0
   46.3340   32.7580   49.8090 H   0  0  0  0  0  0  0  0  0  0  0  0
   48.1970   31.2100   48.5190 H   0  0  0  0  0  0  0  0  0  0  0  0
   48.1270   32.9940   48.2140 H   0  0  0  0  0  0  0  0  0  0  0  0
   47.8820   32.1570   46.0360 H   0  0  0  0  0  0  0  0  0  0  0  0
   44.7970   36.6300   42.8990 N   0  0  0  0  0  0  0  0  0  0  0  0
   44.5630   36.2070   41.9740 H   0  0  0  0  0  0  0  0  0  0  0  0
   44.8380   37.6010   43.2920 H   0  0  0  0  0  0  0  0  0  0  0  0
  1  2  2  0  0  0  0
  2  3  1  0  0  0  0
  3  7  1  1  0  0  0
  3  4  1  0  0  0  0
  3 26  1  0  0  0  0
  4  8  1  0  0  0  0
  5 10  1  0  0  0  0
  5  4  1  0  0  0  0
  6  2  1  0  0  0  0
  6  5  1  0  0  0  0
  9  4  1  0  0  0  0
 11  5  1  0  0  0  0
 12 21  1  0  0  0  0
 12 13  1  0  0  0  0
 13  6  1  0  0  0  0
 14 13  2  0  0  0  0
 14 15  1  0  0  0  0
 16 14  1  0  0  0  0
 17 16  1  0  0  0  0
 18 19  1  0  0  0  0
 18 16  2  0  0  0  0
 19 12  2  0  0  0  0
 20 21  2  0  0  0  0
 20 23  1  0  0  0  0
 21 22  1  0  0  0  0
 22 25  1  0  0  0  0
 24 22  1  0  0  0  0
 26 37  1  0  0  0  0
 27 38  1  0  0  0  0
 27 32  1  0  0  0  0
 28 27  2  0  0  0  0
 29 28  1  0  0  0  0
 29 30  2  0  0  0  0
 30 31  1  0  0  0  0
 31 32  2  0  0  0  0
 31 33  1  0  0  0  0
 33 37  1  0  0  0  0
 33 34  1  0  0  0  0
 34 41  1  0  0  0  0
 34 40  1  0  0  0  0
 34 35  1  0  0  0  0
 35 42  1  0  0  0  0
 35 43  1  0  0  0  0
 36 45  1  0  0  0  0
 36 44  1  0  0  0  0
 36 35  1  0  0  0  0
 37 46  1  6  0  0  0
 37 36  1  0  0  0  0
 39 29  1  0  0  0  0
 47 49  1  0  0  0  0
 47 28  1  0  0  0  0
 48 47  1  0  0  0  0
M  END
>  <minimizedAffinity>
-5.36528206

>  <minimizedRMSD>
1.04533041

$$$$
