
 OpenBabel03242511093D

 48 52  0  0  1  0  0  0  0  0999 V2000
   46.2240   32.4460   43.9280 C   0  0  0  0  0  0  0  0  0  0  0  0
   46.3060   31.7970   45.1580 C   0  0  0  0  0  0  0  0  0  0  0  0
   45.9010   32.3810   46.3540 C   0  0  0  0  0  0  0  0  0  0  0  0
   45.3890   33.6640   46.3570 C   0  0  0  0  0  0  0  0  0  0  0  0
   45.2940   34.3230   45.1740 C   0  0  0  0  0  0  0  0  0  0  0  0
   44.7820   35.6030   45.1660 C   0  0  0  0  0  0  0  0  0  0  0  0
   44.6530   36.3330   43.9920 C   0  0  0  0  0  0  0  0  0  0  0  0
   45.0660   35.7140   42.8170 C   0  0  0  0  0  0  0  0  0  0  0  0
   45.5800   34.4220   42.8600 C   0  0  0  0  0  0  0  0  0  0  0  0
   45.7070   33.7080   44.0110 C   0  0  0  0  0  0  0  0  0  0  0  0
   46.6940   30.7910   45.2430 H   0  0  0  0  0  0  0  0  0  0  0  0
   45.9830   31.8370   47.2890 H   0  0  0  0  0  0  0  0  0  0  0  0
   45.0880   34.0790   47.3020 H   0  0  0  0  0  0  0  0  0  0  0  0
   44.4730   36.0380   46.1140 H   0  0  0  0  0  0  0  0  0  0  0  0
   44.2380   37.3290   44.1070 H   0  0  0  0  0  0  0  0  0  0  0  0
   44.9160   36.3790   41.9790 H   0  0  0  0  0  0  0  0  0  0  0  0
   44.7600   33.5780   40.8040 C   0  0  0  0  0  0  0  0  0  0  0  0
   45.8890   34.0530   41.4910 C   0  0  0  0  0  0  0  0  0  0  0  0
   47.0440   34.1190   40.7370 C   0  0  0  0  0  0  0  0  0  0  0  0
   47.8700   34.5040   41.3510 H   0  0  0  0  0  0  0  0  0  0  0  0
   47.1070   33.7550   39.4170 C   0  0  0  0  0  0  0  0  0  0  0  0
   48.0950   33.8730   38.9890 H   0  0  0  0  0  0  0  0  0  0  0  0
   45.9940   33.2910   38.7530 C   0  0  0  0  0  3  0  0  0  0  0  0
   44.8280   33.2120   39.4730 C   0  0  0  0  0  3  0  0  0  0  0  0
   42.4820   34.2530   41.2550 N   0  0  0  0  0  0  0  0  0  0  0  0
   43.4560   33.4240   41.3860 C   0  0  0  0  0  0  0  0  0  0  0  0
   43.0890   32.3120   42.1910 N   0  0  0  0  0  0  0  0  0  0  0  0
   41.5560   34.1130   41.6880 H   0  0  0  0  0  0  0  0  0  0  0  0
   42.6220   31.4320   41.8210 H   0  0  0  0  0  0  0  0  0  0  0  0
   43.2770   32.3160   43.2370 H   0  0  0  0  0  0  0  0  0  0  0  0
   46.6640   31.7780   42.7770 N   0  0  0  0  0  0  0  0  0  0  0  0
   46.2000   31.9710   41.8630 H   0  0  0  0  0  0  0  0  0  0  0  0
   49.1250   31.1340   42.6680 C   0  0  1  0  0  0  0  0  0  0  0  0
   48.4150   30.4580   41.5140 C   0  0  0  0  0  0  0  0  0  0  0  0
   47.7180   30.8040   42.8240 C   0  0  2  0  0  0  0  0  0  0  0  0
   49.5450   32.1140   42.3390 H   0  0  0  0  0  0  0  0  0  0  0  0
   48.1380   31.0220   40.6150 H   0  0  0  0  0  0  0  0  0  0  0  0
   48.5960   29.3700   41.3390 H   0  0  0  0  0  0  0  0  0  0  0  0
   47.4980   29.9280   43.4970 H   0  0  0  0  0  0  0  0  0  0  0  0
   50.6980   28.8340   45.1310 C   0  0  0  0  0  0  0  0  0  0  0  0
   52.0850   29.0000   44.8060 C   0  0  0  0  0  0  0  0  0  0  0  0
   52.4350   29.8820   43.7490 C   0  0  0  0  0  0  0  0  0  0  0  0
   51.4590   30.5200   43.1020 N   0  0  0  0  0  0  0  0  0  0  0  0
   50.1530   30.3480   43.4270 C   0  0  0  0  0  0  0  0  0  0  0  0
   49.7700   29.5040   44.4420 N   0  0  0  0  0  0  0  0  0  0  0  0
   50.4510   28.1580   45.9400 H   0  0  0  0  0  0  0  0  0  0  0  0
   52.8200   28.4610   45.3610 H   0  0  0  0  0  0  0  0  0  0  0  0
   53.4830   29.9980   43.5120 H   0  0  0  0  0  0  0  0  0  0  0  0
  1 10  2  0  0  0  0
  1  2  1  0  0  0  0
  2 11  1  0  0  0  0
  2  3  2  0  0  0  0
  3  4  1  0  0  0  0
  3 12  1  0  0  0  0
  4 13  1  0  0  0  0
  5  4  2  0  0  0  0
  6  5  1  0  0  0  0
  6 14  1  0  0  0  0
  7 15  1  0  0  0  0
  7  6  2  0  0  0  0
  8  9  2  0  0  0  0
  8  7  1  0  0  0  0
  9 10  1  0  0  0  0
 10  5  1  0  0  0  0
 16  8  1  0  0  0  0
 17 26  1  0  0  0  0
 17 18  1  0  0  0  0
 18  9  1  0  0  0  0
 19 20  1  0  0  0  0
 19 18  2  0  0  0  0
 21 19  1  0  0  0  0
 22 21  1  0  0  0  0
 23 21  2  0  0  0  0
 23 24  1  0  0  0  0
 24 17  2  0  0  0  0
 25 26  2  0  0  0  0
 25 28  1  0  0  0  0
 26 27  1  0  0  0  0
 27 30  1  0  0  0  0
 29 27  1  0  0  0  0
 31 35  1  0  0  0  0
 31  1  1  0  0  0  0
 32 31  1  0  0  0  0
 33 36  1  6  0  0  0
 33 35  1  0  0  0  0
 33 44  1  0  0  0  0
 34 33  1  0  0  0  0
 34 35  1  0  0  0  0
 35 39  1  1  0  0  0
 37 34  1  0  0  0  0
 38 34  1  0  0  0  0
 40 46  1  0  0  0  0
 41 40  1  0  0  0  0
 41 47  1  0  0  0  0
 42 41  2  0  0  0  0
 43 44  2  0  0  0  0
 43 42  1  0  0  0  0
 44 45  1  0  0  0  0
 45 40  2  0  0  0  0
 48 42  1  0  0  0  0
M  END
>  <minimizedAffinity>
-5.42893171

>  <minimizedRMSD>
1.99353516

$$$$
