
 OpenBabel03242516223D

 34 36  0  0  0  0  0  0  0  0999 V2000
   45.9470   32.8590   46.7560 C   0  0  0  0  0  0  0  0  0  0  0  0
   47.0360   32.0200   46.7790 C   0  0  0  0  0  0  0  0  0  0  0  0
   47.2450   31.1440   47.8220 C   0  0  0  0  0  0  0  0  0  0  0  0
   46.3590   31.0800   48.8870 C   0  0  0  0  0  0  0  0  0  0  0  0
   45.2670   31.9120   48.8790 C   0  0  0  0  0  0  0  0  0  0  0  0
   45.0770   32.7810   47.8230 C   0  0  0  0  0  0  0  0  0  0  0  0
   47.7270   32.0750   45.9400 H   0  0  0  0  0  0  0  0  0  0  0  0
   46.5180   30.3900   49.7140 H   0  0  0  0  0  0  0  0  0  0  0  0
   44.5390   31.9030   49.6900 H   0  0  0  0  0  0  0  0  0  0  0  0
   44.2170   33.4430   47.8070 H   0  0  0  0  0  0  0  0  0  0  0  0
   44.5840   35.6500   44.8240 C   0  0  0  0  0  0  0  0  0  0  0  0
   45.2640   35.5750   43.6030 C   0  0  0  0  0  0  0  0  0  0  0  0
   46.2070   34.5450   43.4430 C   0  0  0  0  0  0  0  0  0  0  0  0
   46.4260   33.6650   44.4690 N   0  0  0  0  0  0  0  0  0  0  0  0
   45.7290   33.7880   45.6430 C   0  0  0  0  0  0  0  0  0  0  0  0
   44.8120   34.7750   45.8230 N   0  0  0  0  0  0  0  0  0  0  0  0
   43.8680   36.4600   44.8980 H   0  0  0  0  0  0  0  0  0  0  0  0
   45.0840   36.2790   42.7900 H   0  0  0  0  0  0  0  0  0  0  0  0
   46.7540   34.4530   42.5120 H   0  0  0  0  0  0  0  0  0  0  0  0
   48.6860   30.0820   47.7810 S   0  0  0  0  0  0  0  0  0  0  0  0
   50.2080   29.0890   49.7150 C   0  0  0  0  0  0  0  0  0  0  0  0
   49.6630   30.2580   49.2560 C   0  0  0  0  0  0  0  0  0  0  0  0
   49.9180   31.4030   49.9600 C   0  0  0  0  0  0  0  0  0  0  0  0
   49.4530   32.3070   49.5420 H   0  0  0  0  0  0  0  0  0  0  0  0
   50.6950   31.4050   51.0940 C   0  0  0  0  0  0  0  0  0  0  0  0
   50.8600   32.3550   51.6100 H   0  0  0  0  0  0  0  0  0  0  0  0
   51.2510   30.2310   51.5650 C   0  0  0  0  0  3  0  0  0  0  0  0
   50.9970   29.0610   50.8570 C   0  0  0  0  0  3  0  0  0  0  0  0
   49.0880   26.8980   49.1200 N   0  0  0  0  0  0  0  0  0  0  0  0
   50.0320   27.7770   49.0790 C   0  0  0  0  0  0  0  0  0  0  0  0
   51.1420   27.4310   48.2590 N   0  0  0  0  0  0  0  0  0  0  0  0
   48.2170   27.0020   49.6700 H   0  0  0  0  0  0  0  0  0  0  0  0
   51.8380   26.7700   48.6720 H   0  0  0  0  0  0  0  0  0  0  0  0
   51.9540   27.1770   47.6560 H   0  0  0  0  0  0  0  0  0  0  0  0
  1  2  2  0  0  0  0
  1  6  1  0  0  0  0
  2  3  1  0  0  0  0
  3  4  2  0  0  0  0
  4  8  1  0  0  0  0
  5  4  1  0  0  0  0
  5  9  1  0  0  0  0
  6  5  2  0  0  0  0
  7  2  1  0  0  0  0
 10  6  1  0  0  0  0
 11 17  1  0  0  0  0
 11 16  1  0  0  0  0
 12 11  2  0  0  0  0
 13 12  1  0  0  0  0
 13 14  2  0  0  0  0
 14 15  1  0  0  0  0
 15 16  2  0  0  0  0
 15  1  1  0  0  0  0
 18 12  1  0  0  0  0
 19 13  1  0  0  0  0
 20  3  1  0  0  0  0
 20 22  1  0  0  0  0
 21 28  1  0  0  0  0
 22 21  2  0  0  0  0
 22 23  1  0  0  0  0
 23 25  2  0  0  0  0
 24 23  1  0  0  0  0
 25 27  1  0  0  0  0
 25 26  1  0  0  0  0
 28 27  2  0  0  0  0
 29 32  1  0  0  0  0
 30 29  2  0  0  0  0
 30 21  1  0  0  0  0
 31 33  1  0  0  0  0
 31 30  1  0  0  0  0
 34 31  1  0  0  0  0
M  END
>  <minimizedAffinity>
-5.9921155

>  <minimizedRMSD>
1.47103488

$$$$
