
 OpenBabel03242519383D

 32 33  0  0  0  0  0  0  0  0999 V2000
   48.0970   32.8590   41.7710 O   0  0  0  0  0  0  0  0  0  0  0  0
   47.1750   33.9920   41.2970 P   0  0  2  0  0  0  0  0  0  0  0  0
   45.6190   33.7300   41.9690 O   0  0  0  0  0  0  0  0  0  0  0  0
   44.3960   35.8940   44.6520 C   0  0  0  0  0  0  0  0  0  0  0  0
   44.6790   35.4390   43.3420 C   0  0  0  0  0  0  0  0  0  0  0  0
   45.3230   34.2120   43.2400 C   0  0  0  0  0  0  0  0  0  0  0  0
   45.6510   33.5120   44.3650 N   0  0  0  0  0  0  0  0  0  0  0  0
   45.3530   34.0000   45.6000 C   0  0  0  0  0  0  0  0  0  0  0  0
   44.7340   35.1740   45.7450 N   0  0  0  0  0  0  0  0  0  0  0  0
   43.8910   36.8520   44.7960 H   0  0  0  0  0  0  0  0  0  0  0  0
   44.3860   36.0540   42.5160 H   0  0  0  0  0  0  0  0  0  0  0  0
   45.6210   33.4260   46.4740 H   0  0  0  0  0  0  0  0  0  0  0  0
   47.0690   34.0820   39.6410 O   0  0  0  0  0  0  0  0  0  0  0  0
   47.7610   32.5400   37.8790 C   0  0  0  0  0  0  0  0  0  0  0  0
   46.8950   32.9250   38.8920 C   0  0  0  0  0  0  0  0  0  0  0  0
   45.8370   32.0640   39.1030 C   0  0  0  0  0  0  0  0  0  0  0  0
   45.0990   32.2820   39.8810 H   0  0  0  0  0  0  0  0  0  0  0  0
   45.5980   30.9000   38.4020 C   0  0  0  0  0  0  0  0  0  0  0  0
   44.7470   30.2660   38.6170 H   0  0  0  0  0  0  0  0  0  0  0  0
   46.4990   30.5820   37.4120 C   0  0  0  0  0  0  0  0  0  0  0  0
   47.5850   31.3880   37.1340 C   0  0  0  0  0  0  0  0  0  0  0  0
   50.0720   32.8190   37.4630 N   0  0  0  0  0  0  0  0  0  0  0  0
   48.9100   33.3880   37.5830 C   0  0  0  0  0  0  0  0  0  0  0  0
   48.9370   34.7990   37.4020 N   0  0  0  0  0  0  0  0  0  0  0  0
   50.9350   33.3730   37.2520 H   0  0  0  0  0  0  0  0  0  0  0  0
   48.8750   34.8410   36.3460 H   0  0  0  0  0  0  0  0  0  0  0  0
   48.9980   35.6130   38.0510 H   0  0  0  0  0  0  0  0  0  0  0  0
   47.7770   35.4170   41.9630 O   0  0  0  0  0  0  0  0  0  0  0  0
   49.0200   35.7570   41.4590 C   0  0  0  0  0  0  0  0  0  0  0  0
   49.4450   37.0210   41.8520 F   0  0  0  0  0  0  0  0  0  0  0  0
   49.9340   34.7720   41.7600 F   0  0  0  0  0  0  0  0  0  0  0  0
   48.8840   35.8040   40.0750 F   0  0  0  0  0  0  0  0  0  0  0  0
  2  1  2  1  0  0  0
  2 28  1  0  0  0  0
  2  3  1  0  0  0  0
  3  6  1  0  0  0  0
  4 10  1  0  0  0  0
  4  9  1  0  0  0  0
  5  4  2  0  0  0  0
  6  5  1  0  0  0  0
  6  7  2  0  0  0  0
  7  8  1  0  0  0  0
  8  9  2  0  0  0  0
  8 12  1  0  0  0  0
 11  5  1  0  0  0  0
 13  2  1  0  0  0  0
 14 15  1  0  0  0  0
 15 16  2  0  0  0  0
 15 13  1  0  0  0  0
 16 17  1  0  0  0  0
 18 19  1  0  0  0  0
 18 16  1  0  0  0  0
 20 18  2  0  0  0  0
 21 20  1  0  0  0  0
 21 14  2  0  0  0  0
 22 23  2  0  0  0  0
 23 14  1  0  0  0  0
 24 23  1  0  0  0  0
 24 27  1  0  0  0  0
 25 22  1  0  0  0  0
 26 24  1  0  0  0  0
 29 31  1  0  0  0  0
 29 30  1  0  0  0  0
 29 28  1  0  0  0  0
 32 29  1  0  0  0  0
M  END
>  <minimizedAffinity>
-5.81173754

>  <minimizedRMSD>
0.43249166

$$$$
