
 OpenBabel03242511083D

 48 52  0  0  1  0  0  0  0  0999 V2000
   45.6530   32.0620   43.9370 C   0  0  0  0  0  0  0  0  0  0  0  0
   45.9590   31.3940   45.1210 C   0  0  0  0  0  0  0  0  0  0  0  0
   45.9410   32.0100   46.3680 C   0  0  0  0  0  0  0  0  0  0  0  0
   45.6090   33.3460   46.4730 C   0  0  0  0  0  0  0  0  0  0  0  0
   45.3030   34.0260   45.3390 C   0  0  0  0  0  0  0  0  0  0  0  0
   44.9670   35.3590   45.4330 C   0  0  0  0  0  0  0  0  0  0  0  0
   44.6390   36.1140   44.3140 C   0  0  0  0  0  0  0  0  0  0  0  0
   44.6660   35.4610   43.0850 C   0  0  0  0  0  0  0  0  0  0  0  0
   45.0110   34.1150   43.0250 C   0  0  0  0  0  0  0  0  0  0  0  0
   45.3330   33.3770   44.1220 C   0  0  0  0  0  0  0  0  0  0  0  0
   46.2300   30.3460   45.1260 H   0  0  0  0  0  0  0  0  0  0  0  0
   46.1870   31.4490   47.2630 H   0  0  0  0  0  0  0  0  0  0  0  0
   45.6070   33.7840   47.4550 H   0  0  0  0  0  0  0  0  0  0  0  0
   44.9610   35.8180   46.4190 H   0  0  0  0  0  0  0  0  0  0  0  0
   44.3920   37.1520   44.5090 H   0  0  0  0  0  0  0  0  0  0  0  0
   44.3940   36.1500   42.2980 H   0  0  0  0  0  0  0  0  0  0  0  0
   46.1720   33.7480   40.9930 C   0  0  0  0  0  0  0  0  0  0  0  0
   44.9200   33.7260   41.6300 C   0  0  0  0  0  0  0  0  0  0  0  0
   43.8720   33.3050   40.8360 C   0  0  0  0  0  0  0  0  0  0  0  0
   42.9380   33.3130   41.4150 H   0  0  0  0  0  0  0  0  0  0  0  0
   44.0180   32.9310   39.5260 C   0  0  0  0  0  0  0  0  0  0  0  0
   43.0860   32.6300   39.0620 H   0  0  0  0  0  0  0  0  0  0  0  0
   45.2500   32.9560   38.9110 C   0  0  0  0  0  3  0  0  0  0  0  0
   46.3160   33.3700   39.6710 C   0  0  0  0  0  3  0  0  0  0  0  0
   48.2700   33.3560   42.1290 N   0  0  0  0  0  0  0  0  0  0  0  0
   47.4000   34.1520   41.6210 C   0  0  0  0  0  0  0  0  0  0  0  0
   47.7950   35.5110   41.7520 N   0  0  0  0  0  0  0  0  0  0  0  0
   49.1430   33.6800   42.5750 H   0  0  0  0  0  0  0  0  0  0  0  0
   48.4130   36.0260   41.0560 H   0  0  0  0  0  0  0  0  0  0  0  0
   47.4750   36.0900   42.5840 H   0  0  0  0  0  0  0  0  0  0  0  0
   45.7050   31.3580   42.7270 N   0  0  0  0  0  0  0  0  0  0  0  0
   46.5190   31.4940   42.0890 H   0  0  0  0  0  0  0  0  0  0  0  0
   43.9210   29.6140   43.2350 C   0  0  1  0  0  0  0  0  0  0  0  0
   44.9420   28.9800   42.3140 C   0  0  0  0  0  0  0  0  0  0  0  0
   44.6480   30.4760   42.3180 C   0  0  2  0  0  0  0  0  0  0  0  0
   44.1830   29.4050   44.2990 H   0  0  0  0  0  0  0  0  0  0  0  0
   45.9130   28.6430   42.6960 H   0  0  0  0  0  0  0  0  0  0  0  0
   44.5790   28.4220   41.4170 H   0  0  0  0  0  0  0  0  0  0  0  0
   44.0570   30.8520   41.4360 H   0  0  0  0  0  0  0  0  0  0  0  0
   40.2800   30.1070   42.6560 C   0  0  0  0  0  0  0  0  0  0  0  0
   39.8310   28.7460   42.5970 C   0  0  0  0  0  0  0  0  0  0  0  0
   40.7880   27.7070   42.7440 C   0  0  0  0  0  0  0  0  0  0  0  0
   42.0660   28.0390   42.9320 N   0  0  0  0  0  0  0  0  0  0  0  0
   42.4690   29.3330   42.9850 C   0  0  0  0  0  0  0  0  0  0  0  0
   41.5760   30.3700   42.8470 N   0  0  0  0  0  0  0  0  0  0  0  0
   39.5360   30.8850   42.5410 H   0  0  0  0  0  0  0  0  0  0  0  0
   38.7940   28.5440   42.4440 H   0  0  0  0  0  0  0  0  0  0  0  0
   40.4380   26.6860   42.6970 H   0  0  0  0  0  0  0  0  0  0  0  0
  1 10  2  0  0  0  0
  1  2  1  0  0  0  0
  2 11  1  0  0  0  0
  2  3  2  0  0  0  0
  3  4  1  0  0  0  0
  3 12  1  0  0  0  0
  4 13  1  0  0  0  0
  5  6  1  0  0  0  0
  5  4  2  0  0  0  0
  6 14  1  0  0  0  0
  7 15  1  0  0  0  0
  7  6  2  0  0  0  0
  8  7  1  0  0  0  0
  9  8  2  0  0  0  0
  9 10  1  0  0  0  0
 10  5  1  0  0  0  0
 16  8  1  0  0  0  0
 17 26  1  0  0  0  0
 17 18  1  0  0  0  0
 18  9  1  0  0  0  0
 19 20  1  0  0  0  0
 19 18  2  0  0  0  0
 21 19  1  0  0  0  0
 22 21  1  0  0  0  0
 23 21  2  0  0  0  0
 23 24  1  0  0  0  0
 24 17  2  0  0  0  0
 25 28  1  0  0  0  0
 26 27  1  0  0  0  0
 26 25  2  0  0  0  0
 27 30  1  0  0  0  0
 29 27  1  0  0  0  0
 31  1  1  0  0  0  0
 32 31  1  0  0  0  0
 33 36  1  1  0  0  0
 34 35  1  0  0  0  0
 34 37  1  0  0  0  0
 34 33  1  0  0  0  0
 35 39  1  6  0  0  0
 35 31  1  0  0  0  0
 35 33  1  0  0  0  0
 38 34  1  0  0  0  0
 40 45  1  0  0  0  0
 41 40  2  0  0  0  0
 41 42  1  0  0  0  0
 42 43  2  0  0  0  0
 43 44  1  0  0  0  0
 44 33  1  0  0  0  0
 45 44  2  0  0  0  0
 46 40  1  0  0  0  0
 47 41  1  0  0  0  0
 48 42  1  0  0  0  0
M  END
>  <minimizedAffinity>
-5.01161528

>  <minimizedRMSD>
4.57209969

$$$$
