
 OpenBabel03252500393D

 26 27  0  0  0  0  0  0  0  0999 V2000
   45.4680   34.6740   42.7540 C   0  0  0  0  0  0  0  0  0  0  0  0
   45.0050   33.9010   41.7080 C   0  0  0  0  0  0  0  0  0  0  0  0
   45.7890   33.7040   40.5900 C   0  0  0  0  0  0  0  0  0  0  0  0
   45.3860   33.0900   39.7930 H   0  0  0  0  0  0  0  0  0  0  0  0
   47.0550   34.2840   40.5080 C   0  0  0  0  0  0  0  0  0  0  0  0
   47.6130   34.0970   39.6230 H   0  0  0  0  0  0  0  0  0  0  0  0
   47.4930   35.0600   41.5840 C   0  0  0  0  0  0  0  0  0  0  0  0
   46.7190   35.2700   42.7180 C   0  0  0  0  0  0  0  0  0  0  0  0
   43.7840   35.8150   44.1630 N   0  0  0  0  0  0  0  0  0  0  0  0
   44.7120   34.9490   43.9940 C   0  0  0  0  0  0  0  0  0  0  0  0
   44.8310   34.3310   45.2690 N   0  0  0  0  0  0  0  0  0  0  0  0
   43.4850   36.4320   43.3570 H   0  0  0  0  0  0  0  0  0  0  0  0
   45.4300   34.3870   46.1210 H   0  0  0  0  0  0  0  0  0  0  0  0
   44.2050   33.5670   45.6120 H   0  0  0  0  0  0  0  0  0  0  0  0
   43.6550   33.3040   41.8370 C   0  0  0  0  0  0  0  0  0  0  0  0
   43.3670   33.2730   42.9110 H   0  0  0  0  0  0  0  0  0  0  0  0
   43.6150   32.2680   41.4790 H   0  0  0  0  0  0  0  0  0  0  0  0
   42.6930   34.1620   41.0600 C   0  0  0  0  0  0  0  0  0  0  0  0
   42.5510   33.8760   39.7050 C   0  0  0  0  0  0  0  0  0  0  0  0
   41.6640   34.6520   38.9450 C   0  0  0  0  0  0  0  0  0  0  0  0
   40.9950   35.6470   39.6010 N   0  0  0  0  0  0  0  0  0  0  0  0
   41.1640   35.8910   40.9240 C   0  0  0  0  0  0  0  0  0  0  0  0
   42.0180   35.1470   41.6630 N   0  0  0  0  0  0  0  0  0  0  0  0
   43.1230   33.0660   39.2680 H   0  0  0  0  0  0  0  0  0  0  0  0
   41.5300   34.4590   37.8980 H   0  0  0  0  0  0  0  0  0  0  0  0
   40.6000   36.6980   41.3770 H   0  0  0  0  0  0  0  0  0  0  0  0
  1 10  1  0  0  0  0
  2 15  1  0  0  0  0
  2  1  2  0  0  0  0
  3  2  1  0  0  0  0
  4  3  1  0  0  0  0
  5  3  2  0  0  0  0
  5  7  1  0  0  0  0
  6  5  1  0  0  0  0
  7  8  2  0  0  0  0
  8  1  1  0  0  0  0
 10  9  2  0  0  0  0
 10 11  1  0  0  0  0
 11 14  1  0  0  0  0
 11 13  1  0  0  0  0
 12  9  1  0  0  0  0
 15 16  1  0  0  0  0
 17 15  1  0  0  0  0
 18 23  1  0  0  0  0
 18 15  1  0  0  0  0
 19 18  2  0  0  0  0
 20 21  2  0  0  0  0
 20 19  1  0  0  0  0
 21 22  1  0  0  0  0
 22 26  1  0  0  0  0
 22 23  2  0  0  0  0
 24 19  1  0  0  0  0
 25 20  1  0  0  0  0
M  END
>  <minimizedAffinity>
-4.89867258

>  <minimizedRMSD>
5.12202215

$$$$
