
 OpenBabel03242515563D

 42 45  0  0  0  0  0  0  0  0999 V2000
   46.1210   32.8570   45.9490 C   0  0  0  0  0  0  0  0  0  0  0  0
   45.5500   32.8730   47.2500 C   0  0  0  0  0  0  0  0  0  0  0  0
   45.7660   31.8940   48.1880 C   0  0  0  0  0  0  0  0  0  0  0  0
   46.5540   30.8410   47.9060 C   0  0  0  0  0  0  0  0  0  0  0  0
   47.1450   30.7660   46.6410 C   0  0  0  0  0  0  0  0  0  0  0  0
   47.9360   29.6830   46.3940 C   0  0  0  0  0  0  0  0  0  0  0  0
   48.5400   29.5520   45.1790 C   0  0  0  0  0  0  0  0  0  0  0  0
   48.3070   30.5540   44.2430 C   0  0  0  0  0  0  0  0  0  0  0  0
   47.5120   31.5930   44.5650 C   0  0  0  0  0  0  0  0  0  0  0  0
   46.9060   31.7590   45.7340 C   0  0  0  0  0  0  0  0  0  0  0  0
   44.9110   33.6960   47.5250 H   0  0  0  0  0  0  0  0  0  0  0  0
   45.2950   31.9790   49.1560 H   0  0  0  0  0  0  0  0  0  0  0  0
   46.7110   30.0810   48.6590 H   0  0  0  0  0  0  0  0  0  0  0  0
   48.0790   28.9200   47.1850 H   0  0  0  0  0  0  0  0  0  0  0  0
   49.1620   28.6450   45.0700 H   0  0  0  0  0  0  0  0  0  0  0  0
   48.8830   30.2820   43.3500 H   0  0  0  0  0  0  0  0  0  0  0  0
   44.5040   35.8240   44.7300 C   0  0  0  0  0  0  0  0  0  0  0  0
   45.1730   36.0690   43.4930 C   0  0  0  0  0  0  0  0  0  0  0  0
   46.2010   35.1840   43.0730 C   0  0  0  0  0  0  0  0  0  0  0  0
   46.4720   34.1600   43.8920 N   0  0  0  0  0  0  0  0  0  0  0  0
   45.8820   33.9190   45.0120 C   0  0  0  0  0  0  0  0  0  0  0  0
   44.9010   34.7660   45.4070 N   0  0  0  0  0  0  0  0  0  0  0  0
   43.7220   36.5000   45.0450 H   0  0  0  0  0  0  0  0  0  0  0  0
   46.6640   35.4170   42.1420 H   0  0  0  0  0  0  0  0  0  0  0  0
   44.7360   37.2140   42.7760 N   0  0  0  0  0  0  0  0  0  0  0  0
   45.2680   38.0330   43.1640 H   0  0  0  0  0  0  0  0  0  0  0  0
   44.0350   37.3060   42.0080 H   0  0  0  0  0  0  0  0  0  0  0  0
   47.4650   32.4000   43.4600 O   0  0  0  0  0  0  0  0  0  0  0  0
   49.0210   32.5830   41.6780 C   0  0  0  0  0  0  0  0  0  0  0  0
   47.8230   32.0480   42.1600 C   0  0  0  0  0  0  0  0  0  0  0  0
   47.1130   31.2240   41.3160 C   0  0  0  0  0  0  0  0  0  0  0  0
   46.1960   30.8240   41.7090 H   0  0  0  0  0  0  0  0  0  0  0  0
   47.5590   30.9340   40.0450 C   0  0  0  0  0  0  0  0  0  0  0  0
   46.9510   30.2730   39.4230 H   0  0  0  0  0  0  0  0  0  0  0  0
   48.7420   31.4640   39.5730 C   0  0  0  0  0  0  0  0  0  0  0  0
   49.4700   32.2960   40.4110 C   0  0  0  0  0  0  0  0  0  0  0  0
   51.2290   33.3810   42.5200 N   0  0  0  0  0  0  0  0  0  0  0  0
   49.9420   33.4580   42.4020 C   0  0  0  0  0  0  0  0  0  0  0  0
   49.6260   34.6150   43.1550 N   0  0  0  0  0  0  0  0  0  0  0  0
   51.6960   32.5910   42.0390 H   0  0  0  0  0  0  0  0  0  0  0  0
   49.6650   35.6540   43.0690 H   0  0  0  0  0  0  0  0  0  0  0  0
   49.2310   34.2890   44.0810 H   0  0  0  0  0  0  0  0  0  0  0  0
  1  2  1  0  0  0  0
  2 11  1  0  0  0  0
  2  3  2  0  0  0  0
  3 12  1  0  0  0  0
  4  3  1  0  0  0  0
  4 13  1  0  0  0  0
  5  4  2  0  0  0  0
  6  5  1  0  0  0  0
  6 14  1  0  0  0  0
  7  6  2  0  0  0  0
  8  9  2  0  0  0  0
  8  7  1  0  0  0  0
  9 10  1  0  0  0  0
 10  1  2  0  0  0  0
 10  5  1  0  0  0  0
 15  7  1  0  0  0  0
 16  8  1  0  0  0  0
 17 23  1  0  0  0  0
 17 22  1  0  0  0  0
 18 17  2  0  0  0  0
 19 18  1  0  0  0  0
 19 20  2  0  0  0  0
 20 21  1  0  0  0  0
 21 22  2  0  0  0  0
 21  1  1  0  0  0  0
 24 19  1  0  0  0  0
 25 26  1  0  0  0  0
 25 18  1  0  0  0  0
 27 25  1  0  0  0  0
 28  9  1  0  0  0  0
 29 30  1  0  0  0  0
 29 38  1  0  0  0  0
 30 28  1  0  0  0  0
 31 32  1  0  0  0  0
 31 30  2  0  0  0  0
 33 31  1  0  0  0  0
 34 33  1  0  0  0  0
 35 33  2  0  0  0  0
 35 36  1  0  0  0  0
 36 29  2  0  0  0  0
 38 37  2  0  0  0  0
 38 39  1  0  0  0  0
 39 42  1  0  0  0  0
 40 37  1  0  0  0  0
 41 39  1  0  0  0  0
M  END
>  <minimizedAffinity>
-6.72955179

>  <minimizedRMSD>
1.09167659

$$$$
