
 OpenBabel03252508033D

 47 50  0  0  1  0  0  0  0  0999 V2000
   41.9100   33.2810   41.1250 C   0  0  0  0  0  0  0  0  0  0  0  0
   42.7460   34.3480   41.2850 C   0  0  0  0  0  0  0  0  0  0  0  0
   42.1800   35.6360   41.2360 C   0  0  0  0  0  0  0  0  0  0  0  0
   40.8420   35.8720   41.0370 C   0  0  0  0  0  0  0  0  0  0  0  0
   40.0120   34.7960   40.8780 C   0  0  0  0  0  0  0  0  0  0  0  0
   40.5500   33.5450   40.9240 C   0  0  0  0  0  0  0  0  0  0  0  0
   42.7650   36.5450   41.3430 H   0  0  0  0  0  0  0  0  0  0  0  0
   40.4220   36.8480   41.0010 H   0  0  0  0  0  0  0  0  0  0  0  0
   38.9540   34.8880   40.7190 H   0  0  0  0  0  0  0  0  0  0  0  0
   39.8760   32.6840   40.7940 H   0  0  0  0  0  0  0  0  0  0  0  0
   42.4320   31.6860   41.2600 S   0  0  0  0  0  0  0  0  0  0  0  0
   41.1310   30.9280   40.8450 O   0  0  0  0  0  0  0  0  0  0  0  0
   42.7320   31.2890   42.6540 O   0  0  0  0  0  0  0  0  0  0  0  0
   43.0000   29.3170   40.2980 C   0  0  0  0  0  0  0  0  0  0  0  0
   43.2560   30.7100   40.1620 C   0  0  0  0  0  0  0  0  0  0  0  0
   44.1050   30.9730   39.0720 C   0  0  0  0  0  0  0  0  0  0  0  0
   44.2420   32.0700   38.9870 H   0  0  0  0  0  0  0  0  0  0  0  0
   44.7020   30.1370   38.1570 C   0  0  0  0  0  0  0  0  0  0  0  0
   45.3160   30.5940   37.4110 H   0  0  0  0  0  0  0  0  0  0  0  0
   44.3560   28.8490   38.4260 C   0  0  0  0  0  3  0  0  0  0  0  0
   43.5560   28.4110   39.4230 C   0  0  0  0  0  3  0  0  0  0  0  0
   41.1450   27.9110   41.0250 N   0  0  0  0  0  0  0  0  0  0  0  0
   42.2130   28.5780   41.3160 C   0  0  0  0  0  0  0  0  0  0  0  0
   42.4690   28.4370   42.7040 N   0  0  0  0  0  0  0  0  0  0  0  0
   40.7040   27.4220   41.8330 H   0  0  0  0  0  0  0  0  0  0  0  0
   42.5240   27.5160   43.1920 H   0  0  0  0  0  0  0  0  0  0  0  0
   42.6650   28.6670   43.6990 H   0  0  0  0  0  0  0  0  0  0  0  0
   44.1740   34.2090   41.4990 C   0  0  0  0  0  0  0  0  0  0  0  0
   45.0180   33.9780   40.5760 O   0  0  0  0  0  0  0  0  0  0  0  0
   44.5590   34.3590   42.8750 C   0  0  0  0  0  0  0  0  0  0  0  0
   44.3180   35.6520   43.4540 C   0  0  0  0  0  0  0  0  0  0  0  0
   44.6730   35.8180   44.7830 C   0  0  0  0  0  0  0  0  0  0  0  0
   45.2190   34.7630   45.4470 N   0  0  0  0  0  0  0  0  0  0  0  0
   45.4290   33.5470   44.8460 C   0  0  0  0  0  0  0  0  0  0  0  0
   45.1000   33.3910   43.6110 N   0  0  0  0  0  0  0  0  0  0  0  0
   43.9030   36.5170   43.0110 H   0  0  0  0  0  0  0  0  0  0  0  0
   44.5450   36.7360   45.3360 H   0  0  0  0  0  0  0  0  0  0  0  0
   46.0200   32.4580   45.6500 C   0  0  1  0  0  0  0  0  0  0  0  0
   46.9600   32.8010   46.7800 C   0  0  0  0  0  0  0  0  0  0  0  0
   45.5330   32.3920   47.0540 C   0  0  1  0  0  0  0  0  0  0  0  0
   46.2690   31.5280   45.1440 H   0  0  0  0  0  0  0  0  0  0  0  0
   47.7780   32.0880   47.0390 H   0  0  0  0  0  0  0  0  0  0  0  0
   47.2690   33.8620   46.9340 H   0  0  0  0  0  0  0  0  0  0  0  0
   45.3380   31.3800   47.4550 H   0  0  0  0  0  0  0  0  0  0  0  0
   44.7310   33.4620   47.5990 N   0  0  0  0  0  0  0  0  0  0  0  0
   43.8550   33.6380   47.0990 H   0  0  0  0  0  0  0  0  0  0  0  0
   45.2550   34.3010   47.8910 H   0  0  0  0  0  0  0  0  0  0  0  0
  1 11  1  0  0  0  0
  1  2  1  0  0  0  0
  2 28  1  0  0  0  0
  3  2  2  0  0  0  0
  3  7  1  0  0  0  0
  4  3  1  0  0  0  0
  5  6  1  0  0  0  0
  5  4  2  0  0  0  0
  6  1  2  0  0  0  0
  8  4  1  0  0  0  0
  9  5  1  0  0  0  0
 10  6  1  0  0  0  0
 11 13  2  0  0  0  0
 12 11  2  0  0  0  0
 14 23  1  0  0  0  0
 15 14  1  0  0  0  0
 15 11  1  0  0  0  0
 16 15  2  0  0  0  0
 17 16  1  0  0  0  0
 18 20  2  0  0  0  0
 18 16  1  0  0  0  0
 19 18  1  0  0  0  0
 20 21  1  0  0  0  0
 21 14  2  0  0  0  0
 22 23  2  0  0  0  0
 22 25  1  0  0  0  0
 23 24  1  0  0  0  0
 24 26  1  0  0  0  0
 24 27  1  0  0  0  0
 28 30  1  0  0  0  0
 29 28  2  0  0  0  0
 30 31  2  0  0  0  0
 30 35  1  0  0  0  0
 31 32  1  0  0  0  0
 32 37  1  0  0  0  0
 32 33  2  0  0  0  0
 34 33  1  0  0  0  0
 34 38  1  0  0  0  0
 35 34  2  0  0  0  0
 36 31  1  0  0  0  0
 38 41  1  6  0  0  0
 38 39  1  0  0  0  0
 38 40  1  0  0  0  0
 39 43  1  0  0  0  0
 39 42  1  0  0  0  0
 39 40  1  0  0  0  0
 40 44  1  1  0  0  0
 40 45  1  0  0  0  0
 45 47  1  0  0  0  0
 46 45  1  0  0  0  0
M  END
>  <minimizedAffinity>
-5.58786058

>  <minimizedRMSD>
1.70325506

$$$$
