
 OpenBabel03252508033D

 47 50  0  0  1  0  0  0  0  0999 V2000
   41.9440   33.3010   41.1100 C   0  0  0  0  0  0  0  0  0  0  0  0
   42.7620   34.3790   41.2930 C   0  0  0  0  0  0  0  0  0  0  0  0
   42.1750   35.6580   41.2650 C   0  0  0  0  0  0  0  0  0  0  0  0
   40.8330   35.8750   41.0640 C   0  0  0  0  0  0  0  0  0  0  0  0
   40.0220   34.7890   40.8820 C   0  0  0  0  0  0  0  0  0  0  0  0
   40.5810   33.5460   40.9070 C   0  0  0  0  0  0  0  0  0  0  0  0
   42.7440   36.5750   41.3920 H   0  0  0  0  0  0  0  0  0  0  0  0
   40.3970   36.8440   41.0440 H   0  0  0  0  0  0  0  0  0  0  0  0
   38.9630   34.8660   40.7190 H   0  0  0  0  0  0  0  0  0  0  0  0
   39.9220   32.6770   40.7590 H   0  0  0  0  0  0  0  0  0  0  0  0
   42.4930   31.7130   41.2190 S   0  0  0  0  0  0  0  0  0  0  0  0
   41.2190   30.9420   40.7440 O   0  0  0  0  0  0  0  0  0  0  0  0
   42.7580   31.2830   42.6110 O   0  0  0  0  0  0  0  0  0  0  0  0
   43.1170   29.3840   40.1980 C   0  0  0  0  0  0  0  0  0  0  0  0
   43.3680   30.7830   40.1210 C   0  0  0  0  0  0  0  0  0  0  0  0
   44.2570   31.0900   39.0770 C   0  0  0  0  0  0  0  0  0  0  0  0
   44.3880   32.1900   39.0350 H   0  0  0  0  0  0  0  0  0  0  0  0
   44.8960   30.2900   38.1560 C   0  0  0  0  0  0  0  0  0  0  0  0
   45.5360   30.7780   37.4510 H   0  0  0  0  0  0  0  0  0  0  0  0
   44.5500   28.9910   38.3670 C   0  0  0  0  0  3  0  0  0  0  0  0
   43.7160   28.5120   39.3150 C   0  0  0  0  0  3  0  0  0  0  0  0
   41.2480   27.9390   40.8000 N   0  0  0  0  0  0  0  0  0  0  0  0
   42.2970   28.6040   41.1560 C   0  0  0  0  0  0  0  0  0  0  0  0
   42.4990   28.4150   42.5480 N   0  0  0  0  0  0  0  0  0  0  0  0
   40.7790   27.4180   41.5730 H   0  0  0  0  0  0  0  0  0  0  0  0
   42.5430   27.4780   43.0050 H   0  0  0  0  0  0  0  0  0  0  0  0
   42.6530   28.6130   43.5580 H   0  0  0  0  0  0  0  0  0  0  0  0
   44.1910   34.2590   41.5110 C   0  0  0  0  0  0  0  0  0  0  0  0
   45.0430   34.0620   40.5880 O   0  0  0  0  0  0  0  0  0  0  0  0
   44.5680   34.3890   42.8920 C   0  0  0  0  0  0  0  0  0  0  0  0
   44.3160   35.6710   43.4910 C   0  0  0  0  0  0  0  0  0  0  0  0
   44.6620   35.8160   44.8250 C   0  0  0  0  0  0  0  0  0  0  0  0
   45.2100   34.7530   45.4740 N   0  0  0  0  0  0  0  0  0  0  0  0
   45.4300   33.5490   44.8540 C   0  0  0  0  0  0  0  0  0  0  0  0
   45.1090   33.4110   43.6150 N   0  0  0  0  0  0  0  0  0  0  0  0
   43.8990   36.5410   43.0590 H   0  0  0  0  0  0  0  0  0  0  0  0
   44.5270   36.7240   45.3920 H   0  0  0  0  0  0  0  0  0  0  0  0
   46.0230   32.4490   45.6430 C   0  0  1  0  0  0  0  0  0  0  0  0
   46.9640   32.7780   46.7760 C   0  0  0  0  0  0  0  0  0  0  0  0
   45.5380   32.3660   47.0470 C   0  0  1  0  0  0  0  0  0  0  0  0
   46.2700   31.5260   45.1260 H   0  0  0  0  0  0  0  0  0  0  0  0
   47.7820   32.0620   47.0250 H   0  0  0  0  0  0  0  0  0  0  0  0
   47.2730   33.8370   46.9430 H   0  0  0  0  0  0  0  0  0  0  0  0
   45.3430   31.3490   47.4360 H   0  0  0  0  0  0  0  0  0  0  0  0
   44.7360   33.4290   47.6070 N   0  0  0  0  0  0  0  0  0  0  0  0
   43.8600   33.6110   47.1100 H   0  0  0  0  0  0  0  0  0  0  0  0
   45.2610   34.2640   47.9090 H   0  0  0  0  0  0  0  0  0  0  0  0
  1 11  1  0  0  0  0
  1  2  1  0  0  0  0
  2 28  1  0  0  0  0
  3  2  2  0  0  0  0
  3  7  1  0  0  0  0
  4  3  1  0  0  0  0
  5  6  1  0  0  0  0
  5  4  2  0  0  0  0
  6  1  2  0  0  0  0
  8  4  1  0  0  0  0
  9  5  1  0  0  0  0
 10  6  1  0  0  0  0
 11 13  2  0  0  0  0
 12 11  2  0  0  0  0
 14 23  1  0  0  0  0
 15 14  1  0  0  0  0
 15 11  1  0  0  0  0
 16 15  2  0  0  0  0
 17 16  1  0  0  0  0
 18 20  2  0  0  0  0
 18 16  1  0  0  0  0
 19 18  1  0  0  0  0
 20 21  1  0  0  0  0
 21 14  2  0  0  0  0
 22 23  2  0  0  0  0
 22 25  1  0  0  0  0
 23 24  1  0  0  0  0
 24 26  1  0  0  0  0
 24 27  1  0  0  0  0
 28 30  1  0  0  0  0
 29 28  2  0  0  0  0
 30 31  2  0  0  0  0
 30 35  1  0  0  0  0
 31 32  1  0  0  0  0
 32 37  1  0  0  0  0
 32 33  2  0  0  0  0
 34 33  1  0  0  0  0
 34 38  1  0  0  0  0
 35 34  2  0  0  0  0
 36 31  1  0  0  0  0
 38 41  1  6  0  0  0
 38 39  1  0  0  0  0
 38 40  1  0  0  0  0
 39 43  1  0  0  0  0
 39 42  1  0  0  0  0
 39 40  1  0  0  0  0
 40 44  1  1  0  0  0
 40 45  1  0  0  0  0
 45 47  1  0  0  0  0
 46 45  1  0  0  0  0
M  END
>  <minimizedAffinity>
-5.59391356

>  <minimizedRMSD>
1.47024059

$$$$
