
 OpenBabel03252505483D

 34 36  0  0  1  0  0  0  0  0999 V2000
   37.1300   26.8360   42.2680 C   0  0  0  0  0  0  0  0  0  0  0  0
   37.8670   27.4850   43.2920 C   0  0  0  0  0  0  0  0  0  0  0  0
   37.9410   28.8730   43.3490 C   0  0  0  0  0  0  0  0  0  0  0  0
   37.2760   29.5590   42.3810 N   0  0  0  0  0  0  0  0  0  0  0  0
   36.5750   28.8990   41.4060 C   0  0  0  0  0  0  0  0  0  0  0  0
   36.5050   27.5800   41.3520 N   0  0  0  0  0  0  0  0  0  0  0  0
   38.3930   26.9110   44.0590 H   0  0  0  0  0  0  0  0  0  0  0  0
   38.4950   29.3850   44.1190 H   0  0  0  0  0  0  0  0  0  0  0  0
   37.1090   25.3680   42.2660 C   0  0  1  0  0  0  0  0  0  0  0  0
   37.7600   24.7930   40.9570 C   0  0  1  0  0  0  0  0  0  0  0  0
   38.2370   24.5210   42.3670 C   0  0  0  0  0  0  0  0  0  0  0  0
   36.0710   24.9690   42.4400 H   0  0  0  0  0  0  0  0  0  0  0  0
   38.3220   25.4710   40.3240 H   0  0  0  0  0  0  0  0  0  0  0  0
   39.2730   24.9200   42.5540 H   0  0  0  0  0  0  0  0  0  0  0  0
   38.1510   23.4900   42.7620 H   0  0  0  0  0  0  0  0  0  0  0  0
   36.9900   23.6470   40.3480 C   0  0  0  0  0  0  0  0  0  0  0  0
   35.6460   23.7080   40.5770 F   0  0  0  0  0  0  0  0  0  0  0  0
   37.1840   23.6680   38.9520 F   0  0  0  0  0  0  0  0  0  0  0  0
   37.5110   22.4290   40.7560 F   0  0  0  0  0  0  0  0  0  0  0  0
   35.9470   29.7150   40.4800 O   0  0  0  0  0  0  0  0  0  0  0  0
   37.0060   31.1810   38.7750 C   0  0  0  0  0  0  0  0  0  0  0  0
   36.3660   30.0590   39.2430 C   0  0  0  0  0  0  0  0  0  0  0  0
   36.0770   29.0620   38.3020 C   0  0  0  0  0  0  0  0  0  0  0  0
   35.5840   28.1120   38.4700 H   0  0  0  0  0  0  0  0  0  0  0  0
   36.4500   29.2710   36.9690 C   0  0  0  0  0  0  0  0  0  0  0  0
   36.2600   28.5540   36.2020 H   0  0  0  0  0  0  0  0  0  0  0  0
   37.0820   30.4040   36.5590 C   0  0  0  0  0  3  0  0  0  0  0  0
   37.3750   31.3930   37.4670 C   0  0  0  0  0  3  0  0  0  0  0  0
   38.2060   31.9190   40.6670 N   0  0  0  0  0  0  0  0  0  0  0  0
   37.3390   32.2010   39.7200 C   0  0  0  0  0  0  0  0  0  0  0  0
   37.2030   33.5060   40.2200 N   0  0  0  0  0  0  0  0  0  0  0  0
   38.6650   31.0130   40.7780 H   0  0  0  0  0  0  0  0  0  0  0  0
   36.5170   33.8390   40.9360 H   0  0  0  0  0  0  0  0  0  0  0  0
   37.7810   34.3470   39.9330 H   0  0  0  0  0  0  0  0  0  0  0  0
  1  2  1  0  0  0  0
  2  3  2  0  0  0  0
  2  7  1  0  0  0  0
  3  8  1  0  0  0  0
  4  3  1  0  0  0  0
  5  4  2  0  0  0  0
  6  5  1  0  0  0  0
  6  1  2  0  0  0  0
  9  1  1  0  0  0  0
  9 11  1  0  0  0  0
  9 12  1  1  0  0  0
 10 13  1  6  0  0  0
 10  9  1  0  0  0  0
 10 11  1  0  0  0  0
 11 14  1  0  0  0  0
 11 15  1  0  0  0  0
 16 17  1  0  0  0  0
 16 19  1  0  0  0  0
 16 10  1  0  0  0  0
 18 16  1  0  0  0  0
 20  5  1  0  0  0  0
 21 22  1  0  0  0  0
 21 30  1  0  0  0  0
 22 20  1  0  0  0  0
 23 24  1  0  0  0  0
 23 22  2  0  0  0  0
 25 23  1  0  0  0  0
 26 25  1  0  0  0  0
 27 25  2  0  0  0  0
 27 28  1  0  0  0  0
 28 21  2  0  0  0  0
 29 32  1  0  0  0  0
 30 31  1  0  0  0  0
 30 29  2  0  0  0  0
 31 33  1  0  0  0  0
 34 31  1  0  0  0  0
M  END
>  <minimizedAffinity>
-6.1045723

$$$$

 OpenBabel03252505483D

 34 36  0  0  1  0  0  0  0  0999 V2000
   38.1160   28.8080   42.4540 C   0  0  0  0  0  0  0  0  0  0  0  0
   39.2090   29.6270   42.8390 C   0  0  0  0  0  0  0  0  0  0  0  0
   39.4210   30.8640   42.2380 C   0  0  0  0  0  0  0  0  0  0  0  0
   38.5340   31.2340   41.2760 N   0  0  0  0  0  0  0  0  0  0  0  0
   37.4900   30.4170   40.9280 C   0  0  0  0  0  0  0  0  0  0  0  0
   37.2880   29.2410   41.5000 N   0  0  0  0  0  0  0  0  0  0  0  0
   39.9080   29.3070   43.6150 H   0  0  0  0  0  0  0  0  0  0  0  0
   40.2440   31.5000   42.5160 H   0  0  0  0  0  0  0  0  0  0  0  0
   37.9640   27.5110   43.1250 C   0  0  1  0  0  0  0  0  0  0  0  0
   38.4450   26.3340   42.2010 C   0  0  1  0  0  0  0  0  0  0  0  0
   39.0170   26.6720   43.5600 C   0  0  0  0  0  0  0  0  0  0  0  0
   36.9140   27.3590   43.5000 H   0  0  0  0  0  0  0  0  0  0  0  0
   39.0070   26.5820   41.3070 H   0  0  0  0  0  0  0  0  0  0  0  0
   40.0960   26.9860   43.5060 H   0  0  0  0  0  0  0  0  0  0  0  0
   38.8740   25.9480   44.3860 H   0  0  0  0  0  0  0  0  0  0  0  0
   37.5250   25.1380   42.2120 C   0  0  0  0  0  0  0  0  0  0  0  0
   36.3900   25.3270   42.9440 F   0  0  0  0  0  0  0  0  0  0  0  0
   37.1340   24.8610   40.8870 F   0  0  0  0  0  0  0  0  0  0  0  0
   38.2010   24.0000   42.6230 F   0  0  0  0  0  0  0  0  0  0  0  0
   36.6630   30.9110   39.9330 O   0  0  0  0  0  0  0  0  0  0  0  0
   37.2270   30.8250   37.5140 C   0  0  0  0  0  0  0  0  0  0  0  0
   36.5410   30.4880   38.6560 C   0  0  0  0  0  0  0  0  0  0  0  0
   35.5240   29.5360   38.5200 C   0  0  0  0  0  0  0  0  0  0  0  0
   34.8760   29.1400   39.2930 H   0  0  0  0  0  0  0  0  0  0  0  0
   35.2730   29.0000   37.2510 C   0  0  0  0  0  0  0  0  0  0  0  0
   34.5120   28.2720   37.0770 H   0  0  0  0  0  0  0  0  0  0  0  0
   35.9820   29.3700   36.1520 C   0  0  0  0  0  3  0  0  0  0  0  0
   36.9860   30.3020   36.2650 C   0  0  0  0  0  3  0  0  0  0  0  0
   38.8860   32.1840   36.5320 N   0  0  0  0  0  0  0  0  0  0  0  0
   38.2910   31.7720   37.6300 C   0  0  0  0  0  0  0  0  0  0  0  0
   39.1320   32.5890   38.4030 N   0  0  0  0  0  0  0  0  0  0  0  0
   38.6390   31.8720   35.5910 H   0  0  0  0  0  0  0  0  0  0  0  0
   40.0570   32.3300   38.8170 H   0  0  0  0  0  0  0  0  0  0  0  0
   38.9400   33.5930   38.6820 H   0  0  0  0  0  0  0  0  0  0  0  0
  1  2  1  0  0  0  0
  1  9  1  0  0  0  0
  2  7  1  0  0  0  0
  3  8  1  0  0  0  0
  3  2  2  0  0  0  0
  4  3  1  0  0  0  0
  5  4  2  0  0  0  0
  5  6  1  0  0  0  0
  6  1  2  0  0  0  0
  9 12  1  1  0  0  0
  9 11  1  0  0  0  0
 10 13  1  6  0  0  0
 10 16  1  0  0  0  0
 10  9  1  0  0  0  0
 10 11  1  0  0  0  0
 11 15  1  0  0  0  0
 14 11  1  0  0  0  0
 16 19  1  0  0  0  0
 16 17  1  0  0  0  0
 18 16  1  0  0  0  0
 20  5  1  0  0  0  0
 21 30  1  0  0  0  0
 21 22  1  0  0  0  0
 22 20  1  0  0  0  0
 23 22  2  0  0  0  0
 23 24  1  0  0  0  0
 25 23  1  0  0  0  0
 26 25  1  0  0  0  0
 27 28  1  0  0  0  0
 27 25  2  0  0  0  0
 28 21  2  0  0  0  0
 29 30  2  0  0  0  0
 30 31  1  0  0  0  0
 31 34  1  0  0  0  0
 31 33  1  0  0  0  0
 32 29  1  0  0  0  0
M  END
>  <minimizedAffinity>
-6.09362936

$$$$

 OpenBabel03252505483D

 34 36  0  0  1  0  0  0  0  0999 V2000
   39.2940   27.4940   42.7030 C   0  0  0  0  0  0  0  0  0  0  0  0
   40.6540   27.6400   43.0820 C   0  0  0  0  0  0  0  0  0  0  0  0
   41.3350   28.8310   42.8560 C   0  0  0  0  0  0  0  0  0  0  0  0
   40.6320   29.8320   42.2610 N   0  0  0  0  0  0  0  0  0  0  0  0
   39.3200   29.6560   41.9060 C   0  0  0  0  0  0  0  0  0  0  0  0
   38.6720   28.5230   42.1220 N   0  0  0  0  0  0  0  0  0  0  0  0
   41.1970   26.8200   43.5590 H   0  0  0  0  0  0  0  0  0  0  0  0
   42.3670   28.9620   43.1360 H   0  0  0  0  0  0  0  0  0  0  0  0
   38.6460   26.2030   42.9620 C   0  0  1  0  0  0  0  0  0  0  0  0
   38.5270   25.3530   41.6460 C   0  0  1  0  0  0  0  0  0  0  0  0
   39.2680   24.9340   42.8960 C   0  0  0  0  0  0  0  0  0  0  0  0
   37.6550   26.3330   43.4790 H   0  0  0  0  0  0  0  0  0  0  0  0
   39.0880   25.6760   40.7760 H   0  0  0  0  0  0  0  0  0  0  0  0
   40.3730   24.8140   42.7220 H   0  0  0  0  0  0  0  0  0  0  0  0
   38.8800   24.0710   43.4730 H   0  0  0  0  0  0  0  0  0  0  0  0
   37.1890   24.6750   41.4790 C   0  0  0  0  0  0  0  0  0  0  0  0
   36.4490   25.1700   40.4460 F   0  0  0  0  0  0  0  0  0  0  0  0
   37.4100   23.3060   41.2240 F   0  0  0  0  0  0  0  0  0  0  0  0
   36.4720   24.7000   42.6650 F   0  0  0  0  0  0  0  0  0  0  0  0
   38.7210   30.7510   41.3060 O   0  0  0  0  0  0  0  0  0  0  0  0
   37.0330   30.6510   39.4850 C   0  0  0  0  0  0  0  0  0  0  0  0
   38.2710   30.8710   40.0380 C   0  0  0  0  0  0  0  0  0  0  0  0
   39.2800   31.3030   39.1690 C   0  0  0  0  0  0  0  0  0  0  0  0
   40.3120   31.5300   39.4080 H   0  0  0  0  0  0  0  0  0  0  0  0
   38.9690   31.4760   37.8140 C   0  0  0  0  0  0  0  0  0  0  0  0
   39.6900   31.8010   37.0980 H   0  0  0  0  0  0  0  0  0  0  0  0
   37.7250   31.2410   37.3180 C   0  0  0  0  0  3  0  0  0  0  0  0
   36.7200   30.8190   38.1560 C   0  0  0  0  0  3  0  0  0  0  0  0
   35.7040   30.9820   41.4050 N   0  0  0  0  0  0  0  0  0  0  0  0
   35.9770   30.2390   40.3550 C   0  0  0  0  0  0  0  0  0  0  0  0
   34.9570   29.3420   40.7130 N   0  0  0  0  0  0  0  0  0  0  0  0
   36.1970   31.8430   41.6460 H   0  0  0  0  0  0  0  0  0  0  0  0
   35.0450   28.4980   41.3240 H   0  0  0  0  0  0  0  0  0  0  0  0
   33.9450   29.3950   40.4050 H   0  0  0  0  0  0  0  0  0  0  0  0
  1  9  1  0  0  0  0
  1  2  1  0  0  0  0
  2  7  1  0  0  0  0
  3  2  2  0  0  0  0
  3  8  1  0  0  0  0
  4  3  1  0  0  0  0
  5  6  1  0  0  0  0
  5  4  2  0  0  0  0
  6  1  2  0  0  0  0
  9 12  1  1  0  0  0
 10 13  1  6  0  0  0
 10 11  1  0  0  0  0
 10  9  1  0  0  0  0
 11  9  1  0  0  0  0
 11 15  1  0  0  0  0
 14 11  1  0  0  0  0
 16 10  1  0  0  0  0
 16 19  1  0  0  0  0
 17 16  1  0  0  0  0
 18 16  1  0  0  0  0
 20  5  1  0  0  0  0
 21 22  1  0  0  0  0
 21 30  1  0  0  0  0
 22 20  1  0  0  0  0
 23 24  1  0  0  0  0
 23 22  2  0  0  0  0
 25 23  1  0  0  0  0
 26 25  1  0  0  0  0
 27 25  2  0  0  0  0
 27 28  1  0  0  0  0
 28 21  2  0  0  0  0
 29 32  1  0  0  0  0
 30 31  1  0  0  0  0
 30 29  2  0  0  0  0
 31 33  1  0  0  0  0
 34 31  1  0  0  0  0
M  END
>  <minimizedAffinity>
-6.05883169

$$$$

 OpenBabel03252505483D

 34 36  0  0  1  0  0  0  0  0999 V2000
   36.2420   28.3280   38.8570 C   0  0  0  0  0  0  0  0  0  0  0  0
   36.0570   27.5300   37.6990 C   0  0  0  0  0  0  0  0  0  0  0  0
   36.1500   26.1430   37.7650 C   0  0  0  0  0  0  0  0  0  0  0  0
   36.4260   25.6080   38.9840 N   0  0  0  0  0  0  0  0  0  0  0  0
   36.6010   26.4090   40.0820 C   0  0  0  0  0  0  0  0  0  0  0  0
   36.5120   27.7280   40.0190 N   0  0  0  0  0  0  0  0  0  0  0  0
   35.8360   27.9850   36.7310 H   0  0  0  0  0  0  0  0  0  0  0  0
   36.0120   25.5200   36.8970 H   0  0  0  0  0  0  0  0  0  0  0  0
   36.1410   29.7850   38.7080 C   0  0  1  0  0  0  0  0  0  0  0  0
   37.4080   30.5060   39.2930 C   0  0  1  0  0  0  0  0  0  0  0  0
   36.9350   30.5900   37.8580 C   0  0  0  0  0  0  0  0  0  0  0  0
   35.1830   30.1800   39.1460 H   0  0  0  0  0  0  0  0  0  0  0  0
   38.2750   29.9010   39.5350 H   0  0  0  0  0  0  0  0  0  0  0  0
   37.6770   30.1510   37.1350 H   0  0  0  0  0  0  0  0  0  0  0  0
   36.5700   31.5660   37.4810 H   0  0  0  0  0  0  0  0  0  0  0  0
   37.0870   31.7340   40.1090 C   0  0  0  0  0  0  0  0  0  0  0  0
   36.1360   31.5230   41.0640 F   0  0  0  0  0  0  0  0  0  0  0  0
   38.2610   32.1560   40.7650 F   0  0  0  0  0  0  0  0  0  0  0  0
   36.7440   32.7960   39.2870 F   0  0  0  0  0  0  0  0  0  0  0  0
   36.8800   25.7390   41.2610 O   0  0  0  0  0  0  0  0  0  0  0  0
   38.3820   26.7730   42.9490 C   0  0  0  0  0  0  0  0  0  0  0  0
   37.9820   25.8280   42.0370 C   0  0  0  0  0  0  0  0  0  0  0  0
   38.8400   24.7370   41.8450 C   0  0  0  0  0  0  0  0  0  0  0  0
   38.7050   23.8940   41.1780 H   0  0  0  0  0  0  0  0  0  0  0  0
   40.0300   24.6840   42.5800 C   0  0  0  0  0  0  0  0  0  0  0  0
   40.7290   23.8830   42.4820 H   0  0  0  0  0  0  0  0  0  0  0  0
   40.3790   25.6500   43.4710 C   0  0  0  0  0  3  0  0  0  0  0  0
   39.5500   26.7270   43.6740 C   0  0  0  0  0  3  0  0  0  0  0  0
   36.2350   27.6430   43.3950 N   0  0  0  0  0  0  0  0  0  0  0  0
   37.5110   27.8820   43.1860 C   0  0  0  0  0  0  0  0  0  0  0  0
   37.2860   29.2610   43.3270 N   0  0  0  0  0  0  0  0  0  0  0  0
   35.8170   26.7110   43.4010 H   0  0  0  0  0  0  0  0  0  0  0  0
   37.0430   29.9420   42.5720 H   0  0  0  0  0  0  0  0  0  0  0  0
   37.3370   29.8110   44.2320 H   0  0  0  0  0  0  0  0  0  0  0  0
  1  6  1  0  0  0  0
  2  3  1  0  0  0  0
  2  1  2  0  0  0  0
  3  4  2  0  0  0  0
  4  5  1  0  0  0  0
  5 20  1  0  0  0  0
  6  5  2  0  0  0  0
  7  2  1  0  0  0  0
  8  3  1  0  0  0  0
  9  1  1  0  0  0  0
  9 12  1  1  0  0  0
  9 10  1  0  0  0  0
 10 13  1  1  0  0  0
 10 16  1  0  0  0  0
 11  9  1  0  0  0  0
 11 10  1  0  0  0  0
 14 11  1  0  0  0  0
 15 11  1  0  0  0  0
 16 18  1  0  0  0  0
 16 17  1  0  0  0  0
 19 16  1  0  0  0  0
 20 22  1  0  0  0  0
 21 30  1  0  0  0  0
 21 28  1  0  0  0  0
 22 21  2  0  0  0  0
 23 22  1  0  0  0  0
 23 25  2  0  0  0  0
 24 23  1  0  0  0  0
 25 27  1  0  0  0  0
 26 25  1  0  0  0  0
 27 28  2  0  0  0  0
 29 32  1  0  0  0  0
 30 31  1  0  0  0  0
 30 29  2  0  0  0  0
 31 34  1  0  0  0  0
 33 31  1  0  0  0  0
M  END
>  <minimizedAffinity>
-6.0515604

$$$$

 OpenBabel03252505483D

 34 36  0  0  1  0  0  0  0  0999 V2000
   37.9440   25.4180   42.2080 C   0  0  0  0  0  0  0  0  0  0  0  0
   39.0820   24.7810   42.7680 C   0  0  0  0  0  0  0  0  0  0  0  0
   40.0070   25.4990   43.5170 C   0  0  0  0  0  0  0  0  0  0  0  0
   39.7620   26.8270   43.6790 N   0  0  0  0  0  0  0  0  0  0  0  0
   38.6540   27.4110   43.1220 C   0  0  0  0  0  0  0  0  0  0  0  0
   37.7730   26.7270   42.4100 N   0  0  0  0  0  0  0  0  0  0  0  0
   39.2560   23.7120   42.6230 H   0  0  0  0  0  0  0  0  0  0  0  0
   40.8760   25.0330   43.9510 H   0  0  0  0  0  0  0  0  0  0  0  0
   37.0180   24.5970   41.4190 C   0  0  1  0  0  0  0  0  0  0  0  0
   37.4100   24.6040   39.8970 C   0  0  1  0  0  0  0  0  0  0  0  0
   37.3310   23.3760   40.7770 C   0  0  0  0  0  0  0  0  0  0  0  0
   35.9480   24.9020   41.5870 H   0  0  0  0  0  0  0  0  0  0  0  0
   38.3800   25.0020   39.6200 H   0  0  0  0  0  0  0  0  0  0  0  0
   38.3290   22.8720   40.9000 H   0  0  0  0  0  0  0  0  0  0  0  0
   36.5500   22.6210   40.5600 H   0  0  0  0  0  0  0  0  0  0  0  0
   36.2310   24.7570   38.9670 C   0  0  0  0  0  0  0  0  0  0  0  0
   35.1690   23.9660   39.2940 F   0  0  0  0  0  0  0  0  0  0  0  0
   35.7930   26.0960   39.0160 F   0  0  0  0  0  0  0  0  0  0  0  0
   36.6130   24.5610   37.6490 F   0  0  0  0  0  0  0  0  0  0  0  0
   38.5240   28.7690   43.3590 O   0  0  0  0  0  0  0  0  0  0  0  0
   37.9990   30.4290   41.5860 C   0  0  0  0  0  0  0  0  0  0  0  0
   38.7810   29.7960   42.5210 C   0  0  0  0  0  0  0  0  0  0  0  0
   40.0910   30.2700   42.6690 C   0  0  0  0  0  0  0  0  0  0  0  0
   40.8560   29.9090   43.3470 H   0  0  0  0  0  0  0  0  0  0  0  0
   40.5120   31.3370   41.8660 C   0  0  0  0  0  0  0  0  0  0  0  0
   41.4960   31.7450   41.9270 H   0  0  0  0  0  0  0  0  0  0  0  0
   39.6960   31.9270   40.9530 C   0  0  0  0  0  3  0  0  0  0  0  0
   38.4060   31.4780   40.7940 C   0  0  0  0  0  3  0  0  0  0  0  0
   35.7090   30.8870   41.2560 N   0  0  0  0  0  0  0  0  0  0  0  0
   36.6480   29.9850   41.4350 C   0  0  0  0  0  0  0  0  0  0  0  0
   35.6900   28.9610   41.3740 N   0  0  0  0  0  0  0  0  0  0  0  0
   35.8770   31.8940   41.2140 H   0  0  0  0  0  0  0  0  0  0  0  0
   35.1530   28.5490   42.1720 H   0  0  0  0  0  0  0  0  0  0  0  0
   35.3770   28.4520   40.4990 H   0  0  0  0  0  0  0  0  0  0  0  0
  1  6  2  0  0  0  0
  1  2  1  0  0  0  0
  2  3  2  0  0  0  0
  3  4  1  0  0  0  0
  3  8  1  0  0  0  0
  5 20  1  0  0  0  0
  5  4  2  0  0  0  0
  6  5  1  0  0  0  0
  7  2  1  0  0  0  0
  9 12  1  1  0  0  0
  9  1  1  0  0  0  0
 10 13  1  6  0  0  0
 10 11  1  0  0  0  0
 10  9  1  0  0  0  0
 11 14  1  0  0  0  0
 11  9  1  0  0  0  0
 15 11  1  0  0  0  0
 16 18  1  0  0  0  0
 16 17  1  0  0  0  0
 16 10  1  0  0  0  0
 19 16  1  0  0  0  0
 21 22  1  0  0  0  0
 22 23  2  0  0  0  0
 22 20  1  0  0  0  0
 23 24  1  0  0  0  0
 25 26  1  0  0  0  0
 25 23  1  0  0  0  0
 27 25  2  0  0  0  0
 28 27  1  0  0  0  0
 28 21  2  0  0  0  0
 29 30  2  0  0  0  0
 30 21  1  0  0  0  0
 31 30  1  0  0  0  0
 31 33  1  0  0  0  0
 32 29  1  0  0  0  0
 34 31  1  0  0  0  0
M  END
>  <minimizedAffinity>
-5.95685863

$$$$

 OpenBabel03252505483D

 34 36  0  0  1  0  0  0  0  0999 V2000
   36.9830   28.5350   41.8750 C   0  0  0  0  0  0  0  0  0  0  0  0
   35.8000   28.5640   41.0930 C   0  0  0  0  0  0  0  0  0  0  0  0
   35.5000   29.6600   40.2910 C   0  0  0  0  0  0  0  0  0  0  0  0
   36.3930   30.6850   40.3010 N   0  0  0  0  0  0  0  0  0  0  0  0
   37.5250   30.6250   41.0710 C   0  0  0  0  0  0  0  0  0  0  0  0
   37.8110   29.5820   41.8330 N   0  0  0  0  0  0  0  0  0  0  0  0
   35.0980   27.7270   41.1020 H   0  0  0  0  0  0  0  0  0  0  0  0
   34.6070   29.7000   39.6890 H   0  0  0  0  0  0  0  0  0  0  0  0
   37.2250   27.3500   42.7070 C   0  0  1  0  0  0  0  0  0  0  0  0
   38.1270   26.3040   41.9560 C   0  0  1  0  0  0  0  0  0  0  0  0
   38.4660   26.9710   43.2720 C   0  0  0  0  0  0  0  0  0  0  0  0
   36.2630   26.8980   43.0750 H   0  0  0  0  0  0  0  0  0  0  0  0
   38.6330   26.6210   41.0510 H   0  0  0  0  0  0  0  0  0  0  0  0
   39.3810   27.6200   43.2010 H   0  0  0  0  0  0  0  0  0  0  0  0
   38.5170   26.3420   44.1830 H   0  0  0  0  0  0  0  0  0  0  0  0
   37.6570   24.8780   42.1050 C   0  0  0  0  0  0  0  0  0  0  0  0
   36.3740   24.7690   42.5570 F   0  0  0  0  0  0  0  0  0  0  0  0
   37.7160   24.2540   40.8420 F   0  0  0  0  0  0  0  0  0  0  0  0
   38.5300   24.1500   42.8970 F   0  0  0  0  0  0  0  0  0  0  0  0
   38.3490   31.7360   40.9930 O   0  0  0  0  0  0  0  0  0  0  0  0
   40.0550   31.9600   39.2010 C   0  0  0  0  0  0  0  0  0  0  0  0
   39.5990   31.8210   40.4890 C   0  0  0  0  0  0  0  0  0  0  0  0
   40.5690   31.7530   41.4960 C   0  0  0  0  0  0  0  0  0  0  0  0
   40.4140   31.6450   42.5630 H   0  0  0  0  0  0  0  0  0  0  0  0
   41.9190   31.8260   41.1310 C   0  0  0  0  0  0  0  0  0  0  0  0
   42.7090   31.7790   41.8480 H   0  0  0  0  0  0  0  0  0  0  0  0
   42.3170   31.9630   39.8380 C   0  0  0  0  0  3  0  0  0  0  0  0
   41.3800   32.0340   38.8360 C   0  0  0  0  0  3  0  0  0  0  0  0
   39.5070   32.2300   36.9230 N   0  0  0  0  0  0  0  0  0  0  0  0
   39.0850   32.0630   38.1560 C   0  0  0  0  0  0  0  0  0  0  0  0
   37.7530   32.0810   37.7130 N   0  0  0  0  0  0  0  0  0  0  0  0
   40.4910   32.2910   36.6540 H   0  0  0  0  0  0  0  0  0  0  0  0
   37.1290   32.9160   37.6200 H   0  0  0  0  0  0  0  0  0  0  0  0
   37.1850   31.2390   37.4100 H   0  0  0  0  0  0  0  0  0  0  0  0
  1  9  1  0  0  0  0
  2  7  1  0  0  0  0
  2  1  2  0  0  0  0
  3  4  2  0  0  0  0
  3  2  1  0  0  0  0
  4  5  1  0  0  0  0
  5  6  2  0  0  0  0
  6  1  1  0  0  0  0
  8  3  1  0  0  0  0
  9 12  1  1  0  0  0
  9 11  1  0  0  0  0
 10 13  1  6  0  0  0
 10 16  1  0  0  0  0
 10  9  1  0  0  0  0
 10 11  1  0  0  0  0
 11 15  1  0  0  0  0
 14 11  1  0  0  0  0
 16 17  1  0  0  0  0
 16 19  1  0  0  0  0
 18 16  1  0  0  0  0
 20  5  1  0  0  0  0
 21 22  1  0  0  0  0
 22 20  1  0  0  0  0
 22 23  2  0  0  0  0
 23 24  1  0  0  0  0
 25 23  1  0  0  0  0
 25 26  1  0  0  0  0
 27 25  2  0  0  0  0
 28 21  2  0  0  0  0
 28 27  1  0  0  0  0
 29 30  2  0  0  0  0
 30 21  1  0  0  0  0
 31 30  1  0  0  0  0
 32 29  1  0  0  0  0
 33 31  1  0  0  0  0
 34 31  1  0  0  0  0
M  END
>  <minimizedAffinity>
-5.85169649

$$$$

 OpenBabel03252505483D

 34 36  0  0  1  0  0  0  0  0999 V2000
   37.5420   30.3920   41.0630 C   0  0  0  0  0  0  0  0  0  0  0  0
   36.7450   30.4950   39.8940 C   0  0  0  0  0  0  0  0  0  0  0  0
   37.0580   31.4090   38.8930 C   0  0  0  0  0  0  0  0  0  0  0  0
   38.1550   32.1870   39.1000 N   0  0  0  0  0  0  0  0  0  0  0  0
   38.9010   32.0630   40.2430 C   0  0  0  0  0  0  0  0  0  0  0  0
   38.6030   31.1920   41.1940 N   0  0  0  0  0  0  0  0  0  0  0  0
   35.8680   29.8580   39.7510 H   0  0  0  0  0  0  0  0  0  0  0  0
   36.4660   31.5010   37.9980 H   0  0  0  0  0  0  0  0  0  0  0  0
   37.1410   29.4130   42.0810 C   0  0  1  0  0  0  0  0  0  0  0  0
   38.0450   28.1290   42.0200 C   0  0  1  0  0  0  0  0  0  0  0  0
   37.8960   29.0410   43.2180 C   0  0  0  0  0  0  0  0  0  0  0  0
   36.0450   29.1690   42.0110 H   0  0  0  0  0  0  0  0  0  0  0  0
   38.9520   28.1690   41.4270 H   0  0  0  0  0  0  0  0  0  0  0  0
   38.8610   29.5500   43.4920 H   0  0  0  0  0  0  0  0  0  0  0  0
   37.4080   28.6390   44.1280 H   0  0  0  0  0  0  0  0  0  0  0  0
   37.2740   26.8370   42.1430 C   0  0  0  0  0  0  0  0  0  0  0  0
   36.5200   26.5420   41.0460 F   0  0  0  0  0  0  0  0  0  0  0  0
   38.1920   25.7830   42.3230 F   0  0  0  0  0  0  0  0  0  0  0  0
   36.5030   26.8310   43.2960 F   0  0  0  0  0  0  0  0  0  0  0  0
   39.9880   32.9150   40.3300 O   0  0  0  0  0  0  0  0  0  0  0  0
   42.0570   32.5030   39.0170 C   0  0  0  0  0  0  0  0  0  0  0  0
   41.2970   32.6290   40.1530 C   0  0  0  0  0  0  0  0  0  0  0  0
   41.9540   32.4360   41.3740 C   0  0  0  0  0  0  0  0  0  0  0  0
   41.5350   32.4920   42.3720 H   0  0  0  0  0  0  0  0  0  0  0  0
   43.3210   32.1300   41.3580 C   0  0  0  0  0  0  0  0  0  0  0  0
   43.8820   31.9700   42.2520 H   0  0  0  0  0  0  0  0  0  0  0  0
   44.0270   32.0150   40.2020 C   0  0  0  0  0  3  0  0  0  0  0  0
   43.3990   32.2020   38.9930 C   0  0  0  0  0  3  0  0  0  0  0  0
   42.0460   33.4400   36.8520 N   0  0  0  0  0  0  0  0  0  0  0  0
   41.4170   32.7240   37.7570 C   0  0  0  0  0  0  0  0  0  0  0  0
   40.3330   32.5530   36.8820 N   0  0  0  0  0  0  0  0  0  0  0  0
   42.9710   33.8540   36.9840 H   0  0  0  0  0  0  0  0  0  0  0  0
   39.4900   33.1660   36.7930 H   0  0  0  0  0  0  0  0  0  0  0  0
   40.2140   31.7640   36.1840 H   0  0  0  0  0  0  0  0  0  0  0  0
  1  6  1  0  0  0  0
  1  9  1  0  0  0  0
  2  1  2  0  0  0  0
  3  4  2  0  0  0  0
  3  2  1  0  0  0  0
  4  5  1  0  0  0  0
  5 20  1  0  0  0  0
  5  6  2  0  0  0  0
  7  2  1  0  0  0  0
  8  3  1  0  0  0  0
  9 12  1  1  0  0  0
  9 11  1  0  0  0  0
 10 13  1  6  0  0  0
 10  9  1  0  0  0  0
 10 16  1  0  0  0  0
 10 11  1  0  0  0  0
 11 14  1  0  0  0  0
 11 15  1  0  0  0  0
 16 18  1  0  0  0  0
 16 19  1  0  0  0  0
 17 16  1  0  0  0  0
 21 22  1  0  0  0  0
 22 20  1  0  0  0  0
 22 23  2  0  0  0  0
 23 24  1  0  0  0  0
 25 23  1  0  0  0  0
 25 26  1  0  0  0  0
 27 25  2  0  0  0  0
 28 21  2  0  0  0  0
 28 27  1  0  0  0  0
 29 32  1  0  0  0  0
 29 30  2  0  0  0  0
 30 21  1  0  0  0  0
 31 30  1  0  0  0  0
 33 31  1  0  0  0  0
 34 31  1  0  0  0  0
M  END
>  <minimizedAffinity>
-5.6936698

$$$$

 OpenBabel03252505483D

 34 36  0  0  1  0  0  0  0  0999 V2000
   37.1570   26.7620   42.3190 C   0  0  0  0  0  0  0  0  0  0  0  0
   37.9160   27.3640   43.3550 C   0  0  0  0  0  0  0  0  0  0  0  0
   38.0110   28.7470   43.4600 C   0  0  0  0  0  0  0  0  0  0  0  0
   37.3450   29.4770   42.5260 N   0  0  0  0  0  0  0  0  0  0  0  0
   36.6230   28.8630   41.5360 C   0  0  0  0  0  0  0  0  0  0  0  0
   36.5320   27.5470   41.4370 N   0  0  0  0  0  0  0  0  0  0  0  0
   38.4420   26.7550   44.0950 H   0  0  0  0  0  0  0  0  0  0  0  0
   38.5820   29.2230   44.2400 H   0  0  0  0  0  0  0  0  0  0  0  0
   37.1130   25.2960   42.2650 C   0  0  1  0  0  0  0  0  0  0  0  0
   37.7320   24.7580   40.9240 C   0  0  1  0  0  0  0  0  0  0  0  0
   38.2300   24.4290   42.3150 C   0  0  0  0  0  0  0  0  0  0  0  0
   36.0730   24.9060   42.4430 H   0  0  0  0  0  0  0  0  0  0  0  0
   38.2920   25.4500   40.3060 H   0  0  0  0  0  0  0  0  0  0  0  0
   39.2740   24.8050   42.4970 H   0  0  0  0  0  0  0  0  0  0  0  0
   38.1350   23.3860   42.6750 H   0  0  0  0  0  0  0  0  0  0  0  0
   36.9330   23.6450   40.2900 C   0  0  0  0  0  0  0  0  0  0  0  0
   35.5950   23.7160   40.5470 F   0  0  0  0  0  0  0  0  0  0  0  0
   37.1000   23.7160   38.8920 F   0  0  0  0  0  0  0  0  0  0  0  0
   37.4450   22.4070   40.6420 F   0  0  0  0  0  0  0  0  0  0  0  0
   35.9960   29.7200   40.6470 O   0  0  0  0  0  0  0  0  0  0  0  0
   36.6790   29.7690   38.2590 C   0  0  0  0  0  0  0  0  0  0  0  0
   36.4960   30.2750   39.5220 C   0  0  0  0  0  0  0  0  0  0  0  0
   36.8800   31.6060   39.7280 C   0  0  0  0  0  0  0  0  0  0  0  0
   36.8160   32.1830   40.6430 H   0  0  0  0  0  0  0  0  0  0  0  0
   37.4200   32.3210   38.6520 C   0  0  0  0  0  0  0  0  0  0  0  0
   37.7340   33.3380   38.7410 H   0  0  0  0  0  0  0  0  0  0  0  0
   37.5810   31.7700   37.4200 C   0  0  0  0  0  3  0  0  0  0  0  0
   37.2080   30.4660   37.1970 C   0  0  0  0  0  3  0  0  0  0  0  0
   36.5230   27.8930   36.8370 N   0  0  0  0  0  0  0  0  0  0  0  0
   36.2670   28.4230   38.0130 C   0  0  0  0  0  0  0  0  0  0  0  0
   35.6550   27.2290   38.4280 N   0  0  0  0  0  0  0  0  0  0  0  0
   37.0020   28.3810   36.0780 H   0  0  0  0  0  0  0  0  0  0  0  0
   34.6460   26.9700   38.3320 H   0  0  0  0  0  0  0  0  0  0  0  0
   36.1370   26.4150   38.9050 H   0  0  0  0  0  0  0  0  0  0  0  0
  1  2  1  0  0  0  0
  2  3  2  0  0  0  0
  2  7  1  0  0  0  0
  3  8  1  0  0  0  0
  4  3  1  0  0  0  0
  5  4  2  0  0  0  0
  6  5  1  0  0  0  0
  6  1  2  0  0  0  0
  9 11  1  0  0  0  0
  9  1  1  0  0  0  0
  9 12  1  1  0  0  0
 10 13  1  6  0  0  0
 10  9  1  0  0  0  0
 10 11  1  0  0  0  0
 11 14  1  0  0  0  0
 11 15  1  0  0  0  0
 16 17  1  0  0  0  0
 16 19  1  0  0  0  0
 16 10  1  0  0  0  0
 18 16  1  0  0  0  0
 20  5  1  0  0  0  0
 21 22  1  0  0  0  0
 22 23  2  0  0  0  0
 22 20  1  0  0  0  0
 23 24  1  0  0  0  0
 25 26  1  0  0  0  0
 25 23  1  0  0  0  0
 27 25  2  0  0  0  0
 28 27  1  0  0  0  0
 28 21  2  0  0  0  0
 29 30  2  0  0  0  0
 30 21  1  0  0  0  0
 30 31  1  0  0  0  0
 31 34  1  0  0  0  0
 32 29  1  0  0  0  0
 33 31  1  0  0  0  0
M  END
>  <minimizedAffinity>
-5.61554432

$$$$

 OpenBabel03252505483D

 34 36  0  0  1  0  0  0  0  0999 V2000
   40.7280   31.4710   39.4210 C   0  0  0  0  0  0  0  0  0  0  0  0
   40.1890   32.7640   39.1980 C   0  0  0  0  0  0  0  0  0  0  0  0
   39.2460   33.3050   40.0650 C   0  0  0  0  0  0  0  0  0  0  0  0
   38.8770   32.5330   41.1220 N   0  0  0  0  0  0  0  0  0  0  0  0
   39.4160   31.2870   41.3060 C   0  0  0  0  0  0  0  0  0  0  0  0
   40.3140   30.7730   40.4810 N   0  0  0  0  0  0  0  0  0  0  0  0
   40.5030   33.3650   38.3410 H   0  0  0  0  0  0  0  0  0  0  0  0
   38.8260   34.2850   39.9140 H   0  0  0  0  0  0  0  0  0  0  0  0
   41.7090   30.9620   38.4550 C   0  0  1  0  0  0  0  0  0  0  0  0
   41.0220   30.0560   37.3700 C   0  0  1  0  0  0  0  0  0  0  0  0
   41.7970   31.3250   37.0910 C   0  0  0  0  0  0  0  0  0  0  0  0
   42.5640   30.4410   38.9690 H   0  0  0  0  0  0  0  0  0  0  0  0
   39.9390   30.0670   37.3070 H   0  0  0  0  0  0  0  0  0  0  0  0
   41.1540   32.1310   36.6410 H   0  0  0  0  0  0  0  0  0  0  0  0
   42.7510   31.2470   36.5330 H   0  0  0  0  0  0  0  0  0  0  0  0
   41.7900   28.7960   37.0550 C   0  0  0  0  0  0  0  0  0  0  0  0
   42.3560   28.2110   38.1500 F   0  0  0  0  0  0  0  0  0  0  0  0
   40.9030   27.8610   36.4850 F   0  0  0  0  0  0  0  0  0  0  0  0
   42.7360   29.0290   36.0680 F   0  0  0  0  0  0  0  0  0  0  0  0
   38.9530   30.6040   42.4180 O   0  0  0  0  0  0  0  0  0  0  0  0
   37.1480   28.9280   42.0900 C   0  0  0  0  0  0  0  0  0  0  0  0
   38.3860   29.3790   42.4760 C   0  0  0  0  0  0  0  0  0  0  0  0
   39.2540   28.4320   43.0340 C   0  0  0  0  0  0  0  0  0  0  0  0
   40.2640   28.5870   43.3960 H   0  0  0  0  0  0  0  0  0  0  0  0
   38.8100   27.1110   43.1620 C   0  0  0  0  0  0  0  0  0  0  0  0
   39.4200   26.3400   43.5800 H   0  0  0  0  0  0  0  0  0  0  0  0
   37.5710   26.7170   42.7640 C   0  0  0  0  0  3  0  0  0  0  0  0
   36.7050   27.6320   42.2130 C   0  0  0  0  0  3  0  0  0  0  0  0
   35.1940   29.4100   40.8580 N   0  0  0  0  0  0  0  0  0  0  0  0
   36.2530   29.8680   41.4900 C   0  0  0  0  0  0  0  0  0  0  0  0
   35.8740   31.1860   41.1880 N   0  0  0  0  0  0  0  0  0  0  0  0
   34.9620   28.4190   40.7650 H   0  0  0  0  0  0  0  0  0  0  0  0
   36.1450   31.7440   40.3460 H   0  0  0  0  0  0  0  0  0  0  0  0
   35.2570   31.8080   41.7830 H   0  0  0  0  0  0  0  0  0  0  0  0
  1  6  1  0  0  0  0
  2  1  2  0  0  0  0
  2  3  1  0  0  0  0
  3  4  2  0  0  0  0
  4  5  1  0  0  0  0
  5 20  1  0  0  0  0
  6  5  2  0  0  0  0
  7  2  1  0  0  0  0
  8  3  1  0  0  0  0
  9 12  1  1  0  0  0
  9  1  1  0  0  0  0
 10 13  1  6  0  0  0
 10  9  1  0  0  0  0
 11 10  1  0  0  0  0
 11  9  1  0  0  0  0
 14 11  1  0  0  0  0
 15 11  1  0  0  0  0
 16 10  1  0  0  0  0
 16 17  1  0  0  0  0
 18 16  1  0  0  0  0
 19 16  1  0  0  0  0
 20 22  1  0  0  0  0
 21 28  2  0  0  0  0
 21 22  1  0  0  0  0
 22 23  2  0  0  0  0
 23 25  1  0  0  0  0
 23 24  1  0  0  0  0
 25 26  1  0  0  0  0
 27 25  2  0  0  0  0
 28 27  1  0  0  0  0
 29 30  2  0  0  0  0
 30 21  1  0  0  0  0
 31 30  1  0  0  0  0
 31 34  1  0  0  0  0
 32 29  1  0  0  0  0
 33 31  1  0  0  0  0
M  END
>  <minimizedAffinity>
-5.57826185

$$$$
