
 OpenBabel03252509263D

 35 37  0  0  1  0  0  0  0  0999 V2000
   46.4810   34.9420   41.9570 C   0  0  1  0  0  0  0  0  0  0  0  0
   48.0040   35.2500   41.9320 C   0  0  0  0  0  0  0  0  0  0  0  0
   47.3150   33.9500   41.4210 C   0  0  2  0  0  0  0  0  0  0  0  0
   45.8810   35.6410   41.3400 H   0  0  0  0  0  0  0  0  0  0  0  0
   48.3010   35.9680   41.1510 H   0  0  0  0  0  0  0  0  0  0  0  0
   48.5770   35.1550   42.8580 H   0  0  0  0  0  0  0  0  0  0  0  0
   47.5890   33.0370   42.0300 H   0  0  0  0  0  0  0  0  0  0  0  0
   44.6180   35.4930   45.1650 C   0  0  0  0  0  0  0  0  0  0  0  0
   45.0750   35.7350   43.8230 C   0  0  0  0  0  0  0  0  0  0  0  0
   45.9850   34.8320   43.3800 C   0  0  0  0  0  0  0  0  0  0  0  0
   46.4350   33.7770   44.1510 N   0  0  0  0  0  0  0  0  0  0  0  0
   45.9740   33.5940   45.4040 C   0  0  0  0  0  0  0  0  0  0  0  0
   45.0600   34.4570   45.9130 N   0  0  0  0  0  0  0  0  0  0  0  0
   43.8900   36.1930   45.5510 H   0  0  0  0  0  0  0  0  0  0  0  0
   46.4030   32.7410   45.8920 H   0  0  0  0  0  0  0  0  0  0  0  0
   44.6390   36.8260   43.0570 N   0  0  0  0  0  0  0  0  0  0  0  0
   43.8430   36.2920   42.6630 H   0  0  0  0  0  0  0  0  0  0  0  0
   45.4160   37.4680   43.3920 H   0  0  0  0  0  0  0  0  0  0  0  0
   47.3220   33.6550   39.9380 C   0  0  0  0  0  0  0  0  0  0  0  0
   47.5840   34.6180   39.4460 H   0  0  0  0  0  0  0  0  0  0  0  0
   46.2740   33.3650   39.6750 H   0  0  0  0  0  0  0  0  0  0  0  0
   48.9260   32.6340   38.3690 C   0  0  0  0  0  0  0  0  0  0  0  0
   48.2120   32.5570   39.5470 C   0  0  0  0  0  0  0  0  0  0  0  0
   48.3350   31.4510   40.3610 C   0  0  0  0  0  0  0  0  0  0  0  0
   47.7430   31.4410   41.2880 H   0  0  0  0  0  0  0  0  0  0  0  0
   49.1730   30.4260   39.9900 C   0  0  0  0  0  0  0  0  0  0  0  0
   49.2100   29.5900   40.6920 H   0  0  0  0  0  0  0  0  0  0  0  0
   49.9010   30.4740   38.8190 C   0  0  0  0  0  3  0  0  0  0  0  0
   49.7530   31.5790   38.0440 C   0  0  0  0  0  3  0  0  0  0  0  0
   49.0250   35.0080   37.5580 N   0  0  0  0  0  0  0  0  0  0  0  0
   48.8830   33.7380   37.4320 C   0  0  0  0  0  0  0  0  0  0  0  0
   48.6400   33.4960   36.0470 N   0  0  0  0  0  0  0  0  0  0  0  0
   48.9580   35.6530   36.7470 H   0  0  0  0  0  0  0  0  0  0  0  0
   47.6350   33.6410   35.7670 H   0  0  0  0  0  0  0  0  0  0  0  0
   49.4130   33.2060   35.4100 H   0  0  0  0  0  0  0  0  0  0  0  0
  1  4  1  6  0  0  0
  1 10  1  0  0  0  0
  2  1  1  0  0  0  0
  2  6  1  0  0  0  0
  3  2  1  0  0  0  0
  3  1  1  0  0  0  0
  3  7  1  1  0  0  0
  5  2  1  0  0  0  0
  8 14  1  0  0  0  0
  8 13  1  0  0  0  0
  9  8  2  0  0  0  0
 10  9  1  0  0  0  0
 10 11  2  0  0  0  0
 11 12  1  0  0  0  0
 12 15  1  0  0  0  0
 12 13  2  0  0  0  0
 16 18  1  0  0  0  0
 16  9  1  0  0  0  0
 17 16  1  0  0  0  0
 19  3  1  0  0  0  0
 20 19  1  0  0  0  0
 21 19  1  0  0  0  0
 22 23  1  0  0  0  0
 23 19  1  0  0  0  0
 23 24  2  0  0  0  0
 24 25  1  0  0  0  0
 26 24  1  0  0  0  0
 26 27  1  0  0  0  0
 28 26  2  0  0  0  0
 29 22  2  0  0  0  0
 29 28  1  0  0  0  0
 31 30  2  0  0  0  0
 31 22  1  0  0  0  0
 32 31  1  0  0  0  0
 33 30  1  0  0  0  0
 34 32  1  0  0  0  0
 35 32  1  0  0  0  0
M  END
>  <minimizedAffinity>
-5.45151949

>  <minimizedRMSD>
0.435203195

$$$$
