
 OpenBabel03252500393D

 26 27  0  0  0  0  0  0  0  0999 V2000
   42.2450   34.4940   40.6550 C   0  0  0  0  0  0  0  0  0  0  0  0
   43.6220   34.5260   40.5730 C   0  0  0  0  0  0  0  0  0  0  0  0
   44.2950   33.5840   39.8220 C   0  0  0  0  0  0  0  0  0  0  0  0
   45.3770   33.6460   39.7840 H   0  0  0  0  0  0  0  0  0  0  0  0
   43.5870   32.5930   39.1400 C   0  0  0  0  0  0  0  0  0  0  0  0
   44.1610   31.8950   38.5780 H   0  0  0  0  0  0  0  0  0  0  0  0
   42.1950   32.5890   39.2450 C   0  0  0  0  0  3  0  0  0  0  0  0
   41.5000   33.5280   39.9960 C   0  0  0  0  0  3  0  0  0  0  0  0
   40.5390   36.2560   40.9810 N   0  0  0  0  0  0  0  0  0  0  0  0
   41.4290   35.4520   41.4290 C   0  0  0  0  0  0  0  0  0  0  0  0
   41.4360   35.7060   42.8280 N   0  0  0  0  0  0  0  0  0  0  0  0
   40.3220   36.2780   39.9460 H   0  0  0  0  0  0  0  0  0  0  0  0
   41.9820   36.2520   43.5300 H   0  0  0  0  0  0  0  0  0  0  0  0
   40.7500   35.2960   43.5030 H   0  0  0  0  0  0  0  0  0  0  0  0
   44.3340   35.5950   41.3120 C   0  0  0  0  0  0  0  0  0  0  0  0
   43.5900   36.2980   41.7480 H   0  0  0  0  0  0  0  0  0  0  0  0
   44.9810   36.1970   40.6640 H   0  0  0  0  0  0  0  0  0  0  0  0
   45.1430   34.9460   42.4010 C   0  0  0  0  0  0  0  0  0  0  0  0
   46.5240   34.9060   42.2180 C   0  0  0  0  0  0  0  0  0  0  0  0
   47.3140   34.3090   43.2100 C   0  0  0  0  0  0  0  0  0  0  0  0
   46.6620   33.8030   44.3000 N   0  0  0  0  0  0  0  0  0  0  0  0
   45.3150   33.8640   44.4370 C   0  0  0  0  0  0  0  0  0  0  0  0
   44.5460   34.4370   43.4850 N   0  0  0  0  0  0  0  0  0  0  0  0
   46.9550   35.3330   41.3210 H   0  0  0  0  0  0  0  0  0  0  0  0
   48.3800   34.2610   43.1020 H   0  0  0  0  0  0  0  0  0  0  0  0
   44.8670   33.4410   45.3290 H   0  0  0  0  0  0  0  0  0  0  0  0
  1 10  1  0  0  0  0
  2  1  1  0  0  0  0
  2 15  1  0  0  0  0
  3  2  2  0  0  0  0
  4  3  1  0  0  0  0
  5  7  2  0  0  0  0
  5  3  1  0  0  0  0
  6  5  1  0  0  0  0
  7  8  1  0  0  0  0
  8  1  2  0  0  0  0
  9 10  2  0  0  0  0
 10 11  1  0  0  0  0
 11 14  1  0  0  0  0
 11 13  1  0  0  0  0
 12  9  1  0  0  0  0
 15 16  1  0  0  0  0
 15 18  1  0  0  0  0
 17 15  1  0  0  0  0
 18 23  1  0  0  0  0
 19 18  2  0  0  0  0
 19 20  1  0  0  0  0
 20 21  2  0  0  0  0
 21 22  1  0  0  0  0
 22 26  1  0  0  0  0
 23 22  2  0  0  0  0
 24 19  1  0  0  0  0
 25 20  1  0  0  0  0
M  END
>  <minimizedAffinity>
-4.19291639

>  <minimizedRMSD>
2.15688562

$$$$
