
 OpenBabel03242516233D

 34 36  0  0  0  0  0  0  0  0999 V2000
   37.3680   26.5280   41.6970 C   0  0  0  0  0  0  0  0  0  0  0  0
   36.7780   27.6470   41.1570 C   0  0  0  0  0  0  0  0  0  0  0  0
   36.8740   28.8770   41.7730 C   0  0  0  0  0  0  0  0  0  0  0  0
   37.5720   29.0250   42.9610 C   0  0  0  0  0  0  0  0  0  0  0  0
   38.1670   27.9170   43.5120 C   0  0  0  0  0  0  0  0  0  0  0  0
   38.0580   26.6960   42.8790 C   0  0  0  0  0  0  0  0  0  0  0  0
   36.2310   27.5230   40.2240 H   0  0  0  0  0  0  0  0  0  0  0  0
   37.6530   29.9930   43.4530 H   0  0  0  0  0  0  0  0  0  0  0  0
   38.7280   27.9780   44.4450 H   0  0  0  0  0  0  0  0  0  0  0  0
   38.5240   25.8140   43.3050 H   0  0  0  0  0  0  0  0  0  0  0  0
   36.2760   23.9370   39.3570 C   0  0  0  0  0  0  0  0  0  0  0  0
   37.0080   22.8080   39.7440 C   0  0  0  0  0  0  0  0  0  0  0  0
   37.8920   22.9430   40.8280 C   0  0  0  0  0  0  0  0  0  0  0  0
   38.0060   24.1520   41.4590 N   0  0  0  0  0  0  0  0  0  0  0  0
   37.2620   25.2240   41.0370 C   0  0  0  0  0  0  0  0  0  0  0  0
   36.4010   25.1200   39.9910 N   0  0  0  0  0  0  0  0  0  0  0  0
   35.6090   23.7820   38.5180 H   0  0  0  0  0  0  0  0  0  0  0  0
   36.9110   21.8470   39.2360 H   0  0  0  0  0  0  0  0  0  0  0  0
   38.4770   22.0920   41.1570 H   0  0  0  0  0  0  0  0  0  0  0  0
   36.0800   30.2880   41.0090 S   0  0  0  0  0  0  0  0  0  0  0  0
   37.2990   31.4770   38.9730 C   0  0  0  0  0  0  0  0  0  0  0  0
   36.4960   30.4120   39.2850 C   0  0  0  0  0  0  0  0  0  0  0  0
   36.1100   29.5820   38.2690 C   0  0  0  0  0  0  0  0  0  0  0  0
   35.4680   28.7480   38.5830 H   0  0  0  0  0  0  0  0  0  0  0  0
   36.5040   29.7900   36.9670 C   0  0  0  0  0  0  0  0  0  0  0  0
   36.1600   29.0880   36.2030 H   0  0  0  0  0  0  0  0  0  0  0  0
   37.3130   30.8600   36.6420 C   0  0  0  0  0  3  0  0  0  0  0  0
   37.7110   31.7110   37.6680 C   0  0  0  0  0  3  0  0  0  0  0  0
   38.7700   32.4390   40.7940 N   0  0  0  0  0  0  0  0  0  0  0  0
   37.7990   32.4580   39.9430 C   0  0  0  0  0  0  0  0  0  0  0  0
   37.0450   33.6630   39.9200 N   0  0  0  0  0  0  0  0  0  0  0  0
   39.4110   31.6380   40.9310 H   0  0  0  0  0  0  0  0  0  0  0  0
   36.3270   33.7780   40.6710 H   0  0  0  0  0  0  0  0  0  0  0  0
   36.4920   34.5480   39.9020 H   0  0  0  0  0  0  0  0  0  0  0  0
  1  6  1  0  0  0  0
  2  1  2  0  0  0  0
  2  3  1  0  0  0  0
  3  4  2  0  0  0  0
  4  8  1  0  0  0  0
  4  5  1  0  0  0  0
  5  9  1  0  0  0  0
  6 10  1  0  0  0  0
  6  5  2  0  0  0  0
  7  2  1  0  0  0  0
 11 12  2  0  0  0  0
 11 16  1  0  0  0  0
 12 13  1  0  0  0  0
 13 19  1  0  0  0  0
 13 14  2  0  0  0  0
 15 14  1  0  0  0  0
 15  1  1  0  0  0  0
 16 15  2  0  0  0  0
 17 11  1  0  0  0  0
 18 12  1  0  0  0  0
 20  3  1  0  0  0  0
 21 22  1  0  0  0  0
 21 30  1  0  0  0  0
 22 20  1  0  0  0  0
 23 24  1  0  0  0  0
 23 22  2  0  0  0  0
 25 23  1  0  0  0  0
 26 25  1  0  0  0  0
 27 25  2  0  0  0  0
 27 28  1  0  0  0  0
 28 21  2  0  0  0  0
 29 32  1  0  0  0  0
 30 29  2  0  0  0  0
 31 30  1  0  0  0  0
 31 33  1  0  0  0  0
 34 31  1  0  0  0  0
M  END
>  <minimizedAffinity>
-6.09744835

$$$$

 OpenBabel03242516233D

 34 36  0  0  0  0  0  0  0  0999 V2000
   38.1930   24.7770   41.8920 C   0  0  0  0  0  0  0  0  0  0  0  0
   37.7060   26.0350   42.1560 C   0  0  0  0  0  0  0  0  0  0  0  0
   38.3490   26.8830   43.0330 C   0  0  0  0  0  0  0  0  0  0  0  0
   39.5110   26.4920   43.6790 C   0  0  0  0  0  0  0  0  0  0  0  0
   40.0100   25.2380   43.4260 C   0  0  0  0  0  0  0  0  0  0  0  0
   39.3500   24.4060   42.5440 C   0  0  0  0  0  0  0  0  0  0  0  0
   36.7940   26.3360   41.6460 H   0  0  0  0  0  0  0  0  0  0  0  0
   40.0240   27.1560   44.3730 H   0  0  0  0  0  0  0  0  0  0  0  0
   40.9200   24.8800   43.9060 H   0  0  0  0  0  0  0  0  0  0  0  0
   39.7350   23.4130   42.3360 H   0  0  0  0  0  0  0  0  0  0  0  0
   35.6330   23.4820   39.6220 C   0  0  0  0  0  0  0  0  0  0  0  0
   36.1530   22.2530   39.1990 C   0  0  0  0  0  0  0  0  0  0  0  0
   37.4060   21.8650   39.7040 C   0  0  0  0  0  0  0  0  0  0  0  0
   38.0650   22.6870   40.5770 N   0  0  0  0  0  0  0  0  0  0  0  0
   37.5060   23.8800   40.9580 C   0  0  0  0  0  0  0  0  0  0  0  0
   36.2960   24.2780   40.4840 N   0  0  0  0  0  0  0  0  0  0  0  0
   34.6660   23.7350   39.2060 H   0  0  0  0  0  0  0  0  0  0  0  0
   35.6210   21.6040   38.5020 H   0  0  0  0  0  0  0  0  0  0  0  0
   37.8420   20.9210   39.3990 H   0  0  0  0  0  0  0  0  0  0  0  0
   37.6550   28.5070   43.3270 S   0  0  0  0  0  0  0  0  0  0  0  0
   37.9530   30.3340   41.4240 C   0  0  0  0  0  0  0  0  0  0  0  0
   38.5900   29.7720   42.4970 C   0  0  0  0  0  0  0  0  0  0  0  0
   39.8410   30.2280   42.8090 C   0  0  0  0  0  0  0  0  0  0  0  0
   40.2990   29.7370   43.6790 H   0  0  0  0  0  0  0  0  0  0  0  0
   40.4590   31.2190   42.0820 C   0  0  0  0  0  0  0  0  0  0  0  0
   41.4610   31.5370   42.3860 H   0  0  0  0  0  0  0  0  0  0  0  0
   39.8250   31.7920   40.9980 C   0  0  0  0  0  3  0  0  0  0  0  0
   38.5520   31.3350   40.6720 C   0  0  0  0  0  3  0  0  0  0  0  0
   36.1630   28.9540   40.2840 N   0  0  0  0  0  0  0  0  0  0  0  0
   36.6120   29.9600   40.9580 C   0  0  0  0  0  0  0  0  0  0  0  0
   35.6280   30.9130   41.3400 N   0  0  0  0  0  0  0  0  0  0  0  0
   36.7490   28.1750   39.9340 H   0  0  0  0  0  0  0  0  0  0  0  0
   35.3330   31.5960   40.6060 H   0  0  0  0  0  0  0  0  0  0  0  0
   34.9080   31.6130   41.6210 H   0  0  0  0  0  0  0  0  0  0  0  0
  1  2  2  0  0  0  0
  1  6  1  0  0  0  0
  2  3  1  0  0  0  0
  3 20  1  0  0  0  0
  3  4  2  0  0  0  0
  4  8  1  0  0  0  0
  5  4  1  0  0  0  0
  5  9  1  0  0  0  0
  6  5  2  0  0  0  0
  7  2  1  0  0  0  0
 10  6  1  0  0  0  0
 11 16  1  0  0  0  0
 12 11  2  0  0  0  0
 12 13  1  0  0  0  0
 13 14  2  0  0  0  0
 14 15  1  0  0  0  0
 15  1  1  0  0  0  0
 16 15  2  0  0  0  0
 17 11  1  0  0  0  0
 18 12  1  0  0  0  0
 19 13  1  0  0  0  0
 21 22  1  0  0  0  0
 22 23  2  0  0  0  0
 22 20  1  0  0  0  0
 23 24  1  0  0  0  0
 25 26  1  0  0  0  0
 25 23  1  0  0  0  0
 27 25  2  0  0  0  0
 28 27  1  0  0  0  0
 28 21  2  0  0  0  0
 29 30  2  0  0  0  0
 30 31  1  0  0  0  0
 30 21  1  0  0  0  0
 31 34  1  0  0  0  0
 32 29  1  0  0  0  0
 33 31  1  0  0  0  0
M  END
>  <minimizedAffinity>
-5.96541882

$$$$

 OpenBabel03242516233D

 34 36  0  0  0  0  0  0  0  0999 V2000
   38.2210   30.9270   41.2150 C   0  0  0  0  0  0  0  0  0  0  0  0
   39.3990   31.6220   41.0680 C   0  0  0  0  0  0  0  0  0  0  0  0
   39.4510   32.8020   40.3570 C   0  0  0  0  0  0  0  0  0  0  0  0
   38.3140   33.3270   39.7640 C   0  0  0  0  0  0  0  0  0  0  0  0
   37.1300   32.6450   39.9010 C   0  0  0  0  0  0  0  0  0  0  0  0
   37.1000   31.4660   40.6180 C   0  0  0  0  0  0  0  0  0  0  0  0
   40.2870   31.2040   41.5360 H   0  0  0  0  0  0  0  0  0  0  0  0
   38.3480   34.2590   39.2010 H   0  0  0  0  0  0  0  0  0  0  0  0
   36.2060   33.0130   39.4560 H   0  0  0  0  0  0  0  0  0  0  0  0
   36.1710   30.9180   40.7330 H   0  0  0  0  0  0  0  0  0  0  0  0
   36.8770   27.9020   42.7710 C   0  0  0  0  0  0  0  0  0  0  0  0
   37.9920   27.3150   43.3790 C   0  0  0  0  0  0  0  0  0  0  0  0
   39.2280   27.9730   43.2510 C   0  0  0  0  0  0  0  0  0  0  0  0
   39.2980   29.1450   42.5470 N   0  0  0  0  0  0  0  0  0  0  0  0
   38.1710   29.6740   41.9730 C   0  0  0  0  0  0  0  0  0  0  0  0
   36.9640   29.0580   42.0820 N   0  0  0  0  0  0  0  0  0  0  0  0
   35.9490   27.3580   42.8990 H   0  0  0  0  0  0  0  0  0  0  0  0
   37.9280   26.3810   43.9390 H   0  0  0  0  0  0  0  0  0  0  0  0
   40.1150   27.5510   43.7070 H   0  0  0  0  0  0  0  0  0  0  0  0
   41.0210   33.6500   40.2100 S   0  0  0  0  0  0  0  0  0  0  0  0
   42.4960   32.2730   38.4850 C   0  0  0  0  0  0  0  0  0  0  0  0
   42.3360   32.5180   39.8230 C   0  0  0  0  0  0  0  0  0  0  0  0
   43.1800   31.8850   40.6940 C   0  0  0  0  0  0  0  0  0  0  0  0
   43.0010   32.1230   41.7520 H   0  0  0  0  0  0  0  0  0  0  0  0
   44.1640   31.0260   40.2630 C   0  0  0  0  0  0  0  0  0  0  0  0
   44.8050   30.5530   41.0130 H   0  0  0  0  0  0  0  0  0  0  0  0
   44.3330   30.7730   38.9160 C   0  0  0  0  0  3  0  0  0  0  0  0
   43.4800   31.4110   38.0220 C   0  0  0  0  0  3  0  0  0  0  0  0
   40.5370   32.5510   36.9060 N   0  0  0  0  0  0  0  0  0  0  0  0
   41.6770   32.8700   37.4230 C   0  0  0  0  0  0  0  0  0  0  0  0
   42.2830   34.0300   36.8680 N   0  0  0  0  0  0  0  0  0  0  0  0
   39.9690   31.7370   37.1990 H   0  0  0  0  0  0  0  0  0  0  0  0
   42.7830   33.9050   35.9590 H   0  0  0  0  0  0  0  0  0  0  0  0
   42.7290   34.8820   36.4630 H   0  0  0  0  0  0  0  0  0  0  0  0
  1 15  1  0  0  0  0
  2  1  1  0  0  0  0
  2  7  1  0  0  0  0
  3  2  2  0  0  0  0
  4  5  2  0  0  0  0
  4  3  1  0  0  0  0
  5  6  1  0  0  0  0
  6 10  1  0  0  0  0
  6  1  2  0  0  0  0
  8  4  1  0  0  0  0
  9  5  1  0  0  0  0
 11 17  1  0  0  0  0
 11 12  1  0  0  0  0
 12 18  1  0  0  0  0
 13 12  2  0  0  0  0
 13 19  1  0  0  0  0
 14 13  1  0  0  0  0
 15 16  1  0  0  0  0
 15 14  2  0  0  0  0
 16 11  2  0  0  0  0
 20  3  1  0  0  0  0
 21 22  1  0  0  0  0
 22 20  1  0  0  0  0
 22 23  2  0  0  0  0
 23 24  1  0  0  0  0
 25 23  1  0  0  0  0
 25 26  1  0  0  0  0
 27 25  2  0  0  0  0
 28 21  2  0  0  0  0
 28 27  1  0  0  0  0
 29 32  1  0  0  0  0
 29 30  2  0  0  0  0
 30 21  1  0  0  0  0
 31 30  1  0  0  0  0
 33 31  1  0  0  0  0
 34 31  1  0  0  0  0
M  END
>  <minimizedAffinity>
-5.87524986

$$$$

 OpenBabel03242516233D

 34 36  0  0  0  0  0  0  0  0999 V2000
   35.9010   29.1760   37.9900 C   0  0  0  0  0  0  0  0  0  0  0  0
   34.5580   28.9840   37.7660 C   0  0  0  0  0  0  0  0  0  0  0  0
   34.0390   28.9690   36.4890 C   0  0  0  0  0  0  0  0  0  0  0  0
   34.8580   29.1480   35.3850 C   0  0  0  0  0  0  0  0  0  0  0  0
   36.2020   29.3410   35.5930 C   0  0  0  0  0  0  0  0  0  0  0  0
   36.7000   29.3520   36.8800 C   0  0  0  0  0  0  0  0  0  0  0  0
   33.9210   28.8440   38.6370 H   0  0  0  0  0  0  0  0  0  0  0  0
   34.4550   29.1370   34.3740 H   0  0  0  0  0  0  0  0  0  0  0  0
   36.8900   29.4870   34.7610 H   0  0  0  0  0  0  0  0  0  0  0  0
   37.7600   29.5040   37.0560 H   0  0  0  0  0  0  0  0  0  0  0  0
   36.2530   28.4680   41.5620 C   0  0  0  0  0  0  0  0  0  0  0  0
   37.4100   29.1650   41.9280 C   0  0  0  0  0  0  0  0  0  0  0  0
   38.0800   29.8910   40.9280 C   0  0  0  0  0  0  0  0  0  0  0  0
   37.5870   29.8920   39.6510 N   0  0  0  0  0  0  0  0  0  0  0  0
   36.4480   29.1910   39.3500 C   0  0  0  0  0  0  0  0  0  0  0  0
   35.7810   28.4810   40.2990 N   0  0  0  0  0  0  0  0  0  0  0  0
   35.7730   27.9260   42.3670 H   0  0  0  0  0  0  0  0  0  0  0  0
   37.7960   29.1600   42.9480 H   0  0  0  0  0  0  0  0  0  0  0  0
   38.9790   30.4430   41.1720 H   0  0  0  0  0  0  0  0  0  0  0  0
   32.2800   28.7130   36.2760 S   0  0  0  0  0  0  0  0  0  0  0  0
   30.6360   30.6470   37.0530 C   0  0  0  0  0  0  0  0  0  0  0  0
   31.4280   30.2510   36.0090 C   0  0  0  0  0  0  0  0  0  0  0  0
   31.4800   31.0550   34.9040 C   0  0  0  0  0  0  0  0  0  0  0  0
   32.1320   30.6830   34.1020 H   0  0  0  0  0  0  0  0  0  0  0  0
   30.7680   32.2290   34.8210 C   0  0  0  0  0  0  0  0  0  0  0  0
   30.8540   32.8250   33.9080 H   0  0  0  0  0  0  0  0  0  0  0  0
   29.9650   32.6370   35.8680 C   0  0  0  0  0  3  0  0  0  0  0  0
   29.9060   31.8260   36.9960 C   0  0  0  0  0  3  0  0  0  0  0  0
   31.1720   29.8290   39.3870 N   0  0  0  0  0  0  0  0  0  0  0  0
   30.4700   29.9010   38.3060 C   0  0  0  0  0  0  0  0  0  0  0  0
   29.2920   29.1050   38.3020 N   0  0  0  0  0  0  0  0  0  0  0  0
   32.0550   30.3480   39.5470 H   0  0  0  0  0  0  0  0  0  0  0  0
   29.4180   28.0880   38.0980 H   0  0  0  0  0  0  0  0  0  0  0  0
   28.4270   28.5220   38.2980 H   0  0  0  0  0  0  0  0  0  0  0  0
  1 15  1  0  0  0  0
  2  1  1  0  0  0  0
  2  7  1  0  0  0  0
  3  2  2  0  0  0  0
  4  5  2  0  0  0  0
  4  3  1  0  0  0  0
  5  6  1  0  0  0  0
  6 10  1  0  0  0  0
  6  1  2  0  0  0  0
  8  4  1  0  0  0  0
  9  5  1  0  0  0  0
 11 12  1  0  0  0  0
 11 17  1  0  0  0  0
 12 18  1  0  0  0  0
 13 19  1  0  0  0  0
 13 12  2  0  0  0  0
 14 13  1  0  0  0  0
 15 14  2  0  0  0  0
 15 16  1  0  0  0  0
 16 11  2  0  0  0  0
 20  3  1  0  0  0  0
 21 30  1  0  0  0  0
 22 20  1  0  0  0  0
 22 21  2  0  0  0  0
 23 22  1  0  0  0  0
 24 23  1  0  0  0  0
 25 23  2  0  0  0  0
 25 27  1  0  0  0  0
 26 25  1  0  0  0  0
 27 28  2  0  0  0  0
 28 21  1  0  0  0  0
 29 32  1  0  0  0  0
 30 29  2  0  0  0  0
 31 30  1  0  0  0  0
 33 31  1  0  0  0  0
 34 31  1  0  0  0  0
M  END
>  <minimizedAffinity>
-5.73319244

$$$$

 OpenBabel03242516233D

 34 36  0  0  0  0  0  0  0  0999 V2000
   37.0400   27.6870   41.2630 C   0  0  0  0  0  0  0  0  0  0  0  0
   37.9100   28.7500   41.2160 C   0  0  0  0  0  0  0  0  0  0  0  0
   38.3820   29.3430   42.3680 C   0  0  0  0  0  0  0  0  0  0  0  0
   37.9920   28.8830   43.6160 C   0  0  0  0  0  0  0  0  0  0  0  0
   37.1240   27.8220   43.6800 C   0  0  0  0  0  0  0  0  0  0  0  0
   36.6640   27.2430   42.5140 C   0  0  0  0  0  0  0  0  0  0  0  0
   38.2120   29.1060   40.2330 H   0  0  0  0  0  0  0  0  0  0  0  0
   38.3600   29.3470   44.5300 H   0  0  0  0  0  0  0  0  0  0  0  0
   36.7850   27.4200   44.6350 H   0  0  0  0  0  0  0  0  0  0  0  0
   35.9780   26.4030   42.5520 H   0  0  0  0  0  0  0  0  0  0  0  0
   35.4300   27.3190   37.9990 C   0  0  0  0  0  0  0  0  0  0  0  0
   35.5800   25.9600   37.7030 C   0  0  0  0  0  0  0  0  0  0  0  0
   36.2480   25.1570   38.6440 C   0  0  0  0  0  0  0  0  0  0  0  0
   36.7210   25.7210   39.7980 N   0  0  0  0  0  0  0  0  0  0  0  0
   36.5430   27.0600   40.0350 C   0  0  0  0  0  0  0  0  0  0  0  0
   35.9010   27.8580   39.1420 N   0  0  0  0  0  0  0  0  0  0  0  0
   34.9090   27.8950   37.2440 H   0  0  0  0  0  0  0  0  0  0  0  0
   35.2010   25.5170   36.7810 H   0  0  0  0  0  0  0  0  0  0  0  0
   36.3850   24.0990   38.4510 H   0  0  0  0  0  0  0  0  0  0  0  0
   39.5120   30.7240   42.2260 S   0  0  0  0  0  0  0  0  0  0  0  0
   39.3260   31.9690   39.8890 C   0  0  0  0  0  0  0  0  0  0  0  0
   40.0150   30.9810   40.5400 C   0  0  0  0  0  0  0  0  0  0  0  0
   40.9870   30.3150   39.8460 C   0  0  0  0  0  0  0  0  0  0  0  0
   41.5030   29.5350   40.4230 H   0  0  0  0  0  0  0  0  0  0  0  0
   41.2820   30.6110   38.5360 C   0  0  0  0  0  0  0  0  0  0  0  0
   42.0720   30.0400   38.0390 H   0  0  0  0  0  0  0  0  0  0  0  0
   40.5930   31.6060   37.8700 C   0  0  0  0  0  3  0  0  0  0  0  0
   39.6010   32.2890   38.5660 C   0  0  0  0  0  3  0  0  0  0  0  0
   36.9700   32.6550   40.5110 N   0  0  0  0  0  0  0  0  0  0  0  0
   38.2560   32.7760   40.4880 C   0  0  0  0  0  0  0  0  0  0  0  0
   38.7640   33.9120   41.1750 N   0  0  0  0  0  0  0  0  0  0  0  0
   36.4470   31.8840   40.0610 H   0  0  0  0  0  0  0  0  0  0  0  0
   38.7160   34.8230   40.6660 H   0  0  0  0  0  0  0  0  0  0  0  0
   39.1390   34.7450   41.6790 H   0  0  0  0  0  0  0  0  0  0  0  0
  1  6  1  0  0  0  0
  2  1  2  0  0  0  0
  2  3  1  0  0  0  0
  3  4  2  0  0  0  0
  4  5  1  0  0  0  0
  4  8  1  0  0  0  0
  5  9  1  0  0  0  0
  6 10  1  0  0  0  0
  6  5  2  0  0  0  0
  7  2  1  0  0  0  0
 11 16  1  0  0  0  0
 12 11  2  0  0  0  0
 12 13  1  0  0  0  0
 13 14  2  0  0  0  0
 14 15  1  0  0  0  0
 15  1  1  0  0  0  0
 16 15  2  0  0  0  0
 17 11  1  0  0  0  0
 18 12  1  0  0  0  0
 19 13  1  0  0  0  0
 20  3  1  0  0  0  0
 21 30  1  0  0  0  0
 21 22  1  0  0  0  0
 22 20  1  0  0  0  0
 23 24  1  0  0  0  0
 23 22  2  0  0  0  0
 25 23  1  0  0  0  0
 26 25  1  0  0  0  0
 27 25  2  0  0  0  0
 27 28  1  0  0  0  0
 28 21  2  0  0  0  0
 30 29  2  0  0  0  0
 30 31  1  0  0  0  0
 31 34  1  0  0  0  0
 32 29  1  0  0  0  0
 33 31  1  0  0  0  0
M  END
>  <minimizedAffinity>
-5.64500666

$$$$

 OpenBabel03242516233D

 34 36  0  0  0  0  0  0  0  0999 V2000
   37.4740   30.7530   40.8160 C   0  0  0  0  0  0  0  0  0  0  0  0
   37.7160   29.7650   41.7410 C   0  0  0  0  0  0  0  0  0  0  0  0
   36.8600   28.6940   41.8860 C   0  0  0  0  0  0  0  0  0  0  0  0
   35.7230   28.5790   41.1020 C   0  0  0  0  0  0  0  0  0  0  0  0
   35.4680   29.5580   40.1740 C   0  0  0  0  0  0  0  0  0  0  0  0
   36.3380   30.6220   40.0440 C   0  0  0  0  0  0  0  0  0  0  0  0
   38.6100   29.8610   42.3530 H   0  0  0  0  0  0  0  0  0  0  0  0
   35.0430   27.7360   41.2110 H   0  0  0  0  0  0  0  0  0  0  0  0
   34.5880   29.5180   39.5310 H   0  0  0  0  0  0  0  0  0  0  0  0
   36.1470   31.4010   39.3150 H   0  0  0  0  0  0  0  0  0  0  0  0
   38.6500   34.1610   40.1940 C   0  0  0  0  0  0  0  0  0  0  0  0
   40.0370   34.0720   40.3640 C   0  0  0  0  0  0  0  0  0  0  0  0
   40.5740   32.8170   40.6990 C   0  0  0  0  0  0  0  0  0  0  0  0
   39.7390   31.7430   40.8440 N   0  0  0  0  0  0  0  0  0  0  0  0
   38.3880   31.8890   40.6650 C   0  0  0  0  0  0  0  0  0  0  0  0
   37.8430   33.0910   40.3410 N   0  0  0  0  0  0  0  0  0  0  0  0
   38.2850   35.1470   39.9360 H   0  0  0  0  0  0  0  0  0  0  0  0
   40.6960   34.9330   40.2460 H   0  0  0  0  0  0  0  0  0  0  0  0
   41.6430   32.7070   40.8390 H   0  0  0  0  0  0  0  0  0  0  0  0
   37.2420   27.4460   43.1120 S   0  0  0  0  0  0  0  0  0  0  0  0
   39.1110   25.7800   42.2290 C   0  0  0  0  0  0  0  0  0  0  0  0
   38.9320   26.9080   42.9850 C   0  0  0  0  0  0  0  0  0  0  0  0
   40.0380   27.4840   43.5460 C   0  0  0  0  0  0  0  0  0  0  0  0
   39.8290   28.3850   44.1400 H   0  0  0  0  0  0  0  0  0  0  0  0
   41.3000   26.9660   43.3700 C   0  0  0  0  0  0  0  0  0  0  0  0
   42.1420   27.4760   43.8460 H   0  0  0  0  0  0  0  0  0  0  0  0
   41.4910   25.8290   42.6090 C   0  0  0  0  0  3  0  0  0  0  0  0
   40.3720   25.2350   42.0350 C   0  0  0  0  0  3  0  0  0  0  0  0
   37.3390   25.2700   40.4950 N   0  0  0  0  0  0  0  0  0  0  0  0
   38.0320   25.0430   41.5600 C   0  0  0  0  0  0  0  0  0  0  0  0
   37.7020   23.8410   42.2450 N   0  0  0  0  0  0  0  0  0  0  0  0
   37.4570   26.1000   39.8860 H   0  0  0  0  0  0  0  0  0  0  0  0
   36.8560   23.8700   42.8570 H   0  0  0  0  0  0  0  0  0  0  0  0
   37.4630   22.9590   42.7470 H   0  0  0  0  0  0  0  0  0  0  0  0
  1  2  1  0  0  0  0
  2  3  2  0  0  0  0
  2  7  1  0  0  0  0
  3 20  1  0  0  0  0
  4  8  1  0  0  0  0
  4  3  1  0  0  0  0
  5  4  2  0  0  0  0
  6  5  1  0  0  0  0
  6  1  2  0  0  0  0
  9  5  1  0  0  0  0
 10  6  1  0  0  0  0
 11 16  2  0  0  0  0
 11 12  1  0  0  0  0
 12 13  2  0  0  0  0
 13 19  1  0  0  0  0
 13 14  1  0  0  0  0
 15  1  1  0  0  0  0
 15 14  2  0  0  0  0
 16 15  1  0  0  0  0
 17 11  1  0  0  0  0
 18 12  1  0  0  0  0
 21 22  1  0  0  0  0
 22 20  1  0  0  0  0
 22 23  2  0  0  0  0
 23 24  1  0  0  0  0
 25 23  1  0  0  0  0
 25 26  1  0  0  0  0
 27 25  2  0  0  0  0
 28 21  2  0  0  0  0
 28 27  1  0  0  0  0
 29 30  2  0  0  0  0
 30 21  1  0  0  0  0
 30 31  1  0  0  0  0
 31 34  1  0  0  0  0
 31 33  1  0  0  0  0
 32 29  1  0  0  0  0
M  END
>  <minimizedAffinity>
-5.54799938

$$$$

 OpenBabel03242516233D

 34 36  0  0  0  0  0  0  0  0999 V2000
   37.5310   28.4430   41.5940 C   0  0  0  0  0  0  0  0  0  0  0  0
   37.9620   29.6700   41.1480 C   0  0  0  0  0  0  0  0  0  0  0  0
   37.1150   30.5280   40.4800 C   0  0  0  0  0  0  0  0  0  0  0  0
   35.7960   30.1800   40.2360 C   0  0  0  0  0  0  0  0  0  0  0  0
   35.3500   28.9570   40.6750 C   0  0  0  0  0  0  0  0  0  0  0  0
   36.2160   28.1140   41.3420 C   0  0  0  0  0  0  0  0  0  0  0  0
   38.9980   29.9370   41.3430 H   0  0  0  0  0  0  0  0  0  0  0  0
   35.1210   30.8520   39.7090 H   0  0  0  0  0  0  0  0  0  0  0  0
   34.3230   28.6330   40.5100 H   0  0  0  0  0  0  0  0  0  0  0  0
   35.8750   27.1450   41.6930 H   0  0  0  0  0  0  0  0  0  0  0  0
   38.9890   25.3350   42.8580 C   0  0  0  0  0  0  0  0  0  0  0  0
   40.0900   25.7630   43.6080 C   0  0  0  0  0  0  0  0  0  0  0  0
   40.3340   27.1460   43.6790 C   0  0  0  0  0  0  0  0  0  0  0  0
   39.5010   28.0120   43.0240 N   0  0  0  0  0  0  0  0  0  0  0  0
   38.4360   27.5340   42.3040 C   0  0  0  0  0  0  0  0  0  0  0  0
   38.1780   26.2030   42.2200 N   0  0  0  0  0  0  0  0  0  0  0  0
   38.8430   24.2620   42.8350 H   0  0  0  0  0  0  0  0  0  0  0  0
   40.7490   25.0660   44.1280 H   0  0  0  0  0  0  0  0  0  0  0  0
   41.1770   27.5170   44.2500 H   0  0  0  0  0  0  0  0  0  0  0  0
   37.7480   32.1100   39.9300 S   0  0  0  0  0  0  0  0  0  0  0  0
   40.1560   31.7320   38.8770 C   0  0  0  0  0  0  0  0  0  0  0  0
   39.5230   32.1620   40.0130 C   0  0  0  0  0  0  0  0  0  0  0  0
   40.3010   32.5730   41.0610 C   0  0  0  0  0  0  0  0  0  0  0  0
   39.7350   32.9050   41.9420 H   0  0  0  0  0  0  0  0  0  0  0  0
   41.6750   32.5640   40.9980 C   0  0  0  0  0  0  0  0  0  0  0  0
   42.2360   32.9070   41.8720 H   0  0  0  0  0  0  0  0  0  0  0  0
   42.3220   32.1330   39.8570 C   0  0  0  0  0  3  0  0  0  0  0  0
   41.5410   31.7130   38.7860 C   0  0  0  0  0  3  0  0  0  0  0  0
   38.9910   30.1130   37.3180 N   0  0  0  0  0  0  0  0  0  0  0  0
   39.4700   31.2600   37.6670 C   0  0  0  0  0  0  0  0  0  0  0  0
   39.3170   32.2930   36.7030 N   0  0  0  0  0  0  0  0  0  0  0  0
   39.0230   29.2620   37.9080 H   0  0  0  0  0  0  0  0  0  0  0  0
   40.0020   32.2990   35.9140 H   0  0  0  0  0  0  0  0  0  0  0  0
   39.2040   33.0520   35.9960 H   0  0  0  0  0  0  0  0  0  0  0  0
  1 15  1  0  0  0  0
  2  7  1  0  0  0  0
  2  1  2  0  0  0  0
  3  2  1  0  0  0  0
  4  3  2  0  0  0  0
  4  5  1  0  0  0  0
  5  6  2  0  0  0  0
  6  1  1  0  0  0  0
  6 10  1  0  0  0  0
  8  4  1  0  0  0  0
  9  5  1  0  0  0  0
 11 12  1  0  0  0  0
 12 13  2  0  0  0  0
 12 18  1  0  0  0  0
 13 19  1  0  0  0  0
 14 13  1  0  0  0  0
 15 14  2  0  0  0  0
 16 15  1  0  0  0  0
 16 11  2  0  0  0  0
 17 11  1  0  0  0  0
 20 22  1  0  0  0  0
 20  3  1  0  0  0  0
 21 22  1  0  0  0  0
 22 23  2  0  0  0  0
 23 24  1  0  0  0  0
 25 23  1  0  0  0  0
 25 26  1  0  0  0  0
 27 25  2  0  0  0  0
 28 21  2  0  0  0  0
 28 27  1  0  0  0  0
 29 30  2  0  0  0  0
 29 32  1  0  0  0  0
 30 21  1  0  0  0  0
 31 30  1  0  0  0  0
 33 31  1  0  0  0  0
 34 31  1  0  0  0  0
M  END
>  <minimizedAffinity>
-5.53033257

$$$$

 OpenBabel03242516233D

 34 36  0  0  0  0  0  0  0  0999 V2000
   37.9550   30.7450   38.9940 C   0  0  0  0  0  0  0  0  0  0  0  0
   37.8770   29.5880   39.7320 C   0  0  0  0  0  0  0  0  0  0  0  0
   37.1240   28.5150   39.3040 C   0  0  0  0  0  0  0  0  0  0  0  0
   36.4200   28.5690   38.1120 C   0  0  0  0  0  0  0  0  0  0  0  0
   36.4880   29.7190   37.3640 C   0  0  0  0  0  0  0  0  0  0  0  0
   37.2480   30.7810   37.8110 C   0  0  0  0  0  0  0  0  0  0  0  0
   38.4320   29.5520   40.6670 H   0  0  0  0  0  0  0  0  0  0  0  0
   35.8230   27.7260   37.7680 H   0  0  0  0  0  0  0  0  0  0  0  0
   35.9550   29.8150   36.4190 H   0  0  0  0  0  0  0  0  0  0  0  0
   37.3100   31.6940   37.2280 H   0  0  0  0  0  0  0  0  0  0  0  0
   38.8000   33.9860   40.4670 C   0  0  0  0  0  0  0  0  0  0  0  0
   40.1930   34.0560   40.3440 C   0  0  0  0  0  0  0  0  0  0  0  0
   40.8510   32.9680   39.7440 C   0  0  0  0  0  0  0  0  0  0  0  0
   40.1210   31.8960   39.3070 N   0  0  0  0  0  0  0  0  0  0  0  0
   38.7580   31.8830   39.4540 C   0  0  0  0  0  0  0  0  0  0  0  0
   38.0980   32.9210   40.0300 N   0  0  0  0  0  0  0  0  0  0  0  0
   38.3400   34.8470   40.9350 H   0  0  0  0  0  0  0  0  0  0  0  0
   40.7670   34.9150   40.6940 H   0  0  0  0  0  0  0  0  0  0  0  0
   41.9290   32.9850   39.6300 H   0  0  0  0  0  0  0  0  0  0  0  0
   37.0700   27.0410   40.3190 S   0  0  0  0  0  0  0  0  0  0  0  0
   38.3680   27.3640   42.6120 C   0  0  0  0  0  0  0  0  0  0  0  0
   38.5230   26.8990   41.3340 C   0  0  0  0  0  0  0  0  0  0  0  0
   39.7430   26.3890   40.9840 C   0  0  0  0  0  0  0  0  0  0  0  0
   39.8040   26.0320   39.9460 H   0  0  0  0  0  0  0  0  0  0  0  0
   40.7940   26.3350   41.8690 C   0  0  0  0  0  0  0  0  0  0  0  0
   41.7430   25.9150   41.5240 H   0  0  0  0  0  0  0  0  0  0  0  0
   40.6480   26.8020   43.1600 C   0  0  0  0  0  3  0  0  0  0  0  0
   39.4110   27.3230   43.5270 C   0  0  0  0  0  3  0  0  0  0  0  0
   36.0630   27.4180   43.6580 N   0  0  0  0  0  0  0  0  0  0  0  0
   37.1270   27.9400   43.1460 C   0  0  0  0  0  0  0  0  0  0  0  0
   37.1230   29.3600   43.0730 N   0  0  0  0  0  0  0  0  0  0  0  0
   35.9120   26.4010   43.7820 H   0  0  0  0  0  0  0  0  0  0  0  0
   36.5900   29.7840   42.2800 H   0  0  0  0  0  0  0  0  0  0  0  0
   37.1220   30.4020   43.0200 H   0  0  0  0  0  0  0  0  0  0  0  0
  1 15  1  0  0  0  0
  1  2  1  0  0  0  0
  2  7  1  0  0  0  0
  3  2  2  0  0  0  0
  3 20  1  0  0  0  0
  4  3  1  0  0  0  0
  5  6  1  0  0  0  0
  5  4  2  0  0  0  0
  6  1  2  0  0  0  0
  8  4  1  0  0  0  0
  9  5  1  0  0  0  0
 10  6  1  0  0  0  0
 11 17  1  0  0  0  0
 12 11  1  0  0  0  0
 12 18  1  0  0  0  0
 13 12  2  0  0  0  0
 14 15  2  0  0  0  0
 14 13  1  0  0  0  0
 15 16  1  0  0  0  0
 16 11  2  0  0  0  0
 19 13  1  0  0  0  0
 20 22  1  0  0  0  0
 21 30  1  0  0  0  0
 21 28  1  0  0  0  0
 22 21  2  0  0  0  0
 23 22  1  0  0  0  0
 23 25  2  0  0  0  0
 24 23  1  0  0  0  0
 25 27  1  0  0  0  0
 26 25  1  0  0  0  0
 27 28  2  0  0  0  0
 29 32  1  0  0  0  0
 30 29  2  0  0  0  0
 31 30  1  0  0  0  0
 33 31  1  0  0  0  0
 34 31  1  0  0  0  0
M  END
>  <minimizedAffinity>
-5.50044823

$$$$

 OpenBabel03242516233D

 34 36  0  0  0  0  0  0  0  0999 V2000
   39.7970   28.7100   42.1920 C   0  0  0  0  0  0  0  0  0  0  0  0
   38.8810   29.4440   41.4760 C   0  0  0  0  0  0  0  0  0  0  0  0
   39.0430   30.7980   41.2780 C   0  0  0  0  0  0  0  0  0  0  0  0
   40.1410   31.4670   41.7970 C   0  0  0  0  0  0  0  0  0  0  0  0
   41.0650   30.7480   42.5150 C   0  0  0  0  0  0  0  0  0  0  0  0
   40.8820   29.3930   42.7010 C   0  0  0  0  0  0  0  0  0  0  0  0
   38.0220   28.9120   41.0720 H   0  0  0  0  0  0  0  0  0  0  0  0
   40.2760   32.5370   41.6450 H   0  0  0  0  0  0  0  0  0  0  0  0
   41.9460   31.2240   42.9450 H   0  0  0  0  0  0  0  0  0  0  0  0
   41.6060   28.8150   43.2660 H   0  0  0  0  0  0  0  0  0  0  0  0
   38.2080   25.4160   42.2530 C   0  0  0  0  0  0  0  0  0  0  0  0
   39.2060   24.5730   42.7560 C   0  0  0  0  0  0  0  0  0  0  0  0
   40.4470   25.1500   43.0790 C   0  0  0  0  0  0  0  0  0  0  0  0
   40.6340   26.4930   42.8950 N   0  0  0  0  0  0  0  0  0  0  0  0
   39.6200   27.2700   42.3990 C   0  0  0  0  0  0  0  0  0  0  0  0
   38.4110   26.7370   42.0790 N   0  0  0  0  0  0  0  0  0  0  0  0
   37.2720   24.9250   42.0200 H   0  0  0  0  0  0  0  0  0  0  0  0
   39.0480   23.5030   42.9000 H   0  0  0  0  0  0  0  0  0  0  0  0
   41.2450   24.5300   43.4710 H   0  0  0  0  0  0  0  0  0  0  0  0
   37.8080   31.6860   40.3350 S   0  0  0  0  0  0  0  0  0  0  0  0
   36.8070   30.3210   38.2900 C   0  0  0  0  0  0  0  0  0  0  0  0
   36.6150   30.5760   39.6210 C   0  0  0  0  0  0  0  0  0  0  0  0
   35.5590   29.9690   40.2440 C   0  0  0  0  0  0  0  0  0  0  0  0
   35.4590   30.2140   41.3100 H   0  0  0  0  0  0  0  0  0  0  0  0
   34.7040   29.1260   39.5740 C   0  0  0  0  0  0  0  0  0  0  0  0
   33.8790   28.6730   40.1320 H   0  0  0  0  0  0  0  0  0  0  0  0
   34.8880   28.8610   38.2310 C   0  0  0  0  0  3  0  0  0  0  0  0
   35.9590   29.4740   37.5890 C   0  0  0  0  0  3  0  0  0  0  0  0
   38.0330   32.0210   36.8720 N   0  0  0  0  0  0  0  0  0  0  0  0
   37.8890   30.8900   37.4770 C   0  0  0  0  0  0  0  0  0  0  0  0
   38.9850   29.9950   37.3450 N   0  0  0  0  0  0  0  0  0  0  0  0
   37.3280   32.7800   36.8720 H   0  0  0  0  0  0  0  0  0  0  0  0
   39.0420   29.4560   36.4510 H   0  0  0  0  0  0  0  0  0  0  0  0
   39.7900   29.3380   37.2500 H   0  0  0  0  0  0  0  0  0  0  0  0
  1 15  1  0  0  0  0
  1  6  1  0  0  0  0
  2  1  2  0  0  0  0
  3  2  1  0  0  0  0
  3  4  2  0  0  0  0
  4  5  1  0  0  0  0
  5  6  2  0  0  0  0
  5  9  1  0  0  0  0
  6 10  1  0  0  0  0
  7  2  1  0  0  0  0
  8  4  1  0  0  0  0
 11 12  1  0  0  0  0
 12 18  1  0  0  0  0
 12 13  2  0  0  0  0
 13 19  1  0  0  0  0
 14 13  1  0  0  0  0
 15 14  2  0  0  0  0
 16 11  2  0  0  0  0
 16 15  1  0  0  0  0
 17 11  1  0  0  0  0
 20  3  1  0  0  0  0
 21 22  1  0  0  0  0
 22 23  2  0  0  0  0
 22 20  1  0  0  0  0
 23 24  1  0  0  0  0
 25 26  1  0  0  0  0
 25 23  1  0  0  0  0
 27 25  2  0  0  0  0
 28 27  1  0  0  0  0
 28 21  2  0  0  0  0
 29 32  1  0  0  0  0
 29 30  2  0  0  0  0
 30 21  1  0  0  0  0
 31 30  1  0  0  0  0
 33 31  1  0  0  0  0
 34 31  1  0  0  0  0
M  END
>  <minimizedAffinity>
-5.49267244

$$$$
