
 OpenBabel03242523343D

 42 45  0  0  0  0  0  0  0  0999 V2000
   44.4950   36.0780   44.6890 C   0  0  0  0  0  0  0  0  0  0  0  0
   45.2350   35.8920   43.5010 C   0  0  0  0  0  0  0  0  0  0  0  0
   46.0770   34.7800   43.3920 C   0  0  0  0  0  0  0  0  0  0  0  0
   46.1610   33.9050   44.4390 N   0  0  0  0  0  0  0  0  0  0  0  0
   45.4300   34.1270   45.5610 C   0  0  0  0  0  0  0  0  0  0  0  0
   44.6090   35.2010   45.6790 N   0  0  0  0  0  0  0  0  0  0  0  0
   43.8170   36.8930   44.8880 H   0  0  0  0  0  0  0  0  0  0  0  0
   45.0140   36.6960   42.8260 H   0  0  0  0  0  0  0  0  0  0  0  0
   46.3290   33.9400   41.1020 C   0  0  0  0  0  0  0  0  0  0  0  0
   46.7990   34.6980   42.1410 C   0  0  0  0  0  0  0  0  0  0  0  0
   47.9640   35.3450   41.8950 C   0  0  0  0  0  0  0  0  0  0  0  0
   48.4350   35.9750   42.6340 H   0  0  0  0  0  0  0  0  0  0  0  0
   48.6790   35.2970   40.7220 C   0  0  0  0  0  0  0  0  0  0  0  0
   49.6030   35.8280   40.5710 H   0  0  0  0  0  0  0  0  0  0  0  0
   48.1890   34.5200   39.6650 C   0  0  0  0  0  3  0  0  0  0  0  0
   47.0080   33.8520   39.8870 C   0  0  0  0  0  3  0  0  0  0  0  0
   43.9910   32.9910   40.5500 N   0  0  0  0  0  0  0  0  0  0  0  0
   45.1660   33.1010   41.0980 C   0  0  0  0  0  0  0  0  0  0  0  0
   45.1140   31.9090   41.8660 N   0  0  0  0  0  0  0  0  0  0  0  0
   43.6210   33.7020   39.8800 H   0  0  0  0  0  0  0  0  0  0  0  0
   44.9860   31.0360   42.4220 H   0  0  0  0  0  0  0  0  0  0  0  0
   45.9330   31.3650   42.2710 H   0  0  0  0  0  0  0  0  0  0  0  0
   45.5720   33.1150   46.6330 C   0  0  0  0  0  0  0  0  0  0  0  0
   44.5810   32.7440   46.9900 H   0  0  0  0  0  0  0  0  0  0  0  0
   46.0140   33.6350   47.5010 H   0  0  0  0  0  0  0  0  0  0  0  0
   46.5890   31.7710   46.0020 S   0  0  0  0  0  0  0  0  0  0  0  0
   47.6310   31.1170   47.2890 C   0  0  0  0  0  0  0  0  0  0  0  0
   47.9500   31.9500   48.3310 C   0  0  0  0  0  0  0  0  0  0  0  0
   48.7390   31.4510   49.3430 C   0  0  0  0  0  0  0  0  0  0  0  0
   49.2150   30.1430   49.3380 C   0  0  0  0  0  0  0  0  0  0  0  0
   49.9840   29.6950   50.3500 N   0  0  0  0  0  0  0  0  0  0  0  0
   50.4490   28.4230   50.3470 C   0  0  0  0  0  0  0  0  0  0  0  0
   50.1330   27.6000   49.3090 C   0  0  0  0  0  0  0  0  0  0  0  0
   49.3410   28.0590   48.2670 C   0  0  0  0  0  0  0  0  0  0  0  0
   48.8530   29.3710   48.2590 C   0  0  0  0  0  0  0  0  0  0  0  0
   48.0640   29.8170   47.2150 C   0  0  0  0  0  0  0  0  0  0  0  0
   47.6770   32.9730   48.4960 H   0  0  0  0  0  0  0  0  0  0  0  0
   49.0470   32.0450   50.2190 H   0  0  0  0  0  0  0  0  0  0  0  0
   51.0740   28.0340   51.1530 H   0  0  0  0  0  0  0  0  0  0  0  0
   50.4430   26.5720   49.1960 H   0  0  0  0  0  0  0  0  0  0  0  0
   49.0630   27.4460   47.4240 H   0  0  0  0  0  0  0  0  0  0  0  0
   47.8000   29.1810   46.3820 H   0  0  0  0  0  0  0  0  0  0  0  0
  1  7  1  0  0  0  0
  1  6  1  0  0  0  0
  2  1  2  0  0  0  0
  3  2  1  0  0  0  0
  3  4  2  0  0  0  0
  4  5  1  0  0  0  0
  5  6  2  0  0  0  0
  5 23  1  0  0  0  0
  8  2  1  0  0  0  0
  9 10  1  0  0  0  0
 10  3  1  0  0  0  0
 11 10  2  0  0  0  0
 11 12  1  0  0  0  0
 13 11  1  0  0  0  0
 14 13  1  0  0  0  0
 15 16  1  0  0  0  0
 15 13  2  0  0  0  0
 16  9  2  0  0  0  0
 17 18  2  0  0  0  0
 18  9  1  0  0  0  0
 18 19  1  0  0  0  0
 19 22  1  0  0  0  0
 19 21  1  0  0  0  0
 20 17  1  0  0  0  0
 23 24  1  0  0  0  0
 23 25  1  0  0  0  0
 26 23  1  0  0  0  0
 26 27  1  0  0  0  0
 27 28  1  0  0  0  0
 28 37  1  0  0  0  0
 28 29  2  0  0  0  0
 29 38  1  0  0  0  0
 30 29  1  0  0  0  0
 30 31  1  0  0  0  0
 32 31  2  0  0  0  0
 32 39  1  0  0  0  0
 33 32  1  0  0  0  0
 34 33  2  0  0  0  0
 35 34  1  0  0  0  0
 35 30  2  0  0  0  0
 36 27  2  0  0  0  0
 36 35  1  0  0  0  0
 40 33  1  0  0  0  0
 41 34  1  0  0  0  0
 42 36  1  0  0  0  0
M  END
>  <minimizedAffinity>
-6.79938602

>  <minimizedRMSD>
1.20334208

$$$$
