
 OpenBabel03242523343D

 42 45  0  0  0  0  0  0  0  0999 V2000
   44.7040   36.2050   44.1530 C   0  0  0  0  0  0  0  0  0  0  0  0
   45.2390   35.7820   42.9160 C   0  0  0  0  0  0  0  0  0  0  0  0
   45.8890   34.5460   42.8450 C   0  0  0  0  0  0  0  0  0  0  0  0
   45.9900   33.7820   43.9750 N   0  0  0  0  0  0  0  0  0  0  0  0
   45.4590   34.2310   45.1400 C   0  0  0  0  0  0  0  0  0  0  0  0
   44.8240   35.4290   45.2230 N   0  0  0  0  0  0  0  0  0  0  0  0
   44.1830   37.1330   44.3300 H   0  0  0  0  0  0  0  0  0  0  0  0
   45.0450   36.5370   42.1790 H   0  0  0  0  0  0  0  0  0  0  0  0
   47.7350   34.4180   41.2350 C   0  0  0  0  0  0  0  0  0  0  0  0
   46.4130   34.2220   41.5360 C   0  0  0  0  0  0  0  0  0  0  0  0
   45.6690   33.7100   40.5270 C   0  0  0  0  0  0  0  0  0  0  0  0
   44.6150   33.5090   40.6410 H   0  0  0  0  0  0  0  0  0  0  0  0
   46.1260   33.3860   39.2720 C   0  0  0  0  0  0  0  0  0  0  0  0
   45.4960   32.9800   38.4990 H   0  0  0  0  0  0  0  0  0  0  0  0
   47.4790   33.5890   38.9760 C   0  0  0  0  0  3  0  0  0  0  0  0
   48.2600   34.1080   39.9810 C   0  0  0  0  0  3  0  0  0  0  0  0
   49.4700   34.7460   43.1220 N   0  0  0  0  0  0  0  0  0  0  0  0
   48.7380   35.0040   42.0770 C   0  0  0  0  0  0  0  0  0  0  0  0
   49.2690   36.2930   41.8060 N   0  0  0  0  0  0  0  0  0  0  0  0
   49.3870   33.8480   43.6500 H   0  0  0  0  0  0  0  0  0  0  0  0
   49.6870   37.2410   41.6920 H   0  0  0  0  0  0  0  0  0  0  0  0
   49.2310   36.8250   40.8870 H   0  0  0  0  0  0  0  0  0  0  0  0
   45.5990   33.3270   46.3030 C   0  0  0  0  0  0  0  0  0  0  0  0
   44.6110   33.0690   46.7540 H   0  0  0  0  0  0  0  0  0  0  0  0
   46.1310   33.8980   47.0850 H   0  0  0  0  0  0  0  0  0  0  0  0
   46.4790   31.8530   45.7620 S   0  0  0  0  0  0  0  0  0  0  0  0
   47.5010   31.2150   47.0730 C   0  0  0  0  0  0  0  0  0  0  0  0
   47.7560   32.0430   48.1370 C   0  0  0  0  0  0  0  0  0  0  0  0
   48.5280   31.5570   49.1680 C   0  0  0  0  0  0  0  0  0  0  0  0
   49.0500   30.2660   49.1600 C   0  0  0  0  0  0  0  0  0  0  0  0
   49.8000   29.8300   50.1910 N   0  0  0  0  0  0  0  0  0  0  0  0
   50.3090   28.5750   50.1860 C   0  0  0  0  0  0  0  0  0  0  0  0
   50.0560   27.7570   49.1270 C   0  0  0  0  0  0  0  0  0  0  0  0
   49.2840   28.2040   48.0650 C   0  0  0  0  0  0  0  0  0  0  0  0
   48.7510   29.4980   48.0590 C   0  0  0  0  0  0  0  0  0  0  0  0
   47.9810   29.9320   46.9960 C   0  0  0  0  0  0  0  0  0  0  0  0
   47.4420   33.0540   48.3080 H   0  0  0  0  0  0  0  0  0  0  0  0
   48.7860   32.1470   50.0620 H   0  0  0  0  0  0  0  0  0  0  0  0
   50.9210   28.1950   51.0060 H   0  0  0  0  0  0  0  0  0  0  0  0
   50.4050   26.7410   49.0100 H   0  0  0  0  0  0  0  0  0  0  0  0
   49.0550   27.5940   47.2050 H   0  0  0  0  0  0  0  0  0  0  0  0
   47.7670   29.3000   46.1460 H   0  0  0  0  0  0  0  0  0  0  0  0
  1  7  1  0  0  0  0
  1  6  1  0  0  0  0
  2  1  2  0  0  0  0
  3  2  1  0  0  0  0
  3  4  2  0  0  0  0
  4  5  1  0  0  0  0
  5  6  2  0  0  0  0
  5 23  1  0  0  0  0
  8  2  1  0  0  0  0
  9 10  1  0  0  0  0
  9 18  1  0  0  0  0
 10  3  1  0  0  0  0
 11 12  1  0  0  0  0
 11 10  2  0  0  0  0
 13 11  1  0  0  0  0
 14 13  1  0  0  0  0
 15 13  2  0  0  0  0
 15 16  1  0  0  0  0
 16  9  2  0  0  0  0
 17 20  1  0  0  0  0
 18 17  2  0  0  0  0
 19 18  1  0  0  0  0
 21 19  1  0  0  0  0
 22 19  1  0  0  0  0
 23 24  1  0  0  0  0
 23 25  1  0  0  0  0
 26 23  1  0  0  0  0
 26 27  1  0  0  0  0
 27 28  1  0  0  0  0
 28 37  1  0  0  0  0
 28 29  2  0  0  0  0
 29 38  1  0  0  0  0
 30 29  1  0  0  0  0
 30 31  1  0  0  0  0
 32 31  2  0  0  0  0
 32 39  1  0  0  0  0
 33 32  1  0  0  0  0
 34 33  2  0  0  0  0
 35 34  1  0  0  0  0
 35 30  2  0  0  0  0
 36 27  2  0  0  0  0
 36 35  1  0  0  0  0
 40 33  1  0  0  0  0
 41 34  1  0  0  0  0
 42 36  1  0  0  0  0
M  END
>  <minimizedAffinity>
-6.87420607

>  <minimizedRMSD>
1.20950174

$$$$
