
 OpenBabel03252508033D

 47 50  0  0  1  0  0  0  0  0999 V2000
   42.2160   33.3040   41.0930 C   0  0  0  0  0  0  0  0  0  0  0  0
   42.8880   34.4620   41.3620 C   0  0  0  0  0  0  0  0  0  0  0  0
   42.1460   35.6580   41.3790 C   0  0  0  0  0  0  0  0  0  0  0  0
   40.7950   35.7200   41.1400 C   0  0  0  0  0  0  0  0  0  0  0  0
   40.1310   34.5540   40.8730 C   0  0  0  0  0  0  0  0  0  0  0  0
   40.8400   33.3900   40.8540 C   0  0  0  0  0  0  0  0  0  0  0  0
   42.5930   36.6300   41.5730 H   0  0  0  0  0  0  0  0  0  0  0  0
   40.2420   36.6280   41.1550 H   0  0  0  0  0  0  0  0  0  0  0  0
   39.0760   34.5090   40.6760 H   0  0  0  0  0  0  0  0  0  0  0  0
   40.3000   32.4550   40.6370 H   0  0  0  0  0  0  0  0  0  0  0  0
   42.9560   31.7910   41.1400 S   0  0  0  0  0  0  0  0  0  0  0  0
   41.9600   30.9650   40.2640 O   0  0  0  0  0  0  0  0  0  0  0  0
   42.9470   31.1810   42.4880 O   0  0  0  0  0  0  0  0  0  0  0  0
   44.2950   31.7150   38.8900 C   0  0  0  0  0  0  0  0  0  0  0  0
   44.1940   31.1520   40.1940 C   0  0  0  0  0  0  0  0  0  0  0  0
   45.2170   30.2180   40.4320 C   0  0  0  0  0  0  0  0  0  0  0  0
   45.1170   29.8400   41.4690 H   0  0  0  0  0  0  0  0  0  0  0  0
   46.2550   29.7780   39.6410 C   0  0  0  0  0  0  0  0  0  0  0  0
   46.9090   29.0450   40.0630 H   0  0  0  0  0  0  0  0  0  0  0  0
   46.2060   30.4110   38.4380 C   0  0  0  0  0  3  0  0  0  0  0  0
   45.3040   31.3320   38.0350 C   0  0  0  0  0  3  0  0  0  0  0  0
   43.7750   33.9150   37.9780 N   0  0  0  0  0  0  0  0  0  0  0  0
   43.4210   32.6900   38.1940 C   0  0  0  0  0  0  0  0  0  0  0  0
   42.1330   32.4860   37.6340 N   0  0  0  0  0  0  0  0  0  0  0  0
   43.0720   34.4840   37.4580 H   0  0  0  0  0  0  0  0  0  0  0  0
   41.8860   32.7220   36.6470 H   0  0  0  0  0  0  0  0  0  0  0  0
   41.1320   32.2240   37.5330 H   0  0  0  0  0  0  0  0  0  0  0  0
   44.3130   34.5070   41.6250 C   0  0  0  0  0  0  0  0  0  0  0  0
   45.2090   34.5170   40.7230 O   0  0  0  0  0  0  0  0  0  0  0  0
   44.6310   34.5430   43.0270 C   0  0  0  0  0  0  0  0  0  0  0  0
   44.3140   35.7680   43.7080 C   0  0  0  0  0  0  0  0  0  0  0  0
   44.6030   35.8220   45.0620 C   0  0  0  0  0  0  0  0  0  0  0  0
   45.1600   34.7300   45.6530 N   0  0  0  0  0  0  0  0  0  0  0  0
   45.4430   33.5830   44.9540 C   0  0  0  0  0  0  0  0  0  0  0  0
   45.1760   33.5300   43.6960 N   0  0  0  0  0  0  0  0  0  0  0  0
   43.8860   36.6560   43.3260 H   0  0  0  0  0  0  0  0  0  0  0  0
   44.4160   36.6800   45.6890 H   0  0  0  0  0  0  0  0  0  0  0  0
   46.0400   32.4450   45.6840 C   0  0  1  0  0  0  0  0  0  0  0  0
   46.9830   32.7160   46.8310 C   0  0  0  0  0  0  0  0  0  0  0  0
   45.5580   32.2860   47.0820 C   0  0  1  0  0  0  0  0  0  0  0  0
   46.2900   31.5510   45.1180 H   0  0  0  0  0  0  0  0  0  0  0  0
   47.8030   31.9900   47.0410 H   0  0  0  0  0  0  0  0  0  0  0  0
   47.2880   33.7660   47.0530 H   0  0  0  0  0  0  0  0  0  0  0  0
   45.3670   31.2490   47.4160 H   0  0  0  0  0  0  0  0  0  0  0  0
   44.7540   33.3150   47.6990 N   0  0  0  0  0  0  0  0  0  0  0  0
   43.8770   33.5210   47.2130 H   0  0  0  0  0  0  0  0  0  0  0  0
   45.2770   34.1350   48.0430 H   0  0  0  0  0  0  0  0  0  0  0  0
  1 11  1  0  0  0  0
  1  2  1  0  0  0  0
  2  3  2  0  0  0  0
  2 28  1  0  0  0  0
  3  7  1  0  0  0  0
  4  8  1  0  0  0  0
  4  3  1  0  0  0  0
  5  4  2  0  0  0  0
  6  5  1  0  0  0  0
  6  1  2  0  0  0  0
  9  5  1  0  0  0  0
 10  6  1  0  0  0  0
 11 13  2  0  0  0  0
 12 11  2  0  0  0  0
 14 15  1  0  0  0  0
 15 16  2  0  0  0  0
 15 11  1  0  0  0  0
 16 17  1  0  0  0  0
 18 19  1  0  0  0  0
 18 16  1  0  0  0  0
 20 18  2  0  0  0  0
 21 20  1  0  0  0  0
 21 14  2  0  0  0  0
 22 23  2  0  0  0  0
 23 14  1  0  0  0  0
 24 23  1  0  0  0  0
 25 22  1  0  0  0  0
 26 24  1  0  0  0  0
 27 24  1  0  0  0  0
 28 30  1  0  0  0  0
 29 28  2  0  0  0  0
 30 35  2  0  0  0  0
 30 31  1  0  0  0  0
 31 32  2  0  0  0  0
 32 33  1  0  0  0  0
 32 37  1  0  0  0  0
 34 33  2  0  0  0  0
 34 38  1  0  0  0  0
 35 34  1  0  0  0  0
 36 31  1  0  0  0  0
 38 41  1  6  0  0  0
 38 39  1  0  0  0  0
 38 40  1  0  0  0  0
 39 42  1  0  0  0  0
 39 43  1  0  0  0  0
 39 40  1  0  0  0  0
 40 44  1  1  0  0  0
 40 45  1  0  0  0  0
 45 47  1  0  0  0  0
 46 45  1  0  0  0  0
M  END
>  <minimizedAffinity>
-6.32707453

>  <minimizedRMSD>
1.31653607

$$$$
