
 OpenBabel03242519033D

 37 39  0  0  1  0  0  0  0  0999 V2000
   47.5290   33.2640   43.5780 N   0  0  0  0  0  0  0  0  0  0  0  0
   48.8110   33.3440   42.9060 C   0  0  0  0  0  0  0  0  0  0  0  0
   48.7850   32.0320   42.1900 C   0  0  2  0  0  0  0  0  0  0  0  0
   48.3900   31.0870   43.3030 C   0  0  0  0  0  0  0  0  0  0  0  0
   47.4300   31.9210   44.1150 C   0  0  0  0  0  0  0  0  0  0  0  0
   48.8870   34.1650   42.2120 H   0  0  0  0  0  0  0  0  0  0  0  0
   49.6150   33.2980   43.6670 H   0  0  0  0  0  0  0  0  0  0  0  0
   48.0470   32.0070   41.3550 H   0  0  0  0  0  0  0  0  0  0  0  0
   49.3270   30.8690   43.8770 H   0  0  0  0  0  0  0  0  0  0  0  0
   47.9360   30.1850   42.8740 H   0  0  0  0  0  0  0  0  0  0  0  0
   46.3830   31.5670   43.8990 H   0  0  0  0  0  0  0  0  0  0  0  0
   47.6770   31.8750   45.1960 H   0  0  0  0  0  0  0  0  0  0  0  0
   45.1890   36.1180   43.0620 C   0  0  0  0  0  0  0  0  0  0  0  0
   46.2060   35.2090   42.7920 C   0  0  0  0  0  0  0  0  0  0  0  0
   46.5280   34.2380   43.7260 C   0  0  0  0  0  0  0  0  0  0  0  0
   45.8080   34.2240   44.9050 N   0  0  0  0  0  0  0  0  0  0  0  0
   44.8190   35.1240   45.1490 C   0  0  0  0  0  0  0  0  0  0  0  0
   44.5120   36.0750   44.2170 N   0  0  0  0  0  0  0  0  0  0  0  0
   44.9590   36.8640   42.3140 H   0  0  0  0  0  0  0  0  0  0  0  0
   46.7810   35.2100   41.8650 H   0  0  0  0  0  0  0  0  0  0  0  0
   44.3140   35.0300   46.1000 H   0  0  0  0  0  0  0  0  0  0  0  0
   50.0720   31.6340   41.7000 N   0  0  0  0  0  0  0  0  0  0  0  0
   50.7820   31.2790   42.4120 H   0  0  0  0  0  0  0  0  0  0  0  0
   49.8440   31.7410   39.2450 C   0  0  0  0  0  0  0  0  0  0  0  0
   50.6070   31.6220   40.3870 C   0  0  0  0  0  0  0  0  0  0  0  0
   51.9560   31.5060   40.1260 C   0  0  0  0  0  0  0  0  0  0  0  0
   52.6860   31.4150   40.9140 H   0  0  0  0  0  0  0  0  0  0  0  0
   52.5160   31.5020   38.8760 C   0  0  0  0  0  0  0  0  0  0  0  0
   53.5820   31.4090   38.6920 H   0  0  0  0  0  0  0  0  0  0  0  0
   51.7140   31.6230   37.7760 C   0  0  0  0  0  3  0  0  0  0  0  0
   50.3620   31.7430   37.9840 C   0  0  0  0  0  3  0  0  0  0  0  0
   47.6360   30.8580   39.4420 N   0  0  0  0  0  0  0  0  0  0  0  0
   48.4130   31.8800   39.3280 C   0  0  0  0  0  0  0  0  0  0  0  0
   47.3680   32.8300   39.3300 N   0  0  0  0  0  0  0  0  0  0  0  0
   46.6070   30.9340   39.5000 H   0  0  0  0  0  0  0  0  0  0  0  0
   46.8760   33.2330   40.1560 H   0  0  0  0  0  0  0  0  0  0  0  0
   47.0380   33.1800   38.4040 H   0  0  0  0  0  0  0  0  0  0  0  0
  1 15  1  0  0  0  0
  1  5  1  0  0  0  0
  2  1  1  0  0  0  0
  2  7  1  0  0  0  0
  3  8  1  6  0  0  0
  3  2  1  0  0  0  0
  3  4  1  0  0  0  0
  4  9  1  0  0  0  0
  4  5  1  0  0  0  0
  5 12  1  0  0  0  0
  6  2  1  0  0  0  0
 10  4  1  0  0  0  0
 11  5  1  0  0  0  0
 13 18  1  0  0  0  0
 14 13  2  0  0  0  0
 14 15  1  0  0  0  0
 15 16  2  0  0  0  0
 16 17  1  0  0  0  0
 17 21  1  0  0  0  0
 18 17  2  0  0  0  0
 19 13  1  0  0  0  0
 20 14  1  0  0  0  0
 22  3  1  0  0  0  0
 22 23  1  0  0  0  0
 24 33  1  0  0  0  0
 24 25  1  0  0  0  0
 25 22  1  0  0  0  0
 26 25  2  0  0  0  0
 26 27  1  0  0  0  0
 28 26  1  0  0  0  0
 29 28  1  0  0  0  0
 30 31  1  0  0  0  0
 30 28  2  0  0  0  0
 31 24  2  0  0  0  0
 32 35  1  0  0  0  0
 33 34  1  0  0  0  0
 33 32  2  0  0  0  0
 34 36  1  0  0  0  0
 37 34  1  0  0  0  0
M  END
>  <minimizedAffinity>
-4.40728569

>  <minimizedRMSD>
4.47818184

$$$$
