
 OpenBabel03242519043D

 37 39  0  0  1  0  0  0  0  0999 V2000
   40.7950   32.5830   39.3790 N   0  0  0  0  0  0  0  0  0  0  0  0
   40.1480   32.4760   40.6710 C   0  0  0  0  0  0  0  0  0  0  0  0
   39.5970   31.0920   40.5460 C   0  0  2  0  0  0  0  0  0  0  0  0
   38.9320   31.1530   39.1880 C   0  0  0  0  0  0  0  0  0  0  0  0
   39.8640   32.0460   38.4070 C   0  0  0  0  0  0  0  0  0  0  0  0
   40.8270   32.5500   41.5050 H   0  0  0  0  0  0  0  0  0  0  0  0
   39.2920   33.1780   40.7000 H   0  0  0  0  0  0  0  0  0  0  0  0
   40.3860   30.3050   40.5750 H   0  0  0  0  0  0  0  0  0  0  0  0
   37.9370   31.6420   39.3470 H   0  0  0  0  0  0  0  0  0  0  0  0
   38.8450   30.1390   38.7760 H   0  0  0  0  0  0  0  0  0  0  0  0
   40.4690   31.4020   37.7070 H   0  0  0  0  0  0  0  0  0  0  0  0
   39.3030   32.8390   37.8700 H   0  0  0  0  0  0  0  0  0  0  0  0
   43.8240   33.7830   37.5680 C   0  0  0  0  0  0  0  0  0  0  0  0
   42.5460   33.2690   37.7610 C   0  0  0  0  0  0  0  0  0  0  0  0
   42.0620   33.0910   39.0470 C   0  0  0  0  0  0  0  0  0  0  0  0
   42.8930   33.4400   40.0950 N   0  0  0  0  0  0  0  0  0  0  0  0
   44.1390   33.9390   39.8820 C   0  0  0  0  0  0  0  0  0  0  0  0
   44.6010   34.1100   38.6080 N   0  0  0  0  0  0  0  0  0  0  0  0
   44.1740   33.9120   36.5530 H   0  0  0  0  0  0  0  0  0  0  0  0
   41.8810   32.9910   36.9420 H   0  0  0  0  0  0  0  0  0  0  0  0
   44.7110   34.1820   40.7670 H   0  0  0  0  0  0  0  0  0  0  0  0
   38.5910   30.7960   41.5230 N   0  0  0  0  0  0  0  0  0  0  0  0
   38.0330   31.6140   41.9190 H   0  0  0  0  0  0  0  0  0  0  0  0
   36.9220   29.0210   41.9200 C   0  0  0  0  0  0  0  0  0  0  0  0
   38.1770   29.5640   42.0920 C   0  0  0  0  0  0  0  0  0  0  0  0
   39.0040   28.7770   42.8640 C   0  0  0  0  0  0  0  0  0  0  0  0
   40.0240   29.0590   43.0820 H   0  0  0  0  0  0  0  0  0  0  0  0
   38.6520   27.5780   43.4210 C   0  0  0  0  0  0  0  0  0  0  0  0
   39.3200   26.9730   44.0280 H   0  0  0  0  0  0  0  0  0  0  0  0
   37.3920   27.0840   43.2200 C   0  0  0  0  0  3  0  0  0  0  0  0
   36.5310   27.8320   42.4560 C   0  0  0  0  0  3  0  0  0  0  0  0
   35.7040   30.9670   41.2700 N   0  0  0  0  0  0  0  0  0  0  0  0
   35.9270   29.7050   41.1340 C   0  0  0  0  0  0  0  0  0  0  0  0
   34.9520   29.5150   40.1300 N   0  0  0  0  0  0  0  0  0  0  0  0
   34.9940   31.4780   40.7190 H   0  0  0  0  0  0  0  0  0  0  0  0
   35.0480   29.6920   39.1070 H   0  0  0  0  0  0  0  0  0  0  0  0
   34.0200   29.1540   40.4310 H   0  0  0  0  0  0  0  0  0  0  0  0
  1  2  1  0  0  0  0
  2  7  1  0  0  0  0
  2  6  1  0  0  0  0
  3  8  1  1  0  0  0
  3  2  1  0  0  0  0
  3 22  1  0  0  0  0
  4  9  1  0  0  0  0
  4  3  1  0  0  0  0
  5  4  1  0  0  0  0
  5  1  1  0  0  0  0
 10  4  1  0  0  0  0
 11  5  1  0  0  0  0
 12  5  1  0  0  0  0
 13 14  2  0  0  0  0
 13 18  1  0  0  0  0
 14 15  1  0  0  0  0
 15  1  1  0  0  0  0
 15 16  2  0  0  0  0
 17 16  1  0  0  0  0
 17 21  1  0  0  0  0
 18 17  2  0  0  0  0
 19 13  1  0  0  0  0
 20 14  1  0  0  0  0
 22 23  1  0  0  0  0
 22 25  1  0  0  0  0
 24 25  2  0  0  0  0
 24 31  1  0  0  0  0
 25 26  1  0  0  0  0
 26 27  1  0  0  0  0
 26 28  2  0  0  0  0
 28 29  1  0  0  0  0
 30 28  1  0  0  0  0
 31 30  2  0  0  0  0
 33 32  2  0  0  0  0
 33 24  1  0  0  0  0
 34 37  1  0  0  0  0
 34 33  1  0  0  0  0
 35 32  1  0  0  0  0
 36 34  1  0  0  0  0
M  END
>  <minimizedAffinity>
-5.69454288

$$$$

 OpenBabel03242519043D

 37 39  0  0  1  0  0  0  0  0999 V2000
   39.2660   30.8030   37.9680 N   0  0  0  0  0  0  0  0  0  0  0  0
   38.8850   29.6860   38.8090 C   0  0  0  0  0  0  0  0  0  0  0  0
   37.8120   29.0980   37.9500 C   0  0  2  0  0  0  0  0  0  0  0  0
   36.9850   30.3210   37.6200 C   0  0  0  0  0  0  0  0  0  0  0  0
   38.0320   31.4000   37.4950 C   0  0  0  0  0  0  0  0  0  0  0  0
   39.6810   28.9780   38.9770 H   0  0  0  0  0  0  0  0  0  0  0  0
   38.4060   30.0780   39.7270 H   0  0  0  0  0  0  0  0  0  0  0  0
   38.2100   28.6150   37.0280 H   0  0  0  0  0  0  0  0  0  0  0  0
   36.3200   30.4980   38.5030 H   0  0  0  0  0  0  0  0  0  0  0  0
   36.4230   30.1430   36.6940 H   0  0  0  0  0  0  0  0  0  0  0  0
   38.1850   31.6220   36.4010 H   0  0  0  0  0  0  0  0  0  0  0  0
   37.7470   32.3030   38.0730 H   0  0  0  0  0  0  0  0  0  0  0  0
   42.2360   32.9480   37.2870 C   0  0  0  0  0  0  0  0  0  0  0  0
   40.9370   32.6080   37.6470 C   0  0  0  0  0  0  0  0  0  0  0  0
   40.5430   31.2800   37.6290 C   0  0  0  0  0  0  0  0  0  0  0  0
   41.4810   30.3410   37.2450 N   0  0  0  0  0  0  0  0  0  0  0  0
   42.7460   30.6980   36.8950 C   0  0  0  0  0  0  0  0  0  0  0  0
   43.1200   32.0110   36.9190 N   0  0  0  0  0  0  0  0  0  0  0  0
   42.5160   33.9920   37.3110 H   0  0  0  0  0  0  0  0  0  0  0  0
   40.1880   33.3400   37.9520 H   0  0  0  0  0  0  0  0  0  0  0  0
   43.4050   29.8900   36.6100 H   0  0  0  0  0  0  0  0  0  0  0  0
   36.9760   28.1690   38.6530 N   0  0  0  0  0  0  0  0  0  0  0  0
   36.1360   27.7710   38.1320 H   0  0  0  0  0  0  0  0  0  0  0  0
   36.4470   28.2380   41.0630 C   0  0  0  0  0  0  0  0  0  0  0  0
   37.0570   27.6550   39.9720 C   0  0  0  0  0  0  0  0  0  0  0  0
   37.7480   26.5060   40.2910 C   0  0  0  0  0  0  0  0  0  0  0  0
   38.2710   25.9270   39.5450 H   0  0  0  0  0  0  0  0  0  0  0  0
   37.8410   25.9690   41.5460 C   0  0  0  0  0  0  0  0  0  0  0  0
   38.3920   25.0600   41.7760 H   0  0  0  0  0  0  0  0  0  0  0  0
   37.2170   26.5860   42.5940 C   0  0  0  0  0  3  0  0  0  0  0  0
   36.5150   27.7360   42.3270 C   0  0  0  0  0  3  0  0  0  0  0  0
   34.5560   29.4620   40.2760 N   0  0  0  0  0  0  0  0  0  0  0  0
   35.6750   29.4450   40.9150 C   0  0  0  0  0  0  0  0  0  0  0  0
   35.6550   30.8210   41.2330 N   0  0  0  0  0  0  0  0  0  0  0  0
   33.9860   30.3150   40.1550 H   0  0  0  0  0  0  0  0  0  0  0  0
   35.1550   31.2850   42.0220 H   0  0  0  0  0  0  0  0  0  0  0  0
   36.2020   31.4620   40.6170 H   0  0  0  0  0  0  0  0  0  0  0  0
  1  2  1  0  0  0  0
  2  6  1  0  0  0  0
  2  7  1  0  0  0  0
  3  8  1  6  0  0  0
  3 22  1  0  0  0  0
  3  2  1  0  0  0  0
  4  3  1  0  0  0  0
  4  9  1  0  0  0  0
  5  4  1  0  0  0  0
  5  1  1  0  0  0  0
  5 12  1  0  0  0  0
 10  4  1  0  0  0  0
 11  5  1  0  0  0  0
 13 19  1  0  0  0  0
 13 14  1  0  0  0  0
 14 20  1  0  0  0  0
 15 14  2  0  0  0  0
 15  1  1  0  0  0  0
 16 15  1  0  0  0  0
 17 18  1  0  0  0  0
 17 16  2  0  0  0  0
 18 13  2  0  0  0  0
 21 17  1  0  0  0  0
 22 25  1  0  0  0  0
 23 22  1  0  0  0  0
 24 31  1  0  0  0  0
 25 26  1  0  0  0  0
 25 24  2  0  0  0  0
 26 28  2  0  0  0  0
 27 26  1  0  0  0  0
 28 29  1  0  0  0  0
 28 30  1  0  0  0  0
 31 30  2  0  0  0  0
 32 33  2  0  0  0  0
 33 24  1  0  0  0  0
 33 34  1  0  0  0  0
 34 36  1  0  0  0  0
 35 32  1  0  0  0  0
 37 34  1  0  0  0  0
M  END
>  <minimizedAffinity>
-5.63428402

$$$$

 OpenBabel03242519043D

 37 39  0  0  1  0  0  0  0  0999 V2000
   39.6240   27.5820   42.9970 N   0  0  0  0  0  0  0  0  0  0  0  0
   39.0110   28.5290   42.0880 C   0  0  0  0  0  0  0  0  0  0  0  0
   37.9650   29.0880   42.9980 C   0  0  2  0  0  0  0  0  0  0  0  0
   37.3490   27.8260   43.5610 C   0  0  0  0  0  0  0  0  0  0  0  0
   38.5380   26.9060   43.6800 C   0  0  0  0  0  0  0  0  0  0  0  0
   39.6820   29.3010   41.7470 H   0  0  0  0  0  0  0  0  0  0  0  0
   38.4950   27.9690   41.2840 H   0  0  0  0  0  0  0  0  0  0  0  0
   38.3890   29.7280   43.8050 H   0  0  0  0  0  0  0  0  0  0  0  0
   36.6240   27.4590   42.7900 H   0  0  0  0  0  0  0  0  0  0  0  0
   36.8690   28.0510   44.5220 H   0  0  0  0  0  0  0  0  0  0  0  0
   38.8330   26.8450   44.7650 H   0  0  0  0  0  0  0  0  0  0  0  0
   38.3170   25.9090   43.2460 H   0  0  0  0  0  0  0  0  0  0  0  0
   43.2820   27.8570   43.6580 C   0  0  0  0  0  0  0  0  0  0  0  0
   41.9700   28.2600   43.4350 C   0  0  0  0  0  0  0  0  0  0  0  0
   40.9820   27.3100   43.2320 C   0  0  0  0  0  0  0  0  0  0  0  0
   41.3600   25.9810   43.2620 N   0  0  0  0  0  0  0  0  0  0  0  0
   42.6490   25.6100   43.4810 C   0  0  0  0  0  0  0  0  0  0  0  0
   43.6120   26.5590   43.6800 N   0  0  0  0  0  0  0  0  0  0  0  0
   44.0310   28.6200   43.8140 H   0  0  0  0  0  0  0  0  0  0  0  0
   41.6600   29.3060   43.4090 H   0  0  0  0  0  0  0  0  0  0  0  0
   42.8430   24.5460   43.4850 H   0  0  0  0  0  0  0  0  0  0  0  0
   36.9430   29.8130   42.3010 N   0  0  0  0  0  0  0  0  0  0  0  0
   36.3850   30.5330   42.8540 H   0  0  0  0  0  0  0  0  0  0  0  0
   36.7460   30.7390   40.0210 C   0  0  0  0  0  0  0  0  0  0  0  0
   36.5100   29.7490   40.9520 C   0  0  0  0  0  0  0  0  0  0  0  0
   35.8210   28.6740   40.4330 C   0  0  0  0  0  0  0  0  0  0  0  0
   35.5690   27.8120   41.0320 H   0  0  0  0  0  0  0  0  0  0  0  0
   35.3970   28.5650   39.1360 C   0  0  0  0  0  0  0  0  0  0  0  0
   34.8540   27.7070   38.7470 H   0  0  0  0  0  0  0  0  0  0  0  0
   35.6570   29.5770   38.2530 C   0  0  0  0  0  3  0  0  0  0  0  0
   36.3420   30.6700   38.7230 C   0  0  0  0  0  3  0  0  0  0  0  0
   38.6540   31.8920   40.8710 N   0  0  0  0  0  0  0  0  0  0  0  0
   37.4600   31.9360   40.3870 C   0  0  0  0  0  0  0  0  0  0  0  0
   37.3570   33.3430   40.4380 N   0  0  0  0  0  0  0  0  0  0  0  0
   39.1850   32.7360   41.1430 H   0  0  0  0  0  0  0  0  0  0  0  0
   37.7160   34.0330   39.7440 H   0  0  0  0  0  0  0  0  0  0  0  0
   36.8650   33.7570   41.2600 H   0  0  0  0  0  0  0  0  0  0  0  0
  1 15  1  0  0  0  0
  1  5  1  0  0  0  0
  2  1  1  0  0  0  0
  2  3  1  0  0  0  0
  3  4  1  0  0  0  0
  3  8  1  1  0  0  0
  4  5  1  0  0  0  0
  4 10  1  0  0  0  0
  5 11  1  0  0  0  0
  6  2  1  0  0  0  0
  7  2  1  0  0  0  0
  9  4  1  0  0  0  0
 12  5  1  0  0  0  0
 13 18  1  0  0  0  0
 13 19  1  0  0  0  0
 14 13  2  0  0  0  0
 15 16  2  0  0  0  0
 15 14  1  0  0  0  0
 16 17  1  0  0  0  0
 17 21  1  0  0  0  0
 17 18  2  0  0  0  0
 20 14  1  0  0  0  0
 22 23  1  0  0  0  0
 22  3  1  0  0  0  0
 24 33  1  0  0  0  0
 24 25  1  0  0  0  0
 25 22  1  0  0  0  0
 26 25  2  0  0  0  0
 26 27  1  0  0  0  0
 28 26  1  0  0  0  0
 29 28  1  0  0  0  0
 30 31  1  0  0  0  0
 30 28  2  0  0  0  0
 31 24  2  0  0  0  0
 32 35  1  0  0  0  0
 33 34  1  0  0  0  0
 33 32  2  0  0  0  0
 34 37  1  0  0  0  0
 36 34  1  0  0  0  0
M  END
>  <minimizedAffinity>
-5.63374949

$$$$

 OpenBabel03242519043D

 37 39  0  0  1  0  0  0  0  0999 V2000
   40.9590   31.5340   38.3510 N   0  0  0  0  0  0  0  0  0  0  0  0
   40.6890   31.3890   39.7670 C   0  0  0  0  0  0  0  0  0  0  0  0
   39.4420   30.5680   39.6880 C   0  0  2  0  0  0  0  0  0  0  0  0
   38.6320   31.3450   38.6730 C   0  0  0  0  0  0  0  0  0  0  0  0
   39.6910   31.8410   37.7200 C   0  0  0  0  0  0  0  0  0  0  0  0
   41.4640   30.8690   40.3060 H   0  0  0  0  0  0  0  0  0  0  0  0
   40.4150   32.3790   40.1800 H   0  0  0  0  0  0  0  0  0  0  0  0
   39.6300   29.5250   39.3430 H   0  0  0  0  0  0  0  0  0  0  0  0
   38.1580   32.1920   39.2330 H   0  0  0  0  0  0  0  0  0  0  0  0
   37.8950   30.6800   38.2060 H   0  0  0  0  0  0  0  0  0  0  0  0
   39.6420   31.2190   36.7810 H   0  0  0  0  0  0  0  0  0  0  0  0
   39.5680   32.9250   37.5140 H   0  0  0  0  0  0  0  0  0  0  0  0
   44.4650   31.9190   37.1470 C   0  0  0  0  0  0  0  0  0  0  0  0
   43.3290   32.1280   37.9200 C   0  0  0  0  0  0  0  0  0  0  0  0
   42.1710   31.4180   37.6490 C   0  0  0  0  0  0  0  0  0  0  0  0
   42.2050   30.5170   36.6010 N   0  0  0  0  0  0  0  0  0  0  0  0
   43.3280   30.3300   35.8590 C   0  0  0  0  0  0  0  0  0  0  0  0
   44.4620   31.0380   36.1390 N   0  0  0  0  0  0  0  0  0  0  0  0
   45.3550   32.4870   37.3820 H   0  0  0  0  0  0  0  0  0  0  0  0
   43.2890   32.8360   38.7500 H   0  0  0  0  0  0  0  0  0  0  0  0
   43.2540   29.6040   35.0610 H   0  0  0  0  0  0  0  0  0  0  0  0
   38.7090   30.5390   40.9190 N   0  0  0  0  0  0  0  0  0  0  0  0
   38.3910   31.4720   41.3250 H   0  0  0  0  0  0  0  0  0  0  0  0
   37.0020   29.0250   41.8620 C   0  0  0  0  0  0  0  0  0  0  0  0
   38.3070   29.4540   41.7390 C   0  0  0  0  0  0  0  0  0  0  0  0
   39.1920   28.7070   42.4860 C   0  0  0  0  0  0  0  0  0  0  0  0
   40.2530   28.9100   42.4880 H   0  0  0  0  0  0  0  0  0  0  0  0
   38.8500   27.6460   43.2790 C   0  0  0  0  0  0  0  0  0  0  0  0
   39.5650   27.0700   43.8610 H   0  0  0  0  0  0  0  0  0  0  0  0
   37.5410   27.2610   43.3660 C   0  0  0  0  0  3  0  0  0  0  0  0
   36.6190   27.9740   42.6390 C   0  0  0  0  0  3  0  0  0  0  0  0
   35.7430   30.9560   41.2450 N   0  0  0  0  0  0  0  0  0  0  0  0
   35.9410   29.6860   41.1450 C   0  0  0  0  0  0  0  0  0  0  0  0
   34.8710   29.4640   40.2500 N   0  0  0  0  0  0  0  0  0  0  0  0
   34.9870   31.4510   40.7430 H   0  0  0  0  0  0  0  0  0  0  0  0
   34.8690   29.5950   39.2160 H   0  0  0  0  0  0  0  0  0  0  0  0
   33.9700   29.1280   40.6560 H   0  0  0  0  0  0  0  0  0  0  0  0
  1  2  1  0  0  0  0
  2  7  1  0  0  0  0
  2  6  1  0  0  0  0
  3  8  1  6  0  0  0
  3  2  1  0  0  0  0
  3 22  1  0  0  0  0
  4  9  1  0  0  0  0
  4  3  1  0  0  0  0
  5  1  1  0  0  0  0
  5  4  1  0  0  0  0
 10  4  1  0  0  0  0
 11  5  1  0  0  0  0
 12  5  1  0  0  0  0
 13 19  1  0  0  0  0
 13 14  1  0  0  0  0
 14 20  1  0  0  0  0
 15 14  2  0  0  0  0
 15  1  1  0  0  0  0
 16 15  1  0  0  0  0
 17 18  1  0  0  0  0
 17 16  2  0  0  0  0
 18 13  2  0  0  0  0
 21 17  1  0  0  0  0
 22 23  1  0  0  0  0
 22 25  1  0  0  0  0
 24 31  1  0  0  0  0
 25 24  2  0  0  0  0
 25 26  1  0  0  0  0
 26 27  1  0  0  0  0
 26 28  2  0  0  0  0
 28 30  1  0  0  0  0
 28 29  1  0  0  0  0
 31 30  2  0  0  0  0
 33 32  2  0  0  0  0
 33 24  1  0  0  0  0
 34 37  1  0  0  0  0
 34 33  1  0  0  0  0
 35 32  1  0  0  0  0
 36 34  1  0  0  0  0
M  END
>  <minimizedAffinity>
-5.61835909

$$$$

 OpenBabel03242519043D

 37 39  0  0  1  0  0  0  0  0999 V2000
   36.5330   30.1560   38.4320 N   0  0  0  0  0  0  0  0  0  0  0  0
   36.7930   29.4470   39.6690 C   0  0  0  0  0  0  0  0  0  0  0  0
   36.3230   30.4820   40.6400 C   0  0  2  0  0  0  0  0  0  0  0  0
   37.0260   31.7200   40.1260 C   0  0  0  0  0  0  0  0  0  0  0  0
   37.0010   31.5140   38.6310 C   0  0  0  0  0  0  0  0  0  0  0  0
   36.2310   28.5330   39.7720 H   0  0  0  0  0  0  0  0  0  0  0  0
   37.8890   29.3390   39.7940 H   0  0  0  0  0  0  0  0  0  0  0  0
   35.2160   30.6130   40.6330 H   0  0  0  0  0  0  0  0  0  0  0  0
   38.0710   31.6760   40.5260 H   0  0  0  0  0  0  0  0  0  0  0  0
   36.4820   32.6140   40.4570 H   0  0  0  0  0  0  0  0  0  0  0  0
   36.2130   32.1900   38.1930 H   0  0  0  0  0  0  0  0  0  0  0  0
   38.0020   31.6900   38.1870 H   0  0  0  0  0  0  0  0  0  0  0  0
   34.2870   28.6130   35.8900 C   0  0  0  0  0  0  0  0  0  0  0  0
   34.7540   29.0110   37.1380 C   0  0  0  0  0  0  0  0  0  0  0  0
   35.9520   29.6990   37.2380 C   0  0  0  0  0  0  0  0  0  0  0  0
   36.6380   29.9590   36.0670 N   0  0  0  0  0  0  0  0  0  0  0  0
   36.1630   29.5590   34.8580 C   0  0  0  0  0  0  0  0  0  0  0  0
   34.9790   28.8820   34.7760 N   0  0  0  0  0  0  0  0  0  0  0  0
   33.3480   28.0790   35.8430 H   0  0  0  0  0  0  0  0  0  0  0  0
   34.2210   28.8130   38.0690 H   0  0  0  0  0  0  0  0  0  0  0  0
   36.7730   29.8090   34.0010 H   0  0  0  0  0  0  0  0  0  0  0  0
   36.7680   30.2400   41.9800 N   0  0  0  0  0  0  0  0  0  0  0  0
   36.5240   30.9670   42.7200 H   0  0  0  0  0  0  0  0  0  0  0  0
   38.8750   29.1780   42.7070 C   0  0  0  0  0  0  0  0  0  0  0  0
   37.5070   29.1640   42.5370 C   0  0  0  0  0  0  0  0  0  0  0  0
   36.9200   27.9970   42.9780 C   0  0  0  0  0  0  0  0  0  0  0  0
   35.8540   27.8360   42.9240 H   0  0  0  0  0  0  0  0  0  0  0  0
   37.5920   26.9420   43.5320 C   0  0  0  0  0  0  0  0  0  0  0  0
   37.1090   26.0300   43.8740 H   0  0  0  0  0  0  0  0  0  0  0  0
   38.9500   27.0070   43.6790 C   0  0  0  0  0  3  0  0  0  0  0  0
   39.5810   28.1500   43.2540 C   0  0  0  0  0  3  0  0  0  0  0  0
   40.0880   30.4610   41.1020 N   0  0  0  0  0  0  0  0  0  0  0  0
   39.6530   30.3230   42.3070 C   0  0  0  0  0  0  0  0  0  0  0  0
   40.2170   31.5280   42.7800 N   0  0  0  0  0  0  0  0  0  0  0  0
   40.6500   31.2710   40.7920 H   0  0  0  0  0  0  0  0  0  0  0  0
   39.8250   32.4900   42.6970 H   0  0  0  0  0  0  0  0  0  0  0  0
   41.1340   31.4650   43.2750 H   0  0  0  0  0  0  0  0  0  0  0  0
  1  5  1  0  0  0  0
  1  2  1  0  0  0  0
  2  6  1  0  0  0  0
  2  7  1  0  0  0  0
  2  3  1  0  0  0  0
  3  8  1  6  0  0  0
  3 22  1  0  0  0  0
  4 10  1  0  0  0  0
  4  9  1  0  0  0  0
  4  3  1  0  0  0  0
  5  4  1  0  0  0  0
 11  5  1  0  0  0  0
 12  5  1  0  0  0  0
 13 14  1  0  0  0  0
 14 15  2  0  0  0  0
 14 20  1  0  0  0  0
 15  1  1  0  0  0  0
 16 15  1  0  0  0  0
 17 16  2  0  0  0  0
 18 17  1  0  0  0  0
 18 13  2  0  0  0  0
 19 13  1  0  0  0  0
 21 17  1  0  0  0  0
 22 25  1  0  0  0  0
 22 23  1  0  0  0  0
 24 31  1  0  0  0  0
 25 24  2  0  0  0  0
 25 26  1  0  0  0  0
 26 28  2  0  0  0  0
 27 26  1  0  0  0  0
 28 30  1  0  0  0  0
 28 29  1  0  0  0  0
 31 30  2  0  0  0  0
 32 33  2  0  0  0  0
 33 24  1  0  0  0  0
 33 34  1  0  0  0  0
 34 37  1  0  0  0  0
 35 32  1  0  0  0  0
 36 34  1  0  0  0  0
M  END
>  <minimizedAffinity>
-5.42700863

$$$$

 OpenBabel03242519043D

 37 39  0  0  1  0  0  0  0  0999 V2000
   37.9500   29.1550   41.8810 N   0  0  0  0  0  0  0  0  0  0  0  0
   37.9260   27.7950   41.3800 C   0  0  0  0  0  0  0  0  0  0  0  0
   36.9820   27.1940   42.3720 C   0  0  2  0  0  0  0  0  0  0  0  0
   37.5670   27.6810   43.6800 C   0  0  0  0  0  0  0  0  0  0  0  0
   38.0640   29.0600   43.3230 C   0  0  0  0  0  0  0  0  0  0  0  0
   37.5430   27.7080   40.3770 H   0  0  0  0  0  0  0  0  0  0  0  0
   38.9220   27.3380   41.5430 H   0  0  0  0  0  0  0  0  0  0  0  0
   35.9330   27.5460   42.2410 H   0  0  0  0  0  0  0  0  0  0  0  0
   38.4160   26.9910   43.9200 H   0  0  0  0  0  0  0  0  0  0  0  0
   36.7880   27.6800   44.4520 H   0  0  0  0  0  0  0  0  0  0  0  0
   37.3470   29.8170   43.7500 H   0  0  0  0  0  0  0  0  0  0  0  0
   39.1030   29.2150   43.6800 H   0  0  0  0  0  0  0  0  0  0  0  0
   36.9630   31.9530   39.6260 C   0  0  0  0  0  0  0  0  0  0  0  0
   36.9170   30.7110   40.2480 C   0  0  0  0  0  0  0  0  0  0  0  0
   37.8820   30.3720   41.1830 C   0  0  0  0  0  0  0  0  0  0  0  0
   38.8630   31.3060   41.4530 N   0  0  0  0  0  0  0  0  0  0  0  0
   38.8890   32.5150   40.8310 C   0  0  0  0  0  0  0  0  0  0  0  0
   37.9300   32.8340   39.9130 N   0  0  0  0  0  0  0  0  0  0  0  0
   36.1960   32.1900   38.9020 H   0  0  0  0  0  0  0  0  0  0  0  0
   36.1470   29.9650   40.0430 H   0  0  0  0  0  0  0  0  0  0  0  0
   39.6970   33.1760   41.1120 H   0  0  0  0  0  0  0  0  0  0  0  0
   37.0080   25.7610   42.3760 N   0  0  0  0  0  0  0  0  0  0  0  0
   36.8000   25.2670   43.2970 H   0  0  0  0  0  0  0  0  0  0  0  0
   38.4690   24.1630   41.1910 C   0  0  0  0  0  0  0  0  0  0  0  0
   37.2720   24.8310   41.3380 C   0  0  0  0  0  0  0  0  0  0  0  0
   36.3420   24.4910   40.3790 C   0  0  0  0  0  0  0  0  0  0  0  0
   35.3520   24.9190   40.3640 H   0  0  0  0  0  0  0  0  0  0  0  0
   36.5500   23.5900   39.3690 C   0  0  0  0  0  0  0  0  0  0  0  0
   35.8030   23.3370   38.6220 H   0  0  0  0  0  0  0  0  0  0  0  0
   37.7570   22.9550   39.2680 C   0  0  0  0  0  3  0  0  0  0  0  0
   38.7160   23.2600   40.2010 C   0  0  0  0  0  3  0  0  0  0  0  0
   39.5930   23.8260   43.2680 N   0  0  0  0  0  0  0  0  0  0  0  0
   39.5550   24.3900   42.1100 C   0  0  0  0  0  0  0  0  0  0  0  0
   40.7700   25.0900   42.2730 N   0  0  0  0  0  0  0  0  0  0  0  0
   40.3600   23.9760   43.9450 H   0  0  0  0  0  0  0  0  0  0  0  0
   41.7380   24.7320   42.1220 H   0  0  0  0  0  0  0  0  0  0  0  0
   40.7110   26.0860   42.5810 H   0  0  0  0  0  0  0  0  0  0  0  0
  1  5  1  0  0  0  0
  2  7  1  0  0  0  0
  2  1  1  0  0  0  0
  2  3  1  0  0  0  0
  3  8  1  6  0  0  0
  3 22  1  0  0  0  0
  3  4  1  0  0  0  0
  4  9  1  0  0  0  0
  4 10  1  0  0  0  0
  5  4  1  0  0  0  0
  5 12  1  0  0  0  0
  5 11  1  0  0  0  0
  6  2  1  0  0  0  0
 13 18  2  0  0  0  0
 13 14  1  0  0  0  0
 14 15  2  0  0  0  0
 15 16  1  0  0  0  0
 15  1  1  0  0  0  0
 17 21  1  0  0  0  0
 17 16  2  0  0  0  0
 18 17  1  0  0  0  0
 19 13  1  0  0  0  0
 20 14  1  0  0  0  0
 22 23  1  0  0  0  0
 24 25  1  0  0  0  0
 24 33  1  0  0  0  0
 25 22  1  0  0  0  0
 26 25  2  0  0  0  0
 27 26  1  0  0  0  0
 28 26  1  0  0  0  0
 29 28  1  0  0  0  0
 30 28  2  0  0  0  0
 30 31  1  0  0  0  0
 31 24  2  0  0  0  0
 32 35  1  0  0  0  0
 33 34  1  0  0  0  0
 33 32  2  0  0  0  0
 34 37  1  0  0  0  0
 36 34  1  0  0  0  0
M  END
>  <minimizedAffinity>
-5.32424688

$$$$

 OpenBabel03242519043D

 37 39  0  0  1  0  0  0  0  0999 V2000
   38.0690   31.1570   38.9750 N   0  0  0  0  0  0  0  0  0  0  0  0
   37.7100   30.3570   40.1280 C   0  0  0  0  0  0  0  0  0  0  0  0
   37.2830   29.1080   39.4270 C   0  0  2  0  0  0  0  0  0  0  0  0
   36.3540   29.6590   38.3670 C   0  0  0  0  0  0  0  0  0  0  0  0
   37.0180   30.9620   37.9960 C   0  0  0  0  0  0  0  0  0  0  0  0
   38.5330   30.1660   40.7970 H   0  0  0  0  0  0  0  0  0  0  0  0
   36.8130   30.8010   40.6040 H   0  0  0  0  0  0  0  0  0  0  0  0
   38.1340   28.5530   38.9710 H   0  0  0  0  0  0  0  0  0  0  0  0
   35.3690   29.8320   38.8710 H   0  0  0  0  0  0  0  0  0  0  0  0
   36.2860   28.9470   37.5350 H   0  0  0  0  0  0  0  0  0  0  0  0
   37.5290   30.8300   37.0010 H   0  0  0  0  0  0  0  0  0  0  0  0
   36.2850   31.7950   37.9860 H   0  0  0  0  0  0  0  0  0  0  0  0
   41.1570   32.7480   37.6230 C   0  0  0  0  0  0  0  0  0  0  0  0
   40.0870   31.8640   37.7170 C   0  0  0  0  0  0  0  0  0  0  0  0
   39.1870   31.9810   38.7640 C   0  0  0  0  0  0  0  0  0  0  0  0
   39.4040   32.9920   39.6810 N   0  0  0  0  0  0  0  0  0  0  0  0
   40.4570   33.8440   39.5690 C   0  0  0  0  0  0  0  0  0  0  0  0
   41.3350   33.7160   38.5310 N   0  0  0  0  0  0  0  0  0  0  0  0
   41.8420   32.6330   36.7950 H   0  0  0  0  0  0  0  0  0  0  0  0
   39.9060   31.0630   36.9990 H   0  0  0  0  0  0  0  0  0  0  0  0
   40.5390   34.6010   40.3370 H   0  0  0  0  0  0  0  0  0  0  0  0
   36.5290   28.2220   40.2650 N   0  0  0  0  0  0  0  0  0  0  0  0
   35.6800   28.6240   40.7690 H   0  0  0  0  0  0  0  0  0  0  0  0
   37.0490   26.3730   41.8150 C   0  0  0  0  0  0  0  0  0  0  0  0
   36.7070   26.8480   40.5670 C   0  0  0  0  0  0  0  0  0  0  0  0
   36.5380   25.8460   39.6350 C   0  0  0  0  0  0  0  0  0  0  0  0
   36.2580   26.0540   38.6140 H   0  0  0  0  0  0  0  0  0  0  0  0
   36.6870   24.5090   39.8860 C   0  0  0  0  0  0  0  0  0  0  0  0
   36.5490   23.7340   39.1360 H   0  0  0  0  0  0  0  0  0  0  0  0
   37.0280   24.0900   41.1420 C   0  0  0  0  0  3  0  0  0  0  0  0
   37.2070   25.0520   42.1060 C   0  0  0  0  0  3  0  0  0  0  0  0
   36.2750   27.8060   43.5580 N   0  0  0  0  0  0  0  0  0  0  0  0
   37.2600   27.2800   42.9140 C   0  0  0  0  0  0  0  0  0  0  0  0
   38.2620   27.9210   43.6760 N   0  0  0  0  0  0  0  0  0  0  0  0
   36.4010   28.4610   44.3470 H   0  0  0  0  0  0  0  0  0  0  0  0
   38.6450   27.6270   44.6000 H   0  0  0  0  0  0  0  0  0  0  0  0
   38.6790   28.7920   43.2800 H   0  0  0  0  0  0  0  0  0  0  0  0
  1  2  1  0  0  0  0
  2  7  1  0  0  0  0
  2  6  1  0  0  0  0
  3  8  1  6  0  0  0
  3  2  1  0  0  0  0
  3 22  1  0  0  0  0
  4  9  1  0  0  0  0
  4  3  1  0  0  0  0
  5  4  1  0  0  0  0
  5  1  1  0  0  0  0
 10  4  1  0  0  0  0
 11  5  1  0  0  0  0
 12  5  1  0  0  0  0
 13 14  2  0  0  0  0
 13 18  1  0  0  0  0
 14 15  1  0  0  0  0
 15  1  1  0  0  0  0
 15 16  2  0  0  0  0
 17 16  1  0  0  0  0
 17 21  1  0  0  0  0
 18 17  2  0  0  0  0
 19 13  1  0  0  0  0
 20 14  1  0  0  0  0
 22 25  1  0  0  0  0
 22 23  1  0  0  0  0
 24 31  1  0  0  0  0
 24 33  1  0  0  0  0
 25 24  2  0  0  0  0
 26 28  2  0  0  0  0
 26 25  1  0  0  0  0
 27 26  1  0  0  0  0
 28 30  1  0  0  0  0
 29 28  1  0  0  0  0
 30 31  2  0  0  0  0
 32 35  1  0  0  0  0
 33 32  2  0  0  0  0
 33 34  1  0  0  0  0
 34 36  1  0  0  0  0
 37 34  1  0  0  0  0
M  END
>  <minimizedAffinity>
-5.31075335

$$$$

 OpenBabel03242519043D

 37 39  0  0  1  0  0  0  0  0999 V2000
   36.6050   30.1190   38.6670 N   0  0  0  0  0  0  0  0  0  0  0  0
   37.0320   29.3530   39.8210 C   0  0  0  0  0  0  0  0  0  0  0  0
   36.5140   30.2460   40.9030 C   0  0  2  0  0  0  0  0  0  0  0  0
   37.0300   31.5950   40.4540 C   0  0  0  0  0  0  0  0  0  0  0  0
   36.9240   31.5040   38.9520 C   0  0  0  0  0  0  0  0  0  0  0  0
   36.5890   28.3730   39.8800 H   0  0  0  0  0  0  0  0  0  0  0  0
   38.1390   29.3710   39.8700 H   0  0  0  0  0  0  0  0  0  0  0  0
   35.4020   30.2400   40.9750 H   0  0  0  0  0  0  0  0  0  0  0  0
   38.0990   31.6480   40.7850 H   0  0  0  0  0  0  0  0  0  0  0  0
   36.4110   32.3880   40.8930 H   0  0  0  0  0  0  0  0  0  0  0  0
   36.0340   32.1110   38.6220 H   0  0  0  0  0  0  0  0  0  0  0  0
   37.8640   31.8350   38.4640 H   0  0  0  0  0  0  0  0  0  0  0  0
   35.8870   29.2170   35.1230 C   0  0  0  0  0  0  0  0  0  0  0  0
   36.6000   29.6700   36.2280 C   0  0  0  0  0  0  0  0  0  0  0  0
   35.9990   29.6880   37.4760 C   0  0  0  0  0  0  0  0  0  0  0  0
   34.6920   29.2470   37.5600 N   0  0  0  0  0  0  0  0  0  0  0  0
   34.0140   28.8100   36.4660 C   0  0  0  0  0  0  0  0  0  0  0  0
   34.6210   28.7970   35.2430 N   0  0  0  0  0  0  0  0  0  0  0  0
   36.3820   29.2140   34.1620 H   0  0  0  0  0  0  0  0  0  0  0  0
   37.6320   30.0200   36.1730 H   0  0  0  0  0  0  0  0  0  0  0  0
   32.9960   28.4860   36.6360 H   0  0  0  0  0  0  0  0  0  0  0  0
   37.0770   29.9560   42.1890 N   0  0  0  0  0  0  0  0  0  0  0  0
   36.5010   30.2100   43.0480 H   0  0  0  0  0  0  0  0  0  0  0  0
   38.4580   28.0500   42.9350 C   0  0  0  0  0  0  0  0  0  0  0  0
   38.3160   29.3680   42.5520 C   0  0  0  0  0  0  0  0  0  0  0  0
   39.5080   30.0590   42.5420 C   0  0  0  0  0  0  0  0  0  0  0  0
   39.5660   31.0980   42.2550 H   0  0  0  0  0  0  0  0  0  0  0  0
   40.7260   29.5280   42.8720 C   0  0  0  0  0  0  0  0  0  0  0  0
   41.6550   30.0910   42.8580 H   0  0  0  0  0  0  0  0  0  0  0  0
   40.8120   28.2150   43.2450 C   0  0  0  0  0  3  0  0  0  0  0  0
   39.6500   27.4840   43.2710 C   0  0  0  0  0  3  0  0  0  0  0  0
   36.2570   27.4870   43.6610 N   0  0  0  0  0  0  0  0  0  0  0  0
   37.3150   27.1750   42.9960 C   0  0  0  0  0  0  0  0  0  0  0  0
   36.8230   25.9270   42.5570 N   0  0  0  0  0  0  0  0  0  0  0  0
   35.4270   26.8750   43.7220 H   0  0  0  0  0  0  0  0  0  0  0  0
   36.1970   25.7390   41.7450 H   0  0  0  0  0  0  0  0  0  0  0  0
   37.1100   25.0820   43.0990 H   0  0  0  0  0  0  0  0  0  0  0  0
  1  5  1  0  0  0  0
  1  2  1  0  0  0  0
  2  7  1  0  0  0  0
  2  6  1  0  0  0  0
  2  3  1  0  0  0  0
  3  8  1  1  0  0  0
  3 22  1  0  0  0  0
  4  9  1  0  0  0  0
  4 10  1  0  0  0  0
  4  3  1  0  0  0  0
  5  4  1  0  0  0  0
 11  5  1  0  0  0  0
 12  5  1  0  0  0  0
 13 18  2  0  0  0  0
 13 14  1  0  0  0  0
 14 15  2  0  0  0  0
 15 16  1  0  0  0  0
 15  1  1  0  0  0  0
 17 21  1  0  0  0  0
 17 16  2  0  0  0  0
 18 17  1  0  0  0  0
 19 13  1  0  0  0  0
 20 14  1  0  0  0  0
 22 25  1  0  0  0  0
 22 23  1  0  0  0  0
 24 33  1  0  0  0  0
 24 31  1  0  0  0  0
 25 24  2  0  0  0  0
 26 25  1  0  0  0  0
 26 28  2  0  0  0  0
 27 26  1  0  0  0  0
 28 30  1  0  0  0  0
 29 28  1  0  0  0  0
 30 31  2  0  0  0  0
 32 35  1  0  0  0  0
 33 32  2  0  0  0  0
 34 33  1  0  0  0  0
 34 37  1  0  0  0  0
 36 34  1  0  0  0  0
M  END
>  <minimizedAffinity>
-5.27684546

$$$$

 OpenBabel03242519043D

 37 39  0  0  1  0  0  0  0  0999 V2000
   38.3080   26.4320   41.9940 N   0  0  0  0  0  0  0  0  0  0  0  0
   37.6880   27.7320   41.8280 C   0  0  0  0  0  0  0  0  0  0  0  0
   38.9000   28.5940   41.9760 C   0  0  2  0  0  0  0  0  0  0  0  0
   39.5220   28.0270   43.2340 C   0  0  0  0  0  0  0  0  0  0  0  0
   39.2230   26.5540   43.1130 C   0  0  0  0  0  0  0  0  0  0  0  0
   37.2260   27.8730   40.8650 H   0  0  0  0  0  0  0  0  0  0  0  0
   37.0280   27.9250   42.6970 H   0  0  0  0  0  0  0  0  0  0  0  0
   39.5970   28.5170   41.1100 H   0  0  0  0  0  0  0  0  0  0  0  0
   38.9680   28.4870   44.0920 H   0  0  0  0  0  0  0  0  0  0  0  0
   40.5950   28.2590   43.2480 H   0  0  0  0  0  0  0  0  0  0  0  0
   40.1690   26.0230   42.8090 H   0  0  0  0  0  0  0  0  0  0  0  0
   38.7980   26.1530   44.0560 H   0  0  0  0  0  0  0  0  0  0  0  0
   36.9100   23.3170   40.5010 C   0  0  0  0  0  0  0  0  0  0  0  0
   36.9690   24.4740   41.2700 C   0  0  0  0  0  0  0  0  0  0  0  0
   38.1190   25.2460   41.2670 C   0  0  0  0  0  0  0  0  0  0  0  0
   39.1730   24.8150   40.4840 N   0  0  0  0  0  0  0  0  0  0  0  0
   39.0940   23.6790   39.7420 C   0  0  0  0  0  0  0  0  0  0  0  0
   37.9520   22.9300   39.7540 N   0  0  0  0  0  0  0  0  0  0  0  0
   35.9990   22.7360   40.5230 H   0  0  0  0  0  0  0  0  0  0  0  0
   36.1430   24.8240   41.8910 H   0  0  0  0  0  0  0  0  0  0  0  0
   39.9720   23.4280   39.1630 H   0  0  0  0  0  0  0  0  0  0  0  0
   38.5850   29.9720   42.2150 N   0  0  0  0  0  0  0  0  0  0  0  0
   38.1610   30.2240   43.1590 H   0  0  0  0  0  0  0  0  0  0  0  0
   37.7650   31.5780   40.5290 C   0  0  0  0  0  0  0  0  0  0  0  0
   38.7370   31.1180   41.3930 C   0  0  0  0  0  0  0  0  0  0  0  0
   39.8740   31.8970   41.3910 C   0  0  0  0  0  0  0  0  0  0  0  0
   40.7210   31.6750   42.0220 H   0  0  0  0  0  0  0  0  0  0  0  0
   40.0570   33.0160   40.6260 C   0  0  0  0  0  0  0  0  0  0  0  0
   40.9620   33.6170   40.6390 H   0  0  0  0  0  0  0  0  0  0  0  0
   39.0610   33.4300   39.7840 C   0  0  0  0  0  3  0  0  0  0  0  0
   37.9080   32.6860   39.7500 C   0  0  0  0  0  3  0  0  0  0  0  0
   35.6250   30.9110   41.3460 N   0  0  0  0  0  0  0  0  0  0  0  0
   36.5060   30.8900   40.4050 C   0  0  0  0  0  0  0  0  0  0  0  0
   35.7420   30.0770   39.5390 N   0  0  0  0  0  0  0  0  0  0  0  0
   34.7170   30.4230   41.2810 H   0  0  0  0  0  0  0  0  0  0  0  0
   34.9830   30.3760   38.8890 H   0  0  0  0  0  0  0  0  0  0  0  0
   35.9490   29.0540   39.5360 H   0  0  0  0  0  0  0  0  0  0  0  0
  1  5  1  0  0  0  0
  2  3  1  0  0  0  0
  2  1  1  0  0  0  0
  2  7  1  0  0  0  0
  3  8  1  6  0  0  0
  3 22  1  0  0  0  0
  3  4  1  0  0  0  0
  4 10  1  0  0  0  0
  4  9  1  0  0  0  0
  5  4  1  0  0  0  0
  5 12  1  0  0  0  0
  6  2  1  0  0  0  0
 11  5  1  0  0  0  0
 13 19  1  0  0  0  0
 13 14  1  0  0  0  0
 14 20  1  0  0  0  0
 15 14  2  0  0  0  0
 15  1  1  0  0  0  0
 16 15  1  0  0  0  0
 17 18  1  0  0  0  0
 17 16  2  0  0  0  0
 18 13  2  0  0  0  0
 21 17  1  0  0  0  0
 22 23  1  0  0  0  0
 24 25  1  0  0  0  0
 25 22  1  0  0  0  0
 26 25  2  0  0  0  0
 26 27  1  0  0  0  0
 28 29  1  0  0  0  0
 28 26  1  0  0  0  0
 30 28  2  0  0  0  0
 31 30  1  0  0  0  0
 31 24  2  0  0  0  0
 33 24  1  0  0  0  0
 33 32  2  0  0  0  0
 34 33  1  0  0  0  0
 35 32  1  0  0  0  0
 36 34  1  0  0  0  0
 37 34  1  0  0  0  0
M  END
>  <minimizedAffinity>
-5.22818089

$$$$
