
 OpenBabel03242511133D

 49 53  0  0  1  0  0  0  0  0999 V2000
   50.2590   31.8220   42.1800 C   0  0  1  0  0  0  0  0  0  0  0  0
   49.6350   31.9260   40.7970 C   0  0  0  0  0  0  0  0  0  0  0  0
   48.7970   31.8400   42.0880 C   0  0  2  0  0  0  0  0  0  0  0  0
   50.7270   32.7320   42.5750 H   0  0  0  0  0  0  0  0  0  0  0  0
   49.7270   31.0340   40.1770 H   0  0  0  0  0  0  0  0  0  0  0  0
   49.6600   32.9170   40.2890 H   0  0  0  0  0  0  0  0  0  0  0  0
   48.1660   30.9270   42.1280 H   0  0  0  0  0  0  0  0  0  0  0  0
   51.3670   28.2960   42.1730 C   0  0  0  0  0  0  0  0  0  0  0  0
   52.2820   28.2800   43.2850 C   0  0  0  0  0  0  0  0  0  0  0  0
   52.4860   29.4770   43.9920 C   0  0  0  0  0  0  0  0  0  0  0  0
   51.8240   30.5490   43.5910 N   0  0  0  0  0  0  0  0  0  0  0  0
   50.9730   30.5550   42.5530 C   0  0  0  0  0  0  0  0  0  0  0  0
   50.7350   29.4230   41.8300 N   0  0  0  0  0  0  0  0  0  0  0  0
   51.1660   27.4130   41.5910 H   0  0  0  0  0  0  0  0  0  0  0  0
   52.7020   27.3270   43.4350 H   0  0  0  0  0  0  0  0  0  0  0  0
   54.7730   29.5570   44.9370 C   0  0  0  0  0  0  0  0  0  0  0  0
   53.4140   29.4180   45.1030 C   0  0  0  0  0  0  0  0  0  0  0  0
   53.0310   29.2250   46.4040 C   0  0  0  0  0  0  0  0  0  0  0  0
   52.0060   29.1020   46.6830 H   0  0  0  0  0  0  0  0  0  0  0  0
   53.9270   29.1750   47.4420 C   0  0  0  0  0  0  0  0  0  0  0  0
   53.6000   29.0210   48.4560 H   0  0  0  0  0  0  0  0  0  0  0  0
   55.2750   29.3150   47.2510 C   0  0  0  0  0  3  0  0  0  0  0  0
   55.7100   29.5120   45.9660 C   0  0  0  0  0  3  0  0  0  0  0  0
   55.5060   29.4940   42.4020 N   0  0  0  0  0  0  0  0  0  0  0  0
   55.3770   29.7530   43.6420 C   0  0  0  0  0  0  0  0  0  0  0  0
   56.4040   30.7210   43.4330 N   0  0  0  0  0  0  0  0  0  0  0  0
   56.2100   30.0360   41.8750 H   0  0  0  0  0  0  0  0  0  0  0  0
   56.8070   31.6290   43.0720 H   0  0  0  0  0  0  0  0  0  0  0  0
   57.3890   30.6330   43.7700 H   0  0  0  0  0  0  0  0  0  0  0  0
   48.1030   33.0290   42.4940 N   0  0  0  0  0  0  0  0  0  0  0  0
   48.3630   33.7290   41.7700 H   0  0  0  0  0  0  0  0  0  0  0  0
   47.3130   33.0800   43.6540 C   0  0  0  0  0  0  0  0  0  0  0  0
   47.5040   32.1490   44.6380 C   0  0  0  0  0  0  0  0  0  0  0  0
   46.8120   32.1720   45.8410 C   0  0  0  0  0  0  0  0  0  0  0  0
   45.8840   33.1600   46.0960 C   0  0  0  0  0  0  0  0  0  0  0  0
   45.6730   34.1080   45.1220 C   0  0  0  0  0  0  0  0  0  0  0  0
   44.7520   35.1140   45.3630 C   0  0  0  0  0  0  0  0  0  0  0  0
   44.5030   36.0840   44.4470 C   0  0  0  0  0  0  0  0  0  0  0  0
   45.2120   36.0220   43.2520 C   0  0  0  0  0  0  0  0  0  0  0  0
   46.1170   35.0270   43.0230 C   0  0  0  0  0  0  0  0  0  0  0  0
   46.3750   34.0530   43.9380 C   0  0  0  0  0  0  0  0  0  0  0  0
   48.1990   31.3370   44.5500 H   0  0  0  0  0  0  0  0  0  0  0  0
   46.9600   31.4440   46.6140 H   0  0  0  0  0  0  0  0  0  0  0  0
   45.3150   33.2280   47.0200 H   0  0  0  0  0  0  0  0  0  0  0  0
   44.1900   35.1750   46.2870 H   0  0  0  0  0  0  0  0  0  0  0  0
   43.7900   36.8910   44.5960 H   0  0  0  0  0  0  0  0  0  0  0  0
   45.0170   36.7990   42.5070 H   0  0  0  0  0  0  0  0  0  0  0  0
   46.7820   35.0110   41.8230 O   0  0  0  0  0  0  0  0  0  0  0  0
   47.1960   35.8900   41.5230 H   0  0  0  0  0  0  0  0  0  0  0  0
  1 12  1  0  0  0  0
  1  4  1  1  0  0  0
  2  3  1  0  0  0  0
  2  1  1  0  0  0  0
  3  7  1  1  0  0  0
  3  1  1  0  0  0  0
  3 30  1  0  0  0  0
  5  2  1  0  0  0  0
  6  2  1  0  0  0  0
  8  9  1  0  0  0  0
  9 15  1  0  0  0  0
  9 10  2  0  0  0  0
 10 17  1  0  0  0  0
 11 10  1  0  0  0  0
 12 11  2  0  0  0  0
 13  8  2  0  0  0  0
 13 12  1  0  0  0  0
 14  8  1  0  0  0  0
 16 17  2  0  0  0  0
 16 23  1  0  0  0  0
 17 18  1  0  0  0  0
 18 19  1  0  0  0  0
 18 20  2  0  0  0  0
 20 21  1  0  0  0  0
 22 20  1  0  0  0  0
 23 22  2  0  0  0  0
 24 25  2  0  0  0  0
 25 16  1  0  0  0  0
 26 25  1  0  0  0  0
 26 29  1  0  0  0  0
 27 24  1  0  0  0  0
 28 26  1  0  0  0  0
 30 32  1  0  0  0  0
 31 30  1  0  0  0  0
 32 41  2  0  0  0  0
 32 33  1  0  0  0  0
 33 34  2  0  0  0  0
 34 35  1  0  0  0  0
 34 43  1  0  0  0  0
 35 44  1  0  0  0  0
 36 37  1  0  0  0  0
 36 35  2  0  0  0  0
 37 45  1  0  0  0  0
 38 46  1  0  0  0  0
 38 37  2  0  0  0  0
 39 38  1  0  0  0  0
 40 39  2  0  0  0  0
 40 41  1  0  0  0  0
 41 36  1  0  0  0  0
 42 33  1  0  0  0  0
 47 39  1  0  0  0  0
 48 40  1  0  0  0  0
 49 48  1  0  0  0  0
M  END
>  <minimizedAffinity>
-5.28065205

>  <minimizedRMSD>
1.24386024

$$$$
