
 OpenBabel03242511133D

 49 53  0  0  1  0  0  0  0  0999 V2000
   50.2350   31.8120   42.1550 C   0  0  1  0  0  0  0  0  0  0  0  0
   49.6070   31.9330   40.7750 C   0  0  0  0  0  0  0  0  0  0  0  0
   48.7740   31.8450   42.0690 C   0  0  2  0  0  0  0  0  0  0  0  0
   50.7140   32.7160   42.5550 H   0  0  0  0  0  0  0  0  0  0  0  0
   49.6890   31.0450   40.1480 H   0  0  0  0  0  0  0  0  0  0  0  0
   49.6390   32.9280   40.2740 H   0  0  0  0  0  0  0  0  0  0  0  0
   48.1350   30.9370   42.1050 H   0  0  0  0  0  0  0  0  0  0  0  0
   51.3250   28.2810   42.1060 C   0  0  0  0  0  0  0  0  0  0  0  0
   52.2300   28.2440   43.2240 C   0  0  0  0  0  0  0  0  0  0  0  0
   52.4350   29.4300   43.9500 C   0  0  0  0  0  0  0  0  0  0  0  0
   51.7830   30.5110   43.5590 N   0  0  0  0  0  0  0  0  0  0  0  0
   50.9400   30.5370   42.5140 C   0  0  0  0  0  0  0  0  0  0  0  0
   50.7020   29.4170   41.7740 N   0  0  0  0  0  0  0  0  0  0  0  0
   51.1230   27.4080   41.5090 H   0  0  0  0  0  0  0  0  0  0  0  0
   52.6440   27.2860   43.3630 H   0  0  0  0  0  0  0  0  0  0  0  0
   54.7020   29.5950   44.9320 C   0  0  0  0  0  0  0  0  0  0  0  0
   53.3540   29.3490   45.0670 C   0  0  0  0  0  0  0  0  0  0  0  0
   52.9740   29.0300   46.3430 C   0  0  0  0  0  0  0  0  0  0  0  0
   51.9580   28.8160   46.5980 H   0  0  0  0  0  0  0  0  0  0  0  0
   53.8600   28.9640   47.3880 C   0  0  0  0  0  0  0  0  0  0  0  0
   53.5350   28.7100   48.3830 H   0  0  0  0  0  0  0  0  0  0  0  0
   55.1970   29.2130   47.2290 C   0  0  0  0  0  3  0  0  0  0  0  0
   55.6300   29.5360   45.9690 C   0  0  0  0  0  3  0  0  0  0  0  0
   55.3490   29.9110   42.3940 N   0  0  0  0  0  0  0  0  0  0  0  0
   55.3030   29.9320   43.6650 C   0  0  0  0  0  0  0  0  0  0  0  0
   56.4960   30.7100   43.5840 N   0  0  0  0  0  0  0  0  0  0  0  0
   56.1340   30.4040   41.9380 H   0  0  0  0  0  0  0  0  0  0  0  0
   57.0620   31.5800   43.3830 H   0  0  0  0  0  0  0  0  0  0  0  0
   57.4510   30.3710   43.8360 H   0  0  0  0  0  0  0  0  0  0  0  0
   48.0920   33.0370   42.4870 N   0  0  0  0  0  0  0  0  0  0  0  0
   48.3560   33.7400   41.7680 H   0  0  0  0  0  0  0  0  0  0  0  0
   47.3050   33.0850   43.6490 C   0  0  0  0  0  0  0  0  0  0  0  0
   47.5010   32.1520   44.6310 C   0  0  0  0  0  0  0  0  0  0  0  0
   46.8130   32.1730   45.8370 C   0  0  0  0  0  0  0  0  0  0  0  0
   45.8860   33.1600   46.0970 C   0  0  0  0  0  0  0  0  0  0  0  0
   45.6700   34.1100   45.1250 C   0  0  0  0  0  0  0  0  0  0  0  0
   44.7500   35.1140   45.3710 C   0  0  0  0  0  0  0  0  0  0  0  0
   44.4970   36.0870   44.4580 C   0  0  0  0  0  0  0  0  0  0  0  0
   45.2020   36.0270   43.2610 C   0  0  0  0  0  0  0  0  0  0  0  0
   46.1070   35.0330   43.0260 C   0  0  0  0  0  0  0  0  0  0  0  0
   46.3680   34.0580   43.9390 C   0  0  0  0  0  0  0  0  0  0  0  0
   48.1950   31.3410   44.5390 H   0  0  0  0  0  0  0  0  0  0  0  0
   46.9640   31.4440   46.6080 H   0  0  0  0  0  0  0  0  0  0  0  0
   45.3190   33.2260   47.0220 H   0  0  0  0  0  0  0  0  0  0  0  0
   44.1910   35.1740   46.2970 H   0  0  0  0  0  0  0  0  0  0  0  0
   43.7850   36.8930   44.6110 H   0  0  0  0  0  0  0  0  0  0  0  0
   45.0040   36.8060   42.5170 H   0  0  0  0  0  0  0  0  0  0  0  0
   46.7680   35.0190   41.8240 O   0  0  0  0  0  0  0  0  0  0  0  0
   47.1810   35.8990   41.5250 H   0  0  0  0  0  0  0  0  0  0  0  0
  1 12  1  0  0  0  0
  1  4  1  1  0  0  0
  2  3  1  0  0  0  0
  2  1  1  0  0  0  0
  3  7  1  1  0  0  0
  3  1  1  0  0  0  0
  3 30  1  0  0  0  0
  5  2  1  0  0  0  0
  6  2  1  0  0  0  0
  8  9  1  0  0  0  0
  9 15  1  0  0  0  0
  9 10  2  0  0  0  0
 10 17  1  0  0  0  0
 11 10  1  0  0  0  0
 12 11  2  0  0  0  0
 13  8  2  0  0  0  0
 13 12  1  0  0  0  0
 14  8  1  0  0  0  0
 16 17  2  0  0  0  0
 16 23  1  0  0  0  0
 17 18  1  0  0  0  0
 18 19  1  0  0  0  0
 18 20  2  0  0  0  0
 20 21  1  0  0  0  0
 22 20  1  0  0  0  0
 23 22  2  0  0  0  0
 24 25  2  0  0  0  0
 25 16  1  0  0  0  0
 26 25  1  0  0  0  0
 26 29  1  0  0  0  0
 27 24  1  0  0  0  0
 28 26  1  0  0  0  0
 30 32  1  0  0  0  0
 31 30  1  0  0  0  0
 32 41  2  0  0  0  0
 32 33  1  0  0  0  0
 33 34  2  0  0  0  0
 34 35  1  0  0  0  0
 34 43  1  0  0  0  0
 35 44  1  0  0  0  0
 36 37  1  0  0  0  0
 36 35  2  0  0  0  0
 37 45  1  0  0  0  0
 38 46  1  0  0  0  0
 38 37  2  0  0  0  0
 39 38  1  0  0  0  0
 40 39  2  0  0  0  0
 40 41  1  0  0  0  0
 41 36  1  0  0  0  0
 42 33  1  0  0  0  0
 47 39  1  0  0  0  0
 48 40  1  0  0  0  0
 49 48  1  0  0  0  0
M  END
>  <minimizedAffinity>
-5.35437536

>  <minimizedRMSD>
0.389695734

$$$$
