
 OpenBabel03242523113D

 51 55  0  0  1  0  0  0  0  0999 V2000
   46.0060   31.7090   45.0230 C   0  0  0  0  0  0  0  0  0  0  0  0
   46.6720   32.6770   44.2440 C   0  0  0  0  0  0  0  0  0  0  0  0
   47.8580   32.1880   43.7510 C   0  0  0  0  0  0  0  0  0  0  0  0
   48.3620   30.9410   43.9630 C   0  0  0  0  0  0  0  0  0  0  0  0
   47.6390   30.0480   44.7490 C   0  0  0  0  0  0  0  0  0  0  0  0
   46.4470   30.4400   45.2840 C   0  0  0  0  0  0  0  0  0  0  0  0
   48.4080   28.8970   44.7760 O   0  0  0  0  0  0  0  0  0  0  0  0
   49.5530   29.0410   43.9440 C   0  0  2  0  0  0  0  0  0  0  0  0
   49.5430   30.4050   43.4870 O   0  0  0  0  0  0  0  0  0  0  0  0
   45.0300   31.7770   45.5500 H   0  0  0  0  0  0  0  0  0  0  0  0
   48.3680   32.8910   43.1690 H   0  0  0  0  0  0  0  0  0  0  0  0
   45.9890   29.6810   45.8590 H   0  0  0  0  0  0  0  0  0  0  0  0
   50.4830   28.9860   44.5540 H   0  0  0  0  0  0  0  0  0  0  0  0
   45.1240   36.0100   43.5160 C   0  0  0  0  0  0  0  0  0  0  0  0
   45.8860   34.8730   43.2380 C   0  0  0  0  0  0  0  0  0  0  0  0
   46.0120   33.9100   44.1920 C   0  0  0  0  0  0  0  0  0  0  0  0
   45.3760   34.1200   45.3830 N   0  0  0  0  0  0  0  0  0  0  0  0
   44.6470   35.2110   45.6450 C   0  0  0  0  0  0  0  0  0  0  0  0
   44.5280   36.1350   44.7230 N   0  0  0  0  0  0  0  0  0  0  0  0
   45.0200   36.7840   42.7500 H   0  0  0  0  0  0  0  0  0  0  0  0
   44.1210   35.4400   46.5600 H   0  0  0  0  0  0  0  0  0  0  0  0
   46.5030   34.8030   41.9890 N   0  0  0  0  0  0  0  0  0  0  0  0
   47.8370   35.2700   41.7820 C   0  0  0  0  0  0  0  0  0  0  0  0
   48.4080   34.9680   40.4300 C   0  0  0  0  0  0  0  0  0  0  0  0
   48.0860   33.7040   39.9170 N   0  0  0  0  0  0  0  0  0  0  0  0
   46.7860   33.2720   40.0910 C   0  0  0  0  0  0  0  0  0  0  0  0
   45.9300   34.2940   40.8100 C   0  0  0  0  0  0  0  0  0  0  0  0
   48.5440   34.9640   42.5790 H   0  0  0  0  0  0  0  0  0  0  0  0
   47.7840   36.3950   41.8590 H   0  0  0  0  0  0  0  0  0  0  0  0
   49.5240   35.0500   40.5120 H   0  0  0  0  0  0  0  0  0  0  0  0
   48.1190   35.7530   39.7060 H   0  0  0  0  0  0  0  0  0  0  0  0
   48.5050   33.5930   38.9890 H   0  0  0  0  0  0  0  0  0  0  0  0
   46.2930   33.1360   39.0850 H   0  0  0  0  0  0  0  0  0  0  0  0
   46.7330   32.2770   40.5590 H   0  0  0  0  0  0  0  0  0  0  0  0
   45.7730   35.1430   40.1020 H   0  0  0  0  0  0  0  0  0  0  0  0
   44.9260   33.8720   40.9990 H   0  0  0  0  0  0  0  0  0  0  0  0
   49.4320   28.1920   42.8910 O   0  0  0  0  0  0  0  0  0  0  0  0
   50.4520   28.2900   40.6090 C   0  0  0  0  0  0  0  0  0  0  0  0
   50.0240   27.7810   41.8010 C   0  0  0  0  0  0  0  0  0  0  0  0
   50.2620   26.4060   41.9680 C   0  0  0  0  0  0  0  0  0  0  0  0
   50.0380   25.7200   42.7990 H   0  0  0  0  0  0  0  0  0  0  0  0
   50.8910   25.6580   40.9670 C   0  0  0  0  0  0  0  0  0  0  0  0
   51.1210   24.6030   40.9910 H   0  0  0  0  0  0  0  0  0  0  0  0
   51.2940   26.2470   39.7920 C   0  0  0  0  0  3  0  0  0  0  0  0
   51.0760   27.5920   39.5980 C   0  0  0  0  0  3  0  0  0  0  0  0
   51.0990   30.2880   39.5990 N   0  0  0  0  0  0  0  0  0  0  0  0
   50.2160   29.6820   40.3490 C   0  0  0  0  0  0  0  0  0  0  0  0
   49.4760   30.8680   40.4550 N   0  0  0  0  0  0  0  0  0  0  0  0
   51.0220   31.2880   39.3390 H   0  0  0  0  0  0  0  0  0  0  0  0
   48.6660   31.1330   39.8360 H   0  0  0  0  0  0  0  0  0  0  0  0
   49.5950   31.6490   41.1340 H   0  0  0  0  0  0  0  0  0  0  0  0
  1  6  1  0  0  0  0
  1 10  1  0  0  0  0
  2  1  2  0  0  0  0
  3  4  2  0  0  0  0
  3  2  1  0  0  0  0
  4  5  1  0  0  0  0
  5  7  1  0  0  0  0
  5  6  2  0  0  0  0
  6 12  1  0  0  0  0
  8 13  1  1  0  0  0
  8  7  1  0  0  0  0
  9  8  1  0  0  0  0
  9  4  1  0  0  0  0
 11  3  1  0  0  0  0
 14 19  1  0  0  0  0
 15 14  2  0  0  0  0
 15 16  1  0  0  0  0
 16  2  1  0  0  0  0
 16 17  2  0  0  0  0
 17 18  1  0  0  0  0
 18 21  1  0  0  0  0
 19 18  2  0  0  0  0
 20 14  1  0  0  0  0
 22 15  1  0  0  0  0
 23 29  1  0  0  0  0
 23 22  1  0  0  0  0
 23 28  1  0  0  0  0
 24 30  1  0  0  0  0
 24 23  1  0  0  0  0
 25 26  1  0  0  0  0
 25 24  1  0  0  0  0
 26 34  1  0  0  0  0
 26 27  1  0  0  0  0
 27 36  1  0  0  0  0
 27 22  1  0  0  0  0
 31 24  1  0  0  0  0
 32 25  1  0  0  0  0
 33 26  1  0  0  0  0
 35 27  1  0  0  0  0
 37  8  1  0  0  0  0
 38 39  1  0  0  0  0
 39 40  2  0  0  0  0
 39 37  1  0  0  0  0
 40 41  1  0  0  0  0
 42 43  1  0  0  0  0
 42 40  1  0  0  0  0
 44 42  2  0  0  0  0
 45 44  1  0  0  0  0
 45 38  2  0  0  0  0
 46 47  2  0  0  0  0
 47 48  1  0  0  0  0
 47 38  1  0  0  0  0
 48 51  1  0  0  0  0
 49 46  1  0  0  0  0
 50 48  1  0  0  0  0
M  END
>  <minimizedAffinity>
-4.53493452

>  <minimizedRMSD>
1.33237243

$$$$
