
 OpenBabel03242515583D

 42 45  0  0  0  0  0  0  0  0999 V2000
   36.9400   26.5240   39.8010 C   0  0  0  0  0  0  0  0  0  0  0  0
   36.6650   25.1350   39.9060 C   0  0  0  0  0  0  0  0  0  0  0  0
   36.6680   24.4460   41.0940 C   0  0  0  0  0  0  0  0  0  0  0  0
   36.9400   25.0800   42.2490 C   0  0  0  0  0  0  0  0  0  0  0  0
   37.2210   26.4490   42.2120 C   0  0  0  0  0  0  0  0  0  0  0  0
   37.4930   27.0540   43.4040 C   0  0  0  0  0  0  0  0  0  0  0  0
   37.7750   28.3880   43.4340 C   0  0  0  0  0  0  0  0  0  0  0  0
   37.7690   29.0660   42.2200 C   0  0  0  0  0  0  0  0  0  0  0  0
   37.4900   28.3940   41.0850 C   0  0  0  0  0  0  0  0  0  0  0  0
   37.2100   27.0990   41.0110 C   0  0  0  0  0  0  0  0  0  0  0  0
   36.4400   24.5820   39.0090 H   0  0  0  0  0  0  0  0  0  0  0  0
   36.4470   23.3900   41.0910 H   0  0  0  0  0  0  0  0  0  0  0  0
   36.9370   24.5200   43.1740 H   0  0  0  0  0  0  0  0  0  0  0  0
   37.4820   26.4550   44.3360 H   0  0  0  0  0  0  0  0  0  0  0  0
   37.9820   28.7910   44.4420 H   0  0  0  0  0  0  0  0  0  0  0  0
   37.9990   30.1140   42.4490 H   0  0  0  0  0  0  0  0  0  0  0  0
   38.2230   27.5170   36.5960 C   0  0  0  0  0  0  0  0  0  0  0  0
   37.1700   28.3200   36.0630 C   0  0  0  0  0  0  0  0  0  0  0  0
   35.9950   28.5250   36.8340 C   0  0  0  0  0  0  0  0  0  0  0  0
   35.9640   27.9320   38.0340 N   0  0  0  0  0  0  0  0  0  0  0  0
   36.9020   27.2020   38.5350 C   0  0  0  0  0  0  0  0  0  0  0  0
   38.0200   27.0120   37.7950 N   0  0  0  0  0  0  0  0  0  0  0  0
   39.1160   27.3640   36.0050 H   0  0  0  0  0  0  0  0  0  0  0  0
   35.2440   29.1330   36.3850 H   0  0  0  0  0  0  0  0  0  0  0  0
   37.4020   28.8550   34.7680 N   0  0  0  0  0  0  0  0  0  0  0  0
   37.1120   28.1150   34.0810 H   0  0  0  0  0  0  0  0  0  0  0  0
   37.7800   29.7840   34.4760 H   0  0  0  0  0  0  0  0  0  0  0  0
   37.5660   29.3080   40.0670 O   0  0  0  0  0  0  0  0  0  0  0  0
   38.5190   31.4560   39.7420 C   0  0  0  0  0  0  0  0  0  0  0  0
   38.6800   30.0680   39.7160 C   0  0  0  0  0  0  0  0  0  0  0  0
   39.9150   29.5800   39.3540 C   0  0  0  0  0  0  0  0  0  0  0  0
   40.0140   28.5100   39.3420 H   0  0  0  0  0  0  0  0  0  0  0  0
   40.9570   30.4210   39.0270 C   0  0  0  0  0  0  0  0  0  0  0  0
   41.9130   29.9730   38.7480 H   0  0  0  0  0  0  0  0  0  0  0  0
   40.7940   31.7910   39.0540 C   0  0  0  0  0  3  0  0  0  0  0  0
   39.5560   32.2990   39.4180 C   0  0  0  0  0  3  0  0  0  0  0  0
   36.2750   31.7880   40.7790 N   0  0  0  0  0  0  0  0  0  0  0  0
   37.3100   32.1910   40.1160 C   0  0  0  0  0  0  0  0  0  0  0  0
   36.9960   33.5410   39.8290 N   0  0  0  0  0  0  0  0  0  0  0  0
   36.2800   30.8040   41.1030 H   0  0  0  0  0  0  0  0  0  0  0  0
   36.9760   34.4700   40.3030 H   0  0  0  0  0  0  0  0  0  0  0  0
   36.6910   33.5850   38.8160 H   0  0  0  0  0  0  0  0  0  0  0  0
  1  2  2  0  0  0  0
  1 10  1  0  0  0  0
  2  3  1  0  0  0  0
  3  4  2  0  0  0  0
  4 13  1  0  0  0  0
  5  4  1  0  0  0  0
  5  6  1  0  0  0  0
  6  7  2  0  0  0  0
  6 14  1  0  0  0  0
  7 15  1  0  0  0  0
  8 16  1  0  0  0  0
  8  7  1  0  0  0  0
  9  8  2  0  0  0  0
 10  9  1  0  0  0  0
 10  5  2  0  0  0  0
 11  2  1  0  0  0  0
 12  3  1  0  0  0  0
 17 22  1  0  0  0  0
 18 17  2  0  0  0  0
 18 19  1  0  0  0  0
 19 20  2  0  0  0  0
 20 21  1  0  0  0  0
 21  1  1  0  0  0  0
 22 21  2  0  0  0  0
 23 17  1  0  0  0  0
 24 19  1  0  0  0  0
 25 18  1  0  0  0  0
 26 25  1  0  0  0  0
 27 25  1  0  0  0  0
 28  9  1  0  0  0  0
 29 38  1  0  0  0  0
 30 29  1  0  0  0  0
 30 28  1  0  0  0  0
 31 30  2  0  0  0  0
 32 31  1  0  0  0  0
 33 35  2  0  0  0  0
 33 31  1  0  0  0  0
 34 33  1  0  0  0  0
 35 36  1  0  0  0  0
 36 29  2  0  0  0  0
 37 40  1  0  0  0  0
 38 37  2  0  0  0  0
 39 38  1  0  0  0  0
 39 41  1  0  0  0  0
 42 39  1  0  0  0  0
M  END
>  <minimizedAffinity>
-7.05580091

$$$$

 OpenBabel03242515583D

 42 45  0  0  0  0  0  0  0  0999 V2000
   39.7180   27.5080   42.5430 C   0  0  0  0  0  0  0  0  0  0  0  0
   40.6320   26.8060   43.3730 C   0  0  0  0  0  0  0  0  0  0  0  0
   40.5610   25.4560   43.6130 C   0  0  0  0  0  0  0  0  0  0  0  0
   39.5880   24.7140   43.0530 C   0  0  0  0  0  0  0  0  0  0  0  0
   38.6550   25.3460   42.2260 C   0  0  0  0  0  0  0  0  0  0  0  0
   37.6850   24.5600   41.6790 C   0  0  0  0  0  0  0  0  0  0  0  0
   36.7450   25.1170   40.8630 C   0  0  0  0  0  0  0  0  0  0  0  0
   36.8340   26.4860   40.6350 C   0  0  0  0  0  0  0  0  0  0  0  0
   37.8240   27.1940   41.2140 C   0  0  0  0  0  0  0  0  0  0  0  0
   38.7590   26.6910   42.0120 C   0  0  0  0  0  0  0  0  0  0  0  0
   41.4310   27.3550   43.8440 H   0  0  0  0  0  0  0  0  0  0  0  0
   41.2960   24.9970   44.2570 H   0  0  0  0  0  0  0  0  0  0  0  0
   39.5500   23.6530   43.2550 H   0  0  0  0  0  0  0  0  0  0  0  0
   37.6710   23.4750   41.9030 H   0  0  0  0  0  0  0  0  0  0  0  0
   36.0010   24.4040   40.4660 H   0  0  0  0  0  0  0  0  0  0  0  0
   36.0140   26.7400   39.9520 H   0  0  0  0  0  0  0  0  0  0  0  0
   41.0000   30.4260   40.8870 C   0  0  0  0  0  0  0  0  0  0  0  0
   40.3350   31.4950   41.5590 C   0  0  0  0  0  0  0  0  0  0  0  0
   39.4280   31.1960   42.6110 C   0  0  0  0  0  0  0  0  0  0  0  0
   39.2620   29.8990   42.8980 N   0  0  0  0  0  0  0  0  0  0  0  0
   39.8510   28.9180   42.3050 C   0  0  0  0  0  0  0  0  0  0  0  0
   40.7150   29.2100   41.3040 N   0  0  0  0  0  0  0  0  0  0  0  0
   41.6900   30.6590   40.0880 H   0  0  0  0  0  0  0  0  0  0  0  0
   38.9620   32.0340   43.0760 H   0  0  0  0  0  0  0  0  0  0  0  0
   40.6500   32.8010   41.0980 N   0  0  0  0  0  0  0  0  0  0  0  0
   40.0160   32.9920   40.2820 H   0  0  0  0  0  0  0  0  0  0  0  0
   41.3520   33.4910   41.4440 H   0  0  0  0  0  0  0  0  0  0  0  0
   37.6530   28.4930   40.8170 O   0  0  0  0  0  0  0  0  0  0  0  0
   37.1190   30.2410   39.3040 C   0  0  0  0  0  0  0  0  0  0  0  0
   37.6580   28.9670   39.5070 C   0  0  0  0  0  0  0  0  0  0  0  0
   38.1440   28.3020   38.4030 C   0  0  0  0  0  0  0  0  0  0  0  0
   38.5530   27.3250   38.5840 H   0  0  0  0  0  0  0  0  0  0  0  0
   38.1040   28.8640   37.1450 C   0  0  0  0  0  0  0  0  0  0  0  0
   38.5070   28.2860   36.3100 H   0  0  0  0  0  0  0  0  0  0  0  0
   37.5720   30.1210   36.9500 C   0  0  0  0  0  3  0  0  0  0  0  0
   37.0780   30.8050   38.0510 C   0  0  0  0  0  3  0  0  0  0  0  0
   36.7510   32.4020   40.4940 N   0  0  0  0  0  0  0  0  0  0  0  0
   36.5690   31.1310   40.3250 C   0  0  0  0  0  0  0  0  0  0  0  0
   35.6920   30.7960   41.3850 N   0  0  0  0  0  0  0  0  0  0  0  0
   37.3740   32.8790   39.8170 H   0  0  0  0  0  0  0  0  0  0  0  0
   34.6830   30.8750   41.6370 H   0  0  0  0  0  0  0  0  0  0  0  0
   36.2700   30.3200   42.1330 H   0  0  0  0  0  0  0  0  0  0  0  0
  1  2  1  0  0  0  0
  2  3  2  0  0  0  0
  2 11  1  0  0  0  0
  3 12  1  0  0  0  0
  4 13  1  0  0  0  0
  4  3  1  0  0  0  0
  5  4  2  0  0  0  0
  6 14  1  0  0  0  0
  6  5  1  0  0  0  0
  7  6  2  0  0  0  0
  8  7  1  0  0  0  0
  8  9  2  0  0  0  0
  9 10  1  0  0  0  0
 10  5  1  0  0  0  0
 10  1  2  0  0  0  0
 15  7  1  0  0  0  0
 16  8  1  0  0  0  0
 17 22  2  0  0  0  0
 17 18  1  0  0  0  0
 18 19  2  0  0  0  0
 19 20  1  0  0  0  0
 19 24  1  0  0  0  0
 21  1  1  0  0  0  0
 21 20  2  0  0  0  0
 22 21  1  0  0  0  0
 23 17  1  0  0  0  0
 25 27  1  0  0  0  0
 25 18  1  0  0  0  0
 26 25  1  0  0  0  0
 28  9  1  0  0  0  0
 29 30  1  0  0  0  0
 29 38  1  0  0  0  0
 30 28  1  0  0  0  0
 31 32  1  0  0  0  0
 31 30  2  0  0  0  0
 33 31  1  0  0  0  0
 34 33  1  0  0  0  0
 35 33  2  0  0  0  0
 35 36  1  0  0  0  0
 36 29  2  0  0  0  0
 38 37  2  0  0  0  0
 38 39  1  0  0  0  0
 39 41  1  0  0  0  0
 39 42  1  0  0  0  0
 40 37  1  0  0  0  0
M  END
>  <minimizedAffinity>
-7.01274109

$$$$

 OpenBabel03242515583D

 42 45  0  0  0  0  0  0  0  0999 V2000
   37.2370   27.5410   40.8570 C   0  0  0  0  0  0  0  0  0  0  0  0
   37.7670   27.0190   42.0660 C   0  0  0  0  0  0  0  0  0  0  0  0
   37.7520   25.6850   42.3920 C   0  0  0  0  0  0  0  0  0  0  0  0
   37.2150   24.7840   41.5490 C   0  0  0  0  0  0  0  0  0  0  0  0
   36.6740   25.2340   40.3420 C   0  0  0  0  0  0  0  0  0  0  0  0
   36.1380   24.2900   39.5170 C   0  0  0  0  0  0  0  0  0  0  0  0
   35.5940   24.6670   38.3230 C   0  0  0  0  0  0  0  0  0  0  0  0
   35.6190   26.0220   38.0150 C   0  0  0  0  0  0  0  0  0  0  0  0
   36.1670   26.8930   38.8850 C   0  0  0  0  0  0  0  0  0  0  0  0
   36.7070   26.5690   40.0540 C   0  0  0  0  0  0  0  0  0  0  0  0
   38.2100   27.7000   42.7750 H   0  0  0  0  0  0  0  0  0  0  0  0
   38.1770   25.3670   43.3320 H   0  0  0  0  0  0  0  0  0  0  0  0
   37.2130   23.7380   41.8240 H   0  0  0  0  0  0  0  0  0  0  0  0
   36.1510   23.2260   39.8240 H   0  0  0  0  0  0  0  0  0  0  0  0
   35.1860   23.8350   37.7220 H   0  0  0  0  0  0  0  0  0  0  0  0
   35.1580   26.1220   37.0240 H   0  0  0  0  0  0  0  0  0  0  0  0
   36.1800   30.9680   41.0590 C   0  0  0  0  0  0  0  0  0  0  0  0
   37.1230   31.6450   40.2290 C   0  0  0  0  0  0  0  0  0  0  0  0
   38.1420   30.8950   39.5820 C   0  0  0  0  0  0  0  0  0  0  0  0
   38.1400   29.5760   39.8080 N   0  0  0  0  0  0  0  0  0  0  0  0
   37.2990   28.9430   40.5540 C   0  0  0  0  0  0  0  0  0  0  0  0
   36.3290   29.6640   41.1670 N   0  0  0  0  0  0  0  0  0  0  0  0
   35.4060   31.5430   41.5490 H   0  0  0  0  0  0  0  0  0  0  0  0
   38.8160   31.4540   38.9750 H   0  0  0  0  0  0  0  0  0  0  0  0
   36.9520   33.0500   40.1250 N   0  0  0  0  0  0  0  0  0  0  0  0
   37.4510   33.4760   40.9460 H   0  0  0  0  0  0  0  0  0  0  0  0
   36.4470   33.6200   39.4100 H   0  0  0  0  0  0  0  0  0  0  0  0
   36.0410   28.1350   38.3210 O   0  0  0  0  0  0  0  0  0  0  0  0
   35.4580   28.9300   36.1630 C   0  0  0  0  0  0  0  0  0  0  0  0
   35.0420   28.5470   37.4420 C   0  0  0  0  0  0  0  0  0  0  0  0
   33.6940   28.6090   37.7140 C   0  0  0  0  0  0  0  0  0  0  0  0
   33.3980   28.3090   38.7030 H   0  0  0  0  0  0  0  0  0  0  0  0
   32.7840   29.0290   36.7680 C   0  0  0  0  0  0  0  0  0  0  0  0
   31.7270   29.0550   37.0450 H   0  0  0  0  0  0  0  0  0  0  0  0
   33.1980   29.4060   35.5070 C   0  0  0  0  0  3  0  0  0  0  0  0
   34.5530   29.3500   35.2170 C   0  0  0  0  0  3  0  0  0  0  0  0
   37.2480   28.8160   34.4310 N   0  0  0  0  0  0  0  0  0  0  0  0
   36.8270   28.9240   35.6500 C   0  0  0  0  0  0  0  0  0  0  0  0
   38.0290   29.0400   36.3890 N   0  0  0  0  0  0  0  0  0  0  0  0
   36.5270   28.7170   33.6930 H   0  0  0  0  0  0  0  0  0  0  0  0
   38.7600   29.7500   36.6110 H   0  0  0  0  0  0  0  0  0  0  0  0
   38.2110   28.1010   36.8420 H   0  0  0  0  0  0  0  0  0  0  0  0
  1  2  1  0  0  0  0
  2  3  2  0  0  0  0
  2 11  1  0  0  0  0
  3 12  1  0  0  0  0
  4 13  1  0  0  0  0
  4  3  1  0  0  0  0
  5  4  2  0  0  0  0
  6 14  1  0  0  0  0
  6  5  1  0  0  0  0
  7  6  2  0  0  0  0
  8  7  1  0  0  0  0
  8  9  2  0  0  0  0
  9 10  1  0  0  0  0
 10  5  1  0  0  0  0
 10  1  2  0  0  0  0
 15  7  1  0  0  0  0
 16  8  1  0  0  0  0
 17 22  1  0  0  0  0
 17 23  1  0  0  0  0
 18 17  2  0  0  0  0
 19 20  2  0  0  0  0
 19 18  1  0  0  0  0
 20 21  1  0  0  0  0
 21  1  1  0  0  0  0
 21 22  2  0  0  0  0
 24 19  1  0  0  0  0
 25 18  1  0  0  0  0
 25 26  1  0  0  0  0
 27 25  1  0  0  0  0
 28  9  1  0  0  0  0
 29 30  1  0  0  0  0
 30 31  2  0  0  0  0
 30 28  1  0  0  0  0
 31 32  1  0  0  0  0
 33 34  1  0  0  0  0
 33 31  1  0  0  0  0
 35 33  2  0  0  0  0
 36 35  1  0  0  0  0
 36 29  2  0  0  0  0
 37 38  2  0  0  0  0
 38 29  1  0  0  0  0
 38 39  1  0  0  0  0
 39 41  1  0  0  0  0
 39 42  1  0  0  0  0
 40 37  1  0  0  0  0
M  END
>  <minimizedAffinity>
-6.97288561

$$$$

 OpenBabel03242515583D

 42 45  0  0  0  0  0  0  0  0999 V2000
   37.9290   29.1160   41.0240 C   0  0  0  0  0  0  0  0  0  0  0  0
   38.3630   29.5270   42.3120 C   0  0  0  0  0  0  0  0  0  0  0  0
   38.3760   28.7030   43.4110 C   0  0  0  0  0  0  0  0  0  0  0  0
   37.9630   27.4270   43.3100 C   0  0  0  0  0  0  0  0  0  0  0  0
   37.5220   26.9610   42.0690 C   0  0  0  0  0  0  0  0  0  0  0  0
   37.1100   25.6620   42.0090 C   0  0  0  0  0  0  0  0  0  0  0  0
   36.6680   25.1480   40.8260 C   0  0  0  0  0  0  0  0  0  0  0  0
   36.6620   26.0000   39.7260 C   0  0  0  0  0  0  0  0  0  0  0  0
   37.0840   27.2720   39.8690 C   0  0  0  0  0  0  0  0  0  0  0  0
   37.5230   27.8110   40.9990 C   0  0  0  0  0  0  0  0  0  0  0  0
   38.7050   30.5400   42.4450 H   0  0  0  0  0  0  0  0  0  0  0  0
   38.7210   29.0920   44.3560 H   0  0  0  0  0  0  0  0  0  0  0  0
   37.9810   26.7950   44.1870 H   0  0  0  0  0  0  0  0  0  0  0  0
   37.1410   25.0370   42.9230 H   0  0  0  0  0  0  0  0  0  0  0  0
   36.3570   24.0890   40.8730 H   0  0  0  0  0  0  0  0  0  0  0  0
   36.2950   25.4080   38.8790 H   0  0  0  0  0  0  0  0  0  0  0  0
   39.3140   30.5540   38.0380 C   0  0  0  0  0  0  0  0  0  0  0  0
   38.3390   31.5280   37.6680 C   0  0  0  0  0  0  0  0  0  0  0  0
   37.1820   31.6920   38.4750 C   0  0  0  0  0  0  0  0  0  0  0  0
   37.0910   30.8980   39.5490 N   0  0  0  0  0  0  0  0  0  0  0  0
   37.9580   30.0110   39.9010 C   0  0  0  0  0  0  0  0  0  0  0  0
   39.0600   29.8600   39.1290 N   0  0  0  0  0  0  0  0  0  0  0  0
   40.1940   30.4330   37.4210 H   0  0  0  0  0  0  0  0  0  0  0  0
   36.4890   32.4340   38.1500 H   0  0  0  0  0  0  0  0  0  0  0  0
   38.6250   32.2650   36.4890 N   0  0  0  0  0  0  0  0  0  0  0  0
   38.2750   31.6890   35.6820 H   0  0  0  0  0  0  0  0  0  0  0  0
   39.0840   33.1950   36.3650 H   0  0  0  0  0  0  0  0  0  0  0  0
   36.9580   27.8600   38.6380 O   0  0  0  0  0  0  0  0  0  0  0  0
   35.7570   28.0560   36.6010 C   0  0  0  0  0  0  0  0  0  0  0  0
   35.7670   28.1850   37.9930 C   0  0  0  0  0  0  0  0  0  0  0  0
   34.6070   28.6140   38.5970 C   0  0  0  0  0  0  0  0  0  0  0  0
   34.6380   28.7050   39.6680 H   0  0  0  0  0  0  0  0  0  0  0  0
   33.4760   28.9070   37.8650 C   0  0  0  0  0  0  0  0  0  0  0  0
   32.5860   29.2420   38.4030 H   0  0  0  0  0  0  0  0  0  0  0  0
   33.4710   28.7780   36.4920 C   0  0  0  0  0  3  0  0  0  0  0  0
   34.6320   28.3470   35.8670 C   0  0  0  0  0  3  0  0  0  0  0  0
   36.9530   26.5330   35.0290 N   0  0  0  0  0  0  0  0  0  0  0  0
   36.8610   27.6000   35.7570 C   0  0  0  0  0  0  0  0  0  0  0  0
   38.1060   28.2370   35.5410 N   0  0  0  0  0  0  0  0  0  0  0  0
   36.1370   25.8940   35.0290 H   0  0  0  0  0  0  0  0  0  0  0  0
   38.5900   28.8120   34.8160 H   0  0  0  0  0  0  0  0  0  0  0  0
   38.7050   28.0560   36.3950 H   0  0  0  0  0  0  0  0  0  0  0  0
  1  2  1  0  0  0  0
  2 11  1  0  0  0  0
  2  3  2  0  0  0  0
  3 12  1  0  0  0  0
  4  3  1  0  0  0  0
  4 13  1  0  0  0  0
  5  4  2  0  0  0  0
  6  5  1  0  0  0  0
  6 14  1  0  0  0  0
  7 15  1  0  0  0  0
  7  6  2  0  0  0  0
  8  9  2  0  0  0  0
  8  7  1  0  0  0  0
  9 10  1  0  0  0  0
 10  1  2  0  0  0  0
 10  5  1  0  0  0  0
 16  8  1  0  0  0  0
 17 22  1  0  0  0  0
 18 17  2  0  0  0  0
 18 19  1  0  0  0  0
 19 20  2  0  0  0  0
 20 21  1  0  0  0  0
 21  1  1  0  0  0  0
 22 21  2  0  0  0  0
 23 17  1  0  0  0  0
 24 19  1  0  0  0  0
 25 18  1  0  0  0  0
 26 25  1  0  0  0  0
 27 25  1  0  0  0  0
 28  9  1  0  0  0  0
 29 30  1  0  0  0  0
 30 31  2  0  0  0  0
 30 28  1  0  0  0  0
 31 32  1  0  0  0  0
 33 34  1  0  0  0  0
 33 31  1  0  0  0  0
 35 33  2  0  0  0  0
 36 35  1  0  0  0  0
 36 29  2  0  0  0  0
 37 38  2  0  0  0  0
 38 29  1  0  0  0  0
 39 38  1  0  0  0  0
 39 42  1  0  0  0  0
 40 37  1  0  0  0  0
 41 39  1  0  0  0  0
M  END
>  <minimizedAffinity>
-6.78635597

$$$$

 OpenBabel03242515583D

 42 45  0  0  0  0  0  0  0  0999 V2000
   37.8060   26.3520   41.4920 C   0  0  0  0  0  0  0  0  0  0  0  0
   38.1250   25.1440   42.1670 C   0  0  0  0  0  0  0  0  0  0  0  0
   37.7120   23.9040   41.7450 C   0  0  0  0  0  0  0  0  0  0  0  0
   36.9620   23.7760   40.6360 C   0  0  0  0  0  0  0  0  0  0  0  0
   36.6120   24.9280   39.9270 C   0  0  0  0  0  0  0  0  0  0  0  0
   35.8510   24.7560   38.8090 C   0  0  0  0  0  0  0  0  0  0  0  0
   35.4760   25.8420   38.0730 C   0  0  0  0  0  0  0  0  0  0  0  0
   35.9030   27.0880   38.5190 C   0  0  0  0  0  0  0  0  0  0  0  0
   36.6540   27.1740   39.6350 C   0  0  0  0  0  0  0  0  0  0  0  0
   37.0410   26.1440   40.3780 C   0  0  0  0  0  0  0  0  0  0  0  0
   38.7250   25.1930   43.0610 H   0  0  0  0  0  0  0  0  0  0  0  0
   37.9980   23.0330   42.3150 H   0  0  0  0  0  0  0  0  0  0  0  0
   36.6480   22.7900   40.3210 H   0  0  0  0  0  0  0  0  0  0  0  0
   35.5440   23.7340   38.5090 H   0  0  0  0  0  0  0  0  0  0  0  0
   34.8620   25.6060   37.1860 H   0  0  0  0  0  0  0  0  0  0  0  0
   35.5210   27.8210   37.7980 H   0  0  0  0  0  0  0  0  0  0  0  0
   40.2040   29.0020   41.8540 C   0  0  0  0  0  0  0  0  0  0  0  0
   39.5060   29.9600   42.6490 C   0  0  0  0  0  0  0  0  0  0  0  0
   38.1800   29.6780   43.0710 C   0  0  0  0  0  0  0  0  0  0  0  0
   37.6720   28.5030   42.6800 N   0  0  0  0  0  0  0  0  0  0  0  0
   38.2820   27.6230   41.9620 C   0  0  0  0  0  0  0  0  0  0  0  0
   39.5470   27.8970   41.5640 N   0  0  0  0  0  0  0  0  0  0  0  0
   41.2140   29.2210   41.5360 H   0  0  0  0  0  0  0  0  0  0  0  0
   37.7100   30.4300   43.6620 H   0  0  0  0  0  0  0  0  0  0  0  0
   40.2250   31.1460   42.9520 N   0  0  0  0  0  0  0  0  0  0  0  0
   40.0850   31.7980   42.1390 H   0  0  0  0  0  0  0  0  0  0  0  0
   40.7990   31.3970   43.7870 H   0  0  0  0  0  0  0  0  0  0  0  0
   36.9110   28.5050   39.8260 O   0  0  0  0  0  0  0  0  0  0  0  0
   37.7250   30.6710   39.3000 C   0  0  0  0  0  0  0  0  0  0  0  0
   37.8020   29.2900   39.0960 C   0  0  0  0  0  0  0  0  0  0  0  0
   38.7450   28.8330   38.2040 C   0  0  0  0  0  0  0  0  0  0  0  0
   38.7860   27.7680   38.0650 H   0  0  0  0  0  0  0  0  0  0  0  0
   39.5850   29.6970   37.5340 C   0  0  0  0  0  0  0  0  0  0  0  0
   40.3140   29.2730   36.8400 H   0  0  0  0  0  0  0  0  0  0  0  0
   39.5070   31.0590   37.7390 C   0  0  0  0  0  3  0  0  0  0  0  0
   38.5610   31.5360   38.6350 C   0  0  0  0  0  3  0  0  0  0  0  0
   36.7710   32.6300   40.5130 N   0  0  0  0  0  0  0  0  0  0  0  0
   36.8210   31.3730   40.2110 C   0  0  0  0  0  0  0  0  0  0  0  0
   35.7710   30.8200   40.9830 N   0  0  0  0  0  0  0  0  0  0  0  0
   37.4640   33.2500   40.0560 H   0  0  0  0  0  0  0  0  0  0  0  0
   34.7300   30.7490   40.9740 H   0  0  0  0  0  0  0  0  0  0  0  0
   36.2130   30.3400   41.8170 H   0  0  0  0  0  0  0  0  0  0  0  0
  1 21  1  0  0  0  0
  1  2  1  0  0  0  0
  2 11  1  0  0  0  0
  3  2  2  0  0  0  0
  3 12  1  0  0  0  0
  4  3  1  0  0  0  0
  5 10  1  0  0  0  0
  5  4  2  0  0  0  0
  6  5  1  0  0  0  0
  7  8  1  0  0  0  0
  7  6  2  0  0  0  0
  8  9  2  0  0  0  0
  9 28  1  0  0  0  0
  9 10  1  0  0  0  0
 10  1  2  0  0  0  0
 13  4  1  0  0  0  0
 14  6  1  0  0  0  0
 15  7  1  0  0  0  0
 16  8  1  0  0  0  0
 17 18  1  0  0  0  0
 18 25  1  0  0  0  0
 18 19  2  0  0  0  0
 19 24  1  0  0  0  0
 20 19  1  0  0  0  0
 21 20  2  0  0  0  0
 22 17  2  0  0  0  0
 22 21  1  0  0  0  0
 23 17  1  0  0  0  0
 25 27  1  0  0  0  0
 26 25  1  0  0  0  0
 29 38  1  0  0  0  0
 30 29  1  0  0  0  0
 30 28  1  0  0  0  0
 31 30  2  0  0  0  0
 32 31  1  0  0  0  0
 33 35  2  0  0  0  0
 33 31  1  0  0  0  0
 34 33  1  0  0  0  0
 35 36  1  0  0  0  0
 36 29  2  0  0  0  0
 38 37  2  0  0  0  0
 38 39  1  0  0  0  0
 39 42  1  0  0  0  0
 40 37  1  0  0  0  0
 41 39  1  0  0  0  0
M  END
>  <minimizedAffinity>
-6.65660667

$$$$

 OpenBabel03242515583D

 42 45  0  0  0  0  0  0  0  0999 V2000
   38.5110   28.0990   41.9320 C   0  0  0  0  0  0  0  0  0  0  0  0
   39.4140   27.9960   43.0230 C   0  0  0  0  0  0  0  0  0  0  0  0
   39.7500   26.8080   43.6240 C   0  0  0  0  0  0  0  0  0  0  0  0
   39.2190   25.6500   43.1910 C   0  0  0  0  0  0  0  0  0  0  0  0
   38.3210   25.6850   42.1200 C   0  0  0  0  0  0  0  0  0  0  0  0
   37.8040   24.4910   41.7120 C   0  0  0  0  0  0  0  0  0  0  0  0
   36.9220   24.4570   40.6720 C   0  0  0  0  0  0  0  0  0  0  0  0
   36.5940   25.6720   40.0790 C   0  0  0  0  0  0  0  0  0  0  0  0
   37.1490   26.8090   40.5430 C   0  0  0  0  0  0  0  0  0  0  0  0
   38.0110   26.8860   41.5490 C   0  0  0  0  0  0  0  0  0  0  0  0
   39.8680   28.8950   43.4070 H   0  0  0  0  0  0  0  0  0  0  0  0
   40.4460   26.8140   44.4490 H   0  0  0  0  0  0  0  0  0  0  0  0
   39.4970   24.7260   43.6780 H   0  0  0  0  0  0  0  0  0  0  0  0
   38.1080   23.5590   42.2290 H   0  0  0  0  0  0  0  0  0  0  0  0
   36.5580   23.4480   40.4110 H   0  0  0  0  0  0  0  0  0  0  0  0
   35.8960   25.4400   39.2660 H   0  0  0  0  0  0  0  0  0  0  0  0
   36.5500   31.0530   41.3520 C   0  0  0  0  0  0  0  0  0  0  0  0
   37.3310   31.7750   40.4000 C   0  0  0  0  0  0  0  0  0  0  0  0
   38.5590   31.2220   39.9480 C   0  0  0  0  0  0  0  0  0  0  0  0
   38.8990   30.0350   40.4630 N   0  0  0  0  0  0  0  0  0  0  0  0
   38.2110   29.3650   41.3240 C   0  0  0  0  0  0  0  0  0  0  0  0
   37.0400   29.8970   41.7500 N   0  0  0  0  0  0  0  0  0  0  0  0
   35.6160   31.4770   41.6930 H   0  0  0  0  0  0  0  0  0  0  0  0
   39.0980   31.8060   39.2370 H   0  0  0  0  0  0  0  0  0  0  0  0
   36.7920   33.0200   39.9820 N   0  0  0  0  0  0  0  0  0  0  0  0
   37.0960   33.7330   40.6920 H   0  0  0  0  0  0  0  0  0  0  0  0
   36.2040   33.2600   39.1530 H   0  0  0  0  0  0  0  0  0  0  0  0
   36.6390   27.8260   39.7790 O   0  0  0  0  0  0  0  0  0  0  0  0
   35.5590   28.3860   37.7430 C   0  0  0  0  0  0  0  0  0  0  0  0
   36.7130   27.9380   38.3930 C   0  0  0  0  0  0  0  0  0  0  0  0
   37.8090   27.6540   37.6110 C   0  0  0  0  0  0  0  0  0  0  0  0
   38.6840   27.3110   38.1330 H   0  0  0  0  0  0  0  0  0  0  0  0
   37.7790   27.8030   36.2410 C   0  0  0  0  0  0  0  0  0  0  0  0
   38.6830   27.5610   35.6760 H   0  0  0  0  0  0  0  0  0  0  0  0
   36.6390   28.2460   35.6040 C   0  0  0  0  0  3  0  0  0  0  0  0
   35.5250   28.5370   36.3770 C   0  0  0  0  0  3  0  0  0  0  0  0
   34.0660   29.2090   39.5640 N   0  0  0  0  0  0  0  0  0  0  0  0
   34.2930   28.7660   38.3690 C   0  0  0  0  0  0  0  0  0  0  0  0
   33.0000   28.7350   37.7940 N   0  0  0  0  0  0  0  0  0  0  0  0
   34.8870   29.3170   40.1870 H   0  0  0  0  0  0  0  0  0  0  0  0
   32.2960   29.3870   37.3850 H   0  0  0  0  0  0  0  0  0  0  0  0
   32.6800   27.7260   37.7940 H   0  0  0  0  0  0  0  0  0  0  0  0
  1  2  1  0  0  0  0
  2 11  1  0  0  0  0
  2  3  2  0  0  0  0
  3 12  1  0  0  0  0
  4  3  1  0  0  0  0
  4 13  1  0  0  0  0
  5  4  2  0  0  0  0
  6  5  1  0  0  0  0
  6 14  1  0  0  0  0
  7  6  2  0  0  0  0
  8  9  2  0  0  0  0
  8  7  1  0  0  0  0
  9 10  1  0  0  0  0
 10  1  2  0  0  0  0
 10  5  1  0  0  0  0
 15  7  1  0  0  0  0
 16  8  1  0  0  0  0
 17 23  1  0  0  0  0
 17 22  1  0  0  0  0
 18 17  2  0  0  0  0
 19 18  1  0  0  0  0
 19 20  2  0  0  0  0
 20 21  1  0  0  0  0
 21 22  2  0  0  0  0
 21  1  1  0  0  0  0
 24 19  1  0  0  0  0
 25 18  1  0  0  0  0
 25 26  1  0  0  0  0
 27 25  1  0  0  0  0
 28  9  1  0  0  0  0
 29 38  1  0  0  0  0
 29 30  1  0  0  0  0
 30 28  1  0  0  0  0
 31 32  1  0  0  0  0
 31 30  2  0  0  0  0
 33 31  1  0  0  0  0
 34 33  1  0  0  0  0
 35 33  2  0  0  0  0
 35 36  1  0  0  0  0
 36 29  2  0  0  0  0
 37 40  1  0  0  0  0
 38 37  2  0  0  0  0
 39 38  1  0  0  0  0
 41 39  1  0  0  0  0
 42 39  1  0  0  0  0
M  END
>  <minimizedAffinity>
-6.50866508

$$$$

 OpenBabel03242515583D

 42 45  0  0  0  0  0  0  0  0999 V2000
   37.6630   26.6880   38.6120 C   0  0  0  0  0  0  0  0  0  0  0  0
   37.7420   25.6450   37.6510 C   0  0  0  0  0  0  0  0  0  0  0  0
   37.5530   24.3180   37.9500 C   0  0  0  0  0  0  0  0  0  0  0  0
   37.2750   23.9360   39.2100 C   0  0  0  0  0  0  0  0  0  0  0  0
   37.1850   24.9150   40.2030 C   0  0  0  0  0  0  0  0  0  0  0  0
   36.9020   24.4860   41.4660 C   0  0  0  0  0  0  0  0  0  0  0  0
   36.8020   25.3940   42.4800 C   0  0  0  0  0  0  0  0  0  0  0  0
   36.9980   26.7320   42.1560 C   0  0  0  0  0  0  0  0  0  0  0  0
   37.2740   27.0740   40.8810 C   0  0  0  0  0  0  0  0  0  0  0  0
   37.3800   26.2250   39.8660 C   0  0  0  0  0  0  0  0  0  0  0  0
   37.9620   25.8990   36.6270 H   0  0  0  0  0  0  0  0  0  0  0  0
   37.6300   23.5850   37.1620 H   0  0  0  0  0  0  0  0  0  0  0  0
   37.1300   22.8860   39.4240 H   0  0  0  0  0  0  0  0  0  0  0  0
   36.7570   23.4050   41.6560 H   0  0  0  0  0  0  0  0  0  0  0  0
   36.5690   24.9560   43.4670 H   0  0  0  0  0  0  0  0  0  0  0  0
   36.8620   27.2980   43.0850 H   0  0  0  0  0  0  0  0  0  0  0  0
   36.5810   29.9760   37.6520 C   0  0  0  0  0  0  0  0  0  0  0  0
   37.8070   30.6970   37.5380 C   0  0  0  0  0  0  0  0  0  0  0  0
   39.0330   30.0260   37.7930 C   0  0  0  0  0  0  0  0  0  0  0  0
   38.9410   28.7350   38.1320 N   0  0  0  0  0  0  0  0  0  0  0  0
   37.8460   28.0640   38.2420 C   0  0  0  0  0  0  0  0  0  0  0  0
   36.6810   28.7080   37.9960 N   0  0  0  0  0  0  0  0  0  0  0  0
   35.6500   30.4900   37.4560 H   0  0  0  0  0  0  0  0  0  0  0  0
   39.9150   30.6150   37.6910 H   0  0  0  0  0  0  0  0  0  0  0  0
   37.6840   32.0630   37.1690 N   0  0  0  0  0  0  0  0  0  0  0  0
   37.5140   32.5990   38.0560 H   0  0  0  0  0  0  0  0  0  0  0  0
   37.7380   32.5190   36.2310 H   0  0  0  0  0  0  0  0  0  0  0  0
   37.4220   28.4350   40.8700 O   0  0  0  0  0  0  0  0  0  0  0  0
   38.3050   30.5440   41.5040 C   0  0  0  0  0  0  0  0  0  0  0  0
   38.4760   29.1590   41.4240 C   0  0  0  0  0  0  0  0  0  0  0  0
   39.6580   28.6390   41.9000 C   0  0  0  0  0  0  0  0  0  0  0  0
   39.7660   27.5720   41.8280 H   0  0  0  0  0  0  0  0  0  0  0  0
   40.6390   29.4450   42.4350 C   0  0  0  0  0  0  0  0  0  0  0  0
   41.5550   28.9720   42.7970 H   0  0  0  0  0  0  0  0  0  0  0  0
   40.4670   30.8110   42.5130 C   0  0  0  0  0  3  0  0  0  0  0  0
   39.2810   31.3520   42.0380 C   0  0  0  0  0  3  0  0  0  0  0  0
   37.0640   32.4560   40.4910 N   0  0  0  0  0  0  0  0  0  0  0  0
   37.1300   31.3070   41.0830 C   0  0  0  0  0  0  0  0  0  0  0  0
   35.7680   30.9510   41.2330 N   0  0  0  0  0  0  0  0  0  0  0  0
   37.9630   32.9230   40.2730 H   0  0  0  0  0  0  0  0  0  0  0  0
   34.9780   30.5770   40.6640 H   0  0  0  0  0  0  0  0  0  0  0  0
   35.5050   31.1310   42.2420 H   0  0  0  0  0  0  0  0  0  0  0  0
  1 10  1  0  0  0  0
  2  3  1  0  0  0  0
  2  1  2  0  0  0  0
  3  4  2  0  0  0  0
  4 13  1  0  0  0  0
  4  5  1  0  0  0  0
  5  6  1  0  0  0  0
  6 14  1  0  0  0  0
  6  7  2  0  0  0  0
  7 15  1  0  0  0  0
  8  7  1  0  0  0  0
  8 16  1  0  0  0  0
  9  8  2  0  0  0  0
 10  5  2  0  0  0  0
 10  9  1  0  0  0  0
 11  2  1  0  0  0  0
 12  3  1  0  0  0  0
 17 22  1  0  0  0  0
 18 17  2  0  0  0  0
 18 19  1  0  0  0  0
 19 20  2  0  0  0  0
 20 21  1  0  0  0  0
 21  1  1  0  0  0  0
 22 21  2  0  0  0  0
 23 17  1  0  0  0  0
 24 19  1  0  0  0  0
 25 18  1  0  0  0  0
 25 26  1  0  0  0  0
 27 25  1  0  0  0  0
 28  9  1  0  0  0  0
 28 30  1  0  0  0  0
 29 36  1  0  0  0  0
 30 29  2  0  0  0  0
 30 31  1  0  0  0  0
 31 33  2  0  0  0  0
 32 31  1  0  0  0  0
 33 35  1  0  0  0  0
 33 34  1  0  0  0  0
 36 35  2  0  0  0  0
 37 38  2  0  0  0  0
 38 39  1  0  0  0  0
 38 29  1  0  0  0  0
 39 42  1  0  0  0  0
 40 37  1  0  0  0  0
 41 39  1  0  0  0  0
M  END
>  <minimizedAffinity>
-6.49218512

$$$$

 OpenBabel03242515583D

 42 45  0  0  0  0  0  0  0  0999 V2000
   36.8960   26.6440   39.6450 C   0  0  0  0  0  0  0  0  0  0  0  0
   36.7070   25.2490   39.8260 C   0  0  0  0  0  0  0  0  0  0  0  0
   36.7530   24.6260   41.0490 C   0  0  0  0  0  0  0  0  0  0  0  0
   36.9860   25.3360   42.1680 C   0  0  0  0  0  0  0  0  0  0  0  0
   37.1810   26.7160   42.0570 C   0  0  0  0  0  0  0  0  0  0  0  0
   37.4150   27.3990   43.2130 C   0  0  0  0  0  0  0  0  0  0  0  0
   37.6140   28.7480   43.1710 C   0  0  0  0  0  0  0  0  0  0  0  0
   37.5660   29.3580   41.9220 C   0  0  0  0  0  0  0  0  0  0  0  0
   37.3290   28.6110   40.8260 C   0  0  0  0  0  0  0  0  0  0  0  0
   37.1290   27.2990   40.8220 C   0  0  0  0  0  0  0  0  0  0  0  0
   36.5160   24.6350   38.9610 H   0  0  0  0  0  0  0  0  0  0  0  0
   36.5980   23.5590   41.1020 H   0  0  0  0  0  0  0  0  0  0  0  0
   37.0170   24.8270   43.1200 H   0  0  0  0  0  0  0  0  0  0  0  0
   37.4410   26.8510   44.1760 H   0  0  0  0  0  0  0  0  0  0  0  0
   37.7950   29.2160   44.1550 H   0  0  0  0  0  0  0  0  0  0  0  0
   37.7300   30.4290   42.0950 H   0  0  0  0  0  0  0  0  0  0  0  0
   38.1290   27.5770   36.4030 C   0  0  0  0  0  0  0  0  0  0  0  0
   37.0170   28.2570   35.8200 C   0  0  0  0  0  0  0  0  0  0  0  0
   35.8200   28.3990   36.5700 C   0  0  0  0  0  0  0  0  0  0  0  0
   35.8250   27.8690   37.7990 N   0  0  0  0  0  0  0  0  0  0  0  0
   36.8150   27.2500   38.3450 C   0  0  0  0  0  0  0  0  0  0  0  0
   37.9550   27.1190   37.6260 N   0  0  0  0  0  0  0  0  0  0  0  0
   39.0390   27.4720   35.8280 H   0  0  0  0  0  0  0  0  0  0  0  0
   35.0250   28.9160   36.0830 H   0  0  0  0  0  0  0  0  0  0  0  0
   37.2190   28.7430   34.5010 N   0  0  0  0  0  0  0  0  0  0  0  0
   37.0020   27.9450   33.8510 H   0  0  0  0  0  0  0  0  0  0  0  0
   37.5190   29.6840   34.1630 H   0  0  0  0  0  0  0  0  0  0  0  0
   37.3470   29.4720   39.7610 O   0  0  0  0  0  0  0  0  0  0  0  0
   39.0440   31.0240   39.1750 C   0  0  0  0  0  0  0  0  0  0  0  0
   37.8000   30.7900   39.7680 C   0  0  0  0  0  0  0  0  0  0  0  0
   37.1370   31.8740   40.2980 C   0  0  0  0  0  0  0  0  0  0  0  0
   36.1830   31.6690   40.7480 H   0  0  0  0  0  0  0  0  0  0  0  0
   37.6730   33.1430   40.2500 C   0  0  0  0  0  0  0  0  0  0  0  0
   37.0980   33.9620   40.6870 H   0  0  0  0  0  0  0  0  0  0  0  0
   38.9000   33.3690   39.6630 C   0  0  0  0  0  3  0  0  0  0  0  0
   39.5810   32.2880   39.1240 C   0  0  0  0  0  3  0  0  0  0  0  0
   40.4860   30.0720   37.3760 N   0  0  0  0  0  0  0  0  0  0  0  0
   39.9080   30.0330   38.5330 C   0  0  0  0  0  0  0  0  0  0  0  0
   40.3170   28.7790   39.0480 N   0  0  0  0  0  0  0  0  0  0  0  0
   40.3270   30.9200   36.8010 H   0  0  0  0  0  0  0  0  0  0  0  0
   41.1530   28.3340   39.4850 H   0  0  0  0  0  0  0  0  0  0  0  0
   39.5000   28.1140   38.9400 H   0  0  0  0  0  0  0  0  0  0  0  0
  1  2  2  0  0  0  0
  1 10  1  0  0  0  0
  2  3  1  0  0  0  0
  3 12  1  0  0  0  0
  3  4  2  0  0  0  0
  4 13  1  0  0  0  0
  5  4  1  0  0  0  0
  5  6  1  0  0  0  0
  6 14  1  0  0  0  0
  7  6  2  0  0  0  0
  7 15  1  0  0  0  0
  8 16  1  0  0  0  0
  8  7  1  0  0  0  0
  9  8  2  0  0  0  0
 10  9  1  0  0  0  0
 10  5  2  0  0  0  0
 11  2  1  0  0  0  0
 17 22  1  0  0  0  0
 18 17  2  0  0  0  0
 18 19  1  0  0  0  0
 19 20  2  0  0  0  0
 20 21  1  0  0  0  0
 21  1  1  0  0  0  0
 22 21  2  0  0  0  0
 23 17  1  0  0  0  0
 24 19  1  0  0  0  0
 25 18  1  0  0  0  0
 26 25  1  0  0  0  0
 27 25  1  0  0  0  0
 28 30  1  0  0  0  0
 28  9  1  0  0  0  0
 29 30  1  0  0  0  0
 30 31  2  0  0  0  0
 31 32  1  0  0  0  0
 33 31  1  0  0  0  0
 33 34  1  0  0  0  0
 35 33  2  0  0  0  0
 36 29  2  0  0  0  0
 36 35  1  0  0  0  0
 37 38  2  0  0  0  0
 38 39  1  0  0  0  0
 38 29  1  0  0  0  0
 39 41  1  0  0  0  0
 40 37  1  0  0  0  0
 42 39  1  0  0  0  0
M  END
>  <minimizedAffinity>
-6.47379208

$$$$

 OpenBabel03242515583D

 42 45  0  0  0  0  0  0  0  0999 V2000
   40.7250   30.7320   42.1800 C   0  0  0  0  0  0  0  0  0  0  0  0
   41.9230   30.6970   42.9420 C   0  0  0  0  0  0  0  0  0  0  0  0
   42.9250   31.6280   42.8280 C   0  0  0  0  0  0  0  0  0  0  0  0
   42.8120   32.6490   41.9590 C   0  0  0  0  0  0  0  0  0  0  0  0
   41.6570   32.7390   41.1780 C   0  0  0  0  0  0  0  0  0  0  0  0
   41.5810   33.7870   40.3100 C   0  0  0  0  0  0  0  0  0  0  0  0
   40.4790   33.9300   39.5190 C   0  0  0  0  0  0  0  0  0  0  0  0
   39.4760   32.9750   39.6490 C   0  0  0  0  0  0  0  0  0  0  0  0
   39.6280   31.9680   40.5320 C   0  0  0  0  0  0  0  0  0  0  0  0
   40.6820   31.7930   41.3200 C   0  0  0  0  0  0  0  0  0  0  0  0
   42.0620   29.8990   43.6530 H   0  0  0  0  0  0  0  0  0  0  0  0
   43.8060   31.5310   43.4450 H   0  0  0  0  0  0  0  0  0  0  0  0
   43.6130   33.3710   41.8850 H   0  0  0  0  0  0  0  0  0  0  0  0
   42.4160   34.5130   40.2550 H   0  0  0  0  0  0  0  0  0  0  0  0
   40.5050   34.8080   38.8490 H   0  0  0  0  0  0  0  0  0  0  0  0
   38.6800   33.2670   38.9540 H   0  0  0  0  0  0  0  0  0  0  0  0
   39.1460   27.5450   41.6730 C   0  0  0  0  0  0  0  0  0  0  0  0
   37.9660   27.6410   42.4690 C   0  0  0  0  0  0  0  0  0  0  0  0
   37.7110   28.8380   43.1900 C   0  0  0  0  0  0  0  0  0  0  0  0
   38.6230   29.8090   43.0660 N   0  0  0  0  0  0  0  0  0  0  0  0
   39.6960   29.7450   42.3540 C   0  0  0  0  0  0  0  0  0  0  0  0
   39.9330   28.6020   41.6680 N   0  0  0  0  0  0  0  0  0  0  0  0
   39.3360   26.6320   41.1250 H   0  0  0  0  0  0  0  0  0  0  0  0
   36.8140   28.8520   43.7660 H   0  0  0  0  0  0  0  0  0  0  0  0
   37.1290   26.4940   42.4670 N   0  0  0  0  0  0  0  0  0  0  0  0
   37.5070   25.8450   43.2030 H   0  0  0  0  0  0  0  0  0  0  0  0
   36.2930   26.2650   41.8850 H   0  0  0  0  0  0  0  0  0  0  0  0
   38.5020   31.1950   40.4320 O   0  0  0  0  0  0  0  0  0  0  0  0
   36.8450   29.8680   39.3730 C   0  0  0  0  0  0  0  0  0  0  0  0
   38.1410   30.3910   39.3530 C   0  0  0  0  0  0  0  0  0  0  0  0
   38.9370   30.0700   38.2770 C   0  0  0  0  0  0  0  0  0  0  0  0
   39.9290   30.4830   38.2840 H   0  0  0  0  0  0  0  0  0  0  0  0
   38.4800   29.2660   37.2550 C   0  0  0  0  0  0  0  0  0  0  0  0
   39.1600   29.0480   36.4270 H   0  0  0  0  0  0  0  0  0  0  0  0
   37.2010   28.7530   37.2770 C   0  0  0  0  0  3  0  0  0  0  0  0
   36.3850   29.0660   38.3550 C   0  0  0  0  0  3  0  0  0  0  0  0
   35.7690   31.0040   41.3160 N   0  0  0  0  0  0  0  0  0  0  0  0
   35.8250   30.0930   40.3970 C   0  0  0  0  0  0  0  0  0  0  0  0
   34.6430   29.3480   40.6190 N   0  0  0  0  0  0  0  0  0  0  0  0
   36.5500   31.6840   41.3490 H   0  0  0  0  0  0  0  0  0  0  0  0
   33.6160   29.4150   40.4450 H   0  0  0  0  0  0  0  0  0  0  0  0
   34.9220   28.4550   41.1150 H   0  0  0  0  0  0  0  0  0  0  0  0
  1 21  1  0  0  0  0
  1  2  1  0  0  0  0
  2 11  1  0  0  0  0
  3  2  2  0  0  0  0
  3 12  1  0  0  0  0
  4  3  1  0  0  0  0
  5 10  1  0  0  0  0
  5  4  2  0  0  0  0
  6  5  1  0  0  0  0
  7  8  1  0  0  0  0
  7  6  2  0  0  0  0
  8  9  2  0  0  0  0
  9 10  1  0  0  0  0
 10  1  2  0  0  0  0
 13  4  1  0  0  0  0
 14  6  1  0  0  0  0
 15  7  1  0  0  0  0
 16  8  1  0  0  0  0
 17 18  1  0  0  0  0
 18 19  2  0  0  0  0
 19 24  1  0  0  0  0
 20 19  1  0  0  0  0
 21 20  2  0  0  0  0
 22 17  2  0  0  0  0
 22 21  1  0  0  0  0
 23 17  1  0  0  0  0
 25 18  1  0  0  0  0
 25 26  1  0  0  0  0
 27 25  1  0  0  0  0
 28  9  1  0  0  0  0
 29 38  1  0  0  0  0
 30 29  1  0  0  0  0
 30 28  1  0  0  0  0
 31 32  1  0  0  0  0
 31 30  2  0  0  0  0
 33 35  2  0  0  0  0
 33 31  1  0  0  0  0
 34 33  1  0  0  0  0
 35 36  1  0  0  0  0
 36 29  2  0  0  0  0
 37 40  1  0  0  0  0
 38 39  1  0  0  0  0
 38 37  2  0  0  0  0
 39 42  1  0  0  0  0
 41 39  1  0  0  0  0
M  END
>  <minimizedAffinity>
-6.45277357

$$$$
