
 OpenBabel03242511133D

 49 53  0  0  1  0  0  0  0  0999 V2000
   50.1980   31.8020   42.1140 C   0  0  1  0  0  0  0  0  0  0  0  0
   49.5330   31.8780   40.7490 C   0  0  0  0  0  0  0  0  0  0  0  0
   48.7340   31.8140   42.0660 C   0  0  2  0  0  0  0  0  0  0  0  0
   50.6740   32.7220   42.4780 H   0  0  0  0  0  0  0  0  0  0  0  0
   49.6100   30.9750   40.1440 H   0  0  0  0  0  0  0  0  0  0  0  0
   49.5390   32.8590   40.2210 H   0  0  0  0  0  0  0  0  0  0  0  0
   48.1080   30.8980   42.1420 H   0  0  0  0  0  0  0  0  0  0  0  0
   51.3610   28.2940   42.1070 C   0  0  0  0  0  0  0  0  0  0  0  0
   52.2660   28.2890   43.2260 C   0  0  0  0  0  0  0  0  0  0  0  0
   52.4460   29.4870   43.9370 C   0  0  0  0  0  0  0  0  0  0  0  0
   51.7710   30.5500   43.5340 N   0  0  0  0  0  0  0  0  0  0  0  0
   50.9290   30.5460   42.4890 C   0  0  0  0  0  0  0  0  0  0  0  0
   50.7150   29.4130   41.7610 N   0  0  0  0  0  0  0  0  0  0  0  0
   51.1780   27.4100   41.5200 H   0  0  0  0  0  0  0  0  0  0  0  0
   52.7000   27.3420   43.3760 H   0  0  0  0  0  0  0  0  0  0  0  0
   54.7140   29.6730   44.9120 C   0  0  0  0  0  0  0  0  0  0  0  0
   53.3660   29.4390   45.0560 C   0  0  0  0  0  0  0  0  0  0  0  0
   52.9850   29.1660   46.3430 C   0  0  0  0  0  0  0  0  0  0  0  0
   51.9690   28.9630   46.6050 H   0  0  0  0  0  0  0  0  0  0  0  0
   53.8730   29.1280   47.3880 C   0  0  0  0  0  0  0  0  0  0  0  0
   53.5480   28.9090   48.3910 H   0  0  0  0  0  0  0  0  0  0  0  0
   55.2120   29.3650   47.2190 C   0  0  0  0  0  0  0  0  0  0  0  0
   55.6440   29.6440   45.9480 C   0  0  0  0  0  0  0  0  0  0  0  0
   55.3590   29.9040   42.3630 N   0  0  0  0  0  0  0  0  0  0  0  0
   55.3160   29.9650   43.6340 C   0  0  0  0  0  0  0  0  0  0  0  0
   56.5160   30.7280   43.5270 N   0  0  0  0  0  0  0  0  0  0  0  0
   56.1460   30.3760   41.8900 H   0  0  0  0  0  0  0  0  0  0  0  0
   57.0910   31.5850   43.2970 H   0  0  0  0  0  0  0  0  0  0  0  0
   57.4700   30.3860   43.7850 H   0  0  0  0  0  0  0  0  0  0  0  0
   48.0470   33.0070   42.4690 N   0  0  0  0  0  0  0  0  0  0  0  0
   48.2990   33.7000   41.7360 H   0  0  0  0  0  0  0  0  0  0  0  0
   47.2710   33.0690   43.6390 C   0  0  0  0  0  0  0  0  0  0  0  0
   47.4650   32.1390   44.6230 C   0  0  0  0  0  0  0  0  0  0  0  0
   46.7880   32.1740   45.8340 C   0  0  0  0  0  0  0  0  0  0  0  0
   45.8730   33.1720   46.0980 C   0  0  0  0  0  0  0  0  0  0  0  0
   45.6590   34.1190   45.1230 C   0  0  0  0  0  0  0  0  0  0  0  0
   44.7520   35.1340   45.3720 C   0  0  0  0  0  0  0  0  0  0  0  0
   44.5010   36.1040   44.4550 C   0  0  0  0  0  0  0  0  0  0  0  0
   45.1950   36.0310   43.2530 C   0  0  0  0  0  0  0  0  0  0  0  0
   46.0870   35.0260   43.0160 C   0  0  0  0  0  0  0  0  0  0  0  0
   46.3460   34.0530   43.9310 C   0  0  0  0  0  0  0  0  0  0  0  0
   48.1510   31.3210   44.5300 H   0  0  0  0  0  0  0  0  0  0  0  0
   46.9380   31.4470   46.6090 H   0  0  0  0  0  0  0  0  0  0  0  0
   45.3160   33.2480   47.0280 H   0  0  0  0  0  0  0  0  0  0  0  0
   44.2020   35.2040   46.3020 H   0  0  0  0  0  0  0  0  0  0  0  0
   43.7990   36.9190   44.6100 H   0  0  0  0  0  0  0  0  0  0  0  0
   44.9990   36.8080   42.5070 H   0  0  0  0  0  0  0  0  0  0  0  0
   46.7380   35.0000   41.8080 O   0  0  0  0  0  0  0  0  0  0  0  0
   47.1570   35.8740   41.5000 H   0  0  0  0  0  0  0  0  0  0  0  0
  1  4  1  1  0  0  0
  1 12  1  0  0  0  0
  2  3  1  0  0  0  0
  2  1  1  0  0  0  0
  3  1  1  0  0  0  0
  3  7  1  1  0  0  0
  3 30  1  0  0  0  0
  5  2  1  0  0  0  0
  6  2  1  0  0  0  0
  8  9  1  0  0  0  0
  9 15  1  0  0  0  0
  9 10  2  0  0  0  0
 10 17  1  0  0  0  0
 11 10  1  0  0  0  0
 12 11  2  0  0  0  0
 13  8  2  0  0  0  0
 13 12  1  0  0  0  0
 14  8  1  0  0  0  0
 16 17  2  0  0  0  0
 16 23  1  0  0  0  0
 17 18  1  0  0  0  0
 18 19  1  0  0  0  0
 18 20  2  0  0  0  0
 20 21  1  0  0  0  0
 22 20  1  0  0  0  0
 23 22  2  0  0  0  0
 24 25  2  0  0  0  0
 25 16  1  0  0  0  0
 26 25  1  0  0  0  0
 26 29  1  0  0  0  0
 27 24  1  0  0  0  0
 28 26  1  0  0  0  0
 30 32  1  0  0  0  0
 31 30  1  0  0  0  0
 32 41  2  0  0  0  0
 32 33  1  0  0  0  0
 33 34  2  0  0  0  0
 34 35  1  0  0  0  0
 34 43  1  0  0  0  0
 35 44  1  0  0  0  0
 36 37  1  0  0  0  0
 36 35  2  0  0  0  0
 37 45  1  0  0  0  0
 38 46  1  0  0  0  0
 38 37  2  0  0  0  0
 39 38  1  0  0  0  0
 40 39  2  0  0  0  0
 40 41  1  0  0  0  0
 41 36  1  0  0  0  0
 42 33  1  0  0  0  0
 47 39  1  0  0  0  0
 48 40  1  0  0  0  0
 49 48  1  0  0  0  0
M  END
>  <minimizedAffinity>
-5.38545275

>  <minimizedRMSD>
0.506367326

$$$$
