
 OpenBabel03252505473D

 34 36  0  0  1  0  0  0  0  0999 V2000
   46.0170   34.2740   41.1140 C   0  0  0  0  0  0  0  0  0  0  0  0
   46.4760   34.7330   42.3760 C   0  0  0  0  0  0  0  0  0  0  0  0
   45.6400   35.4570   43.2210 C   0  0  0  0  0  0  0  0  0  0  0  0
   44.3780   35.6940   42.7720 N   0  0  0  0  0  0  0  0  0  0  0  0
   43.9690   35.2380   41.5460 C   0  0  0  0  0  0  0  0  0  0  0  0
   44.7640   34.5500   40.7440 N   0  0  0  0  0  0  0  0  0  0  0  0
   47.4950   34.5290   42.7130 H   0  0  0  0  0  0  0  0  0  0  0  0
   45.9690   35.8130   44.1820 H   0  0  0  0  0  0  0  0  0  0  0  0
   46.9610   33.5290   40.2730 C   0  0  1  0  0  0  0  0  0  0  0  0
   47.9530   34.4980   39.5340 C   0  0  1  0  0  0  0  0  0  0  0  0
   48.3520   33.4010   40.4960 C   0  0  0  0  0  0  0  0  0  0  0  0
   46.4260   32.8400   39.5620 H   0  0  0  0  0  0  0  0  0  0  0  0
   47.9920   35.5330   39.8570 H   0  0  0  0  0  0  0  0  0  0  0  0
   48.8500   33.8020   41.4220 H   0  0  0  0  0  0  0  0  0  0  0  0
   48.9230   32.5370   40.1020 H   0  0  0  0  0  0  0  0  0  0  0  0
   48.1820   34.1450   38.0850 C   0  0  0  0  0  0  0  0  0  0  0  0
   48.9720   35.0380   37.4220 F   0  0  0  0  0  0  0  0  0  0  0  0
   48.8200   32.8890   38.0260 F   0  0  0  0  0  0  0  0  0  0  0  0
   46.9770   33.9570   37.4260 F   0  0  0  0  0  0  0  0  0  0  0  0
   42.6630   35.5510   41.2090 O   0  0  0  0  0  0  0  0  0  0  0  0
   41.4410   34.4490   39.3460 C   0  0  0  0  0  0  0  0  0  0  0  0
   41.7240   34.7520   40.6550 C   0  0  0  0  0  0  0  0  0  0  0  0
   40.9220   34.1440   41.6290 C   0  0  0  0  0  0  0  0  0  0  0  0
   40.9860   34.2530   42.7050 H   0  0  0  0  0  0  0  0  0  0  0  0
   39.8990   33.2840   41.2120 C   0  0  0  0  0  0  0  0  0  0  0  0
   39.2510   32.7900   41.9010 H   0  0  0  0  0  0  0  0  0  0  0  0
   39.6600   33.0190   39.9000 C   0  0  0  0  0  0  0  0  0  0  0  0
   40.4380   33.6050   38.9300 C   0  0  0  0  0  0  0  0  0  0  0  0
   43.3600   34.4010   37.9750 N   0  0  0  0  0  0  0  0  0  0  0  0
   42.2640   35.0320   38.3330 C   0  0  0  0  0  0  0  0  0  0  0  0
   42.5410   36.0550   37.4120 N   0  0  0  0  0  0  0  0  0  0  0  0
   43.6690   33.5120   38.3730 H   0  0  0  0  0  0  0  0  0  0  0  0
   43.0920   36.9280   37.5840 H   0  0  0  0  0  0  0  0  0  0  0  0
   42.2230   36.0870   36.4020 H   0  0  0  0  0  0  0  0  0  0  0  0
  1  2  1  0  0  0  0
  2  7  1  0  0  0  0
  2  3  2  0  0  0  0
  3  8  1  0  0  0  0
  4  3  1  0  0  0  0
  5  4  2  0  0  0  0
  6  1  2  0  0  0  0
  6  5  1  0  0  0  0
  9 12  1  6  0  0  0
  9 11  1  0  0  0  0
  9  1  1  0  0  0  0
 10 13  1  1  0  0  0
 10  9  1  0  0  0  0
 10 11  1  0  0  0  0
 11 14  1  0  0  0  0
 15 11  1  0  0  0  0
 16 10  1  0  0  0  0
 17 16  1  0  0  0  0
 18 16  1  0  0  0  0
 19 16  1  0  0  0  0
 20  5  1  0  0  0  0
 21 22  1  0  0  0  0
 22 20  1  0  0  0  0
 22 23  2  0  0  0  0
 23 24  1  0  0  0  0
 25 23  1  0  0  0  0
 25 26  1  0  0  0  0
 27 25  2  0  0  0  0
 28 21  2  0  0  0  0
 28 27  1  0  0  0  0
 29 30  2  0  0  0  0
 29 32  1  0  0  0  0
 30 21  1  0  0  0  0
 31 33  1  0  0  0  0
 31 30  1  0  0  0  0
 34 31  1  0  0  0  0
M  END
>  <minimizedAffinity>
-6.09934139

>  <minimizedRMSD>
9.29433346

$$$$
