
 OpenBabel03242523343D

 42 45  0  0  0  0  0  0  0  0999 V2000
   44.4950   36.0770   44.6890 C   0  0  0  0  0  0  0  0  0  0  0  0
   45.2350   35.8910   43.5010 C   0  0  0  0  0  0  0  0  0  0  0  0
   46.0770   34.7800   43.3920 C   0  0  0  0  0  0  0  0  0  0  0  0
   46.1620   33.9050   44.4400 N   0  0  0  0  0  0  0  0  0  0  0  0
   45.4300   34.1260   45.5610 C   0  0  0  0  0  0  0  0  0  0  0  0
   44.6080   35.2000   45.6790 N   0  0  0  0  0  0  0  0  0  0  0  0
   43.8160   36.8920   44.8880 H   0  0  0  0  0  0  0  0  0  0  0  0
   45.0140   36.6950   42.8260 H   0  0  0  0  0  0  0  0  0  0  0  0
   46.3310   33.9400   41.1020 C   0  0  0  0  0  0  0  0  0  0  0  0
   46.8000   34.6980   42.1410 C   0  0  0  0  0  0  0  0  0  0  0  0
   47.9650   35.3450   41.8950 C   0  0  0  0  0  0  0  0  0  0  0  0
   48.4350   35.9760   42.6350 H   0  0  0  0  0  0  0  0  0  0  0  0
   48.6800   35.2980   40.7230 C   0  0  0  0  0  0  0  0  0  0  0  0
   49.6040   35.8300   40.5720 H   0  0  0  0  0  0  0  0  0  0  0  0
   48.1900   34.5220   39.6670 C   0  0  0  0  0  3  0  0  0  0  0  0
   47.0110   33.8520   39.8870 C   0  0  0  0  0  3  0  0  0  0  0  0
   43.9930   32.9880   40.5490 N   0  0  0  0  0  0  0  0  0  0  0  0
   45.1680   33.1000   41.0970 C   0  0  0  0  0  0  0  0  0  0  0  0
   45.1160   31.9080   41.8670 N   0  0  0  0  0  0  0  0  0  0  0  0
   43.6240   33.6990   39.8770 H   0  0  0  0  0  0  0  0  0  0  0  0
   44.9890   31.0360   42.4230 H   0  0  0  0  0  0  0  0  0  0  0  0
   45.9350   31.3660   42.2730 H   0  0  0  0  0  0  0  0  0  0  0  0
   45.5720   33.1150   46.6330 C   0  0  0  0  0  0  0  0  0  0  0  0
   44.5820   32.7440   46.9900 H   0  0  0  0  0  0  0  0  0  0  0  0
   46.0140   33.6350   47.5010 H   0  0  0  0  0  0  0  0  0  0  0  0
   46.5900   31.7710   46.0020 S   0  0  0  0  0  0  0  0  0  0  0  0
   47.6320   31.1160   47.2890 C   0  0  0  0  0  0  0  0  0  0  0  0
   47.9500   31.9490   48.3320 C   0  0  0  0  0  0  0  0  0  0  0  0
   48.7390   31.4510   49.3440 C   0  0  0  0  0  0  0  0  0  0  0  0
   49.2150   30.1420   49.3380 C   0  0  0  0  0  0  0  0  0  0  0  0
   49.9840   29.6950   50.3500 N   0  0  0  0  0  0  0  0  0  0  0  0
   50.4490   28.4220   50.3480 C   0  0  0  0  0  0  0  0  0  0  0  0
   50.1330   27.5990   49.3090 C   0  0  0  0  0  0  0  0  0  0  0  0
   49.3420   28.0590   48.2670 C   0  0  0  0  0  0  0  0  0  0  0  0
   48.8540   29.3700   48.2590 C   0  0  0  0  0  0  0  0  0  0  0  0
   48.0650   29.8160   47.2150 C   0  0  0  0  0  0  0  0  0  0  0  0
   47.6770   32.9730   48.4970 H   0  0  0  0  0  0  0  0  0  0  0  0
   49.0460   32.0430   50.2200 H   0  0  0  0  0  0  0  0  0  0  0  0
   51.0730   28.0330   51.1530 H   0  0  0  0  0  0  0  0  0  0  0  0
   50.4430   26.5710   49.1960 H   0  0  0  0  0  0  0  0  0  0  0  0
   49.0640   27.4460   47.4230 H   0  0  0  0  0  0  0  0  0  0  0  0
   47.8010   29.1800   46.3820 H   0  0  0  0  0  0  0  0  0  0  0  0
  1  7  1  0  0  0  0
  1  6  1  0  0  0  0
  2  1  2  0  0  0  0
  3  2  1  0  0  0  0
  3  4  2  0  0  0  0
  4  5  1  0  0  0  0
  5  6  2  0  0  0  0
  5 23  1  0  0  0  0
  8  2  1  0  0  0  0
  9 10  1  0  0  0  0
 10  3  1  0  0  0  0
 11 10  2  0  0  0  0
 11 12  1  0  0  0  0
 13 11  1  0  0  0  0
 14 13  1  0  0  0  0
 15 16  1  0  0  0  0
 15 13  2  0  0  0  0
 16  9  2  0  0  0  0
 17 18  2  0  0  0  0
 18  9  1  0  0  0  0
 18 19  1  0  0  0  0
 19 22  1  0  0  0  0
 19 21  1  0  0  0  0
 20 17  1  0  0  0  0
 23 24  1  0  0  0  0
 23 25  1  0  0  0  0
 26 23  1  0  0  0  0
 26 27  1  0  0  0  0
 27 28  1  0  0  0  0
 28 37  1  0  0  0  0
 28 29  2  0  0  0  0
 29 38  1  0  0  0  0
 30 29  1  0  0  0  0
 30 31  1  0  0  0  0
 32 31  2  0  0  0  0
 32 39  1  0  0  0  0
 33 32  1  0  0  0  0
 34 33  2  0  0  0  0
 35 34  1  0  0  0  0
 35 30  2  0  0  0  0
 36 27  2  0  0  0  0
 36 35  1  0  0  0  0
 40 33  1  0  0  0  0
 41 34  1  0  0  0  0
 42 36  1  0  0  0  0
M  END
>  <minimizedAffinity>
-6.79683256

>  <minimizedRMSD>
0.239664048

$$$$
