
 OpenBabel03242523113D

 51 55  0  0  1  0  0  0  0  0999 V2000
   46.4960   32.0590   45.5670 C   0  0  0  0  0  0  0  0  0  0  0  0
   46.7380   32.7530   44.3640 C   0  0  0  0  0  0  0  0  0  0  0  0
   47.6540   32.0900   43.5830 C   0  0  0  0  0  0  0  0  0  0  0  0
   48.2720   30.9160   43.8930 C   0  0  0  0  0  0  0  0  0  0  0  0
   47.9760   30.3000   45.1060 C   0  0  0  0  0  0  0  0  0  0  0  0
   47.0760   30.8810   45.9500 C   0  0  0  0  0  0  0  0  0  0  0  0
   48.7560   29.1570   45.1220 O   0  0  0  0  0  0  0  0  0  0  0  0
   49.4630   29.0160   43.8950 C   0  0  2  0  0  0  0  0  0  0  0  0
   49.1930   30.2120   43.1420 O   0  0  0  0  0  0  0  0  0  0  0  0
   45.8090   32.3150   46.4030 H   0  0  0  0  0  0  0  0  0  0  0  0
   47.8490   32.5880   42.6850 H   0  0  0  0  0  0  0  0  0  0  0  0
   46.9300   30.3240   46.8370 H   0  0  0  0  0  0  0  0  0  0  0  0
   50.5600   29.0730   44.0730 H   0  0  0  0  0  0  0  0  0  0  0  0
   45.1010   36.0110   43.5010 C   0  0  0  0  0  0  0  0  0  0  0  0
   45.9000   34.8880   43.2720 C   0  0  0  0  0  0  0  0  0  0  0  0
   46.0430   33.9630   44.2600 C   0  0  0  0  0  0  0  0  0  0  0  0
   45.3850   34.1950   45.4360 N   0  0  0  0  0  0  0  0  0  0  0  0
   44.6210   35.2720   45.6510 C   0  0  0  0  0  0  0  0  0  0  0  0
   44.4860   36.1600   44.6950 N   0  0  0  0  0  0  0  0  0  0  0  0
   44.9840   36.7540   42.7070 H   0  0  0  0  0  0  0  0  0  0  0  0
   44.0760   35.5170   46.5510 H   0  0  0  0  0  0  0  0  0  0  0  0
   46.5350   34.7940   42.0340 N   0  0  0  0  0  0  0  0  0  0  0  0
   47.8690   35.2630   41.8340 C   0  0  0  0  0  0  0  0  0  0  0  0
   48.4610   34.9340   40.4980 C   0  0  0  0  0  0  0  0  0  0  0  0
   48.1530   33.6570   40.0090 N   0  0  0  0  0  0  0  0  0  0  0  0
   46.8530   33.2220   40.1750 C   0  0  0  0  0  0  0  0  0  0  0  0
   45.9810   34.2550   40.8580 C   0  0  0  0  0  0  0  0  0  0  0  0
   48.5660   34.9790   42.6480 H   0  0  0  0  0  0  0  0  0  0  0  0
   47.8090   36.3900   41.8850 H   0  0  0  0  0  0  0  0  0  0  0  0
   49.5750   35.0250   40.5940 H   0  0  0  0  0  0  0  0  0  0  0  0
   48.1770   35.7010   39.7530 H   0  0  0  0  0  0  0  0  0  0  0  0
   48.5850   33.5280   39.0900 H   0  0  0  0  0  0  0  0  0  0  0  0
   46.3750   33.0600   39.1660 H   0  0  0  0  0  0  0  0  0  0  0  0
   46.7990   32.2370   40.6640 H   0  0  0  0  0  0  0  0  0  0  0  0
   45.8290   35.0860   40.1290 H   0  0  0  0  0  0  0  0  0  0  0  0
   44.9780   33.8310   41.0440 H   0  0  0  0  0  0  0  0  0  0  0  0
   48.9810   27.9300   43.2390 O   0  0  0  0  0  0  0  0  0  0  0  0
   46.7720   27.4960   42.1480 C   0  0  0  0  0  0  0  0  0  0  0  0
   48.1240   27.5470   42.3290 C   0  0  0  0  0  0  0  0  0  0  0  0
   48.8780   27.0560   41.2500 C   0  0  0  0  0  0  0  0  0  0  0  0
   49.9630   26.9650   41.0970 H   0  0  0  0  0  0  0  0  0  0  0  0
   48.2510   26.5630   40.1000 C   0  0  0  0  0  0  0  0  0  0  0  0
   48.7310   26.1640   39.2180 H   0  0  0  0  0  0  0  0  0  0  0  0
   46.8810   26.5470   39.9950 C   0  0  0  0  0  3  0  0  0  0  0  0
   46.1150   27.0210   41.0340 C   0  0  0  0  0  3  0  0  0  0  0  0
   45.2820   29.0640   43.0120 N   0  0  0  0  0  0  0  0  0  0  0  0
   45.9320   27.9490   43.2200 C   0  0  0  0  0  0  0  0  0  0  0  0
   45.3540   27.8360   44.4910 N   0  0  0  0  0  0  0  0  0  0  0  0
   44.6400   29.4770   43.7120 H   0  0  0  0  0  0  0  0  0  0  0  0
   44.4830   27.2880   44.7140 H   0  0  0  0  0  0  0  0  0  0  0  0
   45.6760   28.2530   45.3900 H   0  0  0  0  0  0  0  0  0  0  0  0
  1  6  1  0  0  0  0
  1 10  1  0  0  0  0
  2  1  2  0  0  0  0
  3  4  2  0  0  0  0
  3  2  1  0  0  0  0
  4  5  1  0  0  0  0
  5  7  1  0  0  0  0
  5  6  2  0  0  0  0
  6 12  1  0  0  0  0
  8 13  1  1  0  0  0
  8  7  1  0  0  0  0
  9  4  1  0  0  0  0
  9  8  1  0  0  0  0
 11  3  1  0  0  0  0
 14 19  1  0  0  0  0
 15 14  2  0  0  0  0
 15 16  1  0  0  0  0
 16  2  1  0  0  0  0
 16 17  2  0  0  0  0
 17 18  1  0  0  0  0
 18 21  1  0  0  0  0
 19 18  2  0  0  0  0
 20 14  1  0  0  0  0
 22 15  1  0  0  0  0
 23 29  1  0  0  0  0
 23 22  1  0  0  0  0
 23 28  1  0  0  0  0
 24 30  1  0  0  0  0
 24 23  1  0  0  0  0
 25 26  1  0  0  0  0
 25 24  1  0  0  0  0
 26 34  1  0  0  0  0
 26 27  1  0  0  0  0
 27 36  1  0  0  0  0
 27 22  1  0  0  0  0
 31 24  1  0  0  0  0
 32 25  1  0  0  0  0
 33 26  1  0  0  0  0
 35 27  1  0  0  0  0
 37  8  1  0  0  0  0
 38 39  1  0  0  0  0
 38 47  1  0  0  0  0
 39 37  1  0  0  0  0
 40 39  2  0  0  0  0
 41 40  1  0  0  0  0
 42 40  1  0  0  0  0
 43 42  1  0  0  0  0
 44 42  2  0  0  0  0
 44 45  1  0  0  0  0
 45 38  2  0  0  0  0
 46 47  2  0  0  0  0
 46 49  1  0  0  0  0
 47 48  1  0  0  0  0
 48 50  1  0  0  0  0
 48 51  1  0  0  0  0
M  END
>  <minimizedAffinity>
-4.5369792

>  <minimizedRMSD>
2.06584144

$$$$
