
 OpenBabel03252502083D

 53 57  0  0  0  0  0  0  0  0999 V2000
   45.3750   32.3250   43.0840 C   0  0  0  0  0  0  0  0  0  0  0  0
   46.3520   32.8970   43.7960 N   0  0  0  0  0  0  0  0  0  0  0  0
   46.5370   34.2030   43.9300 C   0  0  0  0  0  0  0  0  0  0  0  0
   45.7000   35.0680   43.3190 N   0  0  0  0  0  0  0  0  0  0  0  0
   44.6730   34.6310   42.5700 C   0  0  0  0  0  0  0  0  0  0  0  0
   43.8090   35.4960   41.9300 C   0  0  0  0  0  0  0  0  0  0  0  0
   42.7760   35.0540   41.1660 C   0  0  0  0  0  0  0  0  0  0  0  0
   42.6170   33.6990   41.0480 C   0  0  0  0  0  0  0  0  0  0  0  0
   43.5080   32.8490   41.7090 C   0  0  0  0  0  0  0  0  0  0  0  0
   44.5420   33.2560   42.4750 C   0  0  0  0  0  0  0  0  0  0  0  0
   47.3610   34.5900   44.5300 H   0  0  0  0  0  0  0  0  0  0  0  0
   43.9650   36.5630   42.0470 H   0  0  0  0  0  0  0  0  0  0  0  0
   42.1390   35.7900   40.6940 H   0  0  0  0  0  0  0  0  0  0  0  0
   45.9300   29.0600   41.6310 C   0  0  0  0  0  0  0  0  0  0  0  0
   45.1120   28.1690   42.3340 C   0  0  0  0  0  0  0  0  0  0  0  0
   44.3600   28.6970   43.3480 C   0  0  0  0  0  0  0  0  0  0  0  0
   44.4250   30.0030   43.6200 N   0  0  0  0  0  0  0  0  0  0  0  0
   45.1940   30.8590   42.9590 C   0  0  0  0  0  0  0  0  0  0  0  0
   45.9430   30.3580   41.9640 N   0  0  0  0  0  0  0  0  0  0  0  0
   43.5530   27.8750   44.1010 N   0  0  0  0  0  0  0  0  0  0  0  0
   42.8240   28.3020   45.3270 C   0  0  0  0  0  0  0  0  0  0  0  0
   41.8530   27.1940   45.6330 C   0  0  0  0  0  0  0  0  0  0  0  0
   42.5410   25.9900   45.0740 C   0  0  0  0  0  0  0  0  0  0  0  0
   43.2680   26.4890   43.8730 C   0  0  0  0  0  0  0  0  0  0  0  0
   46.5510   28.6830   40.8130 H   0  0  0  0  0  0  0  0  0  0  0  0
   42.2570   29.2330   45.1140 H   0  0  0  0  0  0  0  0  0  0  0  0
   43.5700   28.4410   46.1560 H   0  0  0  0  0  0  0  0  0  0  0  0
   41.6490   27.1310   46.7100 H   0  0  0  0  0  0  0  0  0  0  0  0
   40.9290   27.3720   45.0310 H   0  0  0  0  0  0  0  0  0  0  0  0
   43.2290   25.6240   45.8650 H   0  0  0  0  0  0  0  0  0  0  0  0
   41.8140   25.1760   44.8370 H   0  0  0  0  0  0  0  0  0  0  0  0
   44.2070   25.8570   43.8610 H   0  0  0  0  0  0  0  0  0  0  0  0
   42.6230   26.3070   42.9920 H   0  0  0  0  0  0  0  0  0  0  0  0
   45.0810   26.8690   41.9220 N   0  0  0  0  0  0  0  0  0  0  0  0
   44.3830   26.3310   41.3620 H   0  0  0  0  0  0  0  0  0  0  0  0
   45.8890   26.2350   42.1930 H   0  0  0  0  0  0  0  0  0  0  0  0
   40.2530   32.8430   40.6930 C   0  0  0  0  0  0  0  0  0  0  0  0
   41.4990   33.2490   40.2180 C   0  0  0  0  0  0  0  0  0  0  0  0
   41.7840   33.2580   38.8580 C   0  0  0  0  0  0  0  0  0  0  0  0
   42.7370   33.5660   38.4440 H   0  0  0  0  0  0  0  0  0  0  0  0
   40.8120   32.8540   37.9460 C   0  0  0  0  0  0  0  0  0  0  0  0
   41.0530   32.8670   36.8710 H   0  0  0  0  0  0  0  0  0  0  0  0
   39.5760   32.4510   38.4140 C   0  0  0  0  0  3  0  0  0  0  0  0
   39.3090   32.4480   39.7650 C   0  0  0  0  0  3  0  0  0  0  0  0
   39.7500   33.9790   42.7110 N   0  0  0  0  0  0  0  0  0  0  0  0
   40.0620   32.8730   42.1390 C   0  0  0  0  0  0  0  0  0  0  0  0
   40.2690   31.5780   42.7230 N   0  0  0  0  0  0  0  0  0  0  0  0
   39.6070   34.0380   43.7420 H   0  0  0  0  0  0  0  0  0  0  0  0
   40.9720   31.2650   43.4250 H   0  0  0  0  0  0  0  0  0  0  0  0
   39.6720   30.7470   42.4700 H   0  0  0  0  0  0  0  0  0  0  0  0
   43.1620   31.4800   41.4750 N   0  0  0  0  0  0  0  0  0  0  0  0
   43.4500   30.7570   40.7850 H   0  0  0  0  0  0  0  0  0  0  0  0
   42.4500   31.2780   42.2220 H   0  0  0  0  0  0  0  0  0  0  0  0
  1  2  1  0  0  0  0
  2  3  2  0  0  0  0
  3 11  1  0  0  0  0
  4  3  1  0  0  0  0
  5  4  2  0  0  0  0
  6 12  1  0  0  0  0
  6  5  1  0  0  0  0
  7  6  2  0  0  0  0
  8  7  1  0  0  0  0
  8  9  2  0  0  0  0
  9 10  1  0  0  0  0
 10  5  1  0  0  0  0
 10  1  2  0  0  0  0
 13  7  1  0  0  0  0
 14 19  2  0  0  0  0
 14 15  1  0  0  0  0
 15 16  2  0  0  0  0
 16 17  1  0  0  0  0
 16 20  1  0  0  0  0
 18  1  1  0  0  0  0
 18 17  2  0  0  0  0
 19 18  1  0  0  0  0
 20 21  1  0  0  0  0
 21 22  1  0  0  0  0
 21 27  1  0  0  0  0
 22 28  1  0  0  0  0
 23 22  1  0  0  0  0
 23 30  1  0  0  0  0
 24 20  1  0  0  0  0
 24 23  1  0  0  0  0
 25 14  1  0  0  0  0
 26 21  1  0  0  0  0
 29 22  1  0  0  0  0
 31 23  1  0  0  0  0
 32 24  1  0  0  0  0
 33 24  1  0  0  0  0
 34 36  1  0  0  0  0
 34 15  1  0  0  0  0
 35 34  1  0  0  0  0
 37 46  1  0  0  0  0
 38 37  1  0  0  0  0
 38  8  1  0  0  0  0
 39 38  2  0  0  0  0
 40 39  1  0  0  0  0
 41 43  2  0  0  0  0
 41 39  1  0  0  0  0
 42 41  1  0  0  0  0
 43 44  1  0  0  0  0
 44 37  2  0  0  0  0
 45 48  1  0  0  0  0
 46 45  2  0  0  0  0
 46 47  1  0  0  0  0
 47 49  1  0  0  0  0
 50 47  1  0  0  0  0
 51  9  1  0  0  0  0
 51 53  1  0  0  0  0
 52 51  1  0  0  0  0
M  END
>  <minimizedAffinity>
-5.90151453

>  <minimizedRMSD>
6.46782017

$$$$
