
 OpenBabel03252502083D

 53 57  0  0  0  0  0  0  0  0999 V2000
   45.6580   33.8370   45.4370 C   0  0  0  0  0  0  0  0  0  0  0  0
   44.7600   34.7400   45.8470 N   0  0  0  0  0  0  0  0  0  0  0  0
   44.3960   35.8210   45.1700 C   0  0  0  0  0  0  0  0  0  0  0  0
   44.9470   36.0760   43.9640 N   0  0  0  0  0  0  0  0  0  0  0  0
   45.8660   35.2540   43.4300 C   0  0  0  0  0  0  0  0  0  0  0  0
   46.4480   35.4980   42.2030 C   0  0  0  0  0  0  0  0  0  0  0  0
   47.3830   34.6700   41.6670 C   0  0  0  0  0  0  0  0  0  0  0  0
   47.7350   33.5650   42.3960 C   0  0  0  0  0  0  0  0  0  0  0  0
   47.1260   33.3450   43.6340 C   0  0  0  0  0  0  0  0  0  0  0  0
   46.1960   34.1470   44.1930 C   0  0  0  0  0  0  0  0  0  0  0  0
   43.6550   36.5090   45.5750 H   0  0  0  0  0  0  0  0  0  0  0  0
   46.1440   36.3820   41.6540 H   0  0  0  0  0  0  0  0  0  0  0  0
   47.7960   34.9250   40.7000 H   0  0  0  0  0  0  0  0  0  0  0  0
   47.6020   31.9680   47.8450 C   0  0  0  0  0  0  0  0  0  0  0  0
   47.1090   30.6580   47.8220 C   0  0  0  0  0  0  0  0  0  0  0  0
   46.0680   30.4110   46.9680 C   0  0  0  0  0  0  0  0  0  0  0  0
   45.5770   31.3920   46.2090 N   0  0  0  0  0  0  0  0  0  0  0  0
   46.0380   32.6370   46.2190 C   0  0  0  0  0  0  0  0  0  0  0  0
   47.0560   32.9000   47.0530 N   0  0  0  0  0  0  0  0  0  0  0  0
   45.5130   29.1520   46.9130 N   0  0  0  0  0  0  0  0  0  0  0  0
   44.2790   28.8080   46.1550 C   0  0  0  0  0  0  0  0  0  0  0  0
   44.2220   27.3040   46.1270 C   0  0  0  0  0  0  0  0  0  0  0  0
   44.9330   26.9240   47.3860 C   0  0  0  0  0  0  0  0  0  0  0  0
   45.9880   27.9630   47.5580 C   0  0  0  0  0  0  0  0  0  0  0  0
   48.4320   32.2130   48.5140 H   0  0  0  0  0  0  0  0  0  0  0  0
   44.3660   29.1870   45.1150 H   0  0  0  0  0  0  0  0  0  0  0  0
   43.3950   29.2460   46.6920 H   0  0  0  0  0  0  0  0  0  0  0  0
   43.1850   26.9470   46.0750 H   0  0  0  0  0  0  0  0  0  0  0  0
   44.8400   26.9540   45.2640 H   0  0  0  0  0  0  0  0  0  0  0  0
   44.1750   26.9510   48.1970 H   0  0  0  0  0  0  0  0  0  0  0  0
   45.3460   25.8880   47.3260 H   0  0  0  0  0  0  0  0  0  0  0  0
   46.0490   28.0820   48.6820 H   0  0  0  0  0  0  0  0  0  0  0  0
   46.9230   27.5650   47.1220 H   0  0  0  0  0  0  0  0  0  0  0  0
   47.7340   29.7250   48.5960 N   0  0  0  0  0  0  0  0  0  0  0  0
   48.4180   28.9710   48.3640 H   0  0  0  0  0  0  0  0  0  0  0  0
   47.5260   29.7130   49.6380 H   0  0  0  0  0  0  0  0  0  0  0  0
   48.4830   31.6190   40.9470 C   0  0  0  0  0  0  0  0  0  0  0  0
   48.7440   32.6920   41.7980 C   0  0  0  0  0  0  0  0  0  0  0  0
   50.0440   33.0240   42.1580 C   0  0  0  0  0  0  0  0  0  0  0  0
   50.2970   33.8480   42.8160 H   0  0  0  0  0  0  0  0  0  0  0  0
   51.1120   32.2770   41.6630 C   0  0  0  0  0  0  0  0  0  0  0  0
   52.1370   32.5550   41.9570 H   0  0  0  0  0  0  0  0  0  0  0  0
   50.8550   31.2140   40.8190 C   0  0  0  0  0  3  0  0  0  0  0  0
   49.5590   30.8970   40.4720 C   0  0  0  0  0  3  0  0  0  0  0  0
   46.5290   31.9750   39.6560 N   0  0  0  0  0  0  0  0  0  0  0  0
   47.0820   31.3580   40.6350 C   0  0  0  0  0  0  0  0  0  0  0  0
   46.5150   30.3940   41.5340 N   0  0  0  0  0  0  0  0  0  0  0  0
   45.5290   31.8140   39.4040 H   0  0  0  0  0  0  0  0  0  0  0  0
   45.7250   30.4880   42.2060 H   0  0  0  0  0  0  0  0  0  0  0  0
   46.8800   29.4070   41.6020 H   0  0  0  0  0  0  0  0  0  0  0  0
   47.6160   32.1360   44.2240 N   0  0  0  0  0  0  0  0  0  0  0  0
   48.3780   31.9000   44.8920 H   0  0  0  0  0  0  0  0  0  0  0  0
   46.9940   31.3950   43.8120 H   0  0  0  0  0  0  0  0  0  0  0  0
  1  2  1  0  0  0  0
  1 18  1  0  0  0  0
  3 11  1  0  0  0  0
  3  2  2  0  0  0  0
  4  3  1  0  0  0  0
  5  4  2  0  0  0  0
  5 10  1  0  0  0  0
  6  5  1  0  0  0  0
  7  6  2  0  0  0  0
  7  8  1  0  0  0  0
  8  9  2  0  0  0  0
  9 10  1  0  0  0  0
  9 51  1  0  0  0  0
 10  1  2  0  0  0  0
 12  6  1  0  0  0  0
 13  7  1  0  0  0  0
 14 25  1  0  0  0  0
 15 14  1  0  0  0  0
 15 34  1  0  0  0  0
 16 15  2  0  0  0  0
 17 18  2  0  0  0  0
 17 16  1  0  0  0  0
 18 19  1  0  0  0  0
 19 14  2  0  0  0  0
 20 16  1  0  0  0  0
 20 24  1  0  0  0  0
 21 27  1  0  0  0  0
 21 20  1  0  0  0  0
 22 21  1  0  0  0  0
 22 23  1  0  0  0  0
 23 24  1  0  0  0  0
 23 30  1  0  0  0  0
 24 32  1  0  0  0  0
 26 21  1  0  0  0  0
 28 22  1  0  0  0  0
 29 22  1  0  0  0  0
 31 23  1  0  0  0  0
 33 24  1  0  0  0  0
 34 36  1  0  0  0  0
 35 34  1  0  0  0  0
 37 38  1  0  0  0  0
 38 39  2  0  0  0  0
 38  8  1  0  0  0  0
 39 40  1  0  0  0  0
 41 42  1  0  0  0  0
 41 39  1  0  0  0  0
 43 41  2  0  0  0  0
 44 43  1  0  0  0  0
 44 37  2  0  0  0  0
 45 46  2  0  0  0  0
 46 37  1  0  0  0  0
 46 47  1  0  0  0  0
 47 50  1  0  0  0  0
 47 49  1  0  0  0  0
 48 45  1  0  0  0  0
 51 52  1  0  0  0  0
 53 51  1  0  0  0  0
M  END
>  <minimizedAffinity>
-6.99337196

>  <minimizedRMSD>
0.545298398

$$$$
