
 OpenBabel03242514063D

 48 51  0  0  1  0  0  0  0  0999 V2000
   46.3180   32.6140   38.9840 C   0  0  1  0  0  0  0  0  0  0  0  0
   45.1810   33.2530   38.1510 C   0  0  0  0  0  0  0  0  0  0  0  0
   44.5150   32.0480   37.4580 C   0  0  0  0  0  0  0  0  0  0  0  0
   45.5210   31.6000   36.4000 C   0  0  0  0  0  0  0  0  0  0  0  0
   46.7800   31.1580   37.0330 C   0  0  0  0  0  0  0  0  0  0  0  0
   47.3350   31.9850   38.1430 C   0  0  2  0  0  0  0  0  0  0  0  0
   45.7350   31.8410   39.5730 H   0  0  0  0  0  0  0  0  0  0  0  0
   44.4710   33.8020   38.7590 H   0  0  0  0  0  0  0  0  0  0  0  0
   45.6670   33.8580   37.3640 H   0  0  0  0  0  0  0  0  0  0  0  0
   43.6090   32.3930   36.9580 H   0  0  0  0  0  0  0  0  0  0  0  0
   44.3860   31.2940   38.2400 H   0  0  0  0  0  0  0  0  0  0  0  0
   45.1080   30.7730   35.8110 H   0  0  0  0  0  0  0  0  0  0  0  0
   45.7210   32.4910   35.7660 H   0  0  0  0  0  0  0  0  0  0  0  0
   47.5260   30.9660   36.2250 H   0  0  0  0  0  0  0  0  0  0  0  0
   46.5780   30.1240   37.4440 H   0  0  0  0  0  0  0  0  0  0  0  0
   48.0240   32.7360   37.7010 H   0  0  0  0  0  0  0  0  0  0  0  0
   46.7110   34.5220   42.0990 C   0  0  0  0  0  0  0  0  0  0  0  0
   47.8350   35.2630   41.8190 C   0  0  0  0  0  0  0  0  0  0  0  0
   48.5280   35.2080   40.6300 C   0  0  0  0  0  0  0  0  0  0  0  0
   47.9850   34.3090   39.6990 C   0  0  0  0  0  0  0  0  0  0  0  0
   46.8470   33.5480   39.9740 C   0  0  0  0  0  0  0  0  0  0  0  0
   46.2210   33.6620   41.1700 N   0  0  0  0  0  0  0  0  0  0  0  0
   48.1730   35.9300   42.6070 H   0  0  0  0  0  0  0  0  0  0  0  0
   49.3960   35.8010   40.4480 H   0  0  0  0  0  0  0  0  0  0  0  0
   48.5480   34.3060   38.7820 H   0  0  0  0  0  0  0  0  0  0  0  0
   45.5660   33.9660   45.5290 C   0  0  0  0  0  0  0  0  0  0  0  0
   44.6950   35.0150   45.7740 C   0  0  0  0  0  0  0  0  0  0  0  0
   44.5100   35.9190   44.7340 C   0  0  0  0  0  0  0  0  0  0  0  0
   45.1850   35.7240   43.5520 N   0  0  0  0  0  0  0  0  0  0  0  0
   46.0260   34.6700   43.3780 C   0  0  0  0  0  0  0  0  0  0  0  0
   46.2110   33.8100   44.3490 N   0  0  0  0  0  0  0  0  0  0  0  0
   45.7170   33.2460   46.3430 H   0  0  0  0  0  0  0  0  0  0  0  0
   44.1920   35.1170   46.7240 H   0  0  0  0  0  0  0  0  0  0  0  0
   43.8500   36.7610   44.8500 H   0  0  0  0  0  0  0  0  0  0  0  0
   49.5610   31.0740   38.6890 C   0  0  0  0  0  0  0  0  0  0  0  0
   48.1800   31.0080   38.9320 C   0  0  0  0  0  0  0  0  0  0  0  0
   47.7860   30.0680   39.8550 C   0  0  0  0  0  0  0  0  0  0  0  0
   46.7270   30.0160   40.0430 H   0  0  0  0  0  0  0  0  0  0  0  0
   48.7090   29.2630   40.4760 C   0  0  0  0  0  0  0  0  0  0  0  0
   48.2820   28.5650   41.1780 H   0  0  0  0  0  0  0  0  0  0  0  0
   50.0590   29.3390   40.2250 C   0  0  0  0  0  3  0  0  0  0  0  0
   50.4820   30.2660   39.3120 C   0  0  0  0  0  3  0  0  0  0  0  0
   51.2710   31.7070   37.0250 N   0  0  0  0  0  0  0  0  0  0  0  0
   50.2260   32.0010   37.7480 C   0  0  0  0  0  0  0  0  0  0  0  0
   50.1280   33.3240   37.2590 N   0  0  0  0  0  0  0  0  0  0  0  0
   51.7330   30.7800   37.0460 H   0  0  0  0  0  0  0  0  0  0  0  0
   50.6350   34.1340   37.7050 H   0  0  0  0  0  0  0  0  0  0  0  0
   49.5690   33.6560   36.4320 H   0  0  0  0  0  0  0  0  0  0  0  0
  1  7  1  1  0  0  0
  1 21  1  0  0  0  0
  2  8  1  0  0  0  0
  2  1  1  0  0  0  0
  3  2  1  0  0  0  0
  3 11  1  0  0  0  0
  4  5  1  0  0  0  0
  4  3  1  0  0  0  0
  5 15  1  0  0  0  0
  5  6  1  0  0  0  0
  6 16  1  6  0  0  0
  6 36  1  0  0  0  0
  6  1  1  0  0  0  0
  9  2  1  0  0  0  0
 10  3  1  0  0  0  0
 12  4  1  0  0  0  0
 13  4  1  0  0  0  0
 14  5  1  0  0  0  0
 17 30  1  0  0  0  0
 18 17  1  0  0  0  0
 18 23  1  0  0  0  0
 19 18  2  0  0  0  0
 20 21  2  0  0  0  0
 20 19  1  0  0  0  0
 21 22  1  0  0  0  0
 22 17  2  0  0  0  0
 24 19  1  0  0  0  0
 25 20  1  0  0  0  0
 26 27  1  0  0  0  0
 26 32  1  0  0  0  0
 27 33  1  0  0  0  0
 28 34  1  0  0  0  0
 28 27  2  0  0  0  0
 29 28  1  0  0  0  0
 30 29  2  0  0  0  0
 30 31  1  0  0  0  0
 31 26  2  0  0  0  0
 35 36  2  0  0  0  0
 35 42  1  0  0  0  0
 36 37  1  0  0  0  0
 37 38  1  0  0  0  0
 37 39  2  0  0  0  0
 39 40  1  0  0  0  0
 41 39  1  0  0  0  0
 42 41  2  0  0  0  0
 43 46  1  0  0  0  0
 43 44  2  0  0  0  0
 44 35  1  0  0  0  0
 45 47  1  0  0  0  0
 45 44  1  0  0  0  0
 48 45  1  0  0  0  0
M  END
>  <minimizedAffinity>
-5.94877338

>  <minimizedRMSD>
1.96896541

$$$$
