
 OpenBabel03242514053D

 48 51  0  0  1  0  0  0  0  0999 V2000
   47.6660   31.7650   39.7840 C   0  0  1  0  0  0  0  0  0  0  0  0
   46.5350   31.7500   38.7280 C   0  0  0  0  0  0  0  0  0  0  0  0
   46.3820   30.2560   38.3790 C   0  0  0  0  0  0  0  0  0  0  0  0
   47.6300   29.9160   37.5670 C   0  0  0  0  0  0  0  0  0  0  0  0
   48.8480   30.0990   38.3820 C   0  0  0  0  0  0  0  0  0  0  0  0
   48.9440   31.3200   39.2340 C   0  0  2  0  0  0  0  0  0  0  0  0
   47.2590   31.0210   40.5360 H   0  0  0  0  0  0  0  0  0  0  0  0
   45.6050   32.1660   39.1010 H   0  0  0  0  0  0  0  0  0  0  0  0
   46.9320   32.2590   37.8310 H   0  0  0  0  0  0  0  0  0  0  0  0
   45.5040   30.1380   37.7430 H   0  0  0  0  0  0  0  0  0  0  0  0
   46.3660   29.7310   39.3380 H   0  0  0  0  0  0  0  0  0  0  0  0
   47.5840   28.8760   37.2230 H   0  0  0  0  0  0  0  0  0  0  0  0
   47.6480   30.6270   36.7140 H   0  0  0  0  0  0  0  0  0  0  0  0
   49.7340   29.9680   37.7160 H   0  0  0  0  0  0  0  0  0  0  0  0
   48.9070   29.2000   39.0650 H   0  0  0  0  0  0  0  0  0  0  0  0
   49.4340   32.1180   38.6360 H   0  0  0  0  0  0  0  0  0  0  0  0
   47.0470   34.3900   42.2800 C   0  0  0  0  0  0  0  0  0  0  0  0
   47.8450   35.4040   41.8050 C   0  0  0  0  0  0  0  0  0  0  0  0
   48.6180   35.3200   40.6690 C   0  0  0  0  0  0  0  0  0  0  0  0
   48.5280   34.0820   40.0130 C   0  0  0  0  0  0  0  0  0  0  0  0
   47.7240   33.0440   40.4880 C   0  0  0  0  0  0  0  0  0  0  0  0
   46.9910   33.2080   41.6160 N   0  0  0  0  0  0  0  0  0  0  0  0
   47.8430   36.3220   42.3860 H   0  0  0  0  0  0  0  0  0  0  0  0
   49.2240   36.1300   40.3300 H   0  0  0  0  0  0  0  0  0  0  0  0
   49.1370   34.0630   39.1260 H   0  0  0  0  0  0  0  0  0  0  0  0
   45.5800   33.9670   45.6050 C   0  0  0  0  0  0  0  0  0  0  0  0
   44.6770   35.0100   45.7170 C   0  0  0  0  0  0  0  0  0  0  0  0
   44.5820   35.8640   44.6230 C   0  0  0  0  0  0  0  0  0  0  0  0
   45.3710   35.6290   43.5230 N   0  0  0  0  0  0  0  0  0  0  0  0
   46.2380   34.5830   43.4790 C   0  0  0  0  0  0  0  0  0  0  0  0
   46.3390   33.7700   44.5010 N   0  0  0  0  0  0  0  0  0  0  0  0
   45.6610   33.2870   46.4620 H   0  0  0  0  0  0  0  0  0  0  0  0
   44.0820   35.1460   46.6080 H   0  0  0  0  0  0  0  0  0  0  0  0
   43.9020   36.6990   44.6360 H   0  0  0  0  0  0  0  0  0  0  0  0
   51.2680   30.9530   39.9740 C   0  0  0  0  0  0  0  0  0  0  0  0
   49.9100   30.9210   40.3280 C   0  0  0  0  0  0  0  0  0  0  0  0
   49.6440   30.5300   41.6190 C   0  0  0  0  0  0  0  0  0  0  0  0
   48.6030   30.5030   41.8930 H   0  0  0  0  0  0  0  0  0  0  0  0
   50.6640   30.2000   42.4790 C   0  0  0  0  0  0  0  0  0  0  0  0
   50.3330   29.9100   43.4630 H   0  0  0  0  0  0  0  0  0  0  0  0
   51.9900   30.2390   42.1160 C   0  0  0  0  0  3  0  0  0  0  0  0
   52.2870   30.6240   40.8370 C   0  0  0  0  0  3  0  0  0  0  0  0
   52.4090   30.5340   37.8260 N   0  0  0  0  0  0  0  0  0  0  0  0
   51.8030   31.3420   38.6520 C   0  0  0  0  0  0  0  0  0  0  0  0
   51.9250   32.4690   37.8050 N   0  0  0  0  0  0  0  0  0  0  0  0
   52.5670   29.5290   38.0270 H   0  0  0  0  0  0  0  0  0  0  0  0
   52.7620   33.1100   37.8280 H   0  0  0  0  0  0  0  0  0  0  0  0
   51.2340   32.7960   37.0820 H   0  0  0  0  0  0  0  0  0  0  0  0
  1 21  1  0  0  0  0
  1  7  1  1  0  0  0
  2  8  1  0  0  0  0
  2  1  1  0  0  0  0
  3  2  1  0  0  0  0
  3 11  1  0  0  0  0
  4  3  1  0  0  0  0
  4  5  1  0  0  0  0
  5 15  1  0  0  0  0
  5  6  1  0  0  0  0
  6 16  1  6  0  0  0
  6  1  1  0  0  0  0
  6 36  1  0  0  0  0
  9  2  1  0  0  0  0
 10  3  1  0  0  0  0
 12  4  1  0  0  0  0
 13  4  1  0  0  0  0
 14  5  1  0  0  0  0
 17 30  1  0  0  0  0
 18 17  1  0  0  0  0
 18 23  1  0  0  0  0
 19 18  2  0  0  0  0
 20 21  2  0  0  0  0
 20 19  1  0  0  0  0
 21 22  1  0  0  0  0
 22 17  2  0  0  0  0
 24 19  1  0  0  0  0
 25 20  1  0  0  0  0
 26 27  1  0  0  0  0
 26 32  1  0  0  0  0
 27 33  1  0  0  0  0
 28 34  1  0  0  0  0
 28 27  2  0  0  0  0
 29 28  1  0  0  0  0
 30 29  2  0  0  0  0
 30 31  1  0  0  0  0
 31 26  2  0  0  0  0
 35 36  2  0  0  0  0
 35 42  1  0  0  0  0
 36 37  1  0  0  0  0
 37 38  1  0  0  0  0
 37 39  2  0  0  0  0
 39 40  1  0  0  0  0
 41 39  1  0  0  0  0
 42 41  2  0  0  0  0
 43 46  1  0  0  0  0
 43 44  2  0  0  0  0
 44 35  1  0  0  0  0
 45 47  1  0  0  0  0
 45 44  1  0  0  0  0
 48 45  1  0  0  0  0
M  END
>  <minimizedAffinity>
-5.54880476

>  <minimizedRMSD>
2.9967401

$$$$
