
 OpenBabel03242514053D

 48 51  0  0  1  0  0  0  0  0999 V2000
   46.0440   31.4110   39.7410 C   0  0  1  0  0  0  0  0  0  0  0  0
   45.1850   30.5350   38.7990 C   0  0  0  0  0  0  0  0  0  0  0  0
   45.2660   31.2670   37.4440 C   0  0  0  0  0  0  0  0  0  0  0  0
   44.4200   32.5240   37.6290 C   0  0  0  0  0  0  0  0  0  0  0  0
   44.9930   33.3890   38.6810 C   0  0  0  0  0  0  0  0  0  0  0  0
   45.4710   32.7410   39.9370 C   0  0  2  0  0  0  0  0  0  0  0  0
   47.0120   31.4620   39.1530 H   0  0  0  0  0  0  0  0  0  0  0  0
   45.5510   29.5170   38.7200 H   0  0  0  0  0  0  0  0  0  0  0  0
   44.1420   30.6150   39.1540 H   0  0  0  0  0  0  0  0  0  0  0  0
   44.8030   30.6390   36.6830 H   0  0  0  0  0  0  0  0  0  0  0  0
   46.3240   31.5070   37.3040 H   0  0  0  0  0  0  0  0  0  0  0  0
   44.3720   33.0890   36.6910 H   0  0  0  0  0  0  0  0  0  0  0  0
   43.4130   32.1770   37.9470 H   0  0  0  0  0  0  0  0  0  0  0  0
   44.2770   34.2240   38.8730 H   0  0  0  0  0  0  0  0  0  0  0  0
   45.8760   33.9140   38.2090 H   0  0  0  0  0  0  0  0  0  0  0  0
   44.6250   32.7220   40.6570 H   0  0  0  0  0  0  0  0  0  0  0  0
   45.6580   29.6200   42.9260 C   0  0  0  0  0  0  0  0  0  0  0  0
   46.9710   29.3830   43.2600 C   0  0  0  0  0  0  0  0  0  0  0  0
   48.0510   29.7800   42.5040 C   0  0  0  0  0  0  0  0  0  0  0  0
   47.6990   30.4630   41.3300 C   0  0  0  0  0  0  0  0  0  0  0  0
   46.3700   30.7060   40.9780 C   0  0  0  0  0  0  0  0  0  0  0  0
   45.3630   30.2830   41.7790 N   0  0  0  0  0  0  0  0  0  0  0  0
   47.1350   28.8460   44.1900 H   0  0  0  0  0  0  0  0  0  0  0  0
   49.0570   29.5780   42.7970 H   0  0  0  0  0  0  0  0  0  0  0  0
   48.5720   30.7650   40.7750 H   0  0  0  0  0  0  0  0  0  0  0  0
   42.3670   28.6570   44.1990 C   0  0  0  0  0  0  0  0  0  0  0  0
   42.5880   28.3610   45.5340 C   0  0  0  0  0  0  0  0  0  0  0  0
   43.8950   28.5000   45.9880 C   0  0  0  0  0  0  0  0  0  0  0  0
   44.8670   28.9120   45.1080 N   0  0  0  0  0  0  0  0  0  0  0  0
   44.5800   29.1870   43.8080 C   0  0  0  0  0  0  0  0  0  0  0  0
   43.3530   29.0610   43.3640 N   0  0  0  0  0  0  0  0  0  0  0  0
   41.3380   28.5510   43.8320 H   0  0  0  0  0  0  0  0  0  0  0  0
   41.7830   28.0410   46.1790 H   0  0  0  0  0  0  0  0  0  0  0  0
   44.1450   28.2880   47.0130 H   0  0  0  0  0  0  0  0  0  0  0  0
   46.2180   34.2420   41.7450 C   0  0  0  0  0  0  0  0  0  0  0  0
   46.4970   33.7140   40.4750 C   0  0  0  0  0  0  0  0  0  0  0  0
   47.6650   34.1520   39.8960 C   0  0  0  0  0  0  0  0  0  0  0  0
   47.8810   33.7490   38.9210 H   0  0  0  0  0  0  0  0  0  0  0  0
   48.4800   35.0470   40.5460 C   0  0  0  0  0  0  0  0  0  0  0  0
   49.3660   35.3160   39.9930 H   0  0  0  0  0  0  0  0  0  0  0  0
   48.1910   35.5550   41.7900 C   0  0  0  0  0  3  0  0  0  0  0  0
   47.0360   35.1380   42.3940 C   0  0  0  0  0  3  0  0  0  0  0  0
   43.9780   34.6820   42.6840 N   0  0  0  0  0  0  0  0  0  0  0  0
   45.0320   33.9230   42.5690 C   0  0  0  0  0  0  0  0  0  0  0  0
   44.5340   32.9180   43.4320 N   0  0  0  0  0  0  0  0  0  0  0  0
   43.8770   35.5920   42.1980 H   0  0  0  0  0  0  0  0  0  0  0  0
   44.6900   32.9350   44.4740 H   0  0  0  0  0  0  0  0  0  0  0  0
   43.9730   32.0710   43.1610 H   0  0  0  0  0  0  0  0  0  0  0  0
  1  7  1  6  0  0  0
  1  6  1  0  0  0  0
  1 21  1  0  0  0  0
  2  9  1  0  0  0  0
  2  1  1  0  0  0  0
  3  4  1  0  0  0  0
  3  2  1  0  0  0  0
  4 13  1  0  0  0  0
  4  5  1  0  0  0  0
  5 14  1  0  0  0  0
  5  6  1  0  0  0  0
  6 36  1  0  0  0  0
  6 16  1  1  0  0  0
  8  2  1  0  0  0  0
 10  3  1  0  0  0  0
 11  3  1  0  0  0  0
 12  4  1  0  0  0  0
 15  5  1  0  0  0  0
 17 18  1  0  0  0  0
 17 30  1  0  0  0  0
 18 23  1  0  0  0  0
 19 24  1  0  0  0  0
 19 18  2  0  0  0  0
 20 19  1  0  0  0  0
 21 20  2  0  0  0  0
 21 22  1  0  0  0  0
 22 17  2  0  0  0  0
 25 20  1  0  0  0  0
 26 27  1  0  0  0  0
 27 28  2  0  0  0  0
 27 33  1  0  0  0  0
 28 34  1  0  0  0  0
 29 28  1  0  0  0  0
 30 29  2  0  0  0  0
 31 30  1  0  0  0  0
 31 26  2  0  0  0  0
 32 26  1  0  0  0  0
 35 42  1  0  0  0  0
 35 44  1  0  0  0  0
 36 35  2  0  0  0  0
 37 36  1  0  0  0  0
 37 39  2  0  0  0  0
 38 37  1  0  0  0  0
 39 41  1  0  0  0  0
 40 39  1  0  0  0  0
 41 42  2  0  0  0  0
 44 43  2  0  0  0  0
 44 45  1  0  0  0  0
 45 47  1  0  0  0  0
 46 43  1  0  0  0  0
 48 45  1  0  0  0  0
M  END
>  <minimizedAffinity>
-4.68488932

>  <minimizedRMSD>
5.56769514

$$$$
