
 OpenBabel03252504053D

 24 25  0  0  0  0  0  0  0  0999 V2000
   47.2410   31.6120   41.7140 C   0  0  0  0  0  0  0  0  0  0  0  0
   47.7430   31.4280   42.9620 C   0  0  0  0  0  0  0  0  0  0  0  0
   49.0430   30.9250   43.1050 C   0  0  0  0  0  0  0  0  0  0  0  0
   49.6030   30.7130   44.0000 H   0  0  0  0  0  0  0  0  0  0  0  0
   49.7440   30.6460   41.9410 C   0  0  0  0  0  0  0  0  0  0  0  0
   50.7640   30.2540   41.9010 H   0  0  0  0  0  0  0  0  0  0  0  0
   49.1900   30.8540   40.6750 C   0  0  0  0  0  3  0  0  0  0  0  0
   47.9100   31.3460   40.5430 C   0  0  0  0  0  3  0  0  0  0  0  0
   46.3670   33.1510   46.0200 C   0  0  0  0  0  0  0  0  0  0  0  0
   47.0110   33.0340   44.7850 C   0  0  0  0  0  0  0  0  0  0  0  0
   47.1010   31.7350   44.2320 C   0  0  0  0  0  0  0  0  0  0  0  0
   46.5600   30.6830   44.9280 N   0  0  0  0  0  0  0  0  0  0  0  0
   45.9490   30.8560   46.1160 C   0  0  0  0  0  0  0  0  0  0  0  0
   45.8590   32.0810   46.6470 N   0  0  0  0  0  0  0  0  0  0  0  0
   46.3010   34.1400   46.4350 H   0  0  0  0  0  0  0  0  0  0  0  0
   45.5290   30.0150   46.6440 H   0  0  0  0  0  0  0  0  0  0  0  0
   47.5650   34.0850   44.0710 O   0  0  0  0  0  0  0  0  0  0  0  0
   48.5450   34.2690   44.1470 H   0  0  0  0  0  0  0  0  0  0  0  0
   44.9400   31.1960   41.4060 N   0  0  0  0  0  0  0  0  0  0  0  0
   45.8810   32.0990   41.6040 C   0  0  0  0  0  0  0  0  0  0  0  0
   45.0370   33.2300   41.6170 N   0  0  0  0  0  0  0  0  0  0  0  0
   45.1150   30.1850   41.3270 H   0  0  0  0  0  0  0  0  0  0  0  0
   44.6010   33.6630   40.7450 H   0  0  0  0  0  0  0  0  0  0  0  0
   44.8590   33.6180   42.5770 H   0  0  0  0  0  0  0  0  0  0  0  0
  1  2  1  0  0  0  0
  2  3  2  0  0  0  0
  2 11  1  0  0  0  0
  3  4  1  0  0  0  0
  5  3  1  0  0  0  0
  6  5  1  0  0  0  0
  7  5  2  0  0  0  0
  8  7  1  0  0  0  0
  8  1  2  0  0  0  0
  9 15  1  0  0  0  0
  9 14  1  0  0  0  0
 10  9  2  0  0  0  0
 11 10  1  0  0  0  0
 11 12  2  0  0  0  0
 12 13  1  0  0  0  0
 13 16  1  0  0  0  0
 13 14  2  0  0  0  0
 17 18  1  0  0  0  0
 17 10  1  0  0  0  0
 19 20  2  0  0  0  0
 20 21  1  0  0  0  0
 20  1  1  0  0  0  0
 21 24  1  0  0  0  0
 22 19  1  0  0  0  0
 23 21  1  0  0  0  0
M  END
>  <minimizedAffinity>
-2.82563615

>  <minimizedRMSD>
3.71553731

$$$$
