
 OpenBabel03242523473D

 24 25  0  0  0  0  0  0  0  0999 V2000
   48.8260   33.3730   42.4460 C   0  0  0  0  0  0  0  0  0  0  0  0
   47.5700   32.8750   42.6270 C   0  0  0  0  0  0  0  0  0  0  0  0
   47.4290   31.5130   42.7620 C   0  0  0  0  0  0  0  0  0  0  0  0
   46.4520   31.1020   42.9040 H   0  0  0  0  0  0  0  0  0  0  0  0
   48.4830   30.6280   42.7260 C   0  0  0  0  0  0  0  0  0  0  0  0
   48.2890   29.5620   42.8410 H   0  0  0  0  0  0  0  0  0  0  0  0
   49.7680   31.0980   42.5450 C   0  0  0  0  0  0  0  0  0  0  0  0
   49.9100   32.4850   42.4080 C   0  0  0  0  0  0  0  0  0  0  0  0
   44.7240   34.9640   41.4910 C   0  0  0  0  0  0  0  0  0  0  0  0
   45.7660   34.0230   41.5010 C   0  0  0  0  0  0  0  0  0  0  0  0
   46.5140   33.8490   42.6650 C   0  0  0  0  0  0  0  0  0  0  0  0
   46.1810   34.6100   43.7220 N   0  0  0  0  0  0  0  0  0  0  0  0
   45.1870   35.5060   43.7080 C   0  0  0  0  0  0  0  0  0  0  0  0
   44.4610   35.6770   42.5820 N   0  0  0  0  0  0  0  0  0  0  0  0
   45.8920   33.5070   40.5730 H   0  0  0  0  0  0  0  0  0  0  0  0
   45.0030   36.0660   44.6130 H   0  0  0  0  0  0  0  0  0  0  0  0
   43.9910   35.1360   40.3570 O   0  0  0  0  0  0  0  0  0  0  0  0
   44.0330   35.9500   39.7700 H   0  0  0  0  0  0  0  0  0  0  0  0
   50.1810   35.3360   42.9810 N   0  0  0  0  0  0  0  0  0  0  0  0
   49.3350   34.6970   42.2470 C   0  0  0  0  0  0  0  0  0  0  0  0
   49.1710   35.7080   41.2830 N   0  0  0  0  0  0  0  0  0  0  0  0
   50.4570   36.2920   42.6790 H   0  0  0  0  0  0  0  0  0  0  0  0
   49.3310   35.6170   40.2620 H   0  0  0  0  0  0  0  0  0  0  0  0
   49.0510   36.4380   40.5930 H   0  0  0  0  0  0  0  0  0  0  0  0
  1  2  1  0  0  0  0
  2 11  1  0  0  0  0
  2  3  2  0  0  0  0
  3  4  1  0  0  0  0
  5  3  1  0  0  0  0
  5  6  1  0  0  0  0
  7  5  2  0  0  0  0
  8  1  2  0  0  0  0
  8  7  1  0  0  0  0
  9 10  2  0  0  0  0
  9 14  1  0  0  0  0
 10 11  1  0  0  0  0
 11 12  2  0  0  0  0
 13 12  1  0  0  0  0
 13 16  1  0  0  0  0
 14 13  2  0  0  0  0
 15 10  1  0  0  0  0
 17  9  1  0  0  0  0
 18 17  1  0  0  0  0
 20  1  1  0  0  0  0
 20 19  2  0  0  0  0
 21 20  1  0  0  0  0
 22 19  1  0  0  0  0
 23 21  1  0  0  0  0
 24 21  1  0  0  0  0
M  END
>  <minimizedAffinity>
-5.02435493

>  <minimizedRMSD>
1.97218895

$$$$
