
 OpenBabel03252506323D

 37 39  0  0  1  0  0  0  0  0999 V2000
   42.4990   32.9410   38.9900 C   0  0  0  0  0  0  0  0  0  0  0  0
   41.7850   33.1460   37.7850 C   0  0  0  0  0  0  0  0  0  0  0  0
   40.5580   32.5060   37.6050 C   0  0  0  0  0  0  0  0  0  0  0  0
   40.1280   31.7150   38.6190 N   0  0  0  0  0  0  0  0  0  0  0  0
   40.8350   31.5400   39.7540 C   0  0  0  0  0  0  0  0  0  0  0  0
   42.0090   32.1390   39.9540 N   0  0  0  0  0  0  0  0  0  0  0  0
   40.2610   30.6710   40.7220 N   0  0  0  0  0  0  0  0  0  0  0  0
   40.7300   30.6040   42.1190 C   0  0  0  0  0  0  0  0  0  0  0  0
   40.5090   29.1640   42.4420 C   0  0  0  0  0  0  0  0  0  0  0  0
   39.8230   28.5180   41.2320 C   0  0  0  0  0  0  0  0  0  0  0  0
   39.2020   29.7290   40.6460 C   0  0  2  0  0  0  0  0  0  0  0  0
   43.4530   33.4150   39.1760 H   0  0  0  0  0  0  0  0  0  0  0  0
   40.0460   32.6880   36.6770 H   0  0  0  0  0  0  0  0  0  0  0  0
   41.8210   30.8070   42.1150 H   0  0  0  0  0  0  0  0  0  0  0  0
   40.1630   31.3080   42.7570 H   0  0  0  0  0  0  0  0  0  0  0  0
   41.4130   28.6150   42.7590 H   0  0  0  0  0  0  0  0  0  0  0  0
   39.8090   29.0610   43.3230 H   0  0  0  0  0  0  0  0  0  0  0  0
   40.6820   28.0800   40.7010 H   0  0  0  0  0  0  0  0  0  0  0  0
   39.0950   27.7560   41.5790 H   0  0  0  0  0  0  0  0  0  0  0  0
   38.4940   30.0800   41.4950 H   0  0  0  0  0  0  0  0  0  0  0  0
   37.1100   30.1300   39.3100 C   0  0  0  0  0  0  0  0  0  0  0  0
   38.3690   29.6010   39.4980 C   0  0  0  0  0  0  0  0  0  0  0  0
   38.7570   28.8600   38.3680 C   0  0  0  0  0  0  0  0  0  0  0  0
   39.7480   28.3750   38.3800 H   0  0  0  0  0  0  0  0  0  0  0  0
   38.0020   28.6840   37.2430 C   0  0  0  0  0  0  0  0  0  0  0  0
   38.3940   28.0940   36.4300 H   0  0  0  0  0  0  0  0  0  0  0  0
   36.7540   29.2470   37.1350 C   0  0  0  0  0  3  0  0  0  0  0  0
   36.3090   29.9790   38.1870 C   0  0  0  0  0  3  0  0  0  0  0  0
   35.6890   31.0680   41.3250 N   0  0  0  0  0  0  0  0  0  0  0  0
   36.4780   30.9470   40.3210 C   0  0  0  0  0  0  0  0  0  0  0  0
   36.7200   32.3480   40.4270 N   0  0  0  0  0  0  0  0  0  0  0  0
   35.6030   32.0470   41.7140 H   0  0  0  0  0  0  0  0  0  0  0  0
   37.0720   33.2110   40.8760 H   0  0  0  0  0  0  0  0  0  0  0  0
   36.3690   32.9120   39.6190 H   0  0  0  0  0  0  0  0  0  0  0  0
   42.4020   34.0190   36.8290 N   0  0  0  0  0  0  0  0  0  0  0  0
   42.8410   33.6620   35.9520 H   0  0  0  0  0  0  0  0  0  0  0  0
   42.3660   35.0290   37.1010 H   0  0  0  0  0  0  0  0  0  0  0  0
  1 12  1  0  0  0  0
  1  6  1  0  0  0  0
  2  1  2  0  0  0  0
  3  2  1  0  0  0  0
  3  4  2  0  0  0  0
  4  5  1  0  0  0  0
  5  6  2  0  0  0  0
  5  7  1  0  0  0  0
  7  8  1  0  0  0  0
  8  9  1  0  0  0  0
  8 15  1  0  0  0  0
  9 16  1  0  0  0  0
  9 17  1  0  0  0  0
 10 19  1  0  0  0  0
 10  9  1  0  0  0  0
 11  7  1  0  0  0  0
 11 10  1  0  0  0  0
 11 20  1  1  0  0  0
 13  3  1  0  0  0  0
 14  8  1  0  0  0  0
 18 10  1  0  0  0  0
 21 22  1  0  0  0  0
 21 30  1  0  0  0  0
 22 11  1  0  0  0  0
 23 24  1  0  0  0  0
 23 22  2  0  0  0  0
 25 23  1  0  0  0  0
 26 25  1  0  0  0  0
 27 25  2  0  0  0  0
 27 28  1  0  0  0  0
 28 21  2  0  0  0  0
 29 32  1  0  0  0  0
 30 31  1  0  0  0  0
 30 29  2  0  0  0  0
 31 33  1  0  0  0  0
 34 31  1  0  0  0  0
 35 37  1  0  0  0  0
 35  2  1  0  0  0  0
 36 35  1  0  0  0  0
M  END
>  <minimizedAffinity>
-6.2546134

$$$$

 OpenBabel03252506323D

 37 39  0  0  1  0  0  0  0  0999 V2000
   37.5070   32.6520   40.0280 C   0  0  0  0  0  0  0  0  0  0  0  0
   38.5880   32.8140   40.9260 C   0  0  0  0  0  0  0  0  0  0  0  0
   39.2950   31.6870   41.3490 C   0  0  0  0  0  0  0  0  0  0  0  0
   38.8850   30.4910   40.8600 N   0  0  0  0  0  0  0  0  0  0  0  0
   37.8480   30.3720   40.0060 C   0  0  0  0  0  0  0  0  0  0  0  0
   37.1550   31.4300   39.5840 N   0  0  0  0  0  0  0  0  0  0  0  0
   37.5280   29.0510   39.5880 N   0  0  0  0  0  0  0  0  0  0  0  0
   36.6450   28.7620   38.4440 C   0  0  0  0  0  0  0  0  0  0  0  0
   35.9770   27.5040   38.8880 C   0  0  0  0  0  0  0  0  0  0  0  0
   36.6060   27.0940   40.2250 C   0  0  0  0  0  0  0  0  0  0  0  0
   37.9130   27.7780   40.0840 C   0  0  2  0  0  0  0  0  0  0  0  0
   36.9300   33.4940   39.6710 H   0  0  0  0  0  0  0  0  0  0  0  0
   40.1100   31.8520   42.0310 H   0  0  0  0  0  0  0  0  0  0  0  0
   35.8870   29.5720   38.3940 H   0  0  0  0  0  0  0  0  0  0  0  0
   37.2310   28.6640   37.5100 H   0  0  0  0  0  0  0  0  0  0  0  0
   34.8750   27.5550   38.9370 H   0  0  0  0  0  0  0  0  0  0  0  0
   36.1750   26.6710   38.1500 H   0  0  0  0  0  0  0  0  0  0  0  0
   35.8870   27.5150   40.9440 H   0  0  0  0  0  0  0  0  0  0  0  0
   36.6760   25.9870   40.2800 H   0  0  0  0  0  0  0  0  0  0  0  0
   38.3590   27.2680   39.1430 H   0  0  0  0  0  0  0  0  0  0  0  0
   38.7310   27.7290   42.4610 C   0  0  0  0  0  0  0  0  0  0  0  0
   38.9000   27.6140   41.0980 C   0  0  0  0  0  0  0  0  0  0  0  0
   40.2410   27.3160   40.7970 C   0  0  0  0  0  0  0  0  0  0  0  0
   40.5220   27.1960   39.7370 H   0  0  0  0  0  0  0  0  0  0  0  0
   41.2390   27.1610   41.7180 C   0  0  0  0  0  0  0  0  0  0  0  0
   42.2380   26.9340   41.3820 H   0  0  0  0  0  0  0  0  0  0  0  0
   40.9870   27.2930   43.0620 C   0  0  0  0  0  3  0  0  0  0  0  0
   39.7140   27.5800   43.4300 C   0  0  0  0  0  3  0  0  0  0  0  0
   36.3250   27.6310   43.5360 N   0  0  0  0  0  0  0  0  0  0  0  0
   37.4400   28.0230   43.0380 C   0  0  0  0  0  0  0  0  0  0  0  0
   36.9840   29.3580   43.2420 N   0  0  0  0  0  0  0  0  0  0  0  0
   35.6670   28.4030   43.8320 H   0  0  0  0  0  0  0  0  0  0  0  0
   36.6960   30.1800   43.8010 H   0  0  0  0  0  0  0  0  0  0  0  0
   36.8190   29.9000   42.3620 H   0  0  0  0  0  0  0  0  0  0  0  0
   38.8720   34.1600   41.3330 N   0  0  0  0  0  0  0  0  0  0  0  0
   38.6450   34.5120   42.2880 H   0  0  0  0  0  0  0  0  0  0  0  0
   39.3200   34.7370   40.5840 H   0  0  0  0  0  0  0  0  0  0  0  0
  1  2  1  0  0  0  0
  2 35  1  0  0  0  0
  2  3  2  0  0  0  0
  3 13  1  0  0  0  0
  4  3  1  0  0  0  0
  5  4  2  0  0  0  0
  6  5  1  0  0  0  0
  6  1  2  0  0  0  0
  7  5  1  0  0  0  0
  7 11  1  0  0  0  0
  8  9  1  0  0  0  0
  8  7  1  0  0  0  0
  9 16  1  0  0  0  0
  9 10  1  0  0  0  0
 10 19  1  0  0  0  0
 10 18  1  0  0  0  0
 11 20  1  6  0  0  0
 11 10  1  0  0  0  0
 11 22  1  0  0  0  0
 12  1  1  0  0  0  0
 14  8  1  0  0  0  0
 15  8  1  0  0  0  0
 17  9  1  0  0  0  0
 21 30  1  0  0  0  0
 21 28  1  0  0  0  0
 22 21  2  0  0  0  0
 23 22  1  0  0  0  0
 23 25  2  0  0  0  0
 24 23  1  0  0  0  0
 25 27  1  0  0  0  0
 26 25  1  0  0  0  0
 27 28  2  0  0  0  0
 29 32  1  0  0  0  0
 30 31  1  0  0  0  0
 30 29  2  0  0  0  0
 31 33  1  0  0  0  0
 34 31  1  0  0  0  0
 35 36  1  0  0  0  0
 37 35  1  0  0  0  0
M  END
>  <minimizedAffinity>
-6.11698055

$$$$

 OpenBabel03252506323D

 37 39  0  0  1  0  0  0  0  0999 V2000
   41.0360   30.6860   38.3060 C   0  0  0  0  0  0  0  0  0  0  0  0
   39.9890   31.4100   37.6900 C   0  0  0  0  0  0  0  0  0  0  0  0
   38.6680   31.0160   37.9120 C   0  0  0  0  0  0  0  0  0  0  0  0
   38.4790   29.9430   38.7190 N   0  0  0  0  0  0  0  0  0  0  0  0
   39.5020   29.2740   39.2900 C   0  0  0  0  0  0  0  0  0  0  0  0
   40.7730   29.6280   39.0970 N   0  0  0  0  0  0  0  0  0  0  0  0
   39.1480   28.1620   40.1020 N   0  0  0  0  0  0  0  0  0  0  0  0
   40.0910   27.5150   41.0330 C   0  0  0  0  0  0  0  0  0  0  0  0
   39.6460   26.0920   40.9720 C   0  0  0  0  0  0  0  0  0  0  0  0
   38.3980   26.0350   40.0820 C   0  0  0  0  0  0  0  0  0  0  0  0
   37.9370   27.4340   40.2420 C   0  0  2  0  0  0  0  0  0  0  0  0
   42.0750   30.9530   38.1650 H   0  0  0  0  0  0  0  0  0  0  0  0
   37.9010   31.5920   37.4270 H   0  0  0  0  0  0  0  0  0  0  0  0
   41.1050   27.5930   40.5890 H   0  0  0  0  0  0  0  0  0  0  0  0
   40.0250   27.9720   42.0390 H   0  0  0  0  0  0  0  0  0  0  0  0
   40.4250   25.3750   40.6560 H   0  0  0  0  0  0  0  0  0  0  0  0
   39.3470   25.7280   41.9990 H   0  0  0  0  0  0  0  0  0  0  0  0
   38.8340   25.7510   39.1120 H   0  0  0  0  0  0  0  0  0  0  0  0
   37.6920   25.2760   40.4790 H   0  0  0  0  0  0  0  0  0  0  0  0
   37.7370   27.5010   41.3830 H   0  0  0  0  0  0  0  0  0  0  0  0
   35.8460   28.8190   40.0600 C   0  0  0  0  0  0  0  0  0  0  0  0
   36.7190   27.8430   39.6280 C   0  0  0  0  0  0  0  0  0  0  0  0
   36.2360   27.2450   38.4510 C   0  0  0  0  0  0  0  0  0  0  0  0
   36.8360   26.4420   37.9910 H   0  0  0  0  0  0  0  0  0  0  0  0
   35.0700   27.5780   37.8200 C   0  0  0  0  0  0  0  0  0  0  0  0
   34.7890   27.0560   36.9200 H   0  0  0  0  0  0  0  0  0  0  0  0
   34.2540   28.5650   38.3160 C   0  0  0  0  0  3  0  0  0  0  0  0
   34.6550   29.1890   39.4520 C   0  0  0  0  0  3  0  0  0  0  0  0
   36.6250   29.7040   42.4200 N   0  0  0  0  0  0  0  0  0  0  0  0
   36.1140   29.5960   41.2480 C   0  0  0  0  0  0  0  0  0  0  0  0
   35.6760   30.9460   41.3880 N   0  0  0  0  0  0  0  0  0  0  0  0
   36.4930   30.6440   42.8840 H   0  0  0  0  0  0  0  0  0  0  0  0
   35.7950   31.9700   41.4790 H   0  0  0  0  0  0  0  0  0  0  0  0
   34.6370   31.0630   41.4320 H   0  0  0  0  0  0  0  0  0  0  0  0
   40.3860   32.5170   36.8690 N   0  0  0  0  0  0  0  0  0  0  0  0
   40.3370   32.4830   35.8280 H   0  0  0  0  0  0  0  0  0  0  0  0
   40.7250   33.3420   37.4160 H   0  0  0  0  0  0  0  0  0  0  0  0
  1  6  1  0  0  0  0
  2  3  1  0  0  0  0
  2  1  2  0  0  0  0
  3  4  2  0  0  0  0
  4  5  1  0  0  0  0
  5  7  1  0  0  0  0
  6  5  2  0  0  0  0
  7 11  1  0  0  0  0
  7  8  1  0  0  0  0
  8 15  1  0  0  0  0
  9  8  1  0  0  0  0
  9 17  1  0  0  0  0
 10 11  1  0  0  0  0
 10 19  1  0  0  0  0
 10  9  1  0  0  0  0
 11 20  1  1  0  0  0
 12  1  1  0  0  0  0
 13  3  1  0  0  0  0
 14  8  1  0  0  0  0
 16  9  1  0  0  0  0
 18 10  1  0  0  0  0
 21 30  1  0  0  0  0
 22 21  1  0  0  0  0
 22 11  1  0  0  0  0
 23 22  2  0  0  0  0
 24 23  1  0  0  0  0
 25 27  2  0  0  0  0
 25 23  1  0  0  0  0
 26 25  1  0  0  0  0
 27 28  1  0  0  0  0
 28 21  2  0  0  0  0
 29 32  1  0  0  0  0
 30 31  1  0  0  0  0
 30 29  2  0  0  0  0
 31 34  1  0  0  0  0
 31 33  1  0  0  0  0
 35 37  1  0  0  0  0
 35  2  1  0  0  0  0
 36 35  1  0  0  0  0
M  END
>  <minimizedAffinity>
-6.01682949

$$$$

 OpenBabel03252506323D

 37 39  0  0  1  0  0  0  0  0999 V2000
   38.9840   31.8570   37.7740 C   0  0  0  0  0  0  0  0  0  0  0  0
   39.3460   32.2560   39.0830 C   0  0  0  0  0  0  0  0  0  0  0  0
   39.2150   31.3440   40.1320 C   0  0  0  0  0  0  0  0  0  0  0  0
   38.7400   30.1150   39.8160 N   0  0  0  0  0  0  0  0  0  0  0  0
   38.4030   29.7670   38.5570 C   0  0  0  0  0  0  0  0  0  0  0  0
   38.5170   30.6160   37.5350 N   0  0  0  0  0  0  0  0  0  0  0  0
   37.9080   28.4460   38.3820 N   0  0  0  0  0  0  0  0  0  0  0  0
   37.7830   27.8030   37.0610 C   0  0  0  0  0  0  0  0  0  0  0  0
   36.5730   26.9520   37.2520 C   0  0  0  0  0  0  0  0  0  0  0  0
   36.1410   27.0850   38.7180 C   0  0  0  0  0  0  0  0  0  0  0  0
   37.4440   27.4750   39.3070 C   0  0  2  0  0  0  0  0  0  0  0  0
   39.0680   32.5260   36.9290 H   0  0  0  0  0  0  0  0  0  0  0  0
   39.5010   31.6850   41.1100 H   0  0  0  0  0  0  0  0  0  0  0  0
   37.5500   28.5990   36.3230 H   0  0  0  0  0  0  0  0  0  0  0  0
   38.7030   27.2400   36.8100 H   0  0  0  0  0  0  0  0  0  0  0  0
   35.7460   27.1540   36.5480 H   0  0  0  0  0  0  0  0  0  0  0  0
   36.8220   25.8650   37.0690 H   0  0  0  0  0  0  0  0  0  0  0  0
   35.3630   27.8600   38.6480 H   0  0  0  0  0  0  0  0  0  0  0  0
   35.7510   26.1110   39.0810 H   0  0  0  0  0  0  0  0  0  0  0  0
   38.1110   26.5580   39.0620 H   0  0  0  0  0  0  0  0  0  0  0  0
   36.7900   28.4640   41.5240 C   0  0  0  0  0  0  0  0  0  0  0  0
   37.5500   27.6440   40.7170 C   0  0  0  0  0  0  0  0  0  0  0  0
   38.5120   26.9640   41.4840 C   0  0  0  0  0  0  0  0  0  0  0  0
   39.1950   26.2700   40.9650 H   0  0  0  0  0  0  0  0  0  0  0  0
   38.6780   27.0910   42.8340 C   0  0  0  0  0  0  0  0  0  0  0  0
   39.4490   26.5240   43.3280 H   0  0  0  0  0  0  0  0  0  0  0  0
   37.8770   27.9330   43.5680 C   0  0  0  0  0  3  0  0  0  0  0  0
   36.9230   28.6240   42.8960 C   0  0  0  0  0  3  0  0  0  0  0  0
   34.6050   29.3700   40.3560 N   0  0  0  0  0  0  0  0  0  0  0  0
   35.7190   29.2700   40.9840 C   0  0  0  0  0  0  0  0  0  0  0  0
   35.7020   30.6900   41.1050 N   0  0  0  0  0  0  0  0  0  0  0  0
   34.2420   30.3550   40.2390 H   0  0  0  0  0  0  0  0  0  0  0  0
   35.3470   31.6030   41.4390 H   0  0  0  0  0  0  0  0  0  0  0  0
   36.4620   31.1800   40.5780 H   0  0  0  0  0  0  0  0  0  0  0  0
   39.8290   33.5990   39.2200 N   0  0  0  0  0  0  0  0  0  0  0  0
   39.2580   34.3540   39.6590 H   0  0  0  0  0  0  0  0  0  0  0  0
   40.7940   33.7370   38.8390 H   0  0  0  0  0  0  0  0  0  0  0  0
  1  2  1  0  0  0  0
  2 35  1  0  0  0  0
  2  3  2  0  0  0  0
  3 13  1  0  0  0  0
  4  3  1  0  0  0  0
  5  4  2  0  0  0  0
  6  1  2  0  0  0  0
  6  5  1  0  0  0  0
  7  5  1  0  0  0  0
  7 11  1  0  0  0  0
  8  9  1  0  0  0  0
  8  7  1  0  0  0  0
  9 10  1  0  0  0  0
 10 19  1  0  0  0  0
 10 11  1  0  0  0  0
 11 20  1  6  0  0  0
 11 22  1  0  0  0  0
 12  1  1  0  0  0  0
 14  8  1  0  0  0  0
 15  8  1  0  0  0  0
 16  9  1  0  0  0  0
 17  9  1  0  0  0  0
 18 10  1  0  0  0  0
 21 28  1  0  0  0  0
 22 23  1  0  0  0  0
 22 21  2  0  0  0  0
 23 25  2  0  0  0  0
 24 23  1  0  0  0  0
 25 26  1  0  0  0  0
 25 27  1  0  0  0  0
 28 27  2  0  0  0  0
 29 30  2  0  0  0  0
 30 31  1  0  0  0  0
 30 21  1  0  0  0  0
 31 33  1  0  0  0  0
 32 29  1  0  0  0  0
 34 31  1  0  0  0  0
 35 36  1  0  0  0  0
 37 35  1  0  0  0  0
M  END
>  <minimizedAffinity>
-5.87299109

$$$$

 OpenBabel03252506323D

 37 39  0  0  1  0  0  0  0  0999 V2000
   40.2700   28.5280   37.0700 C   0  0  0  0  0  0  0  0  0  0  0  0
   39.6260   27.3220   37.4310 C   0  0  0  0  0  0  0  0  0  0  0  0
   38.9750   27.2410   38.6640 C   0  0  0  0  0  0  0  0  0  0  0  0
   39.0090   28.3490   39.4440 N   0  0  0  0  0  0  0  0  0  0  0  0
   39.6340   29.4840   39.0690 C   0  0  0  0  0  0  0  0  0  0  0  0
   40.2630   29.5900   37.8980 N   0  0  0  0  0  0  0  0  0  0  0  0
   39.5940   30.5590   40.0000 N   0  0  0  0  0  0  0  0  0  0  0  0
   39.9490   31.9450   39.6410 C   0  0  0  0  0  0  0  0  0  0  0  0
   40.5530   32.4400   40.9120 C   0  0  0  0  0  0  0  0  0  0  0  0
   40.4070   31.3270   41.9580 C   0  0  0  0  0  0  0  0  0  0  0  0
   39.2460   30.6140   41.3740 C   0  0  2  0  0  0  0  0  0  0  0  0
   40.7860   28.6390   36.1260 H   0  0  0  0  0  0  0  0  0  0  0  0
   38.4970   26.3080   38.9020 H   0  0  0  0  0  0  0  0  0  0  0  0
   40.7390   31.8960   38.8630 H   0  0  0  0  0  0  0  0  0  0  0  0
   39.0540   32.5060   39.3110 H   0  0  0  0  0  0  0  0  0  0  0  0
   41.5920   32.8020   40.8230 H   0  0  0  0  0  0  0  0  0  0  0  0
   39.9860   33.3400   41.2930 H   0  0  0  0  0  0  0  0  0  0  0  0
   41.3900   30.8360   41.8940 H   0  0  0  0  0  0  0  0  0  0  0  0
   40.2110   31.7750   42.9540 H   0  0  0  0  0  0  0  0  0  0  0  0
   38.4210   31.4280   41.3900 H   0  0  0  0  0  0  0  0  0  0  0  0
   37.3530   29.1730   42.1880 C   0  0  0  0  0  0  0  0  0  0  0  0
   38.6860   29.5050   42.0700 C   0  0  0  0  0  0  0  0  0  0  0  0
   39.4800   28.5810   42.7720 C   0  0  0  0  0  0  0  0  0  0  0  0
   40.5740   28.7250   42.7660 H   0  0  0  0  0  0  0  0  0  0  0  0
   39.0080   27.5070   43.4720 C   0  0  0  0  0  0  0  0  0  0  0  0
   39.7040   26.8580   43.9780 H   0  0  0  0  0  0  0  0  0  0  0  0
   37.6610   27.2450   43.5400 C   0  0  0  0  0  3  0  0  0  0  0  0
   36.8290   28.0940   42.8860 C   0  0  0  0  0  3  0  0  0  0  0  0
   35.8130   31.0950   41.2430 N   0  0  0  0  0  0  0  0  0  0  0  0
   36.3220   29.9580   41.5490 C   0  0  0  0  0  0  0  0  0  0  0  0
   35.2320   29.3590   40.8520 N   0  0  0  0  0  0  0  0  0  0  0  0
   34.9220   31.0520   40.6780 H   0  0  0  0  0  0  0  0  0  0  0  0
   34.6590   29.1230   40.0220 H   0  0  0  0  0  0  0  0  0  0  0  0
   34.5740   28.8170   41.4590 H   0  0  0  0  0  0  0  0  0  0  0  0
   39.6980   26.2570   36.4720 N   0  0  0  0  0  0  0  0  0  0  0  0
   40.3050   25.4210   36.6150 H   0  0  0  0  0  0  0  0  0  0  0  0
   39.0910   26.4080   35.6340 H   0  0  0  0  0  0  0  0  0  0  0  0
  1  2  2  0  0  0  0
  1  6  1  0  0  0  0
  2  3  1  0  0  0  0
  3 13  1  0  0  0  0
  3  4  2  0  0  0  0
  5  4  1  0  0  0  0
  5  7  1  0  0  0  0
  6  5  2  0  0  0  0
  7 11  1  0  0  0  0
  8  7  1  0  0  0  0
  8  9  1  0  0  0  0
  9 17  1  0  0  0  0
  9 10  1  0  0  0  0
 10 19  1  0  0  0  0
 11 20  1  1  0  0  0
 11 10  1  0  0  0  0
 11 22  1  0  0  0  0
 12  1  1  0  0  0  0
 14  8  1  0  0  0  0
 15  8  1  0  0  0  0
 16  9  1  0  0  0  0
 18 10  1  0  0  0  0
 21 28  1  0  0  0  0
 22 21  2  0  0  0  0
 22 23  1  0  0  0  0
 23 25  2  0  0  0  0
 24 23  1  0  0  0  0
 25 27  1  0  0  0  0
 25 26  1  0  0  0  0
 28 27  2  0  0  0  0
 29 30  2  0  0  0  0
 30 21  1  0  0  0  0
 31 34  1  0  0  0  0
 31 30  1  0  0  0  0
 32 29  1  0  0  0  0
 33 31  1  0  0  0  0
 35 36  1  0  0  0  0
 35  2  1  0  0  0  0
 37 35  1  0  0  0  0
M  END
>  <minimizedAffinity>
-5.75838614

$$$$

 OpenBabel03252506323D

 37 39  0  0  1  0  0  0  0  0999 V2000
   37.2420   27.0460   37.3230 C   0  0  0  0  0  0  0  0  0  0  0  0
   37.9360   28.1480   36.7720 C   0  0  0  0  0  0  0  0  0  0  0  0
   38.6160   29.0200   37.6250 C   0  0  0  0  0  0  0  0  0  0  0  0
   38.5600   28.7420   38.9500 N   0  0  0  0  0  0  0  0  0  0  0  0
   37.8880   27.6810   39.4430 C   0  0  0  0  0  0  0  0  0  0  0  0
   37.2300   26.8320   38.6530 N   0  0  0  0  0  0  0  0  0  0  0  0
   37.9100   27.5260   40.8570 N   0  0  0  0  0  0  0  0  0  0  0  0
   37.4990   26.2830   41.5350 C   0  0  0  0  0  0  0  0  0  0  0  0
   36.9060   26.8100   42.7980 C   0  0  0  0  0  0  0  0  0  0  0  0
   37.1140   28.3300   42.8080 C   0  0  0  0  0  0  0  0  0  0  0  0
   38.2860   28.4080   41.9040 C   0  0  2  0  0  0  0  0  0  0  0  0
   36.7020   26.3430   36.7030 H   0  0  0  0  0  0  0  0  0  0  0  0
   39.1310   29.8450   37.1670 H   0  0  0  0  0  0  0  0  0  0  0  0
   36.6940   25.8210   40.9260 H   0  0  0  0  0  0  0  0  0  0  0  0
   38.3670   25.6110   41.6820 H   0  0  0  0  0  0  0  0  0  0  0  0
   35.8530   26.5260   42.9710 H   0  0  0  0  0  0  0  0  0  0  0  0
   37.4490   26.3880   43.6940 H   0  0  0  0  0  0  0  0  0  0  0  0
   36.1470   28.6850   42.4190 H   0  0  0  0  0  0  0  0  0  0  0  0
   37.3150   28.6720   43.8440 H   0  0  0  0  0  0  0  0  0  0  0  0
   39.0820   27.7890   42.4770 H   0  0  0  0  0  0  0  0  0  0  0  0
   38.2940   30.8280   41.2240 C   0  0  0  0  0  0  0  0  0  0  0  0
   38.8990   29.6700   41.6630 C   0  0  0  0  0  0  0  0  0  0  0  0
   40.2780   29.8800   41.8410 C   0  0  0  0  0  0  0  0  0  0  0  0
   40.8920   29.0330   42.1910 H   0  0  0  0  0  0  0  0  0  0  0  0
   40.9310   31.0580   41.6140 C   0  0  0  0  0  0  0  0  0  0  0  0
   41.9950   31.1140   41.7810 H   0  0  0  0  0  0  0  0  0  0  0  0
   40.2530   32.1700   41.1760 C   0  0  0  0  0  3  0  0  0  0  0  0
   38.9160   32.0440   40.9810 C   0  0  0  0  0  3  0  0  0  0  0  0
   35.6640   30.9440   41.4000 N   0  0  0  0  0  0  0  0  0  0  0  0
   36.8720   30.8860   40.9720 C   0  0  0  0  0  0  0  0  0  0  0  0
   36.3340   30.8930   39.6520 N   0  0  0  0  0  0  0  0  0  0  0  0
   34.9210   30.9680   40.6490 H   0  0  0  0  0  0  0  0  0  0  0  0
   35.8360   31.2980   38.8400 H   0  0  0  0  0  0  0  0  0  0  0  0
   36.4880   30.0080   39.1150 H   0  0  0  0  0  0  0  0  0  0  0  0
   37.8800   28.2770   35.3440 N   0  0  0  0  0  0  0  0  0  0  0  0
   37.3060   29.0110   34.8740 H   0  0  0  0  0  0  0  0  0  0  0  0
   38.4630   27.5710   34.8370 H   0  0  0  0  0  0  0  0  0  0  0  0
  1  6  1  0  0  0  0
  2  1  2  0  0  0  0
  2  3  1  0  0  0  0
  3  4  2  0  0  0  0
  4  5  1  0  0  0  0
  5  7  1  0  0  0  0
  6  5  2  0  0  0  0
  7  8  1  0  0  0  0
  7 11  1  0  0  0  0
  8 15  1  0  0  0  0
  8  9  1  0  0  0  0
  9 10  1  0  0  0  0
  9 16  1  0  0  0  0
  9 17  1  0  0  0  0
 10 19  1  0  0  0  0
 11 20  1  1  0  0  0
 11 10  1  0  0  0  0
 12  1  1  0  0  0  0
 13  3  1  0  0  0  0
 14  8  1  0  0  0  0
 18 10  1  0  0  0  0
 21 22  1  0  0  0  0
 22 23  2  0  0  0  0
 22 11  1  0  0  0  0
 23 24  1  0  0  0  0
 25 26  1  0  0  0  0
 25 23  1  0  0  0  0
 27 25  2  0  0  0  0
 28 27  1  0  0  0  0
 28 21  2  0  0  0  0
 30 21  1  0  0  0  0
 30 29  2  0  0  0  0
 31 30  1  0  0  0  0
 32 29  1  0  0  0  0
 33 31  1  0  0  0  0
 34 31  1  0  0  0  0
 35  2  1  0  0  0  0
 36 35  1  0  0  0  0
 37 35  1  0  0  0  0
M  END
>  <minimizedAffinity>
-5.64782715

$$$$

 OpenBabel03252506323D

 37 39  0  0  1  0  0  0  0  0999 V2000
   39.0830   25.8800   42.8990 C   0  0  0  0  0  0  0  0  0  0  0  0
   38.3050   25.2640   41.8910 C   0  0  0  0  0  0  0  0  0  0  0  0
   38.0070   25.9780   40.7290 C   0  0  0  0  0  0  0  0  0  0  0  0
   38.4960   27.2400   40.6480 N   0  0  0  0  0  0  0  0  0  0  0  0
   39.2350   27.7980   41.6280 C   0  0  0  0  0  0  0  0  0  0  0  0
   39.5350   27.1400   42.7490 N   0  0  0  0  0  0  0  0  0  0  0  0
   39.6670   29.1340   41.4050 N   0  0  0  0  0  0  0  0  0  0  0  0
   40.7180   29.7840   42.2100 C   0  0  0  0  0  0  0  0  0  0  0  0
   40.2530   31.2010   42.2250 C   0  0  0  0  0  0  0  0  0  0  0  0
   39.0110   31.2910   41.3290 C   0  0  0  0  0  0  0  0  0  0  0  0
   39.2680   30.1170   40.4610 C   0  0  2  0  0  0  0  0  0  0  0  0
   39.3400   25.3680   43.8160 H   0  0  0  0  0  0  0  0  0  0  0  0
   37.4140   25.4750   39.9870 H   0  0  0  0  0  0  0  0  0  0  0  0
   40.6500   29.3740   43.2400 H   0  0  0  0  0  0  0  0  0  0  0  0
   41.7130   29.6330   41.7510 H   0  0  0  0  0  0  0  0  0  0  0  0
   40.0810   31.6240   43.2310 H   0  0  0  0  0  0  0  0  0  0  0  0
   41.0410   31.8790   41.7800 H   0  0  0  0  0  0  0  0  0  0  0  0
   38.2010   31.2080   42.0690 H   0  0  0  0  0  0  0  0  0  0  0  0
   39.0090   32.2620   40.7910 H   0  0  0  0  0  0  0  0  0  0  0  0
   40.2730   30.3980   39.9550 H   0  0  0  0  0  0  0  0  0  0  0  0
   37.0000   29.8020   39.4240 C   0  0  0  0  0  0  0  0  0  0  0  0
   38.3780   29.8350   39.3870 C   0  0  0  0  0  0  0  0  0  0  0  0
   38.8360   29.5210   38.0960 C   0  0  0  0  0  0  0  0  0  0  0  0
   39.9250   29.5080   37.9190 H   0  0  0  0  0  0  0  0  0  0  0  0
   38.0390   29.2250   37.0260 C   0  0  0  0  0  0  0  0  0  0  0  0
   38.4930   28.9960   36.0750 H   0  0  0  0  0  0  0  0  0  0  0  0
   36.6700   29.2140   37.1470 C   0  0  0  0  0  3  0  0  0  0  0  0
   36.1520   29.5080   38.3650 C   0  0  0  0  0  3  0  0  0  0  0  0
   35.6440   30.9280   41.3870 N   0  0  0  0  0  0  0  0  0  0  0  0
   36.2720   30.0980   40.6360 C   0  0  0  0  0  0  0  0  0  0  0  0
   36.0130   29.1080   41.6290 N   0  0  0  0  0  0  0  0  0  0  0  0
   35.2710   30.5250   42.2900 H   0  0  0  0  0  0  0  0  0  0  0  0
   35.4230   28.4780   42.2000 H   0  0  0  0  0  0  0  0  0  0  0  0
   36.8660   28.7500   42.1170 H   0  0  0  0  0  0  0  0  0  0  0  0
   37.8780   23.9210   42.1590 N   0  0  0  0  0  0  0  0  0  0  0  0
   36.8890   23.6890   42.4000 H   0  0  0  0  0  0  0  0  0  0  0  0
   38.6480   23.2160   42.0890 H   0  0  0  0  0  0  0  0  0  0  0  0
  1 12  1  0  0  0  0
  2 35  1  0  0  0  0
  2  1  2  0  0  0  0
  3  2  1  0  0  0  0
  4  3  2  0  0  0  0
  4  5  1  0  0  0  0
  5  6  2  0  0  0  0
  6  1  1  0  0  0  0
  7  5  1  0  0  0  0
  7  8  1  0  0  0  0
  8  9  1  0  0  0  0
  8 14  1  0  0  0  0
  9 16  1  0  0  0  0
 10 18  1  0  0  0  0
 10  9  1  0  0  0  0
 11 20  1  6  0  0  0
 11 10  1  0  0  0  0
 11  7  1  0  0  0  0
 13  3  1  0  0  0  0
 15  8  1  0  0  0  0
 17  9  1  0  0  0  0
 19 10  1  0  0  0  0
 21 30  1  0  0  0  0
 22 21  1  0  0  0  0
 22 11  1  0  0  0  0
 23 22  2  0  0  0  0
 24 23  1  0  0  0  0
 25 27  2  0  0  0  0
 25 23  1  0  0  0  0
 26 25  1  0  0  0  0
 27 28  1  0  0  0  0
 28 21  2  0  0  0  0
 29 32  1  0  0  0  0
 30 29  2  0  0  0  0
 30 31  1  0  0  0  0
 31 34  1  0  0  0  0
 31 33  1  0  0  0  0
 35 36  1  0  0  0  0
 37 35  1  0  0  0  0
M  END
>  <minimizedAffinity>
-5.60423517

$$$$

 OpenBabel03252506323D

 37 39  0  0  1  0  0  0  0  0999 V2000
   37.0590   27.4130   41.9990 C   0  0  0  0  0  0  0  0  0  0  0  0
   38.2710   27.9610   42.4820 C   0  0  0  0  0  0  0  0  0  0  0  0
   38.8660   29.0140   41.7850 C   0  0  0  0  0  0  0  0  0  0  0  0
   38.2270   29.4450   40.6700 N   0  0  0  0  0  0  0  0  0  0  0  0
   37.0730   28.8990   40.2370 C   0  0  0  0  0  0  0  0  0  0  0  0
   36.4810   27.8940   40.8820 N   0  0  0  0  0  0  0  0  0  0  0  0
   36.5270   29.4510   39.0450 N   0  0  0  0  0  0  0  0  0  0  0  0
   35.1430   29.1950   38.6020 C   0  0  0  0  0  0  0  0  0  0  0  0
   35.2960   29.2030   37.1180 C   0  0  0  0  0  0  0  0  0  0  0  0
   36.7510   29.5720   36.8040 C   0  0  0  0  0  0  0  0  0  0  0  0
   37.0780   30.3020   38.0520 C   0  0  2  0  0  0  0  0  0  0  0  0
   36.5600   26.5980   42.5040 H   0  0  0  0  0  0  0  0  0  0  0  0
   39.7860   29.4030   42.1840 H   0  0  0  0  0  0  0  0  0  0  0  0
   34.8730   28.1690   38.9290 H   0  0  0  0  0  0  0  0  0  0  0  0
   34.4560   29.9670   38.9960 H   0  0  0  0  0  0  0  0  0  0  0  0
   34.9760   28.2750   36.6120 H   0  0  0  0  0  0  0  0  0  0  0  0
   34.6380   29.9990   36.6590 H   0  0  0  0  0  0  0  0  0  0  0  0
   37.2030   28.5790   36.6630 H   0  0  0  0  0  0  0  0  0  0  0  0
   36.7880   30.1990   35.8890 H   0  0  0  0  0  0  0  0  0  0  0  0
   36.3220   31.1810   38.0300 H   0  0  0  0  0  0  0  0  0  0  0  0
   38.6490   32.1220   38.7880 C   0  0  0  0  0  0  0  0  0  0  0  0
   38.3560   30.9150   38.1890 C   0  0  0  0  0  0  0  0  0  0  0  0
   39.5270   30.3290   37.6790 C   0  0  0  0  0  0  0  0  0  0  0  0
   39.4410   29.3540   37.1690 H   0  0  0  0  0  0  0  0  0  0  0  0
   40.7790   30.8690   37.7610 C   0  0  0  0  0  0  0  0  0  0  0  0
   41.6140   30.3370   37.3360 H   0  0  0  0  0  0  0  0  0  0  0  0
   40.9870   32.0800   38.3770 C   0  0  0  0  0  3  0  0  0  0  0  0
   39.9020   32.7080   38.8950 C   0  0  0  0  0  3  0  0  0  0  0  0
   36.8860   33.9800   39.4200 N   0  0  0  0  0  0  0  0  0  0  0  0
   37.6190   32.9270   39.4030 C   0  0  0  0  0  0  0  0  0  0  0  0
   36.9560   32.5280   40.6000 N   0  0  0  0  0  0  0  0  0  0  0  0
   36.2090   34.0440   40.2280 H   0  0  0  0  0  0  0  0  0  0  0  0
   36.1500   32.2220   41.1740 H   0  0  0  0  0  0  0  0  0  0  0  0
   37.5690   32.4990   41.4470 H   0  0  0  0  0  0  0  0  0  0  0  0
   38.7960   27.3710   43.6790 N   0  0  0  0  0  0  0  0  0  0  0  0
   39.6330   26.7480   43.6710 H   0  0  0  0  0  0  0  0  0  0  0  0
   38.2600   27.6260   44.5410 H   0  0  0  0  0  0  0  0  0  0  0  0
  1  2  1  0  0  0  0
  1 12  1  0  0  0  0
  2 35  1  0  0  0  0
  3 13  1  0  0  0  0
  3  2  2  0  0  0  0
  4  3  1  0  0  0  0
  5  4  2  0  0  0  0
  5  6  1  0  0  0  0
  6  1  2  0  0  0  0
  7  5  1  0  0  0  0
  8 14  1  0  0  0  0
  8 15  1  0  0  0  0
  8  7  1  0  0  0  0
  9  8  1  0  0  0  0
 10  9  1  0  0  0  0
 10 11  1  0  0  0  0
 11 20  1  6  0  0  0
 11 22  1  0  0  0  0
 11  7  1  0  0  0  0
 16  9  1  0  0  0  0
 17  9  1  0  0  0  0
 18 10  1  0  0  0  0
 19 10  1  0  0  0  0
 21 28  1  0  0  0  0
 21 30  1  0  0  0  0
 22 21  2  0  0  0  0
 23 25  2  0  0  0  0
 23 22  1  0  0  0  0
 24 23  1  0  0  0  0
 25 27  1  0  0  0  0
 26 25  1  0  0  0  0
 27 28  2  0  0  0  0
 29 32  1  0  0  0  0
 30 29  2  0  0  0  0
 30 31  1  0  0  0  0
 31 33  1  0  0  0  0
 31 34  1  0  0  0  0
 35 37  1  0  0  0  0
 36 35  1  0  0  0  0
M  END
>  <minimizedAffinity>
-5.5598278

$$$$

 OpenBabel03252506323D

 37 39  0  0  1  0  0  0  0  0999 V2000
   40.2500   32.2470   38.5520 C   0  0  0  0  0  0  0  0  0  0  0  0
   39.2040   31.6150   37.8380 C   0  0  0  0  0  0  0  0  0  0  0  0
   38.6190   30.4640   38.3670 C   0  0  0  0  0  0  0  0  0  0  0  0
   39.1050   30.0220   39.5540 N   0  0  0  0  0  0  0  0  0  0  0  0
   40.1040   30.6490   40.2070 C   0  0  0  0  0  0  0  0  0  0  0  0
   40.6820   31.7500   39.7270 N   0  0  0  0  0  0  0  0  0  0  0  0
   40.5160   30.0610   41.4360 N   0  0  0  0  0  0  0  0  0  0  0  0
   41.3630   30.7630   42.4180 C   0  0  0  0  0  0  0  0  0  0  0  0
   42.1570   29.6370   42.9890 C   0  0  0  0  0  0  0  0  0  0  0  0
   41.6330   28.3370   42.3660 C   0  0  0  0  0  0  0  0  0  0  0  0
   40.2670   28.7880   42.0100 C   0  0  2  0  0  0  0  0  0  0  0  0
   40.7340   33.1410   38.1830 H   0  0  0  0  0  0  0  0  0  0  0  0
   37.8280   30.0130   37.7960 H   0  0  0  0  0  0  0  0  0  0  0  0
   42.0450   31.4320   41.8520 H   0  0  0  0  0  0  0  0  0  0  0  0
   40.7420   31.3050   43.1550 H   0  0  0  0  0  0  0  0  0  0  0  0
   43.2520   29.7420   42.8890 H   0  0  0  0  0  0  0  0  0  0  0  0
   41.9950   29.5670   44.1050 H   0  0  0  0  0  0  0  0  0  0  0  0
   42.3480   28.1850   41.5430 H   0  0  0  0  0  0  0  0  0  0  0  0
   41.6610   27.5240   43.1210 H   0  0  0  0  0  0  0  0  0  0  0  0
   39.8200   29.0640   43.0440 H   0  0  0  0  0  0  0  0  0  0  0  0
   37.9870   27.7880   41.6530 C   0  0  0  0  0  0  0  0  0  0  0  0
   39.3490   27.8560   41.4460 C   0  0  0  0  0  0  0  0  0  0  0  0
   39.7600   26.8300   40.5780 C   0  0  0  0  0  0  0  0  0  0  0  0
   40.8310   26.7620   40.3240 H   0  0  0  0  0  0  0  0  0  0  0  0
   38.9370   25.8960   40.0160 C   0  0  0  0  0  0  0  0  0  0  0  0
   39.3540   25.1480   39.3620 H   0  0  0  0  0  0  0  0  0  0  0  0
   37.5870   25.8970   40.2730 C   0  0  0  0  0  3  0  0  0  0  0  0
   37.1140   26.8600   41.1040 C   0  0  0  0  0  3  0  0  0  0  0  0
   36.9270   29.1260   43.6640 N   0  0  0  0  0  0  0  0  0  0  0  0
   37.3060   28.7390   42.5020 C   0  0  0  0  0  0  0  0  0  0  0  0
   36.6680   29.9020   41.9800 N   0  0  0  0  0  0  0  0  0  0  0  0
   36.3800   30.0290   43.6810 H   0  0  0  0  0  0  0  0  0  0  0  0
   36.5320   30.9180   41.8360 H   0  0  0  0  0  0  0  0  0  0  0  0
   35.8380   29.7060   41.3730 H   0  0  0  0  0  0  0  0  0  0  0  0
   38.8260   32.2310   36.5990 N   0  0  0  0  0  0  0  0  0  0  0  0
   39.0700   31.8140   35.6740 H   0  0  0  0  0  0  0  0  0  0  0  0
   38.2940   33.1230   36.7210 H   0  0  0  0  0  0  0  0  0  0  0  0
  1  6  1  0  0  0  0
  2  3  1  0  0  0  0
  2  1  2  0  0  0  0
  3  4  2  0  0  0  0
  4  5  1  0  0  0  0
  5  7  1  0  0  0  0
  6  5  2  0  0  0  0
  7 11  1  0  0  0  0
  7  8  1  0  0  0  0
  8  9  1  0  0  0  0
  8 15  1  0  0  0  0
  9 17  1  0  0  0  0
 10  9  1  0  0  0  0
 10 19  1  0  0  0  0
 11 10  1  0  0  0  0
 11 20  1  1  0  0  0
 12  1  1  0  0  0  0
 13  3  1  0  0  0  0
 14  8  1  0  0  0  0
 16  9  1  0  0  0  0
 18 10  1  0  0  0  0
 21 30  1  0  0  0  0
 22 21  1  0  0  0  0
 22 11  1  0  0  0  0
 23 22  2  0  0  0  0
 24 23  1  0  0  0  0
 25 27  2  0  0  0  0
 25 23  1  0  0  0  0
 26 25  1  0  0  0  0
 27 28  1  0  0  0  0
 28 21  2  0  0  0  0
 29 32  1  0  0  0  0
 30 29  2  0  0  0  0
 31 30  1  0  0  0  0
 33 31  1  0  0  0  0
 34 31  1  0  0  0  0
 35 37  1  0  0  0  0
 35  2  1  0  0  0  0
 36 35  1  0  0  0  0
M  END
>  <minimizedAffinity>
-5.55631113

$$$$
