
 OpenBabel03252501553D

 26 27  0  0  0  0  0  0  0  0999 V2000
   46.3670   33.8300   41.3130 C   0  0  0  0  0  0  0  0  0  0  0  0
   46.8860   34.5280   42.3700 C   0  0  0  0  0  0  0  0  0  0  0  0
   48.0340   35.2810   42.1360 C   0  0  0  0  0  0  0  0  0  0  0  0
   48.4830   35.8520   42.9390 H   0  0  0  0  0  0  0  0  0  0  0  0
   48.6750   35.3640   40.9080 C   0  0  0  0  0  0  0  0  0  0  0  0
   49.5630   35.9560   40.7620 H   0  0  0  0  0  0  0  0  0  0  0  0
   48.1320   34.6480   39.8530 C   0  0  0  0  0  3  0  0  0  0  0  0
   46.9960   33.9030   40.0870 C   0  0  0  0  0  3  0  0  0  0  0  0
   44.5840   35.5230   45.0420 C   0  0  0  0  0  0  0  0  0  0  0  0
   45.2860   35.4790   43.8290 C   0  0  0  0  0  0  0  0  0  0  0  0
   46.2410   34.4620   43.6400 C   0  0  0  0  0  0  0  0  0  0  0  0
   46.4010   33.6060   44.6520 N   0  0  0  0  0  0  0  0  0  0  0  0
   45.7250   33.6580   45.8060 C   0  0  0  0  0  0  0  0  0  0  0  0
   44.7910   34.6200   46.0430 N   0  0  0  0  0  0  0  0  0  0  0  0
   43.8300   36.2510   45.3080 H   0  0  0  0  0  0  0  0  0  0  0  0
   46.0600   32.8360   46.4470 H   0  0  0  0  0  0  0  0  0  0  0  0
   44.9160   36.5500   42.8820 C   0  0  0  0  0  0  0  0  0  0  0  0
   45.7760   36.7160   42.1790 H   0  0  0  0  0  0  0  0  0  0  0  0
   44.7790   37.4910   43.4470 H   0  0  0  0  0  0  0  0  0  0  0  0
   44.0210   36.2830   42.2790 H   0  0  0  0  0  0  0  0  0  0  0  0
   44.0010   33.3140   41.0370 N   0  0  0  0  0  0  0  0  0  0  0  0
   45.1890   32.9850   41.3190 C   0  0  0  0  0  0  0  0  0  0  0  0
   45.2700   31.5890   41.6750 N   0  0  0  0  0  0  0  0  0  0  0  0
   43.1680   32.7280   41.0400 H   0  0  0  0  0  0  0  0  0  0  0  0
   45.3960   30.8820   40.9260 H   0  0  0  0  0  0  0  0  0  0  0  0
   45.1950   31.3820   42.6940 H   0  0  0  0  0  0  0  0  0  0  0  0
  1 22  1  0  0  0  0
  1  2  1  0  0  0  0
  2 11  1  0  0  0  0
  3  2  2  0  0  0  0
  3  4  1  0  0  0  0
  5  3  1  0  0  0  0
  6  5  1  0  0  0  0
  7  8  1  0  0  0  0
  7  5  2  0  0  0  0
  8  1  2  0  0  0  0
  9 15  1  0  0  0  0
  9 14  1  0  0  0  0
 10  9  2  0  0  0  0
 11 10  1  0  0  0  0
 11 12  2  0  0  0  0
 12 13  1  0  0  0  0
 13 14  2  0  0  0  0
 13 16  1  0  0  0  0
 17 19  1  0  0  0  0
 17 10  1  0  0  0  0
 18 17  1  0  0  0  0
 20 17  1  0  0  0  0
 21 24  1  0  0  0  0
 21 22  2  0  0  0  0
 22 23  1  0  0  0  0
 23 26  1  0  0  0  0
 25 23  1  0  0  0  0
M  END
>  <minimizedAffinity>
-5.12054205

>  <minimizedRMSD>
2.50499535

$$$$
