
 OpenBabel03252502083D

 53 57  0  0  0  0  0  0  0  0999 V2000
   45.5380   33.6110   45.9350 C   0  0  0  0  0  0  0  0  0  0  0  0
   44.7250   34.4710   46.5590 N   0  0  0  0  0  0  0  0  0  0  0  0
   44.2240   35.5760   46.0250 C   0  0  0  0  0  0  0  0  0  0  0  0
   44.5280   35.9050   44.7510 N   0  0  0  0  0  0  0  0  0  0  0  0
   45.3360   35.1320   44.0050 C   0  0  0  0  0  0  0  0  0  0  0  0
   45.6650   35.4530   42.7040 C   0  0  0  0  0  0  0  0  0  0  0  0
   46.4890   34.6750   41.9540 C   0  0  0  0  0  0  0  0  0  0  0  0
   46.9890   33.5420   42.5400 C   0  0  0  0  0  0  0  0  0  0  0  0
   46.6350   33.2440   43.8580 C   0  0  0  0  0  0  0  0  0  0  0  0
   45.8210   33.9950   44.6290 C   0  0  0  0  0  0  0  0  0  0  0  0
   43.5670   36.2260   46.6030 H   0  0  0  0  0  0  0  0  0  0  0  0
   45.2500   36.3570   42.2740 H   0  0  0  0  0  0  0  0  0  0  0  0
   46.7040   34.9880   40.9410 H   0  0  0  0  0  0  0  0  0  0  0  0
   47.8990   31.6790   47.8770 C   0  0  0  0  0  0  0  0  0  0  0  0
   47.4540   30.3530   47.8360 C   0  0  0  0  0  0  0  0  0  0  0  0
   46.3010   30.1140   47.1380 C   0  0  0  0  0  0  0  0  0  0  0  0
   45.6630   31.1200   46.5340 N   0  0  0  0  0  0  0  0  0  0  0  0
   46.0770   32.3810   46.5610 C   0  0  0  0  0  0  0  0  0  0  0  0
   47.2030   32.6350   47.2450 N   0  0  0  0  0  0  0  0  0  0  0  0
   45.7890   28.8380   47.0790 N   0  0  0  0  0  0  0  0  0  0  0  0
   44.4640   28.4880   46.4980 C   0  0  0  0  0  0  0  0  0  0  0  0
   44.4550   26.9880   46.3720 C   0  0  0  0  0  0  0  0  0  0  0  0
   45.3670   26.5600   47.4770 C   0  0  0  0  0  0  0  0  0  0  0  0
   46.3990   27.6320   47.5570 C   0  0  0  0  0  0  0  0  0  0  0  0
   48.8140   31.9180   48.4250 H   0  0  0  0  0  0  0  0  0  0  0  0
   44.3740   28.9370   45.4860 H   0  0  0  0  0  0  0  0  0  0  0  0
   43.6600   28.8500   47.1940 H   0  0  0  0  0  0  0  0  0  0  0  0
   43.4360   26.5880   46.4550 H   0  0  0  0  0  0  0  0  0  0  0  0
   44.9420   26.7230   45.4020 H   0  0  0  0  0  0  0  0  0  0  0  0
   44.7450   26.5010   48.3940 H   0  0  0  0  0  0  0  0  0  0  0  0
   45.8010   25.5500   47.2810 H   0  0  0  0  0  0  0  0  0  0  0  0
   46.6310   27.6820   48.6640 H   0  0  0  0  0  0  0  0  0  0  0  0
   47.2680   27.3060   46.9550 H   0  0  0  0  0  0  0  0  0  0  0  0
   48.2240   29.4010   48.4370 N   0  0  0  0  0  0  0  0  0  0  0  0
   48.8890   28.6950   48.0500 H   0  0  0  0  0  0  0  0  0  0  0  0
   48.1820   29.3120   49.4950 H   0  0  0  0  0  0  0  0  0  0  0  0
   49.1990   33.0260   41.4000 C   0  0  0  0  0  0  0  0  0  0  0  0
   47.8740   32.7230   41.7110 C   0  0  0  0  0  0  0  0  0  0  0  0
   47.2690   31.5670   41.2340 C   0  0  0  0  0  0  0  0  0  0  0  0
   46.2430   31.2900   41.4490 H   0  0  0  0  0  0  0  0  0  0  0  0
   47.9920   30.6890   40.4300 C   0  0  0  0  0  0  0  0  0  0  0  0
   47.4980   29.7760   40.0590 H   0  0  0  0  0  0  0  0  0  0  0  0
   49.3050   30.9870   40.1200 C   0  0  0  0  0  3  0  0  0  0  0  0
   49.8910   32.1370   40.6010 C   0  0  0  0  0  3  0  0  0  0  0  0
   50.3970   34.2300   43.0520 N   0  0  0  0  0  0  0  0  0  0  0  0
   49.7340   34.2650   41.9540 C   0  0  0  0  0  0  0  0  0  0  0  0
   49.4100   35.3920   41.1280 N   0  0  0  0  0  0  0  0  0  0  0  0
   50.7930   35.0960   43.4780 H   0  0  0  0  0  0  0  0  0  0  0  0
   48.8480   36.2410   41.3440 H   0  0  0  0  0  0  0  0  0  0  0  0
   49.7430   35.4710   40.1300 H   0  0  0  0  0  0  0  0  0  0  0  0
   47.2440   32.0190   44.2760 N   0  0  0  0  0  0  0  0  0  0  0  0
   48.1240   31.7660   44.7700 H   0  0  0  0  0  0  0  0  0  0  0  0
   46.5640   31.2860   43.9520 H   0  0  0  0  0  0  0  0  0  0  0  0
  1  2  1  0  0  0  0
  1 18  1  0  0  0  0
  3  2  2  0  0  0  0
  3 11  1  0  0  0  0
  4  3  1  0  0  0  0
  5 10  1  0  0  0  0
  5  4  2  0  0  0  0
  6  5  1  0  0  0  0
  7  8  1  0  0  0  0
  7  6  2  0  0  0  0
  8  9  2  0  0  0  0
  9 51  1  0  0  0  0
  9 10  1  0  0  0  0
 10  1  2  0  0  0  0
 12  6  1  0  0  0  0
 13  7  1  0  0  0  0
 14 25  1  0  0  0  0
 15 14  1  0  0  0  0
 15 34  1  0  0  0  0
 16 15  2  0  0  0  0
 17 18  2  0  0  0  0
 17 16  1  0  0  0  0
 18 19  1  0  0  0  0
 19 14  2  0  0  0  0
 20 16  1  0  0  0  0
 20 24  1  0  0  0  0
 21 20  1  0  0  0  0
 21 27  1  0  0  0  0
 22 28  1  0  0  0  0
 22 21  1  0  0  0  0
 22 23  1  0  0  0  0
 23 24  1  0  0  0  0
 23 30  1  0  0  0  0
 24 32  1  0  0  0  0
 26 21  1  0  0  0  0
 29 22  1  0  0  0  0
 31 23  1  0  0  0  0
 33 24  1  0  0  0  0
 34 36  1  0  0  0  0
 35 34  1  0  0  0  0
 37 38  1  0  0  0  0
 37 46  1  0  0  0  0
 38  8  1  0  0  0  0
 39 40  1  0  0  0  0
 39 38  2  0  0  0  0
 41 39  1  0  0  0  0
 42 41  1  0  0  0  0
 43 41  2  0  0  0  0
 43 44  1  0  0  0  0
 44 37  2  0  0  0  0
 45 48  1  0  0  0  0
 46 45  2  0  0  0  0
 47 49  1  0  0  0  0
 47 46  1  0  0  0  0
 50 47  1  0  0  0  0
 51 52  1  0  0  0  0
 53 51  1  0  0  0  0
M  END
>  <minimizedAffinity>
-7.08916044

>  <minimizedRMSD>
1.3398608

$$$$
