
 OpenBabel03242511293D

 39 43  0  0  1  0  0  0  0  0999 V2000
   46.8690   32.0630   39.1320 C   0  0  0  0  0  0  0  0  0  0  0  0
   47.9350   31.2640   38.7470 C   0  0  0  0  0  0  0  0  0  0  0  0
   47.1460   30.1030   37.5350 S   0  0  0  0  0  0  0  0  0  0  0  0
   45.4720   30.9530   37.7920 C   0  0  0  0  0  0  0  0  0  0  0  0
   45.7640   31.7300   38.5380 N   0  0  0  0  0  0  0  0  0  0  0  0
   48.9740   31.2830   39.0550 H   0  0  0  0  0  0  0  0  0  0  0  0
   45.1740   32.2970   41.7500 Cl  0  0  0  0  0  0  0  0  0  0  0  0
   46.4430   33.3580   41.2810 C   0  0  0  0  0  0  0  0  0  0  0  0
   46.7870   34.4180   42.0860 C   0  0  0  0  0  0  0  0  0  0  0  0
   47.8140   35.3060   41.7430 C   0  0  0  0  0  0  0  0  0  0  0  0
   48.4540   35.0540   40.5600 C   0  0  0  0  0  0  0  0  0  0  0  0
   48.1160   34.0070   39.7620 C   0  0  0  0  0  0  0  0  0  0  0  0
   47.0950   33.1290   40.1070 C   0  0  0  0  0  0  0  0  0  0  0  0
   48.0820   36.1400   42.3790 H   0  0  0  0  0  0  0  0  0  0  0  0
   49.2510   35.7460   40.2990 H   0  0  0  0  0  0  0  0  0  0  0  0
   48.6980   33.9100   38.8440 H   0  0  0  0  0  0  0  0  0  0  0  0
   45.6060   34.0040   45.5630 C   0  0  0  0  0  0  0  0  0  0  0  0
   44.6970   35.0410   45.6930 C   0  0  0  0  0  0  0  0  0  0  0  0
   44.4880   35.8750   44.6050 C   0  0  0  0  0  0  0  0  0  0  0  0
   45.1730   35.6520   43.4580 N   0  0  0  0  0  0  0  0  0  0  0  0
   46.0630   34.6330   43.3370 C   0  0  0  0  0  0  0  0  0  0  0  0
   46.2620   33.8260   44.3990 N   0  0  0  0  0  0  0  0  0  0  0  0
   45.8040   33.3270   46.3840 H   0  0  0  0  0  0  0  0  0  0  0  0
   44.1540   35.2230   46.5920 H   0  0  0  0  0  0  0  0  0  0  0  0
   43.7910   36.7210   44.6060 H   0  0  0  0  0  0  0  0  0  0  0  0
   44.0930   30.9360   35.7720 C   0  0  0  0  0  0  0  0  0  0  0  0
   44.3760   30.4020   37.0070 C   0  0  0  0  0  0  0  0  0  0  0  0
   43.5740   29.3450   37.3800 C   0  0  0  0  0  0  0  0  0  0  0  0
   43.7460   28.8850   38.3340 H   0  0  0  0  0  0  0  0  0  0  0  0
   42.5900   28.9110   36.5340 C   0  0  0  0  0  0  0  0  0  0  0  0
   42.0030   28.0760   36.9010 H   0  0  0  0  0  0  0  0  0  0  0  0
   42.3210   29.4590   35.2970 C   0  0  0  0  0  0  0  0  0  0  0  0
   43.1140   30.5150   34.9130 C   0  0  0  0  0  0  0  0  0  0  0  0
   45.6600   33.0670   35.3310 N   0  0  0  0  0  0  0  0  0  0  0  0
   44.8640   32.0750   35.3170 C   0  0  1  0  0  0  0  0  0  0  0  0
   44.7690   32.4290   33.9430 N   0  0  0  0  0  0  0  0  0  0  0  0
   46.1650   33.4100   36.1670 H   0  0  0  0  0  0  0  0  0  0  0  0
   44.5410   31.7430   33.1850 H   0  0  0  0  0  0  0  0  0  0  0  0
   44.7070   32.7240   32.9470 H   0  0  0  0  0  0  0  0  0  0  0  0
  1 13  1  0  0  0  0
  2  6  1  0  0  0  0
  2  1  2  0  0  0  0
  3  4  1  0  0  0  0
  3  2  1  0  0  0  0
  4  5  2  0  0  0  0
  5  1  1  0  0  0  0
  8  7  1  0  0  0  0
  8  9  1  0  0  0  0
  9 21  1  0  0  0  0
 10  9  2  0  0  0  0
 10 14  1  0  0  0  0
 11 10  1  0  0  0  0
 12 13  1  0  0  0  0
 12 11  2  0  0  0  0
 13  8  2  0  0  0  0
 15 11  1  0  0  0  0
 16 12  1  0  0  0  0
 17 18  1  0  0  0  0
 17 23  1  0  0  0  0
 18 24  1  0  0  0  0
 19 25  1  0  0  0  0
 19 18  2  0  0  0  0
 20 19  1  0  0  0  0
 21 20  2  0  0  0  0
 21 22  1  0  0  0  0
 22 17  2  0  0  0  0
 26 27  1  0  0  0  0
 27 28  2  0  0  0  0
 27  4  1  0  0  0  0
 28 29  1  0  0  0  0
 30 31  1  0  0  0  0
 30 28  1  0  0  0  0
 32 30  2  0  0  0  0
 33 32  1  0  0  0  0
 33 26  2  0  0  0  0
 34 37  1  0  0  0  0
 35 34  1  0  0  0  0
 35 26  1  6  0  0  0
 36 35  1  0  0  0  0
 36 34  1  0  0  0  0
 38 36  1  0  0  0  0
 39 36  1  0  0  0  0
M  END
>  <minimizedAffinity>
-6.39194298

>  <minimizedRMSD>
1.45000625

$$$$
