
 OpenBabel03252504053D

 24 25  0  0  0  0  0  0  0  0999 V2000
   47.9820   34.5800   40.9820 C   0  0  0  0  0  0  0  0  0  0  0  0
   46.7040   34.3680   41.3880 C   0  0  0  0  0  0  0  0  0  0  0  0
   45.7900   33.7980   40.4920 C   0  0  0  0  0  0  0  0  0  0  0  0
   44.7500   33.5580   40.6310 H   0  0  0  0  0  0  0  0  0  0  0  0
   46.2610   33.4810   39.2270 C   0  0  0  0  0  0  0  0  0  0  0  0
   45.6650   33.0290   38.4290 H   0  0  0  0  0  0  0  0  0  0  0  0
   47.5870   33.7140   38.8510 C   0  0  0  0  0  3  0  0  0  0  0  0
   48.4780   34.2770   39.7360 C   0  0  0  0  0  3  0  0  0  0  0  0
   45.6620   34.1550   45.0060 C   0  0  0  0  0  0  0  0  0  0  0  0
   46.2790   33.7600   43.8160 C   0  0  0  0  0  0  0  0  0  0  0  0
   46.1360   34.6250   42.7040 C   0  0  0  0  0  0  0  0  0  0  0  0
   45.4110   35.7790   42.8570 N   0  0  0  0  0  0  0  0  0  0  0  0
   44.8380   36.1090   44.0300 C   0  0  0  0  0  0  0  0  0  0  0  0
   44.9680   35.2990   45.0860 N   0  0  0  0  0  0  0  0  0  0  0  0
   45.7750   33.4960   45.8470 H   0  0  0  0  0  0  0  0  0  0  0  0
   44.2740   37.0240   44.1270 H   0  0  0  0  0  0  0  0  0  0  0  0
   47.0120   32.5960   43.6440 O   0  0  0  0  0  0  0  0  0  0  0  0
   46.5710   31.7910   43.2490 H   0  0  0  0  0  0  0  0  0  0  0  0
   49.1900   36.4710   41.7070 N   0  0  0  0  0  0  0  0  0  0  0  0
   48.8880   35.2050   41.9230 C   0  0  0  0  0  0  0  0  0  0  0  0
   49.6690   35.0360   43.0850 N   0  0  0  0  0  0  0  0  0  0  0  0
   48.8220   37.0290   40.9250 H   0  0  0  0  0  0  0  0  0  0  0  0
   50.7330   34.9340   43.0850 H   0  0  0  0  0  0  0  0  0  0  0  0
   49.1140   35.0260   43.9760 H   0  0  0  0  0  0  0  0  0  0  0  0
  1  2  1  0  0  0  0
  1 20  1  0  0  0  0
  2 11  1  0  0  0  0
  3  4  1  0  0  0  0
  3  2  2  0  0  0  0
  5  3  1  0  0  0  0
  6  5  1  0  0  0  0
  7  5  2  0  0  0  0
  7  8  1  0  0  0  0
  8  1  2  0  0  0  0
  9 14  1  0  0  0  0
  9 15  1  0  0  0  0
 10  9  2  0  0  0  0
 11 12  2  0  0  0  0
 11 10  1  0  0  0  0
 12 13  1  0  0  0  0
 13 16  1  0  0  0  0
 13 14  2  0  0  0  0
 17 10  1  0  0  0  0
 18 17  1  0  0  0  0
 19 20  2  0  0  0  0
 20 21  1  0  0  0  0
 21 24  1  0  0  0  0
 22 19  1  0  0  0  0
 23 21  1  0  0  0  0
M  END
>  <minimizedAffinity>
-5.23968887

>  <minimizedRMSD>
2.86295485

$$$$
