
 OpenBabel03252504053D

 24 25  0  0  0  0  0  0  0  0999 V2000
   48.0380   34.4930   41.0660 C   0  0  0  0  0  0  0  0  0  0  0  0
   46.9030   33.9920   41.6160 C   0  0  0  0  0  0  0  0  0  0  0  0
   45.9520   33.3870   40.7820 C   0  0  0  0  0  0  0  0  0  0  0  0
   45.0050   32.9390   41.0320 H   0  0  0  0  0  0  0  0  0  0  0  0
   46.2410   33.3380   39.4270 C   0  0  0  0  0  0  0  0  0  0  0  0
   45.5960   32.8940   38.6630 H   0  0  0  0  0  0  0  0  0  0  0  0
   47.4240   33.8640   38.9030 C   0  0  0  0  0  3  0  0  0  0  0  0
   48.3520   34.4590   39.7280 C   0  0  0  0  0  3  0  0  0  0  0  0
   45.4070   34.6920   45.0050 C   0  0  0  0  0  0  0  0  0  0  0  0
   45.6390   34.8620   43.6380 C   0  0  0  0  0  0  0  0  0  0  0  0
   46.5380   33.9570   43.0250 C   0  0  0  0  0  0  0  0  0  0  0  0
   47.1190   32.9810   43.7960 N   0  0  0  0  0  0  0  0  0  0  0  0
   46.8560   32.8640   45.1110 C   0  0  0  0  0  0  0  0  0  0  0  0
   46.0080   33.7150   45.7000 N   0  0  0  0  0  0  0  0  0  0  0  0
   44.7230   35.3810   45.4660 H   0  0  0  0  0  0  0  0  0  0  0  0
   47.3230   32.0880   45.6970 H   0  0  0  0  0  0  0  0  0  0  0  0
   45.0640   35.8440   42.8470 O   0  0  0  0  0  0  0  0  0  0  0  0
   45.5700   36.6850   42.6610 H   0  0  0  0  0  0  0  0  0  0  0  0
   49.2660   36.4060   41.6940 N   0  0  0  0  0  0  0  0  0  0  0  0
   48.9800   35.1440   41.9520 C   0  0  0  0  0  0  0  0  0  0  0  0
   49.8110   35.0060   43.0840 N   0  0  0  0  0  0  0  0  0  0  0  0
   48.8620   36.9420   40.9140 H   0  0  0  0  0  0  0  0  0  0  0  0
   50.8730   34.9080   43.0410 H   0  0  0  0  0  0  0  0  0  0  0  0
   49.2940   35.0150   43.9980 H   0  0  0  0  0  0  0  0  0  0  0  0
  1  2  1  0  0  0  0
  1 20  1  0  0  0  0
  2 11  1  0  0  0  0
  3  4  1  0  0  0  0
  3  2  2  0  0  0  0
  5  3  1  0  0  0  0
  6  5  1  0  0  0  0
  7  5  2  0  0  0  0
  7  8  1  0  0  0  0
  8  1  2  0  0  0  0
  9 15  1  0  0  0  0
  9 14  1  0  0  0  0
 10  9  2  0  0  0  0
 11 10  1  0  0  0  0
 11 12  2  0  0  0  0
 12 13  1  0  0  0  0
 13 16  1  0  0  0  0
 13 14  2  0  0  0  0
 17 10  1  0  0  0  0
 18 17  1  0  0  0  0
 19 20  2  0  0  0  0
 20 21  1  0  0  0  0
 21 24  1  0  0  0  0
 22 19  1  0  0  0  0
 23 21  1  0  0  0  0
M  END
>  <minimizedAffinity>
-5.15746498

>  <minimizedRMSD>
1.25765312

$$$$
