
 OpenBabel03252501513D

 50 53  0  0  1  0  0  0  0  0999 V2000
   48.5640   34.7630   41.8060 N   0  0  0  0  0  0  0  0  0  0  0  0
   49.6800   34.8090   42.7200 C   0  0  0  0  0  0  0  0  0  0  0  0
   50.6610   33.7670   42.2910 C   0  0  0  0  0  0  0  0  0  0  0  0
   49.8130   32.7810   41.5540 C   0  0  0  0  0  0  0  0  0  0  0  0
   48.5160   33.4790   41.2050 C   0  0  2  0  0  0  0  0  0  0  0  0
   49.2990   34.6040   43.7560 H   0  0  0  0  0  0  0  0  0  0  0  0
   50.1540   35.8220   42.6980 H   0  0  0  0  0  0  0  0  0  0  0  0
   51.4990   34.1830   41.7110 H   0  0  0  0  0  0  0  0  0  0  0  0
   51.0600   33.2650   43.2050 H   0  0  0  0  0  0  0  0  0  0  0  0
   50.3490   32.5490   40.5890 H   0  0  0  0  0  0  0  0  0  0  0  0
   49.6830   31.8080   42.0460 H   0  0  0  0  0  0  0  0  0  0  0  0
   47.7320   32.8960   41.7750 H   0  0  0  0  0  0  0  0  0  0  0  0
   47.5420   32.4080   39.1170 C   0  0  0  0  0  0  0  0  0  0  0  0
   48.1900   33.4020   39.7880 C   0  0  0  0  0  0  0  0  0  0  0  0
   48.5570   34.4780   38.9670 C   0  0  0  0  0  0  0  0  0  0  0  0
   49.0850   35.3250   39.4300 H   0  0  0  0  0  0  0  0  0  0  0  0
   48.2720   34.4860   37.6200 C   0  0  0  0  0  0  0  0  0  0  0  0
   48.6000   35.3620   37.0810 H   0  0  0  0  0  0  0  0  0  0  0  0
   47.6130   33.4500   36.9970 C   0  0  0  0  0  3  0  0  0  0  0  0
   47.2400   32.3820   37.7730 C   0  0  0  0  0  3  0  0  0  0  0  0
   47.3170   30.0690   40.3310 N   0  0  0  0  0  0  0  0  0  0  0  0
   47.1140   31.2330   39.8360 C   0  0  0  0  0  0  0  0  0  0  0  0
   45.7730   31.1230   40.3580 N   0  0  0  0  0  0  0  0  0  0  0  0
   46.4850   29.6520   40.8240 H   0  0  0  0  0  0  0  0  0  0  0  0
   44.9850   30.9850   39.6580 H   0  0  0  0  0  0  0  0  0  0  0  0
   45.0970   31.1080   41.1720 H   0  0  0  0  0  0  0  0  0  0  0  0
   47.3500   35.0570   42.5360 C   0  0  0  0  0  0  0  0  0  0  0  0
   47.3590   34.4260   43.4490 H   0  0  0  0  0  0  0  0  0  0  0  0
   47.2740   36.1010   42.8580 H   0  0  0  0  0  0  0  0  0  0  0  0
   44.9760   35.3200   41.9210 C   0  0  0  0  0  3  0  0  0  0  0  0
   46.1240   34.6320   41.7670 C   0  0  0  0  0  3  0  0  0  0  0  0
   43.7650   34.0700   40.0740 C   0  0  0  0  0  0  0  0  0  0  0  0
   43.7540   34.9470   41.1940 C   0  0  0  0  0  0  0  0  0  0  0  0
   42.5270   35.4680   41.6170 C   0  0  0  0  0  0  0  0  0  0  0  0
   41.4020   35.1150   40.9400 N   0  0  0  0  0  0  0  0  0  0  0  0
   41.4540   34.2820   39.8850 C   0  0  0  0  0  0  0  0  0  0  0  0
   42.6280   33.7750   39.4690 N   0  0  0  0  0  0  0  0  0  0  0  0
   44.7420   33.6790   39.7680 H   0  0  0  0  0  0  0  0  0  0  0  0
   42.4720   36.1380   42.4640 H   0  0  0  0  0  0  0  0  0  0  0  0
   39.7380   32.3400   40.8820 F   0  0  0  0  0  0  0  0  0  0  0  0
   39.3810   32.9470   39.7190 C   0  0  0  0  0  0  0  0  0  0  0  0
   40.2230   33.9300   39.1890 C   0  0  0  0  0  0  0  0  0  0  0  0
   39.9330   34.5900   38.0170 C   0  0  0  0  0  0  0  0  0  0  0  0
   38.7500   34.2360   37.3690 C   0  0  0  0  0  0  0  0  0  0  0  0
   37.8870   33.2550   37.8780 C   0  0  0  0  0  0  0  0  0  0  0  0
   38.2110   32.6120   39.0580 C   0  0  0  0  0  0  0  0  0  0  0  0
   40.5900   35.3340   37.6360 H   0  0  0  0  0  0  0  0  0  0  0  0
   38.5540   34.7820   36.4440 H   0  0  0  0  0  0  0  0  0  0  0  0
   36.9990   33.0470   37.3140 H   0  0  0  0  0  0  0  0  0  0  0  0
   37.5480   31.8500   39.4600 H   0  0  0  0  0  0  0  0  0  0  0  0
  1 27  1  0  0  0  0
  1  2  1  0  0  0  0
  2  6  1  0  0  0  0
  3  2  1  0  0  0  0
  3  9  1  0  0  0  0
  4 11  1  0  0  0  0
  4  3  1  0  0  0  0
  5  4  1  0  0  0  0
  5 12  1  1  0  0  0
  5  1  1  0  0  0  0
  7  2  1  0  0  0  0
  8  3  1  0  0  0  0
 10  4  1  0  0  0  0
 13 14  1  0  0  0  0
 13 22  1  0  0  0  0
 14  5  1  0  0  0  0
 15 16  1  0  0  0  0
 15 14  2  0  0  0  0
 17 15  1  0  0  0  0
 18 17  1  0  0  0  0
 19 17  2  0  0  0  0
 19 20  1  0  0  0  0
 20 13  2  0  0  0  0
 21 24  1  0  0  0  0
 22 21  2  0  0  0  0
 22 23  1  0  0  0  0
 23 26  1  0  0  0  0
 25 23  1  0  0  0  0
 27 29  1  0  0  0  0
 27 28  1  0  0  0  0
 31 30  2  0  0  0  0
 31 27  1  0  0  0  0
 32 33  1  0  0  0  0
 33 34  2  0  0  0  0
 33 30  1  0  0  0  0
 34 39  1  0  0  0  0
 35 34  1  0  0  0  0
 36 35  2  0  0  0  0
 37 36  1  0  0  0  0
 37 32  2  0  0  0  0
 38 32  1  0  0  0  0
 41 40  1  0  0  0  0
 42 41  1  0  0  0  0
 42 36  1  0  0  0  0
 43 42  2  0  0  0  0
 44 45  2  0  0  0  0
 44 43  1  0  0  0  0
 45 46  1  0  0  0  0
 46 50  1  0  0  0  0
 46 41  2  0  0  0  0
 47 43  1  0  0  0  0
 48 44  1  0  0  0  0
 49 45  1  0  0  0  0
M  END
>  <minimizedAffinity>
-6.45994425

>  <minimizedRMSD>
1.30549133

$$$$
