
 OpenBabel03252502043D

 51 55  0  0  0  0  0  0  0  0999 V2000
   45.6140   33.5330   45.2590 C   0  0  0  0  0  0  0  0  0  0  0  0
   44.9660   34.5710   45.8580 N   0  0  0  0  0  0  0  0  0  0  0  0
   44.6160   35.7040   45.2540 C   0  0  0  0  0  0  0  0  0  0  0  0
   44.9120   35.8710   43.9470 N   0  0  0  0  0  0  0  0  0  0  0  0
   45.5510   34.9170   43.2480 C   0  0  0  0  0  0  0  0  0  0  0  0
   45.8260   35.1080   41.9250 C   0  0  0  0  0  0  0  0  0  0  0  0
   46.4670   34.1220   41.2020 C   0  0  0  0  0  0  0  0  0  0  0  0
   46.8160   32.9500   41.8650 C   0  0  0  0  0  0  0  0  0  0  0  0
   46.5080   32.8270   43.2090 C   0  0  0  0  0  0  0  0  0  0  0  0
   45.8770   33.7780   43.9430 C   0  0  0  0  0  0  0  0  0  0  0  0
   44.1010   36.4460   45.8580 H   0  0  0  0  0  0  0  0  0  0  0  0
   45.5120   36.0650   41.4920 H   0  0  0  0  0  0  0  0  0  0  0  0
   46.6210   34.4010   40.1600 H   0  0  0  0  0  0  0  0  0  0  0  0
   47.3010   32.3120   41.1440 H   0  0  0  0  0  0  0  0  0  0  0  0
   47.6160   31.4930   47.4380 C   0  0  0  0  0  0  0  0  0  0  0  0
   47.0160   30.2410   47.4800 C   0  0  0  0  0  0  0  0  0  0  0  0
   45.8850   30.0860   46.7530 C   0  0  0  0  0  0  0  0  0  0  0  0
   45.3920   31.1020   46.0350 N   0  0  0  0  0  0  0  0  0  0  0  0
   45.9640   32.3100   45.9810 C   0  0  0  0  0  0  0  0  0  0  0  0
   47.0830   32.4590   46.7100 N   0  0  0  0  0  0  0  0  0  0  0  0
   45.1960   28.8820   46.7450 N   0  0  0  0  0  0  0  0  0  0  0  0
   43.8330   28.6810   46.2070 C   0  0  0  0  0  0  0  0  0  0  0  0
   43.6130   27.1940   46.1940 C   0  0  0  0  0  0  0  0  0  0  0  0
   44.5240   26.6930   47.2760 C   0  0  0  0  0  0  0  0  0  0  0  0
   45.6770   27.6300   47.2630 C   0  0  0  0  0  0  0  0  0  0  0  0
   48.5310   31.6300   48.0270 H   0  0  0  0  0  0  0  0  0  0  0  0
   43.8690   29.0220   45.1550 H   0  0  0  0  0  0  0  0  0  0  0  0
   43.0980   29.2480   46.8070 H   0  0  0  0  0  0  0  0  0  0  0  0
   43.8190   26.7240   45.2260 H   0  0  0  0  0  0  0  0  0  0  0  0
   42.5270   27.0150   46.4430 H   0  0  0  0  0  0  0  0  0  0  0  0
   44.8240   25.6520   47.0190 H   0  0  0  0  0  0  0  0  0  0  0  0
   43.9380   26.6360   48.1940 H   0  0  0  0  0  0  0  0  0  0  0  0
   46.4980   27.2370   46.6610 H   0  0  0  0  0  0  0  0  0  0  0  0
   45.9070   27.6660   48.3740 H   0  0  0  0  0  0  0  0  0  0  0  0
   47.6300   29.2140   48.1970 N   0  0  0  0  0  0  0  0  0  0  0  0
   48.2130   28.4070   47.8680 H   0  0  0  0  0  0  0  0  0  0  0  0
   47.4860   29.2560   49.2400 H   0  0  0  0  0  0  0  0  0  0  0  0
   46.3290   30.3210   43.3270 C   0  0  0  0  0  0  0  0  0  0  0  0
   47.0260   31.5050   43.5260 C   0  0  0  0  0  0  0  0  0  0  0  0
   48.2770   31.2860   44.1380 C   0  0  0  0  0  0  0  0  0  0  0  0
   48.8630   32.2030   44.3130 H   0  0  0  0  0  0  0  0  0  0  0  0
   48.7140   30.0250   44.4790 C   0  0  0  0  0  0  0  0  0  0  0  0
   49.6930   30.0420   44.9360 H   0  0  0  0  0  0  0  0  0  0  0  0
   47.9360   28.9160   44.2340 C   0  0  0  0  0  3  0  0  0  0  0  0
   46.7000   29.0350   43.6410 C   0  0  0  0  0  3  0  0  0  0  0  0
   44.2310   30.4500   41.7090 N   0  0  0  0  0  0  0  0  0  0  0  0
   45.0110   30.4450   42.7230 C   0  0  0  0  0  0  0  0  0  0  0  0
   43.8630   30.7020   43.5010 N   0  0  0  0  0  0  0  0  0  0  0  0
   44.6080   30.2900   40.7750 H   0  0  0  0  0  0  0  0  0  0  0  0
   43.7090   30.9320   44.5050 H   0  0  0  0  0  0  0  0  0  0  0  0
   43.0120   30.8900   44.0580 H   0  0  0  0  0  0  0  0  0  0  0  0
  1  2  1  0  0  0  0
  1 19  1  0  0  0  0
  3  2  2  0  0  0  0
  3 11  1  0  0  0  0
  4  3  1  0  0  0  0
  5 10  1  0  0  0  0
  5  4  2  0  0  0  0
  6  5  1  0  0  0  0
  7  8  1  0  0  0  0
  7  6  2  0  0  0  0
  8  9  2  0  0  0  0
  9 39  1  0  0  0  0
  9 10  1  0  0  0  0
 10  1  2  0  0  0  0
 12  6  1  0  0  0  0
 13  7  1  0  0  0  0
 14  8  1  0  0  0  0
 15 16  1  0  0  0  0
 15 26  1  0  0  0  0
 16 35  1  0  0  0  0
 17 16  2  0  0  0  0
 18 17  1  0  0  0  0
 19 18  2  0  0  0  0
 19 20  1  0  0  0  0
 20 15  2  0  0  0  0
 21 17  1  0  0  0  0
 21 25  1  0  0  0  0
 22 21  1  0  0  0  0
 22 28  1  0  0  0  0
 23 22  1  0  0  0  0
 23 30  1  0  0  0  0
 23 24  1  0  0  0  0
 24 32  1  0  0  0  0
 25 24  1  0  0  0  0
 25 34  1  0  0  0  0
 27 22  1  0  0  0  0
 29 23  1  0  0  0  0
 31 24  1  0  0  0  0
 33 25  1  0  0  0  0
 35 37  1  0  0  0  0
 36 35  1  0  0  0  0
 38 39  2  0  0  0  0
 38 45  1  0  0  0  0
 39 40  1  0  0  0  0
 40 41  1  0  0  0  0
 40 42  2  0  0  0  0
 42 43  1  0  0  0  0
 44 42  1  0  0  0  0
 45 44  2  0  0  0  0
 46 47  2  0  0  0  0
 47 38  1  0  0  0  0
 47 48  1  0  0  0  0
 48 51  1  0  0  0  0
 48 50  1  0  0  0  0
 49 46  1  0  0  0  0
M  END
>  <minimizedAffinity>
-5.79510355

>  <minimizedRMSD>
1.63572347

$$$$
