
 OpenBabel03242511293D

 39 43  0  0  1  0  0  0  0  0999 V2000
   46.5230   33.2330   38.4820 C   0  0  0  0  0  0  0  0  0  0  0  0
   47.1600   33.5130   37.2830 C   0  0  0  0  0  0  0  0  0  0  0  0
   46.2720   32.4050   36.0910 S   0  0  0  0  0  0  0  0  0  0  0  0
   45.1740   31.7560   37.4920 C   0  0  0  0  0  0  0  0  0  0  0  0
   45.5860   32.3450   38.3460 N   0  0  0  0  0  0  0  0  0  0  0  0
   47.9720   34.1970   37.0630 H   0  0  0  0  0  0  0  0  0  0  0  0
   44.7370   33.3370   41.0470 Cl  0  0  0  0  0  0  0  0  0  0  0  0
   46.2890   34.0570   40.8780 C   0  0  0  0  0  0  0  0  0  0  0  0
   46.8430   34.7510   41.9270 C   0  0  0  0  0  0  0  0  0  0  0  0
   48.1050   35.3530   41.8330 C   0  0  0  0  0  0  0  0  0  0  0  0
   48.7510   35.2070   40.6350 C   0  0  0  0  0  0  0  0  0  0  0  0
   48.2050   34.5220   39.5960 C   0  0  0  0  0  0  0  0  0  0  0  0
   46.9520   33.9270   39.6950 C   0  0  0  0  0  0  0  0  0  0  0  0
   48.5390   35.8980   42.6610 H   0  0  0  0  0  0  0  0  0  0  0  0
   49.7290   35.6750   40.5680 H   0  0  0  0  0  0  0  0  0  0  0  0
   48.8150   34.4750   38.6930 H   0  0  0  0  0  0  0  0  0  0  0  0
   45.5670   34.0420   45.3210 C   0  0  0  0  0  0  0  0  0  0  0  0
   44.7010   35.1010   45.5400 C   0  0  0  0  0  0  0  0  0  0  0  0
   44.5530   36.0490   44.5390 C   0  0  0  0  0  0  0  0  0  0  0  0
   45.2540   35.9120   43.3880 N   0  0  0  0  0  0  0  0  0  0  0  0
   46.1020   34.8710   43.1800 C   0  0  0  0  0  0  0  0  0  0  0  0
   46.2410   33.9530   44.1580 N   0  0  0  0  0  0  0  0  0  0  0  0
   45.7160   33.2770   46.0730 H   0  0  0  0  0  0  0  0  0  0  0  0
   44.1460   35.2160   46.4430 H   0  0  0  0  0  0  0  0  0  0  0  0
   43.8940   36.9220   44.6140 H   0  0  0  0  0  0  0  0  0  0  0  0
   44.5010   29.4270   37.1700 C   0  0  0  0  0  0  0  0  0  0  0  0
   44.1870   30.7640   37.0900 C   0  0  0  0  0  0  0  0  0  0  0  0
   42.9130   31.0350   36.6410 C   0  0  0  0  0  0  0  0  0  0  0  0
   42.6090   32.0610   36.5570 H   0  0  0  0  0  0  0  0  0  0  0  0
   42.0750   30.0030   36.3160 C   0  0  0  0  0  0  0  0  0  0  0  0
   41.0920   30.2990   35.9710 H   0  0  0  0  0  0  0  0  0  0  0  0
   42.4070   28.6660   36.4030 C   0  0  0  0  0  3  0  0  0  0  0  0
   43.6760   28.3820   36.8510 C   0  0  0  0  0  3  0  0  0  0  0  0
   47.0900   28.8520   37.5720 N   0  0  0  0  0  0  0  0  0  0  0  0
   45.8340   29.0530   37.5980 C   0  0  1  0  0  3  0  0  0  0  0  0
   45.9900   28.5840   38.9300 N   0  0  0  0  0  4  0  0  0  0  0  0
   47.7000   29.0230   36.7540 H   0  0  0  0  0  0  0  0  0  0  0  0
   45.3540   28.8590   39.7170 H   0  0  0  0  0  0  0  0  0  0  0  0
   46.1340   28.2210   39.8960 H   0  0  0  0  0  0  0  0  0  0  0  0
  1 13  1  0  0  0  0
  2  1  2  0  0  0  0
  3  2  1  0  0  0  0
  3  4  1  0  0  0  0
  4  5  2  0  0  0  0
  5  1  1  0  0  0  0
  6  2  1  0  0  0  0
  8  7  1  0  0  0  0
  8  9  1  0  0  0  0
  9 21  1  0  0  0  0
 10  9  2  0  0  0  0
 10 14  1  0  0  0  0
 11 10  1  0  0  0  0
 12 13  1  0  0  0  0
 12 11  2  0  0  0  0
 13  8  2  0  0  0  0
 15 11  1  0  0  0  0
 16 12  1  0  0  0  0
 17 18  1  0  0  0  0
 17 23  1  0  0  0  0
 18 24  1  0  0  0  0
 19 25  1  0  0  0  0
 19 18  2  0  0  0  0
 20 19  1  0  0  0  0
 21 20  2  0  0  0  0
 21 22  1  0  0  0  0
 22 17  2  0  0  0  0
 27 26  1  0  0  0  0
 27  4  1  0  0  0  0
 28 27  2  0  0  0  0
 29 28  1  0  0  0  0
 30 32  2  0  0  0  0
 30 28  1  0  0  0  0
 31 30  1  0  0  0  0
 32 33  1  0  0  0  0
 33 26  2  0  0  0  0
 34 35  1  0  0  0  0
 34 36  1  0  0  0  0
 35 26  1  1  0  0  0
 35 36  1  0  0  0  0
 36 38  1  0  0  0  0
 36 39  1  0  0  0  0
 37 34  1  0  0  0  0
M  END
>  <minimizedAffinity>
-5.6090765

>  <minimizedRMSD>
0.963203609

$$$$
