
 OpenBabel03252502043D

 51 55  0  0  0  0  0  0  0  0999 V2000
   45.6150   33.5220   45.2460 C   0  0  0  0  0  0  0  0  0  0  0  0
   44.9700   34.5570   45.8540 N   0  0  0  0  0  0  0  0  0  0  0  0
   44.6250   35.6980   45.2600 C   0  0  0  0  0  0  0  0  0  0  0  0
   44.9250   35.8760   43.9560 N   0  0  0  0  0  0  0  0  0  0  0  0
   45.5620   34.9260   43.2490 C   0  0  0  0  0  0  0  0  0  0  0  0
   45.8400   35.1280   41.9280 C   0  0  0  0  0  0  0  0  0  0  0  0
   46.4790   34.1470   41.1960 C   0  0  0  0  0  0  0  0  0  0  0  0
   46.8220   32.9680   41.8490 C   0  0  0  0  0  0  0  0  0  0  0  0
   46.5100   32.8330   43.1910 C   0  0  0  0  0  0  0  0  0  0  0  0
   45.8820   33.7790   43.9330 C   0  0  0  0  0  0  0  0  0  0  0  0
   44.1120   36.4350   45.8700 H   0  0  0  0  0  0  0  0  0  0  0  0
   45.5310   36.0910   41.5040 H   0  0  0  0  0  0  0  0  0  0  0  0
   46.6360   34.4360   40.1580 H   0  0  0  0  0  0  0  0  0  0  0  0
   47.3050   32.3340   41.1230 H   0  0  0  0  0  0  0  0  0  0  0  0
   47.6050   31.4540   47.4090 C   0  0  0  0  0  0  0  0  0  0  0  0
   46.9990   30.2030   47.4380 C   0  0  0  0  0  0  0  0  0  0  0  0
   45.8690   30.0600   46.7070 C   0  0  0  0  0  0  0  0  0  0  0  0
   45.3820   31.0850   45.9970 N   0  0  0  0  0  0  0  0  0  0  0  0
   45.9590   32.2910   45.9560 C   0  0  0  0  0  0  0  0  0  0  0  0
   47.0760   32.4280   46.6900 N   0  0  0  0  0  0  0  0  0  0  0  0
   45.1760   28.8590   46.6850 N   0  0  0  0  0  0  0  0  0  0  0  0
   43.8130   28.6680   46.1420 C   0  0  0  0  0  0  0  0  0  0  0  0
   43.5880   27.1820   46.1130 C   0  0  0  0  0  0  0  0  0  0  0  0
   44.4950   26.6670   47.1930 C   0  0  0  0  0  0  0  0  0  0  0  0
   45.6510   27.6000   47.1920 C   0  0  0  0  0  0  0  0  0  0  0  0
   48.5180   31.5820   48.0020 H   0  0  0  0  0  0  0  0  0  0  0  0
   43.8530   29.0190   45.0930 H   0  0  0  0  0  0  0  0  0  0  0  0
   43.0790   29.2310   46.7460 H   0  0  0  0  0  0  0  0  0  0  0  0
   43.7950   26.7200   45.1420 H   0  0  0  0  0  0  0  0  0  0  0  0
   42.5000   27.0040   46.3590 H   0  0  0  0  0  0  0  0  0  0  0  0
   44.7920   25.6280   46.9270 H   0  0  0  0  0  0  0  0  0  0  0  0
   43.9060   26.6030   48.1090 H   0  0  0  0  0  0  0  0  0  0  0  0
   46.4720   27.2100   46.5880 H   0  0  0  0  0  0  0  0  0  0  0  0
   45.8780   27.6240   48.3030 H   0  0  0  0  0  0  0  0  0  0  0  0
   47.6080   29.1670   48.1460 N   0  0  0  0  0  0  0  0  0  0  0  0
   48.1890   28.3610   47.8110 H   0  0  0  0  0  0  0  0  0  0  0  0
   47.4610   29.1990   49.1890 H   0  0  0  0  0  0  0  0  0  0  0  0
   46.3200   30.3270   43.2870 C   0  0  0  0  0  0  0  0  0  0  0  0
   47.0230   31.5060   43.4960 C   0  0  0  0  0  0  0  0  0  0  0  0
   48.2740   31.2750   44.1060 C   0  0  0  0  0  0  0  0  0  0  0  0
   48.8630   32.1890   44.2900 H   0  0  0  0  0  0  0  0  0  0  0  0
   48.7030   30.0100   44.4370 C   0  0  0  0  0  0  0  0  0  0  0  0
   49.6820   30.0170   44.8950 H   0  0  0  0  0  0  0  0  0  0  0  0
   47.9210   28.9070   44.1810 C   0  0  0  0  0  3  0  0  0  0  0  0
   46.6850   29.0370   43.5890 C   0  0  0  0  0  3  0  0  0  0  0  0
   44.2220   30.4720   41.6710 N   0  0  0  0  0  0  0  0  0  0  0  0
   45.0030   30.4620   42.6830 C   0  0  0  0  0  0  0  0  0  0  0  0
   43.8590   30.7350   43.4610 N   0  0  0  0  0  0  0  0  0  0  0  0
   44.5960   30.3050   40.7360 H   0  0  0  0  0  0  0  0  0  0  0  0
   43.7080   30.9680   44.4660 H   0  0  0  0  0  0  0  0  0  0  0  0
   43.0100   30.9320   44.0190 H   0  0  0  0  0  0  0  0  0  0  0  0
  1  2  1  0  0  0  0
  1 19  1  0  0  0  0
  3  2  2  0  0  0  0
  3 11  1  0  0  0  0
  4  3  1  0  0  0  0
  5 10  1  0  0  0  0
  5  4  2  0  0  0  0
  6  5  1  0  0  0  0
  7  8  1  0  0  0  0
  7  6  2  0  0  0  0
  8  9  2  0  0  0  0
  9 39  1  0  0  0  0
  9 10  1  0  0  0  0
 10  1  2  0  0  0  0
 12  6  1  0  0  0  0
 13  7  1  0  0  0  0
 14  8  1  0  0  0  0
 15 16  1  0  0  0  0
 15 26  1  0  0  0  0
 16 35  1  0  0  0  0
 17 16  2  0  0  0  0
 18 17  1  0  0  0  0
 19 18  2  0  0  0  0
 19 20  1  0  0  0  0
 20 15  2  0  0  0  0
 21 17  1  0  0  0  0
 21 25  1  0  0  0  0
 22 21  1  0  0  0  0
 22 28  1  0  0  0  0
 23 22  1  0  0  0  0
 23 30  1  0  0  0  0
 23 24  1  0  0  0  0
 24 32  1  0  0  0  0
 25 24  1  0  0  0  0
 25 34  1  0  0  0  0
 27 22  1  0  0  0  0
 29 23  1  0  0  0  0
 31 24  1  0  0  0  0
 33 25  1  0  0  0  0
 35 37  1  0  0  0  0
 36 35  1  0  0  0  0
 38 39  2  0  0  0  0
 38 45  1  0  0  0  0
 39 40  1  0  0  0  0
 40 41  1  0  0  0  0
 40 42  2  0  0  0  0
 42 43  1  0  0  0  0
 44 42  1  0  0  0  0
 45 44  2  0  0  0  0
 46 47  2  0  0  0  0
 47 38  1  0  0  0  0
 47 48  1  0  0  0  0
 48 51  1  0  0  0  0
 48 50  1  0  0  0  0
 49 46  1  0  0  0  0
M  END
>  <minimizedAffinity>
-5.78104544

>  <minimizedRMSD>
2.03718638

$$$$
