
 OpenBabel03242512253D

 25 27  0  0  1  0  0  0  0  0999 V2000
   45.6890   30.9610   46.8200 C   0  0  0  0  0  0  0  0  0  0  0  0
   45.7360   32.3260   46.9620 C   0  0  0  0  0  0  0  0  0  0  0  0
   45.6790   32.8580   48.2310 C   0  0  0  0  0  0  0  0  0  0  0  0
   45.7090   33.9190   48.4350 H   0  0  0  0  0  0  0  0  0  0  0  0
   45.5770   31.9470   49.2640 C   0  0  0  0  0  0  0  0  0  0  0  0
   45.5320   32.3680   50.2580 H   0  0  0  0  0  0  0  0  0  0  0  0
   45.5270   30.5740   49.1700 C   0  0  0  0  0  3  0  0  0  0  0  0
   45.5860   30.0680   47.8930 C   0  0  0  0  0  3  0  0  0  0  0  0
   45.2620   35.0120   44.4450 C   0  0  0  0  0  0  0  0  0  0  0  0
   46.2840   34.7010   43.5360 C   0  0  0  0  0  0  0  0  0  0  0  0
   47.1090   33.5880   43.8070 C   0  0  0  0  0  0  0  0  0  0  0  0
   46.8320   32.9000   44.9510 N   0  0  0  0  0  0  0  0  0  0  0  0
   45.8550   33.2060   45.8070 C   0  0  0  0  0  0  0  0  0  0  0  0
   45.1000   34.2570   45.5220 N   0  0  0  0  0  0  0  0  0  0  0  0
   44.4050   36.1320   44.2080 N   0  0  0  0  0  0  0  0  0  0  0  0
   46.4160   35.3090   42.6670 H   0  0  0  0  0  0  0  0  0  0  0  0
   47.8900   33.3360   43.1290 H   0  0  0  0  0  0  0  0  0  0  0  0
   44.5430   36.7520   43.4020 H   0  0  0  0  0  0  0  0  0  0  0  0
   43.6330   36.3280   44.8490 H   0  0  0  0  0  0  0  0  0  0  0  0
   45.3470   29.8110   44.4190 N   0  0  0  0  0  0  0  0  0  0  0  0
   45.7120   30.2850   45.5370 C   0  0  1  0  0  3  0  0  0  0  0  0
   46.9690   29.7240   45.0960 N   0  0  0  0  0  4  0  0  0  0  0  0
   44.4380   29.8250   43.9690 H   0  0  0  0  0  0  0  0  0  0  0  0
   47.5370   28.9260   45.4890 H   0  0  0  0  0  0  0  0  0  0  0  0
   47.8780   29.4260   44.6590 H   0  0  0  0  0  0  0  0  0  0  0  0
  1  2  2  0  0  0  0
  1  8  1  0  0  0  0
  2  3  1  0  0  0  0
  3  4  1  0  0  0  0
  3  5  2  0  0  0  0
  5  6  1  0  0  0  0
  7  5  1  0  0  0  0
  8  7  2  0  0  0  0
  9 14  1  0  0  0  0
 10 11  1  0  0  0  0
 10  9  2  0  0  0  0
 11 12  2  0  0  0  0
 12 13  1  0  0  0  0
 13  2  1  0  0  0  0
 14 13  2  0  0  0  0
 15  9  1  0  0  0  0
 15 19  1  0  0  0  0
 16 10  1  0  0  0  0
 17 11  1  0  0  0  0
 18 15  1  0  0  0  0
 20 22  1  0  0  0  0
 20 21  1  0  0  0  0
 21  1  1  6  0  0  0
 22 24  1  0  0  0  0
 22 21  1  0  0  0  0
 23 20  1  0  0  0  0
 25 22  1  0  0  0  0
M  END
>  <minimizedAffinity>
-4.80204868

>  <minimizedRMSD>
1.17408013

$$$$
