
 OpenBabel03242519063D

 48 51  0  0  1  0  0  0  0  0999 V2000
   49.2950   31.9880   37.8960 C   0  0  0  0  0  0  0  0  0  0  0  0
   48.8840   32.9600   38.8240 C   0  0  0  0  0  0  0  0  0  0  0  0
   48.2940   34.0440   38.2360 C   0  0  0  0  0  0  0  0  0  0  0  0
   48.0920   34.2310   36.8990 C   0  0  0  0  0  0  0  0  0  0  0  0
   48.5130   33.2480   36.0250 C   0  0  0  0  0  0  0  0  0  0  0  0
   49.1180   32.1220   36.5540 C   0  0  0  0  0  0  0  0  0  0  0  0
   47.9380   34.8580   38.8590 H   0  0  0  0  0  0  0  0  0  0  0  0
   47.6130   35.1230   36.4910 H   0  0  0  0  0  0  0  0  0  0  0  0
   48.4000   33.2980   34.9510 H   0  0  0  0  0  0  0  0  0  0  0  0
   48.5410   30.2150   35.2670 C   0  0  0  0  0  0  0  0  0  0  0  0
   49.5700   31.0720   35.6440 C   0  0  0  0  0  0  0  0  0  0  0  0
   50.8510   30.8880   35.1730 C   0  0  0  0  0  0  0  0  0  0  0  0
   51.5810   31.6030   35.5210 H   0  0  0  0  0  0  0  0  0  0  0  0
   51.1650   29.8620   34.3170 C   0  0  0  0  0  0  0  0  0  0  0  0
   52.1730   29.7280   33.9530 H   0  0  0  0  0  0  0  0  0  0  0  0
   50.1490   29.0130   33.9430 C   0  0  0  0  0  3  0  0  0  0  0  0
   48.8640   29.1710   34.3960 C   0  0  0  0  0  3  0  0  0  0  0  0
   46.2460   30.9060   35.0070 N   0  0  0  0  0  0  0  0  0  0  0  0
   47.1510   30.3090   35.7010 C   0  0  0  0  0  0  0  0  0  0  0  0
   46.7640   29.7220   36.9380 N   0  0  0  0  0  0  0  0  0  0  0  0
   45.2790   30.9220   35.3980 H   0  0  0  0  0  0  0  0  0  0  0  0
   46.9140   28.6830   37.0970 H   0  0  0  0  0  0  0  0  0  0  0  0
   46.3660   29.7500   37.8930 H   0  0  0  0  0  0  0  0  0  0  0  0
   49.0490   32.8580   40.2270 N   0  0  0  0  0  0  0  0  0  0  0  0
   50.0350   32.7920   40.6170 H   0  0  0  0  0  0  0  0  0  0  0  0
   47.3850   33.5320   43.3080 N   0  0  0  0  0  0  0  0  0  0  0  0
   48.1360   34.0340   42.1770 C   0  0  0  0  0  0  0  0  0  0  0  0
   48.0660   32.8270   41.2890 C   0  0  2  0  0  0  0  0  0  0  0  0
   48.5050   31.7450   42.2610 C   0  0  0  0  0  0  0  0  0  0  0  0
   47.8580   32.1770   43.5520 C   0  0  0  0  0  0  0  0  0  0  0  0
   47.6830   34.9450   41.7490 H   0  0  0  0  0  0  0  0  0  0  0  0
   49.1810   34.1850   42.5190 H   0  0  0  0  0  0  0  0  0  0  0  0
   47.0420   32.6670   40.9470 H   0  0  0  0  0  0  0  0  0  0  0  0
   49.6030   31.7680   42.3920 H   0  0  0  0  0  0  0  0  0  0  0  0
   48.2100   30.7300   41.9390 H   0  0  0  0  0  0  0  0  0  0  0  0
   46.9630   31.5490   43.7220 H   0  0  0  0  0  0  0  0  0  0  0  0
   48.5820   32.1350   44.3910 H   0  0  0  0  0  0  0  0  0  0  0  0
   44.6400   35.7300   44.5240 C   0  0  0  0  0  0  0  0  0  0  0  0
   45.6050   35.2090   43.6610 C   0  0  0  0  0  0  0  0  0  0  0  0
   46.3900   34.1390   44.0780 C   0  0  0  0  0  0  0  0  0  0  0  0
   46.1540   33.6610   45.3360 N   0  0  0  0  0  0  0  0  0  0  0  0
   45.2280   34.1560   46.1720 C   0  0  0  0  0  0  0  0  0  0  0  0
   44.4650   35.2020   45.7590 N   0  0  0  0  0  0  0  0  0  0  0  0
   44.0620   36.5610   44.1420 H   0  0  0  0  0  0  0  0  0  0  0  0
   45.8160   35.5610   42.6640 H   0  0  0  0  0  0  0  0  0  0  0  0
   45.1440   33.6920   47.1310 H   0  0  0  0  0  0  0  0  0  0  0  0
   50.4280   29.8410   38.8850 N   0  0  0  0  0  0  0  0  0  0  0  0
   49.9360   30.7970   38.4510 C   0  0  0  0  0  0  0  0  0  0  0  0
  1 48  1  0  0  0  0
  1  2  1  0  0  0  0
  2 24  1  0  0  0  0
  3  2  2  0  0  0  0
  3  7  1  0  0  0  0
  4  3  1  0  0  0  0
  5  6  1  0  0  0  0
  5  4  2  0  0  0  0
  6  1  2  0  0  0  0
  8  4  1  0  0  0  0
  9  5  1  0  0  0  0
 10 11  1  0  0  0  0
 10 19  1  0  0  0  0
 11  6  1  0  0  0  0
 12 13  1  0  0  0  0
 12 11  2  0  0  0  0
 14 12  1  0  0  0  0
 15 14  1  0  0  0  0
 16 14  2  0  0  0  0
 16 17  1  0  0  0  0
 17 10  2  0  0  0  0
 18 21  1  0  0  0  0
 18 19  2  0  0  0  0
 19 20  1  0  0  0  0
 20 22  1  0  0  0  0
 20 23  1  0  0  0  0
 24 25  1  0  0  0  0
 24 28  1  0  0  0  0
 26 30  1  0  0  0  0
 26 40  1  0  0  0  0
 27 32  1  0  0  0  0
 27 26  1  0  0  0  0
 28 33  1  6  0  0  0
 28 27  1  0  0  0  0
 28 29  1  0  0  0  0
 29 34  1  0  0  0  0
 29 30  1  0  0  0  0
 30 36  1  0  0  0  0
 30 37  1  0  0  0  0
 31 27  1  0  0  0  0
 35 29  1  0  0  0  0
 38 43  1  0  0  0  0
 39 40  1  0  0  0  0
 39 38  2  0  0  0  0
 40 41  2  0  0  0  0
 41 42  1  0  0  0  0
 42 46  1  0  0  0  0
 43 42  2  0  0  0  0
 44 38  1  0  0  0  0
 45 39  1  0  0  0  0
 48 47  3  0  0  0  0
M  END
>  <minimizedAffinity>
-4.69936895

>  <minimizedRMSD>
0.667770207

$$$$
