
 OpenBabel03252504053D

 24 25  0  0  0  0  0  0  0  0999 V2000
   46.0480   33.9010   41.1740 C   0  0  0  0  0  0  0  0  0  0  0  0
   46.5310   34.5330   42.2740 C   0  0  0  0  0  0  0  0  0  0  0  0
   47.7790   35.1660   42.2040 C   0  0  0  0  0  0  0  0  0  0  0  0
   48.3180   35.7080   42.9630 H   0  0  0  0  0  0  0  0  0  0  0  0
   48.4490   35.1080   40.9910 C   0  0  0  0  0  0  0  0  0  0  0  0
   49.4250   35.5580   40.7910 H   0  0  0  0  0  0  0  0  0  0  0  0
   47.9140   34.4490   39.8810 C   0  0  0  0  0  3  0  0  0  0  0  0
   46.6880   33.8270   39.9590 C   0  0  0  0  0  3  0  0  0  0  0  0
   44.4720   35.7440   45.1910 C   0  0  0  0  0  0  0  0  0  0  0  0
   45.0040   35.7460   43.9000 C   0  0  0  0  0  0  0  0  0  0  0  0
   45.8800   34.6840   43.5680 C   0  0  0  0  0  0  0  0  0  0  0  0
   46.1500   33.7320   44.5180 N   0  0  0  0  0  0  0  0  0  0  0  0
   45.6060   33.7810   45.7490 C   0  0  0  0  0  0  0  0  0  0  0  0
   44.7770   34.7810   46.0720 N   0  0  0  0  0  0  0  0  0  0  0  0
   43.8060   36.5510   45.4370 H   0  0  0  0  0  0  0  0  0  0  0  0
   45.8320   33.0200   46.4790 H   0  0  0  0  0  0  0  0  0  0  0  0
   44.7440   36.7020   42.9300 O   0  0  0  0  0  0  0  0  0  0  0  0
   45.3870   37.4550   42.7970 H   0  0  0  0  0  0  0  0  0  0  0  0
   44.6430   32.0810   40.6510 N   0  0  0  0  0  0  0  0  0  0  0  0
   44.7720   33.2260   41.2930 C   0  0  0  0  0  0  0  0  0  0  0  0
   43.4770   33.2610   41.8510 N   0  0  0  0  0  0  0  0  0  0  0  0
   45.3840   31.6480   40.0840 H   0  0  0  0  0  0  0  0  0  0  0  0
   42.5930   33.5010   41.3030 H   0  0  0  0  0  0  0  0  0  0  0  0
   43.4460   33.0170   42.8730 H   0  0  0  0  0  0  0  0  0  0  0  0
  1 20  1  0  0  0  0
  1  2  1  0  0  0  0
  2 11  1  0  0  0  0
  3  2  2  0  0  0  0
  3  4  1  0  0  0  0
  5  3  1  0  0  0  0
  6  5  1  0  0  0  0
  7  8  1  0  0  0  0
  7  5  2  0  0  0  0
  8  1  2  0  0  0  0
  9 15  1  0  0  0  0
  9 14  1  0  0  0  0
 10  9  2  0  0  0  0
 11 10  1  0  0  0  0
 11 12  2  0  0  0  0
 12 13  1  0  0  0  0
 13 14  2  0  0  0  0
 13 16  1  0  0  0  0
 17 10  1  0  0  0  0
 18 17  1  0  0  0  0
 19 20  2  0  0  0  0
 20 21  1  0  0  0  0
 21 24  1  0  0  0  0
 22 19  1  0  0  0  0
 23 21  1  0  0  0  0
M  END
>  <minimizedAffinity>
-5.3592453

>  <minimizedRMSD>
1.11150956

$$$$
