
 OpenBabel03252501513D

 50 53  0  0  1  0  0  0  0  0999 V2000
   48.5010   34.7610   41.7600 N   0  0  0  0  0  0  0  0  0  0  0  0
   49.5950   34.8100   42.7010 C   0  0  0  0  0  0  0  0  0  0  0  0
   50.5950   33.7780   42.2910 C   0  0  0  0  0  0  0  0  0  0  0  0
   49.7720   32.7890   41.5290 C   0  0  0  0  0  0  0  0  0  0  0  0
   48.4790   33.4780   41.1520 C   0  0  2  0  0  0  0  0  0  0  0  0
   49.1890   34.5970   43.7270 H   0  0  0  0  0  0  0  0  0  0  0  0
   50.0610   35.8270   42.6960 H   0  0  0  0  0  0  0  0  0  0  0  0
   51.4420   34.2030   41.7350 H   0  0  0  0  0  0  0  0  0  0  0  0
   50.9740   33.2740   43.2130 H   0  0  0  0  0  0  0  0  0  0  0  0
   50.3340   32.5660   40.5760 H   0  0  0  0  0  0  0  0  0  0  0  0
   49.6380   31.8120   42.0130 H   0  0  0  0  0  0  0  0  0  0  0  0
   47.6860   32.8870   41.6990 H   0  0  0  0  0  0  0  0  0  0  0  0
   47.5670   32.4100   39.0350 C   0  0  0  0  0  0  0  0  0  0  0  0
   48.1880   33.4060   39.7270 C   0  0  0  0  0  0  0  0  0  0  0  0
   48.5660   34.4900   38.9200 C   0  0  0  0  0  0  0  0  0  0  0  0
   49.0730   35.3400   39.4000 H   0  0  0  0  0  0  0  0  0  0  0  0
   48.3130   34.5020   37.5660 C   0  0  0  0  0  0  0  0  0  0  0  0
   48.6450   35.3840   37.0390 H   0  0  0  0  0  0  0  0  0  0  0  0
   47.6800   33.4630   36.9220 C   0  0  0  0  0  3  0  0  0  0  0  0
   47.2980   32.3880   37.6840 C   0  0  0  0  0  3  0  0  0  0  0  0
   47.3520   30.1000   40.3060 N   0  0  0  0  0  0  0  0  0  0  0  0
   47.1320   31.2270   39.7370 C   0  0  0  0  0  0  0  0  0  0  0  0
   45.7440   31.0230   40.0720 N   0  0  0  0  0  0  0  0  0  0  0  0
   46.4950   29.6320   40.6960 H   0  0  0  0  0  0  0  0  0  0  0  0
   45.0780   30.7970   39.2760 H   0  0  0  0  0  0  0  0  0  0  0  0
   44.9620   30.9780   40.7850 H   0  0  0  0  0  0  0  0  0  0  0  0
   47.2680   35.0410   42.4610 C   0  0  0  0  0  0  0  0  0  0  0  0
   47.2670   34.4180   43.3800 H   0  0  0  0  0  0  0  0  0  0  0  0
   47.1680   36.0870   42.7710 H   0  0  0  0  0  0  0  0  0  0  0  0
   44.8890   35.2240   41.8360 C   0  0  0  0  0  3  0  0  0  0  0  0
   46.0650   34.5890   41.6700 C   0  0  0  0  0  3  0  0  0  0  0  0
   43.7440   33.9890   39.9360 C   0  0  0  0  0  0  0  0  0  0  0  0
   43.6880   34.8230   41.0890 C   0  0  0  0  0  0  0  0  0  0  0  0
   42.4370   35.2710   41.5240 C   0  0  0  0  0  0  0  0  0  0  0  0
   41.3330   34.8920   40.8270 N   0  0  0  0  0  0  0  0  0  0  0  0
   41.4270   34.1030   39.7420 C   0  0  0  0  0  0  0  0  0  0  0  0
   42.6240   33.6660   39.3150 N   0  0  0  0  0  0  0  0  0  0  0  0
   44.7390   33.6560   39.6220 H   0  0  0  0  0  0  0  0  0  0  0  0
   42.3470   35.9060   42.3950 H   0  0  0  0  0  0  0  0  0  0  0  0
   40.0860   31.7430   40.3310 F   0  0  0  0  0  0  0  0  0  0  0  0
   39.5650   32.5250   39.3480 C   0  0  0  0  0  0  0  0  0  0  0  0
   40.2160   33.7200   39.0270 C   0  0  0  0  0  0  0  0  0  0  0  0
   39.7520   34.5660   38.0460 C   0  0  0  0  0  0  0  0  0  0  0  0
   38.5920   34.1800   37.3750 C   0  0  0  0  0  0  0  0  0  0  0  0
   37.9200   32.9870   37.6770 C   0  0  0  0  0  0  0  0  0  0  0  0
   38.4150   32.1620   38.6690 C   0  0  0  0  0  0  0  0  0  0  0  0
   40.2660   35.4710   37.8210 H   0  0  0  0  0  0  0  0  0  0  0  0
   38.2550   34.8770   36.6050 H   0  0  0  0  0  0  0  0  0  0  0  0
   37.0360   32.7700   37.1110 H   0  0  0  0  0  0  0  0  0  0  0  0
   37.9000   31.2350   38.9100 H   0  0  0  0  0  0  0  0  0  0  0  0
  1 27  1  0  0  0  0
  1  2  1  0  0  0  0
  2  6  1  0  0  0  0
  3  2  1  0  0  0  0
  3  9  1  0  0  0  0
  4 11  1  0  0  0  0
  4  3  1  0  0  0  0
  5  4  1  0  0  0  0
  5 12  1  1  0  0  0
  5  1  1  0  0  0  0
  7  2  1  0  0  0  0
  8  3  1  0  0  0  0
 10  4  1  0  0  0  0
 13 14  1  0  0  0  0
 13 22  1  0  0  0  0
 14  5  1  0  0  0  0
 15 16  1  0  0  0  0
 15 14  2  0  0  0  0
 17 15  1  0  0  0  0
 18 17  1  0  0  0  0
 19 17  2  0  0  0  0
 19 20  1  0  0  0  0
 20 13  2  0  0  0  0
 21 24  1  0  0  0  0
 22 23  1  0  0  0  0
 22 21  2  0  0  0  0
 23 26  1  0  0  0  0
 25 23  1  0  0  0  0
 27 29  1  0  0  0  0
 27 28  1  0  0  0  0
 31 30  2  0  0  0  0
 31 27  1  0  0  0  0
 32 33  1  0  0  0  0
 33 34  2  0  0  0  0
 33 30  1  0  0  0  0
 34 39  1  0  0  0  0
 35 34  1  0  0  0  0
 36 35  2  0  0  0  0
 37 36  1  0  0  0  0
 37 32  2  0  0  0  0
 38 32  1  0  0  0  0
 41 40  1  0  0  0  0
 42 41  1  0  0  0  0
 42 36  1  0  0  0  0
 43 42  2  0  0  0  0
 44 45  2  0  0  0  0
 44 43  1  0  0  0  0
 45 46  1  0  0  0  0
 46 50  1  0  0  0  0
 46 41  2  0  0  0  0
 47 43  1  0  0  0  0
 48 44  1  0  0  0  0
 49 45  1  0  0  0  0
M  END
>  <minimizedAffinity>
-6.4420619

>  <minimizedRMSD>
1.0366925

$$$$
