
 OpenBabel03252504563D

 36 36  0  0  1  0  0  0  0  0999 V2000
   44.1020   33.4770   41.4430 N   0  0  0  0  0  0  0  0  0  0  0  0
   43.0640   32.5080   41.6010 C   0  0  0  0  0  0  0  0  0  0  0  0
   43.8370   31.2550   41.8570 C   0  0  0  0  0  0  0  0  0  0  0  0
   45.3020   31.5910   41.8960 C   0  0  0  0  0  0  0  0  0  0  0  0
   45.2570   33.1380   42.1000 C   0  0  2  0  0  0  0  0  0  0  0  0
   42.0150   32.4760   41.5780 H   0  0  0  0  0  0  0  0  0  0  0  0
   43.4140   30.2590   42.0310 H   0  0  0  0  0  0  0  0  0  0  0  0
   45.8060   31.0880   42.7100 H   0  0  0  0  0  0  0  0  0  0  0  0
   45.7050   31.3330   40.9060 H   0  0  0  0  0  0  0  0  0  0  0  0
   46.2240   33.4510   41.5920 H   0  0  0  0  0  0  0  0  0  0  0  0
   45.1650   34.3320   44.3720 C   0  0  0  0  0  0  0  0  0  0  0  0
   45.4670   33.3180   43.5220 C   0  0  0  0  0  0  0  0  0  0  0  0
   46.0480   32.2170   44.1680 C   0  0  0  0  0  0  0  0  0  0  0  0
   46.3470   31.3200   43.6120 H   0  0  0  0  0  0  0  0  0  0  0  0
   46.3050   32.1210   45.5140 C   0  0  0  0  0  0  0  0  0  0  0  0
   46.7520   31.2540   45.9650 H   0  0  0  0  0  0  0  0  0  0  0  0
   45.9720   33.1870   46.3180 C   0  0  0  0  0  3  0  0  0  0  0  0
   45.3920   34.3120   45.7310 C   0  0  0  0  0  3  0  0  0  0  0  0
   43.3470   35.8710   44.1510 N   0  0  0  0  0  0  0  0  0  0  0  0
   44.6110   35.5920   43.9570 C   0  0  0  0  0  3  0  0  0  0  0  0
   45.0740   36.7830   43.3660 N   0  0  0  0  0  1  0  0  0  0  0  0
   42.9640   36.8140   43.8650 H   0  0  0  0  0  0  0  0  0  0  0  0
   45.6730   37.6210   43.5450 H   0  0  0  0  0 15  0  0  0  0  0  0
   45.3920   37.6270   42.9270 H   0  0  0  0  0  0  0  0  0  0  0  0
   43.9020   34.5320   40.5890 C   0  0  0  0  0  0  0  0  0  0  0  0
   44.4210   35.5010   40.8320 H   0  0  0  0  0  0  0  0  0  0  0  0
   44.3630   34.3020   39.5780 H   0  0  0  0  0  0  0  0  0  0  0  0
   40.3790   35.8810   40.7080 C   0  0  0  0  0  0  0  0  0  0  0  0
   41.6920   35.5880   41.1610 C   0  0  0  0  0  0  0  0  0  0  0  0
   42.5200   34.8800   40.2940 C   0  0  0  0  0  0  0  0  0  0  0  0
   42.0360   34.5150   39.0880 N   0  0  0  0  0  0  0  0  0  0  0  0
   40.7610   34.8080   38.6690 C   0  0  0  0  0  0  0  0  0  0  0  0
   39.9410   35.4930   39.4880 N   0  0  0  0  0  0  0  0  0  0  0  0
   39.7690   36.4320   41.4090 H   0  0  0  0  0  0  0  0  0  0  0  0
   42.0620   35.8820   42.1190 H   0  0  0  0  0  0  0  0  0  0  0  0
   40.5010   34.4580   37.6830 H   0  0  0  0  0  0  0  0  0  0  0  0
  1  2  1  0  0  0  0
  1  5  1  0  0  0  0
  2  3  2  0  0  0  0
  3  4  1  0  0  0  0
  3  7  1  0  0  0  0
  4  5  1  0  0  0  0
  4  8  1  0  0  0  0
  5 10  1  6  0  0  0
  5 12  1  0  0  0  0
  6  2  1  0  0  0  0
  9  4  1  0  0  0  0
 11 18  1  0  0  0  0
 12 13  1  0  0  0  0
 12 11  2  0  0  0  0
 13 15  2  0  0  0  0
 14 13  1  0  0  0  0
 15 16  1  0  0  0  0
 15 17  1  0  0  0  0
 18 17  2  0  0  0  0
 20 19  2  0  0  0  0
 20 11  1  0  0  0  0
 22 19  1  0  0  0  0
 24 21  1  0  0  0  0
 25 26  1  0  0  0  0
 25  1  1  0  0  0  0
 27 25  1  0  0  0  0
 28 29  1  0  0  0  0
 28 34  1  0  0  0  0
 29 35  1  0  0  0  0
 30 25  1  0  0  0  0
 30 29  2  0  0  0  0
 31 30  1  0  0  0  0
 32 31  2  0  0  0  0
 32 33  1  0  0  0  0
 33 28  2  0  0  0  0
 36 32  1  0  0  0  0
M  END
>  <minimizedAffinity>
-5.47137403

>  <minimizedRMSD>
5.39434147

$$$$
