
 OpenBabel03242515393D

 41 44  0  0  0  0  0  0  0  0999 V2000
   44.0580   34.8250   41.0890 C   0  0  0  0  0  0  0  0  0  0  0  0
   44.0100   33.9910   39.9960 C   0  0  0  0  0  0  0  0  0  0  0  0
   45.2010   33.4260   39.5470 C   0  0  0  0  0  0  0  0  0  0  0  0
   46.3360   33.7280   40.2160 N   0  0  0  0  0  0  0  0  0  0  0  0
   46.3540   34.5510   41.2880 C   0  0  0  0  0  0  0  0  0  0  0  0
   45.2140   35.0810   41.7010 N   0  0  0  0  0  0  0  0  0  0  0  0
   43.0870   33.7510   39.5130 H   0  0  0  0  0  0  0  0  0  0  0  0
   45.3620   31.1480   38.5460 C   0  0  0  0  0  0  0  0  0  0  0  0
   45.3750   32.4950   38.4580 C   0  0  0  0  0  0  0  0  0  0  0  0
   45.5660   32.9650   37.1780 C   0  0  0  0  0  0  0  0  0  0  0  0
   45.5940   34.0310   36.9730 H   0  0  0  0  0  0  0  0  0  0  0  0
   45.7350   32.1760   36.0650 C   0  0  0  0  0  0  0  0  0  0  0  0
   45.8830   32.5970   35.0770 H   0  0  0  0  0  0  0  0  0  0  0  0
   45.7190   30.8060   36.1950 C   0  0  0  0  0  3  0  0  0  0  0  0
   45.5270   30.2800   37.4730 C   0  0  0  0  0  3  0  0  0  0  0  0
   43.9550   29.9270   40.2290 N   0  0  0  0  0  0  0  0  0  0  0  0
   45.0640   30.4060   39.7510 C   0  0  0  0  0  0  0  0  0  0  0  0
   46.0080   30.0220   40.7360 N   0  0  0  0  0  0  0  0  0  0  0  0
   43.9890   29.4220   41.1290 H   0  0  0  0  0  0  0  0  0  0  0  0
   46.3890   29.0450   40.6030 H   0  0  0  0  0  0  0  0  0  0  0  0
   46.5340   30.2960   41.5970 H   0  0  0  0  0  0  0  0  0  0  0  0
   42.4800   35.5240   41.6130 S   0  0  0  0  0  0  0  0  0  0  0  0
   40.3390   35.0290   40.0750 C   0  0  0  0  0  0  0  0  0  0  0  0
   41.1230   34.5050   41.0870 C   0  0  0  0  0  0  0  0  0  0  0  0
   40.8430   33.2710   41.6290 C   0  0  0  0  0  0  0  0  0  0  0  0
   39.7780   32.5070   41.1940 C   0  0  0  0  0  0  0  0  0  0  0  0
   38.9800   33.0420   40.1630 C   0  0  0  0  0  0  0  0  0  0  0  0
   39.2430   34.2850   39.5990 C   0  0  0  0  0  0  0  0  0  0  0  0
   37.9700   32.0970   39.8890 O   0  0  0  0  0  0  0  0  0  0  0  0
   37.9790   31.1800   40.9610 C   0  0  0  0  0  0  0  0  0  0  0  0
   39.2620   31.2600   41.5410 O   0  0  0  0  0  0  0  0  0  0  0  0
   40.4960   35.9930   39.5960 H   0  0  0  0  0  0  0  0  0  0  0  0
   41.4620   32.8860   42.4110 H   0  0  0  0  0  0  0  0  0  0  0  0
   38.6020   34.6570   38.8070 H   0  0  0  0  0  0  0  0  0  0  0  0
   37.8680   30.1550   40.5350 H   0  0  0  0  0  0  0  0  0  0  0  0
   37.1630   31.3480   41.6830 H   0  0  0  0  0  0  0  0  0  0  0  0
   47.4850   34.8830   41.9950 O   0  0  0  0  0  0  0  0  0  0  0  0
   48.6680   35.1880   41.3220 C   0  0  0  0  0  0  0  0  0  0  0  0
   49.6570   34.2810   41.5340 F   0  0  0  0  0  0  0  0  0  0  0  0
   48.2940   35.3060   39.9680 F   0  0  0  0  0  0  0  0  0  0  0  0
   49.1050   36.4210   41.8060 F   0  0  0  0  0  0  0  0  0  0  0  0
  1 22  1  0  0  0  0
  1  6  1  0  0  0  0
  2  1  2  0  0  0  0
  3  2  1  0  0  0  0
  3  4  2  0  0  0  0
  4  5  1  0  0  0  0
  5  6  2  0  0  0  0
  5 37  1  0  0  0  0
  7  2  1  0  0  0  0
  8 17  1  0  0  0  0
  9  8  1  0  0  0  0
  9  3  1  0  0  0  0
 10  9  2  0  0  0  0
 11 10  1  0  0  0  0
 12 14  2  0  0  0  0
 12 10  1  0  0  0  0
 13 12  1  0  0  0  0
 14 15  1  0  0  0  0
 15  8  2  0  0  0  0
 16 19  1  0  0  0  0
 17 16  2  0  0  0  0
 17 18  1  0  0  0  0
 18 21  1  0  0  0  0
 20 18  1  0  0  0  0
 23 24  1  0  0  0  0
 24 22  1  0  0  0  0
 24 25  2  0  0  0  0
 25 33  1  0  0  0  0
 26 31  1  0  0  0  0
 26 25  1  0  0  0  0
 27 26  2  0  0  0  0
 28 23  2  0  0  0  0
 28 27  1  0  0  0  0
 29 27  1  0  0  0  0
 29 30  1  0  0  0  0
 30 31  1  0  0  0  0
 30 36  1  0  0  0  0
 32 23  1  0  0  0  0
 34 28  1  0  0  0  0
 35 30  1  0  0  0  0
 38 39  1  0  0  0  0
 38 41  1  0  0  0  0
 38 37  1  0  0  0  0
 40 38  1  0  0  0  0
M  END
>  <minimizedAffinity>
-5.81715107

>  <minimizedRMSD>
0.667152047

$$$$
