
 OpenBabel03242514063D

 48 51  0  0  1  0  0  0  0  0999 V2000
   46.3170   32.6130   38.9840 C   0  0  1  0  0  0  0  0  0  0  0  0
   45.1800   33.2530   38.1510 C   0  0  0  0  0  0  0  0  0  0  0  0
   44.5130   32.0470   37.4590 C   0  0  0  0  0  0  0  0  0  0  0  0
   45.5190   31.6000   36.4000 C   0  0  0  0  0  0  0  0  0  0  0  0
   46.7790   31.1580   37.0330 C   0  0  0  0  0  0  0  0  0  0  0  0
   47.3340   31.9850   38.1430 C   0  0  2  0  0  0  0  0  0  0  0  0
   45.7340   31.8400   39.5740 H   0  0  0  0  0  0  0  0  0  0  0  0
   44.4700   33.8010   38.7600 H   0  0  0  0  0  0  0  0  0  0  0  0
   45.6650   33.8580   37.3650 H   0  0  0  0  0  0  0  0  0  0  0  0
   43.6070   32.3930   36.9600 H   0  0  0  0  0  0  0  0  0  0  0  0
   44.3850   31.2940   38.2400 H   0  0  0  0  0  0  0  0  0  0  0  0
   45.1060   30.7730   35.8120 H   0  0  0  0  0  0  0  0  0  0  0  0
   45.7200   32.4910   35.7670 H   0  0  0  0  0  0  0  0  0  0  0  0
   47.5250   30.9670   36.2240 H   0  0  0  0  0  0  0  0  0  0  0  0
   46.5780   30.1240   37.4440 H   0  0  0  0  0  0  0  0  0  0  0  0
   48.0230   32.7360   37.7010 H   0  0  0  0  0  0  0  0  0  0  0  0
   46.7110   34.5220   42.0990 C   0  0  0  0  0  0  0  0  0  0  0  0
   47.8340   35.2630   41.8190 C   0  0  0  0  0  0  0  0  0  0  0  0
   48.5270   35.2080   40.6300 C   0  0  0  0  0  0  0  0  0  0  0  0
   47.9840   34.3090   39.7000 C   0  0  0  0  0  0  0  0  0  0  0  0
   46.8460   33.5480   39.9740 C   0  0  0  0  0  0  0  0  0  0  0  0
   46.2210   33.6620   41.1710 N   0  0  0  0  0  0  0  0  0  0  0  0
   48.1720   35.9300   42.6070 H   0  0  0  0  0  0  0  0  0  0  0  0
   49.3960   35.8010   40.4480 H   0  0  0  0  0  0  0  0  0  0  0  0
   48.5480   34.3060   38.7820 H   0  0  0  0  0  0  0  0  0  0  0  0
   45.5650   33.9660   45.5290 C   0  0  0  0  0  0  0  0  0  0  0  0
   44.6950   35.0150   45.7750 C   0  0  0  0  0  0  0  0  0  0  0  0
   44.5100   35.9190   44.7340 C   0  0  0  0  0  0  0  0  0  0  0  0
   45.1850   35.7240   43.5530 N   0  0  0  0  0  0  0  0  0  0  0  0
   46.0250   34.6700   43.3790 C   0  0  0  0  0  0  0  0  0  0  0  0
   46.2110   33.8100   44.3490 N   0  0  0  0  0  0  0  0  0  0  0  0
   45.7170   33.2470   46.3440 H   0  0  0  0  0  0  0  0  0  0  0  0
   44.1920   35.1170   46.7250 H   0  0  0  0  0  0  0  0  0  0  0  0
   43.8490   36.7610   44.8500 H   0  0  0  0  0  0  0  0  0  0  0  0
   49.5610   31.0740   38.6880 C   0  0  0  0  0  0  0  0  0  0  0  0
   48.1790   31.0090   38.9310 C   0  0  0  0  0  0  0  0  0  0  0  0
   47.7850   30.0680   39.8540 C   0  0  0  0  0  0  0  0  0  0  0  0
   46.7260   30.0160   40.0420 H   0  0  0  0  0  0  0  0  0  0  0  0
   48.7080   29.2610   40.4750 C   0  0  0  0  0  0  0  0  0  0  0  0
   48.2810   28.5630   41.1770 H   0  0  0  0  0  0  0  0  0  0  0  0
   50.0580   29.3390   40.2240 C   0  0  0  0  0  3  0  0  0  0  0  0
   50.4820   30.2660   39.3110 C   0  0  0  0  0  3  0  0  0  0  0  0
   51.2710   31.7090   37.0260 N   0  0  0  0  0  0  0  0  0  0  0  0
   50.2240   32.0020   37.7480 C   0  0  0  0  0  0  0  0  0  0  0  0
   50.1280   33.3250   37.2590 N   0  0  0  0  0  0  0  0  0  0  0  0
   51.7340   30.7820   37.0470 H   0  0  0  0  0  0  0  0  0  0  0  0
   50.6330   34.1350   37.7060 H   0  0  0  0  0  0  0  0  0  0  0  0
   49.5690   33.6560   36.4310 H   0  0  0  0  0  0  0  0  0  0  0  0
  1  7  1  1  0  0  0
  1 21  1  0  0  0  0
  2  8  1  0  0  0  0
  2  1  1  0  0  0  0
  3  2  1  0  0  0  0
  3 11  1  0  0  0  0
  4  5  1  0  0  0  0
  4  3  1  0  0  0  0
  5 15  1  0  0  0  0
  5  6  1  0  0  0  0
  6 16  1  6  0  0  0
  6 36  1  0  0  0  0
  6  1  1  0  0  0  0
  9  2  1  0  0  0  0
 10  3  1  0  0  0  0
 12  4  1  0  0  0  0
 13  4  1  0  0  0  0
 14  5  1  0  0  0  0
 17 30  1  0  0  0  0
 18 17  1  0  0  0  0
 18 23  1  0  0  0  0
 19 18  2  0  0  0  0
 20 21  2  0  0  0  0
 20 19  1  0  0  0  0
 21 22  1  0  0  0  0
 22 17  2  0  0  0  0
 24 19  1  0  0  0  0
 25 20  1  0  0  0  0
 26 27  1  0  0  0  0
 26 32  1  0  0  0  0
 27 33  1  0  0  0  0
 28 34  1  0  0  0  0
 28 27  2  0  0  0  0
 29 28  1  0  0  0  0
 30 29  2  0  0  0  0
 30 31  1  0  0  0  0
 31 26  2  0  0  0  0
 35 36  2  0  0  0  0
 35 42  1  0  0  0  0
 36 37  1  0  0  0  0
 37 38  1  0  0  0  0
 37 39  2  0  0  0  0
 39 40  1  0  0  0  0
 41 39  1  0  0  0  0
 42 41  2  0  0  0  0
 43 46  1  0  0  0  0
 43 44  2  0  0  0  0
 44 35  1  0  0  0  0
 45 47  1  0  0  0  0
 45 44  1  0  0  0  0
 48 45  1  0  0  0  0
M  END
>  <minimizedAffinity>
-5.94886923

>  <minimizedRMSD>
1.93265927

$$$$
