
 OpenBabel03242515313D

 45 48  0  0  1  0  0  0  0  0999 V2000
   44.2330   34.1630   40.0180 F   0  0  0  0  0  0  0  0  0  0  0  0
   44.9450   33.0080   40.2760 C   0  0  0  0  0  0  0  0  0  0  0  0
   46.2130   33.1630   40.7680 C   0  0  0  0  0  0  0  0  0  0  0  0
   46.8880   31.9780   41.0270 C   0  0  0  0  0  0  0  0  0  0  0  0
   46.2920   30.7550   40.7900 C   0  0  0  0  0  0  0  0  0  0  0  0
   44.9850   30.6640   40.2820 C   0  0  0  0  0  0  0  0  0  0  0  0
   44.2920   31.8530   40.0180 C   0  0  0  0  0  0  0  0  0  0  0  0
   47.8880   31.9440   41.4150 H   0  0  0  0  0  0  0  0  0  0  0  0
   46.7800   29.8000   40.9760 H   0  0  0  0  0  0  0  0  0  0  0  0
   44.4810   29.7260   40.0830 H   0  0  0  0  0  0  0  0  0  0  0  0
   47.2790   34.6560   42.3940 N   0  0  0  0  0  0  0  0  0  0  0  0
   48.7120   34.6450   42.4060 C   0  0  0  0  0  0  0  0  0  0  0  0
   48.9600   35.4980   41.1850 C   0  0  0  0  0  0  0  0  0  0  0  0
   48.0980   34.7140   40.1820 C   0  0  0  0  0  0  0  0  0  0  0  0
   46.8820   34.4400   40.9980 C   0  0  1  0  0  0  0  0  0  0  0  0
   49.1660   33.6540   42.3140 H   0  0  0  0  0  0  0  0  0  0  0  0
   49.0800   35.2220   43.2900 H   0  0  0  0  0  0  0  0  0  0  0  0
   48.5650   36.5070   41.3350 H   0  0  0  0  0  0  0  0  0  0  0  0
   50.0280   35.4700   40.8860 H   0  0  0  0  0  0  0  0  0  0  0  0
   47.9230   35.2860   39.2530 H   0  0  0  0  0  0  0  0  0  0  0  0
   48.6570   33.7660   40.0150 H   0  0  0  0  0  0  0  0  0  0  0  0
   46.1360   35.2670   40.8240 H   0  0  0  0  0  0  0  0  0  0  0  0
   44.4910   35.9680   44.4830 C   0  0  0  0  0  0  0  0  0  0  0  0
   45.3790   35.8580   43.4220 C   0  0  0  0  0  0  0  0  0  0  0  0
   46.3350   34.8360   43.4330 C   0  0  0  0  0  0  0  0  0  0  0  0
   46.3340   34.0070   44.4900 N   0  0  0  0  0  0  0  0  0  0  0  0
   45.4720   34.1150   45.5160 C   0  0  0  0  0  0  0  0  0  0  0  0
   44.5410   35.1100   45.5080 N   0  0  0  0  0  0  0  0  0  0  0  0
   43.7850   36.7930   44.3850 H   0  0  0  0  0  0  0  0  0  0  0  0
   45.3760   36.5310   42.5700 H   0  0  0  0  0  0  0  0  0  0  0  0
   45.5030   33.4210   46.3570 H   0  0  0  0  0  0  0  0  0  0  0  0
   42.7020   31.6760   38.1240 C   0  0  0  0  0  0  0  0  0  0  0  0
   42.9370   31.7660   39.4920 C   0  0  0  0  0  0  0  0  0  0  0  0
   41.8360   31.7720   40.3450 C   0  0  0  0  0  0  0  0  0  0  0  0
   42.0130   31.8420   41.4060 H   0  0  0  0  0  0  0  0  0  0  0  0
   40.5230   31.6920   39.8990 C   0  0  0  0  0  0  0  0  0  0  0  0
   39.7080   31.7010   40.6130 H   0  0  0  0  0  0  0  0  0  0  0  0
   40.2950   31.6030   38.5430 C   0  0  0  0  0  3  0  0  0  0  0  0
   41.3980   31.5980   37.7010 C   0  0  0  0  0  3  0  0  0  0  0  0
   44.3560   32.7530   36.7370 N   0  0  0  0  0  0  0  0  0  0  0  0
   43.8090   31.6650   37.1750 C   0  0  0  0  0  0  0  0  0  0  0  0
   44.2670   30.3900   36.7440 N   0  0  0  0  0  0  0  0  0  0  0  0
   45.1430   32.6160   36.0580 H   0  0  0  0  0  0  0  0  0  0  0  0
   43.5550   29.8140   36.2300 H   0  0  0  0  0  0  0  0  0  0  0  0
   44.9680   29.6180   36.6320 H   0  0  0  0  0  0  0  0  0  0  0  0
  1  2  1  0  0  0  0
  2  3  1  0  0  0  0
  3 15  1  0  0  0  0
  3  4  2  0  0  0  0
  4  8  1  0  0  0  0
  5  9  1  0  0  0  0
  5  4  1  0  0  0  0
  6  5  2  0  0  0  0
  7  2  2  0  0  0  0
  7  6  1  0  0  0  0
 10  6  1  0  0  0  0
 11 12  1  0  0  0  0
 11 25  1  0  0  0  0
 12 17  1  0  0  0  0
 13 18  1  0  0  0  0
 13 12  1  0  0  0  0
 14 15  1  0  0  0  0
 14 13  1  0  0  0  0
 15 22  1  6  0  0  0
 15 11  1  0  0  0  0
 16 12  1  0  0  0  0
 19 13  1  0  0  0  0
 20 14  1  0  0  0  0
 21 14  1  0  0  0  0
 23 28  1  0  0  0  0
 24 25  1  0  0  0  0
 24 23  2  0  0  0  0
 25 26  2  0  0  0  0
 26 27  1  0  0  0  0
 27 31  1  0  0  0  0
 28 27  2  0  0  0  0
 29 23  1  0  0  0  0
 30 24  1  0  0  0  0
 32 33  1  0  0  0  0
 33  7  1  0  0  0  0
 33 34  2  0  0  0  0
 34 35  1  0  0  0  0
 36 34  1  0  0  0  0
 36 37  1  0  0  0  0
 38 36  2  0  0  0  0
 39 32  2  0  0  0  0
 39 38  1  0  0  0  0
 40 41  2  0  0  0  0
 41 32  1  0  0  0  0
 42 41  1  0  0  0  0
 43 40  1  0  0  0  0
 44 42  1  0  0  0  0
 45 42  1  0  0  0  0
M  END
>  <minimizedAffinity>
-5.69828796

>  <minimizedRMSD>
1.21178854

$$$$
