
 OpenBabel03242511293D

 39 43  0  0  1  0  0  0  0  0999 V2000
   46.9100   33.3510   38.6080 C   0  0  0  0  0  0  0  0  0  0  0  0
   47.6690   33.5870   37.4720 C   0  0  0  0  0  0  0  0  0  0  0  0
   46.8670   32.4790   36.2200 S   0  0  0  0  0  0  0  0  0  0  0  0
   45.6190   31.8930   37.5190 C   0  0  0  0  0  0  0  0  0  0  0  0
   45.9640   32.4890   38.3980 N   0  0  0  0  0  0  0  0  0  0  0  0
   48.5190   34.2420   37.3190 H   0  0  0  0  0  0  0  0  0  0  0  0
   45.0430   33.2610   41.1160 Cl  0  0  0  0  0  0  0  0  0  0  0  0
   46.5330   34.1130   41.0060 C   0  0  0  0  0  0  0  0  0  0  0  0
   46.9920   34.8340   42.0820 C   0  0  0  0  0  0  0  0  0  0  0  0
   48.2000   35.5430   42.0380 C   0  0  0  0  0  0  0  0  0  0  0  0
   48.8930   35.4730   40.8590 C   0  0  0  0  0  0  0  0  0  0  0  0
   48.4390   34.7610   39.7930 C   0  0  0  0  0  0  0  0  0  0  0  0
   47.2400   34.0600   39.8440 C   0  0  0  0  0  0  0  0  0  0  0  0
   48.5600   36.1100   42.8860 H   0  0  0  0  0  0  0  0  0  0  0  0
   49.8290   36.0240   40.8290 H   0  0  0  0  0  0  0  0  0  0  0  0
   49.0790   34.7810   38.9100 H   0  0  0  0  0  0  0  0  0  0  0  0
   45.6610   33.9480   45.4130 C   0  0  0  0  0  0  0  0  0  0  0  0
   44.7180   34.9400   45.6300 C   0  0  0  0  0  0  0  0  0  0  0  0
   44.5360   35.9020   44.6470 C   0  0  0  0  0  0  0  0  0  0  0  0
   45.2810   35.8450   43.5170 N   0  0  0  0  0  0  0  0  0  0  0  0
   46.2050   34.8700   43.3120 C   0  0  0  0  0  0  0  0  0  0  0  0
   46.3760   33.9370   44.2710 N   0  0  0  0  0  0  0  0  0  0  0  0
   45.8390   33.1760   46.1500 H   0  0  0  0  0  0  0  0  0  0  0  0
   44.1280   34.9920   46.5160 H   0  0  0  0  0  0  0  0  0  0  0  0
   43.8160   36.7250   44.7220 H   0  0  0  0  0  0  0  0  0  0  0  0
   43.3050   31.2230   37.0950 C   0  0  0  0  0  0  0  0  0  0  0  0
   44.6450   30.9210   37.0420 C   0  0  0  0  0  0  0  0  0  0  0  0
   44.9420   29.6880   36.5000 C   0  0  0  0  0  0  0  0  0  0  0  0
   45.9720   29.3950   36.4300 H   0  0  0  0  0  0  0  0  0  0  0  0
   43.9270   28.8770   36.0680 C   0  0  0  0  0  0  0  0  0  0  0  0
   44.2420   27.9250   35.6570 H   0  0  0  0  0  0  0  0  0  0  0  0
   42.5870   29.1980   36.1290 C   0  0  0  0  0  3  0  0  0  0  0  0
   42.2780   30.4250   36.6680 C   0  0  0  0  0  3  0  0  0  0  0  0
   42.9770   33.6430   38.2040 N   0  0  0  0  0  0  0  0  0  0  0  0
   42.9030   32.4840   37.6840 C   0  0  1  0  0  3  0  0  0  0  0  0
   41.5100   32.7270   37.8330 N   0  0  0  0  0  4  0  0  0  0  0  0
   43.8590   34.1470   38.4060 H   0  0  0  0  0  0  0  0  0  0  0  0
   40.7810   32.2960   37.2170 H   0  0  0  0  0  0  0  0  0  0  0  0
   40.4980   32.9270   37.9720 H   0  0  0  0  0  0  0  0  0  0  0  0
  1 13  1  0  0  0  0
  2  1  2  0  0  0  0
  3  2  1  0  0  0  0
  3  4  1  0  0  0  0
  4  5  2  0  0  0  0
  5  1  1  0  0  0  0
  6  2  1  0  0  0  0
  8  7  1  0  0  0  0
  8  9  1  0  0  0  0
  9 21  1  0  0  0  0
 10  9  2  0  0  0  0
 10 14  1  0  0  0  0
 11 10  1  0  0  0  0
 12 13  1  0  0  0  0
 12 11  2  0  0  0  0
 13  8  2  0  0  0  0
 15 11  1  0  0  0  0
 16 12  1  0  0  0  0
 17 18  1  0  0  0  0
 17 23  1  0  0  0  0
 18 24  1  0  0  0  0
 19 25  1  0  0  0  0
 19 18  2  0  0  0  0
 20 19  1  0  0  0  0
 21 20  2  0  0  0  0
 21 22  1  0  0  0  0
 22 17  2  0  0  0  0
 27 26  1  0  0  0  0
 27  4  1  0  0  0  0
 28 27  2  0  0  0  0
 29 28  1  0  0  0  0
 30 32  2  0  0  0  0
 30 28  1  0  0  0  0
 31 30  1  0  0  0  0
 32 33  1  0  0  0  0
 33 26  2  0  0  0  0
 34 37  1  0  0  0  0
 35 26  1  6  0  0  0
 35 36  1  0  0  0  0
 35 34  1  0  0  0  0
 36 39  1  0  0  0  0
 36 34  1  0  0  0  0
 38 36  1  0  0  0  0
M  END
>  <minimizedAffinity>
-6.19997931

>  <minimizedRMSD>
1.62187707

$$$$
