
 OpenBabel03252501513D

 50 53  0  0  1  0  0  0  0  0999 V2000
   48.6770   34.6890   41.8160 N   0  0  0  0  0  0  0  0  0  0  0  0
   49.8040   34.6820   42.7180 C   0  0  0  0  0  0  0  0  0  0  0  0
   50.7440   33.6120   42.2630 C   0  0  0  0  0  0  0  0  0  0  0  0
   49.8530   32.6690   41.5200 C   0  0  0  0  0  0  0  0  0  0  0  0
   48.5790   33.4160   41.1960 C   0  0  2  0  0  0  0  0  0  0  0  0
   49.4260   34.4740   43.7550 H   0  0  0  0  0  0  0  0  0  0  0  0
   50.3130   35.6780   42.7070 H   0  0  0  0  0  0  0  0  0  0  0  0
   51.5890   34.0080   41.6800 H   0  0  0  0  0  0  0  0  0  0  0  0
   51.1330   33.0830   43.1640 H   0  0  0  0  0  0  0  0  0  0  0  0
   50.3710   32.4330   40.5450 H   0  0  0  0  0  0  0  0  0  0  0  0
   49.6940   31.6930   41.9990 H   0  0  0  0  0  0  0  0  0  0  0  0
   47.7800   32.8530   41.7650 H   0  0  0  0  0  0  0  0  0  0  0  0
   47.5680   32.4010   39.0960 C   0  0  0  0  0  0  0  0  0  0  0  0
   48.2340   33.3740   39.7820 C   0  0  0  0  0  0  0  0  0  0  0  0
   48.6060   34.4620   38.9800 C   0  0  0  0  0  0  0  0  0  0  0  0
   49.1490   35.2930   39.4530 H   0  0  0  0  0  0  0  0  0  0  0  0
   48.3050   34.5020   37.6360 C   0  0  0  0  0  0  0  0  0  0  0  0
   48.6370   35.3850   37.1110 H   0  0  0  0  0  0  0  0  0  0  0  0
   47.6270   33.4870   36.9980 C   0  0  0  0  0  3  0  0  0  0  0  0
   47.2500   32.4070   37.7570 C   0  0  0  0  0  3  0  0  0  0  0  0
   47.3490   30.0770   40.3410 N   0  0  0  0  0  0  0  0  0  0  0  0
   47.1330   31.2170   39.7970 C   0  0  0  0  0  0  0  0  0  0  0  0
   45.7530   31.0360   40.1740 N   0  0  0  0  0  0  0  0  0  0  0  0
   46.4950   29.6200   40.7530 H   0  0  0  0  0  0  0  0  0  0  0  0
   45.0550   30.8360   39.3990 H   0  0  0  0  0  0  0  0  0  0  0  0
   44.9960   30.9960   40.9130 H   0  0  0  0  0  0  0  0  0  0  0  0
   47.4820   35.0140   42.5640 C   0  0  0  0  0  0  0  0  0  0  0  0
   47.4800   34.3710   43.4690 H   0  0  0  0  0  0  0  0  0  0  0  0
   47.4440   36.0560   42.8990 H   0  0  0  0  0  0  0  0  0  0  0  0
   45.0930   35.3150   42.0330 C   0  0  0  0  0  3  0  0  0  0  0  0
   46.2340   34.6380   41.8040 C   0  0  0  0  0  3  0  0  0  0  0  0
   43.8000   34.0420   40.2580 C   0  0  0  0  0  0  0  0  0  0  0  0
   43.8500   34.9900   41.3190 C   0  0  0  0  0  0  0  0  0  0  0  0
   42.6640   35.6290   41.6940 C   0  0  0  0  0  0  0  0  0  0  0  0
   41.5190   35.3180   41.0290 N   0  0  0  0  0  0  0  0  0  0  0  0
   41.5130   34.4160   40.0310 C   0  0  0  0  0  0  0  0  0  0  0  0
   42.6470   33.7960   39.6620 N   0  0  0  0  0  0  0  0  0  0  0  0
   44.7460   33.5600   39.9890 H   0  0  0  0  0  0  0  0  0  0  0  0
   42.6540   36.3550   42.4950 H   0  0  0  0  0  0  0  0  0  0  0  0
   39.4420   33.0950   41.3260 F   0  0  0  0  0  0  0  0  0  0  0  0
   39.2400   33.4460   40.0280 C   0  0  0  0  0  0  0  0  0  0  0  0
   40.2630   34.1140   39.3460 C   0  0  0  0  0  0  0  0  0  0  0  0
   40.1360   34.5030   38.0330 C   0  0  0  0  0  0  0  0  0  0  0  0
   38.9320   34.2030   37.3980 C   0  0  0  0  0  0  0  0  0  0  0  0
   37.8890   33.5350   38.0570 C   0  0  0  0  0  0  0  0  0  0  0  0
   38.0520   33.1590   39.3770 C   0  0  0  0  0  0  0  0  0  0  0  0
   40.9300   35.0100   37.5370 H   0  0  0  0  0  0  0  0  0  0  0  0
   38.8680   34.5280   36.3580 H   0  0  0  0  0  0  0  0  0  0  0  0
   36.9980   33.3460   37.4920 H   0  0  0  0  0  0  0  0  0  0  0  0
   37.2490   32.6410   39.8970 H   0  0  0  0  0  0  0  0  0  0  0  0
  1 27  1  0  0  0  0
  1  2  1  0  0  0  0
  2  6  1  0  0  0  0
  3  2  1  0  0  0  0
  3  9  1  0  0  0  0
  4 11  1  0  0  0  0
  4  3  1  0  0  0  0
  5  4  1  0  0  0  0
  5 12  1  1  0  0  0
  5  1  1  0  0  0  0
  7  2  1  0  0  0  0
  8  3  1  0  0  0  0
 10  4  1  0  0  0  0
 13 14  1  0  0  0  0
 13 22  1  0  0  0  0
 14  5  1  0  0  0  0
 15 16  1  0  0  0  0
 15 14  2  0  0  0  0
 17 15  1  0  0  0  0
 18 17  1  0  0  0  0
 19 17  2  0  0  0  0
 19 20  1  0  0  0  0
 20 13  2  0  0  0  0
 21 24  1  0  0  0  0
 22 23  1  0  0  0  0
 22 21  2  0  0  0  0
 23 26  1  0  0  0  0
 25 23  1  0  0  0  0
 27 29  1  0  0  0  0
 27 28  1  0  0  0  0
 31 30  2  0  0  0  0
 31 27  1  0  0  0  0
 32 33  1  0  0  0  0
 33 34  2  0  0  0  0
 33 30  1  0  0  0  0
 34 39  1  0  0  0  0
 35 34  1  0  0  0  0
 36 35  2  0  0  0  0
 37 36  1  0  0  0  0
 37 32  2  0  0  0  0
 38 32  1  0  0  0  0
 41 40  1  0  0  0  0
 42 41  2  0  0  0  0
 42 36  1  0  0  0  0
 43 42  1  0  0  0  0
 44 43  2  0  0  0  0
 44 45  1  0  0  0  0
 45 46  2  0  0  0  0
 46 50  1  0  0  0  0
 46 41  1  0  0  0  0
 47 43  1  0  0  0  0
 48 44  1  0  0  0  0
 49 45  1  0  0  0  0
M  END
>  <minimizedAffinity>
-6.46972466

>  <minimizedRMSD>
1.38828564

$$$$
