
 OpenBabel03252504053D

 24 25  0  0  0  0  0  0  0  0999 V2000
   46.8100   32.7750   42.0690 C   0  0  0  0  0  0  0  0  0  0  0  0
   45.6460   33.0140   42.7250 C   0  0  0  0  0  0  0  0  0  0  0  0
   45.5270   32.6260   44.0660 C   0  0  0  0  0  0  0  0  0  0  0  0
   44.6940   32.7290   44.7400 H   0  0  0  0  0  0  0  0  0  0  0  0
   46.6290   32.0130   44.6450 C   0  0  0  0  0  0  0  0  0  0  0  0
   46.6800   31.6620   45.6800 H   0  0  0  0  0  0  0  0  0  0  0  0
   47.8100   31.7890   43.9340 C   0  0  0  0  0  3  0  0  0  0  0  0
   47.9180   32.1710   42.6170 C   0  0  0  0  0  3  0  0  0  0  0  0
   43.0770   35.5760   41.6980 C   0  0  0  0  0  0  0  0  0  0  0  0
   44.2790   35.0930   42.2210 C   0  0  0  0  0  0  0  0  0  0  0  0
   44.4620   33.6890   42.2130 C   0  0  0  0  0  0  0  0  0  0  0  0
   43.4640   32.8980   41.7030 N   0  0  0  0  0  0  0  0  0  0  0  0
   42.3240   33.4200   41.2100 C   0  0  0  0  0  0  0  0  0  0  0  0
   42.1430   34.7460   41.2130 N   0  0  0  0  0  0  0  0  0  0  0  0
   42.9440   36.6420   41.7050 H   0  0  0  0  0  0  0  0  0  0  0  0
   41.5540   32.7780   40.8110 H   0  0  0  0  0  0  0  0  0  0  0  0
   45.2950   35.8780   42.7440 O   0  0  0  0  0  0  0  0  0  0  0  0
   45.3500   36.0180   43.7320 H   0  0  0  0  0  0  0  0  0  0  0  0
   46.7120   32.1980   39.7850 N   0  0  0  0  0  0  0  0  0  0  0  0
   46.8840   33.1570   40.6740 C   0  0  0  0  0  0  0  0  0  0  0  0
   47.0810   34.2100   39.7570 N   0  0  0  0  0  0  0  0  0  0  0  0
   46.5290   31.2130   40.0220 H   0  0  0  0  0  0  0  0  0  0  0  0
   47.9800   34.3640   39.2020 H   0  0  0  0  0  0  0  0  0  0  0  0
   46.2520   34.8460   39.6530 H   0  0  0  0  0  0  0  0  0  0  0  0
  1  8  2  0  0  0  0
  1  2  1  0  0  0  0
  2  3  2  0  0  0  0
  3  5  1  0  0  0  0
  3  4  1  0  0  0  0
  5  6  1  0  0  0  0
  7  5  2  0  0  0  0
  8  7  1  0  0  0  0
  9 15  1  0  0  0  0
  9 10  1  0  0  0  0
 10 17  1  0  0  0  0
 11 10  2  0  0  0  0
 11  2  1  0  0  0  0
 12 11  1  0  0  0  0
 13 14  1  0  0  0  0
 13 12  2  0  0  0  0
 14  9  2  0  0  0  0
 16 13  1  0  0  0  0
 17 18  1  0  0  0  0
 19 22  1  0  0  0  0
 19 20  2  0  0  0  0
 20  1  1  0  0  0  0
 21 20  1  0  0  0  0
 23 21  1  0  0  0  0
 24 21  1  0  0  0  0
M  END
>  <minimizedAffinity>
-3.38448

>  <minimizedRMSD>
3.80943561

$$$$
