
 OpenBabel03252502093D

 53 57  0  0  0  0  0  0  0  0999 V2000
   45.6830   33.7780   45.2730 C   0  0  0  0  0  0  0  0  0  0  0  0
   44.9060   34.7980   45.6550 N   0  0  0  0  0  0  0  0  0  0  0  0
   44.5980   35.8490   44.9070 C   0  0  0  0  0  0  0  0  0  0  0  0
   45.0820   35.9440   43.6500 N   0  0  0  0  0  0  0  0  0  0  0  0
   45.8780   34.9910   43.1350 C   0  0  0  0  0  0  0  0  0  0  0  0
   46.3900   35.0710   41.8560 C   0  0  0  0  0  0  0  0  0  0  0  0
   47.2010   34.1120   41.3400 C   0  0  0  0  0  0  0  0  0  0  0  0
   47.4990   33.0420   42.1430 C   0  0  0  0  0  0  0  0  0  0  0  0
   46.9640   32.9900   43.4330 C   0  0  0  0  0  0  0  0  0  0  0  0
   46.1560   33.9250   43.9740 C   0  0  0  0  0  0  0  0  0  0  0  0
   43.9560   36.6400   45.2940 H   0  0  0  0  0  0  0  0  0  0  0  0
   46.1320   35.9320   41.2500 H   0  0  0  0  0  0  0  0  0  0  0  0
   47.5660   34.2400   40.3300 H   0  0  0  0  0  0  0  0  0  0  0  0
   47.5130   31.9930   47.8300 C   0  0  0  0  0  0  0  0  0  0  0  0
   46.9700   30.7040   47.8790 C   0  0  0  0  0  0  0  0  0  0  0  0
   45.9350   30.4420   47.0230 C   0  0  0  0  0  0  0  0  0  0  0  0
   45.4950   31.3920   46.1940 N   0  0  0  0  0  0  0  0  0  0  0  0
   46.0030   32.6160   46.1350 C   0  0  0  0  0  0  0  0  0  0  0  0
   47.0160   32.8930   46.9710 N   0  0  0  0  0  0  0  0  0  0  0  0
   45.3340   29.2040   47.0350 N   0  0  0  0  0  0  0  0  0  0  0  0
   44.1010   28.8590   46.2770 C   0  0  0  0  0  0  0  0  0  0  0  0
   43.9870   27.3600   46.3410 C   0  0  0  0  0  0  0  0  0  0  0  0
   44.6600   27.0340   47.6350 C   0  0  0  0  0  0  0  0  0  0  0  0
   45.7510   28.0410   47.7620 C   0  0  0  0  0  0  0  0  0  0  0  0
   48.3400   32.2490   48.4980 H   0  0  0  0  0  0  0  0  0  0  0  0
   44.2200   29.1680   45.2160 H   0  0  0  0  0  0  0  0  0  0  0  0
   43.2250   29.3630   46.7680 H   0  0  0  0  0  0  0  0  0  0  0  0
   42.9370   27.0380   46.2920 H   0  0  0  0  0  0  0  0  0  0  0  0
   44.6050   26.9330   45.5140 H   0  0  0  0  0  0  0  0  0  0  0  0
   43.8900   27.1400   48.4270 H   0  0  0  0  0  0  0  0  0  0  0  0
   45.0350   25.9810   47.6480 H   0  0  0  0  0  0  0  0  0  0  0  0
   45.7980   28.2290   48.8770 H   0  0  0  0  0  0  0  0  0  0  0  0
   46.6780   27.5820   47.3700 H   0  0  0  0  0  0  0  0  0  0  0  0
   47.5460   29.7990   48.7220 N   0  0  0  0  0  0  0  0  0  0  0  0
   48.2040   29.0070   48.5510 H   0  0  0  0  0  0  0  0  0  0  0  0
   47.3200   29.8610   49.7580 H   0  0  0  0  0  0  0  0  0  0  0  0
   49.7690   32.0350   41.6130 C   0  0  0  0  0  0  0  0  0  0  0  0
   48.3760   32.0240   41.5640 C   0  0  0  0  0  0  0  0  0  0  0  0
   47.6860   30.9960   40.9340 C   0  0  0  0  0  0  0  0  0  0  0  0
   46.6050   30.9450   40.8710 H   0  0  0  0  0  0  0  0  0  0  0  0
   48.3920   29.9550   40.3360 C   0  0  0  0  0  0  0  0  0  0  0  0
   47.8290   29.1470   39.8390 H   0  0  0  0  0  0  0  0  0  0  0  0
   49.7730   29.9630   40.3820 C   0  0  0  0  0  3  0  0  0  0  0  0
   50.4420   30.9900   41.0120 C   0  0  0  0  0  3  0  0  0  0  0  0
   49.7310   33.7920   43.2010 N   0  0  0  0  0  0  0  0  0  0  0  0
   50.3900   33.1620   42.3010 C   0  0  0  0  0  0  0  0  0  0  0  0
   51.7250   33.3950   41.8260 N   0  0  0  0  0  0  0  0  0  0  0  0
   50.1420   34.6030   43.7140 H   0  0  0  0  0  0  0  0  0  0  0  0
   52.1320   34.2310   41.3570 H   0  0  0  0  0  0  0  0  0  0  0  0
   52.4880   32.6720   41.9170 H   0  0  0  0  0  0  0  0  0  0  0  0
   47.3780   31.7920   44.0980 N   0  0  0  0  0  0  0  0  0  0  0  0
   48.1610   31.5380   44.7350 H   0  0  0  0  0  0  0  0  0  0  0  0
   46.6620   31.0860   43.7960 H   0  0  0  0  0  0  0  0  0  0  0  0
  1  2  1  0  0  0  0
  1 18  1  0  0  0  0
  3 11  1  0  0  0  0
  3  2  2  0  0  0  0
  4  3  1  0  0  0  0
  5  4  2  0  0  0  0
  5 10  1  0  0  0  0
  6  5  1  0  0  0  0
  7  6  2  0  0  0  0
  7  8  1  0  0  0  0
  8  9  2  0  0  0  0
  9 10  1  0  0  0  0
  9 51  1  0  0  0  0
 10  1  2  0  0  0  0
 12  6  1  0  0  0  0
 13  7  1  0  0  0  0
 14 15  1  0  0  0  0
 14 25  1  0  0  0  0
 15 34  1  0  0  0  0
 16 20  1  0  0  0  0
 16 15  2  0  0  0  0
 17 16  1  0  0  0  0
 18 17  2  0  0  0  0
 18 19  1  0  0  0  0
 19 14  2  0  0  0  0
 20 24  1  0  0  0  0
 21 22  1  0  0  0  0
 21 27  1  0  0  0  0
 21 20  1  0  0  0  0
 22 23  1  0  0  0  0
 23 31  1  0  0  0  0
 23 24  1  0  0  0  0
 23 30  1  0  0  0  0
 24 32  1  0  0  0  0
 26 21  1  0  0  0  0
 28 22  1  0  0  0  0
 29 22  1  0  0  0  0
 33 24  1  0  0  0  0
 34 36  1  0  0  0  0
 35 34  1  0  0  0  0
 37 46  1  0  0  0  0
 38 37  1  0  0  0  0
 38  8  1  0  0  0  0
 39 38  2  0  0  0  0
 40 39  1  0  0  0  0
 41 43  2  0  0  0  0
 41 39  1  0  0  0  0
 42 41  1  0  0  0  0
 43 44  1  0  0  0  0
 44 37  2  0  0  0  0
 45 48  1  0  0  0  0
 46 45  2  0  0  0  0
 47 50  1  0  0  0  0
 47 46  1  0  0  0  0
 49 47  1  0  0  0  0
 51 52  1  0  0  0  0
 53 51  1  0  0  0  0
M  END
>  <minimizedAffinity>
-7.26668072

>  <minimizedRMSD>
0.467143923

$$$$
