
 OpenBabel03252506313D

 37 39  0  0  1  0  0  0  0  0999 V2000
   44.6040   35.8110   44.8760 C   0  0  0  0  0  0  0  0  0  0  0  0
   44.7670   35.5640   43.4920 C   0  0  0  0  0  0  0  0  0  0  0  0
   45.2460   34.3210   43.0750 C   0  0  0  0  0  0  0  0  0  0  0  0
   45.5280   33.4190   44.0480 N   0  0  0  0  0  0  0  0  0  0  0  0
   45.3610   33.6870   45.3590 C   0  0  0  0  0  0  0  0  0  0  0  0
   44.9050   34.8650   45.7860 N   0  0  0  0  0  0  0  0  0  0  0  0
   45.7110   32.6450   46.2620 N   0  0  0  0  0  0  0  0  0  0  0  0
   45.3130   32.6470   47.6820 C   0  0  0  0  0  0  0  0  0  0  0  0
   46.4780   31.9690   48.3210 C   0  0  0  0  0  0  0  0  0  0  0  0
   47.4280   31.5250   47.2010 C   0  0  0  0  0  0  0  0  0  0  0  0
   46.4510   31.4470   46.0890 C   0  0  2  0  0  0  0  0  0  0  0  0
   44.2350   36.7570   45.2470 H   0  0  0  0  0  0  0  0  0  0  0  0
   45.3560   34.1720   42.0170 H   0  0  0  0  0  0  0  0  0  0  0  0
   45.2840   33.7040   48.0190 H   0  0  0  0  0  0  0  0  0  0  0  0
   44.3480   32.1240   47.8200 H   0  0  0  0  0  0  0  0  0  0  0  0
   46.9910   32.5620   49.1000 H   0  0  0  0  0  0  0  0  0  0  0  0
   46.1420   31.0400   48.8690 H   0  0  0  0  0  0  0  0  0  0  0  0
   48.1510   32.3550   47.1850 H   0  0  0  0  0  0  0  0  0  0  0  0
   47.8910   30.5530   47.4690 H   0  0  0  0  0  0  0  0  0  0  0  0
   45.7090   30.6390   46.4680 H   0  0  0  0  0  0  0  0  0  0  0  0
   46.1420   30.2980   43.8740 C   0  0  0  0  0  0  0  0  0  0  0  0
   46.8820   30.9860   44.8130 C   0  0  0  0  0  0  0  0  0  0  0  0
   48.1950   31.1810   44.3500 C   0  0  0  0  0  0  0  0  0  0  0  0
   48.9010   31.7210   45.0020 H   0  0  0  0  0  0  0  0  0  0  0  0
   48.6770   30.7520   43.1450 C   0  0  0  0  0  0  0  0  0  0  0  0
   49.7040   30.9530   42.8850 H   0  0  0  0  0  0  0  0  0  0  0  0
   47.8730   30.0700   42.2640 C   0  0  0  0  0  3  0  0  0  0  0  0
   46.5900   29.8440   42.6420 C   0  0  0  0  0  3  0  0  0  0  0  0
   43.8490   29.2690   44.6750 N   0  0  0  0  0  0  0  0  0  0  0  0
   44.7520   29.9750   44.0990 C   0  0  0  0  0  0  0  0  0  0  0  0
   43.6950   30.6790   43.4540 N   0  0  0  0  0  0  0  0  0  0  0  0
   42.8550   29.5180   44.4240 H   0  0  0  0  0  0  0  0  0  0  0  0
   42.8690   31.3030   43.4060 H   0  0  0  0  0  0  0  0  0  0  0  0
   43.6540   30.5470   42.4170 H   0  0  0  0  0  0  0  0  0  0  0  0
   44.4160   36.6420   42.6150 N   0  0  0  0  0  0  0  0  0  0  0  0
   45.1350   37.2090   42.1150 H   0  0  0  0  0  0  0  0  0  0  0  0
   43.3840   36.7960   42.5330 H   0  0  0  0  0  0  0  0  0  0  0  0
  1 12  1  0  0  0  0
  1  6  1  0  0  0  0
  2  1  2  0  0  0  0
  3  2  1  0  0  0  0
  3  4  2  0  0  0  0
  4  5  1  0  0  0  0
  5  6  2  0  0  0  0
  5  7  1  0  0  0  0
  7  8  1  0  0  0  0
  8 15  1  0  0  0  0
  8 14  1  0  0  0  0
  8  9  1  0  0  0  0
  9 17  1  0  0  0  0
  9 16  1  0  0  0  0
 10 19  1  0  0  0  0
 10  9  1  0  0  0  0
 11  7  1  0  0  0  0
 11 20  1  1  0  0  0
 11 10  1  0  0  0  0
 13  3  1  0  0  0  0
 18 10  1  0  0  0  0
 21 30  1  0  0  0  0
 21 22  1  0  0  0  0
 22 11  1  0  0  0  0
 23 22  2  0  0  0  0
 23 24  1  0  0  0  0
 25 23  1  0  0  0  0
 26 25  1  0  0  0  0
 27 28  1  0  0  0  0
 27 25  2  0  0  0  0
 28 21  2  0  0  0  0
 30 29  2  0  0  0  0
 31 30  1  0  0  0  0
 32 29  1  0  0  0  0
 33 31  1  0  0  0  0
 34 31  1  0  0  0  0
 35  2  1  0  0  0  0
 36 35  1  0  0  0  0
 37 35  1  0  0  0  0
M  END
>  <minimizedAffinity>
-4.83139372

>  <minimizedRMSD>
3.01037741

$$$$
