
 OpenBabel03252502093D

 53 57  0  0  0  0  0  0  0  0999 V2000
   45.4860   33.6370   45.4540 C   0  0  0  0  0  0  0  0  0  0  0  0
   44.8770   34.6730   46.0420 N   0  0  0  0  0  0  0  0  0  0  0  0
   44.4370   35.7570   45.4180 C   0  0  0  0  0  0  0  0  0  0  0  0
   44.5940   35.8750   44.0830 N   0  0  0  0  0  0  0  0  0  0  0  0
   45.1920   34.9100   43.3630 C   0  0  0  0  0  0  0  0  0  0  0  0
   45.3690   35.0110   41.9990 C   0  0  0  0  0  0  0  0  0  0  0  0
   45.9810   34.0390   41.2740 C   0  0  0  0  0  0  0  0  0  0  0  0
   46.4230   32.9340   41.9520 C   0  0  0  0  0  0  0  0  0  0  0  0
   46.2270   32.8600   43.3340 C   0  0  0  0  0  0  0  0  0  0  0  0
   45.6240   33.8080   44.0810 C   0  0  0  0  0  0  0  0  0  0  0  0
   43.9500   36.5590   45.9720 H   0  0  0  0  0  0  0  0  0  0  0  0
   45.0050   35.9000   41.4950 H   0  0  0  0  0  0  0  0  0  0  0  0
   46.0850   34.1860   40.2070 H   0  0  0  0  0  0  0  0  0  0  0  0
   47.7360   31.7570   47.5710 C   0  0  0  0  0  0  0  0  0  0  0  0
   47.2280   30.4540   47.6290 C   0  0  0  0  0  0  0  0  0  0  0  0
   46.0720   30.2150   46.9380 C   0  0  0  0  0  0  0  0  0  0  0  0
   45.4880   31.1980   46.2490 N   0  0  0  0  0  0  0  0  0  0  0  0
   45.9610   32.4370   46.1820 C   0  0  0  0  0  0  0  0  0  0  0  0
   47.0920   32.6910   46.8580 N   0  0  0  0  0  0  0  0  0  0  0  0
   45.4990   28.9640   46.9740 N   0  0  0  0  0  0  0  0  0  0  0  0
   44.1650   28.6310   46.4060 C   0  0  0  0  0  0  0  0  0  0  0  0
   44.0850   27.1280   46.3980 C   0  0  0  0  0  0  0  0  0  0  0  0
   44.9660   26.7470   47.5440 C   0  0  0  0  0  0  0  0  0  0  0  0
   46.0470   27.7720   47.5530 C   0  0  0  0  0  0  0  0  0  0  0  0
   48.6570   31.9950   48.1090 H   0  0  0  0  0  0  0  0  0  0  0  0
   44.1040   29.0030   45.3600 H   0  0  0  0  0  0  0  0  0  0  0  0
   43.3730   29.0840   47.0620 H   0  0  0  0  0  0  0  0  0  0  0  0
   43.0470   26.7840   46.5000 H   0  0  0  0  0  0  0  0  0  0  0  0
   44.5670   26.7640   45.4580 H   0  0  0  0  0  0  0  0  0  0  0  0
   44.3340   26.7890   48.4560 H   0  0  0  0  0  0  0  0  0  0  0  0
   45.3540   25.7050   47.4340 H   0  0  0  0  0  0  0  0  0  0  0  0
   46.2720   27.8980   48.6550 H   0  0  0  0  0  0  0  0  0  0  0  0
   46.9050   27.3590   46.9890 H   0  0  0  0  0  0  0  0  0  0  0  0
   47.9470   29.5180   48.3120 N   0  0  0  0  0  0  0  0  0  0  0  0
   48.5810   28.7530   47.9900 H   0  0  0  0  0  0  0  0  0  0  0  0
   47.8920   29.5150   49.3740 H   0  0  0  0  0  0  0  0  0  0  0  0
   48.4560   31.7840   40.9540 C   0  0  0  0  0  0  0  0  0  0  0  0
   47.0790   31.9020   41.1490 C   0  0  0  0  0  0  0  0  0  0  0  0
   46.1910   31.0070   40.5670 C   0  0  0  0  0  0  0  0  0  0  0  0
   45.1150   31.0600   40.6900 H   0  0  0  0  0  0  0  0  0  0  0  0
   46.6740   29.9700   39.7730 C   0  0  0  0  0  0  0  0  0  0  0  0
   45.9560   29.2680   39.3190 H   0  0  0  0  0  0  0  0  0  0  0  0
   48.0370   29.8490   39.5790 C   0  0  0  0  0  3  0  0  0  0  0  0
   48.9060   30.7460   40.1630 C   0  0  0  0  0  3  0  0  0  0  0  0
   49.8230   32.5050   42.7500 N   0  0  0  0  0  0  0  0  0  0  0  0
   49.2960   32.7770   41.6130 C   0  0  0  0  0  0  0  0  0  0  0  0
   49.4030   33.9750   40.8300 N   0  0  0  0  0  0  0  0  0  0  0  0
   50.4290   33.1910   43.2510 H   0  0  0  0  0  0  0  0  0  0  0  0
   49.1110   34.9510   41.0550 H   0  0  0  0  0  0  0  0  0  0  0  0
   49.8250   33.9800   39.8640 H   0  0  0  0  0  0  0  0  0  0  0  0
   46.7410   31.6270   43.8470 N   0  0  0  0  0  0  0  0  0  0  0  0
   47.6470   31.3230   44.2600 H   0  0  0  0  0  0  0  0  0  0  0  0
   45.9410   30.9580   43.7210 H   0  0  0  0  0  0  0  0  0  0  0  0
  1  2  1  0  0  0  0
  1 18  1  0  0  0  0
  3 11  1  0  0  0  0
  3  2  2  0  0  0  0
  4  3  1  0  0  0  0
  5 10  1  0  0  0  0
  5  4  2  0  0  0  0
  6  5  1  0  0  0  0
  7  8  1  0  0  0  0
  7  6  2  0  0  0  0
  8  9  2  0  0  0  0
  9 51  1  0  0  0  0
  9 10  1  0  0  0  0
 10  1  2  0  0  0  0
 12  6  1  0  0  0  0
 13  7  1  0  0  0  0
 14 15  1  0  0  0  0
 14 25  1  0  0  0  0
 15 34  1  0  0  0  0
 16 20  1  0  0  0  0
 16 15  2  0  0  0  0
 17 16  1  0  0  0  0
 18 17  2  0  0  0  0
 18 19  1  0  0  0  0
 19 14  2  0  0  0  0
 20 24  1  0  0  0  0
 21 20  1  0  0  0  0
 21 27  1  0  0  0  0
 22 21  1  0  0  0  0
 22 28  1  0  0  0  0
 22 23  1  0  0  0  0
 23 24  1  0  0  0  0
 23 30  1  0  0  0  0
 24 32  1  0  0  0  0
 26 21  1  0  0  0  0
 29 22  1  0  0  0  0
 31 23  1  0  0  0  0
 33 24  1  0  0  0  0
 34 36  1  0  0  0  0
 35 34  1  0  0  0  0
 37 38  1  0  0  0  0
 37 46  1  0  0  0  0
 38  8  1  0  0  0  0
 39 40  1  0  0  0  0
 39 38  2  0  0  0  0
 41 39  1  0  0  0  0
 42 41  1  0  0  0  0
 43 41  2  0  0  0  0
 43 44  1  0  0  0  0
 44 37  2  0  0  0  0
 45 48  1  0  0  0  0
 46 45  2  0  0  0  0
 47 49  1  0  0  0  0
 47 46  1  0  0  0  0
 50 47  1  0  0  0  0
 51 52  1  0  0  0  0
 53 51  1  0  0  0  0
M  END
>  <minimizedAffinity>
-6.15083456

>  <minimizedRMSD>
1.65268421

$$$$
