
 OpenBabel03252501513D

 50 53  0  0  1  0  0  0  0  0999 V2000
   49.1210   33.2630   41.4060 N   0  0  0  0  0  0  0  0  0  0  0  0
   48.9700   32.8460   42.7800 C   0  0  0  0  0  0  0  0  0  0  0  0
   48.8320   31.3580   42.7920 C   0  0  0  0  0  0  0  0  0  0  0  0
   48.3010   31.0540   41.4280 C   0  0  0  0  0  0  0  0  0  0  0  0
   48.5670   32.2650   40.5620 C   0  0  2  0  0  0  0  0  0  0  0  0
   48.0540   33.3410   43.2010 H   0  0  0  0  0  0  0  0  0  0  0  0
   49.8620   33.1600   43.3770 H   0  0  0  0  0  0  0  0  0  0  0  0
   49.7710   30.8460   43.0490 H   0  0  0  0  0  0  0  0  0  0  0  0
   48.0480   31.0860   43.5370 H   0  0  0  0  0  0  0  0  0  0  0  0
   48.9160   30.1990   41.0230 H   0  0  0  0  0  0  0  0  0  0  0  0
   47.2630   30.6950   41.3940 H   0  0  0  0  0  0  0  0  0  0  0  0
   47.5350   32.6320   40.2820 H   0  0  0  0  0  0  0  0  0  0  0  0
   50.6020   31.6650   39.1610 C   0  0  0  0  0  0  0  0  0  0  0  0
   49.2780   31.9430   39.3320 C   0  0  0  0  0  0  0  0  0  0  0  0
   48.5410   31.8860   38.1410 C   0  0  0  0  0  0  0  0  0  0  0  0
   47.4610   32.0970   38.1880 H   0  0  0  0  0  0  0  0  0  0  0  0
   49.1370   31.5760   36.9380 C   0  0  0  0  0  0  0  0  0  0  0  0
   48.4790   31.5590   36.0840 H   0  0  0  0  0  0  0  0  0  0  0  0
   50.4830   31.3040   36.8290 C   0  0  0  0  0  3  0  0  0  0  0  0
   51.2320   31.3520   37.9780 C   0  0  0  0  0  3  0  0  0  0  0  0
   52.1900   32.3160   41.1730 N   0  0  0  0  0  0  0  0  0  0  0  0
   51.4830   31.6970   40.3050 C   0  0  0  0  0  0  0  0  0  0  0  0
   51.9050   30.4830   40.9570 N   0  0  0  0  0  0  0  0  0  0  0  0
   52.6800   31.6920   41.8650 H   0  0  0  0  0  0  0  0  0  0  0  0
   52.5950   29.8630   40.4380 H   0  0  0  0  0  0  0  0  0  0  0  0
   51.8740   29.8170   41.7790 H   0  0  0  0  0  0  0  0  0  0  0  0
   48.4630   34.5390   41.2290 C   0  0  0  0  0  0  0  0  0  0  0  0
   48.3110   34.9690   42.2410 H   0  0  0  0  0  0  0  0  0  0  0  0
   49.0510   35.2580   40.6500 H   0  0  0  0  0  0  0  0  0  0  0  0
   46.0060   34.6240   41.4260 C   0  0  0  0  0  3  0  0  0  0  0  0
   47.0790   34.3730   40.6520 C   0  0  0  0  0  3  0  0  0  0  0  0
   44.2230   33.3580   40.1360 C   0  0  0  0  0  0  0  0  0  0  0  0
   44.6370   34.4790   40.9110 C   0  0  0  0  0  0  0  0  0  0  0  0
   43.6970   35.4740   41.1920 C   0  0  0  0  0  0  0  0  0  0  0  0
   42.4320   35.3290   40.7140 N   0  0  0  0  0  0  0  0  0  0  0  0
   42.0800   34.2540   39.9850 C   0  0  0  0  0  0  0  0  0  0  0  0
   42.9750   33.2910   39.7080 N   0  0  0  0  0  0  0  0  0  0  0  0
   44.9840   32.5970   39.9340 H   0  0  0  0  0  0  0  0  0  0  0  0
   43.9660   36.3430   41.7780 H   0  0  0  0  0  0  0  0  0  0  0  0
   39.9810   33.6190   41.6900 F   0  0  0  0  0  0  0  0  0  0  0  0
   39.6790   33.8180   40.3790 C   0  0  0  0  0  0  0  0  0  0  0  0
   40.7130   34.1390   39.4940 C   0  0  0  0  0  0  0  0  0  0  0  0
   40.4890   34.3550   38.1530 C   0  0  0  0  0  0  0  0  0  0  0  0
   39.1740   34.2400   37.7050 C   0  0  0  0  0  0  0  0  0  0  0  0
   38.1180   33.9180   38.5710 C   0  0  0  0  0  0  0  0  0  0  0  0
   38.3800   33.7090   39.9120 C   0  0  0  0  0  0  0  0  0  0  0  0
   41.2930   34.5990   37.5010 H   0  0  0  0  0  0  0  0  0  0  0  0
   39.0360   34.4190   36.6370 H   0  0  0  0  0  0  0  0  0  0  0  0
   37.1380   33.8510   38.1410 H   0  0  0  0  0  0  0  0  0  0  0  0
   37.5680   33.4590   40.5910 H   0  0  0  0  0  0  0  0  0  0  0  0
  1  2  1  0  0  0  0
  2  3  1  0  0  0  0
  2  6  1  0  0  0  0
  2  7  1  0  0  0  0
  3  8  1  0  0  0  0
  3  9  1  0  0  0  0
  4  3  1  0  0  0  0
  5 12  1  6  0  0  0
  5  1  1  0  0  0  0
  5  4  1  0  0  0  0
 10  4  1  0  0  0  0
 11  4  1  0  0  0  0
 13 14  1  0  0  0  0
 13 22  1  0  0  0  0
 14  5  1  0  0  0  0
 15 16  1  0  0  0  0
 15 14  2  0  0  0  0
 17 15  1  0  0  0  0
 18 17  1  0  0  0  0
 19 17  2  0  0  0  0
 19 20  1  0  0  0  0
 20 13  2  0  0  0  0
 21 24  1  0  0  0  0
 22 23  1  0  0  0  0
 22 21  2  0  0  0  0
 23 26  1  0  0  0  0
 25 23  1  0  0  0  0
 27  1  1  0  0  0  0
 27 28  1  0  0  0  0
 29 27  1  0  0  0  0
 31 27  1  0  0  0  0
 31 30  2  0  0  0  0
 32 33  1  0  0  0  0
 33 34  2  0  0  0  0
 33 30  1  0  0  0  0
 34 39  1  0  0  0  0
 35 34  1  0  0  0  0
 36 35  2  0  0  0  0
 37 36  1  0  0  0  0
 37 32  2  0  0  0  0
 38 32  1  0  0  0  0
 41 40  1  0  0  0  0
 42 36  1  0  0  0  0
 42 41  2  0  0  0  0
 43 42  1  0  0  0  0
 44 43  2  0  0  0  0
 44 45  1  0  0  0  0
 45 46  2  0  0  0  0
 46 41  1  0  0  0  0
 46 50  1  0  0  0  0
 47 43  1  0  0  0  0
 48 44  1  0  0  0  0
 49 45  1  0  0  0  0
M  END
>  <minimizedAffinity>
-6.41203737

>  <minimizedRMSD>
1.62342918

$$$$
