
 OpenBabel03242515313D

 45 48  0  0  1  0  0  0  0  0999 V2000
   43.4220   35.1910   39.9780 F   0  0  0  0  0  0  0  0  0  0  0  0
   43.5290   33.8430   40.2610 C   0  0  0  0  0  0  0  0  0  0  0  0
   44.7290   33.4140   40.7630 C   0  0  0  0  0  0  0  0  0  0  0  0
   44.7900   32.0560   41.0470 C   0  0  0  0  0  0  0  0  0  0  0  0
   43.7030   31.2350   40.8240 C   0  0  0  0  0  0  0  0  0  0  0  0
   42.4990   31.7380   40.3040 C   0  0  0  0  0  0  0  0  0  0  0  0
   42.4230   33.1070   40.0150 C   0  0  0  0  0  0  0  0  0  0  0  0
   45.6650   31.5780   41.4450 H   0  0  0  0  0  0  0  0  0  0  0  0
   43.7030   30.1660   41.0300 H   0  0  0  0  0  0  0  0  0  0  0  0
   41.6240   31.1290   40.1160 H   0  0  0  0  0  0  0  0  0  0  0  0
   46.4970   34.1040   42.3130 N   0  0  0  0  0  0  0  0  0  0  0  0
   47.7760   33.4880   42.1150 C   0  0  0  0  0  0  0  0  0  0  0  0
   48.2430   34.3020   40.9320 C   0  0  0  0  0  0  0  0  0  0  0  0
   47.0290   34.0870   40.0150 C   0  0  0  0  0  0  0  0  0  0  0  0
   45.9050   34.2510   40.9790 C   0  0  1  0  0  0  0  0  0  0  0  0
   47.7430   32.4180   41.8900 H   0  0  0  0  0  0  0  0  0  0  0  0
   48.4470   33.7420   42.9730 H   0  0  0  0  0  0  0  0  0  0  0  0
   48.3430   35.3570   41.2070 H   0  0  0  0  0  0  0  0  0  0  0  0
   49.1570   33.8650   40.4790 H   0  0  0  0  0  0  0  0  0  0  0  0
   47.0250   34.7900   39.1630 H   0  0  0  0  0  0  0  0  0  0  0  0
   47.1010   33.0190   39.7040 H   0  0  0  0  0  0  0  0  0  0  0  0
   45.5780   35.3300   40.9730 H   0  0  0  0  0  0  0  0  0  0  0  0
   44.4780   36.0700   44.7470 C   0  0  0  0  0  0  0  0  0  0  0  0
   45.0930   35.7170   43.5530 C   0  0  0  0  0  0  0  0  0  0  0  0
   45.8370   34.5330   43.4890 C   0  0  0  0  0  0  0  0  0  0  0  0
   45.9120   33.7950   44.6090 N   0  0  0  0  0  0  0  0  0  0  0  0
   45.3150   34.1380   45.7640 C   0  0  0  0  0  0  0  0  0  0  0  0
   44.5910   35.2910   45.8290 N   0  0  0  0  0  0  0  0  0  0  0  0
   43.9220   37.0060   44.6980 H   0  0  0  0  0  0  0  0  0  0  0  0
   45.0290   36.3180   42.6500 H   0  0  0  0  0  0  0  0  0  0  0  0
   45.3990   33.5110   46.6530 H   0  0  0  0  0  0  0  0  0  0  0  0
   40.2160   34.1960   40.3090 C   0  0  0  0  0  0  0  0  0  0  0  0
   41.1770   33.6360   39.4770 C   0  0  0  0  0  0  0  0  0  0  0  0
   40.9160   33.5970   38.1090 C   0  0  0  0  0  0  0  0  0  0  0  0
   41.6590   33.1640   37.4580 H   0  0  0  0  0  0  0  0  0  0  0  0
   39.7470   34.0860   37.5400 C   0  0  0  0  0  0  0  0  0  0  0  0
   39.6010   34.0280   36.4680 H   0  0  0  0  0  0  0  0  0  0  0  0
   38.7960   34.6400   38.3690 C   0  0  0  0  0  0  0  0  0  0  0  0
   39.0660   34.6750   39.7300 C   0  0  0  0  0  0  0  0  0  0  0  0
   39.9600   33.3740   42.5620 N   0  0  0  0  0  0  0  0  0  0  0  0
   40.4250   34.2700   41.7500 C   0  0  0  0  0  0  0  0  0  0  0  0
   41.1700   35.3790   42.2310 N   0  0  0  0  0  0  0  0  0  0  0  0
   40.1770   33.5360   43.5760 H   0  0  0  0  0  0  0  0  0  0  0  0
   40.7400   36.3180   42.0440 H   0  0  0  0  0  0  0  0  0  0  0  0
   41.9780   35.8490   42.7090 H   0  0  0  0  0  0  0  0  0  0  0  0
  1  2  1  0  0  0  0
  2  3  1  0  0  0  0
  3 15  1  0  0  0  0
  3  4  2  0  0  0  0
  4  8  1  0  0  0  0
  5  9  1  0  0  0  0
  5  4  1  0  0  0  0
  6  5  2  0  0  0  0
  7  2  2  0  0  0  0
  7  6  1  0  0  0  0
 10  6  1  0  0  0  0
 11 25  1  0  0  0  0
 12 11  1  0  0  0  0
 12 17  1  0  0  0  0
 13 18  1  0  0  0  0
 13 12  1  0  0  0  0
 14 13  1  0  0  0  0
 14 15  1  0  0  0  0
 15 22  1  6  0  0  0
 15 11  1  0  0  0  0
 16 12  1  0  0  0  0
 19 13  1  0  0  0  0
 20 14  1  0  0  0  0
 21 14  1  0  0  0  0
 23 28  1  0  0  0  0
 24 23  2  0  0  0  0
 25 24  1  0  0  0  0
 25 26  2  0  0  0  0
 26 27  1  0  0  0  0
 27 28  2  0  0  0  0
 27 31  1  0  0  0  0
 29 23  1  0  0  0  0
 30 24  1  0  0  0  0
 32 41  1  0  0  0  0
 33  7  1  0  0  0  0
 33 32  2  0  0  0  0
 34 33  1  0  0  0  0
 35 34  1  0  0  0  0
 36 34  2  0  0  0  0
 36 38  1  0  0  0  0
 37 36  1  0  0  0  0
 38 39  2  0  0  0  0
 39 32  1  0  0  0  0
 40 43  1  0  0  0  0
 41 42  1  0  0  0  0
 41 40  2  0  0  0  0
 42 45  1  0  0  0  0
 44 42  1  0  0  0  0
M  END
>  <minimizedAffinity>
-7.27249336

>  <minimizedRMSD>
1.3885082

$$$$
