
 OpenBabel03252509003D

 48 51  0  0  1  0  0  0  0  0999 V2000
   47.0080   34.2420   43.0400 N   0  0  0  0  0  0  0  0  0  0  0  0
   46.6650   35.5750   42.6870 C   0  0  0  0  0  0  0  0  0  0  0  0
   45.2010   35.9240   42.8590 C   0  0  0  0  0  0  0  0  0  0  0  0
   44.5290   35.2350   44.0120 C   0  0  0  0  0  0  0  0  0  0  0  0
   45.4950   34.3820   44.8000 C   0  0  0  0  0  0  0  0  0  0  0  0
   46.1120   33.4280   43.7150 C   0  0  2  0  0  0  0  0  0  0  0  0
   47.2190   36.2440   43.4000 H   0  0  0  0  0  0  0  0  0  0  0  0
   46.9620   35.8960   41.6880 H   0  0  0  0  0  0  0  0  0  0  0  0
   44.6820   35.5860   41.9340 H   0  0  0  0  0  0  0  0  0  0  0  0
   45.1240   37.0280   42.8880 H   0  0  0  0  0  0  0  0  0  0  0  0
   43.6500   34.6420   43.7470 H   0  0  0  0  0  0  0  0  0  0  0  0
   44.1680   36.0400   44.7130 H   0  0  0  0  0  0  0  0  0  0  0  0
   46.2960   34.9960   45.2450 H   0  0  0  0  0  0  0  0  0  0  0  0
   44.9240   33.7670   45.5120 H   0  0  0  0  0  0  0  0  0  0  0  0
   45.2440   33.0250   43.1610 H   0  0  0  0  0  0  0  0  0  0  0  0
   47.9750   33.6330   42.1710 C   0  0  0  0  0  0  0  0  0  0  0  0
   48.6120   34.4170   41.7380 H   0  0  0  0  0  0  0  0  0  0  0  0
   48.6350   32.9710   42.7570 H   0  0  0  0  0  0  0  0  0  0  0  0
   47.2440   32.8240   41.1350 C   0  0  0  0  0  0  0  0  0  0  0  0
   46.1980   33.1790   41.0250 H   0  0  0  0  0  0  0  0  0  0  0  0
   47.2070   31.7470   41.3550 H   0  0  0  0  0  0  0  0  0  0  0  0
   49.3340   32.2580   38.0590 C   0  0  0  0  0  0  0  0  0  0  0  0
   48.7160   32.0660   39.3090 C   0  0  0  0  0  0  0  0  0  0  0  0
   47.8920   33.0400   39.8120 C   0  0  0  0  0  0  0  0  0  0  0  0
   47.7140   34.1460   39.0720 N   0  0  0  0  0  0  0  0  0  0  0  0
   48.3040   34.3280   37.8810 C   0  0  0  0  0  0  0  0  0  0  0  0
   49.1210   33.3830   37.3630 N   0  0  0  0  0  0  0  0  0  0  0  0
   49.9800   31.4680   37.6900 H   0  0  0  0  0  0  0  0  0  0  0  0
   48.9210   31.1400   39.8300 H   0  0  0  0  0  0  0  0  0  0  0  0
   48.0440   35.2790   37.4300 H   0  0  0  0  0  0  0  0  0  0  0  0
   46.7670   32.4910   44.5080 O   0  0  0  0  0  0  0  0  0  0  0  0
   44.8250   30.9620   43.5280 O   0  0  0  0  0  0  0  0  0  0  0  0
   46.0380   30.9750   44.4570 P   0  0  2  0  0  0  0  0  0  0  0  0
   45.3970   30.7040   46.0210 O   0  0  0  0  0  0  0  0  0  0  0  0
   46.1800   30.6910   46.6440 H   0  0  0  0  0  0  0  0  0  0  0  0
   47.1140   29.7530   44.1360 O   0  0  0  0  0  0  0  0  0  0  0  0
   49.2540   31.4640   44.1760 H   0  0  0  0  0  0  0  0  0  0  0  0
   49.1560   30.7050   43.4590 N   0  0  0  0  0  0  0  0  0  0  0  0
   48.1860   29.7660   43.2700 C   0  0  0  0  0  0  0  0  0  0  0  0
   48.5260   29.0060   42.1940 N   0  0  0  0  0  0  0  0  0  0  0  0
   49.7120   29.4490   41.6870 C   0  0  0  0  0  0  0  0  0  0  0  0
   50.4730   29.0220   40.6160 C   0  0  0  0  0  0  0  0  0  0  0  0
   50.0780   28.1830   40.0600 H   0  0  0  0  0  0  0  0  0  0  0  0
   51.6180   29.6880   40.3760 N   0  0  0  0  0  0  0  0  0  0  0  0
   51.9730   30.7180   41.1650 C   0  0  0  0  0  0  0  0  0  0  0  0
   52.8990   31.2550   40.9690 H   0  0  0  0  0  0  0  0  0  0  0  0
   51.2360   31.1510   42.2210 N   0  0  0  0  0  0  0  0  0  0  0  0
   50.0720   30.5030   42.4970 C   0  0  0  0  0  0  0  0  0  0  0  0
  1  6  1  0  0  0  0
  2  3  1  0  0  0  0
  2  1  1  0  0  0  0
  2  7  1  0  0  0  0
  3 10  1  0  0  0  0
  3  4  1  0  0  0  0
  4 12  1  0  0  0  0
  4  5  1  0  0  0  0
  5 13  1  0  0  0  0
  5 14  1  0  0  0  0
  6 15  1  6  0  0  0
  6 31  1  0  0  0  0
  6  5  1  0  0  0  0
  8  2  1  0  0  0  0
  9  3  1  0  0  0  0
 11  4  1  0  0  0  0
 16 18  1  0  0  0  0
 16  1  1  0  0  0  0
 17 16  1  0  0  0  0
 19 21  1  0  0  0  0
 19 16  1  0  0  0  0
 20 19  1  0  0  0  0
 22 23  1  0  0  0  0
 23 24  2  0  0  0  0
 23 29  1  0  0  0  0
 24 19  1  0  0  0  0
 25 24  1  0  0  0  0
 26 25  2  0  0  0  0
 27 26  1  0  0  0  0
 27 22  2  0  0  0  0
 28 22  1  0  0  0  0
 30 26  1  0  0  0  0
 33 32  2  6  0  0  0
 33 31  1  0  0  0  0
 33 34  1  0  0  0  0
 34 35  1  0  0  0  0
 36 33  1  0  0  0  0
 38 37  1  0  0  0  0
 39 38  1  0  0  0  0
 39 36  1  0  0  0  0
 40 39  2  0  0  0  0
 41 40  1  0  0  0  0
 41 48  1  0  0  0  0
 42 41  2  0  0  0  0
 43 42  1  0  0  0  0
 44 42  1  0  0  0  0
 44 45  2  0  0  0  0
 45 47  1  0  0  0  0
 46 45  1  0  0  0  0
 47 48  2  0  0  0  0
 48 38  1  0  0  0  0
M  END
>  <minimizedAffinity>
-3.93752885

>  <minimizedRMSD>
1.60762703

$$$$
