
 OpenBabel03252503183D

 42 46  0  0  0  0  0  0  0  0999 V2000
   44.1470   31.7330   41.3740 C   0  0  0  0  0  0  0  0  0  0  0  0
   43.4050   31.2810   42.4310 C   0  0  0  0  0  0  0  0  0  0  0  0
   43.6850   29.9650   42.5440 N   0  0  0  0  0  0  0  0  0  0  0  0
   44.5570   29.6310   41.5980 C   0  0  0  0  0  0  0  0  0  0  0  0
   44.8520   30.7180   40.8660 N   0  0  0  0  0  0  0  0  0  0  0  0
   45.1560   28.3760   41.3020 N   0  0  0  0  0  0  0  0  0  0  0  0
   42.7340   31.8520   43.0520 H   0  0  0  0  0  0  0  0  0  0  0  0
   45.5810   27.8870   42.1440 H   0  0  0  0  0  0  0  0  0  0  0  0
   45.1350   28.0350   40.3150 H   0  0  0  0  0  0  0  0  0  0  0  0
   43.1640   29.0200   43.5020 C   0  0  0  0  0  0  0  0  0  0  0  0
   43.1270   27.9910   43.0810 H   0  0  0  0  0  0  0  0  0  0  0  0
   42.1340   29.2800   43.7890 H   0  0  0  0  0  0  0  0  0  0  0  0
   44.0740   29.0400   44.6340 N   0  0  0  0  0  0  0  0  0  0  0  0
   45.1030   29.8460   44.9520 C   0  0  0  0  0  0  0  0  0  0  0  0
   45.3370   30.6470   44.2640 H   0  0  0  0  0  0  0  0  0  0  0  0
   45.6520   29.4640   46.1200 N   0  0  0  0  0  0  0  0  0  0  0  0
   44.9840   28.3910   46.5890 C   0  0  0  0  0  0  0  0  0  0  0  0
   45.1380   27.6230   47.7280 C   0  0  0  0  0  0  0  0  0  0  0  0
   45.9240   27.8600   48.4350 H   0  0  0  0  0  0  0  0  0  0  0  0
   44.2720   26.5840   47.9030 N   0  0  0  0  0  0  0  0  0  0  0  0
   43.3110   26.3520   46.9660 C   0  0  0  0  0  0  0  0  0  0  0  0
   42.6400   25.5040   47.1560 H   0  0  0  0  0  0  0  0  0  0  0  0
   43.1430   27.0860   45.8510 N   0  0  0  0  0  0  0  0  0  0  0  0
   43.9920   28.1290   45.6490 C   0  0  0  0  0  0  0  0  0  0  0  0
   44.2000   33.1260   40.8340 C   0  0  0  0  0  0  0  0  0  0  0  0
   43.9260   33.4580   39.6430 O   0  0  0  0  0  0  0  0  0  0  0  0
   43.6180   34.9030   42.4320 C   0  0  0  0  0  0  0  0  0  0  0  0
   44.5830   34.1970   41.6850 C   0  0  0  0  0  0  0  0  0  0  0  0
   45.8820   34.6550   41.8780 C   0  0  0  0  0  0  0  0  0  0  0  0
   46.1930   35.6600   42.6850 N   0  0  0  0  0  0  0  0  0  0  0  0
   45.2080   36.3020   43.3790 C   0  0  0  0  0  0  0  0  0  0  0  0
   43.9370   35.9160   43.2450 N   0  0  0  0  0  0  0  0  0  0  0  0
   42.5830   34.5650   42.3030 H   0  0  0  0  0  0  0  0  0  0  0  0
   45.4210   37.1190   44.0410 H   0  0  0  0  0  0  0  0  0  0  0  0
   46.9290   34.0020   41.1590 C   0  0  0  0  0  0  0  0  0  0  0  0
   47.4900   34.1120   39.9310 C   0  0  0  0  0  0  0  0  0  0  0  0
   48.4780   33.3550   39.5120 C   0  0  0  0  0  0  0  0  0  0  0  0
   48.9130   32.4410   40.3900 C   0  0  0  0  0  0  0  0  0  0  0  0
   47.8820   32.6660   41.8660 S   0  0  0  0  0  0  0  0  0  0  0  0
   47.0200   34.9120   39.3210 H   0  0  0  0  0  0  0  0  0  0  0  0
   48.9550   33.4090   38.5410 H   0  0  0  0  0  0  0  0  0  0  0  0
   49.7780   31.6570   40.2480 H   0  0  0  0  0  0  0  0  0  0  0  0
  1  2  2  0  0  0  0
  2  3  1  0  0  0  0
  2  7  1  0  0  0  0
  3 10  1  0  0  0  0
  4  3  1  0  0  0  0
  5  1  1  0  0  0  0
  5  4  2  0  0  0  0
  6  4  1  0  0  0  0
  6  8  1  0  0  0  0
  9  6  1  0  0  0  0
 10 12  1  0  0  0  0
 10 13  1  0  0  0  0
 11 10  1  0  0  0  0
 13 14  1  0  0  0  0
 13 24  1  0  0  0  0
 14 16  2  0  0  0  0
 15 14  1  0  0  0  0
 16 17  1  0  0  0  0
 17 18  1  0  0  0  0
 18 20  2  0  0  0  0
 18 19  1  0  0  0  0
 21 22  1  0  0  0  0
 21 20  1  0  0  0  0
 23 21  2  0  0  0  0
 24 23  1  0  0  0  0
 24 17  2  0  0  0  0
 25  1  1  0  0  0  0
 25 28  1  0  0  0  0
 26 25  2  0  0  0  0
 27 32  1  0  0  0  0
 28 29  1  0  0  0  0
 28 27  2  0  0  0  0
 29 30  2  0  0  0  0
 30 31  1  0  0  0  0
 31 34  1  0  0  0  0
 32 31  2  0  0  0  0
 33 27  1  0  0  0  0
 35 39  1  0  0  0  0
 35 29  1  0  0  0  0
 36 35  2  0  0  0  0
 37 36  1  0  0  0  0
 37 38  2  0  0  0  0
 38 39  1  0  0  0  0
 40 36  1  0  0  0  0
 41 37  1  0  0  0  0
 42 38  1  0  0  0  0
M  END
>  <minimizedAffinity>
-4.05436325

>  <minimizedRMSD>
7.51718569

$$$$
