
 OpenBabel03252505033D

 37 40  0  0  1  0  0  0  0  0999 V2000
   44.6020   35.4680   44.6750 C   0  0  0  0  0  0  0  0  0  0  0  0
   45.2970   35.6300   43.4630 C   0  0  0  0  0  0  0  0  0  0  0  0
   46.4320   34.8080   43.2650 C   0  0  0  0  0  0  0  0  0  0  0  0
   46.7780   33.9300   44.2400 N   0  0  0  0  0  0  0  0  0  0  0  0
   46.0840   33.8140   45.3770 C   0  0  0  0  0  0  0  0  0  0  0  0
   44.9780   34.5900   45.6090 N   0  0  0  0  0  0  0  0  0  0  0  0
   43.7350   36.1150   44.7960 H   0  0  0  0  0  0  0  0  0  0  0  0
   45.0250   36.3230   42.6930 H   0  0  0  0  0  0  0  0  0  0  0  0
   46.5350   32.8320   46.3950 C   0  0  2  0  0  0  0  0  0  0  0  0
   47.0280   31.6450   45.6330 C   0  0  0  0  0  0  0  0  0  0  0  0
   46.1490   30.4610   45.6380 C   0  0  0  0  0  0  0  0  0  0  0  0
   45.8930   30.1300   47.0940 C   0  0  0  0  0  0  0  0  0  0  0  0
   45.1270   31.1820   47.7770 C   0  0  0  0  0  0  0  0  0  0  0  0
   45.4940   32.5850   47.3810 C   0  0  0  0  0  0  0  0  0  0  0  0
   47.3860   33.3390   46.9140 H   0  0  0  0  0  0  0  0  0  0  0  0
   47.2680   31.8830   44.5720 H   0  0  0  0  0  0  0  0  0  0  0  0
   48.0260   31.3590   46.0670 H   0  0  0  0  0  0  0  0  0  0  0  0
   45.2380   30.6030   45.0510 H   0  0  0  0  0  0  0  0  0  0  0  0
   46.7070   29.6050   45.2190 H   0  0  0  0  0  0  0  0  0  0  0  0
   46.8140   29.8120   47.5710 H   0  0  0  0  0  0  0  0  0  0  0  0
   45.1960   29.2590   47.0620 H   0  0  0  0  0  0  0  0  0  0  0  0
   44.3600   31.2300   48.4950 H   0  0  0  0  0  0  0  0  0  0  0  0
   44.8250   33.6940   47.9680 N   0  0  0  0  0  0  0  0  0  0  0  0
   45.2370   34.3060   48.7070 H   0  0  0  0  0  0  0  0  0  0  0  0
   43.8680   33.8340   47.5750 H   0  0  0  0  0  0  0  0  0  0  0  0
   47.2230   34.8660   42.0890 N   0  0  0  0  0  0  0  0  0  0  0  0
   48.3810   35.4740   41.7400 C   0  0  0  0  0  0  0  0  0  0  0  0
   48.8870   36.0810   42.4830 H   0  0  0  0  0  0  0  0  0  0  0  0
   48.6900   35.1850   40.4670 N   0  0  0  0  0  0  0  0  0  0  0  0
   47.7240   34.3780   39.9730 C   0  0  0  0  0  0  0  0  0  0  0  0
   47.6290   33.8390   38.7190 C   0  0  0  0  0  0  0  0  0  0  0  0
   48.3330   33.9920   37.9380 H   0  0  0  0  0  0  0  0  0  0  0  0
   46.5630   33.0550   38.4520 N   0  0  0  0  0  0  0  0  0  0  0  0
   45.6470   32.8430   39.4330 C   0  0  0  0  0  0  0  0  0  0  0  0
   44.7510   32.2340   39.3410 H   0  0  0  0  0  0  0  0  0  0  0  0
   45.7880   33.3970   40.6520 N   0  0  0  0  0  0  0  0  0  0  0  0
   46.8100   34.1840   40.9960 C   0  0  0  0  0  0  0  0  0  0  0  0
  1  7  1  0  0  0  0
  1  6  1  0  0  0  0
  2  1  2  0  0  0  0
  3  2  1  0  0  0  0
  3  4  2  0  0  0  0
  4  5  1  0  0  0  0
  5  6  2  0  0  0  0
  5  9  1  0  0  0  0
  8  2  1  0  0  0  0
  9 15  1  1  0  0  0
  9 14  1  0  0  0  0
 10 11  1  0  0  0  0
 10 17  1  0  0  0  0
 10  9  1  0  0  0  0
 11 12  1  0  0  0  0
 12 20  1  0  0  0  0
 12 13  1  0  0  0  0
 13 22  1  0  0  0  0
 14 13  2  0  0  0  0
 14 23  1  0  0  0  0
 16 10  1  0  0  0  0
 18 11  1  0  0  0  0
 19 11  1  0  0  0  0
 21 12  1  0  0  0  0
 23 24  1  0  0  0  0
 25 23  1  0  0  0  0
 26  3  1  0  0  0  0
 27 26  1  0  0  0  0
 27 28  1  0  0  0  0
 29 27  2  0  0  0  0
 30 29  1  0  0  0  0
 30 37  1  0  0  0  0
 31 30  2  0  0  0  0
 32 31  1  0  0  0  0
 33 31  1  0  0  0  0
 33 34  2  0  0  0  0
 34 36  1  0  0  0  0
 35 34  1  0  0  0  0
 36 37  2  0  0  0  0
 37 26  1  0  0  0  0
M  END
>  <minimizedAffinity>
-6.73751497

>  <minimizedRMSD>
1.90316701

$$$$
