
 OpenBabel03242523543D

 48 52  0  0  1  0  0  0  0  0999 V2000
   42.8130   34.5270   38.7350 C   0  0  1  0  0  0  0  0  0  0  0  0
   42.9590   35.1830   40.0990 C   0  0  1  0  0  0  0  0  0  0  0  0
   41.6640   35.3950   40.6250 O   0  0  0  0  0  0  0  0  0  0  0  0
   40.7330   35.7360   39.6380 C   0  0  0  0  0  0  0  0  0  0  0  0
   40.4320   34.5670   38.7170 C   0  0  2  0  0  0  0  0  0  0  0  0
   41.6530   33.5920   38.8430 C   0  0  1  0  0  0  0  0  0  0  0  0
   43.7600   33.9740   38.5160 H   0  0  0  0  0  0  0  0  0  0  0  0
   43.5250   36.1290   40.0610 H   0  0  0  0  0  0  0  0  0  0  0  0
   39.8100   35.9720   40.1760 H   0  0  0  0  0  0  0  0  0  0  0  0
   41.0400   36.6380   39.0740 H   0  0  0  0  0  0  0  0  0  0  0  0
   39.5150   34.0200   38.9820 H   0  0  0  0  0  0  0  0  0  0  0  0
   41.4470   33.3190   39.9310 H   0  0  0  0  0  0  0  0  0  0  0  0
   42.5880   35.4930   37.7400 O   0  0  0  0  0  0  0  0  0  0  0  0
   42.7760   35.0570   36.8630 H   0  0  0  0  0  0  0  0  0  0  0  0
   40.4440   34.9970   37.4000 O   0  0  0  0  0  0  0  0  0  0  0  0
   39.9490   34.3410   36.8730 H   0  0  0  0  0  0  0  0  0  0  0  0
   43.5000   34.1980   40.9290 O   0  0  0  0  0  0  0  0  0  0  0  0
   44.6030   34.3400   41.6760 C   0  0  0  0  0  0  0  0  0  0  0  0
   45.8690   34.4360   41.0810 C   0  0  0  0  0  0  0  0  0  0  0  0
   46.9750   34.5830   41.9000 C   0  0  0  0  0  0  0  0  0  0  0  0
   46.8000   34.6320   43.2730 N   0  0  0  0  0  0  0  0  0  0  0  0
   45.5620   34.5370   43.8090 C   0  0  0  0  0  0  0  0  0  0  0  0
   44.4710   34.3920   43.0170 N   0  0  0  0  0  0  0  0  0  0  0  0
   45.9930   34.3960   40.0060 H   0  0  0  0  0  0  0  0  0  0  0  0
   45.4930   34.5820   44.8930 H   0  0  0  0  0  0  0  0  0  0  0  0
   48.3620   34.6800   41.3300 C   0  0  0  0  0  0  0  0  0  0  0  0
   49.0740   36.0180   41.5080 C   0  0  0  0  0  0  0  0  0  0  0  0
   49.5010   34.7110   42.1960 C   0  0  0  0  0  0  0  0  0  0  0  0
   48.3880   34.3640   40.2580 H   0  0  0  0  0  0  0  0  0  0  0  0
   48.6040   36.7370   42.2350 H   0  0  0  0  0  0  0  0  0  0  0  0
   49.7040   36.4100   40.7130 H   0  0  0  0  0  0  0  0  0  0  0  0
   50.4880   34.3370   41.8410 H   0  0  0  0  0  0  0  0  0  0  0  0
   49.3760   34.6080   43.2770 H   0  0  0  0  0  0  0  0  0  0  0  0
   41.5200   32.6550   37.8910 O   0  0  0  0  0  0  0  0  0  0  0  0
   40.8730   31.4890   37.8740 C   0  0  0  0  0  0  0  0  0  0  0  0
   39.6070   31.3930   37.4800 O   0  0  0  0  0  0  0  0  0  0  0  0
   43.4730   30.1840   38.3300 H   0  0  0  0  0  0  0  0  0  0  0  0
   42.5570   29.7290   38.3930 N   0  0  0  0  0  0  0  0  0  0  0  0
   41.3020   30.0790   38.2350 C   0  0  0  0  0  0  0  0  0  0  0  0
   40.5500   28.9580   38.4740 N   0  0  0  0  0  0  0  0  0  0  0  0
   41.3350   27.9290   38.7750 C   0  0  0  0  0  0  0  0  0  0  0  0
   40.9630   26.6370   39.0770 C   0  0  0  0  0  0  0  0  0  0  0  0
   39.9500   26.2940   39.1070 H   0  0  0  0  0  0  0  0  0  0  0  0
   41.9920   25.7870   39.3470 N   0  0  0  0  0  0  0  0  0  0  0  0
   43.2710   26.2160   39.3110 C   0  0  0  0  0  0  0  0  0  0  0  0
   44.1270   25.5870   39.5150 H   0  0  0  0  0  0  0  0  0  0  0  0
   43.5440   27.4930   39.0060 N   0  0  0  0  0  0  0  0  0  0  0  0
   42.6210   28.4050   38.7270 C   0  0  0  0  0  0  0  0  0  0  0  0
  1  7  1  6  0  0  0
  1  6  1  0  0  0  0
  1  2  1  0  0  0  0
  2  8  1  6  0  0  0
  2  3  1  0  0  0  0
  2 17  1  0  0  0  0
  4  9  1  0  0  0  0
  4  3  1  0  0  0  0
  5  6  1  0  0  0  0
  5 11  1  1  0  0  0
  5  4  1  0  0  0  0
  6 12  1  1  0  0  0
 10  4  1  0  0  0  0
 13  1  1  0  0  0  0
 14 13  1  0  0  0  0
 15  5  1  0  0  0  0
 16 15  1  0  0  0  0
 17 18  1  0  0  0  0
 18 23  1  0  0  0  0
 19 18  2  0  0  0  0
 19 20  1  0  0  0  0
 20 21  2  0  0  0  0
 21 22  1  0  0  0  0
 22 25  1  0  0  0  0
 23 22  2  0  0  0  0
 24 19  1  0  0  0  0
 26 27  1  0  0  0  0
 26 20  1  0  0  0  0
 26 28  1  0  0  0  0
 27 28  1  0  0  0  0
 27 30  1  0  0  0  0
 28 33  1  0  0  0  0
 29 26  1  0  0  0  0
 31 27  1  0  0  0  0
 32 28  1  0  0  0  0
 34  6  1  0  0  0  0
 35 34  1  0  0  0  0
 35 39  1  0  0  0  0
 36 35  2  0  0  0  0
 37 38  1  0  0  0  0
 38 48  1  0  0  0  0
 39 38  1  0  0  0  0
 39 40  2  0  0  0  0
 40 41  1  0  0  0  0
 41 42  1  0  0  0  0
 42 43  1  0  0  0  0
 42 44  2  0  0  0  0
 45 44  1  0  0  0  0
 45 46  1  0  0  0  0
 47 45  2  0  0  0  0
 48 41  2  0  0  0  0
 48 47  1  0  0  0  0
M  END
>  <minimizedAffinity>
-5.61363649

>  <minimizedRMSD>
0.131806195

$$$$
