
 OpenBabel03252505033D

 37 40  0  0  1  0  0  0  0  0999 V2000
   44.3540   35.8520   44.4130 C   0  0  0  0  0  0  0  0  0  0  0  0
   44.3440   35.4110   43.0770 C   0  0  0  0  0  0  0  0  0  0  0  0
   45.0120   34.1920   42.8050 C   0  0  0  0  0  0  0  0  0  0  0  0
   45.6100   33.5350   43.8290 N   0  0  0  0  0  0  0  0  0  0  0  0
   45.5920   33.9970   45.0840 C   0  0  0  0  0  0  0  0  0  0  0  0
   44.9570   35.1720   45.3920 N   0  0  0  0  0  0  0  0  0  0  0  0
   43.8330   36.7920   44.5880 H   0  0  0  0  0  0  0  0  0  0  0  0
   43.8720   35.9290   42.2680 H   0  0  0  0  0  0  0  0  0  0  0  0
   46.2780   33.2180   46.1450 C   0  0  2  0  0  0  0  0  0  0  0  0
   46.9520   32.0800   45.4500 C   0  0  0  0  0  0  0  0  0  0  0  0
   46.3230   30.7570   45.6140 C   0  0  0  0  0  0  0  0  0  0  0  0
   46.2130   30.5210   47.1060 C   0  0  0  0  0  0  0  0  0  0  0  0
   45.2940   31.4680   47.7520 C   0  0  0  0  0  0  0  0  0  0  0  0
   45.3580   32.8710   47.2190 C   0  0  0  0  0  0  0  0  0  0  0  0
   47.0400   33.9240   46.5600 H   0  0  0  0  0  0  0  0  0  0  0  0
   47.0860   32.2590   44.3590 H   0  0  0  0  0  0  0  0  0  0  0  0
   48.0080   32.0310   45.8360 H   0  0  0  0  0  0  0  0  0  0  0  0
   45.3730   30.6670   45.0820 H   0  0  0  0  0  0  0  0  0  0  0  0
   47.0150   29.9860   45.2290 H   0  0  0  0  0  0  0  0  0  0  0  0
   47.2020   30.4300   47.5430 H   0  0  0  0  0  0  0  0  0  0  0  0
   45.6990   29.5350   47.1940 H   0  0  0  0  0  0  0  0  0  0  0  0
   44.5710   31.4370   48.5150 H   0  0  0  0  0  0  0  0  0  0  0  0
   44.5170   33.8840   47.7570 N   0  0  0  0  0  0  0  0  0  0  0  0
   44.8400   34.6300   48.4130 H   0  0  0  0  0  0  0  0  0  0  0  0
   43.5320   33.8020   47.4210 H   0  0  0  0  0  0  0  0  0  0  0  0
   45.0790   33.6310   41.5040 N   0  0  0  0  0  0  0  0  0  0  0  0
   44.2730   32.8410   40.7570 C   0  0  0  0  0  0  0  0  0  0  0  0
   43.3300   32.5170   41.1860 H   0  0  0  0  0  0  0  0  0  0  0  0
   44.8360   32.6040   39.5630 N   0  0  0  0  0  0  0  0  0  0  0  0
   46.0260   33.2440   39.5240 C   0  0  0  0  0  0  0  0  0  0  0  0
   46.9360   33.2790   38.5050 C   0  0  0  0  0  0  0  0  0  0  0  0
   46.8220   32.7860   37.5710 H   0  0  0  0  0  0  0  0  0  0  0  0
   48.0670   33.9930   38.6960 N   0  0  0  0  0  0  0  0  0  0  0  0
   48.2390   34.6350   39.8810 C   0  0  0  0  0  0  0  0  0  0  0  0
   49.1030   35.2370   40.1540 H   0  0  0  0  0  0  0  0  0  0  0  0
   47.3110   34.5670   40.8530 N   0  0  0  0  0  0  0  0  0  0  0  0
   46.1690   33.8840   40.7440 C   0  0  0  0  0  0  0  0  0  0  0  0
  1  7  1  0  0  0  0
  1  6  1  0  0  0  0
  2  1  2  0  0  0  0
  3  2  1  0  0  0  0
  3  4  2  0  0  0  0
  4  5  1  0  0  0  0
  5  6  2  0  0  0  0
  5  9  1  0  0  0  0
  8  2  1  0  0  0  0
  9 15  1  1  0  0  0
  9 14  1  0  0  0  0
 10 11  1  0  0  0  0
 10 17  1  0  0  0  0
 10  9  1  0  0  0  0
 11 12  1  0  0  0  0
 12 21  1  0  0  0  0
 12 20  1  0  0  0  0
 12 13  1  0  0  0  0
 13 22  1  0  0  0  0
 14 13  2  0  0  0  0
 14 23  1  0  0  0  0
 16 10  1  0  0  0  0
 18 11  1  0  0  0  0
 19 11  1  0  0  0  0
 23 24  1  0  0  0  0
 25 23  1  0  0  0  0
 26  3  1  0  0  0  0
 27 28  1  0  0  0  0
 27 26  1  0  0  0  0
 29 27  2  0  0  0  0
 30 29  1  0  0  0  0
 30 37  1  0  0  0  0
 31 33  1  0  0  0  0
 31 30  2  0  0  0  0
 32 31  1  0  0  0  0
 33 34  2  0  0  0  0
 34 35  1  0  0  0  0
 34 36  1  0  0  0  0
 37 36  2  0  0  0  0
 37 26  1  0  0  0  0
M  END
>  <minimizedAffinity>
-6.32786322

>  <minimizedRMSD>
2.17145753

$$$$
