
 OpenBabel03252505033D

 37 40  0  0  1  0  0  0  0  0999 V2000
   44.9790   35.1230   44.3070 C   0  0  0  0  0  0  0  0  0  0  0  0
   45.7440   34.9030   43.1470 C   0  0  0  0  0  0  0  0  0  0  0  0
   46.7720   33.9350   43.2370 C   0  0  0  0  0  0  0  0  0  0  0  0
   46.9560   33.2880   44.4150 N   0  0  0  0  0  0  0  0  0  0  0  0
   46.2010   33.5330   45.4910 C   0  0  0  0  0  0  0  0  0  0  0  0
   45.1940   34.4620   45.4470 N   0  0  0  0  0  0  0  0  0  0  0  0
   44.1980   35.8740   44.2050 H   0  0  0  0  0  0  0  0  0  0  0  0
   45.6000   35.4130   42.2160 H   0  0  0  0  0  0  0  0  0  0  0  0
   46.4740   32.7840   46.7440 C   0  0  2  0  0  0  0  0  0  0  0  0
   47.0170   31.4580   46.3220 C   0  0  0  0  0  0  0  0  0  0  0  0
   46.1010   30.3110   46.4520 C   0  0  0  0  0  0  0  0  0  0  0  0
   45.6400   30.2980   47.8950 C   0  0  0  0  0  0  0  0  0  0  0  0
   44.8310   31.4780   48.2310 C   0  0  0  0  0  0  0  0  0  0  0  0
   45.3010   32.7620   47.6060 C   0  0  0  0  0  0  0  0  0  0  0  0
   47.2660   33.3820   47.2580 H   0  0  0  0  0  0  0  0  0  0  0  0
   47.4060   31.4640   45.2780 H   0  0  0  0  0  0  0  0  0  0  0  0
   47.9370   31.2610   46.9400 H   0  0  0  0  0  0  0  0  0  0  0  0
   45.2830   30.3330   45.7280 H   0  0  0  0  0  0  0  0  0  0  0  0
   46.6760   29.3790   46.3020 H   0  0  0  0  0  0  0  0  0  0  0  0
   46.4760   30.0800   48.5510 H   0  0  0  0  0  0  0  0  0  0  0  0
   44.9200   29.4470   47.9490 H   0  0  0  0  0  0  0  0  0  0  0  0
   43.9780   31.6840   48.8090 H   0  0  0  0  0  0  0  0  0  0  0  0
   44.6030   33.9770   47.8490 N   0  0  0  0  0  0  0  0  0  0  0  0
   44.9360   34.7270   48.4950 H   0  0  0  0  0  0  0  0  0  0  0  0
   43.7130   34.0390   47.3070 H   0  0  0  0  0  0  0  0  0  0  0  0
   47.6180   33.6130   42.1450 N   0  0  0  0  0  0  0  0  0  0  0  0
   48.8370   34.0230   41.7210 C   0  0  0  0  0  0  0  0  0  0  0  0
   49.3550   34.7770   42.3030 H   0  0  0  0  0  0  0  0  0  0  0  0
   49.1770   33.3750   40.5970 N   0  0  0  0  0  0  0  0  0  0  0  0
   48.1730   32.5280   40.2790 C   0  0  0  0  0  0  0  0  0  0  0  0
   48.0920   31.6720   39.2150 C   0  0  0  0  0  0  0  0  0  0  0  0
   48.8410   31.5550   38.4710 H   0  0  0  0  0  0  0  0  0  0  0  0
   46.9780   30.9150   39.1020 N   0  0  0  0  0  0  0  0  0  0  0  0
   46.0040   31.0440   40.0410 C   0  0  0  0  0  0  0  0  0  0  0  0
   45.0670   30.4930   40.0580 H   0  0  0  0  0  0  0  0  0  0  0  0
   46.1350   31.9030   41.0680 N   0  0  0  0  0  0  0  0  0  0  0  0
   47.2010   32.6840   41.2530 C   0  0  0  0  0  0  0  0  0  0  0  0
  1  6  1  0  0  0  0
  2  3  1  0  0  0  0
  2  1  2  0  0  0  0
  3  4  2  0  0  0  0
  4  5  1  0  0  0  0
  5  9  1  0  0  0  0
  6  5  2  0  0  0  0
  7  1  1  0  0  0  0
  8  2  1  0  0  0  0
  9 15  1  1  0  0  0
  9 14  1  0  0  0  0
 10 11  1  0  0  0  0
 10  9  1  0  0  0  0
 10 17  1  0  0  0  0
 11 12  1  0  0  0  0
 12 21  1  0  0  0  0
 12 13  1  0  0  0  0
 12 20  1  0  0  0  0
 13 22  1  0  0  0  0
 14 23  1  0  0  0  0
 14 13  2  0  0  0  0
 16 10  1  0  0  0  0
 18 11  1  0  0  0  0
 19 11  1  0  0  0  0
 23 24  1  0  0  0  0
 25 23  1  0  0  0  0
 26  3  1  0  0  0  0
 27 26  1  0  0  0  0
 27 28  1  0  0  0  0
 29 27  2  0  0  0  0
 30 29  1  0  0  0  0
 30 37  1  0  0  0  0
 31 30  2  0  0  0  0
 32 31  1  0  0  0  0
 33 31  1  0  0  0  0
 33 34  2  0  0  0  0
 34 35  1  0  0  0  0
 34 36  1  0  0  0  0
 36 37  2  0  0  0  0
 37 26  1  0  0  0  0
M  END
>  <minimizedAffinity>
-5.82112932

>  <minimizedRMSD>
0.387227535

$$$$
