
 OpenBabel03252507463D

 40 43  0  0  0  0  0  0  0  0999 V2000
   48.4560   33.9460   41.3010 C   0  0  0  0  0  0  0  0  0  0  0  0
   48.9580   32.7560   40.8100 C   0  0  0  0  0  0  0  0  0  0  0  0
   50.2090   32.2640   41.1640 C   0  0  0  0  0  0  0  0  0  0  0  0
   50.9220   33.0510   42.0490 N   0  0  0  0  0  0  0  0  0  0  0  0
   50.4070   34.2040   42.5110 C   0  0  0  0  0  0  0  0  0  0  0  0
   49.2030   34.6340   42.1410 N   0  0  0  0  0  0  0  0  0  0  0  0
   50.5520   31.3390   40.7560 H   0  0  0  0  0  0  0  0  0  0  0  0
   51.0680   34.7240   43.1970 H   0  0  0  0  0  0  0  0  0  0  0  0
   47.1170   34.3310   40.8320 C   0  0  0  0  0  0  0  0  0  0  0  0
   47.1410   35.0080   39.9370 H   0  0  0  0  0  0  0  0  0  0  0  0
   46.5130   33.4540   40.5220 H   0  0  0  0  0  0  0  0  0  0  0  0
   46.3030   35.0150   41.9040 C   0  0  0  0  0  0  0  0  0  0  0  0
   46.5760   36.0910   41.8950 H   0  0  0  0  0  0  0  0  0  0  0  0
   46.5940   34.6630   42.9320 H   0  0  0  0  0  0  0  0  0  0  0  0
   44.8390   34.9460   41.6870 C   0  0  0  0  0  0  0  0  0  0  0  0
   43.9570   35.4120   42.7010 C   0  0  0  0  0  0  0  0  0  0  0  0
   42.2970   35.1250   41.9790 S   0  0  0  0  0  0  0  0  0  0  0  0
   43.0920   34.4090   40.3980 C   0  0  0  0  0  0  0  0  0  0  0  0
   44.2020   34.4940   40.6400 N   0  0  0  0  0  0  0  0  0  0  0  0
   44.2170   35.8330   43.6630 H   0  0  0  0  0  0  0  0  0  0  0  0
   42.3420   33.9500   39.3260 O   0  0  0  0  0  0  0  0  0  0  0  0
   40.3940   34.3980   37.5870 O   0  0  0  0  0  0  0  0  0  0  0  0
   41.4750   35.0770   38.4080 P   0  0  0  0  0  0  0  0  0  0  0  0
   40.7470   36.1660   39.4840 O   0  0  0  0  0  0  0  0  0  0  0  0
   40.3890   35.6210   40.2320 H   0  0  0  0  0  0  0  0  0  0  0  0
   42.5550   35.9450   37.4160 O   0  0  0  0  0  0  0  0  0  0  0  0
   42.8480   35.3480   36.6630 H   0  0  0  0  0  0  0  0  0  0  0  0
   47.9860   31.7730   39.6290 S   0  0  0  0  0  0  0  0  0  0  0  0
   49.7600   29.2120   39.3670 H   0  0  0  0  0  0  0  0  0  0  0  0
   49.7840   29.8490   38.5410 N   0  0  0  0  0  0  0  0  0  0  0  0
   49.0910   30.9990   38.4580 C   0  0  0  0  0  0  0  0  0  0  0  0
   49.3300   31.5900   37.2740 N   0  0  0  0  0  0  0  0  0  0  0  0
   50.1850   30.8350   36.5590 C   0  0  0  0  0  0  0  0  0  0  0  0
   50.7700   30.9370   35.3100 C   0  0  0  0  0  0  0  0  0  0  0  0
   50.4930   31.8370   34.7400 H   0  0  0  0  0  0  0  0  0  0  0  0
   51.6190   29.9700   34.8690 N   0  0  0  0  0  0  0  0  0  0  0  0
   51.8570   28.9230   35.6960 C   0  0  0  0  0  0  0  0  0  0  0  0
   52.5490   28.1960   35.2630 H   0  0  0  0  0  0  0  0  0  0  0  0
   51.3060   28.7790   36.9330 N   0  0  0  0  0  0  0  0  0  0  0  0
   50.4560   29.7480   37.3740 C   0  0  0  0  0  0  0  0  0  0  0  0
  1  6  1  0  0  0  0
  2  3  1  0  0  0  0
  2  1  2  0  0  0  0
  3  4  2  0  0  0  0
  4  5  1  0  0  0  0
  5  8  1  0  0  0  0
  6  5  2  0  0  0  0
  7  3  1  0  0  0  0
  9  1  1  0  0  0  0
  9 12  1  0  0  0  0
 10  9  1  0  0  0  0
 11  9  1  0  0  0  0
 12 14  1  0  0  0  0
 13 12  1  0  0  0  0
 15 12  1  0  0  0  0
 15 16  2  0  0  0  0
 16 20  1  0  0  0  0
 17 16  1  0  0  0  0
 18 19  2  0  0  0  0
 18 17  1  0  0  0  0
 19 15  1  0  0  0  0
 21 18  1  0  0  0  0
 22 23  2  0  0  0  0
 23 21  1  0  0  0  0
 23 24  1  0  0  0  0
 24 25  1  0  0  0  0
 26 23  1  0  0  0  0
 27 26  1  0  0  0  0
 28  2  1  0  0  0  0
 30 29  1  0  0  0  0
 31 30  1  0  0  0  0
 31 28  1  0  0  0  0
 32 31  2  0  0  0  0
 33 32  1  0  0  0  0
 33 40  1  0  0  0  0
 34 33  2  0  0  0  0
 35 34  1  0  0  0  0
 36 34  1  0  0  0  0
 36 37  2  0  0  0  0
 37 39  1  0  0  0  0
 38 37  1  0  0  0  0
 39 40  2  0  0  0  0
 40 30  1  0  0  0  0
M  END
>  <minimizedAffinity>
-4.77637863

>  <minimizedRMSD>
1.49277854

$$$$
