
 OpenBabel03242519053D

 46 50  0  0  1  0  0  0  0  0999 V2000
   48.5220   33.2840   39.2110 N   0  0  0  0  0  0  0  0  0  0  0  0
   49.5300   33.5700   39.1340 H   0  0  0  0  0  0  0  0  0  0  0  0
   47.4620   34.4780   42.3880 N   0  0  0  0  0  0  0  0  0  0  0  0
   47.3910   34.5960   40.9420 C   0  0  0  0  0  0  0  0  0  0  0  0
   48.0860   33.3190   40.5710 C   0  0  2  0  0  0  0  0  0  0  0  0
   49.3180   33.3620   41.4470 C   0  0  0  0  0  0  0  0  0  0  0  0
   48.8030   34.0390   42.6960 C   0  0  0  0  0  0  0  0  0  0  0  0
   47.9900   35.4590   40.5830 H   0  0  0  0  0  0  0  0  0  0  0  0
   46.3480   34.6580   40.5800 H   0  0  0  0  0  0  0  0  0  0  0  0
   47.4700   32.4410   40.8500 H   0  0  0  0  0  0  0  0  0  0  0  0
   49.6420   32.3140   41.7120 H   0  0  0  0  0  0  0  0  0  0  0  0
   50.1350   33.8970   40.9510 H   0  0  0  0  0  0  0  0  0  0  0  0
   48.8740   33.3990   43.5880 H   0  0  0  0  0  0  0  0  0  0  0  0
   49.4160   34.9570   42.8560 H   0  0  0  0  0  0  0  0  0  0  0  0
   44.6040   35.8670   44.3490 C   0  0  0  0  0  0  0  0  0  0  0  0
   45.5310   35.7130   43.3180 C   0  0  0  0  0  0  0  0  0  0  0  0
   46.4820   34.7170   43.3750 C   0  0  0  0  0  0  0  0  0  0  0  0
   46.4710   33.9100   44.4650 N   0  0  0  0  0  0  0  0  0  0  0  0
   45.5780   34.0490   45.4710 C   0  0  0  0  0  0  0  0  0  0  0  0
   44.6500   35.0240   45.4090 N   0  0  0  0  0  0  0  0  0  0  0  0
   43.8580   36.6510   44.3000 H   0  0  0  0  0  0  0  0  0  0  0  0
   45.5320   36.3590   42.4560 H   0  0  0  0  0  0  0  0  0  0  0  0
   45.5570   33.4160   46.3420 H   0  0  0  0  0  0  0  0  0  0  0  0
   48.4390   32.2850   36.9190 C   0  0  0  0  0  0  0  0  0  0  0  0
   47.8420   32.9430   38.0060 C   0  0  0  0  0  0  0  0  0  0  0  0
   46.5150   33.2350   37.7980 C   0  0  0  0  0  0  0  0  0  0  0  0
   45.7890   32.9450   36.6780 C   0  0  0  0  0  0  0  0  0  0  0  0
   46.4170   32.3050   35.6540 C   0  0  0  0  0  0  0  0  0  0  0  0
   47.7500   31.9760   35.7810 C   0  0  0  0  0  0  0  0  0  0  0  0
   45.9950   33.7460   38.6060 H   0  0  0  0  0  0  0  0  0  0  0  0
   44.7550   33.1970   36.5720 H   0  0  0  0  0  0  0  0  0  0  0  0
   45.8850   32.0530   34.7450 H   0  0  0  0  0  0  0  0  0  0  0  0
   48.3800   31.3080   34.6940 N   0  0  0  0  0  0  0  0  0  0  0  0
   48.6680   29.9990   34.5740 C   0  0  0  0  0  0  0  0  0  0  0  0
   48.4660   29.2180   35.2960 H   0  0  0  0  0  0  0  0  0  0  0  0
   49.2680   29.7810   33.3870 N   0  0  0  0  0  0  0  0  0  0  0  0
   49.3780   30.9600   32.7090 C   0  0  0  0  0  0  0  0  0  0  0  0
   49.9080   31.2680   31.4730 C   0  0  0  0  0  0  0  0  0  0  0  0
   50.3460   30.5230   30.8240 H   0  0  0  0  0  0  0  0  0  0  0  0
   49.8370   32.5600   31.1390 N   0  0  0  0  0  0  0  0  0  0  0  0
   49.2980   33.5230   31.9200 C   0  0  0  0  0  0  0  0  0  0  0  0
   49.2660   34.5690   31.5980 H   0  0  0  0  0  0  0  0  0  0  0  0
   48.7740   33.2210   33.1430 N   0  0  0  0  0  0  0  0  0  0  0  0
   48.8120   31.9180   33.5520 C   0  0  0  0  0  0  0  0  0  0  0  0
   50.9700   31.6620   37.1800 N   0  0  0  0  0  0  0  0  0  0  0  0
   49.8520   31.9360   37.0530 C   0  0  0  0  0  0  0  0  0  0  0  0
  1  5  1  0  0  0  0
  2  1  1  0  0  0  0
  3  7  1  0  0  0  0
  3 17  1  0  0  0  0
  4  3  1  0  0  0  0
  5 10  1  1  0  0  0
  5  4  1  0  0  0  0
  5  6  1  0  0  0  0
  6 11  1  0  0  0  0
  6  7  1  0  0  0  0
  7 14  1  0  0  0  0
  7 13  1  0  0  0  0
  8  4  1  0  0  0  0
  9  4  1  0  0  0  0
 12  6  1  0  0  0  0
 15 20  1  0  0  0  0
 16 17  1  0  0  0  0
 16 15  2  0  0  0  0
 17 18  2  0  0  0  0
 18 19  1  0  0  0  0
 19 23  1  0  0  0  0
 20 19  2  0  0  0  0
 21 15  1  0  0  0  0
 22 16  1  0  0  0  0
 24 46  1  0  0  0  0
 24 25  1  0  0  0  0
 25  1  1  0  0  0  0
 26 25  2  0  0  0  0
 26 30  1  0  0  0  0
 27 26  1  0  0  0  0
 28 29  1  0  0  0  0
 28 27  2  0  0  0  0
 29 24  2  0  0  0  0
 31 27  1  0  0  0  0
 32 28  1  0  0  0  0
 33 29  1  0  0  0  0
 34 33  1  0  0  0  0
 34 35  1  0  0  0  0
 36 34  2  0  0  0  0
 37 36  1  0  0  0  0
 37 44  1  0  0  0  0
 38 37  2  0  0  0  0
 39 38  1  0  0  0  0
 40 38  1  0  0  0  0
 40 41  2  0  0  0  0
 41 43  1  0  0  0  0
 42 41  1  0  0  0  0
 43 44  2  0  0  0  0
 44 33  1  0  0  0  0
 46 45  3  0  0  0  0
M  END
>  <minimizedAffinity>
-6.12221861

>  <minimizedRMSD>
1.84066236

$$$$
