
 OpenBabel03252503193D

 42 46  0  0  0  0  0  0  0  0999 V2000
   45.9690   34.1030   40.8370 C   0  0  0  0  0  0  0  0  0  0  0  0
   44.6490   33.7650   40.7130 C   0  0  0  0  0  0  0  0  0  0  0  0
   44.5330   33.1620   39.5100 N   0  0  0  0  0  0  0  0  0  0  0  0
   45.7280   33.1340   38.9280 C   0  0  0  0  0  0  0  0  0  0  0  0
   46.6270   33.7150   39.7410 N   0  0  0  0  0  0  0  0  0  0  0  0
   46.1240   32.6110   37.6670 N   0  0  0  0  0  0  0  0  0  0  0  0
   43.8590   33.9410   41.4250 H   0  0  0  0  0  0  0  0  0  0  0  0
   45.7930   31.6180   37.4850 H   0  0  0  0  0  0  0  0  0  0  0  0
   46.6900   33.2170   37.0330 H   0  0  0  0  0  0  0  0  0  0  0  0
   43.3470   32.6170   38.8960 C   0  0  0  0  0  0  0  0  0  0  0  0
   42.9620   31.7390   39.4600 H   0  0  0  0  0  0  0  0  0  0  0  0
   43.5600   32.2670   37.8740 H   0  0  0  0  0  0  0  0  0  0  0  0
   42.3500   33.6740   38.9200 N   0  0  0  0  0  0  0  0  0  0  0  0
   42.3570   34.9340   38.4500 C   0  0  0  0  0  0  0  0  0  0  0  0
   43.2550   35.2720   37.9490 H   0  0  0  0  0  0  0  0  0  0  0  0
   41.1850   35.5380   38.7150 N   0  0  0  0  0  0  0  0  0  0  0  0
   40.3840   34.6740   39.3710 C   0  0  0  0  0  0  0  0  0  0  0  0
   39.0980   34.7890   39.8650 C   0  0  0  0  0  0  0  0  0  0  0  0
   38.5560   35.7200   39.7470 H   0  0  0  0  0  0  0  0  0  0  0  0
   38.5690   33.6980   40.4910 N   0  0  0  0  0  0  0  0  0  0  0  0
   39.3180   32.5640   40.6000 C   0  0  0  0  0  0  0  0  0  0  0  0
   38.8450   31.7160   41.1120 H   0  0  0  0  0  0  0  0  0  0  0  0
   40.5700   32.4310   40.1260 N   0  0  0  0  0  0  0  0  0  0  0  0
   41.1230   33.5020   39.4960 C   0  0  0  0  0  0  0  0  0  0  0  0
   46.6230   34.7950   41.9890 C   0  0  0  0  0  0  0  0  0  0  0  0
   47.5570   35.6460   41.8970 O   0  0  0  0  0  0  0  0  0  0  0  0
   45.2680   35.3400   43.9690 C   0  0  0  0  0  0  0  0  0  0  0  0
   46.1990   34.5070   43.3150 C   0  0  0  0  0  0  0  0  0  0  0  0
   46.6230   33.4310   44.0860 C   0  0  0  0  0  0  0  0  0  0  0  0
   46.1990   33.2010   45.3220 N   0  0  0  0  0  0  0  0  0  0  0  0
   45.2960   34.0490   45.8970 C   0  0  0  0  0  0  0  0  0  0  0  0
   44.8430   35.1050   45.2150 N   0  0  0  0  0  0  0  0  0  0  0  0
   44.9140   36.1980   43.3860 H   0  0  0  0  0  0  0  0  0  0  0  0
   44.9300   33.8970   46.8930 H   0  0  0  0  0  0  0  0  0  0  0  0
   47.5700   32.5320   43.5080 C   0  0  0  0  0  0  0  0  0  0  0  0
   48.8600   32.5990   43.0970 C   0  0  0  0  0  0  0  0  0  0  0  0
   49.5130   31.5830   42.5830 C   0  0  0  0  0  0  0  0  0  0  0  0
   48.8150   30.4430   42.4830 C   0  0  0  0  0  0  0  0  0  0  0  0
   47.1700   30.8290   43.1450 S   0  0  0  0  0  0  0  0  0  0  0  0
   49.2990   33.6080   43.2440 H   0  0  0  0  0  0  0  0  0  0  0  0
   50.5410   31.5920   42.2430 H   0  0  0  0  0  0  0  0  0  0  0  0
   49.1790   29.4080   42.0610 H   0  0  0  0  0  0  0  0  0  0  0  0
  1 25  1  0  0  0  0
  2  1  2  0  0  0  0
  2  7  1  0  0  0  0
  3  2  1  0  0  0  0
  4  3  1  0  0  0  0
  4  5  2  0  0  0  0
  5  1  1  0  0  0  0
  6  4  1  0  0  0  0
  8  6  1  0  0  0  0
  9  6  1  0  0  0  0
 10 13  1  0  0  0  0
 10 11  1  0  0  0  0
 10  3  1  0  0  0  0
 12 10  1  0  0  0  0
 13 24  1  0  0  0  0
 14 16  2  0  0  0  0
 14 13  1  0  0  0  0
 15 14  1  0  0  0  0
 16 17  1  0  0  0  0
 17 24  2  0  0  0  0
 17 18  1  0  0  0  0
 18 20  2  0  0  0  0
 19 18  1  0  0  0  0
 20 21  1  0  0  0  0
 21 22  1  0  0  0  0
 23 21  2  0  0  0  0
 24 23  1  0  0  0  0
 25 28  1  0  0  0  0
 26 25  2  0  0  0  0
 27 32  1  0  0  0  0
 28 27  2  0  0  0  0
 28 29  1  0  0  0  0
 29 30  2  0  0  0  0
 30 31  1  0  0  0  0
 31 34  1  0  0  0  0
 32 31  2  0  0  0  0
 33 27  1  0  0  0  0
 35 29  1  0  0  0  0
 36 40  1  0  0  0  0
 36 35  2  0  0  0  0
 37 36  1  0  0  0  0
 38 37  2  0  0  0  0
 38 39  1  0  0  0  0
 39 35  1  0  0  0  0
 41 37  1  0  0  0  0
 42 38  1  0  0  0  0
M  END
>  <minimizedAffinity>
-5.71388197

>  <minimizedRMSD>
2.12341475

$$$$
