
 OpenBabel03252501503D

 48 52  0  0  1  0  0  0  0  0999 V2000
   47.6340   35.0430   42.5490 C   0  0  0  0  0  0  0  0  0  0  0  0
   47.4920   34.4750   43.4940 H   0  0  0  0  0  0  0  0  0  0  0  0
   47.7730   36.0950   42.8120 H   0  0  0  0  0  0  0  0  0  0  0  0
   48.7540   34.4600   41.8560 N   0  0  0  0  0  0  0  0  0  0  0  0
   49.9770   34.8010   42.4940 C   0  0  0  0  0  0  0  0  0  0  0  0
   50.9120   33.6330   42.3760 C   0  0  0  0  0  0  0  0  0  0  0  0
   49.9950   32.4850   42.1170 C   0  0  0  0  0  0  0  0  0  0  0  0
   48.6390   33.0410   41.8390 C   0  0  2  0  0  0  0  0  0  0  0  0
   49.8150   34.9650   43.5950 H   0  0  0  0  0  0  0  0  0  0  0  0
   50.4000   35.7480   42.0760 H   0  0  0  0  0  0  0  0  0  0  0  0
   51.6160   33.8560   41.5420 H   0  0  0  0  0  0  0  0  0  0  0  0
   51.5220   33.4690   43.2850 H   0  0  0  0  0  0  0  0  0  0  0  0
   50.0130   31.6880   42.8960 H   0  0  0  0  0  0  0  0  0  0  0  0
   50.3520   31.9750   41.1810 H   0  0  0  0  0  0  0  0  0  0  0  0
   48.0010   32.7370   42.6950 H   0  0  0  0  0  0  0  0  0  0  0  0
   48.0360   32.4910   40.6460 N   0  0  0  0  0  0  0  0  0  0  0  0
   47.3710   31.3160   40.6230 C   0  0  0  0  0  0  0  0  0  0  0  0
   47.1830   30.6170   41.4470 H   0  0  0  0  0  0  0  0  0  0  0  0
   46.9360   31.0920   39.3680 N   0  0  0  0  0  0  0  0  0  0  0  0
   47.3210   32.1110   38.6140 C   0  0  0  0  0  0  0  0  0  0  0  0
   47.2110   32.5020   37.2860 C   0  0  0  0  0  0  0  0  0  0  0  0
   46.6720   31.8430   36.5990 H   0  0  0  0  0  0  0  0  0  0  0  0
   47.7110   33.6270   36.7610 N   0  0  0  0  0  0  0  0  0  0  0  0
   48.3820   34.4690   37.5630 C   0  0  0  0  0  0  0  0  0  0  0  0
   48.8570   35.4150   37.3430 H   0  0  0  0  0  0  0  0  0  0  0  0
   48.5410   34.1710   38.8850 N   0  0  0  0  0  0  0  0  0  0  0  0
   48.0190   33.0180   39.3860 C   0  0  0  0  0  0  0  0  0  0  0  0
   45.2490   34.4510   42.4090 C   0  0  0  0  0  3  0  0  0  0  0  0
   46.3520   34.8770   41.7700 C   0  0  0  0  0  3  0  0  0  0  0  0
   43.5060   33.0400   41.1820 C   0  0  0  0  0  0  0  0  0  0  0  0
   43.9750   34.2810   41.6670 C   0  0  0  0  0  0  0  0  0  0  0  0
   43.1970   35.4400   41.4410 C   0  0  0  0  0  0  0  0  0  0  0  0
   42.0320   35.2950   40.7620 N   0  0  0  0  0  0  0  0  0  0  0  0
   41.6260   34.1110   40.3210 C   0  0  0  0  0  0  0  0  0  0  0  0
   42.3650   33.0140   40.5380 N   0  0  0  0  0  0  0  0  0  0  0  0
   44.1540   32.2090   41.3960 H   0  0  0  0  0  0  0  0  0  0  0  0
   43.4920   36.4030   41.7780 H   0  0  0  0  0  0  0  0  0  0  0  0
   39.3010   33.2070   41.5150 F   0  0  0  0  0  0  0  0  0  0  0  0
   39.2160   33.5530   40.2160 C   0  0  0  0  0  0  0  0  0  0  0  0
   40.3600   34.0090   39.5920 C   0  0  0  0  0  0  0  0  0  0  0  0
   40.3690   34.3900   38.2480 C   0  0  0  0  0  0  0  0  0  0  0  0
   39.1700   34.2960   37.5480 C   0  0  0  0  0  0  0  0  0  0  0  0
   37.9930   33.8330   38.1720 C   0  0  0  0  0  0  0  0  0  0  0  0
   38.0330   33.4640   39.5090 C   0  0  0  0  0  0  0  0  0  0  0  0
   41.2540   34.7480   37.7430 H   0  0  0  0  0  0  0  0  0  0  0  0
   39.1090   34.5740   36.5090 H   0  0  0  0  0  0  0  0  0  0  0  0
   37.0700   33.7670   37.6110 H   0  0  0  0  0  0  0  0  0  0  0  0
   37.1490   33.1130   39.9920 H   0  0  0  0  0  0  0  0  0  0  0  0
  1  3  1  0  0  0  0
  1  2  1  0  0  0  0
  4  5  1  0  0  0  0
  4  1  1  0  0  0  0
  5  9  1  0  0  0  0
  6  5  1  0  0  0  0
  6 12  1  0  0  0  0
  7  6  1  0  0  0  0
  7 13  1  0  0  0  0
  8  4  1  0  0  0  0
  8  7  1  0  0  0  0
  8 15  1  1  0  0  0
 10  5  1  0  0  0  0
 11  6  1  0  0  0  0
 14  7  1  0  0  0  0
 16  8  1  0  0  0  0
 17 16  1  0  0  0  0
 17 18  1  0  0  0  0
 19 17  2  0  0  0  0
 20 19  1  0  0  0  0
 20 27  1  0  0  0  0
 21 20  2  0  0  0  0
 22 21  1  0  0  0  0
 23 21  1  0  0  0  0
 23 24  2  0  0  0  0
 24 26  1  0  0  0  0
 25 24  1  0  0  0  0
 26 27  2  0  0  0  0
 27 16  1  0  0  0  0
 29 28  2  0  0  0  0
 29  1  1  0  0  0  0
 30 36  1  0  0  0  0
 30 31  1  0  0  0  0
 31 28  1  0  0  0  0
 32 31  2  0  0  0  0
 32 37  1  0  0  0  0
 33 32  1  0  0  0  0
 34 35  1  0  0  0  0
 34 33  2  0  0  0  0
 35 30  2  0  0  0  0
 39 38  1  0  0  0  0
 40 39  1  0  0  0  0
 40 34  1  0  0  0  0
 41 40  2  0  0  0  0
 42 43  2  0  0  0  0
 42 41  1  0  0  0  0
 43 44  1  0  0  0  0
 44 48  1  0  0  0  0
 44 39  2  0  0  0  0
 45 41  1  0  0  0  0
 46 42  1  0  0  0  0
 47 43  1  0  0  0  0
M  END
>  <minimizedAffinity>
-6.58739901

>  <minimizedRMSD>
1.2122575

$$$$
