
 OpenBabel03252503183D

 42 46  0  0  0  0  0  0  0  0999 V2000
   46.0470   34.0820   40.6070 C   0  0  0  0  0  0  0  0  0  0  0  0
   44.7140   33.8040   40.4730 C   0  0  0  0  0  0  0  0  0  0  0  0
   44.5830   33.1840   39.2800 N   0  0  0  0  0  0  0  0  0  0  0  0
   45.7820   33.0900   38.7130 C   0  0  0  0  0  0  0  0  0  0  0  0
   46.6990   33.6420   39.5260 N   0  0  0  0  0  0  0  0  0  0  0  0
   46.1670   32.5250   37.4670 N   0  0  0  0  0  0  0  0  0  0  0  0
   43.9250   34.0290   41.1720 H   0  0  0  0  0  0  0  0  0  0  0  0
   45.7920   31.5460   37.2990 H   0  0  0  0  0  0  0  0  0  0  0  0
   46.7690   33.0920   36.8290 H   0  0  0  0  0  0  0  0  0  0  0  0
   43.3800   32.6840   38.6610 C   0  0  0  0  0  0  0  0  0  0  0  0
   43.0060   31.7720   39.1760 H   0  0  0  0  0  0  0  0  0  0  0  0
   43.5660   32.4010   37.6130 H   0  0  0  0  0  0  0  0  0  0  0  0
   42.3890   33.7400   38.7800 N   0  0  0  0  0  0  0  0  0  0  0  0
   42.3630   35.0090   38.3370 C   0  0  0  0  0  0  0  0  0  0  0  0
   43.2220   35.3590   37.7800 H   0  0  0  0  0  0  0  0  0  0  0  0
   41.2140   35.6080   38.7000 N   0  0  0  0  0  0  0  0  0  0  0  0
   40.4610   34.7290   39.3930 C   0  0  0  0  0  0  0  0  0  0  0  0
   39.2150   34.8330   39.9820 C   0  0  0  0  0  0  0  0  0  0  0  0
   38.6670   35.7650   39.9220 H   0  0  0  0  0  0  0  0  0  0  0  0
   38.7310   33.7290   40.6210 N   0  0  0  0  0  0  0  0  0  0  0  0
   39.4840   32.5940   40.6500 C   0  0  0  0  0  0  0  0  0  0  0  0
   39.0490   31.7330   41.1770 H   0  0  0  0  0  0  0  0  0  0  0  0
   40.6980   32.4710   40.0850 N   0  0  0  0  0  0  0  0  0  0  0  0
   41.2070   33.5550   39.4390 C   0  0  0  0  0  0  0  0  0  0  0  0
   46.7200   34.7630   41.7550 C   0  0  0  0  0  0  0  0  0  0  0  0
   47.9090   35.2000   41.7500 O   0  0  0  0  0  0  0  0  0  0  0  0
   45.3600   36.1820   43.2340 C   0  0  0  0  0  0  0  0  0  0  0  0
   46.0100   34.9590   42.9700 C   0  0  0  0  0  0  0  0  0  0  0  0
   45.8770   34.0250   43.9910 C   0  0  0  0  0  0  0  0  0  0  0  0
   45.2030   34.2520   45.1100 N   0  0  0  0  0  0  0  0  0  0  0  0
   44.5970   35.4600   45.3020 C   0  0  0  0  0  0  0  0  0  0  0  0
   44.6810   36.4070   44.3650 N   0  0  0  0  0  0  0  0  0  0  0  0
   45.4460   36.9400   42.4470 H   0  0  0  0  0  0  0  0  0  0  0  0
   44.0430   35.6820   46.1940 H   0  0  0  0  0  0  0  0  0  0  0  0
   46.5060   32.7550   43.8150 C   0  0  0  0  0  0  0  0  0  0  0  0
   47.7590   32.2560   43.9480 C   0  0  0  0  0  0  0  0  0  0  0  0
   48.0720   31.0030   43.7120 C   0  0  0  0  0  0  0  0  0  0  0  0
   47.0550   30.2210   43.3210 C   0  0  0  0  0  0  0  0  0  0  0  0
   45.6020   31.3070   43.2870 S   0  0  0  0  0  0  0  0  0  0  0  0
   48.4880   33.0260   44.2770 H   0  0  0  0  0  0  0  0  0  0  0  0
   49.0570   30.5630   43.8060 H   0  0  0  0  0  0  0  0  0  0  0  0
   47.0860   29.0760   43.0550 H   0  0  0  0  0  0  0  0  0  0  0  0
  1 25  1  0  0  0  0
  2  1  2  0  0  0  0
  2  7  1  0  0  0  0
  3  2  1  0  0  0  0
  4  3  1  0  0  0  0
  4  5  2  0  0  0  0
  5  1  1  0  0  0  0
  6  4  1  0  0  0  0
  8  6  1  0  0  0  0
  9  6  1  0  0  0  0
 10 13  1  0  0  0  0
 10 11  1  0  0  0  0
 10  3  1  0  0  0  0
 12 10  1  0  0  0  0
 13 24  1  0  0  0  0
 14 16  2  0  0  0  0
 14 13  1  0  0  0  0
 15 14  1  0  0  0  0
 16 17  1  0  0  0  0
 17 24  2  0  0  0  0
 17 18  1  0  0  0  0
 18 20  2  0  0  0  0
 19 18  1  0  0  0  0
 20 21  1  0  0  0  0
 21 22  1  0  0  0  0
 23 21  2  0  0  0  0
 24 23  1  0  0  0  0
 25 28  1  0  0  0  0
 26 25  2  0  0  0  0
 27 32  1  0  0  0  0
 28 27  2  0  0  0  0
 28 29  1  0  0  0  0
 29 30  2  0  0  0  0
 30 31  1  0  0  0  0
 31 34  1  0  0  0  0
 32 31  2  0  0  0  0
 33 27  1  0  0  0  0
 35 36  2  0  0  0  0
 35 29  1  0  0  0  0
 36 40  1  0  0  0  0
 37 41  1  0  0  0  0
 37 36  1  0  0  0  0
 38 37  2  0  0  0  0
 39 38  1  0  0  0  0
 39 35  1  0  0  0  0
 42 38  1  0  0  0  0
M  END
>  <minimizedAffinity>
-6.05197811

>  <minimizedRMSD>
1.79263556

$$$$
