
 OpenBabel03242511123D

 47 52  0  0  1  0  0  0  0  0999 V2000
   50.1440   32.1450   41.6930 C   0  0  1  0  0  0  0  0  0  0  0  0
   49.2520   31.8660   40.5160 C   0  0  0  0  0  0  0  0  0  0  0  0
   48.7290   31.9050   41.9770 C   0  0  2  0  0  0  0  0  0  0  0  0
   50.4920   33.1730   41.7770 H   0  0  0  0  0  0  0  0  0  0  0  0
   49.3420   30.8450   40.0760 H   0  0  0  0  0  0  0  0  0  0  0  0
   48.9290   32.6820   39.8600 H   0  0  0  0  0  0  0  0  0  0  0  0
   48.4210   30.9350   42.3870 H   0  0  0  0  0  0  0  0  0  0  0  0
   51.9850   29.6110   43.6750 C   0  0  0  0  0  0  0  0  0  0  0  0
   53.0350   29.2380   42.7620 C   0  0  0  0  0  0  0  0  0  0  0  0
   53.0720   29.8750   41.4840 C   0  0  0  0  0  0  0  0  0  0  0  0
   52.1430   30.7840   41.1860 N   0  0  0  0  0  0  0  0  0  0  0  0
   51.1670   31.1050   42.0840 C   0  0  0  0  0  0  0  0  0  0  0  0
   51.0750   30.5280   43.3300 N   0  0  0  0  0  0  0  0  0  0  0  0
   51.9480   29.1410   44.6300 H   0  0  0  0  0  0  0  0  0  0  0  0
   53.7560   28.4920   43.0700 H   0  0  0  0  0  0  0  0  0  0  0  0
   54.1110   29.5010   40.5880 N   0  0  0  0  0  0  0  0  0  0  0  0
   54.9310   28.4780   40.9390 C   0  0  0  0  0  0  0  0  0  0  0  0
   54.9800   27.8280   41.8170 H   0  0  0  0  0  0  0  0  0  0  0  0
   55.8330   28.3070   39.9380 N   0  0  0  0  0  0  0  0  0  0  0  0
   55.5980   29.1950   38.9740 C   0  0  0  0  0  0  0  0  0  0  0  0
   56.1060   29.5580   37.7420 C   0  0  0  0  0  0  0  0  0  0  0  0
   56.9710   28.9710   37.3960 H   0  0  0  0  0  0  0  0  0  0  0  0
   55.5900   30.5640   36.9910 N   0  0  0  0  0  0  0  0  0  0  0  0
   54.5180   31.2480   37.4840 C   0  0  0  0  0  0  0  0  0  0  0  0
   54.1510   32.0500   36.8260 H   0  0  0  0  0  0  0  0  0  0  0  0
   53.9360   30.9760   38.6860 N   0  0  0  0  0  0  0  0  0  0  0  0
   54.5040   29.9520   39.3870 C   0  0  0  0  0  0  0  0  0  0  0  0
   47.8960   33.0130   42.3310 N   0  0  0  0  0  0  0  0  0  0  0  0
   47.9970   33.6710   41.5350 H   0  0  0  0  0  0  0  0  0  0  0  0
   47.1840   33.0570   43.5390 C   0  0  0  0  0  0  0  0  0  0  0  0
   47.4290   32.1090   44.4980 C   0  0  0  0  0  0  0  0  0  0  0  0
   46.8200   32.1290   45.7480 C   0  0  0  0  0  0  0  0  0  0  0  0
   45.9280   33.1220   46.0810 C   0  0  0  0  0  0  0  0  0  0  0  0
   45.6650   34.0850   45.1320 C   0  0  0  0  0  0  0  0  0  0  0  0
   44.7790   35.1000   45.4450 C   0  0  0  0  0  0  0  0  0  0  0  0
   44.4770   36.0870   44.5610 C   0  0  0  0  0  0  0  0  0  0  0  0
   45.1000   36.0310   43.3180 C   0  0  0  0  0  0  0  0  0  0  0  0
   45.9730   35.0220   43.0240 C   0  0  0  0  0  0  0  0  0  0  0  0
   46.2850   34.0330   43.9030 C   0  0  0  0  0  0  0  0  0  0  0  0
   48.1310   31.2950   44.2870 H   0  0  0  0  0  0  0  0  0  0  0  0
   47.0720   31.3410   46.4450 H   0  0  0  0  0  0  0  0  0  0  0  0
   45.4730   33.1080   47.0650 H   0  0  0  0  0  0  0  0  0  0  0  0
   44.3250   35.0930   46.4190 H   0  0  0  0  0  0  0  0  0  0  0  0
   43.7760   36.8510   44.8730 H   0  0  0  0  0  0  0  0  0  0  0  0
   44.8360   36.8360   42.6270 H   0  0  0  0  0  0  0  0  0  0  0  0
   46.5510   35.0110   41.7760 O   0  0  0  0  0  0  0  0  0  0  0  0
   46.9970   35.8500   41.4360 H   0  0  0  0  0  0  0  0  0  0  0  0
  1  4  1  1  0  0  0
  1  3  1  0  0  0  0
  1 12  1  0  0  0  0
  2  1  1  0  0  0  0
  2  3  1  0  0  0  0
  3 28  1  0  0  0  0
  3  7  1  1  0  0  0
  5  2  1  0  0  0  0
  6  2  1  0  0  0  0
  8 14  1  0  0  0  0
  9 15  1  0  0  0  0
  9  8  2  0  0  0  0
 10  9  1  0  0  0  0
 11 10  2  0  0  0  0
 11 12  1  0  0  0  0
 12 13  2  0  0  0  0
 13  8  1  0  0  0  0
 16 17  1  0  0  0  0
 16 10  1  0  0  0  0
 17 18  1  0  0  0  0
 19 17  2  0  0  0  0
 20 27  1  0  0  0  0
 20 19  1  0  0  0  0
 21 20  2  0  0  0  0
 22 21  1  0  0  0  0
 23 24  2  0  0  0  0
 23 21  1  0  0  0  0
 24 26  1  0  0  0  0
 25 24  1  0  0  0  0
 26 27  2  0  0  0  0
 27 16  1  0  0  0  0
 28 30  1  0  0  0  0
 29 28  1  0  0  0  0
 30 39  2  0  0  0  0
 30 31  1  0  0  0  0
 31 32  2  0  0  0  0
 32 33  1  0  0  0  0
 32 41  1  0  0  0  0
 33 42  1  0  0  0  0
 34 35  1  0  0  0  0
 34 33  2  0  0  0  0
 35 43  1  0  0  0  0
 36 44  1  0  0  0  0
 36 35  2  0  0  0  0
 37 36  1  0  0  0  0
 38 37  2  0  0  0  0
 38 39  1  0  0  0  0
 39 34  1  0  0  0  0
 40 31  1  0  0  0  0
 45 37  1  0  0  0  0
 46 38  1  0  0  0  0
 47 46  1  0  0  0  0
M  END
>  <minimizedAffinity>
-5.94155979

>  <minimizedRMSD>
4.16753197

$$$$
