
 OpenBabel03242517493D

 46 50  0  0  0  0  0  0  0  0999 V2000
   38.4270   29.4090   40.7120 C   0  0  0  0  0  0  0  0  0  0  0  0
   37.1520   29.2640   41.3010 C   0  0  0  0  0  0  0  0  0  0  0  0
   36.2960   30.3410   41.2680 C   0  0  0  0  0  0  0  0  0  0  0  0
   36.7100   31.4830   40.6780 N   0  0  0  0  0  0  0  0  0  0  0  0
   37.9330   31.6000   40.1220 C   0  0  0  0  0  0  0  0  0  0  0  0
   38.8040   30.5990   40.1200 N   0  0  0  0  0  0  0  0  0  0  0  0
   39.0890   28.5510   40.7470 H   0  0  0  0  0  0  0  0  0  0  0  0
   35.3020   30.2480   41.7200 H   0  0  0  0  0  0  0  0  0  0  0  0
   38.3220   32.8800   39.4920 C   0  0  0  0  0  0  0  0  0  0  0  0
   37.8710   33.7350   39.9940 H   0  0  0  0  0  0  0  0  0  0  0  0
   37.9710   32.9090   38.4250 H   0  0  0  0  0  0  0  0  0  0  0  0
   39.8430   33.0240   39.3760 C   0  0  0  0  0  0  0  0  0  0  0  0
   40.3620   32.2350   39.9400 H   0  0  0  0  0  0  0  0  0  0  0  0
   40.1630   33.1020   38.3380 H   0  0  0  0  0  0  0  0  0  0  0  0
   40.1250   34.3110   40.0340 N   0  0  0  0  0  0  0  0  0  0  0  0
   39.2890   35.3890   40.0070 C   0  0  0  0  0  0  0  0  0  0  0  0
   38.3290   35.4410   39.5090 H   0  0  0  0  0  0  0  0  0  0  0  0
   39.8260   36.4160   40.7010 N   0  0  0  0  0  0  0  0  0  0  0  0
   41.0200   35.9920   41.1790 C   0  0  0  0  0  0  0  0  0  0  0  0
   42.0150   36.5670   41.9420 C   0  0  0  0  0  0  0  0  0  0  0  0
   41.9120   37.5930   42.2900 H   0  0  0  0  0  0  0  0  0  0  0  0
   43.1320   35.8510   42.2640 N   0  0  0  0  0  0  0  0  0  0  0  0
   43.2480   34.5650   41.8210 C   0  0  0  0  0  0  0  0  0  0  0  0
   44.1790   34.1270   42.1510 H   0  0  0  0  0  0  0  0  0  0  0  0
   42.2920   34.0080   41.0850 N   0  0  0  0  0  0  0  0  0  0  0  0
   41.1980   34.6890   40.7620 C   0  0  0  0  0  0  0  0  0  0  0  0
   36.6920   27.7270   42.0540 S   0  0  0  0  0  0  0  0  0  0  0  0
   38.1370   26.8600   42.6110 C   0  0  0  0  0  0  0  0  0  0  0  0
   38.9650   27.3110   43.6270 C   0  0  0  0  0  0  0  0  0  0  0  0
   40.0760   26.5790   44.0070 C   0  0  0  0  0  0  0  0  0  0  0  0
   40.3830   25.3930   43.3870 C   0  0  0  0  0  0  0  0  0  0  0  0
   39.5630   24.9480   42.3830 C   0  0  0  0  0  0  0  0  0  0  0  0
   38.4450   25.6570   41.9800 C   0  0  0  0  0  0  0  0  0  0  0  0
   38.6930   28.2550   44.0960 H   0  0  0  0  0  0  0  0  0  0  0  0
   40.6390   27.0370   44.8090 H   0  0  0  0  0  0  0  0  0  0  0  0
   41.2660   24.8740   43.7350 H   0  0  0  0  0  0  0  0  0  0  0  0
   39.8330   24.0100   41.9160 H   0  0  0  0  0  0  0  0  0  0  0  0
   37.5890   25.1710   40.9150 C   0  0  0  0  0  0  0  0  0  0  0  0
   36.6370   24.2140   41.0600 C   0  0  0  0  0  0  0  0  0  0  0  0
   35.8230   23.7660   40.0110 C   0  0  0  0  0  0  0  0  0  0  0  0
   35.9880   24.3080   38.7960 N   0  0  0  0  0  0  0  0  0  0  0  0
   36.9280   25.2570   38.6460 C   0  0  0  0  0  0  0  0  0  0  0  0
   37.7100   25.6840   39.6660 N   0  0  0  0  0  0  0  0  0  0  0  0
   36.4910   23.7680   42.0300 H   0  0  0  0  0  0  0  0  0  0  0  0
   35.0890   22.9920   40.2390 H   0  0  0  0  0  0  0  0  0  0  0  0
   37.1480   25.7630   37.7120 H   0  0  0  0  0  0  0  0  0  0  0  0
  1  7  1  0  0  0  0
  1  2  1  0  0  0  0
  2 27  1  0  0  0  0
  3  2  2  0  0  0  0
  3  8  1  0  0  0  0
  4  3  1  0  0  0  0
  5  4  2  0  0  0  0
  6  5  1  0  0  0  0
  6  1  2  0  0  0  0
  9 10  1  0  0  0  0
  9  5  1  0  0  0  0
 11  9  1  0  0  0  0
 12  9  1  0  0  0  0
 12 13  1  0  0  0  0
 12 15  1  0  0  0  0
 14 12  1  0  0  0  0
 15 26  1  0  0  0  0
 16 15  1  0  0  0  0
 16 18  2  0  0  0  0
 17 16  1  0  0  0  0
 18 19  1  0  0  0  0
 19 20  1  0  0  0  0
 20 22  2  0  0  0  0
 20 21  1  0  0  0  0
 23 24  1  0  0  0  0
 23 22  1  0  0  0  0
 25 23  2  0  0  0  0
 26 25  1  0  0  0  0
 26 19  2  0  0  0  0
 27 28  1  0  0  0  0
 28 29  1  0  0  0  0
 29 30  2  0  0  0  0
 29 34  1  0  0  0  0
 30 35  1  0  0  0  0
 31 36  1  0  0  0  0
 31 30  1  0  0  0  0
 32 31  2  0  0  0  0
 33 32  1  0  0  0  0
 33 28  2  0  0  0  0
 37 32  1  0  0  0  0
 38 39  1  0  0  0  0
 38 33  1  0  0  0  0
 39 44  1  0  0  0  0
 40 45  1  0  0  0  0
 40 39  2  0  0  0  0
 41 40  1  0  0  0  0
 42 41  2  0  0  0  0
 42 43  1  0  0  0  0
 43 38  2  0  0  0  0
 46 42  1  0  0  0  0
M  END
>  <minimizedAffinity>
-6.88899565

$$$$

 OpenBabel03242517493D

 46 50  0  0  0  0  0  0  0  0999 V2000
   39.1780   30.2830   42.5000 C   0  0  0  0  0  0  0  0  0  0  0  0
   38.0610   29.4200   42.5230 C   0  0  0  0  0  0  0  0  0  0  0  0
   37.0210   29.6830   41.6630 C   0  0  0  0  0  0  0  0  0  0  0  0
   37.1110   30.7500   40.8390 N   0  0  0  0  0  0  0  0  0  0  0  0
   38.1880   31.5610   40.8350 C   0  0  0  0  0  0  0  0  0  0  0  0
   39.2240   31.3620   41.6380 N   0  0  0  0  0  0  0  0  0  0  0  0
   39.9900   30.0610   43.1840 H   0  0  0  0  0  0  0  0  0  0  0  0
   36.1440   29.0240   41.6660 H   0  0  0  0  0  0  0  0  0  0  0  0
   38.2220   32.7120   39.9060 C   0  0  0  0  0  0  0  0  0  0  0  0
   37.7520   33.5960   40.3350 H   0  0  0  0  0  0  0  0  0  0  0  0
   37.6570   32.4680   38.9660 H   0  0  0  0  0  0  0  0  0  0  0  0
   39.6410   33.0060   39.4080 C   0  0  0  0  0  0  0  0  0  0  0  0
   40.3580   32.2600   39.7830 H   0  0  0  0  0  0  0  0  0  0  0  0
   39.6710   33.1360   38.3280 H   0  0  0  0  0  0  0  0  0  0  0  0
   39.9690   34.3010   40.0290 N   0  0  0  0  0  0  0  0  0  0  0  0
   39.1610   35.4000   39.9910 C   0  0  0  0  0  0  0  0  0  0  0  0
   38.1940   35.4650   39.5110 H   0  0  0  0  0  0  0  0  0  0  0  0
   39.7390   36.4290   40.6490 N   0  0  0  0  0  0  0  0  0  0  0  0
   40.9310   35.9850   41.1140 C   0  0  0  0  0  0  0  0  0  0  0  0
   41.9560   36.5510   41.8430 C   0  0  0  0  0  0  0  0  0  0  0  0
   41.8860   37.5880   42.1670 H   0  0  0  0  0  0  0  0  0  0  0  0
   43.0600   35.8140   42.1610 N   0  0  0  0  0  0  0  0  0  0  0  0
   43.1340   34.5150   41.7480 C   0  0  0  0  0  0  0  0  0  0  0  0
   44.0590   34.0610   42.0710 H   0  0  0  0  0  0  0  0  0  0  0  0
   42.1490   33.9660   41.0450 N   0  0  0  0  0  0  0  0  0  0  0  0
   41.0670   34.6680   40.7270 C   0  0  0  0  0  0  0  0  0  0  0  0
   38.0270   28.0420   43.6380 S   0  0  0  0  0  0  0  0  0  0  0  0
   38.0440   26.5170   42.7300 C   0  0  0  0  0  0  0  0  0  0  0  0
   36.9020   25.8780   42.2710 C   0  0  0  0  0  0  0  0  0  0  0  0
   36.9950   24.6900   41.5690 C   0  0  0  0  0  0  0  0  0  0  0  0
   38.2160   24.1180   41.3110 C   0  0  0  0  0  0  0  0  0  0  0  0
   39.3430   24.7500   41.7650 C   0  0  0  0  0  0  0  0  0  0  0  0
   39.2850   25.9390   42.4700 C   0  0  0  0  0  0  0  0  0  0  0  0
   35.9510   26.3590   42.4930 H   0  0  0  0  0  0  0  0  0  0  0  0
   36.0340   24.2930   41.2670 H   0  0  0  0  0  0  0  0  0  0  0  0
   38.2130   23.1890   40.7570 H   0  0  0  0  0  0  0  0  0  0  0  0
   40.2900   24.2740   41.5460 H   0  0  0  0  0  0  0  0  0  0  0  0
   40.4880   26.5960   42.9430 C   0  0  0  0  0  0  0  0  0  0  0  0
   40.9950   26.4780   44.1970 C   0  0  0  0  0  0  0  0  0  0  0  0
   42.1630   27.1250   44.6250 C   0  0  0  0  0  0  0  0  0  0  0  0
   42.8190   27.9040   43.7530 N   0  0  0  0  0  0  0  0  0  0  0  0
   42.3230   28.0240   42.5090 C   0  0  0  0  0  0  0  0  0  0  0  0
   41.1940   27.3950   42.1060 N   0  0  0  0  0  0  0  0  0  0  0  0
   40.4800   25.8550   44.9100 H   0  0  0  0  0  0  0  0  0  0  0  0
   42.4800   26.9600   45.6550 H   0  0  0  0  0  0  0  0  0  0  0  0
   42.7680   28.6250   41.7250 H   0  0  0  0  0  0  0  0  0  0  0  0
  1  2  1  0  0  0  0
  1  7  1  0  0  0  0
  2 27  1  0  0  0  0
  3  8  1  0  0  0  0
  3  2  2  0  0  0  0
  4  3  1  0  0  0  0
  5  4  2  0  0  0  0
  5  6  1  0  0  0  0
  6  1  2  0  0  0  0
  9 10  1  0  0  0  0
  9  5  1  0  0  0  0
 11  9  1  0  0  0  0
 12 13  1  0  0  0  0
 12  9  1  0  0  0  0
 12 15  1  0  0  0  0
 14 12  1  0  0  0  0
 15 26  1  0  0  0  0
 16 15  1  0  0  0  0
 16 18  2  0  0  0  0
 17 16  1  0  0  0  0
 18 19  1  0  0  0  0
 19 20  1  0  0  0  0
 20 22  2  0  0  0  0
 20 21  1  0  0  0  0
 23 24  1  0  0  0  0
 23 22  1  0  0  0  0
 25 23  2  0  0  0  0
 26 25  1  0  0  0  0
 26 19  2  0  0  0  0
 28 27  1  0  0  0  0
 29 34  1  0  0  0  0
 29 28  2  0  0  0  0
 30 29  1  0  0  0  0
 31 30  2  0  0  0  0
 31 32  1  0  0  0  0
 32 33  2  0  0  0  0
 33 28  1  0  0  0  0
 33 38  1  0  0  0  0
 35 30  1  0  0  0  0
 36 31  1  0  0  0  0
 37 32  1  0  0  0  0
 38 39  1  0  0  0  0
 39 40  2  0  0  0  0
 39 44  1  0  0  0  0
 40 45  1  0  0  0  0
 41 40  1  0  0  0  0
 42 41  2  0  0  0  0
 43 42  1  0  0  0  0
 43 38  2  0  0  0  0
 46 42  1  0  0  0  0
M  END
>  <minimizedAffinity>
-6.78873158

$$$$

 OpenBabel03242517493D

 46 50  0  0  0  0  0  0  0  0999 V2000
   38.7350   30.1940   39.5740 C   0  0  0  0  0  0  0  0  0  0  0  0
   39.5140   30.8990   40.5170 C   0  0  0  0  0  0  0  0  0  0  0  0
   39.2390   30.7170   41.8520 C   0  0  0  0  0  0  0  0  0  0  0  0
   38.2410   29.8760   42.2020 N   0  0  0  0  0  0  0  0  0  0  0  0
   37.5090   29.2130   41.2840 C   0  0  0  0  0  0  0  0  0  0  0  0
   37.7240   29.3450   39.9810 N   0  0  0  0  0  0  0  0  0  0  0  0
   38.9660   30.3500   38.5260 H   0  0  0  0  0  0  0  0  0  0  0  0
   39.8330   31.2550   42.6000 H   0  0  0  0  0  0  0  0  0  0  0  0
   36.4300   28.3070   41.7360 C   0  0  0  0  0  0  0  0  0  0  0  0
   36.2100   27.5360   40.9980 H   0  0  0  0  0  0  0  0  0  0  0  0
   35.4810   28.8850   41.8940 H   0  0  0  0  0  0  0  0  0  0  0  0
   36.7240   27.7080   43.1150 C   0  0  0  0  0  0  0  0  0  0  0  0
   37.2970   28.4100   43.7400 H   0  0  0  0  0  0  0  0  0  0  0  0
   35.8200   27.3350   43.5940 H   0  0  0  0  0  0  0  0  0  0  0  0
   37.5900   26.5540   42.8200 N   0  0  0  0  0  0  0  0  0  0  0  0
   37.1780   25.4310   42.1630 C   0  0  0  0  0  0  0  0  0  0  0  0
   36.1840   25.2430   41.7800 H   0  0  0  0  0  0  0  0  0  0  0  0
   38.2010   24.5550   42.0480 N   0  0  0  0  0  0  0  0  0  0  0  0
   39.2790   25.1230   42.6380 C   0  0  0  0  0  0  0  0  0  0  0  0
   40.5870   24.7330   42.8390 C   0  0  0  0  0  0  0  0  0  0  0  0
   40.9300   23.7650   42.4780 H   0  0  0  0  0  0  0  0  0  0  0  0
   41.4560   25.5610   43.4900 N   0  0  0  0  0  0  0  0  0  0  0  0
   41.0130   26.7720   43.9370 C   0  0  0  0  0  0  0  0  0  0  0  0
   41.8070   27.3140   44.4310 H   0  0  0  0  0  0  0  0  0  0  0  0
   39.7530   27.1510   43.7450 N   0  0  0  0  0  0  0  0  0  0  0  0
   38.8940   26.3590   43.1130 C   0  0  0  0  0  0  0  0  0  0  0  0
   40.8050   31.9820   39.9680 S   0  0  0  0  0  0  0  0  0  0  0  0
   40.2500   33.6680   40.0040 C   0  0  0  0  0  0  0  0  0  0  0  0
   38.9220   34.0410   40.1480 C   0  0  0  0  0  0  0  0  0  0  0  0
   38.5660   35.3780   40.1660 C   0  0  0  0  0  0  0  0  0  0  0  0
   39.5150   36.3620   40.0440 C   0  0  0  0  0  0  0  0  0  0  0  0
   40.8260   35.9910   39.9020 C   0  0  0  0  0  0  0  0  0  0  0  0
   41.2160   34.6640   39.8790 C   0  0  0  0  0  0  0  0  0  0  0  0
   38.1960   33.2350   40.2420 H   0  0  0  0  0  0  0  0  0  0  0  0
   37.5010   35.5360   40.2840 H   0  0  0  0  0  0  0  0  0  0  0  0
   39.1640   37.3840   40.0670 H   0  0  0  0  0  0  0  0  0  0  0  0
   41.5500   36.7900   39.8070 H   0  0  0  0  0  0  0  0  0  0  0  0
   42.6090   34.2890   39.7280 C   0  0  0  0  0  0  0  0  0  0  0  0
   43.2110   34.0010   38.5460 C   0  0  0  0  0  0  0  0  0  0  0  0
   44.5620   33.6430   38.4320 C   0  0  0  0  0  0  0  0  0  0  0  0
   45.3040   33.5790   39.5470 N   0  0  0  0  0  0  0  0  0  0  0  0
   44.7130   33.8630   40.7210 C   0  0  0  0  0  0  0  0  0  0  0  0
   43.4070   34.2090   40.8200 N   0  0  0  0  0  0  0  0  0  0  0  0
   42.6300   34.0480   37.6400 H   0  0  0  0  0  0  0  0  0  0  0  0
   44.9430   33.4320   37.4320 H   0  0  0  0  0  0  0  0  0  0  0  0
   45.2140   33.8430   41.6820 H   0  0  0  0  0  0  0  0  0  0  0  0
  1  6  2  0  0  0  0
  1  2  1  0  0  0  0
  2  3  2  0  0  0  0
  3  4  1  0  0  0  0
  3  8  1  0  0  0  0
  5  9  1  0  0  0  0
  5  4  2  0  0  0  0
  6  5  1  0  0  0  0
  7  1  1  0  0  0  0
  9 11  1  0  0  0  0
  9 12  1  0  0  0  0
 10  9  1  0  0  0  0
 12 14  1  0  0  0  0
 12 13  1  0  0  0  0
 15 26  1  0  0  0  0
 15 12  1  0  0  0  0
 16 15  1  0  0  0  0
 17 16  1  0  0  0  0
 18 16  2  0  0  0  0
 18 19  1  0  0  0  0
 19 20  2  0  0  0  0
 19 26  1  0  0  0  0
 20 22  1  0  0  0  0
 21 20  1  0  0  0  0
 22 23  2  0  0  0  0
 23 24  1  0  0  0  0
 25 23  1  0  0  0  0
 26 25  2  0  0  0  0
 27 28  1  0  0  0  0
 27  2  1  0  0  0  0
 28 29  1  0  0  0  0
 29 30  2  0  0  0  0
 29 34  1  0  0  0  0
 30 35  1  0  0  0  0
 31 36  1  0  0  0  0
 31 30  1  0  0  0  0
 32 31  2  0  0  0  0
 33 32  1  0  0  0  0
 33 28  2  0  0  0  0
 37 32  1  0  0  0  0
 38 33  1  0  0  0  0
 38 43  1  0  0  0  0
 39 38  2  0  0  0  0
 40 39  1  0  0  0  0
 40 41  2  0  0  0  0
 41 42  1  0  0  0  0
 42 43  2  0  0  0  0
 42 46  1  0  0  0  0
 44 39  1  0  0  0  0
 45 40  1  0  0  0  0
M  END
>  <minimizedAffinity>
-6.53820038

$$$$

 OpenBabel03242517493D

 46 50  0  0  0  0  0  0  0  0999 V2000
   38.4990   29.7020   42.4310 C   0  0  0  0  0  0  0  0  0  0  0  0
   37.2620   29.3130   41.8740 C   0  0  0  0  0  0  0  0  0  0  0  0
   36.8650   28.0050   42.0250 C   0  0  0  0  0  0  0  0  0  0  0  0
   37.6720   27.1530   42.6950 N   0  0  0  0  0  0  0  0  0  0  0  0
   38.8500   27.5460   43.2180 C   0  0  0  0  0  0  0  0  0  0  0  0
   39.2900   28.7930   43.1080 N   0  0  0  0  0  0  0  0  0  0  0  0
   38.7970   30.7370   42.3020 H   0  0  0  0  0  0  0  0  0  0  0  0
   35.9070   27.6830   41.6000 H   0  0  0  0  0  0  0  0  0  0  0  0
   39.6850   26.5620   43.9410 C   0  0  0  0  0  0  0  0  0  0  0  0
   39.4490   26.5290   45.0040 H   0  0  0  0  0  0  0  0  0  0  0  0
   40.7700   26.8400   43.8580 H   0  0  0  0  0  0  0  0  0  0  0  0
   39.6180   25.1720   43.3000 C   0  0  0  0  0  0  0  0  0  0  0  0
   39.8950   24.3870   44.0210 H   0  0  0  0  0  0  0  0  0  0  0  0
   38.6610   24.9980   42.8110 H   0  0  0  0  0  0  0  0  0  0  0  0
   40.6580   25.2150   42.2580 N   0  0  0  0  0  0  0  0  0  0  0  0
   41.9950   25.3200   42.5090 C   0  0  0  0  0  0  0  0  0  0  0  0
   42.4590   25.3840   43.4850 H   0  0  0  0  0  0  0  0  0  0  0  0
   42.6890   25.3350   41.3500 N   0  0  0  0  0  0  0  0  0  0  0  0
   41.7880   25.2380   40.3450 C   0  0  0  0  0  0  0  0  0  0  0  0
   41.8740   25.2020   38.9690 C   0  0  0  0  0  0  0  0  0  0  0  0
   42.8460   25.2570   38.4820 H   0  0  0  0  0  0  0  0  0  0  0  0
   40.7420   25.0960   38.2130 N   0  0  0  0  0  0  0  0  0  0  0  0
   39.5300   25.0270   38.8370 C   0  0  0  0  0  0  0  0  0  0  0  0
   38.7300   24.9470   38.1150 H   0  0  0  0  0  0  0  0  0  0  0  0
   39.4420   25.0620   40.1630 N   0  0  0  0  0  0  0  0  0  0  0  0
   40.5330   25.1650   40.9140 C   0  0  0  0  0  0  0  0  0  0  0  0
   36.2660   30.4980   41.0100 S   0  0  0  0  0  0  0  0  0  0  0  0
   36.3750   30.2310   39.2590 C   0  0  0  0  0  0  0  0  0  0  0  0
   35.6540   29.2610   38.5790 C   0  0  0  0  0  0  0  0  0  0  0  0
   35.7930   29.1130   37.2100 C   0  0  0  0  0  0  0  0  0  0  0  0
   36.6430   29.9210   36.4970 C   0  0  0  0  0  0  0  0  0  0  0  0
   37.3540   30.8790   37.1710 C   0  0  0  0  0  0  0  0  0  0  0  0
   37.2390   31.0530   38.5390 C   0  0  0  0  0  0  0  0  0  0  0  0
   34.9900   28.6390   39.1760 H   0  0  0  0  0  0  0  0  0  0  0  0
   35.1780   28.3230   36.8000 H   0  0  0  0  0  0  0  0  0  0  0  0
   36.7010   29.7480   35.4310 H   0  0  0  0  0  0  0  0  0  0  0  0
   38.0160   31.4990   36.5790 H   0  0  0  0  0  0  0  0  0  0  0  0
   37.9990   32.0720   39.2360 C   0  0  0  0  0  0  0  0  0  0  0  0
   37.5500   33.3240   39.5080 C   0  0  0  0  0  0  0  0  0  0  0  0
   38.3090   34.2880   40.1860 C   0  0  0  0  0  0  0  0  0  0  0  0
   39.5460   33.9630   40.5890 N   0  0  0  0  0  0  0  0  0  0  0  0
   39.9960   32.7250   40.3220 C   0  0  0  0  0  0  0  0  0  0  0  0
   39.2550   31.8000   39.6670 N   0  0  0  0  0  0  0  0  0  0  0  0
   36.5580   33.6020   39.1920 H   0  0  0  0  0  0  0  0  0  0  0  0
   37.8490   35.2640   40.3520 H   0  0  0  0  0  0  0  0  0  0  0  0
   40.9760   32.3540   40.6000 H   0  0  0  0  0  0  0  0  0  0  0  0
  1  6  1  0  0  0  0
  2  3  1  0  0  0  0
  2  1  2  0  0  0  0
  3  4  2  0  0  0  0
  4  5  1  0  0  0  0
  5  9  1  0  0  0  0
  6  5  2  0  0  0  0
  7  1  1  0  0  0  0
  8  3  1  0  0  0  0
  9 10  1  0  0  0  0
 11  9  1  0  0  0  0
 12  9  1  0  0  0  0
 12 13  1  0  0  0  0
 14 12  1  0  0  0  0
 15 16  1  0  0  0  0
 15 12  1  0  0  0  0
 16 17  1  0  0  0  0
 18 16  2  0  0  0  0
 19 26  1  0  0  0  0
 19 18  1  0  0  0  0
 20 19  2  0  0  0  0
 21 20  1  0  0  0  0
 22 23  2  0  0  0  0
 22 20  1  0  0  0  0
 23 25  1  0  0  0  0
 24 23  1  0  0  0  0
 25 26  2  0  0  0  0
 26 15  1  0  0  0  0
 27  2  1  0  0  0  0
 28 27  1  0  0  0  0
 29 34  1  0  0  0  0
 29 28  1  0  0  0  0
 30 29  2  0  0  0  0
 31 32  2  0  0  0  0
 31 30  1  0  0  0  0
 32 33  1  0  0  0  0
 33 38  1  0  0  0  0
 33 28  2  0  0  0  0
 35 30  1  0  0  0  0
 36 31  1  0  0  0  0
 37 32  1  0  0  0  0
 38 39  2  0  0  0  0
 38 43  1  0  0  0  0
 39 40  1  0  0  0  0
 40 45  1  0  0  0  0
 40 41  2  0  0  0  0
 42 41  1  0  0  0  0
 42 46  1  0  0  0  0
 43 42  2  0  0  0  0
 44 39  1  0  0  0  0
M  END
>  <minimizedAffinity>
-6.18402052

$$$$

 OpenBabel03242517493D

 46 50  0  0  0  0  0  0  0  0999 V2000
   40.0750   31.4270   39.6180 C   0  0  0  0  0  0  0  0  0  0  0  0
   38.7570   30.9530   39.4460 C   0  0  0  0  0  0  0  0  0  0  0  0
   37.7200   31.8330   39.6530 C   0  0  0  0  0  0  0  0  0  0  0  0
   38.0060   33.1030   40.0120 N   0  0  0  0  0  0  0  0  0  0  0  0
   39.2740   33.5340   40.1720 C   0  0  0  0  0  0  0  0  0  0  0  0
   40.3170   32.7360   39.9860 N   0  0  0  0  0  0  0  0  0  0  0  0
   40.8810   30.7200   39.4500 H   0  0  0  0  0  0  0  0  0  0  0  0
   36.6880   31.4840   39.5240 H   0  0  0  0  0  0  0  0  0  0  0  0
   39.5160   34.9390   40.5660 C   0  0  0  0  0  0  0  0  0  0  0  0
   39.5380   35.0610   41.6480 H   0  0  0  0  0  0  0  0  0  0  0  0
   38.6910   35.5960   40.1820 H   0  0  0  0  0  0  0  0  0  0  0  0
   40.7730   35.5120   39.9030 C   0  0  0  0  0  0  0  0  0  0  0  0
   41.2160   34.7920   39.1990 H   0  0  0  0  0  0  0  0  0  0  0  0
   40.5880   36.4930   39.4670 H   0  0  0  0  0  0  0  0  0  0  0  0
   41.7130   35.6850   41.0240 N   0  0  0  0  0  0  0  0  0  0  0  0
   41.5560   36.5990   42.0250 C   0  0  0  0  0  0  0  0  0  0  0  0
   40.7400   37.3010   42.1280 H   0  0  0  0  0  0  0  0  0  0  0  0
   42.5820   36.5130   42.9010 N   0  0  0  0  0  0  0  0  0  0  0  0
   43.4050   35.5340   42.4560 C   0  0  0  0  0  0  0  0  0  0  0  0
   44.5900   34.9890   42.9050 C   0  0  0  0  0  0  0  0  0  0  0  0
   45.0500   35.3630   43.8180 H   0  0  0  0  0  0  0  0  0  0  0  0
   45.1880   33.9800   42.2070 N   0  0  0  0  0  0  0  0  0  0  0  0
   44.5990   33.5220   41.0640 C   0  0  0  0  0  0  0  0  0  0  0  0
   45.1830   32.7280   40.6220 H   0  0  0  0  0  0  0  0  0  0  0  0
   43.4580   34.0450   40.6280 N   0  0  0  0  0  0  0  0  0  0  0  0
   42.8610   35.0270   41.2940 C   0  0  0  0  0  0  0  0  0  0  0  0
   38.4740   29.2690   38.9720 S   0  0  0  0  0  0  0  0  0  0  0  0
   38.2890   28.2490   40.4130 C   0  0  0  0  0  0  0  0  0  0  0  0
   39.2950   28.0340   41.3420 C   0  0  0  0  0  0  0  0  0  0  0  0
   39.0750   27.2250   42.4430 C   0  0  0  0  0  0  0  0  0  0  0  0
   37.8600   26.6180   42.6390 C   0  0  0  0  0  0  0  0  0  0  0  0
   36.8670   26.8320   41.7200 C   0  0  0  0  0  0  0  0  0  0  0  0
   37.0540   27.6350   40.6090 C   0  0  0  0  0  0  0  0  0  0  0  0
   40.2460   28.5300   41.1550 H   0  0  0  0  0  0  0  0  0  0  0  0
   39.9380   27.1380   43.0910 H   0  0  0  0  0  0  0  0  0  0  0  0
   37.7600   25.9990   43.5200 H   0  0  0  0  0  0  0  0  0  0  0  0
   35.9200   26.3390   41.9040 H   0  0  0  0  0  0  0  0  0  0  0  0
   35.9910   27.8500   39.6460 C   0  0  0  0  0  0  0  0  0  0  0  0
   35.0870   28.8620   39.7010 C   0  0  0  0  0  0  0  0  0  0  0  0
   34.0710   29.0450   38.7530 C   0  0  0  0  0  0  0  0  0  0  0  0
   33.9800   28.1770   37.7360 N   0  0  0  0  0  0  0  0  0  0  0  0
   34.8720   27.1730   37.6760 C   0  0  0  0  0  0  0  0  0  0  0  0
   35.8510   27.0050   38.5960 N   0  0  0  0  0  0  0  0  0  0  0  0
   35.1460   29.5690   40.5120 H   0  0  0  0  0  0  0  0  0  0  0  0
   33.3990   29.8930   38.8940 H   0  0  0  0  0  0  0  0  0  0  0  0
   34.8940   26.4150   36.9010 H   0  0  0  0  0  0  0  0  0  0  0  0
  1  6  1  0  0  0  0
  2  1  2  0  0  0  0
  2  3  1  0  0  0  0
  3  4  2  0  0  0  0
  4  5  1  0  0  0  0
  5  9  1  0  0  0  0
  6  5  2  0  0  0  0
  7  1  1  0  0  0  0
  8  3  1  0  0  0  0
  9 10  1  0  0  0  0
 11  9  1  0  0  0  0
 12  9  1  0  0  0  0
 12 15  1  0  0  0  0
 13 12  1  0  0  0  0
 14 12  1  0  0  0  0
 15 26  1  0  0  0  0
 15 16  1  0  0  0  0
 16 17  1  0  0  0  0
 16 18  2  0  0  0  0
 19 18  1  0  0  0  0
 19 20  1  0  0  0  0
 20 21  1  0  0  0  0
 22 20  2  0  0  0  0
 23 22  1  0  0  0  0
 24 23  1  0  0  0  0
 25 23  2  0  0  0  0
 25 26  1  0  0  0  0
 26 19  2  0  0  0  0
 27  2  1  0  0  0  0
 27 28  1  0  0  0  0
 28 33  2  0  0  0  0
 28 29  1  0  0  0  0
 29 30  2  0  0  0  0
 30 31  1  0  0  0  0
 30 35  1  0  0  0  0
 31 36  1  0  0  0  0
 32 37  1  0  0  0  0
 32 31  2  0  0  0  0
 33 32  1  0  0  0  0
 34 29  1  0  0  0  0
 38 39  1  0  0  0  0
 38 33  1  0  0  0  0
 39 44  1  0  0  0  0
 40 45  1  0  0  0  0
 40 39  2  0  0  0  0
 41 40  1  0  0  0  0
 42 41  2  0  0  0  0
 42 43  1  0  0  0  0
 43 38  2  0  0  0  0
 46 42  1  0  0  0  0
M  END
>  <minimizedAffinity>
-6.15343475

$$$$

 OpenBabel03242517493D

 46 50  0  0  0  0  0  0  0  0999 V2000
   37.9820   29.6900   42.5020 C   0  0  0  0  0  0  0  0  0  0  0  0
   37.0410   29.1460   41.6010 C   0  0  0  0  0  0  0  0  0  0  0  0
   37.0000   27.7800   41.4520 C   0  0  0  0  0  0  0  0  0  0  0  0
   37.8570   27.0200   42.1690 N   0  0  0  0  0  0  0  0  0  0  0  0
   38.7490   27.5610   43.0240 C   0  0  0  0  0  0  0  0  0  0  0  0
   38.8390   28.8710   43.2130 N   0  0  0  0  0  0  0  0  0  0  0  0
   38.0010   30.7690   42.6070 H   0  0  0  0  0  0  0  0  0  0  0  0
   36.2750   27.3380   40.7580 H   0  0  0  0  0  0  0  0  0  0  0  0
   39.6580   26.6720   43.7780 C   0  0  0  0  0  0  0  0  0  0  0  0
   39.1810   25.7270   44.0390 H   0  0  0  0  0  0  0  0  0  0  0  0
   39.9630   27.1580   44.7430 H   0  0  0  0  0  0  0  0  0  0  0  0
   40.9870   26.4560   43.0470 C   0  0  0  0  0  0  0  0  0  0  0  0
   41.2930   25.3990   43.0810 H   0  0  0  0  0  0  0  0  0  0  0  0
   40.9680   26.8730   42.0420 H   0  0  0  0  0  0  0  0  0  0  0  0
   41.9550   27.2310   43.8410 N   0  0  0  0  0  0  0  0  0  0  0  0
   42.5300   26.7910   44.9980 C   0  0  0  0  0  0  0  0  0  0  0  0
   42.3560   25.8350   45.4740 H   0  0  0  0  0  0  0  0  0  0  0  0
   43.3710   27.7270   45.4890 N   0  0  0  0  0  0  0  0  0  0  0  0
   43.3340   28.7800   44.6380 C   0  0  0  0  0  0  0  0  0  0  0  0
   43.9580   30.0100   44.5960 C   0  0  0  0  0  0  0  0  0  0  0  0
   44.6570   30.2950   45.3790 H   0  0  0  0  0  0  0  0  0  0  0  0
   43.6990   30.8740   43.5710 N   0  0  0  0  0  0  0  0  0  0  0  0
   42.8200   30.5040   42.5950 C   0  0  0  0  0  0  0  0  0  0  0  0
   42.7150   31.2840   41.8540 H   0  0  0  0  0  0  0  0  0  0  0  0
   42.2170   29.3200   42.6320 N   0  0  0  0  0  0  0  0  0  0  0  0
   42.4570   28.4670   43.6220 C   0  0  0  0  0  0  0  0  0  0  0  0
   35.9530   30.2180   40.7010 S   0  0  0  0  0  0  0  0  0  0  0  0
   36.1780   29.9960   38.9550 C   0  0  0  0  0  0  0  0  0  0  0  0
   35.4990   29.0500   38.2020 C   0  0  0  0  0  0  0  0  0  0  0  0
   35.7280   28.9360   36.8430 C   0  0  0  0  0  0  0  0  0  0  0  0
   36.6320   29.7540   36.2100 C   0  0  0  0  0  0  0  0  0  0  0  0
   37.3020   30.6870   36.9550 C   0  0  0  0  0  0  0  0  0  0  0  0
   37.0960   30.8270   38.3160 C   0  0  0  0  0  0  0  0  0  0  0  0
   34.7910   28.4190   38.7360 H   0  0  0  0  0  0  0  0  0  0  0  0
   35.1370   28.1620   36.3710 H   0  0  0  0  0  0  0  0  0  0  0  0
   36.7600   29.6080   35.1460 H   0  0  0  0  0  0  0  0  0  0  0  0
   38.0070   31.3160   36.4270 H   0  0  0  0  0  0  0  0  0  0  0  0
   37.8150   31.8210   39.0900 C   0  0  0  0  0  0  0  0  0  0  0  0
   37.3670   33.0760   39.3480 C   0  0  0  0  0  0  0  0  0  0  0  0
   38.0840   34.0150   40.1010 C   0  0  0  0  0  0  0  0  0  0  0  0
   39.2800   33.6610   40.5950 N   0  0  0  0  0  0  0  0  0  0  0  0
   39.7290   32.4200   40.3440 C   0  0  0  0  0  0  0  0  0  0  0  0
   39.0270   31.5190   39.6150 N   0  0  0  0  0  0  0  0  0  0  0  0
   36.4080   33.3770   38.9580 H   0  0  0  0  0  0  0  0  0  0  0  0
   37.6300   34.9960   40.2470 H   0  0  0  0  0  0  0  0  0  0  0  0
   40.6770   32.0270   40.6920 H   0  0  0  0  0  0  0  0  0  0  0  0
  1  7  1  0  0  0  0
  1  6  1  0  0  0  0
  2  1  2  0  0  0  0
  3  2  1  0  0  0  0
  3  4  2  0  0  0  0
  4  5  1  0  0  0  0
  5  6  2  0  0  0  0
  5  9  1  0  0  0  0
  8  3  1  0  0  0  0
  9 10  1  0  0  0  0
  9 11  1  0  0  0  0
 12 13  1  0  0  0  0
 12  9  1  0  0  0  0
 12 15  1  0  0  0  0
 14 12  1  0  0  0  0
 15 16  1  0  0  0  0
 16 17  1  0  0  0  0
 16 18  2  0  0  0  0
 19 18  1  0  0  0  0
 20 19  1  0  0  0  0
 20 21  1  0  0  0  0
 22 20  2  0  0  0  0
 23 25  2  0  0  0  0
 23 22  1  0  0  0  0
 24 23  1  0  0  0  0
 25 26  1  0  0  0  0
 26 15  1  0  0  0  0
 26 19  2  0  0  0  0
 27  2  1  0  0  0  0
 28 27  1  0  0  0  0
 29 34  1  0  0  0  0
 29 28  2  0  0  0  0
 30 29  1  0  0  0  0
 31 30  2  0  0  0  0
 31 32  1  0  0  0  0
 32 33  2  0  0  0  0
 33 28  1  0  0  0  0
 33 38  1  0  0  0  0
 35 30  1  0  0  0  0
 36 31  1  0  0  0  0
 37 32  1  0  0  0  0
 38 39  2  0  0  0  0
 38 43  1  0  0  0  0
 39 40  1  0  0  0  0
 40 45  1  0  0  0  0
 40 41  2  0  0  0  0
 42 41  1  0  0  0  0
 42 46  1  0  0  0  0
 43 42  2  0  0  0  0
 44 39  1  0  0  0  0
M  END
>  <minimizedAffinity>
-6.04969788

$$$$

 OpenBabel03242517493D

 46 50  0  0  0  0  0  0  0  0999 V2000
   34.8090   29.1800   39.7220 C   0  0  0  0  0  0  0  0  0  0  0  0
   35.9710   29.9820   39.6910 C   0  0  0  0  0  0  0  0  0  0  0  0
   36.5560   30.2280   38.4710 C   0  0  0  0  0  0  0  0  0  0  0  0
   35.9990   29.6950   37.3620 N   0  0  0  0  0  0  0  0  0  0  0  0
   34.8890   28.9310   37.4160 C   0  0  0  0  0  0  0  0  0  0  0  0
   34.2760   28.6570   38.5600 N   0  0  0  0  0  0  0  0  0  0  0  0
   34.3610   28.9960   40.6920 H   0  0  0  0  0  0  0  0  0  0  0  0
   37.4580   30.8490   38.4250 H   0  0  0  0  0  0  0  0  0  0  0  0
   34.3300   28.3780   36.1620 C   0  0  0  0  0  0  0  0  0  0  0  0
   34.8980   27.5190   35.8070 H   0  0  0  0  0  0  0  0  0  0  0  0
   34.3670   29.1510   35.3480 H   0  0  0  0  0  0  0  0  0  0  0  0
   32.8370   28.0600   36.2910 C   0  0  0  0  0  0  0  0  0  0  0  0
   32.5310   27.2850   35.5710 H   0  0  0  0  0  0  0  0  0  0  0  0
   32.5580   27.8350   37.3190 H   0  0  0  0  0  0  0  0  0  0  0  0
   32.1750   29.3190   35.9070 N   0  0  0  0  0  0  0  0  0  0  0  0
   32.3320   29.9330   34.6990 C   0  0  0  0  0  0  0  0  0  0  0  0
   32.9480   29.5860   33.8800 H   0  0  0  0  0  0  0  0  0  0  0  0
   31.5970   31.0660   34.6510 N   0  0  0  0  0  0  0  0  0  0  0  0
   30.9620   31.1800   35.8420 C   0  0  0  0  0  0  0  0  0  0  0  0
   30.0910   32.0980   36.3890 C   0  0  0  0  0  0  0  0  0  0  0  0
   29.7810   32.9670   35.8120 H   0  0  0  0  0  0  0  0  0  0  0  0
   29.6140   31.9200   37.6560 N   0  0  0  0  0  0  0  0  0  0  0  0
   30.0110   30.8260   38.3690 C   0  0  0  0  0  0  0  0  0  0  0  0
   29.5560   30.8190   39.3490 H   0  0  0  0  0  0  0  0  0  0  0  0
   30.8510   29.9380   37.8450 N   0  0  0  0  0  0  0  0  0  0  0  0
   31.3240   30.0950   36.6140 C   0  0  0  0  0  0  0  0  0  0  0  0
   36.6340   30.6420   41.1960 S   0  0  0  0  0  0  0  0  0  0  0  0
   37.5330   29.3870   42.0730 C   0  0  0  0  0  0  0  0  0  0  0  0
   36.9340   28.4070   42.8490 C   0  0  0  0  0  0  0  0  0  0  0  0
   37.7020   27.4610   43.5030 C   0  0  0  0  0  0  0  0  0  0  0  0
   39.0710   27.4710   43.4000 C   0  0  0  0  0  0  0  0  0  0  0  0
   39.6610   28.4400   42.6330 C   0  0  0  0  0  0  0  0  0  0  0  0
   38.9220   29.4010   41.9660 C   0  0  0  0  0  0  0  0  0  0  0  0
   35.8470   28.4280   42.9090 H   0  0  0  0  0  0  0  0  0  0  0  0
   37.1160   26.7520   44.0750 H   0  0  0  0  0  0  0  0  0  0  0  0
   39.6070   26.7020   43.9390 H   0  0  0  0  0  0  0  0  0  0  0  0
   40.7420   28.4210   42.5720 H   0  0  0  0  0  0  0  0  0  0  0  0
   39.5630   30.4200   41.1570 C   0  0  0  0  0  0  0  0  0  0  0  0
   39.9090   31.6570   41.5980 C   0  0  0  0  0  0  0  0  0  0  0  0
   40.5310   32.6200   40.7920 C   0  0  0  0  0  0  0  0  0  0  0  0
   40.7990   32.3110   39.5150 N   0  0  0  0  0  0  0  0  0  0  0  0
   40.4590   31.0890   39.0730 C   0  0  0  0  0  0  0  0  0  0  0  0
   39.8590   30.1630   39.8600 N   0  0  0  0  0  0  0  0  0  0  0  0
   39.7010   31.9210   42.6220 H   0  0  0  0  0  0  0  0  0  0  0  0
   40.7650   33.5830   41.2500 H   0  0  0  0  0  0  0  0  0  0  0  0
   40.6270   30.7310   38.0630 H   0  0  0  0  0  0  0  0  0  0  0  0
  1  7  1  0  0  0  0
  2  1  1  0  0  0  0
  2 27  1  0  0  0  0
  3  2  2  0  0  0  0
  4  5  2  0  0  0  0
  4  3  1  0  0  0  0
  5  6  1  0  0  0  0
  6  1  2  0  0  0  0
  8  3  1  0  0  0  0
  9 12  1  0  0  0  0
  9  5  1  0  0  0  0
 10  9  1  0  0  0  0
 11  9  1  0  0  0  0
 12 14  1  0  0  0  0
 13 12  1  0  0  0  0
 15 12  1  0  0  0  0
 15 26  1  0  0  0  0
 16 15  1  0  0  0  0
 17 16  1  0  0  0  0
 18 16  2  0  0  0  0
 18 19  1  0  0  0  0
 19 20  2  0  0  0  0
 19 26  1  0  0  0  0
 20 22  1  0  0  0  0
 21 20  1  0  0  0  0
 22 23  2  0  0  0  0
 23 24  1  0  0  0  0
 25 23  1  0  0  0  0
 26 25  2  0  0  0  0
 27 28  1  0  0  0  0
 28 29  1  0  0  0  0
 29 34  1  0  0  0  0
 29 30  2  0  0  0  0
 30 35  1  0  0  0  0
 31 30  1  0  0  0  0
 31 36  1  0  0  0  0
 32 31  2  0  0  0  0
 33 28  2  0  0  0  0
 33 32  1  0  0  0  0
 37 32  1  0  0  0  0
 38 39  1  0  0  0  0
 38 33  1  0  0  0  0
 39 44  1  0  0  0  0
 40 45  1  0  0  0  0
 40 39  2  0  0  0  0
 41 40  1  0  0  0  0
 42 41  2  0  0  0  0
 42 43  1  0  0  0  0
 43 38  2  0  0  0  0
 46 42  1  0  0  0  0
M  END
>  <minimizedAffinity>
-6.00993156

$$$$

 OpenBabel03242517493D

 46 50  0  0  0  0  0  0  0  0999 V2000
   37.8190   28.7280   39.9430 C   0  0  0  0  0  0  0  0  0  0  0  0
   38.9080   28.2460   39.1860 C   0  0  0  0  0  0  0  0  0  0  0  0
   39.5310   29.1130   38.3190 C   0  0  0  0  0  0  0  0  0  0  0  0
   39.0760   30.3820   38.2290 N   0  0  0  0  0  0  0  0  0  0  0  0
   38.0320   30.8210   38.9620 C   0  0  0  0  0  0  0  0  0  0  0  0
   37.3900   30.0350   39.8160 N   0  0  0  0  0  0  0  0  0  0  0  0
   37.3400   28.0310   40.6220 H   0  0  0  0  0  0  0  0  0  0  0  0
   40.3790   28.7570   37.7220 H   0  0  0  0  0  0  0  0  0  0  0  0
   37.5850   32.2240   38.8150 C   0  0  0  0  0  0  0  0  0  0  0  0
   36.6770   32.3020   38.2180 H   0  0  0  0  0  0  0  0  0  0  0  0
   38.3720   32.8280   38.2890 H   0  0  0  0  0  0  0  0  0  0  0  0
   37.4380   32.9250   40.1700 C   0  0  0  0  0  0  0  0  0  0  0  0
   36.5260   33.5410   40.2030 H   0  0  0  0  0  0  0  0  0  0  0  0
   37.5210   32.2230   40.9990 H   0  0  0  0  0  0  0  0  0  0  0  0
   38.5980   33.8310   40.2250 N   0  0  0  0  0  0  0  0  0  0  0  0
   38.5480   35.1630   39.9340 C   0  0  0  0  0  0  0  0  0  0  0  0
   37.6700   35.7190   39.6310 H   0  0  0  0  0  0  0  0  0  0  0  0
   39.7710   35.7190   40.0750 N   0  0  0  0  0  0  0  0  0  0  0  0
   40.6150   34.7320   40.4600 C   0  0  0  0  0  0  0  0  0  0  0  0
   41.9600   34.6730   40.7580 C   0  0  0  0  0  0  0  0  0  0  0  0
   42.5720   35.5710   40.6980 H   0  0  0  0  0  0  0  0  0  0  0  0
   42.5290   33.4880   41.1270 N   0  0  0  0  0  0  0  0  0  0  0  0
   41.7490   32.3700   41.1980 C   0  0  0  0  0  0  0  0  0  0  0  0
   42.3330   31.5120   41.5010 H   0  0  0  0  0  0  0  0  0  0  0  0
   40.4520   32.4230   40.9120 N   0  0  0  0  0  0  0  0  0  0  0  0
   39.8820   33.5670   40.5510 C   0  0  0  0  0  0  0  0  0  0  0  0
   39.4390   26.5640   39.3680 S   0  0  0  0  0  0  0  0  0  0  0  0
   38.0460   25.5120   39.6860 C   0  0  0  0  0  0  0  0  0  0  0  0
   37.1280   25.1320   38.7200 C   0  0  0  0  0  0  0  0  0  0  0  0
   36.0650   24.3070   39.0450 C   0  0  0  0  0  0  0  0  0  0  0  0
   35.8970   23.8480   40.3280 C   0  0  0  0  0  0  0  0  0  0  0  0
   36.8060   24.2250   41.2810 C   0  0  0  0  0  0  0  0  0  0  0  0
   37.8780   25.0480   40.9890 C   0  0  0  0  0  0  0  0  0  0  0  0
   37.2910   25.5140   37.7140 H   0  0  0  0  0  0  0  0  0  0  0  0
   35.4210   24.0850   38.2040 H   0  0  0  0  0  0  0  0  0  0  0  0
   35.0440   23.2080   40.5090 H   0  0  0  0  0  0  0  0  0  0  0  0
   36.6450   23.8460   42.2820 H   0  0  0  0  0  0  0  0  0  0  0  0
   38.8310   25.4360   42.0110 C   0  0  0  0  0  0  0  0  0  0  0  0
   38.6640   26.4700   42.8760 C   0  0  0  0  0  0  0  0  0  0  0  0
   39.6040   26.8200   43.8550 C   0  0  0  0  0  0  0  0  0  0  0  0
   40.7310   26.1000   43.9470 N   0  0  0  0  0  0  0  0  0  0  0  0
   40.9030   25.0760   43.0940 C   0  0  0  0  0  0  0  0  0  0  0  0
   39.9880   24.7440   42.1520 N   0  0  0  0  0  0  0  0  0  0  0  0
   37.7630   27.0580   42.8150 H   0  0  0  0  0  0  0  0  0  0  0  0
   39.3670   27.6690   44.4980 H   0  0  0  0  0  0  0  0  0  0  0  0
   41.7720   24.4280   43.0780 H   0  0  0  0  0  0  0  0  0  0  0  0
  1  7  1  0  0  0  0
  2 27  1  0  0  0  0
  2  1  2  0  0  0  0
  3  2  1  0  0  0  0
  4  3  2  0  0  0  0
  4  5  1  0  0  0  0
  5  6  2  0  0  0  0
  6  1  1  0  0  0  0
  8  3  1  0  0  0  0
  9  5  1  0  0  0  0
  9 12  1  0  0  0  0
 10  9  1  0  0  0  0
 11  9  1  0  0  0  0
 12 13  1  0  0  0  0
 12 15  1  0  0  0  0
 12 14  1  0  0  0  0
 15 26  1  0  0  0  0
 16 18  2  0  0  0  0
 16 15  1  0  0  0  0
 17 16  1  0  0  0  0
 18 19  1  0  0  0  0
 19 26  2  0  0  0  0
 19 20  1  0  0  0  0
 20 22  2  0  0  0  0
 21 20  1  0  0  0  0
 22 23  1  0  0  0  0
 23 24  1  0  0  0  0
 25 23  2  0  0  0  0
 26 25  1  0  0  0  0
 27 28  1  0  0  0  0
 28 33  1  0  0  0  0
 29 30  1  0  0  0  0
 29 28  2  0  0  0  0
 30 31  2  0  0  0  0
 31 36  1  0  0  0  0
 31 32  1  0  0  0  0
 32 37  1  0  0  0  0
 33 32  2  0  0  0  0
 33 38  1  0  0  0  0
 34 29  1  0  0  0  0
 35 30  1  0  0  0  0
 38 43  2  0  0  0  0
 38 39  1  0  0  0  0
 39 40  2  0  0  0  0
 40 41  1  0  0  0  0
 40 45  1  0  0  0  0
 42 41  2  0  0  0  0
 43 42  1  0  0  0  0
 44 39  1  0  0  0  0
 46 42  1  0  0  0  0
M  END
>  <minimizedAffinity>
-5.95730448

$$$$

 OpenBabel03242517493D

 46 50  0  0  0  0  0  0  0  0999 V2000
   41.5210   29.4610   42.0480 C   0  0  0  0  0  0  0  0  0  0  0  0
   41.0070   30.7740   41.9820 C   0  0  0  0  0  0  0  0  0  0  0  0
   39.7160   30.9870   42.4070 C   0  0  0  0  0  0  0  0  0  0  0  0
   39.0000   29.9370   42.8650 N   0  0  0  0  0  0  0  0  0  0  0  0
   39.5120   28.6910   42.9190 C   0  0  0  0  0  0  0  0  0  0  0  0
   40.7490   28.4190   42.5250 N   0  0  0  0  0  0  0  0  0  0  0  0
   42.5400   29.3110   41.7090 H   0  0  0  0  0  0  0  0  0  0  0  0
   39.2990   32.0000   42.3640 H   0  0  0  0  0  0  0  0  0  0  0  0
   38.6730   27.5860   43.4330 C   0  0  0  0  0  0  0  0  0  0  0  0
   38.8780   27.3730   44.4810 H   0  0  0  0  0  0  0  0  0  0  0  0
   38.8850   26.6420   42.8630 H   0  0  0  0  0  0  0  0  0  0  0  0
   37.1820   27.8330   43.1820 C   0  0  0  0  0  0  0  0  0  0  0  0
   36.5590   27.2490   43.8770 H   0  0  0  0  0  0  0  0  0  0  0  0
   36.9440   28.8950   43.1700 H   0  0  0  0  0  0  0  0  0  0  0  0
   36.9610   27.3040   41.8250 N   0  0  0  0  0  0  0  0  0  0  0  0
   36.6000   28.0650   40.7520 C   0  0  0  0  0  0  0  0  0  0  0  0
   36.4310   29.1330   40.7540 H   0  0  0  0  0  0  0  0  0  0  0  0
   36.4750   27.2920   39.6510 N   0  0  0  0  0  0  0  0  0  0  0  0
   36.7590   26.0210   40.0220 C   0  0  0  0  0  0  0  0  0  0  0  0
   36.8040   24.8090   39.3650 C   0  0  0  0  0  0  0  0  0  0  0  0
   36.5740   24.7560   38.3030 H   0  0  0  0  0  0  0  0  0  0  0  0
   37.1370   23.6730   40.0440 N   0  0  0  0  0  0  0  0  0  0  0  0
   37.4230   23.7540   41.3760 C   0  0  0  0  0  0  0  0  0  0  0  0
   37.6670   22.7810   41.7780 H   0  0  0  0  0  0  0  0  0  0  0  0
   37.3810   24.9200   42.0140 N   0  0  0  0  0  0  0  0  0  0  0  0
   37.0590   26.0360   41.3680 C   0  0  0  0  0  0  0  0  0  0  0  0
   42.0180   32.0930   41.3660 S   0  0  0  0  0  0  0  0  0  0  0  0
   42.3180   31.8770   39.6300 C   0  0  0  0  0  0  0  0  0  0  0  0
   43.2130   30.9560   39.1080 C   0  0  0  0  0  0  0  0  0  0  0  0
   43.3920   30.8460   37.7410 C   0  0  0  0  0  0  0  0  0  0  0  0
   42.6910   31.6450   36.8720 C   0  0  0  0  0  0  0  0  0  0  0  0
   41.8070   32.5550   37.3890 C   0  0  0  0  0  0  0  0  0  0  0  0
   41.6040   32.6900   38.7510 C   0  0  0  0  0  0  0  0  0  0  0  0
   43.7520   30.3390   39.8260 H   0  0  0  0  0  0  0  0  0  0  0  0
   44.1170   30.0910   37.4630 H   0  0  0  0  0  0  0  0  0  0  0  0
   42.8830   31.5040   35.8170 H   0  0  0  0  0  0  0  0  0  0  0  0
   41.2700   33.1690   36.6780 H   0  0  0  0  0  0  0  0  0  0  0  0
   40.6640   33.6580   39.2810 C   0  0  0  0  0  0  0  0  0  0  0  0
   40.9420   34.9690   39.5010 C   0  0  0  0  0  0  0  0  0  0  0  0
   40.0100   35.8830   40.0130 C   0  0  0  0  0  0  0  0  0  0  0  0
   38.7770   35.4440   40.3060 N   0  0  0  0  0  0  0  0  0  0  0  0
   38.4960   34.1470   40.0910 C   0  0  0  0  0  0  0  0  0  0  0  0
   39.4030   33.2730   39.5940 N   0  0  0  0  0  0  0  0  0  0  0  0
   41.9280   35.3380   39.2700 H   0  0  0  0  0  0  0  0  0  0  0  0
   40.3400   36.9140   40.1500 H   0  0  0  0  0  0  0  0  0  0  0  0
   37.5370   33.6850   40.2900 H   0  0  0  0  0  0  0  0  0  0  0  0
  1  6  1  0  0  0  0
  2  1  2  0  0  0  0
  2  3  1  0  0  0  0
  3  4  2  0  0  0  0
  4  5  1  0  0  0  0
  5  9  1  0  0  0  0
  6  5  2  0  0  0  0
  7  1  1  0  0  0  0
  8  3  1  0  0  0  0
  9 10  1  0  0  0  0
 11  9  1  0  0  0  0
 12  9  1  0  0  0  0
 12 13  1  0  0  0  0
 14 12  1  0  0  0  0
 15 12  1  0  0  0  0
 16 17  1  0  0  0  0
 16 15  1  0  0  0  0
 18 19  1  0  0  0  0
 18 16  2  0  0  0  0
 19 26  1  0  0  0  0
 20 19  2  0  0  0  0
 20 22  1  0  0  0  0
 21 20  1  0  0  0  0
 22 23  2  0  0  0  0
 23 24  1  0  0  0  0
 23 25  1  0  0  0  0
 26 15  1  0  0  0  0
 26 25  2  0  0  0  0
 27  2  1  0  0  0  0
 28 27  1  0  0  0  0
 29 28  1  0  0  0  0
 29 34  1  0  0  0  0
 30 29  2  0  0  0  0
 31 32  2  0  0  0  0
 31 30  1  0  0  0  0
 32 33  1  0  0  0  0
 33 38  1  0  0  0  0
 33 28  2  0  0  0  0
 35 30  1  0  0  0  0
 36 31  1  0  0  0  0
 37 32  1  0  0  0  0
 38 39  2  0  0  0  0
 38 43  1  0  0  0  0
 39 40  1  0  0  0  0
 40 45  1  0  0  0  0
 40 41  2  0  0  0  0
 42 46  1  0  0  0  0
 42 41  1  0  0  0  0
 43 42  2  0  0  0  0
 44 39  1  0  0  0  0
M  END
>  <minimizedAffinity>
-5.94530106

$$$$
