
 OpenBabel03252508253D

 44 49  0  0  1  0  0  0  0  0999 V2000
   47.0430   32.4630   45.1390 C   0  0  1  0  0  0  0  0  0  0  0  0
   46.7650   33.1710   46.3980 C   0  0  0  0  0  0  0  0  0  0  0  0
   45.7690   32.1390   45.7430 C   0  0  2  0  0  0  0  0  0  0  0  0
   48.0320   31.9060   45.3200 H   0  0  0  0  0  0  0  0  0  0  0  0
   47.1390   32.8840   47.3880 H   0  0  0  0  0  0  0  0  0  0  0  0
   46.4500   34.2210   46.2850 H   0  0  0  0  0  0  0  0  0  0  0  0
   44.8170   32.7420   45.5890 H   0  0  0  0  0  0  0  0  0  0  0  0
   45.4500   30.8920   46.4430 C   0  0  0  0  0  0  0  0  0  0  0  0
   45.3730   30.6900   47.7850 C   0  0  0  0  0  0  0  0  0  0  0  0
   45.1900   29.4660   48.4120 C   0  0  0  0  0  0  0  0  0  0  0  0
   45.0780   28.3460   47.5760 C   0  0  0  0  0  0  0  0  0  0  0  0
   45.1510   28.5230   46.1940 C   0  0  0  0  0  0  0  0  0  0  0  0
   44.9730   27.4010   45.4090 C   0  0  0  0  0  0  0  0  0  0  0  0
   44.9670   27.5420   44.0260 C   0  0  0  0  0  0  0  0  0  0  0  0
   45.1320   28.7800   43.4430 C   0  0  0  0  0  0  0  0  0  0  0  0
   45.3070   29.8650   44.2700 C   0  0  0  0  0  0  0  0  0  0  0  0
   45.3300   29.7740   45.6540 C   0  0  0  0  0  0  0  0  0  0  0  0
   45.4650   31.5870   48.3940 H   0  0  0  0  0  0  0  0  0  0  0  0
   45.1360   29.3810   49.4900 H   0  0  0  0  0  0  0  0  0  0  0  0
   44.9380   27.3810   48.0490 H   0  0  0  0  0  0  0  0  0  0  0  0
   44.8430   26.4400   45.8900 H   0  0  0  0  0  0  0  0  0  0  0  0
   44.8200   26.5840   43.5000 H   0  0  0  0  0  0  0  0  0  0  0  0
   45.0950   28.6870   42.3760 H   0  0  0  0  0  0  0  0  0  0  0  0
   45.3230   30.6830   43.6110 H   0  0  0  0  0  0  0  0  0  0  0  0
   46.4990   35.0700   42.5860 C   0  0  0  0  0  0  0  0  0  0  0  0
   47.0990   34.4820   41.4160 C   0  0  0  0  0  0  0  0  0  0  0  0
   47.6910   33.1830   41.5610 C   0  0  0  0  0  0  0  0  0  0  0  0
   47.6650   32.5800   42.7500 N   0  0  0  0  0  0  0  0  0  0  0  0
   47.0750   33.1930   43.8370 C   0  0  0  0  0  0  0  0  0  0  0  0
   46.5140   34.3940   43.7540 N   0  0  0  0  0  0  0  0  0  0  0  0
   46.0780   36.0410   42.4010 H   0  0  0  0  0  0  0  0  0  0  0  0
   47.0900   35.0190   40.4780 H   0  0  0  0  0  0  0  0  0  0  0  0
   48.2860   32.5940   40.4080 N   0  0  0  0  0  0  0  0  0  0  0  0
   47.7300   32.3090   39.2140 C   0  0  0  0  0  0  0  0  0  0  0  0
   46.6870   32.5250   39.0070 H   0  0  0  0  0  0  0  0  0  0  0  0
   48.6140   31.7540   38.3700 N   0  0  0  0  0  0  0  0  0  0  0  0
   49.7930   31.6690   39.0310 C   0  0  0  0  0  0  0  0  0  0  0  0
   51.0550   31.2030   38.7220 C   0  0  0  0  0  0  0  0  0  0  0  0
   51.2260   30.7890   37.7210 H   0  0  0  0  0  0  0  0  0  0  0  0
   52.0520   31.2630   39.6410 N   0  0  0  0  0  0  0  0  0  0  0  0
   51.8270   31.7790   40.8740 C   0  0  0  0  0  0  0  0  0  0  0  0
   52.6230   31.8290   41.6120 H   0  0  0  0  0  0  0  0  0  0  0  0
   50.5880   32.2440   41.1990 N   0  0  0  0  0  0  0  0  0  0  0  0
   49.5900   32.1960   40.3120 C   0  0  0  0  0  0  0  0  0  0  0  0
  1  4  1  1  0  0  0
  1  3  1  0  0  0  0
  1  2  1  0  0  0  0
  2  5  1  0  0  0  0
  3  7  1  6  0  0  0
  3  2  1  0  0  0  0
  3  8  1  0  0  0  0
  6  2  1  0  0  0  0
  8  9  1  0  0  0  0
  9 18  1  0  0  0  0
  9 10  2  0  0  0  0
 10 19  1  0  0  0  0
 11 20  1  0  0  0  0
 11 10  1  0  0  0  0
 12 11  2  0  0  0  0
 13 21  1  0  0  0  0
 13 12  1  0  0  0  0
 14 13  2  0  0  0  0
 15 14  1  0  0  0  0
 15 16  2  0  0  0  0
 16 17  1  0  0  0  0
 17 12  1  0  0  0  0
 17  8  2  0  0  0  0
 22 14  1  0  0  0  0
 23 15  1  0  0  0  0
 24 16  1  0  0  0  0
 25 30  1  0  0  0  0
 26 27  1  0  0  0  0
 26 25  2  0  0  0  0
 27 28  2  0  0  0  0
 28 29  1  0  0  0  0
 29  1  1  0  0  0  0
 30 29  2  0  0  0  0
 31 25  1  0  0  0  0
 32 26  1  0  0  0  0
 33 27  1  0  0  0  0
 34 33  1  0  0  0  0
 35 34  1  0  0  0  0
 36 37  1  0  0  0  0
 36 34  2  0  0  0  0
 37 44  1  0  0  0  0
 38 37  2  0  0  0  0
 38 40  1  0  0  0  0
 39 38  1  0  0  0  0
 40 41  2  0  0  0  0
 41 43  1  0  0  0  0
 41 42  1  0  0  0  0
 44 33  1  0  0  0  0
 44 43  2  0  0  0  0
M  END
>  <minimizedAffinity>
-5.10175848

>  <minimizedRMSD>
2.46029234

$$$$
