
 OpenBabel03252505033D

 37 40  0  0  1  0  0  0  0  0999 V2000
   45.1500   35.0590   44.1480 C   0  0  0  0  0  0  0  0  0  0  0  0
   45.7030   34.5350   42.9660 C   0  0  0  0  0  0  0  0  0  0  0  0
   46.5260   33.3910   43.1000 C   0  0  0  0  0  0  0  0  0  0  0  0
   46.7280   32.8770   44.3400 N   0  0  0  0  0  0  0  0  0  0  0  0
   46.1790   33.4130   45.4340 C   0  0  0  0  0  0  0  0  0  0  0  0
   45.3760   34.5210   45.3490 N   0  0  0  0  0  0  0  0  0  0  0  0
   44.5240   35.9380   44.0100 H   0  0  0  0  0  0  0  0  0  0  0  0
   45.5440   34.9400   41.9870 H   0  0  0  0  0  0  0  0  0  0  0  0
   46.4580   32.7920   46.7540 C   0  0  2  0  0  0  0  0  0  0  0  0
   47.0940   31.4720   46.4620 C   0  0  0  0  0  0  0  0  0  0  0  0
   46.2450   30.2840   46.6670 C   0  0  0  0  0  0  0  0  0  0  0  0
   45.7410   30.3640   48.0930 C   0  0  0  0  0  0  0  0  0  0  0  0
   44.8520   31.5150   48.3050 C   0  0  0  0  0  0  0  0  0  0  0  0
   45.2630   32.7680   47.5850 C   0  0  0  0  0  0  0  0  0  0  0  0
   47.1970   33.4790   47.2350 H   0  0  0  0  0  0  0  0  0  0  0  0
   47.5130   31.4130   45.4320 H   0  0  0  0  0  0  0  0  0  0  0  0
   48.0040   31.3860   47.1180 H   0  0  0  0  0  0  0  0  0  0  0  0
   45.4490   30.1940   45.9230 H   0  0  0  0  0  0  0  0  0  0  0  0
   46.8800   29.3810   46.6130 H   0  0  0  0  0  0  0  0  0  0  0  0
   46.5680   30.2550   48.7870 H   0  0  0  0  0  0  0  0  0  0  0  0
   45.0730   29.4770   48.2020 H   0  0  0  0  0  0  0  0  0  0  0  0
   43.9710   31.7150   48.8420 H   0  0  0  0  0  0  0  0  0  0  0  0
   44.4860   33.9530   47.7040 N   0  0  0  0  0  0  0  0  0  0  0  0
   44.7530   34.7750   48.2910 H   0  0  0  0  0  0  0  0  0  0  0  0
   43.6110   33.9130   47.1370 H   0  0  0  0  0  0  0  0  0  0  0  0
   47.1460   32.7600   41.9920 N   0  0  0  0  0  0  0  0  0  0  0  0
   46.7090   32.1170   40.8850 C   0  0  0  0  0  0  0  0  0  0  0  0
   45.6380   32.0190   40.7370 H   0  0  0  0  0  0  0  0  0  0  0  0
   47.7510   31.7050   40.1470 N   0  0  0  0  0  0  0  0  0  0  0  0
   48.8860   32.0800   40.7760 C   0  0  0  0  0  0  0  0  0  0  0  0
   50.1800   31.8710   40.3850 C   0  0  0  0  0  0  0  0  0  0  0  0
   50.4730   31.3640   39.5000 H   0  0  0  0  0  0  0  0  0  0  0  0
   51.1620   32.3430   41.1850 N   0  0  0  0  0  0  0  0  0  0  0  0
   50.8150   32.9970   42.3260 C   0  0  0  0  0  0  0  0  0  0  0  0
   51.5110   33.4200   43.0460 H   0  0  0  0  0  0  0  0  0  0  0  0
   49.5250   33.1750   42.6640 N   0  0  0  0  0  0  0  0  0  0  0  0
   48.4990   32.7400   41.9310 C   0  0  0  0  0  0  0  0  0  0  0  0
  1  6  1  0  0  0  0
  2  3  1  0  0  0  0
  2  1  2  0  0  0  0
  3  4  2  0  0  0  0
  4  5  1  0  0  0  0
  5  9  1  0  0  0  0
  6  5  2  0  0  0  0
  7  1  1  0  0  0  0
  8  2  1  0  0  0  0
  9 15  1  1  0  0  0
  9 14  1  0  0  0  0
 10 11  1  0  0  0  0
 10  9  1  0  0  0  0
 10 17  1  0  0  0  0
 11 12  1  0  0  0  0
 12 21  1  0  0  0  0
 12 13  1  0  0  0  0
 12 20  1  0  0  0  0
 13 22  1  0  0  0  0
 14 23  1  0  0  0  0
 14 13  2  0  0  0  0
 16 10  1  0  0  0  0
 18 11  1  0  0  0  0
 19 11  1  0  0  0  0
 23 24  1  0  0  0  0
 25 23  1  0  0  0  0
 26  3  1  0  0  0  0
 27 26  1  0  0  0  0
 28 27  1  0  0  0  0
 29 30  1  0  0  0  0
 29 27  2  0  0  0  0
 30 37  1  0  0  0  0
 31 30  2  0  0  0  0
 31 33  1  0  0  0  0
 32 31  1  0  0  0  0
 33 34  2  0  0  0  0
 34 36  1  0  0  0  0
 34 35  1  0  0  0  0
 37 26  1  0  0  0  0
 37 36  2  0  0  0  0
M  END
>  <minimizedAffinity>
-6.15264177

>  <minimizedRMSD>
1.24232745

$$$$
