
 OpenBabel03252503463D

 47 51  0  0  1  0  0  0  0  0999 V2000
   46.4130   35.1050   42.3530 C   0  0  0  0  0  0  0  0  0  0  0  0
   47.3420   34.7940   41.8300 H   0  0  0  0  0  0  0  0  0  0  0  0
   46.5560   36.1880   42.5610 H   0  0  0  0  0  0  0  0  0  0  0  0
   45.2520   34.8710   41.4820 C   0  0  0  0  0  0  0  0  0  0  0  0
   44.0710   35.5760   41.5280 C   0  0  0  0  0  0  0  0  0  0  0  0
   43.0110   35.3120   40.6960 C   0  0  0  0  0  0  0  0  0  0  0  0
   43.1370   34.3010   39.7800 C   0  0  0  0  0  0  0  0  0  0  0  0
   44.3220   33.5710   39.7120 C   0  0  0  0  0  0  0  0  0  0  0  0
   45.3900   33.8530   40.5650 C   0  0  0  0  0  0  0  0  0  0  0  0
   44.0620   36.3570   42.2840 H   0  0  0  0  0  0  0  0  0  0  0  0
   42.1160   35.9120   40.7930 H   0  0  0  0  0  0  0  0  0  0  0  0
   42.2710   34.1420   39.1550 H   0  0  0  0  0  0  0  0  0  0  0  0
   44.2510   32.8100   38.9330 H   0  0  0  0  0  0  0  0  0  0  0  0
   46.4550   32.9660   40.2500 N   0  0  0  0  0  0  0  0  0  0  0  0
   46.7900   31.7780   40.8370 C   0  0  0  0  0  0  0  0  0  0  0  0
   46.2800   31.3160   41.6610 H   0  0  0  0  0  0  0  0  0  0  0  0
   47.8530   31.2210   40.2770 N   0  0  0  0  0  0  0  0  0  0  0  0
   48.2380   32.0540   39.2930 C   0  0  0  0  0  0  0  0  0  0  0  0
   49.2470   32.0660   38.3530 C   0  0  0  0  0  0  0  0  0  0  0  0
   49.9490   31.2400   38.3280 H   0  0  0  0  0  0  0  0  0  0  0  0
   49.3910   33.0660   37.4650 N   0  0  0  0  0  0  0  0  0  0  0  0
   48.5420   34.1140   37.4560 C   0  0  0  0  0  0  0  0  0  0  0  0
   48.7400   34.8590   36.7110 H   0  0  0  0  0  0  0  0  0  0  0  0
   47.5340   34.1330   38.3730 N   0  0  0  0  0  0  0  0  0  0  0  0
   47.3760   33.1540   39.2570 C   0  0  0  0  0  0  0  0  0  0  0  0
   45.3100   34.5960   44.5080 C   0  0  0  0  0  0  0  0  0  0  0  0
   46.2980   34.3220   43.5680 C   0  0  0  0  0  0  0  0  0  0  0  0
   47.1630   33.2670   43.8530 C   0  0  0  0  0  0  0  0  0  0  0  0
   47.0450   32.5420   44.9890 N   0  0  0  0  0  0  0  0  0  0  0  0
   46.0670   32.8410   45.8790 C   0  0  0  0  0  0  0  0  0  0  0  0
   45.1980   33.8650   45.6470 N   0  0  0  0  0  0  0  0  0  0  0  0
   44.6490   35.4160   44.2740 H   0  0  0  0  0  0  0  0  0  0  0  0
   47.9680   32.9610   43.2390 H   0  0  0  0  0  0  0  0  0  0  0  0
   47.3800   31.7150   47.6660 C   0  0  2  0  0  0  0  0  0  0  0  0
   45.9680   32.0310   47.0910 C   0  0  1  0  0  0  0  0  0  0  0  0
   45.4360   32.6460   48.1730 O   0  0  0  0  0  0  0  0  0  0  0  0
   45.7300   31.8900   49.2710 C   0  0  0  0  0  0  0  0  0  0  0  0
   46.9040   30.9980   48.9340 C   0  0  2  0  0  0  0  0  0  0  0  0
   47.9350   31.0460   46.9860 H   0  0  0  0  0  0  0  0  0  0  0  0
   45.4730   31.0440   46.9300 H   0  0  0  0  0  0  0  0  0  0  0  0
   44.8410   31.3190   49.6060 H   0  0  0  0  0  0  0  0  0  0  0  0
   45.9870   32.5680   50.1120 H   0  0  0  0  0  0  0  0  0  0  0  0
   46.5250   29.9990   48.7130 H   0  0  0  0  0  0  0  0  0  0  0  0
   48.0000   32.8480   48.0350 O   0  0  0  0  0  0  0  0  0  0  0  0
   48.8590   33.0390   47.6000 H   0  0  0  0  0  0  0  0  0  0  0  0
   47.8630   30.9500   49.9090 O   0  0  0  0  0  0  0  0  0  0  0  0
   47.4130   30.8500   50.7950 H   0  0  0  0  0  0  0  0  0  0  0  0
  1  3  1  0  0  0  0
  1 27  1  0  0  0  0
  2  1  1  0  0  0  0
  4  5  1  0  0  0  0
  4  1  1  0  0  0  0
  5 10  1  0  0  0  0
  6 11  1  0  0  0  0
  6  5  2  0  0  0  0
  7  6  1  0  0  0  0
  8  7  2  0  0  0  0
  8  9  1  0  0  0  0
  9  4  2  0  0  0  0
 12  7  1  0  0  0  0
 13  8  1  0  0  0  0
 14  9  1  0  0  0  0
 14 15  1  0  0  0  0
 15 16  1  0  0  0  0
 17 15  2  0  0  0  0
 18 17  1  0  0  0  0
 19 18  2  0  0  0  0
 20 19  1  0  0  0  0
 21 19  1  0  0  0  0
 22 21  2  0  0  0  0
 22 24  1  0  0  0  0
 23 22  1  0  0  0  0
 24 25  2  0  0  0  0
 25 18  1  0  0  0  0
 25 14  1  0  0  0  0
 26 31  1  0  0  0  0
 27 28  1  0  0  0  0
 27 26  2  0  0  0  0
 28 29  2  0  0  0  0
 29 30  1  0  0  0  0
 30 35  1  0  0  0  0
 31 30  2  0  0  0  0
 32 26  1  0  0  0  0
 33 28  1  0  0  0  0
 34 39  1  6  0  0  0
 34 44  1  0  0  0  0
 34 38  1  0  0  0  0
 35 40  1  6  0  0  0
 35 34  1  0  0  0  0
 35 36  1  0  0  0  0
 36 37  1  0  0  0  0
 37 41  1  0  0  0  0
 37 42  1  0  0  0  0
 38 43  1  6  0  0  0
 38 37  1  0  0  0  0
 38 46  1  0  0  0  0
 45 44  1  0  0  0  0
 46 47  1  0  0  0  0
M  END
>  <minimizedAffinity>
-7.05520582

>  <minimizedRMSD>
0.935640991

$$$$
