
 OpenBabel03252501503D

 48 52  0  0  1  0  0  0  0  0999 V2000
   47.9520   34.9820   42.3240 C   0  0  0  0  0  0  0  0  0  0  0  0
   47.8980   34.4250   43.2850 H   0  0  0  0  0  0  0  0  0  0  0  0
   48.0240   36.0460   42.5600 H   0  0  0  0  0  0  0  0  0  0  0  0
   49.0780   34.4680   41.5880 N   0  0  0  0  0  0  0  0  0  0  0  0
   50.1380   34.1130   42.4660 C   0  0  0  0  0  0  0  0  0  0  0  0
   50.8270   32.9020   41.9070 C   0  0  0  0  0  0  0  0  0  0  0  0
   49.8030   32.3160   40.9940 C   0  0  0  0  0  0  0  0  0  0  0  0
   48.6990   33.3080   40.8520 C   0  0  2  0  0  0  0  0  0  0  0  0
   49.7320   33.8090   43.4700 H   0  0  0  0  0  0  0  0  0  0  0  0
   50.8290   34.9760   42.6330 H   0  0  0  0  0  0  0  0  0  0  0  0
   51.7510   33.2550   41.3960 H   0  0  0  0  0  0  0  0  0  0  0  0
   51.1390   32.1800   42.6860 H   0  0  0  0  0  0  0  0  0  0  0  0
   49.4660   31.2900   41.2690 H   0  0  0  0  0  0  0  0  0  0  0  0
   50.2830   32.1960   39.9850 H   0  0  0  0  0  0  0  0  0  0  0  0
   47.8160   32.8580   41.3520 H   0  0  0  0  0  0  0  0  0  0  0  0
   48.3280   33.5510   39.4770 N   0  0  0  0  0  0  0  0  0  0  0  0
   48.7750   34.6060   38.7610 C   0  0  0  0  0  0  0  0  0  0  0  0
   49.4510   35.4090   39.0730 H   0  0  0  0  0  0  0  0  0  0  0  0
   48.2440   34.5410   37.5250 N   0  0  0  0  0  0  0  0  0  0  0  0
   47.4780   33.4630   37.4650 C   0  0  0  0  0  0  0  0  0  0  0  0
   46.6720   32.8300   36.5270 C   0  0  0  0  0  0  0  0  0  0  0  0
   46.5910   33.2780   35.5330 H   0  0  0  0  0  0  0  0  0  0  0  0
   45.9760   31.7060   36.7300 N   0  0  0  0  0  0  0  0  0  0  0  0
   46.0410   31.1160   37.9330 C   0  0  0  0  0  0  0  0  0  0  0  0
   45.5650   30.2170   38.3010 H   0  0  0  0  0  0  0  0  0  0  0  0
   46.8080   31.6650   38.9220 N   0  0  0  0  0  0  0  0  0  0  0  0
   47.5040   32.8100   38.6800 C   0  0  0  0  0  0  0  0  0  0  0  0
   45.4920   34.9550   42.2470 C   0  0  0  0  0  3  0  0  0  0  0  0
   46.6500   34.7040   41.6120 C   0  0  0  0  0  3  0  0  0  0  0  0
   43.8830   33.4830   40.9130 C   0  0  0  0  0  0  0  0  0  0  0  0
   44.1970   34.6930   41.5700 C   0  0  0  0  0  0  0  0  0  0  0  0
   43.2330   35.7280   41.5920 C   0  0  0  0  0  0  0  0  0  0  0  0
   42.0480   35.4990   40.9740 N   0  0  0  0  0  0  0  0  0  0  0  0
   41.7910   34.3470   40.3660 C   0  0  0  0  0  0  0  0  0  0  0  0
   42.7060   33.3690   40.3480 N   0  0  0  0  0  0  0  0  0  0  0  0
   44.6680   32.7480   40.9420 H   0  0  0  0  0  0  0  0  0  0  0  0
   43.4060   36.6620   42.0680 H   0  0  0  0  0  0  0  0  0  0  0  0
   39.5430   33.5300   41.7550 F   0  0  0  0  0  0  0  0  0  0  0  0
   39.3910   33.7420   40.4330 C   0  0  0  0  0  0  0  0  0  0  0  0
   40.4950   34.1510   39.7130 C   0  0  0  0  0  0  0  0  0  0  0  0
   40.4340   34.3950   38.3390 C   0  0  0  0  0  0  0  0  0  0  0  0
   39.2070   34.2100   37.7100 C   0  0  0  0  0  0  0  0  0  0  0  0
   38.0700   33.7930   38.4320 C   0  0  0  0  0  0  0  0  0  0  0  0
   38.1790   33.5620   39.7970 C   0  0  0  0  0  0  0  0  0  0  0  0
   41.2870   34.7150   37.7590 H   0  0  0  0  0  0  0  0  0  0  0  0
   39.0920   34.3810   36.6520 H   0  0  0  0  0  0  0  0  0  0  0  0
   37.1240   33.6550   37.9260 H   0  0  0  0  0  0  0  0  0  0  0  0
   37.3260   33.2470   40.3540 H   0  0  0  0  0  0  0  0  0  0  0  0
  1  3  1  0  0  0  0
  1  2  1  0  0  0  0
  4  1  1  0  0  0  0
  4  5  1  0  0  0  0
  5 10  1  0  0  0  0
  5  9  1  0  0  0  0
  6  5  1  0  0  0  0
  6 12  1  0  0  0  0
  7 13  1  0  0  0  0
  7  6  1  0  0  0  0
  8  7  1  0  0  0  0
  8 15  1  1  0  0  0
  8  4  1  0  0  0  0
 11  6  1  0  0  0  0
 14  7  1  0  0  0  0
 16  8  1  0  0  0  0
 17 18  1  0  0  0  0
 17 16  1  0  0  0  0
 19 17  2  0  0  0  0
 20 19  1  0  0  0  0
 20 27  1  0  0  0  0
 21 23  1  0  0  0  0
 21 20  2  0  0  0  0
 22 21  1  0  0  0  0
 23 24  2  0  0  0  0
 24 25  1  0  0  0  0
 24 26  1  0  0  0  0
 27 26  2  0  0  0  0
 27 16  1  0  0  0  0
 29 28  2  0  0  0  0
 29  1  1  0  0  0  0
 30 36  1  0  0  0  0
 30 31  1  0  0  0  0
 31 32  2  0  0  0  0
 31 28  1  0  0  0  0
 32 37  1  0  0  0  0
 33 32  1  0  0  0  0
 34 33  2  0  0  0  0
 35 34  1  0  0  0  0
 35 30  2  0  0  0  0
 39 38  1  0  0  0  0
 40 34  1  0  0  0  0
 40 39  2  0  0  0  0
 41 40  1  0  0  0  0
 42 41  2  0  0  0  0
 42 43  1  0  0  0  0
 43 44  2  0  0  0  0
 44 48  1  0  0  0  0
 44 39  1  0  0  0  0
 45 41  1  0  0  0  0
 46 42  1  0  0  0  0
 47 43  1  0  0  0  0
M  END
>  <minimizedAffinity>
-6.70347166

>  <minimizedRMSD>
0.664374113

$$$$
