
 OpenBabel03252500163D

 41 45  0  0  0  0  0  0  0  0999 V2000
   41.1260   31.6650   40.4340 Cl  0  0  0  0  0  0  0  0  0  0  0  0
   40.4510   33.2630   40.2910 C   0  0  0  0  0  0  0  0  0  0  0  0
   41.2640   34.3430   40.0490 C   0  0  0  0  0  0  0  0  0  0  0  0
   40.7580   35.6350   39.9280 C   0  0  0  0  0  0  0  0  0  0  0  0
   39.3930   35.7640   40.0680 C   0  0  0  0  0  0  0  0  0  0  0  0
   38.5710   34.6790   40.3120 C   0  0  0  0  0  0  0  0  0  0  0  0
   39.0820   33.4520   40.4220 C   0  0  0  0  0  0  0  0  0  0  0  0
   41.4240   36.4650   39.7380 H   0  0  0  0  0  0  0  0  0  0  0  0
   38.9910   36.7590   39.9760 H   0  0  0  0  0  0  0  0  0  0  0  0
   37.5030   34.8090   40.4160 H   0  0  0  0  0  0  0  0  0  0  0  0
   44.8760   34.3500   40.7860 C   0  0  0  0  0  0  0  0  0  0  0  0
   45.4210   33.7520   39.6290 C   0  0  0  0  0  0  0  0  0  0  0  0
   44.5460   33.3570   38.6190 C   0  0  0  0  0  0  0  0  0  0  0  0
   43.2050   33.5670   38.7940 N   0  0  0  0  0  0  0  0  0  0  0  0
   42.7120   34.1410   39.9110 C   0  0  0  0  0  0  0  0  0  0  0  0
   43.5520   34.5260   40.8940 N   0  0  0  0  0  0  0  0  0  0  0  0
   45.5880   34.6420   41.5450 H   0  0  0  0  0  0  0  0  0  0  0  0
   46.4760   33.5900   39.4960 H   0  0  0  0  0  0  0  0  0  0  0  0
   45.0070   32.7140   37.3500 C   0  0  0  0  0  0  0  0  0  0  0  0
   45.6960   33.5980   36.5790 F   0  0  0  0  0  0  0  0  0  0  0  0
   45.8310   31.6550   37.6760 F   0  0  0  0  0  0  0  0  0  0  0  0
   43.8800   32.2460   36.7180 F   0  0  0  0  0  0  0  0  0  0  0  0
   38.2540   32.2840   40.6780 C   0  0  0  0  0  0  0  0  0  0  0  0
   36.9620   32.0970   40.1670 C   0  0  0  0  0  0  0  0  0  0  0  0
   36.4630   30.8890   40.6040 C   0  0  0  0  0  0  0  0  0  0  0  0
   37.4930   30.3910   41.3710 C   0  0  0  0  0  0  0  0  0  0  0  0
   38.5190   31.2220   41.3960 O   0  0  0  0  0  0  0  0  0  0  0  0
   36.3900   32.7780   39.5150 H   0  0  0  0  0  0  0  0  0  0  0  0
   35.5200   30.3990   40.4270 H   0  0  0  0  0  0  0  0  0  0  0  0
   37.4990   29.1460   42.0700 N   0  0  0  0  0  0  0  0  0  0  0  0
   37.7000   29.0030   43.3930 C   0  0  0  0  0  0  0  0  0  0  0  0
   37.8860   29.7430   44.1580 H   0  0  0  0  0  0  0  0  0  0  0  0
   37.6350   27.6750   43.7010 N   0  0  0  0  0  0  0  0  0  0  0  0
   37.3940   26.9750   42.5750 C   0  0  0  0  0  0  0  0  0  0  0  0
   37.2180   25.6640   42.1790 C   0  0  0  0  0  0  0  0  0  0  0  0
   37.2820   24.9160   42.9740 H   0  0  0  0  0  0  0  0  0  0  0  0
   36.9830   25.3370   40.8890 N   0  0  0  0  0  0  0  0  0  0  0  0
   36.9090   26.2760   39.9290 C   0  0  0  0  0  0  0  0  0  0  0  0
   36.7240   26.0660   38.8890 H   0  0  0  0  0  0  0  0  0  0  0  0
   37.0760   27.5730   40.2770 N   0  0  0  0  0  0  0  0  0  0  0  0
   37.3110   27.9140   41.5570 C   0  0  0  0  0  0  0  0  0  0  0  0
  2  7  1  0  0  0  0
  2  1  1  0  0  0  0
  3  2  2  0  0  0  0
  4  3  1  0  0  0  0
  4  5  2  0  0  0  0
  5  6  1  0  0  0  0
  6 10  1  0  0  0  0
  6  7  2  0  0  0  0
  7 23  1  0  0  0  0
  8  4  1  0  0  0  0
  9  5  1  0  0  0  0
 11 16  1  0  0  0  0
 11 17  1  0  0  0  0
 12 11  2  0  0  0  0
 13 14  2  0  0  0  0
 13 12  1  0  0  0  0
 14 15  1  0  0  0  0
 15  3  1  0  0  0  0
 15 16  2  0  0  0  0
 18 12  1  0  0  0  0
 19 21  1  0  0  0  0
 19 13  1  0  0  0  0
 20 19  1  0  0  0  0
 22 19  1  0  0  0  0
 23 27  1  0  0  0  0
 24 25  1  0  0  0  0
 24 23  2  0  0  0  0
 25 26  2  0  0  0  0
 26 27  1  0  0  0  0
 26 30  1  0  0  0  0
 28 24  1  0  0  0  0
 29 25  1  0  0  0  0
 30 31  1  0  0  0  0
 31 33  2  0  0  0  0
 31 32  1  0  0  0  0
 34 33  1  0  0  0  0
 35 34  1  0  0  0  0
 35 36  1  0  0  0  0
 37 35  2  0  0  0  0
 38 40  2  0  0  0  0
 38 37  1  0  0  0  0
 39 38  1  0  0  0  0
 40 41  1  0  0  0  0
 41 30  1  0  0  0  0
 41 34  2  0  0  0  0
M  END
>  <minimizedAffinity>
-7.40958214

$$$$

 OpenBabel03252500163D

 41 45  0  0  0  0  0  0  0  0999 V2000
   40.5160   30.6860   40.9710 Cl  0  0  0  0  0  0  0  0  0  0  0  0
   39.3010   31.8340   40.4840 C   0  0  0  0  0  0  0  0  0  0  0  0
   37.9930   31.4430   40.3390 C   0  0  0  0  0  0  0  0  0  0  0  0
   36.9950   32.3340   39.9520 C   0  0  0  0  0  0  0  0  0  0  0  0
   37.4010   33.6320   39.7200 C   0  0  0  0  0  0  0  0  0  0  0  0
   38.7170   34.0290   39.8650 C   0  0  0  0  0  0  0  0  0  0  0  0
   39.6520   33.1550   40.2380 C   0  0  0  0  0  0  0  0  0  0  0  0
   35.9740   31.9960   39.8450 H   0  0  0  0  0  0  0  0  0  0  0  0
   36.6370   34.3280   39.4200 H   0  0  0  0  0  0  0  0  0  0  0  0
   39.0080   35.0520   39.6780 H   0  0  0  0  0  0  0  0  0  0  0  0
   36.9750   27.9420   39.7950 C   0  0  0  0  0  0  0  0  0  0  0  0
   36.9330   27.4320   41.1110 C   0  0  0  0  0  0  0  0  0  0  0  0
   37.2530   28.2930   42.1600 C   0  0  0  0  0  0  0  0  0  0  0  0
   37.5910   29.5860   41.8670 N   0  0  0  0  0  0  0  0  0  0  0  0
   37.6230   30.0460   40.5990 C   0  0  0  0  0  0  0  0  0  0  0  0
   37.3150   29.2200   39.5780 N   0  0  0  0  0  0  0  0  0  0  0  0
   36.7200   27.2430   39.0110 H   0  0  0  0  0  0  0  0  0  0  0  0
   36.6660   26.4150   41.3360 H   0  0  0  0  0  0  0  0  0  0  0  0
   37.2430   27.8660   43.5930 C   0  0  0  0  0  0  0  0  0  0  0  0
   38.3270   27.0960   43.8780 F   0  0  0  0  0  0  0  0  0  0  0  0
   37.2690   28.9990   44.3820 F   0  0  0  0  0  0  0  0  0  0  0  0
   36.0630   27.1920   43.7920 F   0  0  0  0  0  0  0  0  0  0  0  0
   41.0480   33.5300   40.4020 C   0  0  0  0  0  0  0  0  0  0  0  0
   41.9810   33.6050   39.3580 C   0  0  0  0  0  0  0  0  0  0  0  0
   43.2060   33.9870   39.8590 C   0  0  0  0  0  0  0  0  0  0  0  0
   42.9550   34.1300   41.2060 C   0  0  0  0  0  0  0  0  0  0  0  0
   41.6950   33.8590   41.4920 O   0  0  0  0  0  0  0  0  0  0  0  0
   41.8110   33.3990   38.2880 H   0  0  0  0  0  0  0  0  0  0  0  0
   44.1550   34.1520   39.3780 H   0  0  0  0  0  0  0  0  0  0  0  0
   43.9010   34.5170   42.2040 N   0  0  0  0  0  0  0  0  0  0  0  0
   44.4100   35.7550   42.3470 C   0  0  0  0  0  0  0  0  0  0  0  0
   44.2290   36.6570   41.7810 H   0  0  0  0  0  0  0  0  0  0  0  0
   45.2770   35.7480   43.4020 N   0  0  0  0  0  0  0  0  0  0  0  0
   45.3180   34.5070   43.9270 C   0  0  0  0  0  0  0  0  0  0  0  0
   45.9480   33.8300   44.9520 C   0  0  0  0  0  0  0  0  0  0  0  0
   46.6370   34.4220   45.5600 H   0  0  0  0  0  0  0  0  0  0  0  0
   45.7210   32.5170   45.1790 N   0  0  0  0  0  0  0  0  0  0  0  0
   44.8690   31.8090   44.4180 C   0  0  0  0  0  0  0  0  0  0  0  0
   44.6550   30.7630   44.5590 H   0  0  0  0  0  0  0  0  0  0  0  0
   44.2320   32.4380   43.4030 N   0  0  0  0  0  0  0  0  0  0  0  0
   44.4470   33.7440   43.1640 C   0  0  0  0  0  0  0  0  0  0  0  0
  2  1  1  0  0  0  0
  3  2  1  0  0  0  0
  3 15  1  0  0  0  0
  4  3  2  0  0  0  0
  5  6  2  0  0  0  0
  5  4  1  0  0  0  0
  6  7  1  0  0  0  0
  7 23  1  0  0  0  0
  7  2  2  0  0  0  0
  8  4  1  0  0  0  0
  9  5  1  0  0  0  0
 10  6  1  0  0  0  0
 11 12  1  0  0  0  0
 12 18  1  0  0  0  0
 12 13  2  0  0  0  0
 13 19  1  0  0  0  0
 14 13  1  0  0  0  0
 15 14  2  0  0  0  0
 16 11  2  0  0  0  0
 16 15  1  0  0  0  0
 17 11  1  0  0  0  0
 19 22  1  0  0  0  0
 19 20  1  0  0  0  0
 19 21  1  0  0  0  0
 23 27  1  0  0  0  0
 24 25  1  0  0  0  0
 24 23  2  0  0  0  0
 25 26  2  0  0  0  0
 26 27  1  0  0  0  0
 26 30  1  0  0  0  0
 28 24  1  0  0  0  0
 29 25  1  0  0  0  0
 30 31  1  0  0  0  0
 30 41  1  0  0  0  0
 31 33  2  0  0  0  0
 32 31  1  0  0  0  0
 33 34  1  0  0  0  0
 34 35  1  0  0  0  0
 35 37  2  0  0  0  0
 35 36  1  0  0  0  0
 38 39  1  0  0  0  0
 38 37  1  0  0  0  0
 40 38  2  0  0  0  0
 41 40  1  0  0  0  0
 41 34  2  0  0  0  0
M  END
>  <minimizedAffinity>
-7.2922492

$$$$

 OpenBabel03252500163D

 41 45  0  0  0  0  0  0  0  0999 V2000
   37.9640   28.1090   39.4940 Cl  0  0  0  0  0  0  0  0  0  0  0  0
   37.7400   28.0220   41.2180 C   0  0  0  0  0  0  0  0  0  0  0  0
   37.6300   26.8050   41.8440 C   0  0  0  0  0  0  0  0  0  0  0  0
   37.4510   26.6980   43.2220 C   0  0  0  0  0  0  0  0  0  0  0  0
   37.3900   27.8870   43.9170 C   0  0  0  0  0  0  0  0  0  0  0  0
   37.5020   29.1140   43.2890 C   0  0  0  0  0  0  0  0  0  0  0  0
   37.6740   29.1870   41.9690 C   0  0  0  0  0  0  0  0  0  0  0  0
   37.3660   25.7250   43.6860 H   0  0  0  0  0  0  0  0  0  0  0  0
   37.2530   27.8150   44.9820 H   0  0  0  0  0  0  0  0  0  0  0  0
   37.4520   30.0310   43.8590 H   0  0  0  0  0  0  0  0  0  0  0  0
   38.9740   23.8600   40.0810 C   0  0  0  0  0  0  0  0  0  0  0  0
   37.8070   23.2660   39.5530 C   0  0  0  0  0  0  0  0  0  0  0  0
   36.5830   23.8810   39.8080 C   0  0  0  0  0  0  0  0  0  0  0  0
   36.5690   25.0280   40.5560 N   0  0  0  0  0  0  0  0  0  0  0  0
   37.7000   25.5730   41.0480 C   0  0  0  0  0  0  0  0  0  0  0  0
   38.8890   24.9840   40.8060 N   0  0  0  0  0  0  0  0  0  0  0  0
   39.9020   23.3520   39.8600 H   0  0  0  0  0  0  0  0  0  0  0  0
   37.8240   22.3650   38.9660 H   0  0  0  0  0  0  0  0  0  0  0  0
   35.2820   23.3450   39.3030 C   0  0  0  0  0  0  0  0  0  0  0  0
   34.4050   23.1530   40.3250 F   0  0  0  0  0  0  0  0  0  0  0  0
   34.7520   24.2600   38.4140 F   0  0  0  0  0  0  0  0  0  0  0  0
   35.5720   22.1750   38.6440 F   0  0  0  0  0  0  0  0  0  0  0  0
   37.7960   30.4570   41.2700 C   0  0  0  0  0  0  0  0  0  0  0  0
   36.7320   31.1330   40.6560 C   0  0  0  0  0  0  0  0  0  0  0  0
   37.1940   32.2990   40.0860 C   0  0  0  0  0  0  0  0  0  0  0  0
   38.5380   32.2760   40.3850 C   0  0  0  0  0  0  0  0  0  0  0  0
   38.8590   31.1960   41.0730 O   0  0  0  0  0  0  0  0  0  0  0  0
   35.6750   30.8230   40.6090 H   0  0  0  0  0  0  0  0  0  0  0  0
   36.6880   33.0750   39.5350 H   0  0  0  0  0  0  0  0  0  0  0  0
   39.5010   33.2660   40.0210 N   0  0  0  0  0  0  0  0  0  0  0  0
   39.6440   34.4620   40.6210 C   0  0  0  0  0  0  0  0  0  0  0  0
   39.1030   34.9020   41.4460 H   0  0  0  0  0  0  0  0  0  0  0  0
   40.6600   35.1360   40.0070 N   0  0  0  0  0  0  0  0  0  0  0  0
   41.1610   34.3690   39.0180 C   0  0  0  0  0  0  0  0  0  0  0  0
   42.1460   34.4260   38.0520 C   0  0  0  0  0  0  0  0  0  0  0  0
   42.7340   35.3470   38.0270 H   0  0  0  0  0  0  0  0  0  0  0  0
   42.3590   33.4010   37.1960 N   0  0  0  0  0  0  0  0  0  0  0  0
   41.6220   32.2780   37.2470 C   0  0  0  0  0  0  0  0  0  0  0  0
   41.7540   31.4360   36.5880 H   0  0  0  0  0  0  0  0  0  0  0  0
   40.6470   32.1850   38.1800 N   0  0  0  0  0  0  0  0  0  0  0  0
   40.4230   33.1950   39.0390 C   0  0  0  0  0  0  0  0  0  0  0  0
  1  2  1  0  0  0  0
  2  3  2  0  0  0  0
  2  7  1  0  0  0  0
  3  4  1  0  0  0  0
  4  8  1  0  0  0  0
  4  5  2  0  0  0  0
  5  9  1  0  0  0  0
  6 10  1  0  0  0  0
  6  5  1  0  0  0  0
  7  6  2  0  0  0  0
 11 16  1  0  0  0  0
 12 13  1  0  0  0  0
 12 11  2  0  0  0  0
 13 14  2  0  0  0  0
 14 15  1  0  0  0  0
 15  3  1  0  0  0  0
 16 15  2  0  0  0  0
 17 11  1  0  0  0  0
 18 12  1  0  0  0  0
 19 13  1  0  0  0  0
 19 20  1  0  0  0  0
 21 19  1  0  0  0  0
 22 19  1  0  0  0  0
 23  7  1  0  0  0  0
 24 23  2  0  0  0  0
 25 26  2  0  0  0  0
 25 24  1  0  0  0  0
 26 27  1  0  0  0  0
 27 23  1  0  0  0  0
 28 24  1  0  0  0  0
 29 25  1  0  0  0  0
 30 26  1  0  0  0  0
 30 31  1  0  0  0  0
 31 32  1  0  0  0  0
 33 31  2  0  0  0  0
 34 41  1  0  0  0  0
 34 33  1  0  0  0  0
 35 34  2  0  0  0  0
 36 35  1  0  0  0  0
 37 38  2  0  0  0  0
 37 35  1  0  0  0  0
 38 40  1  0  0  0  0
 39 38  1  0  0  0  0
 40 41  2  0  0  0  0
 41 30  1  0  0  0  0
M  END
>  <minimizedAffinity>
-7.1505785

$$$$

 OpenBabel03252500163D

 41 45  0  0  0  0  0  0  0  0999 V2000
   40.5180   29.7260   40.4630 Cl  0  0  0  0  0  0  0  0  0  0  0  0
   38.8250   30.0970   40.6200 C   0  0  0  0  0  0  0  0  0  0  0  0
   37.9070   29.0930   40.8070 C   0  0  0  0  0  0  0  0  0  0  0  0
   36.5440   29.3540   40.9360 C   0  0  0  0  0  0  0  0  0  0  0  0
   36.1740   30.6800   40.8640 C   0  0  0  0  0  0  0  0  0  0  0  0
   37.0960   31.6930   40.6760 C   0  0  0  0  0  0  0  0  0  0  0  0
   38.3940   31.4160   40.5560 C   0  0  0  0  0  0  0  0  0  0  0  0
   35.8450   28.5420   41.0820 H   0  0  0  0  0  0  0  0  0  0  0  0
   35.1230   30.8930   40.9630 H   0  0  0  0  0  0  0  0  0  0  0  0
   36.7780   32.7250   40.6240 H   0  0  0  0  0  0  0  0  0  0  0  0
   38.6340   25.6080   39.8510 C   0  0  0  0  0  0  0  0  0  0  0  0
   39.2260   25.0910   41.0240 C   0  0  0  0  0  0  0  0  0  0  0  0
   39.3670   25.9420   42.1190 C   0  0  0  0  0  0  0  0  0  0  0  0
   38.9260   27.2320   42.0070 N   0  0  0  0  0  0  0  0  0  0  0  0
   38.3630   27.7000   40.8740 C   0  0  0  0  0  0  0  0  0  0  0  0
   38.2230   26.8830   39.8090 N   0  0  0  0  0  0  0  0  0  0  0  0
   38.5430   24.9160   39.0260 H   0  0  0  0  0  0  0  0  0  0  0  0
   39.5700   24.0760   41.1060 H   0  0  0  0  0  0  0  0  0  0  0  0
   39.9790   25.5080   43.4130 C   0  0  0  0  0  0  0  0  0  0  0  0
   39.5950   26.3250   44.4300 F   0  0  0  0  0  0  0  0  0  0  0  0
   39.5580   24.2200   43.6800 F   0  0  0  0  0  0  0  0  0  0  0  0
   41.3390   25.5200   43.2240 F   0  0  0  0  0  0  0  0  0  0  0  0
   39.3970   32.4510   40.3570 C   0  0  0  0  0  0  0  0  0  0  0  0
   39.1110   33.7840   40.0330 C   0  0  0  0  0  0  0  0  0  0  0  0
   40.2870   34.4930   39.9160 C   0  0  0  0  0  0  0  0  0  0  0  0
   41.2470   33.5410   40.1800 C   0  0  0  0  0  0  0  0  0  0  0  0
   40.7010   32.3660   40.4320 O   0  0  0  0  0  0  0  0  0  0  0  0
   38.1190   34.2430   39.8830 H   0  0  0  0  0  0  0  0  0  0  0  0
   40.4770   35.5270   39.6820 H   0  0  0  0  0  0  0  0  0  0  0  0
   42.6600   33.7480   40.1900 N   0  0  0  0  0  0  0  0  0  0  0  0
   43.5220   33.2340   39.2940 C   0  0  0  0  0  0  0  0  0  0  0  0
   43.3480   32.6000   38.4360 H   0  0  0  0  0  0  0  0  0  0  0  0
   44.7830   33.6440   39.6200 N   0  0  0  0  0  0  0  0  0  0  0  0
   44.7200   34.4180   40.7220 C   0  0  0  0  0  0  0  0  0  0  0  0
   45.5700   35.1250   41.5490 C   0  0  0  0  0  0  0  0  0  0  0  0
   46.6300   35.0880   41.2840 H   0  0  0  0  0  0  0  0  0  0  0  0
   45.1100   35.8170   42.6150 N   0  0  0  0  0  0  0  0  0  0  0  0
   43.8010   35.8490   42.9200 C   0  0  0  0  0  0  0  0  0  0  0  0
   43.3860   36.3840   43.7580 H   0  0  0  0  0  0  0  0  0  0  0  0
   42.9360   35.1670   42.1340 N   0  0  0  0  0  0  0  0  0  0  0  0
   43.3790   34.4740   41.0690 C   0  0  0  0  0  0  0  0  0  0  0  0
  1  2  1  0  0  0  0
  2  3  1  0  0  0  0
  3 15  1  0  0  0  0
  3  4  2  0  0  0  0
  4  8  1  0  0  0  0
  5  4  1  0  0  0  0
  5  9  1  0  0  0  0
  6  5  2  0  0  0  0
  7  2  2  0  0  0  0
  7  6  1  0  0  0  0
 10  6  1  0  0  0  0
 11 12  1  0  0  0  0
 12 18  1  0  0  0  0
 12 13  2  0  0  0  0
 13 19  1  0  0  0  0
 14 13  1  0  0  0  0
 15 14  2  0  0  0  0
 16 11  2  0  0  0  0
 16 15  1  0  0  0  0
 17 11  1  0  0  0  0
 19 21  1  0  0  0  0
 19 20  1  0  0  0  0
 22 19  1  0  0  0  0
 23 27  1  0  0  0  0
 23  7  1  0  0  0  0
 24 23  2  0  0  0  0
 25 24  1  0  0  0  0
 25 26  2  0  0  0  0
 26 30  1  0  0  0  0
 26 27  1  0  0  0  0
 28 24  1  0  0  0  0
 29 25  1  0  0  0  0
 30 41  1  0  0  0  0
 31 33  2  0  0  0  0
 31 30  1  0  0  0  0
 32 31  1  0  0  0  0
 33 34  1  0  0  0  0
 34 41  2  0  0  0  0
 34 35  1  0  0  0  0
 35 37  2  0  0  0  0
 36 35  1  0  0  0  0
 37 38  1  0  0  0  0
 38 39  1  0  0  0  0
 40 38  2  0  0  0  0
 41 40  1  0  0  0  0
M  END
>  <minimizedAffinity>
-6.9007349

$$$$

 OpenBabel03252500163D

 41 45  0  0  0  0  0  0  0  0999 V2000
   40.5580   30.1590   41.6790 Cl  0  0  0  0  0  0  0  0  0  0  0  0
   38.8590   30.3990   41.3830 C   0  0  0  0  0  0  0  0  0  0  0  0
   37.9620   29.3870   41.6210 C   0  0  0  0  0  0  0  0  0  0  0  0
   36.5960   29.5440   41.3960 C   0  0  0  0  0  0  0  0  0  0  0  0
   36.2000   30.7760   40.9200 C   0  0  0  0  0  0  0  0  0  0  0  0
   37.1010   31.7970   40.6800 C   0  0  0  0  0  0  0  0  0  0  0  0
   38.4030   31.6200   40.9040 C   0  0  0  0  0  0  0  0  0  0  0  0
   35.9140   28.7280   41.5920 H   0  0  0  0  0  0  0  0  0  0  0  0
   35.1470   30.9080   40.7430 H   0  0  0  0  0  0  0  0  0  0  0  0
   36.7630   32.7530   40.3070 H   0  0  0  0  0  0  0  0  0  0  0  0
   39.5470   26.8570   43.7840 C   0  0  0  0  0  0  0  0  0  0  0  0
   39.3430   25.6660   43.0540 C   0  0  0  0  0  0  0  0  0  0  0  0
   38.6680   25.7480   41.8370 C   0  0  0  0  0  0  0  0  0  0  0  0
   38.2370   26.9740   41.4080 N   0  0  0  0  0  0  0  0  0  0  0  0
   38.4450   28.0960   42.1270 C   0  0  0  0  0  0  0  0  0  0  0  0
   39.0980   28.0260   43.3050 N   0  0  0  0  0  0  0  0  0  0  0  0
   40.0750   26.7510   44.7210 H   0  0  0  0  0  0  0  0  0  0  0  0
   39.6850   24.7060   43.3960 H   0  0  0  0  0  0  0  0  0  0  0  0
   38.3930   24.5550   40.9780 C   0  0  0  0  0  0  0  0  0  0  0  0
   37.0570   24.3960   40.7810 F   0  0  0  0  0  0  0  0  0  0  0  0
   39.0130   24.7480   39.7590 F   0  0  0  0  0  0  0  0  0  0  0  0
   38.9540   23.4760   41.6170 F   0  0  0  0  0  0  0  0  0  0  0  0
   39.3840   32.6670   40.6650 C   0  0  0  0  0  0  0  0  0  0  0  0
   39.0930   33.9180   40.1050 C   0  0  0  0  0  0  0  0  0  0  0  0
   40.2470   34.6660   40.0170 C   0  0  0  0  0  0  0  0  0  0  0  0
   41.2000   33.8190   40.5380 C   0  0  0  0  0  0  0  0  0  0  0  0
   40.6710   32.6670   40.9060 O   0  0  0  0  0  0  0  0  0  0  0  0
   38.1110   34.2940   39.7700 H   0  0  0  0  0  0  0  0  0  0  0  0
   40.4270   35.6620   39.6490 H   0  0  0  0  0  0  0  0  0  0  0  0
   42.5930   34.1030   40.6820 N   0  0  0  0  0  0  0  0  0  0  0  0
   43.1750   34.5690   41.8020 C   0  0  0  0  0  0  0  0  0  0  0  0
   42.7490   34.8120   42.7650 H   0  0  0  0  0  0  0  0  0  0  0  0
   44.5110   34.7190   41.5670 N   0  0  0  0  0  0  0  0  0  0  0  0
   44.7770   34.3480   40.2980 C   0  0  0  0  0  0  0  0  0  0  0  0
   45.8580   34.2530   39.4450 C   0  0  0  0  0  0  0  0  0  0  0  0
   46.8220   34.5540   39.8640 H   0  0  0  0  0  0  0  0  0  0  0  0
   45.7220   33.8140   38.1740 N   0  0  0  0  0  0  0  0  0  0  0  0
   44.5260   33.4480   37.6810 C   0  0  0  0  0  0  0  0  0  0  0  0
   44.3670   33.0920   36.6770 H   0  0  0  0  0  0  0  0  0  0  0  0
   43.4420   33.5280   38.4870 N   0  0  0  0  0  0  0  0  0  0  0  0
   43.5610   33.9630   39.7540 C   0  0  0  0  0  0  0  0  0  0  0  0
  2  3  1  0  0  0  0
  2  1  1  0  0  0  0
  3 15  1  0  0  0  0
  4  8  1  0  0  0  0
  4  3  2  0  0  0  0
  5  4  1  0  0  0  0
  6  7  1  0  0  0  0
  6  5  2  0  0  0  0
  7  2  2  0  0  0  0
  9  5  1  0  0  0  0
 10  6  1  0  0  0  0
 11 17  1  0  0  0  0
 12 18  1  0  0  0  0
 12 11  2  0  0  0  0
 13 12  1  0  0  0  0
 14 13  2  0  0  0  0
 14 15  1  0  0  0  0
 15 16  2  0  0  0  0
 16 11  1  0  0  0  0
 19 22  1  0  0  0  0
 19 13  1  0  0  0  0
 20 19  1  0  0  0  0
 21 19  1  0  0  0  0
 23  7  1  0  0  0  0
 23 27  1  0  0  0  0
 24 23  2  0  0  0  0
 25 24  1  0  0  0  0
 25 26  2  0  0  0  0
 26 30  1  0  0  0  0
 26 27  1  0  0  0  0
 28 24  1  0  0  0  0
 29 25  1  0  0  0  0
 30 31  1  0  0  0  0
 31 32  1  0  0  0  0
 33 31  2  0  0  0  0
 34 33  1  0  0  0  0
 35 36  1  0  0  0  0
 35 34  2  0  0  0  0
 37 35  1  0  0  0  0
 38 37  2  0  0  0  0
 38 40  1  0  0  0  0
 39 38  1  0  0  0  0
 40 41  2  0  0  0  0
 41 34  1  0  0  0  0
 41 30  1  0  0  0  0
M  END
>  <minimizedAffinity>
-6.87227535

$$$$

 OpenBabel03252500163D

 41 45  0  0  0  0  0  0  0  0999 V2000
   37.9250   28.2820   39.3180 Cl  0  0  0  0  0  0  0  0  0  0  0  0
   37.7590   28.1300   41.0450 C   0  0  0  0  0  0  0  0  0  0  0  0
   37.6540   26.8900   41.6270 C   0  0  0  0  0  0  0  0  0  0  0  0
   37.5200   26.7320   43.0040 C   0  0  0  0  0  0  0  0  0  0  0  0
   37.4980   27.8930   43.7470 C   0  0  0  0  0  0  0  0  0  0  0  0
   37.6030   29.1420   43.1640 C   0  0  0  0  0  0  0  0  0  0  0  0
   37.7310   29.2660   41.8420 C   0  0  0  0  0  0  0  0  0  0  0  0
   37.4380   25.7430   43.4340 H   0  0  0  0  0  0  0  0  0  0  0  0
   37.3950   27.7820   44.8130 H   0  0  0  0  0  0  0  0  0  0  0  0
   37.5840   30.0370   43.7700 H   0  0  0  0  0  0  0  0  0  0  0  0
   36.5790   23.8410   39.8560 C   0  0  0  0  0  0  0  0  0  0  0  0
   37.7620   23.4450   39.1940 C   0  0  0  0  0  0  0  0  0  0  0  0
   38.9040   24.2260   39.3640 C   0  0  0  0  0  0  0  0  0  0  0  0
   38.8260   25.3350   40.1610 N   0  0  0  0  0  0  0  0  0  0  0  0
   37.6820   25.6900   40.7820 C   0  0  0  0  0  0  0  0  0  0  0  0
   36.5730   24.9400   40.6230 N   0  0  0  0  0  0  0  0  0  0  0  0
   35.7170   23.2090   39.6990 H   0  0  0  0  0  0  0  0  0  0  0  0
   37.8170   22.5720   38.5690 H   0  0  0  0  0  0  0  0  0  0  0  0
   40.2110   23.9060   38.7130 C   0  0  0  0  0  0  0  0  0  0  0  0
   40.3220   22.5710   38.4760 F   0  0  0  0  0  0  0  0  0  0  0  0
   40.2760   24.5880   37.5140 F   0  0  0  0  0  0  0  0  0  0  0  0
   41.1910   24.3640   39.5590 F   0  0  0  0  0  0  0  0  0  0  0  0
   37.8450   30.5600   41.1890 C   0  0  0  0  0  0  0  0  0  0  0  0
   36.7730   31.2640   40.6230 C   0  0  0  0  0  0  0  0  0  0  0  0
   37.2290   32.4490   40.0870 C   0  0  0  0  0  0  0  0  0  0  0  0
   38.5790   32.4080   40.3580 C   0  0  0  0  0  0  0  0  0  0  0  0
   38.9080   31.3020   40.9980 O   0  0  0  0  0  0  0  0  0  0  0  0
   35.7130   30.9600   40.5860 H   0  0  0  0  0  0  0  0  0  0  0  0
   36.7160   33.2460   39.5760 H   0  0  0  0  0  0  0  0  0  0  0  0
   39.5400   33.4070   40.0120 N   0  0  0  0  0  0  0  0  0  0  0  0
   39.6550   34.6070   40.6100 C   0  0  0  0  0  0  0  0  0  0  0  0
   39.0910   35.0450   41.4210 H   0  0  0  0  0  0  0  0  0  0  0  0
   40.6780   35.2900   40.0170 N   0  0  0  0  0  0  0  0  0  0  0  0
   41.2100   34.5250   39.0440 C   0  0  0  0  0  0  0  0  0  0  0  0
   42.2160   34.5890   38.1000 C   0  0  0  0  0  0  0  0  0  0  0  0
   42.7940   35.5160   38.0850 H   0  0  0  0  0  0  0  0  0  0  0  0
   42.4600   33.5630   37.2530 N   0  0  0  0  0  0  0  0  0  0  0  0
   41.7340   32.4320   37.2910 C   0  0  0  0  0  0  0  0  0  0  0  0
   41.8900   31.5890   36.6390 H   0  0  0  0  0  0  0  0  0  0  0  0
   40.7390   32.3320   38.2030 N   0  0  0  0  0  0  0  0  0  0  0  0
   40.4840   33.3430   39.0520 C   0  0  0  0  0  0  0  0  0  0  0  0
  1  2  1  0  0  0  0
  2  3  2  0  0  0  0
  2  7  1  0  0  0  0
  3  4  1  0  0  0  0
  4  8  1  0  0  0  0
  4  5  2  0  0  0  0
  5  9  1  0  0  0  0
  6  5  1  0  0  0  0
  6 10  1  0  0  0  0
  7  6  2  0  0  0  0
 11 16  1  0  0  0  0
 12 13  1  0  0  0  0
 12 11  2  0  0  0  0
 13 14  2  0  0  0  0
 14 15  1  0  0  0  0
 15  3  1  0  0  0  0
 16 15  2  0  0  0  0
 17 11  1  0  0  0  0
 18 12  1  0  0  0  0
 19 13  1  0  0  0  0
 19 22  1  0  0  0  0
 20 19  1  0  0  0  0
 21 19  1  0  0  0  0
 23  7  1  0  0  0  0
 24 23  2  0  0  0  0
 25 26  2  0  0  0  0
 25 24  1  0  0  0  0
 26 27  1  0  0  0  0
 27 23  1  0  0  0  0
 28 24  1  0  0  0  0
 29 25  1  0  0  0  0
 30 26  1  0  0  0  0
 30 31  1  0  0  0  0
 31 32  1  0  0  0  0
 33 31  2  0  0  0  0
 34 41  1  0  0  0  0
 34 33  1  0  0  0  0
 35 34  2  0  0  0  0
 36 35  1  0  0  0  0
 37 38  2  0  0  0  0
 37 35  1  0  0  0  0
 38 40  1  0  0  0  0
 39 38  1  0  0  0  0
 40 41  2  0  0  0  0
 41 30  1  0  0  0  0
M  END
>  <minimizedAffinity>
-6.86398315

$$$$

 OpenBabel03252500163D

 41 45  0  0  0  0  0  0  0  0999 V2000
   40.7580   30.5350   41.2420 Cl  0  0  0  0  0  0  0  0  0  0  0  0
   39.2720   31.2890   40.7390 C   0  0  0  0  0  0  0  0  0  0  0  0
   39.2920   32.4760   40.0490 C   0  0  0  0  0  0  0  0  0  0  0  0
   38.1220   33.1050   39.6300 C   0  0  0  0  0  0  0  0  0  0  0  0
   36.9430   32.4660   39.9520 C   0  0  0  0  0  0  0  0  0  0  0  0
   36.9200   31.2710   40.6460 C   0  0  0  0  0  0  0  0  0  0  0  0
   38.0550   30.6890   41.0350 C   0  0  0  0  0  0  0  0  0  0  0  0
   38.1700   34.0400   39.0890 H   0  0  0  0  0  0  0  0  0  0  0  0
   36.0340   32.9440   39.6330 H   0  0  0  0  0  0  0  0  0  0  0  0
   35.9820   30.7900   40.8850 H   0  0  0  0  0  0  0  0  0  0  0  0
   42.1860   33.7560   38.1580 C   0  0  0  0  0  0  0  0  0  0  0  0
   42.9960   34.2990   39.1790 C   0  0  0  0  0  0  0  0  0  0  0  0
   42.5400   34.2180   40.4930 C   0  0  0  0  0  0  0  0  0  0  0  0
   41.3330   33.6190   40.7330 N   0  0  0  0  0  0  0  0  0  0  0  0
   40.5790   33.1080   39.7370 C   0  0  0  0  0  0  0  0  0  0  0  0
   41.0140   33.1820   38.4620 N   0  0  0  0  0  0  0  0  0  0  0  0
   42.5760   33.8380   37.1540 H   0  0  0  0  0  0  0  0  0  0  0  0
   43.9440   34.7680   38.9850 H   0  0  0  0  0  0  0  0  0  0  0  0
   43.3110   34.7580   41.6560 C   0  0  0  0  0  0  0  0  0  0  0  0
   42.6920   35.8480   42.1840 F   0  0  0  0  0  0  0  0  0  0  0  0
   43.3920   33.7700   42.6170 F   0  0  0  0  0  0  0  0  0  0  0  0
   44.5680   35.0530   41.1880 F   0  0  0  0  0  0  0  0  0  0  0  0
   38.0750   29.4320   41.7670 C   0  0  0  0  0  0  0  0  0  0  0  0
   37.8200   29.3060   43.1390 C   0  0  0  0  0  0  0  0  0  0  0  0
   37.9220   27.9830   43.5090 C   0  0  0  0  0  0  0  0  0  0  0  0
   38.2390   27.3570   42.3230 C   0  0  0  0  0  0  0  0  0  0  0  0
   38.3200   28.2220   41.3300 O   0  0  0  0  0  0  0  0  0  0  0  0
   37.5730   30.1090   43.8550 H   0  0  0  0  0  0  0  0  0  0  0  0
   37.7980   27.4950   44.4610 H   0  0  0  0  0  0  0  0  0  0  0  0
   38.4610   25.9580   42.1400 N   0  0  0  0  0  0  0  0  0  0  0  0
   39.3910   25.2320   42.7870 C   0  0  0  0  0  0  0  0  0  0  0  0
   40.1190   25.5260   43.5300 H   0  0  0  0  0  0  0  0  0  0  0  0
   39.3080   23.9390   42.3580 N   0  0  0  0  0  0  0  0  0  0  0  0
   38.3270   23.8440   41.4390 C   0  0  0  0  0  0  0  0  0  0  0  0
   37.7370   22.8860   40.6390 C   0  0  0  0  0  0  0  0  0  0  0  0
   38.1430   21.8750   40.7310 H   0  0  0  0  0  0  0  0  0  0  0  0
   36.7220   23.1900   39.7990 N   0  0  0  0  0  0  0  0  0  0  0  0
   36.2390   24.4410   39.7040 C   0  0  0  0  0  0  0  0  0  0  0  0
   35.4340   24.7320   39.0510 H   0  0  0  0  0  0  0  0  0  0  0  0
   36.7920   25.4080   40.4720 N   0  0  0  0  0  0  0  0  0  0  0  0
   37.8020   25.1220   41.3120 C   0  0  0  0  0  0  0  0  0  0  0  0
  2  7  1  0  0  0  0
  2  1  1  0  0  0  0
  3  2  2  0  0  0  0
  4  5  2  0  0  0  0
  4  3  1  0  0  0  0
  5  6  1  0  0  0  0
  6 10  1  0  0  0  0
  6  7  2  0  0  0  0
  7 23  1  0  0  0  0
  8  4  1  0  0  0  0
  9  5  1  0  0  0  0
 11 16  2  0  0  0  0
 11 12  1  0  0  0  0
 12 13  2  0  0  0  0
 13 14  1  0  0  0  0
 13 19  1  0  0  0  0
 15  3  1  0  0  0  0
 15 14  2  0  0  0  0
 16 15  1  0  0  0  0
 17 11  1  0  0  0  0
 18 12  1  0  0  0  0
 19 20  1  0  0  0  0
 19 21  1  0  0  0  0
 22 19  1  0  0  0  0
 23 24  2  0  0  0  0
 24 25  1  0  0  0  0
 24 28  1  0  0  0  0
 25 29  1  0  0  0  0
 26 25  2  0  0  0  0
 27 23  1  0  0  0  0
 27 26  1  0  0  0  0
 30 26  1  0  0  0  0
 30 31  1  0  0  0  0
 31 32  1  0  0  0  0
 33 31  2  0  0  0  0
 34 33  1  0  0  0  0
 35 36  1  0  0  0  0
 35 34  2  0  0  0  0
 37 35  1  0  0  0  0
 38 37  2  0  0  0  0
 38 40  1  0  0  0  0
 39 38  1  0  0  0  0
 40 41  2  0  0  0  0
 41 34  1  0  0  0  0
 41 30  1  0  0  0  0
M  END
>  <minimizedAffinity>
-6.86374283

$$$$

 OpenBabel03252500163D

 41 45  0  0  0  0  0  0  0  0999 V2000
   41.1200   31.5340   40.1370 Cl  0  0  0  0  0  0  0  0  0  0  0  0
   40.2530   33.0440   40.1410 C   0  0  0  0  0  0  0  0  0  0  0  0
   40.9320   34.2360   40.0920 C   0  0  0  0  0  0  0  0  0  0  0  0
   40.2710   35.4620   40.0920 C   0  0  0  0  0  0  0  0  0  0  0  0
   38.8940   35.4060   40.1450 C   0  0  0  0  0  0  0  0  0  0  0  0
   38.2070   34.2070   40.1940 C   0  0  0  0  0  0  0  0  0  0  0  0
   38.8650   33.0480   40.1920 C   0  0  0  0  0  0  0  0  0  0  0  0
   40.8330   36.3850   40.0550 H   0  0  0  0  0  0  0  0  0  0  0  0
   38.3730   36.3480   40.1450 H   0  0  0  0  0  0  0  0  0  0  0  0
   37.1280   34.1920   40.2330 H   0  0  0  0  0  0  0  0  0  0  0  0
   44.3780   33.9910   38.8050 C   0  0  0  0  0  0  0  0  0  0  0  0
   45.1500   34.2250   39.9640 C   0  0  0  0  0  0  0  0  0  0  0  0
   44.4800   34.4620   41.1630 C   0  0  0  0  0  0  0  0  0  0  0  0
   43.1120   34.4570   41.1620 N   0  0  0  0  0  0  0  0  0  0  0  0
   42.3990   34.2310   40.0390 C   0  0  0  0  0  0  0  0  0  0  0  0
   43.0390   34.0000   38.8740 N   0  0  0  0  0  0  0  0  0  0  0  0
   44.9350   33.8110   37.8970 H   0  0  0  0  0  0  0  0  0  0  0  0
   46.2250   34.2270   39.9600 H   0  0  0  0  0  0  0  0  0  0  0  0
   45.1900   34.7220   42.4530 C   0  0  0  0  0  0  0  0  0  0  0  0
   45.9490   35.8480   42.3710 F   0  0  0  0  0  0  0  0  0  0  0  0
   44.2420   34.8840   43.4440 F   0  0  0  0  0  0  0  0  0  0  0  0
   45.9470   33.6070   42.7140 F   0  0  0  0  0  0  0  0  0  0  0  0
   38.1820   31.7650   40.2410 C   0  0  0  0  0  0  0  0  0  0  0  0
   37.1630   31.3700   39.3630 C   0  0  0  0  0  0  0  0  0  0  0  0
   36.7370   30.1020   39.6900 C   0  0  0  0  0  0  0  0  0  0  0  0
   37.5300   29.7800   40.7690 C   0  0  0  0  0  0  0  0  0  0  0  0
   38.3590   30.7630   41.0660 O   0  0  0  0  0  0  0  0  0  0  0  0
   36.7350   31.9480   38.5260 H   0  0  0  0  0  0  0  0  0  0  0  0
   35.9830   29.4670   39.2550 H   0  0  0  0  0  0  0  0  0  0  0  0
   37.4980   28.5560   41.5050 N   0  0  0  0  0  0  0  0  0  0  0  0
   36.5310   28.2000   42.3700 C   0  0  0  0  0  0  0  0  0  0  0  0
   35.6350   28.7220   42.6750 H   0  0  0  0  0  0  0  0  0  0  0  0
   36.8360   26.9700   42.8790 N   0  0  0  0  0  0  0  0  0  0  0  0
   37.9950   26.5470   42.3380 C   0  0  0  0  0  0  0  0  0  0  0  0
   38.8380   25.4550   42.4020 C   0  0  0  0  0  0  0  0  0  0  0  0
   38.5280   24.6550   43.0780 H   0  0  0  0  0  0  0  0  0  0  0  0
   39.9720   25.3900   41.6690 N   0  0  0  0  0  0  0  0  0  0  0  0
   40.3320   26.3880   40.8420 C   0  0  0  0  0  0  0  0  0  0  0  0
   41.2240   26.3830   40.2390 H   0  0  0  0  0  0  0  0  0  0  0  0
   39.5320   27.4750   40.7520 N   0  0  0  0  0  0  0  0  0  0  0  0
   38.4000   27.5540   41.4750 C   0  0  0  0  0  0  0  0  0  0  0  0
  1  2  1  0  0  0  0
  2  7  1  0  0  0  0
  3  4  1  0  0  0  0
  3  2  2  0  0  0  0
  4  5  2  0  0  0  0
  5  6  1  0  0  0  0
  6 10  1  0  0  0  0
  7  6  2  0  0  0  0
  7 23  1  0  0  0  0
  8  4  1  0  0  0  0
  9  5  1  0  0  0  0
 11 16  2  0  0  0  0
 11 12  1  0  0  0  0
 12 13  2  0  0  0  0
 13 19  1  0  0  0  0
 14 13  1  0  0  0  0
 15  3  1  0  0  0  0
 15 14  2  0  0  0  0
 16 15  1  0  0  0  0
 17 11  1  0  0  0  0
 18 12  1  0  0  0  0
 19 22  1  0  0  0  0
 19 21  1  0  0  0  0
 20 19  1  0  0  0  0
 23 27  1  0  0  0  0
 24 25  1  0  0  0  0
 24 23  2  0  0  0  0
 25 26  2  0  0  0  0
 26 27  1  0  0  0  0
 26 30  1  0  0  0  0
 28 24  1  0  0  0  0
 29 25  1  0  0  0  0
 30 31  1  0  0  0  0
 31 32  1  0  0  0  0
 31 33  2  0  0  0  0
 34 35  1  0  0  0  0
 34 33  1  0  0  0  0
 35 36  1  0  0  0  0
 37 35  2  0  0  0  0
 38 37  1  0  0  0  0
 39 38  1  0  0  0  0
 40 38  2  0  0  0  0
 40 41  1  0  0  0  0
 41 30  1  0  0  0  0
 41 34  2  0  0  0  0
M  END
>  <minimizedAffinity>
-6.8122983

$$$$

 OpenBabel03252500163D

 41 45  0  0  0  0  0  0  0  0999 V2000
   40.9090   31.1680   40.9900 Cl  0  0  0  0  0  0  0  0  0  0  0  0
   40.0370   32.6320   40.6350 C   0  0  0  0  0  0  0  0  0  0  0  0
   40.7060   33.8200   40.4800 C   0  0  0  0  0  0  0  0  0  0  0  0
   40.0400   35.0100   40.1940 C   0  0  0  0  0  0  0  0  0  0  0  0
   38.6690   34.9230   40.0780 C   0  0  0  0  0  0  0  0  0  0  0  0
   37.9920   33.7270   40.2330 C   0  0  0  0  0  0  0  0  0  0  0  0
   38.6540   32.6020   40.5050 C   0  0  0  0  0  0  0  0  0  0  0  0
   40.5950   35.9310   40.0790 H   0  0  0  0  0  0  0  0  0  0  0  0
   38.1450   35.8360   39.8570 H   0  0  0  0  0  0  0  0  0  0  0  0
   36.9170   33.6860   40.1350 H   0  0  0  0  0  0  0  0  0  0  0  0
   44.0690   33.9720   41.9820 C   0  0  0  0  0  0  0  0  0  0  0  0
   44.9090   33.9040   40.8490 C   0  0  0  0  0  0  0  0  0  0  0  0
   44.3120   33.8080   39.5930 C   0  0  0  0  0  0  0  0  0  0  0  0
   42.9460   33.7840   39.5170 N   0  0  0  0  0  0  0  0  0  0  0  0
   42.1670   33.8500   40.6170 C   0  0  0  0  0  0  0  0  0  0  0  0
   42.7370   33.9430   41.8370 N   0  0  0  0  0  0  0  0  0  0  0  0
   44.5710   34.0460   42.9360 H   0  0  0  0  0  0  0  0  0  0  0  0
   45.9810   33.9240   40.9150 H   0  0  0  0  0  0  0  0  0  0  0  0
   45.0980   33.7300   38.3240 C   0  0  0  0  0  0  0  0  0  0  0  0
   45.7750   32.5530   38.2430 F   0  0  0  0  0  0  0  0  0  0  0  0
   44.2170   33.8220   37.2640 F   0  0  0  0  0  0  0  0  0  0  0  0
   45.9410   34.8130   38.3190 F   0  0  0  0  0  0  0  0  0  0  0  0
   37.9810   31.3240   40.6750 C   0  0  0  0  0  0  0  0  0  0  0  0
   36.5980   31.1690   40.8440 C   0  0  0  0  0  0  0  0  0  0  0  0
   36.2970   29.8310   40.9780 C   0  0  0  0  0  0  0  0  0  0  0  0
   37.5310   29.2270   40.8830 C   0  0  0  0  0  0  0  0  0  0  0  0
   38.4890   30.1180   40.7070 O   0  0  0  0  0  0  0  0  0  0  0  0
   35.8300   31.9600   40.8720 H   0  0  0  0  0  0  0  0  0  0  0  0
   35.3590   29.3210   41.1220 H   0  0  0  0  0  0  0  0  0  0  0  0
   37.7930   27.8250   40.9590 N   0  0  0  0  0  0  0  0  0  0  0  0
   37.3750   26.9120   40.0630 C   0  0  0  0  0  0  0  0  0  0  0  0
   36.7950   27.0290   39.1600 H   0  0  0  0  0  0  0  0  0  0  0  0
   37.8120   25.6810   40.4630 N   0  0  0  0  0  0  0  0  0  0  0  0
   38.5060   25.8140   41.6110 C   0  0  0  0  0  0  0  0  0  0  0  0
   39.1880   25.0230   42.5140 C   0  0  0  0  0  0  0  0  0  0  0  0
   39.2110   23.9550   42.2870 H   0  0  0  0  0  0  0  0  0  0  0  0
   39.7870   25.5490   43.6070 N   0  0  0  0  0  0  0  0  0  0  0  0
   39.7460   26.8680   43.8650 C   0  0  0  0  0  0  0  0  0  0  0  0
   40.2060   27.3330   44.7200 H   0  0  0  0  0  0  0  0  0  0  0  0
   39.0860   27.6760   43.0030 N   0  0  0  0  0  0  0  0  0  0  0  0
   38.4850   27.1680   41.9110 C   0  0  0  0  0  0  0  0  0  0  0  0
  2  1  1  0  0  0  0
  3 15  1  0  0  0  0
  3  2  2  0  0  0  0
  4  3  1  0  0  0  0
  5  4  2  0  0  0  0
  5  6  1  0  0  0  0
  6  7  2  0  0  0  0
  7  2  1  0  0  0  0
  7 23  1  0  0  0  0
  8  4  1  0  0  0  0
  9  5  1  0  0  0  0
 10  6  1  0  0  0  0
 11 17  1  0  0  0  0
 12 18  1  0  0  0  0
 12 11  2  0  0  0  0
 13 12  1  0  0  0  0
 14 13  2  0  0  0  0
 14 15  1  0  0  0  0
 15 16  2  0  0  0  0
 16 11  1  0  0  0  0
 19 13  1  0  0  0  0
 20 19  1  0  0  0  0
 21 19  1  0  0  0  0
 22 19  1  0  0  0  0
 23 27  1  0  0  0  0
 23 24  2  0  0  0  0
 24 28  1  0  0  0  0
 24 25  1  0  0  0  0
 25 29  1  0  0  0  0
 26 30  1  0  0  0  0
 26 25  2  0  0  0  0
 27 26  1  0  0  0  0
 30 41  1  0  0  0  0
 31 33  2  0  0  0  0
 31 30  1  0  0  0  0
 32 31  1  0  0  0  0
 33 34  1  0  0  0  0
 34 41  2  0  0  0  0
 34 35  1  0  0  0  0
 35 37  2  0  0  0  0
 36 35  1  0  0  0  0
 37 38  1  0  0  0  0
 38 39  1  0  0  0  0
 40 38  2  0  0  0  0
 41 40  1  0  0  0  0
M  END
>  <minimizedAffinity>
-6.74031734

$$$$
