
 OpenBabel03252506343D

 36 39  0  0  1  0  0  0  0  0999 V2000
   44.4700   35.7000   45.1330 C   0  0  0  0  0  0  0  0  0  0  0  0
   45.0470   35.6480   43.8580 C   0  0  0  0  0  0  0  0  0  0  0  0
   45.8990   34.6310   43.5630 C   0  0  0  0  0  0  0  0  0  0  0  0
   46.1310   33.7250   44.5480 N   0  0  0  0  0  0  0  0  0  0  0  0
   45.5850   33.7770   45.7520 C   0  0  0  0  0  0  0  0  0  0  0  0
   44.7370   34.7680   46.0810 N   0  0  0  0  0  0  0  0  0  0  0  0
   45.9180   32.7720   46.6860 N   0  0  0  0  0  0  0  0  0  0  0  0
   45.1940   32.5150   47.9390 C   0  0  0  0  0  0  0  0  0  0  0  0
   46.3310   32.1690   48.8790 C   0  0  0  0  0  0  0  0  0  0  0  0
   47.5600   31.9640   48.0460 C   0  0  0  0  0  0  0  0  0  0  0  0
   46.9870   31.7980   46.6600 C   0  0  1  0  0  0  0  0  0  0  0  0
   43.7780   36.5210   45.3760 H   0  0  0  0  0  0  0  0  0  0  0  0
   46.3250   34.6140   42.5870 H   0  0  0  0  0  0  0  0  0  0  0  0
   44.4680   31.6930   47.8340 H   0  0  0  0  0  0  0  0  0  0  0  0
   44.6450   33.4290   48.2240 H   0  0  0  0  0  0  0  0  0  0  0  0
   46.0660   31.2370   49.4440 H   0  0  0  0  0  0  0  0  0  0  0  0
   46.4690   33.0370   49.5570 H   0  0  0  0  0  0  0  0  0  0  0  0
   48.2690   32.8140   48.1050 H   0  0  0  0  0  0  0  0  0  0  0  0
   48.0940   31.0180   48.2900 H   0  0  0  0  0  0  0  0  0  0  0  0
   47.6970   32.0760   45.8650 H   0  0  0  0  0  0  0  0  0  0  0  0
   44.6800   36.7000   42.9570 N   0  0  0  0  0  0  0  0  0  0  0  0
   44.3550   37.6230   43.3180 H   0  0  0  0  0  0  0  0  0  0  0  0
   44.7380   36.5420   41.9190 H   0  0  0  0  0  0  0  0  0  0  0  0
   46.3780   30.1110   46.4750 S   0  0  0  0  0  0  0  0  0  0  0  0
   45.9170   31.6250   43.9240 H   0  0  0  0  0  0  0  0  0  0  0  0
   45.2990   30.8020   44.0810 N   0  0  0  0  0  0  0  0  0  0  0  0
   45.2550   29.9360   45.1070 C   0  0  0  0  0  0  0  0  0  0  0  0
   44.2780   29.0090   44.8890 N   0  0  0  0  0  0  0  0  0  0  0  0
   43.7030   29.3160   43.6860 C   0  0  0  0  0  0  0  0  0  0  0  0
   42.7090   28.8320   42.8830 C   0  0  0  0  0  0  0  0  0  0  0  0
   42.1840   27.9430   43.2580 H   0  0  0  0  0  0  0  0  0  0  0  0
   42.3810   29.3890   41.7120 N   0  0  0  0  0  0  0  0  0  0  0  0
   43.0150   30.4720   41.2490 C   0  0  0  0  0  0  0  0  0  0  0  0
   42.6580   30.8250   40.2930 H   0  0  0  0  0  0  0  0  0  0  0  0
   43.9970   30.9910   41.9920 N   0  0  0  0  0  0  0  0  0  0  0  0
   44.3540   30.4430   43.1920 C   0  0  0  0  0  0  0  0  0  0  0  0
  1 12  1  0  0  0  0
  1  6  1  0  0  0  0
  2  1  2  0  0  0  0
  3  2  1  0  0  0  0
  3  4  2  0  0  0  0
  4  5  1  0  0  0  0
  5  6  2  0  0  0  0
  5  7  1  0  0  0  0
  7  8  1  0  0  0  0
  8 15  1  0  0  0  0
  8  9  1  0  0  0  0
  9 16  1  0  0  0  0
  9 17  1  0  0  0  0
 10 18  1  0  0  0  0
 10 19  1  0  0  0  0
 10  9  1  0  0  0  0
 11 20  1  6  0  0  0
 11  7  1  0  0  0  0
 11 10  1  0  0  0  0
 13  3  1  0  0  0  0
 14  8  1  0  0  0  0
 21 22  1  0  0  0  0
 21  2  1  0  0  0  0
 23 21  1  0  0  0  0
 24 11  1  0  0  0  0
 25 26  1  0  0  0  0
 26 27  1  0  0  0  0
 27 24  1  0  0  0  0
 28 27  2  0  0  0  0
 29 28  1  0  0  0  0
 30 31  1  0  0  0  0
 30 29  2  0  0  0  0
 32 30  1  0  0  0  0
 33 32  2  0  0  0  0
 33 35  1  0  0  0  0
 34 33  1  0  0  0  0
 35 36  2  0  0  0  0
 36 29  1  0  0  0  0
 36 26  1  0  0  0  0
M  END
>  <minimizedAffinity>
-5.30670977

>  <minimizedRMSD>
1.24060154

$$$$
