
 OpenBabel03252505033D

 37 40  0  0  1  0  0  0  0  0999 V2000
   45.0130   35.1060   44.3000 C   0  0  0  0  0  0  0  0  0  0  0  0
   45.7690   34.8480   43.1420 C   0  0  0  0  0  0  0  0  0  0  0  0
   46.7790   33.8630   43.2470 C   0  0  0  0  0  0  0  0  0  0  0  0
   46.9560   33.2360   44.4370 N   0  0  0  0  0  0  0  0  0  0  0  0
   46.2120   33.5180   45.5110 C   0  0  0  0  0  0  0  0  0  0  0  0
   45.2220   34.4650   45.4530 N   0  0  0  0  0  0  0  0  0  0  0  0
   44.2460   35.8690   44.1860 H   0  0  0  0  0  0  0  0  0  0  0  0
   45.6290   35.3420   42.2010 H   0  0  0  0  0  0  0  0  0  0  0  0
   46.4760   32.7900   46.7780 C   0  0  2  0  0  0  0  0  0  0  0  0
   47.0340   31.4620   46.3810 C   0  0  0  0  0  0  0  0  0  0  0  0
   46.1250   30.3100   46.5190 C   0  0  0  0  0  0  0  0  0  0  0  0
   45.6480   30.3150   47.9570 C   0  0  0  0  0  0  0  0  0  0  0  0
   44.8280   31.4940   48.2670 C   0  0  0  0  0  0  0  0  0  0  0  0
   45.2950   32.7720   47.6280 C   0  0  0  0  0  0  0  0  0  0  0  0
   47.2590   33.4010   47.2920 H   0  0  0  0  0  0  0  0  0  0  0  0
   47.4340   31.4550   45.3420 H   0  0  0  0  0  0  0  0  0  0  0  0
   47.9480   31.2810   47.0120 H   0  0  0  0  0  0  0  0  0  0  0  0
   45.3140   30.3160   45.7860 H   0  0  0  0  0  0  0  0  0  0  0  0
   46.7080   29.3810   46.3890 H   0  0  0  0  0  0  0  0  0  0  0  0
   46.4790   30.1130   48.6250 H   0  0  0  0  0  0  0  0  0  0  0  0
   44.9350   29.4600   48.0160 H   0  0  0  0  0  0  0  0  0  0  0  0
   43.9670   31.7030   48.8340 H   0  0  0  0  0  0  0  0  0  0  0  0
   44.5860   33.9850   47.8460 N   0  0  0  0  0  0  0  0  0  0  0  0
   44.9070   34.7480   48.4830 H   0  0  0  0  0  0  0  0  0  0  0  0
   43.7010   34.0320   47.2940 H   0  0  0  0  0  0  0  0  0  0  0  0
   47.6130   33.5030   42.1570 N   0  0  0  0  0  0  0  0  0  0  0  0
   48.7400   34.0080   41.6040 C   0  0  0  0  0  0  0  0  0  0  0  0
   49.1700   34.9030   42.0400 H   0  0  0  0  0  0  0  0  0  0  0  0
   49.1210   33.2550   40.5610 N   0  0  0  0  0  0  0  0  0  0  0  0
   48.2350   32.2430   40.4280 C   0  0  0  0  0  0  0  0  0  0  0  0
   48.2320   31.2370   39.5020 C   0  0  0  0  0  0  0  0  0  0  0  0
   48.9560   31.1160   38.7330 H   0  0  0  0  0  0  0  0  0  0  0  0
   47.2340   30.3280   39.5650 N   0  0  0  0  0  0  0  0  0  0  0  0
   46.2950   30.4580   40.5380 C   0  0  0  0  0  0  0  0  0  0  0  0
   45.4480   29.7940   40.6920 H   0  0  0  0  0  0  0  0  0  0  0  0
   46.3450   31.4670   41.4260 N   0  0  0  0  0  0  0  0  0  0  0  0
   47.2960   32.4060   41.4310 C   0  0  0  0  0  0  0  0  0  0  0  0
  1  6  1  0  0  0  0
  2  3  1  0  0  0  0
  2  1  2  0  0  0  0
  3  4  2  0  0  0  0
  4  5  1  0  0  0  0
  5  9  1  0  0  0  0
  6  5  2  0  0  0  0
  7  1  1  0  0  0  0
  8  2  1  0  0  0  0
  9 15  1  1  0  0  0
  9 14  1  0  0  0  0
 10 11  1  0  0  0  0
 10  9  1  0  0  0  0
 10 17  1  0  0  0  0
 11 12  1  0  0  0  0
 12 21  1  0  0  0  0
 12 13  1  0  0  0  0
 12 20  1  0  0  0  0
 13 22  1  0  0  0  0
 14 23  1  0  0  0  0
 14 13  2  0  0  0  0
 16 10  1  0  0  0  0
 18 11  1  0  0  0  0
 19 11  1  0  0  0  0
 23 24  1  0  0  0  0
 25 23  1  0  0  0  0
 26  3  1  0  0  0  0
 27 28  1  0  0  0  0
 27 26  1  0  0  0  0
 29 27  2  0  0  0  0
 30 29  1  0  0  0  0
 30 37  1  0  0  0  0
 31 33  1  0  0  0  0
 31 30  2  0  0  0  0
 32 31  1  0  0  0  0
 33 34  2  0  0  0  0
 34 35  1  0  0  0  0
 34 36  1  0  0  0  0
 36 37  2  0  0  0  0
 37 26  1  0  0  0  0
M  END
>  <minimizedAffinity>
-5.77183867

>  <minimizedRMSD>
0.483196348

$$$$
