
 OpenBabel03242518203D

 33 36  0  0  0  0  0  0  0  0999 V2000
   38.4780   28.7350   42.6440 C   0  0  0  0  0  0  0  0  0  0  0  0
   37.5120   28.5260   43.6070 C   0  0  0  0  0  0  0  0  0  0  0  0
   36.9490   27.2740   43.3440 C   0  0  0  0  0  0  0  0  0  0  0  0
   37.6170   26.8030   42.2280 C   0  0  0  0  0  0  0  0  0  0  0  0
   38.4810   27.6890   41.8780 O   0  0  0  0  0  0  0  0  0  0  0  0
   37.2260   29.1780   44.4130 H   0  0  0  0  0  0  0  0  0  0  0  0
   36.1660   26.7950   43.8980 H   0  0  0  0  0  0  0  0  0  0  0  0
   37.4000   25.5590   41.5710 N   0  0  0  0  0  0  0  0  0  0  0  0
   37.6810   24.3160   42.0010 C   0  0  0  0  0  0  0  0  0  0  0  0
   38.1340   24.0530   42.9510 H   0  0  0  0  0  0  0  0  0  0  0  0
   37.3310   23.3800   41.0990 N   0  0  0  0  0  0  0  0  0  0  0  0
   36.8120   24.0350   40.0610 C   0  0  0  0  0  0  0  0  0  0  0  0
   36.2700   23.7270   38.8320 C   0  0  0  0  0  0  0  0  0  0  0  0
   36.2070   22.6840   38.5400 H   0  0  0  0  0  0  0  0  0  0  0  0
   35.8150   24.6700   37.9770 N   0  0  0  0  0  0  0  0  0  0  0  0
   35.8780   25.9720   38.3040 C   0  0  0  0  0  0  0  0  0  0  0  0
   35.5030   26.6930   37.5920 H   0  0  0  0  0  0  0  0  0  0  0  0
   36.3950   26.3290   39.4880 N   0  0  0  0  0  0  0  0  0  0  0  0
   36.8550   25.3810   40.3540 C   0  0  0  0  0  0  0  0  0  0  0  0
   39.3370   29.9770   42.5600 C   0  0  0  0  0  0  0  0  0  0  0  0
   39.5330   30.3920   43.5740 H   0  0  0  0  0  0  0  0  0  0  0  0
   40.3200   29.6190   42.1700 H   0  0  0  0  0  0  0  0  0  0  0  0
   38.7690   33.0710   40.6660 C   0  0  0  0  0  0  0  0  0  0  0  0
   37.5340   32.8670   40.0530 C   0  0  0  0  0  0  0  0  0  0  0  0
   36.8990   31.6690   40.2910 C   0  0  0  0  0  0  0  0  0  0  0  0
   37.4810   30.7480   41.0950 N   0  0  0  0  0  0  0  0  0  0  0  0
   38.6930   30.9810   41.6790 C   0  0  0  0  0  0  0  0  0  0  0  0
   39.3450   32.1630   41.4590 N   0  0  0  0  0  0  0  0  0  0  0  0
   39.3410   33.9800   40.5370 H   0  0  0  0  0  0  0  0  0  0  0  0
   35.9410   31.5150   39.8150 H   0  0  0  0  0  0  0  0  0  0  0  0
   37.0630   33.9140   39.2510 N   0  0  0  0  0  0  0  0  0  0  0  0
   37.7260   34.4300   38.6150 H   0  0  0  0  0  0  0  0  0  0  0  0
   36.0870   34.2770   39.1900 H   0  0  0  0  0  0  0  0  0  0  0  0
  1  2  2  0  0  0  0
  2  6  1  0  0  0  0
  3  2  1  0  0  0  0
  3  7  1  0  0  0  0
  4  3  2  0  0  0  0
  5  4  1  0  0  0  0
  5  1  1  0  0  0  0
  8  9  1  0  0  0  0
  8  4  1  0  0  0  0
  9 10  1  0  0  0  0
 11  9  2  0  0  0  0
 12 19  1  0  0  0  0
 12 11  1  0  0  0  0
 13 12  2  0  0  0  0
 14 13  1  0  0  0  0
 15 16  2  0  0  0  0
 15 13  1  0  0  0  0
 16 18  1  0  0  0  0
 17 16  1  0  0  0  0
 18 19  2  0  0  0  0
 19  8  1  0  0  0  0
 20  1  1  0  0  0  0
 20 21  1  0  0  0  0
 22 20  1  0  0  0  0
 23 28  1  0  0  0  0
 24 25  1  0  0  0  0
 24 23  2  0  0  0  0
 25 26  2  0  0  0  0
 26 27  1  0  0  0  0
 27 20  1  0  0  0  0
 28 27  2  0  0  0  0
 29 23  1  0  0  0  0
 30 25  1  0  0  0  0
 31 24  1  0  0  0  0
 32 31  1  0  0  0  0
 33 31  1  0  0  0  0
M  END
>  <minimizedAffinity>
-5.88716221

$$$$

 OpenBabel03242518203D

 33 36  0  0  0  0  0  0  0  0999 V2000
   36.7010   28.5260   42.0370 C   0  0  0  0  0  0  0  0  0  0  0  0
   35.8360   28.5870   40.9630 C   0  0  0  0  0  0  0  0  0  0  0  0
   36.1440   29.7600   40.2680 C   0  0  0  0  0  0  0  0  0  0  0  0
   37.1840   30.3380   40.9740 C   0  0  0  0  0  0  0  0  0  0  0  0
   37.4550   29.5790   41.9760 O   0  0  0  0  0  0  0  0  0  0  0  0
   35.0690   27.8860   40.6890 H   0  0  0  0  0  0  0  0  0  0  0  0
   35.6660   30.1210   39.3790 H   0  0  0  0  0  0  0  0  0  0  0  0
   37.8480   31.5560   40.6600 N   0  0  0  0  0  0  0  0  0  0  0  0
   37.3440   32.6780   40.1150 C   0  0  0  0  0  0  0  0  0  0  0  0
   36.3130   32.8390   39.8170 H   0  0  0  0  0  0  0  0  0  0  0  0
   38.2820   33.6310   39.9640 N   0  0  0  0  0  0  0  0  0  0  0  0
   39.4210   33.1120   40.4230 C   0  0  0  0  0  0  0  0  0  0  0  0
   40.7320   33.5090   40.5720 C   0  0  0  0  0  0  0  0  0  0  0  0
   41.0110   34.5070   40.2520 H   0  0  0  0  0  0  0  0  0  0  0  0
   41.6840   32.7050   41.0960 N   0  0  0  0  0  0  0  0  0  0  0  0
   41.3760   31.4610   41.5010 C   0  0  0  0  0  0  0  0  0  0  0  0
   42.1660   30.8510   41.9150 H   0  0  0  0  0  0  0  0  0  0  0  0
   40.1150   31.0230   41.3810 N   0  0  0  0  0  0  0  0  0  0  0  0
   39.1520   31.8300   40.8520 C   0  0  0  0  0  0  0  0  0  0  0  0
   36.7100   27.4080   43.0560 C   0  0  0  0  0  0  0  0  0  0  0  0
   36.5260   27.8030   44.0790 H   0  0  0  0  0  0  0  0  0  0  0  0
   35.8260   26.7770   42.7970 H   0  0  0  0  0  0  0  0  0  0  0  0
   40.2230   26.4970   43.6180 C   0  0  0  0  0  0  0  0  0  0  0  0
   40.3870   25.3260   42.8810 C   0  0  0  0  0  0  0  0  0  0  0  0
   39.2930   24.8510   42.1930 C   0  0  0  0  0  0  0  0  0  0  0  0
   38.1190   25.5220   42.2520 N   0  0  0  0  0  0  0  0  0  0  0  0
   37.9930   26.6670   42.9850 C   0  0  0  0  0  0  0  0  0  0  0  0
   39.0650   27.1610   43.6780 N   0  0  0  0  0  0  0  0  0  0  0  0
   41.0250   26.9440   44.1890 H   0  0  0  0  0  0  0  0  0  0  0  0
   39.4250   23.9430   41.6220 H   0  0  0  0  0  0  0  0  0  0  0  0
   41.6620   24.7470   42.9170 N   0  0  0  0  0  0  0  0  0  0  0  0
   42.1980   24.7080   43.8240 H   0  0  0  0  0  0  0  0  0  0  0  0
   42.1900   24.3240   42.1240 H   0  0  0  0  0  0  0  0  0  0  0  0
  1 20  1  0  0  0  0
  2  1  2  0  0  0  0
  3  2  1  0  0  0  0
  3  4  2  0  0  0  0
  4  5  1  0  0  0  0
  5  1  1  0  0  0  0
  6  2  1  0  0  0  0
  7  3  1  0  0  0  0
  8 19  1  0  0  0  0
  8  4  1  0  0  0  0
  9  8  1  0  0  0  0
 10  9  1  0  0  0  0
 11  9  2  0  0  0  0
 11 12  1  0  0  0  0
 12 13  2  0  0  0  0
 12 19  1  0  0  0  0
 13 15  1  0  0  0  0
 14 13  1  0  0  0  0
 15 16  2  0  0  0  0
 16 17  1  0  0  0  0
 18 16  1  0  0  0  0
 19 18  2  0  0  0  0
 20 21  1  0  0  0  0
 22 20  1  0  0  0  0
 23 28  1  0  0  0  0
 23 29  1  0  0  0  0
 24 31  1  0  0  0  0
 24 23  2  0  0  0  0
 25 26  2  0  0  0  0
 25 24  1  0  0  0  0
 26 27  1  0  0  0  0
 27 20  1  0  0  0  0
 27 28  2  0  0  0  0
 30 25  1  0  0  0  0
 31 32  1  0  0  0  0
 33 31  1  0  0  0  0
M  END
>  <minimizedAffinity>
-5.79304314

$$$$

 OpenBabel03242518203D

 33 36  0  0  0  0  0  0  0  0999 V2000
   37.1890   29.2610   41.8430 C   0  0  0  0  0  0  0  0  0  0  0  0
   37.6150   29.2950   43.1550 C   0  0  0  0  0  0  0  0  0  0  0  0
   38.1500   28.0340   43.4350 C   0  0  0  0  0  0  0  0  0  0  0  0
   38.0110   27.3130   42.2630 C   0  0  0  0  0  0  0  0  0  0  0  0
   37.4530   28.0750   41.3900 O   0  0  0  0  0  0  0  0  0  0  0  0
   37.5610   30.1140   43.8490 H   0  0  0  0  0  0  0  0  0  0  0  0
   38.5740   27.7110   44.3650 H   0  0  0  0  0  0  0  0  0  0  0  0
   38.4090   25.9640   42.0450 N   0  0  0  0  0  0  0  0  0  0  0  0
   39.4700   25.3050   42.5430 C   0  0  0  0  0  0  0  0  0  0  0  0
   40.2180   25.7110   43.2170 H   0  0  0  0  0  0  0  0  0  0  0  0
   39.5220   24.0320   42.1100 N   0  0  0  0  0  0  0  0  0  0  0  0
   38.4700   23.8650   41.3100 C   0  0  0  0  0  0  0  0  0  0  0  0
   37.9180   22.8550   40.5520 C   0  0  0  0  0  0  0  0  0  0  0  0
   38.4110   21.8890   40.5390 H   0  0  0  0  0  0  0  0  0  0  0  0
   36.7920   23.0190   39.8230 N   0  0  0  0  0  0  0  0  0  0  0  0
   36.1550   24.2030   39.8140 C   0  0  0  0  0  0  0  0  0  0  0  0
   35.2570   24.2920   39.2180 H   0  0  0  0  0  0  0  0  0  0  0  0
   36.6460   25.2210   40.5340 N   0  0  0  0  0  0  0  0  0  0  0  0
   37.7820   25.0590   41.2710 C   0  0  0  0  0  0  0  0  0  0  0  0
   36.5430   30.4280   41.1310 C   0  0  0  0  0  0  0  0  0  0  0  0
   35.5330   30.1520   40.7540 H   0  0  0  0  0  0  0  0  0  0  0  0
   36.3830   31.1960   41.9260 H   0  0  0  0  0  0  0  0  0  0  0  0
   37.6280   31.6470   37.8420 C   0  0  0  0  0  0  0  0  0  0  0  0
   39.0090   31.7820   37.9730 C   0  0  0  0  0  0  0  0  0  0  0  0
   39.5650   31.4550   39.1900 C   0  0  0  0  0  0  0  0  0  0  0  0
   38.7700   31.0220   40.1960 N   0  0  0  0  0  0  0  0  0  0  0  0
   37.4200   30.9010   40.0330 C   0  0  0  0  0  0  0  0  0  0  0  0
   36.8420   31.2200   38.8340 N   0  0  0  0  0  0  0  0  0  0  0  0
   37.1040   31.8800   36.9250 H   0  0  0  0  0  0  0  0  0  0  0  0
   40.6360   31.5610   39.2880 H   0  0  0  0  0  0  0  0  0  0  0  0
   39.6950   32.2420   36.8420 N   0  0  0  0  0  0  0  0  0  0  0  0
   39.2870   33.0190   36.2580 H   0  0  0  0  0  0  0  0  0  0  0  0
   40.6090   31.9020   36.4730 H   0  0  0  0  0  0  0  0  0  0  0  0
  1  2  2  0  0  0  0
  2  3  1  0  0  0  0
  2  6  1  0  0  0  0
  3  7  1  0  0  0  0
  4  3  2  0  0  0  0
  5  1  1  0  0  0  0
  5  4  1  0  0  0  0
  8  4  1  0  0  0  0
  8  9  1  0  0  0  0
  9 10  1  0  0  0  0
 11  9  2  0  0  0  0
 12 11  1  0  0  0  0
 13 12  2  0  0  0  0
 14 13  1  0  0  0  0
 15 13  1  0  0  0  0
 16 15  2  0  0  0  0
 16 18  1  0  0  0  0
 17 16  1  0  0  0  0
 18 19  2  0  0  0  0
 19 12  1  0  0  0  0
 19  8  1  0  0  0  0
 20  1  1  0  0  0  0
 20 22  1  0  0  0  0
 21 20  1  0  0  0  0
 23 24  2  0  0  0  0
 23 28  1  0  0  0  0
 24 25  1  0  0  0  0
 25 30  1  0  0  0  0
 25 26  2  0  0  0  0
 27 26  1  0  0  0  0
 27 20  1  0  0  0  0
 28 27  2  0  0  0  0
 29 23  1  0  0  0  0
 31 24  1  0  0  0  0
 32 31  1  0  0  0  0
 33 31  1  0  0  0  0
M  END
>  <minimizedAffinity>
-5.61623144

$$$$

 OpenBabel03242518203D

 33 36  0  0  0  0  0  0  0  0999 V2000
   39.3730   33.2600   40.3320 C   0  0  0  0  0  0  0  0  0  0  0  0
   38.1430   33.7120   39.8980 C   0  0  0  0  0  0  0  0  0  0  0  0
   37.3360   32.5820   39.7360 C   0  0  0  0  0  0  0  0  0  0  0  0
   38.1380   31.5100   40.0840 C   0  0  0  0  0  0  0  0  0  0  0  0
   39.2940   31.9690   40.4160 O   0  0  0  0  0  0  0  0  0  0  0  0
   37.8360   34.7260   39.7150 H   0  0  0  0  0  0  0  0  0  0  0  0
   36.3150   32.5670   39.4090 H   0  0  0  0  0  0  0  0  0  0  0  0
   37.7670   30.1360   40.0810 N   0  0  0  0  0  0  0  0  0  0  0  0
   37.4970   29.3360   39.0340 C   0  0  0  0  0  0  0  0  0  0  0  0
   37.5210   29.6210   37.9870 H   0  0  0  0  0  0  0  0  0  0  0  0
   37.1800   28.0880   39.4220 N   0  0  0  0  0  0  0  0  0  0  0  0
   37.2450   28.0810   40.7530 C   0  0  0  0  0  0  0  0  0  0  0  0
   37.0530   27.1790   41.7770 C   0  0  0  0  0  0  0  0  0  0  0  0
   36.7660   26.1640   41.5250 H   0  0  0  0  0  0  0  0  0  0  0  0
   37.2080   27.5060   43.0790 N   0  0  0  0  0  0  0  0  0  0  0  0
   37.5620   28.7550   43.4290 C   0  0  0  0  0  0  0  0  0  0  0  0
   37.6750   28.9750   44.4810 H   0  0  0  0  0  0  0  0  0  0  0  0
   37.7630   29.6740   42.4740 N   0  0  0  0  0  0  0  0  0  0  0  0
   37.6080   29.3480   41.1590 C   0  0  0  0  0  0  0  0  0  0  0  0
   40.5500   34.1610   40.6330 C   0  0  0  0  0  0  0  0  0  0  0  0
   40.2270   35.2230   40.7050 H   0  0  0  0  0  0  0  0  0  0  0  0
   40.8840   33.8630   41.6560 H   0  0  0  0  0  0  0  0  0  0  0  0
   43.8610   33.9490   39.0610 C   0  0  0  0  0  0  0  0  0  0  0  0
   43.5810   33.6640   37.7260 C   0  0  0  0  0  0  0  0  0  0  0  0
   42.2570   33.5460   37.3680 C   0  0  0  0  0  0  0  0  0  0  0  0
   41.2910   33.7060   38.3030 N   0  0  0  0  0  0  0  0  0  0  0  0
   41.6020   33.9840   39.6030 C   0  0  0  0  0  0  0  0  0  0  0  0
   42.9100   34.1080   39.9860 N   0  0  0  0  0  0  0  0  0  0  0  0
   44.8700   34.0600   39.4340 H   0  0  0  0  0  0  0  0  0  0  0  0
   42.0430   33.3250   36.3320 H   0  0  0  0  0  0  0  0  0  0  0  0
   44.6880   33.5270   36.8790 N   0  0  0  0  0  0  0  0  0  0  0  0
   45.5440   33.0100   37.2100 H   0  0  0  0  0  0  0  0  0  0  0  0
   44.7900   33.8870   35.9060 H   0  0  0  0  0  0  0  0  0  0  0  0
  1  5  1  0  0  0  0
  1 20  1  0  0  0  0
  2  1  2  0  0  0  0
  3  2  1  0  0  0  0
  3  4  2  0  0  0  0
  4  5  1  0  0  0  0
  6  2  1  0  0  0  0
  7  3  1  0  0  0  0
  8  4  1  0  0  0  0
  8 19  1  0  0  0  0
  9 11  2  0  0  0  0
  9  8  1  0  0  0  0
 10  9  1  0  0  0  0
 11 12  1  0  0  0  0
 12 19  2  0  0  0  0
 12 13  1  0  0  0  0
 13 15  2  0  0  0  0
 14 13  1  0  0  0  0
 15 16  1  0  0  0  0
 16 17  1  0  0  0  0
 18 16  2  0  0  0  0
 19 18  1  0  0  0  0
 20 21  1  0  0  0  0
 20 22  1  0  0  0  0
 23 29  1  0  0  0  0
 23 28  1  0  0  0  0
 24 23  2  0  0  0  0
 25 24  1  0  0  0  0
 25 26  2  0  0  0  0
 26 27  1  0  0  0  0
 27 28  2  0  0  0  0
 27 20  1  0  0  0  0
 30 25  1  0  0  0  0
 31 32  1  0  0  0  0
 31 24  1  0  0  0  0
 33 31  1  0  0  0  0
M  END
>  <minimizedAffinity>
-5.5376997

$$$$

 OpenBabel03242518203D

 33 36  0  0  0  0  0  0  0  0999 V2000
   37.4620   29.5060   42.2270 C   0  0  0  0  0  0  0  0  0  0  0  0
   36.4660   29.6300   41.2800 C   0  0  0  0  0  0  0  0  0  0  0  0
   36.8590   30.6580   40.4190 C   0  0  0  0  0  0  0  0  0  0  0  0
   38.0780   31.0940   40.9060 C   0  0  0  0  0  0  0  0  0  0  0  0
   38.3660   30.3910   41.9440 O   0  0  0  0  0  0  0  0  0  0  0  0
   35.5570   29.0620   41.1950 H   0  0  0  0  0  0  0  0  0  0  0  0
   36.3190   31.0200   39.5660 H   0  0  0  0  0  0  0  0  0  0  0  0
   38.8850   32.1340   40.3660 N   0  0  0  0  0  0  0  0  0  0  0  0
   38.9580   33.4260   40.7350 C   0  0  0  0  0  0  0  0  0  0  0  0
   38.3930   33.8970   41.5330 H   0  0  0  0  0  0  0  0  0  0  0  0
   39.8390   34.1150   39.9880 N   0  0  0  0  0  0  0  0  0  0  0  0
   40.3490   33.2480   39.1140 C   0  0  0  0  0  0  0  0  0  0  0  0
   41.2680   33.2590   38.0880 C   0  0  0  0  0  0  0  0  0  0  0  0
   41.7690   34.1910   37.8510 H   0  0  0  0  0  0  0  0  0  0  0  0
   41.5700   32.1580   37.3640 N   0  0  0  0  0  0  0  0  0  0  0  0
   40.9680   30.9850   37.6270 C   0  0  0  0  0  0  0  0  0  0  0  0
   41.2380   30.1290   37.0250 H   0  0  0  0  0  0  0  0  0  0  0  0
   40.0660   30.9150   38.6150 N   0  0  0  0  0  0  0  0  0  0  0  0
   39.7580   32.0240   39.3480 C   0  0  0  0  0  0  0  0  0  0  0  0
   37.4360   28.5020   43.3580 C   0  0  0  0  0  0  0  0  0  0  0  0
   38.1160   28.8160   44.1810 H   0  0  0  0  0  0  0  0  0  0  0  0
   36.3990   28.5570   43.7680 H   0  0  0  0  0  0  0  0  0  0  0  0
   37.0910   25.0450   42.1710 C   0  0  0  0  0  0  0  0  0  0  0  0
   38.4000   24.6490   41.9060 C   0  0  0  0  0  0  0  0  0  0  0  0
   39.3990   25.5680   42.1360 C   0  0  0  0  0  0  0  0  0  0  0  0
   39.0840   26.8000   42.6010 N   0  0  0  0  0  0  0  0  0  0  0  0
   37.7890   27.1550   42.8490 C   0  0  0  0  0  0  0  0  0  0  0  0
   36.7780   26.2600   42.6300 N   0  0  0  0  0  0  0  0  0  0  0  0
   36.2420   24.3910   42.0210 H   0  0  0  0  0  0  0  0  0  0  0  0
   40.4130   25.2570   41.9300 H   0  0  0  0  0  0  0  0  0  0  0  0
   38.5660   23.3420   41.4290 N   0  0  0  0  0  0  0  0  0  0  0  0
   37.8950   22.9530   40.7150 H   0  0  0  0  0  0  0  0  0  0  0  0
   39.3050   22.6580   41.6980 H   0  0  0  0  0  0  0  0  0  0  0  0
  1 20  1  0  0  0  0
  2  1  2  0  0  0  0
  3  4  2  0  0  0  0
  3  2  1  0  0  0  0
  4  5  1  0  0  0  0
  5  1  1  0  0  0  0
  6  2  1  0  0  0  0
  7  3  1  0  0  0  0
  8  9  1  0  0  0  0
  8  4  1  0  0  0  0
  9 10  1  0  0  0  0
 11  9  2  0  0  0  0
 12 19  1  0  0  0  0
 12 11  1  0  0  0  0
 13 12  2  0  0  0  0
 14 13  1  0  0  0  0
 15 16  2  0  0  0  0
 15 13  1  0  0  0  0
 16 18  1  0  0  0  0
 17 16  1  0  0  0  0
 18 19  2  0  0  0  0
 19  8  1  0  0  0  0
 20 22  1  0  0  0  0
 20 21  1  0  0  0  0
 23 28  1  0  0  0  0
 24 25  1  0  0  0  0
 24 23  2  0  0  0  0
 25 26  2  0  0  0  0
 26 27  1  0  0  0  0
 27 20  1  0  0  0  0
 28 27  2  0  0  0  0
 29 23  1  0  0  0  0
 30 25  1  0  0  0  0
 31 33  1  0  0  0  0
 31 24  1  0  0  0  0
 32 31  1  0  0  0  0
M  END
>  <minimizedAffinity>
-5.51197863

$$$$

 OpenBabel03242518203D

 33 36  0  0  0  0  0  0  0  0999 V2000
   37.6660   29.8610   42.0070 C   0  0  0  0  0  0  0  0  0  0  0  0
   36.5060   30.3490   41.4400 C   0  0  0  0  0  0  0  0  0  0  0  0
   36.8890   31.0610   40.2990 C   0  0  0  0  0  0  0  0  0  0  0  0
   38.2670   30.9570   40.2510 C   0  0  0  0  0  0  0  0  0  0  0  0
   38.6490   30.2550   41.2590 O   0  0  0  0  0  0  0  0  0  0  0  0
   35.4950   30.2230   41.7830 H   0  0  0  0  0  0  0  0  0  0  0  0
   36.2390   31.5740   39.6170 H   0  0  0  0  0  0  0  0  0  0  0  0
   39.1270   31.5190   39.2660 N   0  0  0  0  0  0  0  0  0  0  0  0
   39.1480   31.3030   37.9390 C   0  0  0  0  0  0  0  0  0  0  0  0
   38.4870   30.6420   37.3870 H   0  0  0  0  0  0  0  0  0  0  0  0
   40.1090   32.0180   37.3270 N   0  0  0  0  0  0  0  0  0  0  0  0
   40.7260   32.7120   38.2820 C   0  0  0  0  0  0  0  0  0  0  0  0
   41.7630   33.6160   38.3750 C   0  0  0  0  0  0  0  0  0  0  0  0
   42.2840   33.9010   37.4670 H   0  0  0  0  0  0  0  0  0  0  0  0
   42.1570   34.1580   39.5480 N   0  0  0  0  0  0  0  0  0  0  0  0
   41.5350   33.8270   40.6940 C   0  0  0  0  0  0  0  0  0  0  0  0
   41.8810   34.2830   41.6100 H   0  0  0  0  0  0  0  0  0  0  0  0
   40.5190   32.9540   40.6620 N   0  0  0  0  0  0  0  0  0  0  0  0
   40.1180   32.4040   39.4800 C   0  0  0  0  0  0  0  0  0  0  0  0
   37.7060   29.0270   43.2680 C   0  0  0  0  0  0  0  0  0  0  0  0
   38.4780   29.4110   43.9720 H   0  0  0  0  0  0  0  0  0  0  0  0
   36.7180   29.2000   43.7590 H   0  0  0  0  0  0  0  0  0  0  0  0
   39.4290   25.8210   42.7790 C   0  0  0  0  0  0  0  0  0  0  0  0
   38.4290   24.9720   42.3110 C   0  0  0  0  0  0  0  0  0  0  0  0
   37.1650   25.5000   42.1640 C   0  0  0  0  0  0  0  0  0  0  0  0
   36.9410   26.7990   42.4720 N   0  0  0  0  0  0  0  0  0  0  0  0
   37.9450   27.6040   42.9290 C   0  0  0  0  0  0  0  0  0  0  0  0
   39.2090   27.1040   43.0840 N   0  0  0  0  0  0  0  0  0  0  0  0
   40.4500   25.4960   42.9260 H   0  0  0  0  0  0  0  0  0  0  0  0
   36.3920   24.8380   41.8010 H   0  0  0  0  0  0  0  0  0  0  0  0
   38.8170   23.6540   42.0360 N   0  0  0  0  0  0  0  0  0  0  0  0
   39.4740   23.1510   42.6880 H   0  0  0  0  0  0  0  0  0  0  0  0
   38.5290   23.0650   41.2250 H   0  0  0  0  0  0  0  0  0  0  0  0
  1 20  1  0  0  0  0
  2  6  1  0  0  0  0
  2  1  2  0  0  0  0
  3  2  1  0  0  0  0
  4  3  2  0  0  0  0
  4  5  1  0  0  0  0
  5  1  1  0  0  0  0
  7  3  1  0  0  0  0
  8 19  1  0  0  0  0
  8  4  1  0  0  0  0
  9  8  1  0  0  0  0
 10  9  1  0  0  0  0
 11  9  2  0  0  0  0
 11 12  1  0  0  0  0
 12 13  2  0  0  0  0
 12 19  1  0  0  0  0
 13 15  1  0  0  0  0
 14 13  1  0  0  0  0
 15 16  2  0  0  0  0
 16 17  1  0  0  0  0
 18 16  1  0  0  0  0
 19 18  2  0  0  0  0
 20 22  1  0  0  0  0
 20 21  1  0  0  0  0
 23 29  1  0  0  0  0
 23 28  1  0  0  0  0
 24 23  2  0  0  0  0
 25 24  1  0  0  0  0
 25 26  2  0  0  0  0
 26 27  1  0  0  0  0
 27 28  2  0  0  0  0
 27 20  1  0  0  0  0
 30 25  1  0  0  0  0
 31 24  1  0  0  0  0
 31 32  1  0  0  0  0
 33 31  1  0  0  0  0
M  END
>  <minimizedAffinity>
-5.49041271

$$$$

 OpenBabel03242518203D

 33 36  0  0  0  0  0  0  0  0999 V2000
   37.0420   29.3800   41.6770 C   0  0  0  0  0  0  0  0  0  0  0  0
   37.6250   29.2370   42.9200 C   0  0  0  0  0  0  0  0  0  0  0  0
   37.9520   27.8850   43.0560 C   0  0  0  0  0  0  0  0  0  0  0  0
   37.5410   27.2920   41.8750 C   0  0  0  0  0  0  0  0  0  0  0  0
   37.0290   28.2050   41.1280 O   0  0  0  0  0  0  0  0  0  0  0  0
   37.8060   29.9970   43.6590 H   0  0  0  0  0  0  0  0  0  0  0  0
   38.4200   27.4210   43.9010 H   0  0  0  0  0  0  0  0  0  0  0  0
   37.6580   25.9160   41.5310 N   0  0  0  0  0  0  0  0  0  0  0  0
   37.0290   24.8540   42.0670 C   0  0  0  0  0  0  0  0  0  0  0  0
   36.3050   24.8790   42.8760 H   0  0  0  0  0  0  0  0  0  0  0  0
   37.3960   23.7010   41.4790 N   0  0  0  0  0  0  0  0  0  0  0  0
   38.2850   24.0250   40.5410 C   0  0  0  0  0  0  0  0  0  0  0  0
   39.0460   23.3760   39.5930 C   0  0  0  0  0  0  0  0  0  0  0  0
   38.9660   22.2970   39.5150 H   0  0  0  0  0  0  0  0  0  0  0  0
   39.8870   24.0270   38.7590 N   0  0  0  0  0  0  0  0  0  0  0  0
   40.0130   25.3640   38.8270 C   0  0  0  0  0  0  0  0  0  0  0  0
   40.6950   25.8460   38.1420 H   0  0  0  0  0  0  0  0  0  0  0  0
   39.2950   26.0470   39.7300 N   0  0  0  0  0  0  0  0  0  0  0  0
   38.4460   25.3940   40.5740 C   0  0  0  0  0  0  0  0  0  0  0  0
   36.5370   30.6930   41.1230 C   0  0  0  0  0  0  0  0  0  0  0  0
   35.4580   30.6230   40.8590 H   0  0  0  0  0  0  0  0  0  0  0  0
   36.6070   31.4100   41.9760 H   0  0  0  0  0  0  0  0  0  0  0  0
   39.3920   31.8410   39.1190 C   0  0  0  0  0  0  0  0  0  0  0  0
   38.9010   31.8580   37.8150 C   0  0  0  0  0  0  0  0  0  0  0  0
   37.5920   31.4760   37.6260 C   0  0  0  0  0  0  0  0  0  0  0  0
   36.8400   31.1040   38.6890 N   0  0  0  0  0  0  0  0  0  0  0  0
   37.3540   31.0990   39.9540 C   0  0  0  0  0  0  0  0  0  0  0  0
   38.6520   31.4750   40.1690 N   0  0  0  0  0  0  0  0  0  0  0  0
   40.4070   32.1240   39.3640 H   0  0  0  0  0  0  0  0  0  0  0  0
   37.2140   31.4900   36.6130 H   0  0  0  0  0  0  0  0  0  0  0  0
   39.8000   32.2670   36.8220 N   0  0  0  0  0  0  0  0  0  0  0  0
   40.8020   31.9390   36.8510 H   0  0  0  0  0  0  0  0  0  0  0  0
   39.6060   32.8880   36.0080 H   0  0  0  0  0  0  0  0  0  0  0  0
  1  2  2  0  0  0  0
  2  3  1  0  0  0  0
  2  6  1  0  0  0  0
  3  7  1  0  0  0  0
  4  3  2  0  0  0  0
  5  1  1  0  0  0  0
  5  4  1  0  0  0  0
  8  4  1  0  0  0  0
  8  9  1  0  0  0  0
  9 10  1  0  0  0  0
 11  9  2  0  0  0  0
 12 19  1  0  0  0  0
 12 11  1  0  0  0  0
 13 12  2  0  0  0  0
 14 13  1  0  0  0  0
 15 16  2  0  0  0  0
 15 13  1  0  0  0  0
 16 18  1  0  0  0  0
 17 16  1  0  0  0  0
 18 19  2  0  0  0  0
 19  8  1  0  0  0  0
 20  1  1  0  0  0  0
 20 22  1  0  0  0  0
 21 20  1  0  0  0  0
 23 29  1  0  0  0  0
 23 28  1  0  0  0  0
 24 23  2  0  0  0  0
 25 24  1  0  0  0  0
 25 26  2  0  0  0  0
 26 27  1  0  0  0  0
 27 28  2  0  0  0  0
 27 20  1  0  0  0  0
 30 25  1  0  0  0  0
 31 32  1  0  0  0  0
 31 24  1  0  0  0  0
 33 31  1  0  0  0  0
M  END
>  <minimizedAffinity>
-5.48164845

$$$$

 OpenBabel03242518203D

 33 36  0  0  0  0  0  0  0  0999 V2000
   36.8010   30.1180   39.5350 C   0  0  0  0  0  0  0  0  0  0  0  0
   35.6680   30.0530   40.3210 C   0  0  0  0  0  0  0  0  0  0  0  0
   35.6970   28.8110   40.9620 C   0  0  0  0  0  0  0  0  0  0  0  0
   36.8560   28.2000   40.5180 C   0  0  0  0  0  0  0  0  0  0  0  0
   37.4420   29.0040   39.7030 O   0  0  0  0  0  0  0  0  0  0  0  0
   34.8980   30.7940   40.4370 H   0  0  0  0  0  0  0  0  0  0  0  0
   34.9680   28.4280   41.6490 H   0  0  0  0  0  0  0  0  0  0  0  0
   37.3310   26.9110   40.8890 N   0  0  0  0  0  0  0  0  0  0  0  0
   36.9990   25.7100   40.3820 C   0  0  0  0  0  0  0  0  0  0  0  0
   36.2900   25.5260   39.5810 H   0  0  0  0  0  0  0  0  0  0  0  0
   37.6580   24.7070   40.9890 N   0  0  0  0  0  0  0  0  0  0  0  0
   38.4350   25.2730   41.9120 C   0  0  0  0  0  0  0  0  0  0  0  0
   39.3450   24.8670   42.8650 C   0  0  0  0  0  0  0  0  0  0  0  0
   39.5500   23.8070   42.9660 H   0  0  0  0  0  0  0  0  0  0  0  0
   39.9890   25.7340   43.6770 N   0  0  0  0  0  0  0  0  0  0  0  0
   39.7590   27.0550   43.5810 C   0  0  0  0  0  0  0  0  0  0  0  0
   40.2950   27.7140   44.2480 H   0  0  0  0  0  0  0  0  0  0  0  0
   38.8850   27.5060   42.6710 N   0  0  0  0  0  0  0  0  0  0  0  0
   38.2320   26.6350   41.8490 C   0  0  0  0  0  0  0  0  0  0  0  0
   37.1630   31.3010   38.6660 C   0  0  0  0  0  0  0  0  0  0  0  0
   37.3840   30.9750   37.6250 H   0  0  0  0  0  0  0  0  0  0  0  0
   36.2310   31.9140   38.6140 H   0  0  0  0  0  0  0  0  0  0  0  0
   39.1100   33.4720   40.8980 C   0  0  0  0  0  0  0  0  0  0  0  0
   40.4030   33.4080   40.3830 C   0  0  0  0  0  0  0  0  0  0  0  0
   40.6050   32.6200   39.2720 C   0  0  0  0  0  0  0  0  0  0  0  0
   39.5640   31.9490   38.7270 N   0  0  0  0  0  0  0  0  0  0  0  0
   38.3080   32.0340   39.2570 C   0  0  0  0  0  0  0  0  0  0  0  0
   38.0810   32.8100   40.3610 N   0  0  0  0  0  0  0  0  0  0  0  0
   38.8560   34.0640   41.7670 H   0  0  0  0  0  0  0  0  0  0  0  0
   41.6090   32.5730   38.8760 H   0  0  0  0  0  0  0  0  0  0  0  0
   41.3730   34.1600   41.0580 N   0  0  0  0  0  0  0  0  0  0  0  0
   41.3800   34.1880   42.1110 H   0  0  0  0  0  0  0  0  0  0  0  0
   42.1380   34.7310   40.6380 H   0  0  0  0  0  0  0  0  0  0  0  0
  1  5  1  0  0  0  0
  1  2  2  0  0  0  0
  2  6  1  0  0  0  0
  2  3  1  0  0  0  0
  3  7  1  0  0  0  0
  4  8  1  0  0  0  0
  4  3  2  0  0  0  0
  5  4  1  0  0  0  0
  8 19  1  0  0  0  0
  9  8  1  0  0  0  0
  9 11  2  0  0  0  0
 10  9  1  0  0  0  0
 11 12  1  0  0  0  0
 12 13  1  0  0  0  0
 13 14  1  0  0  0  0
 13 15  2  0  0  0  0
 16 15  1  0  0  0  0
 16 17  1  0  0  0  0
 18 16  2  0  0  0  0
 19 12  2  0  0  0  0
 19 18  1  0  0  0  0
 20 27  1  0  0  0  0
 20  1  1  0  0  0  0
 21 20  1  0  0  0  0
 22 20  1  0  0  0  0
 23 29  1  0  0  0  0
 24 23  1  0  0  0  0
 24 31  1  0  0  0  0
 25 24  2  0  0  0  0
 26 27  2  0  0  0  0
 26 25  1  0  0  0  0
 27 28  1  0  0  0  0
 28 23  2  0  0  0  0
 30 25  1  0  0  0  0
 31 32  1  0  0  0  0
 33 31  1  0  0  0  0
M  END
>  <minimizedAffinity>
-5.41278076

$$$$

 OpenBabel03242518203D

 33 36  0  0  0  0  0  0  0  0999 V2000
   36.7080   30.0540   38.4350 C   0  0  0  0  0  0  0  0  0  0  0  0
   35.4760   29.5090   38.1360 C   0  0  0  0  0  0  0  0  0  0  0  0
   35.2620   28.4760   39.0530 C   0  0  0  0  0  0  0  0  0  0  0  0
   36.3910   28.4620   39.8530 C   0  0  0  0  0  0  0  0  0  0  0  0
   37.1800   29.3930   39.4450 O   0  0  0  0  0  0  0  0  0  0  0  0
   34.7920   29.8010   37.3590 H   0  0  0  0  0  0  0  0  0  0  0  0
   34.4020   27.8390   39.1100 H   0  0  0  0  0  0  0  0  0  0  0  0
   36.6490   27.5810   40.9410 N   0  0  0  0  0  0  0  0  0  0  0  0
   36.5900   27.8290   42.2620 C   0  0  0  0  0  0  0  0  0  0  0  0
   36.3270   28.7750   42.7250 H   0  0  0  0  0  0  0  0  0  0  0  0
   36.9040   26.7440   42.9930 N   0  0  0  0  0  0  0  0  0  0  0  0
   37.1720   25.7710   42.1230 C   0  0  0  0  0  0  0  0  0  0  0  0
   37.5470   24.4450   42.1630 C   0  0  0  0  0  0  0  0  0  0  0  0
   37.6890   23.9760   43.1310 H   0  0  0  0  0  0  0  0  0  0  0  0
   37.7470   23.7080   41.0480 N   0  0  0  0  0  0  0  0  0  0  0  0
   37.5820   24.2560   39.8320 C   0  0  0  0  0  0  0  0  0  0  0  0
   37.7520   23.6310   38.9660 H   0  0  0  0  0  0  0  0  0  0  0  0
   37.2170   25.5410   39.7330 N   0  0  0  0  0  0  0  0  0  0  0  0
   37.0150   26.2890   40.8550 C   0  0  0  0  0  0  0  0  0  0  0  0
   37.3310   31.2070   37.6800 C   0  0  0  0  0  0  0  0  0  0  0  0
   37.9060   30.8410   36.8010 H   0  0  0  0  0  0  0  0  0  0  0  0
   36.4650   31.7840   37.2730 H   0  0  0  0  0  0  0  0  0  0  0  0
   40.3170   32.5980   39.3040 C   0  0  0  0  0  0  0  0  0  0  0  0
   39.8020   33.4730   40.2580 C   0  0  0  0  0  0  0  0  0  0  0  0
   38.4320   33.5850   40.3430 C   0  0  0  0  0  0  0  0  0  0  0  0
   37.6470   32.8560   39.5150 N   0  0  0  0  0  0  0  0  0  0  0  0
   38.1850   32.0080   38.5900 C   0  0  0  0  0  0  0  0  0  0  0  0
   39.5430   31.8780   38.4860 N   0  0  0  0  0  0  0  0  0  0  0  0
   41.3780   32.4450   39.1640 H   0  0  0  0  0  0  0  0  0  0  0  0
   38.0370   34.2640   41.0840 H   0  0  0  0  0  0  0  0  0  0  0  0
   40.7420   34.1550   41.0400 N   0  0  0  0  0  0  0  0  0  0  0  0
   41.6160   34.5420   40.5960 H   0  0  0  0  0  0  0  0  0  0  0  0
   40.6970   34.3460   42.0640 H   0  0  0  0  0  0  0  0  0  0  0  0
  1  5  1  0  0  0  0
  2  1  2  0  0  0  0
  2  3  1  0  0  0  0
  3  7  1  0  0  0  0
  3  4  2  0  0  0  0
  4  8  1  0  0  0  0
  5  4  1  0  0  0  0
  6  2  1  0  0  0  0
  8  9  1  0  0  0  0
  9 10  1  0  0  0  0
  9 11  2  0  0  0  0
 12 13  1  0  0  0  0
 12 11  1  0  0  0  0
 13 14  1  0  0  0  0
 15 13  2  0  0  0  0
 16 15  1  0  0  0  0
 17 16  1  0  0  0  0
 18 16  2  0  0  0  0
 18 19  1  0  0  0  0
 19  8  1  0  0  0  0
 19 12  2  0  0  0  0
 20  1  1  0  0  0  0
 20 27  1  0  0  0  0
 21 20  1  0  0  0  0
 22 20  1  0  0  0  0
 23 24  1  0  0  0  0
 24 25  2  0  0  0  0
 24 31  1  0  0  0  0
 25 30  1  0  0  0  0
 26 25  1  0  0  0  0
 27 26  2  0  0  0  0
 28 27  1  0  0  0  0
 28 23  2  0  0  0  0
 29 23  1  0  0  0  0
 31 33  1  0  0  0  0
 32 31  1  0  0  0  0
M  END
>  <minimizedAffinity>
-5.38524628

$$$$
