
 OpenBabel03252506343D

 36 39  0  0  1  0  0  0  0  0999 V2000
   44.4540   35.7080   45.1680 C   0  0  0  0  0  0  0  0  0  0  0  0
   45.0250   35.6670   43.8900 C   0  0  0  0  0  0  0  0  0  0  0  0
   45.8780   34.6550   43.5840 C   0  0  0  0  0  0  0  0  0  0  0  0
   46.1160   33.7420   44.5620 N   0  0  0  0  0  0  0  0  0  0  0  0
   45.5760   33.7840   45.7690 C   0  0  0  0  0  0  0  0  0  0  0  0
   44.7270   34.7700   46.1090 N   0  0  0  0  0  0  0  0  0  0  0  0
   45.9160   32.7730   46.6940 N   0  0  0  0  0  0  0  0  0  0  0  0
   45.1990   32.5050   47.9490 C   0  0  0  0  0  0  0  0  0  0  0  0
   46.3410   32.1560   48.8810 C   0  0  0  0  0  0  0  0  0  0  0  0
   47.5660   31.9600   48.0410 C   0  0  0  0  0  0  0  0  0  0  0  0
   46.9870   31.8030   46.6560 C   0  0  1  0  0  0  0  0  0  0  0  0
   43.7610   36.5250   45.4210 H   0  0  0  0  0  0  0  0  0  0  0  0
   46.2990   34.6460   42.6060 H   0  0  0  0  0  0  0  0  0  0  0  0
   44.4740   31.6830   47.8410 H   0  0  0  0  0  0  0  0  0  0  0  0
   44.6490   33.4160   48.2420 H   0  0  0  0  0  0  0  0  0  0  0  0
   46.0810   31.2200   49.4410 H   0  0  0  0  0  0  0  0  0  0  0  0
   46.4800   33.0200   49.5650 H   0  0  0  0  0  0  0  0  0  0  0  0
   48.2740   32.8120   48.1030 H   0  0  0  0  0  0  0  0  0  0  0  0
   48.1040   31.0140   48.2760 H   0  0  0  0  0  0  0  0  0  0  0  0
   47.6930   32.0880   45.8600 H   0  0  0  0  0  0  0  0  0  0  0  0
   44.6510   36.7250   42.9980 N   0  0  0  0  0  0  0  0  0  0  0  0
   44.3250   37.6440   43.3680 H   0  0  0  0  0  0  0  0  0  0  0  0
   44.7040   36.5740   41.9590 H   0  0  0  0  0  0  0  0  0  0  0  0
   46.3820   30.1150   46.4620 S   0  0  0  0  0  0  0  0  0  0  0  0
   45.9110   31.6450   43.9220 H   0  0  0  0  0  0  0  0  0  0  0  0
   45.2970   30.8190   44.0760 N   0  0  0  0  0  0  0  0  0  0  0  0
   45.2570   29.9460   45.0950 C   0  0  0  0  0  0  0  0  0  0  0  0
   44.2820   29.0170   44.8740 N   0  0  0  0  0  0  0  0  0  0  0  0
   43.7030   29.3310   43.6740 C   0  0  0  0  0  0  0  0  0  0  0  0
   42.7110   28.8500   42.8700 C   0  0  0  0  0  0  0  0  0  0  0  0
   42.1880   27.9560   43.2390 H   0  0  0  0  0  0  0  0  0  0  0  0
   42.3770   29.4130   41.7030 N   0  0  0  0  0  0  0  0  0  0  0  0
   43.0070   30.5010   41.2460 C   0  0  0  0  0  0  0  0  0  0  0  0
   42.6480   30.8600   40.2920 H   0  0  0  0  0  0  0  0  0  0  0  0
   43.9890   31.0180   41.9900 N   0  0  0  0  0  0  0  0  0  0  0  0
   44.3510   30.4630   43.1860 C   0  0  0  0  0  0  0  0  0  0  0  0
  1 12  1  0  0  0  0
  1  6  1  0  0  0  0
  2  1  2  0  0  0  0
  3  2  1  0  0  0  0
  3  4  2  0  0  0  0
  4  5  1  0  0  0  0
  5  6  2  0  0  0  0
  5  7  1  0  0  0  0
  7  8  1  0  0  0  0
  8 15  1  0  0  0  0
  8  9  1  0  0  0  0
  9 16  1  0  0  0  0
  9 17  1  0  0  0  0
 10 18  1  0  0  0  0
 10 19  1  0  0  0  0
 10  9  1  0  0  0  0
 11 20  1  6  0  0  0
 11  7  1  0  0  0  0
 11 10  1  0  0  0  0
 13  3  1  0  0  0  0
 14  8  1  0  0  0  0
 21 22  1  0  0  0  0
 21  2  1  0  0  0  0
 23 21  1  0  0  0  0
 24 11  1  0  0  0  0
 25 26  1  0  0  0  0
 26 27  1  0  0  0  0
 27 24  1  0  0  0  0
 28 27  2  0  0  0  0
 29 28  1  0  0  0  0
 30 31  1  0  0  0  0
 30 29  2  0  0  0  0
 32 30  1  0  0  0  0
 33 32  2  0  0  0  0
 33 35  1  0  0  0  0
 34 33  1  0  0  0  0
 35 36  2  0  0  0  0
 36 29  1  0  0  0  0
 36 26  1  0  0  0  0
M  END
>  <minimizedAffinity>
-5.3057704

>  <minimizedRMSD>
0.875415921

$$$$
