
 OpenBabel03242518433D

 22 24  0  0  0  0  0  0  0  0999 V2000
   37.3810   33.2610   39.6030 C   0  0  0  0  0  0  0  0  0  0  0  0
   38.4910   33.7700   40.3040 C   0  0  0  0  0  0  0  0  0  0  0  0
   39.2950   32.8370   40.9980 C   0  0  0  0  0  0  0  0  0  0  0  0
   38.9420   31.5270   40.9390 N   0  0  0  0  0  0  0  0  0  0  0  0
   37.8760   31.0840   40.2590 C   0  0  0  0  0  0  0  0  0  0  0  0
   37.0920   31.9530   39.5890 N   0  0  0  0  0  0  0  0  0  0  0  0
   38.7540   34.8100   40.3380 H   0  0  0  0  0  0  0  0  0  0  0  0
   40.1550   33.1980   41.5450 H   0  0  0  0  0  0  0  0  0  0  0  0
   37.5530   29.6940   40.2320 N   0  0  0  0  0  0  0  0  0  0  0  0
   37.2900   28.8340   39.2330 C   0  0  0  0  0  0  0  0  0  0  0  0
   37.3250   29.2540   38.2430 H   0  0  0  0  0  0  0  0  0  0  0  0
   37.0470   27.6320   39.7940 N   0  0  0  0  0  0  0  0  0  0  0  0
   37.1580   27.7450   41.1380 C   0  0  0  0  0  0  0  0  0  0  0  0
   36.9840   26.7340   42.0900 C   0  0  0  0  0  0  0  0  0  0  0  0
   36.7330   25.7350   41.7760 H   0  0  0  0  0  0  0  0  0  0  0  0
   37.1570   27.1350   43.3600 N   0  0  0  0  0  0  0  0  0  0  0  0
   37.4720   28.4040   43.6800 C   0  0  0  0  0  0  0  0  0  0  0  0
   37.5890   28.6200   44.7330 H   0  0  0  0  0  0  0  0  0  0  0  0
   37.6290   29.3400   42.7250 N   0  0  0  0  0  0  0  0  0  0  0  0
   37.4810   29.0630   41.4180 C   0  0  0  0  0  0  0  0  0  0  0  0
   36.5970   34.1610   38.9290 O   0  0  0  0  0  0  0  0  0  0  0  0
   35.7220   34.4700   39.3000 H   0  0  0  0  0  0  0  0  0  0  0  0
  1  2  1  0  0  0  0
  2  7  1  0  0  0  0
  2  3  2  0  0  0  0
  3  8  1  0  0  0  0
  4  3  1  0  0  0  0
  5  4  2  0  0  0  0
  6  1  2  0  0  0  0
  6  5  1  0  0  0  0
  9  5  1  0  0  0  0
  9 20  1  0  0  0  0
 10 12  2  0  0  0  0
 10  9  1  0  0  0  0
 11 10  1  0  0  0  0
 12 13  1  0  0  0  0
 13 20  2  0  0  0  0
 13 14  1  0  0  0  0
 14 16  2  0  0  0  0
 15 14  1  0  0  0  0
 16 17  1  0  0  0  0
 17 18  1  0  0  0  0
 19 17  2  0  0  0  0
 20 19  1  0  0  0  0
 21 22  1  0  0  0  0
 21  1  1  0  0  0  0
M  END
>  <minimizedAffinity>
-4.97416925

$$$$

 OpenBabel03242518433D

 22 24  0  0  0  0  0  0  0  0999 V2000
   36.8520   30.6600   41.2700 C   0  0  0  0  0  0  0  0  0  0  0  0
   37.4040   29.4640   41.7670 C   0  0  0  0  0  0  0  0  0  0  0  0
   38.7950   29.2800   41.5970 C   0  0  0  0  0  0  0  0  0  0  0  0
   39.4940   30.2630   40.9720 N   0  0  0  0  0  0  0  0  0  0  0  0
   38.9290   31.3870   40.5130 C   0  0  0  0  0  0  0  0  0  0  0  0
   37.6030   31.5880   40.6620 N   0  0  0  0  0  0  0  0  0  0  0  0
   36.8340   28.6990   42.2590 H   0  0  0  0  0  0  0  0  0  0  0  0
   39.2480   28.3720   41.9690 H   0  0  0  0  0  0  0  0  0  0  0  0
   39.7130   32.3870   39.8630 N   0  0  0  0  0  0  0  0  0  0  0  0
   39.8370   33.7140   40.0410 C   0  0  0  0  0  0  0  0  0  0  0  0
   39.2320   34.1310   40.8280 H   0  0  0  0  0  0  0  0  0  0  0  0
   40.7300   34.1570   39.1340 N   0  0  0  0  0  0  0  0  0  0  0  0
   41.1600   33.1100   38.3940 C   0  0  0  0  0  0  0  0  0  0  0  0
   42.0880   33.1370   37.3460 C   0  0  0  0  0  0  0  0  0  0  0  0
   42.5430   34.0680   37.0530 H   0  0  0  0  0  0  0  0  0  0  0  0
   42.3250   31.9390   36.7870 N   0  0  0  0  0  0  0  0  0  0  0  0
   41.7190   30.8140   37.2060 C   0  0  0  0  0  0  0  0  0  0  0  0
   41.9830   29.9020   36.6870 H   0  0  0  0  0  0  0  0  0  0  0  0
   40.8320   30.8400   38.2200 N   0  0  0  0  0  0  0  0  0  0  0  0
   40.5100   31.9780   38.8600 C   0  0  0  0  0  0  0  0  0  0  0  0
   35.5030   30.8440   41.4310 O   0  0  0  0  0  0  0  0  0  0  0  0
   34.8640   30.6980   40.6770 H   0  0  0  0  0  0  0  0  0  0  0  0
  1 21  1  0  0  0  0
  1  2  1  0  0  0  0
  2  7  1  0  0  0  0
  3  2  2  0  0  0  0
  3  8  1  0  0  0  0
  4  3  1  0  0  0  0
  5  6  1  0  0  0  0
  5  4  2  0  0  0  0
  6  1  2  0  0  0  0
  9 10  1  0  0  0  0
  9  5  1  0  0  0  0
 10 11  1  0  0  0  0
 12 10  2  0  0  0  0
 13 20  1  0  0  0  0
 13 12  1  0  0  0  0
 14 13  2  0  0  0  0
 15 14  1  0  0  0  0
 16 17  2  0  0  0  0
 16 14  1  0  0  0  0
 17 19  1  0  0  0  0
 18 17  1  0  0  0  0
 19 20  2  0  0  0  0
 20  9  1  0  0  0  0
 22 21  1  0  0  0  0
M  END
>  <minimizedAffinity>
-4.82871151

$$$$

 OpenBabel03242518433D

 22 24  0  0  0  0  0  0  0  0999 V2000
   39.0010   32.3140   41.0100 C   0  0  0  0  0  0  0  0  0  0  0  0
   38.0610   32.7220   40.0450 C   0  0  0  0  0  0  0  0  0  0  0  0
   36.9490   31.8770   39.8330 C   0  0  0  0  0  0  0  0  0  0  0  0
   36.8660   30.7390   40.5700 N   0  0  0  0  0  0  0  0  0  0  0  0
   37.7840   30.3860   41.4790 C   0  0  0  0  0  0  0  0  0  0  0  0
   38.8550   31.1750   41.7020 N   0  0  0  0  0  0  0  0  0  0  0  0
   38.1440   33.6270   39.4730 H   0  0  0  0  0  0  0  0  0  0  0  0
   36.2100   32.1650   39.0980 H   0  0  0  0  0  0  0  0  0  0  0  0
   37.6470   29.1770   42.2260 N   0  0  0  0  0  0  0  0  0  0  0  0
   37.6970   28.9020   43.5410 C   0  0  0  0  0  0  0  0  0  0  0  0
   37.8770   29.7470   44.1820 H   0  0  0  0  0  0  0  0  0  0  0  0
   37.4970   27.5750   43.6790 N   0  0  0  0  0  0  0  0  0  0  0  0
   37.3230   27.0280   42.4540 C   0  0  0  0  0  0  0  0  0  0  0  0
   37.0890   25.6810   42.1530 C   0  0  0  0  0  0  0  0  0  0  0  0
   37.0310   24.9550   42.9450 H   0  0  0  0  0  0  0  0  0  0  0  0
   36.9550   25.4240   40.8420 N   0  0  0  0  0  0  0  0  0  0  0  0
   37.0390   26.3850   39.9040 C   0  0  0  0  0  0  0  0  0  0  0  0
   36.9160   26.0680   38.8770 H   0  0  0  0  0  0  0  0  0  0  0  0
   37.2660   27.6670   40.2460 N   0  0  0  0  0  0  0  0  0  0  0  0
   37.4190   28.0520   41.5250 C   0  0  0  0  0  0  0  0  0  0  0  0
   40.0820   33.1300   41.2200 O   0  0  0  0  0  0  0  0  0  0  0  0
   40.9780   32.9180   40.8320 H   0  0  0  0  0  0  0  0  0  0  0  0
  1 21  1  0  0  0  0
  1  6  1  0  0  0  0
  2  1  2  0  0  0  0
  3  2  1  0  0  0  0
  3  4  2  0  0  0  0
  4  5  1  0  0  0  0
  5  6  2  0  0  0  0
  5  9  1  0  0  0  0
  7  2  1  0  0  0  0
  8  3  1  0  0  0  0
  9 10  1  0  0  0  0
 10 12  2  0  0  0  0
 10 11  1  0  0  0  0
 13 12  1  0  0  0  0
 14 13  1  0  0  0  0
 14 15  1  0  0  0  0
 16 14  2  0  0  0  0
 17 19  2  0  0  0  0
 17 16  1  0  0  0  0
 18 17  1  0  0  0  0
 19 20  1  0  0  0  0
 20  9  1  0  0  0  0
 20 13  2  0  0  0  0
 22 21  1  0  0  0  0
M  END
>  <minimizedAffinity>
-4.82293272

$$$$

 OpenBabel03242518433D

 22 24  0  0  0  0  0  0  0  0999 V2000
   36.6670   30.3710   41.0720 C   0  0  0  0  0  0  0  0  0  0  0  0
   37.6550   31.0240   40.3120 C   0  0  0  0  0  0  0  0  0  0  0  0
   38.7850   30.2630   39.9380 C   0  0  0  0  0  0  0  0  0  0  0  0
   38.8360   28.9650   40.3350 N   0  0  0  0  0  0  0  0  0  0  0  0
   37.8720   28.3810   41.0590 C   0  0  0  0  0  0  0  0  0  0  0  0
   36.7830   29.0850   41.4300 N   0  0  0  0  0  0  0  0  0  0  0  0
   37.5960   32.0520   40.0070 H   0  0  0  0  0  0  0  0  0  0  0  0
   39.5610   30.7370   39.3530 H   0  0  0  0  0  0  0  0  0  0  0  0
   37.9790   27.0120   41.4500 N   0  0  0  0  0  0  0  0  0  0  0  0
   37.1460   25.9620   41.3450 C   0  0  0  0  0  0  0  0  0  0  0  0
   36.2010   26.1700   40.8750 H   0  0  0  0  0  0  0  0  0  0  0  0
   37.7730   24.8990   41.8880 N   0  0  0  0  0  0  0  0  0  0  0  0
   38.9910   25.2880   42.3300 C   0  0  0  0  0  0  0  0  0  0  0  0
   39.9580   24.4930   42.9570 C   0  0  0  0  0  0  0  0  0  0  0  0
   39.7650   23.4480   43.1330 H   0  0  0  0  0  0  0  0  0  0  0  0
   41.0820   25.1480   43.2890 N   0  0  0  0  0  0  0  0  0  0  0  0
   41.2550   26.4580   43.0370 C   0  0  0  0  0  0  0  0  0  0  0  0
   42.1980   26.8880   43.3460 H   0  0  0  0  0  0  0  0  0  0  0  0
   40.2930   27.1800   42.4300 N   0  0  0  0  0  0  0  0  0  0  0  0
   39.1230   26.6380   42.0490 C   0  0  0  0  0  0  0  0  0  0  0  0
   35.5680   31.1060   41.4390 O   0  0  0  0  0  0  0  0  0  0  0  0
   35.4740   31.4760   42.3620 H   0  0  0  0  0  0  0  0  0  0  0  0
  1  6  1  0  0  0  0
  1 21  1  0  0  0  0
  2  1  2  0  0  0  0
  3  2  1  0  0  0  0
  3  4  2  0  0  0  0
  4  5  1  0  0  0  0
  5  6  2  0  0  0  0
  5  9  1  0  0  0  0
  7  2  1  0  0  0  0
  8  3  1  0  0  0  0
  9 20  1  0  0  0  0
 10  9  1  0  0  0  0
 10 12  2  0  0  0  0
 11 10  1  0  0  0  0
 12 13  1  0  0  0  0
 13 14  1  0  0  0  0
 14 15  1  0  0  0  0
 14 16  2  0  0  0  0
 17 16  1  0  0  0  0
 17 18  1  0  0  0  0
 19 17  2  0  0  0  0
 20 13  2  0  0  0  0
 20 19  1  0  0  0  0
 21 22  1  0  0  0  0
M  END
>  <minimizedAffinity>
-4.7635622

$$$$

 OpenBabel03242518433D

 22 24  0  0  0  0  0  0  0  0999 V2000
   37.2890   32.0600   40.0310 C   0  0  0  0  0  0  0  0  0  0  0  0
   37.4990   31.6700   38.6940 C   0  0  0  0  0  0  0  0  0  0  0  0
   37.8770   30.3270   38.4680 C   0  0  0  0  0  0  0  0  0  0  0  0
   38.0090   29.5140   39.5490 N   0  0  0  0  0  0  0  0  0  0  0  0
   37.8000   29.9260   40.8060 C   0  0  0  0  0  0  0  0  0  0  0  0
   37.4380   31.2020   41.0490 N   0  0  0  0  0  0  0  0  0  0  0  0
   37.3880   32.3280   37.8530 H   0  0  0  0  0  0  0  0  0  0  0  0
   38.0440   29.9980   37.4520 H   0  0  0  0  0  0  0  0  0  0  0  0
   37.9550   29.0280   41.9040 N   0  0  0  0  0  0  0  0  0  0  0  0
   37.1650   28.7060   42.9430 C   0  0  0  0  0  0  0  0  0  0  0  0
   36.2180   29.2170   42.9760 H   0  0  0  0  0  0  0  0  0  0  0  0
   37.8250   27.7890   43.6790 N   0  0  0  0  0  0  0  0  0  0  0  0
   39.0220   27.5420   43.0990 C   0  0  0  0  0  0  0  0  0  0  0  0
   40.0110   26.6560   43.5430 C   0  0  0  0  0  0  0  0  0  0  0  0
   39.8560   26.0810   44.4400 H   0  0  0  0  0  0  0  0  0  0  0  0
   41.1040   26.6140   42.7650 N   0  0  0  0  0  0  0  0  0  0  0  0
   41.2290   27.3630   41.6540 C   0  0  0  0  0  0  0  0  0  0  0  0
   42.1520   27.2520   41.1000 H   0  0  0  0  0  0  0  0  0  0  0  0
   40.2480   28.2010   41.2690 N   0  0  0  0  0  0  0  0  0  0  0  0
   39.1050   28.3330   41.9650 C   0  0  0  0  0  0  0  0  0  0  0  0
   36.9220   33.3610   40.2560 O   0  0  0  0  0  0  0  0  0  0  0  0
   37.5820   34.0400   40.5750 H   0  0  0  0  0  0  0  0  0  0  0  0
  1 21  1  0  0  0  0
  1  6  1  0  0  0  0
  2  1  2  0  0  0  0
  3  2  1  0  0  0  0
  3  4  2  0  0  0  0
  4  5  1  0  0  0  0
  5  6  2  0  0  0  0
  5  9  1  0  0  0  0
  7  2  1  0  0  0  0
  8  3  1  0  0  0  0
  9 20  1  0  0  0  0
  9 10  1  0  0  0  0
 10 11  1  0  0  0  0
 10 12  2  0  0  0  0
 13 14  1  0  0  0  0
 13 12  1  0  0  0  0
 14 15  1  0  0  0  0
 16 14  2  0  0  0  0
 17 16  1  0  0  0  0
 18 17  1  0  0  0  0
 19 17  2  0  0  0  0
 19 20  1  0  0  0  0
 20 13  2  0  0  0  0
 21 22  1  0  0  0  0
M  END
>  <minimizedAffinity>
-4.7124114

$$$$

 OpenBabel03242518433D

 22 24  0  0  0  0  0  0  0  0999 V2000
   41.9420   32.8770   37.1480 C   0  0  0  0  0  0  0  0  0  0  0  0
   42.7750   31.7500   37.0120 C   0  0  0  0  0  0  0  0  0  0  0  0
   42.2550   30.5100   37.4450 C   0  0  0  0  0  0  0  0  0  0  0  0
   40.9960   30.4930   37.9560 N   0  0  0  0  0  0  0  0  0  0  0  0
   40.2360   31.5900   38.0690 C   0  0  0  0  0  0  0  0  0  0  0  0
   40.7090   32.7860   37.6630 N   0  0  0  0  0  0  0  0  0  0  0  0
   43.7680   31.7840   36.6040 H   0  0  0  0  0  0  0  0  0  0  0  0
   42.8710   29.6270   37.3520 H   0  0  0  0  0  0  0  0  0  0  0  0
   38.9190   31.5140   38.6150 N   0  0  0  0  0  0  0  0  0  0  0  0
   37.7220   31.9490   38.1850 C   0  0  0  0  0  0  0  0  0  0  0  0
   37.7320   32.4620   37.2390 H   0  0  0  0  0  0  0  0  0  0  0  0
   36.8110   31.5960   39.1140 N   0  0  0  0  0  0  0  0  0  0  0  0
   37.4400   30.9440   40.1190 C   0  0  0  0  0  0  0  0  0  0  0  0
   36.8610   30.4110   41.2770 C   0  0  0  0  0  0  0  0  0  0  0  0
   35.8000   30.5010   41.4390 H   0  0  0  0  0  0  0  0  0  0  0  0
   37.7320   29.8140   42.1060 N   0  0  0  0  0  0  0  0  0  0  0  0
   39.0480   29.7380   41.8380 C   0  0  0  0  0  0  0  0  0  0  0  0
   39.6620   29.2350   42.5740 H   0  0  0  0  0  0  0  0  0  0  0  0
   39.5570   30.2670   40.7090 N   0  0  0  0  0  0  0  0  0  0  0  0
   38.7880   30.8910   39.8000 C   0  0  0  0  0  0  0  0  0  0  0  0
   42.4420   34.0830   36.7300 O   0  0  0  0  0  0  0  0  0  0  0  0
   42.7930   34.7550   37.3810 H   0  0  0  0  0  0  0  0  0  0  0  0
  1  6  1  0  0  0  0
  2  1  2  0  0  0  0
  2  3  1  0  0  0  0
  3  4  2  0  0  0  0
  4  5  1  0  0  0  0
  5  9  1  0  0  0  0
  6  5  2  0  0  0  0
  7  2  1  0  0  0  0
  8  3  1  0  0  0  0
  9 20  1  0  0  0  0
 10  9  1  0  0  0  0
 10 12  2  0  0  0  0
 11 10  1  0  0  0  0
 12 13  1  0  0  0  0
 13 14  1  0  0  0  0
 14 15  1  0  0  0  0
 14 16  2  0  0  0  0
 17 16  1  0  0  0  0
 17 18  1  0  0  0  0
 19 17  2  0  0  0  0
 20 13  2  0  0  0  0
 20 19  1  0  0  0  0
 21  1  1  0  0  0  0
 21 22  1  0  0  0  0
M  END
>  <minimizedAffinity>
-4.7121048

$$$$

 OpenBabel03242518433D

 22 24  0  0  0  0  0  0  0  0999 V2000
   36.1450   29.9320   41.0760 C   0  0  0  0  0  0  0  0  0  0  0  0
   35.4850   29.3600   39.9720 C   0  0  0  0  0  0  0  0  0  0  0  0
   35.8300   28.0320   39.6360 C   0  0  0  0  0  0  0  0  0  0  0  0
   36.7670   27.4060   40.3960 N   0  0  0  0  0  0  0  0  0  0  0  0
   37.3710   27.9880   41.4390 C   0  0  0  0  0  0  0  0  0  0  0  0
   37.0610   29.2550   41.7830 N   0  0  0  0  0  0  0  0  0  0  0  0
   34.7470   29.8710   39.3840 H   0  0  0  0  0  0  0  0  0  0  0  0
   35.3400   27.5650   38.7930 H   0  0  0  0  0  0  0  0  0  0  0  0
   38.3490   27.2820   42.2030 N   0  0  0  0  0  0  0  0  0  0  0  0
   38.5000   27.0640   43.5210 C   0  0  0  0  0  0  0  0  0  0  0  0
   37.7420   27.4990   44.1490 H   0  0  0  0  0  0  0  0  0  0  0  0
   39.6160   26.3240   43.6800 N   0  0  0  0  0  0  0  0  0  0  0  0
   40.1580   26.0840   42.4630 C   0  0  0  0  0  0  0  0  0  0  0  0
   41.3200   25.3550   42.1830 C   0  0  0  0  0  0  0  0  0  0  0  0
   41.8860   24.9140   42.9860 H   0  0  0  0  0  0  0  0  0  0  0  0
   41.6220   25.2780   40.8770 N   0  0  0  0  0  0  0  0  0  0  0  0
   40.8660   25.8560   39.9260 C   0  0  0  0  0  0  0  0  0  0  0  0
   41.2000   25.7330   38.9040 H   0  0  0  0  0  0  0  0  0  0  0  0
   39.7560   26.5470   40.2470 N   0  0  0  0  0  0  0  0  0  0  0  0
   39.3480   26.6960   41.5200 C   0  0  0  0  0  0  0  0  0  0  0  0
   35.8150   31.2210   41.4080 O   0  0  0  0  0  0  0  0  0  0  0  0
   36.4030   31.9890   41.1590 H   0  0  0  0  0  0  0  0  0  0  0  0
  1 21  1  0  0  0  0
  1  6  1  0  0  0  0
  2  1  2  0  0  0  0
  3  2  1  0  0  0  0
  3  4  2  0  0  0  0
  4  5  1  0  0  0  0
  5  6  2  0  0  0  0
  5  9  1  0  0  0  0
  7  2  1  0  0  0  0
  8  3  1  0  0  0  0
  9 10  1  0  0  0  0
 10 12  2  0  0  0  0
 10 11  1  0  0  0  0
 13 12  1  0  0  0  0
 14 13  1  0  0  0  0
 14 15  1  0  0  0  0
 16 14  2  0  0  0  0
 17 19  2  0  0  0  0
 17 16  1  0  0  0  0
 18 17  1  0  0  0  0
 19 20  1  0  0  0  0
 20  9  1  0  0  0  0
 20 13  2  0  0  0  0
 22 21  1  0  0  0  0
M  END
>  <minimizedAffinity>
-4.66326427

$$$$

 OpenBabel03242518433D

 22 24  0  0  0  0  0  0  0  0999 V2000
   38.7160   31.5350   37.6780 C   0  0  0  0  0  0  0  0  0  0  0  0
   37.4840   31.1850   37.0920 C   0  0  0  0  0  0  0  0  0  0  0  0
   36.5980   30.4110   37.8740 C   0  0  0  0  0  0  0  0  0  0  0  0
   36.9940   30.0630   39.1260 N   0  0  0  0  0  0  0  0  0  0  0  0
   38.1760   30.4170   39.6460 C   0  0  0  0  0  0  0  0  0  0  0  0
   39.0410   31.1560   38.9210 N   0  0  0  0  0  0  0  0  0  0  0  0
   37.1880   31.4710   36.1000 H   0  0  0  0  0  0  0  0  0  0  0  0
   35.6440   30.1270   37.4510 H   0  0  0  0  0  0  0  0  0  0  0  0
   38.5410   30.0220   40.9680 N   0  0  0  0  0  0  0  0  0  0  0  0
   39.0020   30.7010   42.0330 C   0  0  0  0  0  0  0  0  0  0  0  0
   39.1310   31.7590   41.8830 H   0  0  0  0  0  0  0  0  0  0  0  0
   39.1770   29.8110   43.0300 N   0  0  0  0  0  0  0  0  0  0  0  0
   38.8260   28.5820   42.5860 C   0  0  0  0  0  0  0  0  0  0  0  0
   38.8580   27.3810   43.3050 C   0  0  0  0  0  0  0  0  0  0  0  0
   39.1910   27.3740   44.3290 H   0  0  0  0  0  0  0  0  0  0  0  0
   38.4500   26.3080   42.6070 N   0  0  0  0  0  0  0  0  0  0  0  0
   38.0460   26.3910   41.3260 C   0  0  0  0  0  0  0  0  0  0  0  0
   37.7380   25.4660   40.8580 H   0  0  0  0  0  0  0  0  0  0  0  0
   38.0340   27.5720   40.6790 N   0  0  0  0  0  0  0  0  0  0  0  0
   38.4190   28.7170   41.2690 C   0  0  0  0  0  0  0  0  0  0  0  0
   39.5800   32.2860   36.9230 O   0  0  0  0  0  0  0  0  0  0  0  0
   40.3650   31.8720   36.4650 H   0  0  0  0  0  0  0  0  0  0  0  0
  1  6  1  0  0  0  0
  2  1  2  0  0  0  0
  2  3  1  0  0  0  0
  3  4  2  0  0  0  0
  4  5  1  0  0  0  0
  5  9  1  0  0  0  0
  6  5  2  0  0  0  0
  7  2  1  0  0  0  0
  8  3  1  0  0  0  0
  9 20  1  0  0  0  0
  9 10  1  0  0  0  0
 10 12  2  0  0  0  0
 11 10  1  0  0  0  0
 13 12  1  0  0  0  0
 13 14  1  0  0  0  0
 14 15  1  0  0  0  0
 16 14  2  0  0  0  0
 17 16  1  0  0  0  0
 18 17  1  0  0  0  0
 19 20  1  0  0  0  0
 19 17  2  0  0  0  0
 20 13  2  0  0  0  0
 21  1  1  0  0  0  0
 22 21  1  0  0  0  0
M  END
>  <minimizedAffinity>
-4.62034893

$$$$

 OpenBabel03242518433D

 22 24  0  0  0  0  0  0  0  0999 V2000
   37.2850   27.1370   41.4960 C   0  0  0  0  0  0  0  0  0  0  0  0
   37.8020   26.9170   42.7870 C   0  0  0  0  0  0  0  0  0  0  0  0
   38.2910   28.0440   43.4840 C   0  0  0  0  0  0  0  0  0  0  0  0
   38.2270   29.2510   42.8640 N   0  0  0  0  0  0  0  0  0  0  0  0
   37.7270   29.4170   41.6330 C   0  0  0  0  0  0  0  0  0  0  0  0
   37.2540   28.3580   40.9450 N   0  0  0  0  0  0  0  0  0  0  0  0
   37.8420   25.9540   43.2610 H   0  0  0  0  0  0  0  0  0  0  0  0
   38.6930   27.9060   44.4780 H   0  0  0  0  0  0  0  0  0  0  0  0
   37.6860   30.7100   41.0290 N   0  0  0  0  0  0  0  0  0  0  0  0
   36.7070   31.4130   40.4340 C   0  0  0  0  0  0  0  0  0  0  0  0
   35.7500   30.9220   40.3910 H   0  0  0  0  0  0  0  0  0  0  0  0
   37.2380   32.5890   40.0440 N   0  0  0  0  0  0  0  0  0  0  0  0
   38.5440   32.6170   40.3960 C   0  0  0  0  0  0  0  0  0  0  0  0
   39.4590   33.6540   40.1760 C   0  0  0  0  0  0  0  0  0  0  0  0
   39.1420   34.5540   39.6760 H   0  0  0  0  0  0  0  0  0  0  0  0
   40.6960   33.4070   40.6350 N   0  0  0  0  0  0  0  0  0  0  0  0
   41.0200   32.2560   41.2520 C   0  0  0  0  0  0  0  0  0  0  0  0
   42.0460   32.1600   41.5820 H   0  0  0  0  0  0  0  0  0  0  0  0
   40.1040   31.2880   41.4400 N   0  0  0  0  0  0  0  0  0  0  0  0
   38.8310   31.4160   41.0250 C   0  0  0  0  0  0  0  0  0  0  0  0
   36.8090   26.0460   40.8140 O   0  0  0  0  0  0  0  0  0  0  0  0
   37.3460   25.6070   40.0960 H   0  0  0  0  0  0  0  0  0  0  0  0
  1  2  1  0  0  0  0
  2  7  1  0  0  0  0
  2  3  2  0  0  0  0
  3  8  1  0  0  0  0
  4  3  1  0  0  0  0
  5  4  2  0  0  0  0
  6  1  2  0  0  0  0
  6  5  1  0  0  0  0
  9  5  1  0  0  0  0
 10  9  1  0  0  0  0
 11 10  1  0  0  0  0
 12 13  1  0  0  0  0
 12 10  2  0  0  0  0
 13 20  1  0  0  0  0
 14 13  2  0  0  0  0
 14 16  1  0  0  0  0
 15 14  1  0  0  0  0
 16 17  2  0  0  0  0
 17 19  1  0  0  0  0
 17 18  1  0  0  0  0
 20  9  1  0  0  0  0
 20 19  2  0  0  0  0
 21  1  1  0  0  0  0
 22 21  1  0  0  0  0
M  END
>  <minimizedAffinity>
-4.6108284

$$$$
