
 OpenBabel03242515043D

 42 45  0  0  0  0  0  0  0  0999 V2000
   45.0060   34.6590   42.2770 C   0  0  0  0  0  0  0  0  0  0  0  0
   46.3160   34.3920   41.8880 C   0  0  0  0  0  0  0  0  0  0  0  0
   47.2680   34.0700   42.8730 C   0  0  0  0  0  0  0  0  0  0  0  0
   46.8430   34.0400   44.1540 N   0  0  0  0  0  0  0  0  0  0  0  0
   45.5680   34.3030   44.5110 C   0  0  0  0  0  0  0  0  0  0  0  0
   44.6750   34.6060   43.5730 N   0  0  0  0  0  0  0  0  0  0  0  0
   46.6620   34.4130   40.8680 H   0  0  0  0  0  0  0  0  0  0  0  0
   48.6140   33.7920   42.4900 N   0  0  0  0  0  0  0  0  0  0  0  0
   49.8090   34.3880   42.7730 C   0  0  0  0  0  0  0  0  0  0  0  0
   49.8420   35.2600   43.4140 H   0  0  0  0  0  0  0  0  0  0  0  0
   50.7790   33.6810   42.1220 N   0  0  0  0  0  0  0  0  0  0  0  0
   50.1750   32.6620   41.4480 C   0  0  0  0  0  0  0  0  0  0  0  0
   50.7820   31.7060   40.6600 C   0  0  0  0  0  0  0  0  0  0  0  0
   51.8550   31.6770   40.4970 H   0  0  0  0  0  0  0  0  0  0  0  0
   49.9500   30.7860   40.0890 N   0  0  0  0  0  0  0  0  0  0  0  0
   48.6220   30.8250   40.2930 C   0  0  0  0  0  0  0  0  0  0  0  0
   47.9520   30.0830   39.8320 H   0  0  0  0  0  0  0  0  0  0  0  0
   48.0880   31.7810   41.0710 N   0  0  0  0  0  0  0  0  0  0  0  0
   48.8170   32.7340   41.6800 C   0  0  0  0  0  0  0  0  0  0  0  0
   45.2480   34.2360   45.9190 C   0  0  0  0  0  0  0  0  0  0  0  0
   44.3730   35.0270   46.3660 O   0  0  0  0  0  0  0  0  0  0  0  0
   45.9410   33.2770   46.7240 N   0  0  0  0  0  0  0  0  0  0  0  0
   46.9310   33.0280   46.5830 H   0  0  0  0  0  0  0  0  0  0  0  0
   45.3130   32.8710   47.4630 H   0  0  0  0  0  0  0  0  0  0  0  0
   43.8610   35.0590   40.9660 S   0  0  0  0  0  0  0  0  0  0  0  0
   42.1370   34.8820   41.4650 C   0  0  0  0  0  0  0  0  0  0  0  0
   42.0890   34.9490   42.5730 H   0  0  0  0  0  0  0  0  0  0  0  0
   41.8350   33.8230   41.2370 H   0  0  0  0  0  0  0  0  0  0  0  0
   41.2080   35.8460   40.8190 C   0  0  0  0  0  0  0  0  0  0  0  0
   40.6020   36.3090   41.6490 H   0  0  0  0  0  0  0  0  0  0  0  0
   41.7740   36.6300   40.2720 H   0  0  0  0  0  0  0  0  0  0  0  0
   42.0160   36.0880   37.9020 Cl  0  0  0  0  0  0  0  0  0  0  0  0
   40.6120   35.2120   38.4550 C   0  0  0  0  0  0  0  0  0  0  0  0
   40.3340   35.1680   39.8310 C   0  0  0  0  0  0  0  0  0  0  0  0
   39.2100   34.4610   40.1840 C   0  0  0  0  0  0  0  0  0  0  0  0
   38.3420   33.7990   39.3300 C   0  0  0  0  0  0  0  0  0  0  0  0
   38.6410   33.8620   37.9900 C   0  0  0  0  0  0  0  0  0  0  0  0
   37.6110   33.0610   36.8060 Cl  0  0  0  0  0  0  0  0  0  0  0  0
   39.7530   34.5560   37.5730 C   0  0  0  0  0  0  0  0  0  0  0  0
   39.0010   34.4290   41.2540 H   0  0  0  0  0  0  0  0  0  0  0  0
   37.4840   33.2680   39.6990 H   0  0  0  0  0  0  0  0  0  0  0  0
   39.9830   34.6010   36.5070 H   0  0  0  0  0  0  0  0  0  0  0  0
  1  6  1  0  0  0  0
  2  1  2  0  0  0  0
  2  3  1  0  0  0  0
  3  4  2  0  0  0  0
  4  5  1  0  0  0  0
  5 20  1  0  0  0  0
  6  5  2  0  0  0  0
  7  2  1  0  0  0  0
  8  9  1  0  0  0  0
  8  3  1  0  0  0  0
  9 10  1  0  0  0  0
 11  9  2  0  0  0  0
 12 19  1  0  0  0  0
 12 11  1  0  0  0  0
 13 12  2  0  0  0  0
 14 13  1  0  0  0  0
 15 16  2  0  0  0  0
 15 13  1  0  0  0  0
 16 18  1  0  0  0  0
 17 16  1  0  0  0  0
 18 19  2  0  0  0  0
 19  8  1  0  0  0  0
 20 21  2  0  0  0  0
 20 22  1  0  0  0  0
 22 24  1  0  0  0  0
 23 22  1  0  0  0  0
 25 26  1  0  0  0  0
 25  1  1  0  0  0  0
 26 27  1  0  0  0  0
 28 26  1  0  0  0  0
 29 26  1  0  0  0  0
 29 30  1  0  0  0  0
 31 29  1  0  0  0  0
 32 33  1  0  0  0  0
 33 34  1  0  0  0  0
 34 35  2  0  0  0  0
 34 29  1  0  0  0  0
 35 40  1  0  0  0  0
 36 41  1  0  0  0  0
 36 35  1  0  0  0  0
 37 36  2  0  0  0  0
 38 37  1  0  0  0  0
 39 37  1  0  0  0  0
 39 33  2  0  0  0  0
 42 39  1  0  0  0  0
M  END
>  <minimizedAffinity>
-7.50632524

>  <minimizedRMSD>
0.497554421

$$$$
