
 OpenBabel03252509193D

 46 50  0  0  1  0  0  0  0  0999 V2000
   48.1560   29.4530   48.8180 C   0  0  1  0  0  0  0  0  0  0  0  0
   48.1200   28.2030   47.9870 C   0  0  0  0  0  0  0  0  0  0  0  0
   49.4510   27.5140   47.8360 C   0  0  0  0  0  0  0  0  0  0  0  0
   50.2570   27.4590   49.0980 C   0  0  0  0  0  0  0  0  0  0  0  0
   50.2020   28.7420   49.8840 C   0  0  0  0  0  0  0  0  0  0  0  0
   49.6120   29.8540   48.9890 C   0  0  2  0  0  0  0  0  0  0  0  0
   47.7640   29.2300   49.8090 H   0  0  0  0  0  0  0  0  0  0  0  0
   47.7510   28.4340   46.9650 H   0  0  0  0  0  0  0  0  0  0  0  0
   47.3900   27.4800   48.4150 H   0  0  0  0  0  0  0  0  0  0  0  0
   49.2800   26.4920   47.5040 H   0  0  0  0  0  0  0  0  0  0  0  0
   50.0280   28.0600   47.0510 H   0  0  0  0  0  0  0  0  0  0  0  0
   51.3220   27.2860   48.7780 H   0  0  0  0  0  0  0  0  0  0  0  0
   49.9500   26.5970   49.7380 H   0  0  0  0  0  0  0  0  0  0  0  0
   49.4660   28.6210   50.7090 H   0  0  0  0  0  0  0  0  0  0  0  0
   51.1930   29.0490   50.2320 H   0  0  0  0  0  0  0  0  0  0  0  0
   50.1380   29.8160   47.9910 H   0  0  0  0  0  0  0  0  0  0  0  0
   46.3920   32.4540   46.6360 C   0  0  0  0  0  0  0  0  0  0  0  0
   45.7290   32.1740   47.8350 C   0  0  0  0  0  0  0  0  0  0  0  0
   46.2150   31.2190   48.6180 C   0  0  0  0  0  0  0  0  0  0  0  0
   47.3820   30.5050   48.2420 C   0  0  0  0  0  0  0  0  0  0  0  0
   47.8090   31.2630   46.6400 S   0  0  0  0  0  0  0  0  0  0  0  0
   44.8420   32.7320   48.1070 H   0  0  0  0  0  0  0  0  0  0  0  0
   45.8240   30.8830   49.5650 H   0  0  0  0  0  0  0  0  0  0  0  0
   44.7510   35.2550   44.8130 C   0  0  0  0  0  0  0  0  0  0  0  0
   45.4840   35.2410   43.6290 C   0  0  0  0  0  0  0  0  0  0  0  0
   46.5100   34.2770   43.4890 C   0  0  0  0  0  0  0  0  0  0  0  0
   46.7190   33.4150   44.5320 N   0  0  0  0  0  0  0  0  0  0  0  0
   45.9810   33.4760   45.6500 C   0  0  0  0  0  0  0  0  0  0  0  0
   45.0020   34.3910   45.7920 N   0  0  0  0  0  0  0  0  0  0  0  0
   43.9600   35.9840   44.9430 H   0  0  0  0  0  0  0  0  0  0  0  0
   45.3120   35.9180   42.8220 H   0  0  0  0  0  0  0  0  0  0  0  0
   47.1300   34.1930   42.6020 H   0  0  0  0  0  0  0  0  0  0  0  0
   49.7650   31.1460   49.6300 C   0  0  0  0  0  0  0  0  0  0  0  0
   49.8300   31.2800   50.8260 O   0  0  0  0  0  0  0  0  0  0  0  0
   48.7040   33.1300   47.6420 H   0  0  0  0  0  0  0  0  0  0  0  0
   49.3270   33.2830   48.4650 N   0  0  0  0  0  0  0  0  0  0  0  0
   49.9130   32.5550   49.4120 C   0  0  0  0  0  0  0  0  0  0  0  0
   50.5650   33.4440   50.1190 N   0  0  0  0  0  0  0  0  0  0  0  0
   50.4830   34.6950   49.7530 C   0  0  0  0  0  0  0  0  0  0  0  0
   51.0220   35.8640   50.2490 C   0  0  0  0  0  0  0  0  0  0  0  0
   51.6540   35.8920   51.1040 H   0  0  0  0  0  0  0  0  0  0  0  0
   50.6940   36.9990   49.5720 N   0  0  0  0  0  0  0  0  0  0  0  0
   49.8920   36.9220   48.4960 C   0  0  0  0  0  0  0  0  0  0  0  0
   49.5480   37.7370   47.8620 H   0  0  0  0  0  0  0  0  0  0  0  0
   49.3930   35.7480   48.0540 N   0  0  0  0  0  0  0  0  0  0  0  0
   49.6710   34.5970   48.6670 C   0  0  0  0  0  0  0  0  0  0  0  0
  1  6  1  0  0  0  0
  1  7  1  1  0  0  0
  2  9  1  0  0  0  0
  2  1  1  0  0  0  0
  3  2  1  0  0  0  0
  3  4  1  0  0  0  0
  4 13  1  0  0  0  0
  4  5  1  0  0  0  0
  5 15  1  0  0  0  0
  5 14  1  0  0  0  0
  6 16  1  6  0  0  0
  6 33  1  0  0  0  0
  6  5  1  0  0  0  0
  8  2  1  0  0  0  0
 10  3  1  0  0  0  0
 11  3  1  0  0  0  0
 12  4  1  0  0  0  0
 17 21  1  0  0  0  0
 17 18  2  0  0  0  0
 18 22  1  0  0  0  0
 18 19  1  0  0  0  0
 19 23  1  0  0  0  0
 20 19  2  0  0  0  0
 20  1  1  0  0  0  0
 21 20  1  0  0  0  0
 24 30  1  0  0  0  0
 24 29  1  0  0  0  0
 25 24  2  0  0  0  0
 26 25  1  0  0  0  0
 26 27  2  0  0  0  0
 27 28  1  0  0  0  0
 28 29  2  0  0  0  0
 28 17  1  0  0  0  0
 31 25  1  0  0  0  0
 32 26  1  0  0  0  0
 33 34  2  0  0  0  0
 35 36  1  0  0  0  0
 36 46  1  0  0  0  0
 36 37  1  0  0  0  0
 37 33  1  0  0  0  0
 37 38  2  0  0  0  0
 39 38  1  0  0  0  0
 39 40  1  0  0  0  0
 40 41  1  0  0  0  0
 42 40  2  0  0  0  0
 43 42  1  0  0  0  0
 44 43  1  0  0  0  0
 45 43  2  0  0  0  0
 45 46  1  0  0  0  0
 46 39  2  0  0  0  0
M  END
>  <minimizedAffinity>
11.9816599

>  <minimizedRMSD>
1.35594904

$$$$
