
 OpenBabel03252507323D

 52 56  0  0  1  0  0  0  0  0999 V2000
   46.9510   32.7790   45.4390 C   0  0  0  0  0  0  0  0  0  0  0  0
   45.8520   33.4510   45.9490 C   0  0  0  0  0  0  0  0  0  0  0  0
   45.1760   34.4000   45.1460 C   0  0  0  0  0  0  0  0  0  0  0  0
   45.6830   34.5960   43.8630 N   0  0  0  0  0  0  0  0  0  0  0  0
   46.7500   33.9160   43.4330 C   0  0  0  0  0  0  0  0  0  0  0  0
   47.3740   33.0240   44.2040 N   0  0  0  0  0  0  0  0  0  0  0  0
   45.3290   33.4860   46.8810 H   0  0  0  0  0  0  0  0  0  0  0  0
   44.3300   34.9970   45.3620 H   0  0  0  0  0  0  0  0  0  0  0  0
   47.2460   34.1840   42.0800 C   0  0  0  0  0  0  0  0  0  0  0  0
   48.1940   35.1560   41.8510 C   0  0  0  0  0  0  0  0  0  0  0  0
   48.7210   35.4790   40.6190 C   0  0  0  0  0  0  0  0  0  0  0  0
   48.2190   34.7370   39.5800 C   0  0  0  0  0  0  0  0  0  0  0  0
   47.2570   33.7450   39.7820 C   0  0  0  0  0  0  0  0  0  0  0  0
   46.7780   33.4790   41.0370 N   0  0  0  0  0  0  0  0  0  0  0  0
   48.5440   35.7030   42.7320 H   0  0  0  0  0  0  0  0  0  0  0  0
   49.4600   36.2390   40.4580 H   0  0  0  0  0  0  0  0  0  0  0  0
   48.5450   34.8860   38.5600 H   0  0  0  0  0  0  0  0  0  0  0  0
   46.7710   33.0060   38.6640 N   0  0  0  0  0  0  0  0  0  0  0  0
   46.2680   33.3790   37.4540 C   0  0  0  0  0  0  0  0  0  0  0  0
   46.1760   34.4240   37.1890 H   0  0  0  0  0  0  0  0  0  0  0  0
   45.9510   32.2690   36.7520 N   0  0  0  0  0  0  0  0  0  0  0  0
   46.2440   31.1790   37.4960 C   0  0  0  0  0  0  0  0  0  0  0  0
   46.1110   29.8220   37.2430 C   0  0  0  0  0  0  0  0  0  0  0  0
   45.7050   29.4700   36.2960 H   0  0  0  0  0  0  0  0  0  0  0  0
   46.4830   28.9140   38.1650 N   0  0  0  0  0  0  0  0  0  0  0  0
   46.9850   29.4050   39.3350 C   0  0  0  0  0  0  0  0  0  0  0  0
   47.3210   28.7580   40.1610 H   0  0  0  0  0  0  0  0  0  0  0  0
   47.1320   30.7140   39.6230 N   0  0  0  0  0  0  0  0  0  0  0  0
   46.7640   31.6420   38.7100 C   0  0  0  0  0  0  0  0  0  0  0  0
   47.5930   31.7990   46.2930 C   0  0  2  0  0  0  0  0  0  0  0  0
   47.3280   30.3490   45.8020 C   0  0  0  0  0  0  0  0  0  0  0  0
   48.1370   29.3940   46.6120 C   0  0  0  0  0  0  0  0  0  0  0  0
   48.1400   29.6270   48.0850 C   0  0  0  0  0  0  0  0  0  0  0  0
   48.1620   31.0190   48.4680 C   0  0  0  0  0  0  0  0  0  0  0  0
   47.1670   31.8960   47.6750 C   0  0  2  0  0  0  0  0  0  0  0  0
   48.6920   31.8960   46.1640 H   0  0  0  0  0  0  0  0  0  0  0  0
   46.2730   30.0870   45.8380 H   0  0  0  0  0  0  0  0  0  0  0  0
   47.6470   30.3060   44.7420 H   0  0  0  0  0  0  0  0  0  0  0  0
   49.1250   29.3320   46.1160 H   0  0  0  0  0  0  0  0  0  0  0  0
   47.6940   28.3670   46.4540 H   0  0  0  0  0  0  0  0  0  0  0  0
   47.7620   28.8400   48.7340 H   0  0  0  0  0  0  0  0  0  0  0  0
   49.2520   29.3600   48.3050 H   0  0  0  0  0  0  0  0  0  0  0  0
   49.1240   31.5810   48.3920 H   0  0  0  0  0  0  0  0  0  0  0  0
   47.8620   31.1600   49.5430 H   0  0  0  0  0  0  0  0  0  0  0  0
   47.3030   32.8590   48.1670 H   0  0  0  0  0  0  0  0  0  0  0  0
   45.8240   31.3320   47.8240 N   0  0  0  0  0  0  0  0  0  0  0  0
   45.1700   30.7570   48.9270 C   0  0  0  0  0  0  0  0  0  0  0  0
   44.6780   31.4520   49.8880 O   0  0  0  0  0  0  0  0  0  0  0  0
   45.0860   29.3320   48.8950 N   0  0  0  0  0  0  0  0  0  0  0  0
   45.1470   31.2340   46.9780 H   0  0  0  0  0  0  0  0  0  0  0  0
   44.7350   28.7080   48.1470 H   0  0  0  0  0  0  0  0  0  0  0  0
   45.4130   28.7620   49.7130 H   0  0  0  0  0  0  0  0  0  0  0  0
  1  2  1  0  0  0  0
  1 30  1  0  0  0  0
  2  7  1  0  0  0  0
  3  8  1  0  0  0  0
  3  2  2  0  0  0  0
  4  3  1  0  0  0  0
  5  4  2  0  0  0  0
  5  6  1  0  0  0  0
  6  1  2  0  0  0  0
  9  5  1  0  0  0  0
 10  9  1  0  0  0  0
 10 15  1  0  0  0  0
 11 10  2  0  0  0  0
 12 13  2  0  0  0  0
 12 11  1  0  0  0  0
 13 14  1  0  0  0  0
 14  9  2  0  0  0  0
 16 11  1  0  0  0  0
 17 12  1  0  0  0  0
 18 29  1  0  0  0  0
 18 13  1  0  0  0  0
 19 18  1  0  0  0  0
 20 19  1  0  0  0  0
 21 19  2  0  0  0  0
 21 22  1  0  0  0  0
 22 29  1  0  0  0  0
 23 22  2  0  0  0  0
 23 25  1  0  0  0  0
 24 23  1  0  0  0  0
 25 26  2  0  0  0  0
 26 28  1  0  0  0  0
 26 27  1  0  0  0  0
 29 28  2  0  0  0  0
 30 36  1  6  0  0  0
 30 35  1  0  0  0  0
 31 37  1  0  0  0  0
 31 30  1  0  0  0  0
 31 32  1  0  0  0  0
 32 33  1  0  0  0  0
 33 42  1  0  0  0  0
 33 34  1  0  0  0  0
 33 41  1  0  0  0  0
 34 44  1  0  0  0  0
 35 46  1  0  0  0  0
 35 45  1  1  0  0  0
 35 34  1  0  0  0  0
 38 31  1  0  0  0  0
 39 32  1  0  0  0  0
 40 32  1  0  0  0  0
 43 34  1  0  0  0  0
 46 47  1  0  0  0  0
 47 48  2  0  0  0  0
 49 47  1  0  0  0  0
 49 52  1  0  0  0  0
 50 46  1  0  0  0  0
 51 49  1  0  0  0  0
M  END
>  <minimizedAffinity>
-6.66329384

>  <minimizedRMSD>
0.18362318

$$$$
