
 OpenBabel03242523253D

 46 50  0  0  1  0  0  0  0  0999 V2000
   37.9120   29.6130   41.1130 C   0  0  0  0  0  0  0  0  0  0  0  0
   37.0600   28.6970   41.5660 C   0  0  0  0  0  0  0  0  0  0  0  0
   36.1930   28.1970   40.6270 C   0  0  0  0  0  0  0  0  0  0  0  0
   36.2790   28.6860   39.3080 N   0  0  0  0  0  0  0  0  0  0  0  0
   37.1450   29.5930   38.9340 C   0  0  0  0  0  0  0  0  0  0  0  0
   38.0330   30.1170   39.8490 N   0  0  0  0  0  0  0  0  0  0  0  0
   35.4220   27.4540   40.7550 H   0  0  0  0  0  0  0  0  0  0  0  0
   37.0980   29.8800   37.8800 H   0  0  0  0  0  0  0  0  0  0  0  0
   36.8870   28.2810   42.9210 C   0  0  1  0  0  0  0  0  0  0  0  0
   36.3420   27.1290   43.3980 C   0  0  0  0  0  0  0  0  0  0  0  0
   37.8470   27.1430   43.4360 C   0  0  1  0  0  0  0  0  0  0  0  0
   36.7590   29.1260   43.6110 H   0  0  0  0  0  0  0  0  0  0  0  0
   35.7930   26.4480   42.6980 H   0  0  0  0  0  0  0  0  0  0  0  0
   35.9030   26.9450   44.4200 H   0  0  0  0  0  0  0  0  0  0  0  0
   38.3470   27.3710   44.3820 H   0  0  0  0  0  0  0  0  0  0  0  0
   38.4170   26.2540   42.4810 N   0  0  0  0  0  0  0  0  0  0  0  0
   37.7390   25.1180   42.1200 C   0  0  0  0  0  0  0  0  0  0  0  0
   36.7780   24.6640   42.3950 H   0  0  0  0  0  0  0  0  0  0  0  0
   38.4360   24.3980   41.2060 N   0  0  0  0  0  0  0  0  0  0  0  0
   39.5820   25.0800   40.9720 C   0  0  0  0  0  0  0  0  0  0  0  0
   40.6680   24.8410   40.1490 C   0  0  0  0  0  0  0  0  0  0  0  0
   40.7240   23.9560   39.5130 H   0  0  0  0  0  0  0  0  0  0  0  0
   41.6850   25.7380   40.1430 N   0  0  0  0  0  0  0  0  0  0  0  0
   41.5920   26.8370   40.9480 C   0  0  0  0  0  0  0  0  0  0  0  0
   42.4670   27.4700   40.8480 H   0  0  0  0  0  0  0  0  0  0  0  0
   40.5360   27.0740   41.7500 N   0  0  0  0  0  0  0  0  0  0  0  0
   39.5350   26.2070   41.7680 C   0  0  0  0  0  0  0  0  0  0  0  0
   39.0030   30.2520   41.8820 C   0  0  0  0  0  0  0  0  0  0  0  0
   39.7810   30.3260   42.7890 O   0  0  0  0  0  0  0  0  0  0  0  0
   41.5970   30.3110   40.2080 Cl  0  0  0  0  0  0  0  0  0  0  0  0
   40.5570   31.7110   40.3960 C   0  0  0  0  0  0  0  0  0  0  0  0
   39.3940   31.5200   41.1840 C   0  0  0  0  0  0  0  0  0  0  0  0
   38.6640   32.6860   41.2450 C   0  0  0  0  0  0  0  0  0  0  0  0
   38.8820   33.8790   40.7130 C   0  0  0  0  0  0  0  0  0  0  0  0
   40.0260   33.9940   39.9640 C   0  0  0  0  0  0  0  0  0  0  0  0
   40.8650   32.9300   39.7960 C   0  0  0  0  0  0  0  0  0  0  0  0
   37.7010   32.6590   41.8090 H   0  0  0  0  0  0  0  0  0  0  0  0
   38.2390   34.7500   40.8230 H   0  0  0  0  0  0  0  0  0  0  0  0
   40.2500   34.9730   39.5000 H   0  0  0  0  0  0  0  0  0  0  0  0
   41.9690   33.1670   39.0230 O   0  0  0  0  0  0  0  0  0  0  0  0
   43.3260   31.7300   37.3040 O   0  0  0  0  0  0  0  0  0  0  0  0
   42.2560   32.7880   37.3990 P   0  0  0  0  0  0  0  0  0  0  0  0
   40.8110   32.2710   36.6800 O   0  0  0  0  0  0  0  0  0  0  0  0
   40.3320   31.5840   37.2040 H   0  0  0  0  0  0  0  0  0  0  0  0
   42.7250   34.1580   36.5160 O   0  0  0  0  0  0  0  0  0  0  0  0
   43.6480   34.4210   36.7340 H   0  0  0  0  0  0  0  0  0  0  0  0
  1  2  1  0  0  0  0
  1 28  1  0  0  0  0
  2  9  1  0  0  0  0
  3  7  1  0  0  0  0
  3  2  2  0  0  0  0
  4  3  1  0  0  0  0
  5  4  2  0  0  0  0
  5  6  1  0  0  0  0
  6  1  2  0  0  0  0
  8  5  1  0  0  0  0
  9 10  1  0  0  0  0
  9 11  1  0  0  0  0
  9 12  1  1  0  0  0
 10 11  1  0  0  0  0
 10 14  1  0  0  0  0
 11 15  1  1  0  0  0
 13 10  1  0  0  0  0
 16 11  1  0  0  0  0
 17 18  1  0  0  0  0
 17 16  1  0  0  0  0
 19 17  2  0  0  0  0
 20 19  1  0  0  0  0
 20 27  1  0  0  0  0
 21 20  2  0  0  0  0
 22 21  1  0  0  0  0
 23 21  1  0  0  0  0
 23 24  2  0  0  0  0
 24 26  1  0  0  0  0
 25 24  1  0  0  0  0
 26 27  2  0  0  0  0
 27 16  1  0  0  0  0
 28 29  2  0  0  0  0
 30 31  1  0  0  0  0
 31 32  1  0  0  0  0
 32 33  2  0  0  0  0
 32 28  1  0  0  0  0
 33 37  1  0  0  0  0
 34 38  1  0  0  0  0
 34 33  1  0  0  0  0
 35 34  2  0  0  0  0
 36 35  1  0  0  0  0
 36 31  2  0  0  0  0
 39 35  1  0  0  0  0
 40 36  1  0  0  0  0
 41 42  2  0  0  0  0
 42 40  1  0  0  0  0
 43 44  1  0  0  0  0
 43 42  1  0  0  0  0
 45 46  1  0  0  0  0
 45 42  1  0  0  0  0
M  END
>  <minimizedAffinity>
-6.55240774

$$$$

 OpenBabel03242523253D

 46 50  0  0  1  0  0  0  0  0999 V2000
   36.5040   27.3550   39.5800 C   0  0  0  0  0  0  0  0  0  0  0  0
   36.9040   27.1170   40.8270 C   0  0  0  0  0  0  0  0  0  0  0  0
   37.7720   26.0640   40.9660 C   0  0  0  0  0  0  0  0  0  0  0  0
   38.1480   25.3470   39.8120 N   0  0  0  0  0  0  0  0  0  0  0  0
   37.7110   25.6380   38.6130 C   0  0  0  0  0  0  0  0  0  0  0  0
   36.8400   26.6910   38.4340 N   0  0  0  0  0  0  0  0  0  0  0  0
   38.2270   25.6860   41.8670 H   0  0  0  0  0  0  0  0  0  0  0  0
   38.0840   24.9980   37.8090 H   0  0  0  0  0  0  0  0  0  0  0  0
   36.4410   27.7610   42.0140 C   0  0  1  0  0  0  0  0  0  0  0  0
   36.5740   27.3630   43.3090 C   0  0  0  0  0  0  0  0  0  0  0  0
   37.5320   28.4540   42.9120 C   0  0  1  0  0  0  0  0  0  0  0  0
   35.5330   28.3570   41.8460 H   0  0  0  0  0  0  0  0  0  0  0  0
   36.9430   26.3290   43.5330 H   0  0  0  0  0  0  0  0  0  0  0  0
   35.9430   27.6680   44.1920 H   0  0  0  0  0  0  0  0  0  0  0  0
   37.2980   29.4870   43.1880 H   0  0  0  0  0  0  0  0  0  0  0  0
   38.8750   27.9860   42.8290 N   0  0  0  0  0  0  0  0  0  0  0  0
   39.3040   26.9970   43.6760 C   0  0  0  0  0  0  0  0  0  0  0  0
   38.8450   26.4090   44.4820 H   0  0  0  0  0  0  0  0  0  0  0  0
   40.6040   26.6850   43.4510 N   0  0  0  0  0  0  0  0  0  0  0  0
   41.0220   27.4850   42.4430 C   0  0  0  0  0  0  0  0  0  0  0  0
   42.2340   27.6210   41.7900 C   0  0  0  0  0  0  0  0  0  0  0  0
   43.1020   27.0130   42.0560 H   0  0  0  0  0  0  0  0  0  0  0  0
   42.3350   28.5370   40.7960 N   0  0  0  0  0  0  0  0  0  0  0  0
   41.2360   29.2850   40.4830 C   0  0  0  0  0  0  0  0  0  0  0  0
   41.4510   29.9760   39.6750 H   0  0  0  0  0  0  0  0  0  0  0  0
   40.0550   29.1550   41.1150 N   0  0  0  0  0  0  0  0  0  0  0  0
   39.9400   28.2650   42.0880 C   0  0  0  0  0  0  0  0  0  0  0  0
   35.6430   28.4730   39.1330 C   0  0  0  0  0  0  0  0  0  0  0  0
   34.6330   28.9460   38.6990 O   0  0  0  0  0  0  0  0  0  0  0  0
   37.5640   29.3540   36.8820 Cl  0  0  0  0  0  0  0  0  0  0  0  0
   37.3390   30.2800   38.3530 C   0  0  0  0  0  0  0  0  0  0  0  0
   36.4100   29.7520   39.2850 C   0  0  0  0  0  0  0  0  0  0  0  0
   36.3210   30.5740   40.3860 C   0  0  0  0  0  0  0  0  0  0  0  0
   36.9400   31.7080   40.6800 C   0  0  0  0  0  0  0  0  0  0  0  0
   37.8250   32.1610   39.7340 C   0  0  0  0  0  0  0  0  0  0  0  0
   38.0330   31.4680   38.5770 C   0  0  0  0  0  0  0  0  0  0  0  0
   35.5930   30.2860   41.1820 H   0  0  0  0  0  0  0  0  0  0  0  0
   36.8020   32.2890   41.5890 H   0  0  0  0  0  0  0  0  0  0  0  0
   38.3650   33.1050   39.9360 H   0  0  0  0  0  0  0  0  0  0  0  0
   38.9350   32.0240   37.7100 O   0  0  0  0  0  0  0  0  0  0  0  0
   41.0940   32.0400   39.1930 O   0  0  0  0  0  0  0  0  0  0  0  0
   40.6260   32.0210   37.7590 P   0  0  0  0  0  0  0  0  0  0  0  0
   41.2090   30.6600   36.9360 O   0  0  0  0  0  0  0  0  0  0  0  0
   40.7700   29.8160   37.2050 H   0  0  0  0  0  0  0  0  0  0  0  0
   41.2720   33.3520   36.9280 O   0  0  0  0  0  0  0  0  0  0  0  0
   41.1470   34.1830   37.4390 H   0  0  0  0  0  0  0  0  0  0  0  0
  1  2  1  0  0  0  0
  2  3  2  0  0  0  0
  2  9  1  0  0  0  0
  3  7  1  0  0  0  0
  4  3  1  0  0  0  0
  5  4  2  0  0  0  0
  6  5  1  0  0  0  0
  6  1  2  0  0  0  0
  8  5  1  0  0  0  0
  9 12  1  6  0  0  0
  9 11  1  0  0  0  0
  9 10  1  0  0  0  0
 10 13  1  0  0  0  0
 10 14  1  0  0  0  0
 11 15  1  1  0  0  0
 11 10  1  0  0  0  0
 16 11  1  0  0  0  0
 16 17  1  0  0  0  0
 17 18  1  0  0  0  0
 19 17  2  0  0  0  0
 20 19  1  0  0  0  0
 21 22  1  0  0  0  0
 21 20  2  0  0  0  0
 23 21  1  0  0  0  0
 24 23  2  0  0  0  0
 24 26  1  0  0  0  0
 25 24  1  0  0  0  0
 26 27  2  0  0  0  0
 27 20  1  0  0  0  0
 27 16  1  0  0  0  0
 28 32  1  0  0  0  0
 28  1  1  0  0  0  0
 29 28  2  0  0  0  0
 30 31  1  0  0  0  0
 31 36  2  0  0  0  0
 31 32  1  0  0  0  0
 32 33  2  0  0  0  0
 33 34  1  0  0  0  0
 33 37  1  0  0  0  0
 34 38  1  0  0  0  0
 35 39  1  0  0  0  0
 35 34  2  0  0  0  0
 36 35  1  0  0  0  0
 40 42  1  0  0  0  0
 40 36  1  0  0  0  0
 42 41  2  0  0  0  0
 43 44  1  0  0  0  0
 43 42  1  0  0  0  0
 45 46  1  0  0  0  0
 45 42  1  0  0  0  0
M  END
>  <minimizedAffinity>
-6.32717276

$$$$

 OpenBabel03242523253D

 46 50  0  0  1  0  0  0  0  0999 V2000
   38.2400   28.1160   41.0470 C   0  0  0  0  0  0  0  0  0  0  0  0
   37.5930   27.3260   41.9010 C   0  0  0  0  0  0  0  0  0  0  0  0
   37.4980   27.8110   43.1810 C   0  0  0  0  0  0  0  0  0  0  0  0
   38.0800   29.0620   43.4690 N   0  0  0  0  0  0  0  0  0  0  0  0
   38.7070   29.7850   42.5750 C   0  0  0  0  0  0  0  0  0  0  0  0
   38.8190   29.3310   41.2780 N   0  0  0  0  0  0  0  0  0  0  0  0
   37.0250   27.3560   44.0360 H   0  0  0  0  0  0  0  0  0  0  0  0
   39.1100   30.7340   42.9380 H   0  0  0  0  0  0  0  0  0  0  0  0
   37.1030   26.0100   41.6490 C   0  0  1  0  0  0  0  0  0  0  0  0
   37.5300   25.1000   40.7310 C   0  0  0  0  0  0  0  0  0  0  0  0
   38.0090   24.8150   42.1290 C   0  0  1  0  0  0  0  0  0  0  0  0
   36.0340   25.9030   41.8840 H   0  0  0  0  0  0  0  0  0  0  0  0
   38.2480   25.4180   39.9320 H   0  0  0  0  0  0  0  0  0  0  0  0
   36.9550   24.2280   40.3050 H   0  0  0  0  0  0  0  0  0  0  0  0
   37.4830   24.0620   42.7240 H   0  0  0  0  0  0  0  0  0  0  0  0
   39.4080   25.0430   42.2740 N   0  0  0  0  0  0  0  0  0  0  0  0
   39.9290   25.3080   43.5140 C   0  0  0  0  0  0  0  0  0  0  0  0
   39.5180   25.3990   44.5280 H   0  0  0  0  0  0  0  0  0  0  0  0
   41.2700   25.4990   43.4550 N   0  0  0  0  0  0  0  0  0  0  0  0
   41.6210   25.3550   42.1560 C   0  0  0  0  0  0  0  0  0  0  0  0
   42.8330   25.4360   41.4940 C   0  0  0  0  0  0  0  0  0  0  0  0
   43.7630   25.6550   42.0220 H   0  0  0  0  0  0  0  0  0  0  0  0
   42.8540   25.2380   40.1530 N   0  0  0  0  0  0  0  0  0  0  0  0
   41.6770   24.9660   39.5150 C   0  0  0  0  0  0  0  0  0  0  0  0
   41.8320   24.8300   38.4500 H   0  0  0  0  0  0  0  0  0  0  0  0
   40.4950   24.8850   40.1550 N   0  0  0  0  0  0  0  0  0  0  0  0
   40.4590   25.0770   41.4650 C   0  0  0  0  0  0  0  0  0  0  0  0
   38.4150   27.8820   39.5960 C   0  0  0  0  0  0  0  0  0  0  0  0
   38.5770   27.1970   38.6280 O   0  0  0  0  0  0  0  0  0  0  0  0
   41.0450   29.0870   38.5170 Cl  0  0  0  0  0  0  0  0  0  0  0  0
   39.4980   29.8960   38.3630 C   0  0  0  0  0  0  0  0  0  0  0  0
   38.3790   29.2070   38.8960 C   0  0  0  0  0  0  0  0  0  0  0  0
   37.2310   29.9430   38.7030 C   0  0  0  0  0  0  0  0  0  0  0  0
   37.0380   31.1230   38.1340 C   0  0  0  0  0  0  0  0  0  0  0  0
   38.1630   31.7340   37.6400 C   0  0  0  0  0  0  0  0  0  0  0  0
   39.3870   31.1400   37.7440 C   0  0  0  0  0  0  0  0  0  0  0  0
   36.2700   29.4910   39.0480 H   0  0  0  0  0  0  0  0  0  0  0  0
   36.0800   31.6280   38.0320 H   0  0  0  0  0  0  0  0  0  0  0  0
   38.0490   32.7220   37.1560 H   0  0  0  0  0  0  0  0  0  0  0  0
   40.4310   31.8450   37.2090 O   0  0  0  0  0  0  0  0  0  0  0  0
   40.7210   33.7820   38.9490 O   0  0  0  0  0  0  0  0  0  0  0  0
   41.4790   32.9520   37.9440 P   0  0  0  0  0  0  0  0  0  0  0  0
   42.7590   32.1150   38.6740 O   0  0  0  0  0  0  0  0  0  0  0  0
   42.4660   31.3590   39.2390 H   0  0  0  0  0  0  0  0  0  0  0  0
   42.2100   33.9680   36.7980 O   0  0  0  0  0  0  0  0  0  0  0  0
   41.5710   34.6310   36.4530 H   0  0  0  0  0  0  0  0  0  0  0  0
  1  6  2  0  0  0  0
  1  2  1  0  0  0  0
  2  3  2  0  0  0  0
  3  4  1  0  0  0  0
  3  7  1  0  0  0  0
  5  8  1  0  0  0  0
  5  4  2  0  0  0  0
  6  5  1  0  0  0  0
  9 12  1  1  0  0  0
  9  2  1  0  0  0  0
  9 11  1  0  0  0  0
 10  9  1  0  0  0  0
 10 11  1  0  0  0  0
 11 16  1  0  0  0  0
 11 15  1  1  0  0  0
 13 10  1  0  0  0  0
 14 10  1  0  0  0  0
 16 17  1  0  0  0  0
 17 18  1  0  0  0  0
 19 17  2  0  0  0  0
 20 19  1  0  0  0  0
 21 22  1  0  0  0  0
 21 20  1  0  0  0  0
 23 21  2  0  0  0  0
 24 23  1  0  0  0  0
 24 26  2  0  0  0  0
 25 24  1  0  0  0  0
 26 27  1  0  0  0  0
 27 20  2  0  0  0  0
 27 16  1  0  0  0  0
 28  1  1  0  0  0  0
 29 28  2  0  0  0  0
 31 30  1  0  0  0  0
 31 32  1  0  0  0  0
 32 28  1  0  0  0  0
 33 32  2  0  0  0  0
 33 37  1  0  0  0  0
 34 33  1  0  0  0  0
 35 36  1  0  0  0  0
 35 34  2  0  0  0  0
 36 31  2  0  0  0  0
 38 34  1  0  0  0  0
 39 35  1  0  0  0  0
 40 36  1  0  0  0  0
 40 42  1  0  0  0  0
 42 43  1  0  0  0  0
 42 41  2  0  0  0  0
 43 44  1  0  0  0  0
 45 42  1  0  0  0  0
 46 45  1  0  0  0  0
M  END
>  <minimizedAffinity>
-6.2172637

$$$$

 OpenBabel03242523253D

 46 50  0  0  1  0  0  0  0  0999 V2000
   38.1040   29.9250   41.3460 C   0  0  0  0  0  0  0  0  0  0  0  0
   37.2970   28.9820   41.8270 C   0  0  0  0  0  0  0  0  0  0  0  0
   36.4040   28.4660   40.9220 C   0  0  0  0  0  0  0  0  0  0  0  0
   36.4190   28.9680   39.6050 N   0  0  0  0  0  0  0  0  0  0  0  0
   37.2430   29.9030   39.2020 C   0  0  0  0  0  0  0  0  0  0  0  0
   38.1560   30.4430   40.0830 N   0  0  0  0  0  0  0  0  0  0  0  0
   35.6610   27.7020   41.0760 H   0  0  0  0  0  0  0  0  0  0  0  0
   37.1430   30.1970   38.1540 H   0  0  0  0  0  0  0  0  0  0  0  0
   37.1960   28.5500   43.1840 C   0  0  1  0  0  0  0  0  0  0  0  0
   36.6330   27.4130   43.6780 C   0  0  0  0  0  0  0  0  0  0  0  0
   38.1370   27.3640   43.6190 C   0  0  1  0  0  0  0  0  0  0  0  0
   37.1490   29.3870   43.8940 H   0  0  0  0  0  0  0  0  0  0  0  0
   36.0120   26.7680   43.0060 H   0  0  0  0  0  0  0  0  0  0  0  0
   36.2550   27.2300   44.7240 H   0  0  0  0  0  0  0  0  0  0  0  0
   38.7070   27.5550   44.5330 H   0  0  0  0  0  0  0  0  0  0  0  0
   38.6060   26.4700   42.6150 N   0  0  0  0  0  0  0  0  0  0  0  0
   39.9090   26.5420   42.1940 C   0  0  0  0  0  0  0  0  0  0  0  0
   40.7760   27.1650   42.4500 H   0  0  0  0  0  0  0  0  0  0  0  0
   40.1700   25.6170   41.2370 N   0  0  0  0  0  0  0  0  0  0  0  0
   39.0180   24.9370   41.0360 C   0  0  0  0  0  0  0  0  0  0  0  0
   38.6750   23.8940   40.1940 C   0  0  0  0  0  0  0  0  0  0  0  0
   39.3970   23.4470   39.5080 H   0  0  0  0  0  0  0  0  0  0  0  0
   37.4040   23.4230   40.2310 N   0  0  0  0  0  0  0  0  0  0  0  0
   36.5190   23.9990   41.0970 C   0  0  0  0  0  0  0  0  0  0  0  0
   35.5420   23.5310   41.0260 H   0  0  0  0  0  0  0  0  0  0  0  0
   36.8480   25.0130   41.9180 N   0  0  0  0  0  0  0  0  0  0  0  0
   38.0850   25.4840   41.8950 C   0  0  0  0  0  0  0  0  0  0  0  0
   39.2100   30.5870   42.0740 C   0  0  0  0  0  0  0  0  0  0  0  0
   39.6850   31.1910   42.9920 O   0  0  0  0  0  0  0  0  0  0  0  0
   40.1760   33.0310   40.4530 Cl  0  0  0  0  0  0  0  0  0  0  0  0
   41.0160   31.4920   40.4390 C   0  0  0  0  0  0  0  0  0  0  0  0
   40.4560   30.4710   41.2480 C   0  0  0  0  0  0  0  0  0  0  0  0
   41.2100   29.3230   41.1550 C   0  0  0  0  0  0  0  0  0  0  0  0
   42.3070   29.0550   40.4620 C   0  0  0  0  0  0  0  0  0  0  0  0
   42.7940   30.0870   39.7000 C   0  0  0  0  0  0  0  0  0  0  0  0
   42.1680   31.3000   39.6790 C   0  0  0  0  0  0  0  0  0  0  0  0
   40.8940   28.4510   41.7750 H   0  0  0  0  0  0  0  0  0  0  0  0
   42.8340   28.1030   40.4520 H   0  0  0  0  0  0  0  0  0  0  0  0
   43.7080   29.9090   39.1040 H   0  0  0  0  0  0  0  0  0  0  0  0
   42.7520   32.2510   38.8870 O   0  0  0  0  0  0  0  0  0  0  0  0
   41.1220   32.2920   36.8370 O   0  0  0  0  0  0  0  0  0  0  0  0
   42.5540   32.5540   37.2340 P   0  0  0  0  0  0  0  0  0  0  0  0
   43.0050   34.1520   36.8970 O   0  0  0  0  0  0  0  0  0  0  0  0
   42.6000   34.8150   37.5080 H   0  0  0  0  0  0  0  0  0  0  0  0
   43.5930   31.5930   36.2990 O   0  0  0  0  0  0  0  0  0  0  0  0
   43.2880   30.6580   36.2780 H   0  0  0  0  0  0  0  0  0  0  0  0
  1  2  1  0  0  0  0
  1 28  1  0  0  0  0
  2  9  1  0  0  0  0
  3  7  1  0  0  0  0
  3  2  2  0  0  0  0
  4  3  1  0  0  0  0
  5  4  2  0  0  0  0
  5  6  1  0  0  0  0
  6  1  2  0  0  0  0
  8  5  1  0  0  0  0
  9 11  1  0  0  0  0
  9 10  1  0  0  0  0
  9 12  1  1  0  0  0
 10 14  1  0  0  0  0
 11 10  1  0  0  0  0
 11 15  1  1  0  0  0
 13 10  1  0  0  0  0
 16 11  1  0  0  0  0
 17 18  1  0  0  0  0
 17 16  1  0  0  0  0
 19 17  2  0  0  0  0
 20 19  1  0  0  0  0
 20 27  1  0  0  0  0
 21 23  1  0  0  0  0
 21 20  2  0  0  0  0
 22 21  1  0  0  0  0
 23 24  2  0  0  0  0
 24 26  1  0  0  0  0
 25 24  1  0  0  0  0
 27 26  2  0  0  0  0
 27 16  1  0  0  0  0
 28 29  2  0  0  0  0
 31 30  1  0  0  0  0
 31 32  1  0  0  0  0
 32 28  1  0  0  0  0
 33 32  2  0  0  0  0
 33 37  1  0  0  0  0
 34 33  1  0  0  0  0
 35 34  2  0  0  0  0
 36 35  1  0  0  0  0
 36 31  2  0  0  0  0
 38 34  1  0  0  0  0
 39 35  1  0  0  0  0
 40 36  1  0  0  0  0
 41 42  2  0  0  0  0
 42 40  1  0  0  0  0
 43 42  1  0  0  0  0
 43 44  1  0  0  0  0
 45 42  1  0  0  0  0
 46 45  1  0  0  0  0
M  END
>  <minimizedAffinity>
-6.21451807

$$$$

 OpenBabel03242523253D

 46 50  0  0  1  0  0  0  0  0999 V2000
   36.4560   27.0490   40.0410 C   0  0  0  0  0  0  0  0  0  0  0  0
   36.8840   26.9440   41.2970 C   0  0  0  0  0  0  0  0  0  0  0  0
   37.5220   25.7670   41.5950 C   0  0  0  0  0  0  0  0  0  0  0  0
   37.6600   24.8020   40.5770 N   0  0  0  0  0  0  0  0  0  0  0  0
   37.2090   24.9740   39.3600 C   0  0  0  0  0  0  0  0  0  0  0  0
   36.5650   26.1450   39.0230 N   0  0  0  0  0  0  0  0  0  0  0  0
   37.9510   25.4570   42.5340 H   0  0  0  0  0  0  0  0  0  0  0  0
   37.3840   24.1410   38.6730 H   0  0  0  0  0  0  0  0  0  0  0  0
   36.6490   27.8640   42.3630 C   0  0  1  0  0  0  0  0  0  0  0  0
   36.9750   27.7480   43.6790 C   0  0  0  0  0  0  0  0  0  0  0  0
   37.9010   28.6490   42.9060 C   0  0  1  0  0  0  0  0  0  0  0  0
   35.7510   28.4780   42.2030 H   0  0  0  0  0  0  0  0  0  0  0  0
   37.3330   26.7620   44.0730 H   0  0  0  0  0  0  0  0  0  0  0  0
   36.5110   28.2840   44.5550 H   0  0  0  0  0  0  0  0  0  0  0  0
   37.7590   29.7320   42.9720 H   0  0  0  0  0  0  0  0  0  0  0  0
   39.1910   28.0710   42.7300 N   0  0  0  0  0  0  0  0  0  0  0  0
   39.6870   27.2160   43.6790 C   0  0  0  0  0  0  0  0  0  0  0  0
   39.3220   26.8140   44.6340 H   0  0  0  0  0  0  0  0  0  0  0  0
   40.9230   26.7700   43.3430 N   0  0  0  0  0  0  0  0  0  0  0  0
   41.2300   27.3460   42.1570 C   0  0  0  0  0  0  0  0  0  0  0  0
   42.3390   27.2720   41.3330 C   0  0  0  0  0  0  0  0  0  0  0  0
   43.2030   26.6560   41.5870 H   0  0  0  0  0  0  0  0  0  0  0  0
   42.3400   27.9900   40.1830 N   0  0  0  0  0  0  0  0  0  0  0  0
   41.2470   28.7540   39.8890 C   0  0  0  0  0  0  0  0  0  0  0  0
   41.3770   29.2750   38.9460 H   0  0  0  0  0  0  0  0  0  0  0  0
   40.1660   28.8290   40.6880 N   0  0  0  0  0  0  0  0  0  0  0  0
   40.1490   28.1330   41.8140 C   0  0  0  0  0  0  0  0  0  0  0  0
   35.8160   28.2350   39.4290 C   0  0  0  0  0  0  0  0  0  0  0  0
   34.8780   28.9040   39.1020 O   0  0  0  0  0  0  0  0  0  0  0  0
   36.2320   30.9950   40.7490 Cl  0  0  0  0  0  0  0  0  0  0  0  0
   37.1950   30.4360   39.3950 C   0  0  0  0  0  0  0  0  0  0  0  0
   36.8930   29.1390   38.9090 C   0  0  0  0  0  0  0  0  0  0  0  0
   37.7220   28.8200   37.8570 C   0  0  0  0  0  0  0  0  0  0  0  0
   38.6920   29.5060   37.2730 C   0  0  0  0  0  0  0  0  0  0  0  0
   38.9310   30.7540   37.7920 C   0  0  0  0  0  0  0  0  0  0  0  0
   38.2000   31.2280   38.8430 C   0  0  0  0  0  0  0  0  0  0  0  0
   37.6090   27.8050   37.4070 H   0  0  0  0  0  0  0  0  0  0  0  0
   39.2960   29.1640   36.4350 H   0  0  0  0  0  0  0  0  0  0  0  0
   39.7320   31.3640   37.3360 H   0  0  0  0  0  0  0  0  0  0  0  0
   38.5360   32.4830   39.2760 O   0  0  0  0  0  0  0  0  0  0  0  0
   40.8330   33.4510   40.0820 O   0  0  0  0  0  0  0  0  0  0  0  0
   39.5000   32.9550   40.5840 P   0  0  0  0  0  0  0  0  0  0  0  0
   38.6920   34.1470   41.4760 O   0  0  0  0  0  0  0  0  0  0  0  0
   38.3320   34.8810   40.9200 H   0  0  0  0  0  0  0  0  0  0  0  0
   39.7380   31.6740   41.6710 O   0  0  0  0  0  0  0  0  0  0  0  0
   40.3650   31.0100   41.3050 H   0  0  0  0  0  0  0  0  0  0  0  0
  1  2  1  0  0  0  0
  2  3  2  0  0  0  0
  2  9  1  0  0  0  0
  3  7  1  0  0  0  0
  4  3  1  0  0  0  0
  5  4  2  0  0  0  0
  6  5  1  0  0  0  0
  6  1  2  0  0  0  0
  8  5  1  0  0  0  0
  9 12  1  6  0  0  0
  9 11  1  0  0  0  0
  9 10  1  0  0  0  0
 10 13  1  0  0  0  0
 10 14  1  0  0  0  0
 11 15  1  1  0  0  0
 11 10  1  0  0  0  0
 16 11  1  0  0  0  0
 16 17  1  0  0  0  0
 17 18  1  0  0  0  0
 19 17  2  0  0  0  0
 20 19  1  0  0  0  0
 21 22  1  0  0  0  0
 21 20  2  0  0  0  0
 23 21  1  0  0  0  0
 24 23  2  0  0  0  0
 24 26  1  0  0  0  0
 25 24  1  0  0  0  0
 26 27  2  0  0  0  0
 27 20  1  0  0  0  0
 27 16  1  0  0  0  0
 28  1  1  0  0  0  0
 29 28  2  0  0  0  0
 31 30  1  0  0  0  0
 32 31  1  0  0  0  0
 32 28  1  0  0  0  0
 33 32  2  0  0  0  0
 34 35  2  0  0  0  0
 34 33  1  0  0  0  0
 35 36  1  0  0  0  0
 36 40  1  0  0  0  0
 36 31  2  0  0  0  0
 37 33  1  0  0  0  0
 38 34  1  0  0  0  0
 39 35  1  0  0  0  0
 40 42  1  0  0  0  0
 41 42  2  0  0  0  0
 42 43  1  0  0  0  0
 42 45  1  0  0  0  0
 44 43  1  0  0  0  0
 46 45  1  0  0  0  0
M  END
>  <minimizedAffinity>
-6.11428356

$$$$

 OpenBabel03242523253D

 46 50  0  0  1  0  0  0  0  0999 V2000
   38.2540   27.9780   40.4210 C   0  0  0  0  0  0  0  0  0  0  0  0
   37.4480   26.9650   40.7300 C   0  0  0  0  0  0  0  0  0  0  0  0
   36.4960   26.6730   39.7860 C   0  0  0  0  0  0  0  0  0  0  0  0
   36.4560   27.4510   38.6110 N   0  0  0  0  0  0  0  0  0  0  0  0
   37.2820   28.4390   38.3760 C   0  0  0  0  0  0  0  0  0  0  0  0
   38.2530   28.7600   39.3010 N   0  0  0  0  0  0  0  0  0  0  0  0
   35.7420   25.9040   39.8110 H   0  0  0  0  0  0  0  0  0  0  0  0
   37.1350   28.9580   37.4250 H   0  0  0  0  0  0  0  0  0  0  0  0
   37.4060   26.2470   41.9630 C   0  0  1  0  0  0  0  0  0  0  0  0
   36.8850   25.0160   42.2170 C   0  0  0  0  0  0  0  0  0  0  0  0
   38.3860   25.0220   42.1000 C   0  0  1  0  0  0  0  0  0  0  0  0
   37.3690   26.9100   42.8380 H   0  0  0  0  0  0  0  0  0  0  0  0
   36.2510   24.5140   41.4410 H   0  0  0  0  0  0  0  0  0  0  0  0
   36.5490   24.6010   43.2100 H   0  0  0  0  0  0  0  0  0  0  0  0
   38.9850   25.0260   43.0150 H   0  0  0  0  0  0  0  0  0  0  0  0
   38.8340   24.3780   40.9110 N   0  0  0  0  0  0  0  0  0  0  0  0
   38.1160   23.3310   40.3930 C   0  0  0  0  0  0  0  0  0  0  0  0
   37.1950   22.8030   40.6740 H   0  0  0  0  0  0  0  0  0  0  0  0
   38.6950   22.8460   39.2670 N   0  0  0  0  0  0  0  0  0  0  0  0
   39.8050   23.5910   39.0540 C   0  0  0  0  0  0  0  0  0  0  0  0
   40.7820   23.5660   38.0750 C   0  0  0  0  0  0  0  0  0  0  0  0
   40.7590   22.8430   37.2580 H   0  0  0  0  0  0  0  0  0  0  0  0
   41.7920   24.4690   38.1450 N   0  0  0  0  0  0  0  0  0  0  0  0
   41.7990   25.3620   39.1770 C   0  0  0  0  0  0  0  0  0  0  0  0
   42.6560   26.0240   39.1150 H   0  0  0  0  0  0  0  0  0  0  0  0
   40.8490   25.3910   40.1310 N   0  0  0  0  0  0  0  0  0  0  0  0
   39.8570   24.5160   40.0770 C   0  0  0  0  0  0  0  0  0  0  0  0
   39.4120   28.4500   41.2120 C   0  0  0  0  0  0  0  0  0  0  0  0
   40.3030   28.3170   42.0010 O   0  0  0  0  0  0  0  0  0  0  0  0
   41.6540   29.1900   39.2230 Cl  0  0  0  0  0  0  0  0  0  0  0  0
   40.6490   30.3920   40.0090 C   0  0  0  0  0  0  0  0  0  0  0  0
   39.6520   29.8930   40.8850 C   0  0  0  0  0  0  0  0  0  0  0  0
   38.9320   30.9330   41.4280 C   0  0  0  0  0  0  0  0  0  0  0  0
   39.0330   32.2430   41.2630 C   0  0  0  0  0  0  0  0  0  0  0  0
   40.0190   32.6570   40.4030 C   0  0  0  0  0  0  0  0  0  0  0  0
   40.8260   31.7540   39.7730 C   0  0  0  0  0  0  0  0  0  0  0  0
   38.0890   30.6700   42.1110 H   0  0  0  0  0  0  0  0  0  0  0  0
   38.4100   32.9930   41.7450 H   0  0  0  0  0  0  0  0  0  0  0  0
   40.1410   33.7430   40.2340 H   0  0  0  0  0  0  0  0  0  0  0  0
   41.7680   32.2890   38.9360 O   0  0  0  0  0  0  0  0  0  0  0  0
   42.5710   31.4120   36.6020 O   0  0  0  0  0  0  0  0  0  0  0  0
   41.7350   32.4840   37.2550 P   0  0  0  0  0  0  0  0  0  0  0  0
   40.1300   32.4320   36.7140 O   0  0  0  0  0  0  0  0  0  0  0  0
   39.6180   31.6640   37.0680 H   0  0  0  0  0  0  0  0  0  0  0  0
   42.3080   34.0140   36.7990 O   0  0  0  0  0  0  0  0  0  0  0  0
   43.2850   34.0720   36.8990 H   0  0  0  0  0  0  0  0  0  0  0  0
  1  2  1  0  0  0  0
  1 28  1  0  0  0  0
  2  9  1  0  0  0  0
  3  7  1  0  0  0  0
  3  2  2  0  0  0  0
  4  3  1  0  0  0  0
  5  4  2  0  0  0  0
  5  6  1  0  0  0  0
  6  1  2  0  0  0  0
  8  5  1  0  0  0  0
  9 11  1  0  0  0  0
  9 10  1  0  0  0  0
  9 12  1  1  0  0  0
 10 14  1  0  0  0  0
 11 10  1  0  0  0  0
 11 15  1  1  0  0  0
 13 10  1  0  0  0  0
 16 11  1  0  0  0  0
 17 18  1  0  0  0  0
 17 16  1  0  0  0  0
 19 17  2  0  0  0  0
 20 19  1  0  0  0  0
 20 27  1  0  0  0  0
 21 23  1  0  0  0  0
 21 20  2  0  0  0  0
 22 21  1  0  0  0  0
 23 24  2  0  0  0  0
 24 26  1  0  0  0  0
 25 24  1  0  0  0  0
 27 26  2  0  0  0  0
 27 16  1  0  0  0  0
 28 29  2  0  0  0  0
 30 31  1  0  0  0  0
 31 32  1  0  0  0  0
 32 28  1  0  0  0  0
 32 33  2  0  0  0  0
 33 37  1  0  0  0  0
 34 33  1  0  0  0  0
 34 38  1  0  0  0  0
 35 34  2  0  0  0  0
 36 31  2  0  0  0  0
 36 35  1  0  0  0  0
 39 35  1  0  0  0  0
 40 36  1  0  0  0  0
 41 42  2  0  0  0  0
 42 40  1  0  0  0  0
 43 44  1  0  0  0  0
 43 42  1  0  0  0  0
 45 46  1  0  0  0  0
 45 42  1  0  0  0  0
M  END
>  <minimizedAffinity>
-6.01259708

$$$$

 OpenBabel03242523253D

 46 50  0  0  1  0  0  0  0  0999 V2000
   38.0540   26.0780   42.0110 C   0  0  0  0  0  0  0  0  0  0  0  0
   39.3550   26.1250   42.2880 C   0  0  0  0  0  0  0  0  0  0  0  0
   40.1330   25.2540   41.5680 C   0  0  0  0  0  0  0  0  0  0  0  0
   39.5040   24.4100   40.6300 N   0  0  0  0  0  0  0  0  0  0  0  0
   38.2130   24.4170   40.4120 C   0  0  0  0  0  0  0  0  0  0  0  0
   37.4000   25.2800   41.1150 N   0  0  0  0  0  0  0  0  0  0  0  0
   41.2010   25.1130   41.6160 H   0  0  0  0  0  0  0  0  0  0  0  0
   37.8610   23.7090   39.6570 H   0  0  0  0  0  0  0  0  0  0  0  0
   39.9860   26.8900   43.3140 C   0  0  1  0  0  0  0  0  0  0  0  0
   41.2970   26.9130   43.6800 C   0  0  0  0  0  0  0  0  0  0  0  0
   40.8840   28.0960   42.8440 C   0  0  1  0  0  0  0  0  0  0  0  0
   39.3110   27.1160   44.1510 H   0  0  0  0  0  0  0  0  0  0  0  0
   41.9970   26.1390   43.2710 H   0  0  0  0  0  0  0  0  0  0  0  0
   41.7320   27.2360   44.6680 H   0  0  0  0  0  0  0  0  0  0  0  0
   40.6640   29.0430   43.3450 H   0  0  0  0  0  0  0  0  0  0  0  0
   41.4460   28.0510   41.5360 N   0  0  0  0  0  0  0  0  0  0  0  0
   42.7140   27.5630   41.3570 C   0  0  0  0  0  0  0  0  0  0  0  0
   43.4920   27.1540   42.0160 H   0  0  0  0  0  0  0  0  0  0  0  0
   43.0770   27.6010   40.0510 N   0  0  0  0  0  0  0  0  0  0  0  0
   42.0260   28.1210   39.3750 C   0  0  0  0  0  0  0  0  0  0  0  0
   41.8120   28.3980   38.0370 C   0  0  0  0  0  0  0  0  0  0  0  0
   42.5720   28.1990   37.2790 H   0  0  0  0  0  0  0  0  0  0  0  0
   40.6210   28.9340   37.6690 N   0  0  0  0  0  0  0  0  0  0  0  0
   39.6870   29.1750   38.6360 C   0  0  0  0  0  0  0  0  0  0  0  0
   38.7850   29.6020   38.2100 H   0  0  0  0  0  0  0  0  0  0  0  0
   39.8920   28.9060   39.9390 N   0  0  0  0  0  0  0  0  0  0  0  0
   41.0490   28.3840   40.3140 C   0  0  0  0  0  0  0  0  0  0  0  0
   37.0050   26.9580   42.5730 C   0  0  0  0  0  0  0  0  0  0  0  0
   36.1990   27.2810   43.3960 O   0  0  0  0  0  0  0  0  0  0  0  0
   38.0560   29.7630   43.3200 Cl  0  0  0  0  0  0  0  0  0  0  0  0
   37.1910   29.4400   41.8300 C   0  0  0  0  0  0  0  0  0  0  0  0
   36.7860   28.0970   41.6240 C   0  0  0  0  0  0  0  0  0  0  0  0
   36.1280   27.9780   40.4200 C   0  0  0  0  0  0  0  0  0  0  0  0
   35.8360   28.8780   39.4940 C   0  0  0  0  0  0  0  0  0  0  0  0
   36.2560   30.1580   39.7580 C   0  0  0  0  0  0  0  0  0  0  0  0
   36.9290   30.4530   40.9080 C   0  0  0  0  0  0  0  0  0  0  0  0
   35.7880   26.9580   40.1220 H   0  0  0  0  0  0  0  0  0  0  0  0
   35.3030   28.6840   38.5660 H   0  0  0  0  0  0  0  0  0  0  0  0
   36.0340   30.9440   39.0120 H   0  0  0  0  0  0  0  0  0  0  0  0
   37.3010   31.7610   41.0550 O   0  0  0  0  0  0  0  0  0  0  0  0
   38.9020   32.6440   39.1790 O   0  0  0  0  0  0  0  0  0  0  0  0
   38.7650   32.5200   40.6760 P   0  0  0  0  0  0  0  0  0  0  0  0
   38.8250   34.0360   41.4300 O   0  0  0  0  0  0  0  0  0  0  0  0
   38.0110   34.5790   41.2910 H   0  0  0  0  0  0  0  0  0  0  0  0
   40.0870   31.6610   41.3020 O   0  0  0  0  0  0  0  0  0  0  0  0
   40.2510   30.8380   40.7880 H   0  0  0  0  0  0  0  0  0  0  0  0
  1  2  1  0  0  0  0
  1 28  1  0  0  0  0
  2  9  1  0  0  0  0
  3  7  1  0  0  0  0
  3  2  2  0  0  0  0
  4  3  1  0  0  0  0
  5  4  2  0  0  0  0
  5  6  1  0  0  0  0
  6  1  2  0  0  0  0
  8  5  1  0  0  0  0
  9 10  1  0  0  0  0
  9 12  1  1  0  0  0
 10 14  1  0  0  0  0
 11  9  1  0  0  0  0
 11 15  1  1  0  0  0
 11 10  1  0  0  0  0
 13 10  1  0  0  0  0
 16 11  1  0  0  0  0
 17 16  1  0  0  0  0
 17 18  1  0  0  0  0
 19 17  2  0  0  0  0
 20 19  1  0  0  0  0
 20 27  1  0  0  0  0
 21 20  2  0  0  0  0
 22 21  1  0  0  0  0
 23 21  1  0  0  0  0
 23 24  2  0  0  0  0
 24 26  1  0  0  0  0
 25 24  1  0  0  0  0
 26 27  2  0  0  0  0
 27 16  1  0  0  0  0
 28 29  2  0  0  0  0
 31 30  1  0  0  0  0
 32 31  1  0  0  0  0
 32 28  1  0  0  0  0
 33 32  2  0  0  0  0
 34 35  2  0  0  0  0
 34 33  1  0  0  0  0
 35 36  1  0  0  0  0
 36 40  1  0  0  0  0
 36 31  2  0  0  0  0
 37 33  1  0  0  0  0
 38 34  1  0  0  0  0
 39 35  1  0  0  0  0
 41 42  2  0  0  0  0
 42 40  1  0  0  0  0
 42 45  1  0  0  0  0
 42 43  1  0  0  0  0
 44 43  1  0  0  0  0
 46 45  1  0  0  0  0
M  END
>  <minimizedAffinity>
-5.8277874

$$$$

 OpenBabel03242523253D

 46 50  0  0  1  0  0  0  0  0999 V2000
   38.5740   30.1900   40.4980 C   0  0  0  0  0  0  0  0  0  0  0  0
   38.8370   30.0040   39.2070 C   0  0  0  0  0  0  0  0  0  0  0  0
   38.0790   30.7570   38.3470 C   0  0  0  0  0  0  0  0  0  0  0  0
   37.1170   31.6320   38.8900 N   0  0  0  0  0  0  0  0  0  0  0  0
   36.9110   31.7610   40.1770 C   0  0  0  0  0  0  0  0  0  0  0  0
   37.6550   31.0220   41.0710 N   0  0  0  0  0  0  0  0  0  0  0  0
   38.1120   30.7790   37.2690 H   0  0  0  0  0  0  0  0  0  0  0  0
   36.1320   32.4750   40.4570 H   0  0  0  0  0  0  0  0  0  0  0  0
   39.7260   29.0390   38.6430 C   0  0  1  0  0  0  0  0  0  0  0  0
   40.2970   29.0230   37.4080 C   0  0  0  0  0  0  0  0  0  0  0  0
   41.2340   29.4690   38.5000 C   0  0  1  0  0  0  0  0  0  0  0  0
   39.5690   28.0300   39.0490 H   0  0  0  0  0  0  0  0  0  0  0  0
   39.9430   29.7440   36.6270 H   0  0  0  0  0  0  0  0  0  0  0  0
   40.7070   28.1340   36.8490 H   0  0  0  0  0  0  0  0  0  0  0  0
   41.9480   28.7480   38.9080 H   0  0  0  0  0  0  0  0  0  0  0  0
   41.5370   30.8580   38.4140 N   0  0  0  0  0  0  0  0  0  0  0  0
   41.5310   31.4810   37.1920 C   0  0  0  0  0  0  0  0  0  0  0  0
   41.3340   31.1660   36.1590 H   0  0  0  0  0  0  0  0  0  0  0  0
   41.8430   32.7950   37.3080 N   0  0  0  0  0  0  0  0  0  0  0  0
   42.0540   33.0250   38.6250 C   0  0  0  0  0  0  0  0  0  0  0  0
   42.3980   34.1590   39.3390 C   0  0  0  0  0  0  0  0  0  0  0  0
   42.5580   35.1210   38.8480 H   0  0  0  0  0  0  0  0  0  0  0  0
   42.5390   34.0600   40.6840 N   0  0  0  0  0  0  0  0  0  0  0  0
   42.3350   32.8460   41.2740 C   0  0  0  0  0  0  0  0  0  0  0  0
   42.4790   32.9040   42.3470 H   0  0  0  0  0  0  0  0  0  0  0  0
   41.9990   31.7400   40.5830 N   0  0  0  0  0  0  0  0  0  0  0  0
   41.8580   31.8210   39.2690 C   0  0  0  0  0  0  0  0  0  0  0  0
   39.2930   29.5770   41.6380 C   0  0  0  0  0  0  0  0  0  0  0  0
   40.1830   29.5020   42.4340 O   0  0  0  0  0  0  0  0  0  0  0  0
   40.2990   26.7670   40.8450 Cl  0  0  0  0  0  0  0  0  0  0  0  0
   38.8460   27.0220   41.7920 C   0  0  0  0  0  0  0  0  0  0  0  0
   38.5240   28.3700   42.0870 C   0  0  0  0  0  0  0  0  0  0  0  0
   37.3720   28.4310   42.8390 C   0  0  0  0  0  0  0  0  0  0  0  0
   36.5740   27.4740   43.2900 C   0  0  0  0  0  0  0  0  0  0  0  0
   36.9440   26.1930   42.9660 C   0  0  0  0  0  0  0  0  0  0  0  0
   38.0660   25.9520   42.2270 C   0  0  0  0  0  0  0  0  0  0  0  0
   37.0290   29.4400   43.1690 H   0  0  0  0  0  0  0  0  0  0  0  0
   35.6740   27.6260   43.8810 H   0  0  0  0  0  0  0  0  0  0  0  0
   36.3080   25.3610   43.3220 H   0  0  0  0  0  0  0  0  0  0  0  0
   38.3340   24.6330   41.9750 O   0  0  0  0  0  0  0  0  0  0  0  0
   36.3920   23.9160   40.3690 O   0  0  0  0  0  0  0  0  0  0  0  0
   37.8460   23.6580   40.6810 P   0  0  0  0  0  0  0  0  0  0  0  0
   38.8300   23.9710   39.3390 O   0  0  0  0  0  0  0  0  0  0  0  0
   38.9320   24.9340   39.1380 H   0  0  0  0  0  0  0  0  0  0  0  0
   38.0740   22.0130   41.0250 O   0  0  0  0  0  0  0  0  0  0  0  0
   37.4050   21.6880   41.6680 H   0  0  0  0  0  0  0  0  0  0  0  0
  1  6  1  0  0  0  0
  1 28  1  0  0  0  0
  2  1  2  0  0  0  0
  3  4  2  0  0  0  0
  3  2  1  0  0  0  0
  4  5  1  0  0  0  0
  5  8  1  0  0  0  0
  5  6  2  0  0  0  0
  7  3  1  0  0  0  0
  9 12  1  1  0  0  0
  9  2  1  0  0  0  0
 10 11  1  0  0  0  0
 10  9  1  0  0  0  0
 11  9  1  0  0  0  0
 11 15  1  1  0  0  0
 13 10  1  0  0  0  0
 14 10  1  0  0  0  0
 16 11  1  0  0  0  0
 16 27  1  0  0  0  0
 17 19  2  0  0  0  0
 17 16  1  0  0  0  0
 18 17  1  0  0  0  0
 19 20  1  0  0  0  0
 20 27  2  0  0  0  0
 20 21  1  0  0  0  0
 21 23  2  0  0  0  0
 22 21  1  0  0  0  0
 23 24  1  0  0  0  0
 24 25  1  0  0  0  0
 26 24  2  0  0  0  0
 27 26  1  0  0  0  0
 28 32  1  0  0  0  0
 28 29  2  0  0  0  0
 30 31  1  0  0  0  0
 31 32  2  0  0  0  0
 31 36  1  0  0  0  0
 32 33  1  0  0  0  0
 33 37  1  0  0  0  0
 33 34  2  0  0  0  0
 34 38  1  0  0  0  0
 35 34  1  0  0  0  0
 35 39  1  0  0  0  0
 36 35  2  0  0  0  0
 40 36  1  0  0  0  0
 41 42  2  0  0  0  0
 42 45  1  0  0  0  0
 42 40  1  0  0  0  0
 43 42  1  0  0  0  0
 44 43  1  0  0  0  0
 45 46  1  0  0  0  0
M  END
>  <minimizedAffinity>
-5.81151867

$$$$

 OpenBabel03242523253D

 46 50  0  0  1  0  0  0  0  0999 V2000
   37.1230   30.5510   39.8150 C   0  0  0  0  0  0  0  0  0  0  0  0
   38.0400   30.2440   38.9010 C   0  0  0  0  0  0  0  0  0  0  0  0
   38.9640   31.2280   38.6530 C   0  0  0  0  0  0  0  0  0  0  0  0
   38.8600   32.4400   39.3650 N   0  0  0  0  0  0  0  0  0  0  0  0
   37.9250   32.6730   40.2520 C   0  0  0  0  0  0  0  0  0  0  0  0
   36.9820   31.7080   40.5280 N   0  0  0  0  0  0  0  0  0  0  0  0
   39.7930   31.2100   37.9640 H   0  0  0  0  0  0  0  0  0  0  0  0
   37.9650   33.6570   40.7270 H   0  0  0  0  0  0  0  0  0  0  0  0
   38.0860   29.0680   38.0930 C   0  0  1  0  0  0  0  0  0  0  0  0
   38.9240   28.7710   37.0630 C   0  0  0  0  0  0  0  0  0  0  0  0
   39.2850   28.0810   38.3510 C   0  0  1  0  0  0  0  0  0  0  0  0
   37.1030   28.5860   37.9900 H   0  0  0  0  0  0  0  0  0  0  0  0
   39.5810   29.5730   36.6380 H   0  0  0  0  0  0  0  0  0  0  0  0
   38.7570   28.0310   36.2290 H   0  0  0  0  0  0  0  0  0  0  0  0
   38.9860   27.0380   38.4910 H   0  0  0  0  0  0  0  0  0  0  0  0
   40.4800   28.6030   38.9240 N   0  0  0  0  0  0  0  0  0  0  0  0
   41.4760   29.0720   38.1070 C   0  0  0  0  0  0  0  0  0  0  0  0
   41.6150   29.1640   37.0220 H   0  0  0  0  0  0  0  0  0  0  0  0
   42.5320   29.5250   38.8290 N   0  0  0  0  0  0  0  0  0  0  0  0
   42.2120   29.3460   40.1310 C   0  0  0  0  0  0  0  0  0  0  0  0
   42.8840   29.6140   41.3110 C   0  0  0  0  0  0  0  0  0  0  0  0
   43.8800   30.0590   41.3160 H   0  0  0  0  0  0  0  0  0  0  0  0
   42.2770   29.3090   42.4850 N   0  0  0  0  0  0  0  0  0  0  0  0
   41.0310   28.7510   42.4510 C   0  0  0  0  0  0  0  0  0  0  0  0
   40.6630   28.5570   43.4530 H   0  0  0  0  0  0  0  0  0  0  0  0
   40.3740   28.4890   41.3050 N   0  0  0  0  0  0  0  0  0  0  0  0
   40.9520   28.7820   40.1510 C   0  0  0  0  0  0  0  0  0  0  0  0
   36.0670   29.6540   40.3340 C   0  0  0  0  0  0  0  0  0  0  0  0
   34.9530   29.2170   40.3820 O   0  0  0  0  0  0  0  0  0  0  0  0
   36.3830   26.6300   39.7960 Cl  0  0  0  0  0  0  0  0  0  0  0  0
   36.8610   27.3800   41.3070 C   0  0  0  0  0  0  0  0  0  0  0  0
   36.6670   28.7810   41.3950 C   0  0  0  0  0  0  0  0  0  0  0  0
   37.0880   29.2440   42.6220 C   0  0  0  0  0  0  0  0  0  0  0  0
   37.6100   28.6090   43.6600 C   0  0  0  0  0  0  0  0  0  0  0  0
   37.7690   27.2550   43.5080 C   0  0  0  0  0  0  0  0  0  0  0  0
   37.4060   26.6310   42.3490 C   0  0  0  0  0  0  0  0  0  0  0  0
   37.0210   30.3430   42.8040 H   0  0  0  0  0  0  0  0  0  0  0  0
   37.9120   29.0700   44.5980 H   0  0  0  0  0  0  0  0  0  0  0  0
   38.2020   26.6830   44.3500 H   0  0  0  0  0  0  0  0  0  0  0  0
   37.6190   25.2800   42.3150 O   0  0  0  0  0  0  0  0  0  0  0  0
   38.6490   23.3420   40.8850 O   0  0  0  0  0  0  0  0  0  0  0  0
   39.0080   24.4140   41.8830 P   0  0  0  0  0  0  0  0  0  0  0  0
   40.1630   25.4820   41.2530 O   0  0  0  0  0  0  0  0  0  0  0  0
   39.8030   26.0920   40.5630 H   0  0  0  0  0  0  0  0  0  0  0  0
   39.7460   23.7110   43.2380 O   0  0  0  0  0  0  0  0  0  0  0  0
   39.2300   22.9390   43.5630 H   0  0  0  0  0  0  0  0  0  0  0  0
  1 28  1  0  0  0  0
  1  6  1  0  0  0  0
  2  1  2  0  0  0  0
  3  2  1  0  0  0  0
  3  4  2  0  0  0  0
  4  5  1  0  0  0  0
  5  6  2  0  0  0  0
  5  8  1  0  0  0  0
  7  3  1  0  0  0  0
  9 12  1  6  0  0  0
  9 11  1  0  0  0  0
  9  2  1  0  0  0  0
 10  9  1  0  0  0  0
 10 11  1  0  0  0  0
 11 15  1  1  0  0  0
 11 16  1  0  0  0  0
 13 10  1  0  0  0  0
 14 10  1  0  0  0  0
 16 27  1  0  0  0  0
 17 19  2  0  0  0  0
 17 16  1  0  0  0  0
 18 17  1  0  0  0  0
 19 20  1  0  0  0  0
 20 27  2  0  0  0  0
 20 21  1  0  0  0  0
 21 22  1  0  0  0  0
 21 23  2  0  0  0  0
 24 23  1  0  0  0  0
 24 25  1  0  0  0  0
 26 24  2  0  0  0  0
 27 26  1  0  0  0  0
 28 29  2  0  0  0  0
 28 32  1  0  0  0  0
 30 31  1  0  0  0  0
 31 32  2  0  0  0  0
 31 36  1  0  0  0  0
 32 33  1  0  0  0  0
 33 37  1  0  0  0  0
 33 34  2  0  0  0  0
 34 38  1  0  0  0  0
 35 34  1  0  0  0  0
 35 39  1  0  0  0  0
 36 35  2  0  0  0  0
 40 36  1  0  0  0  0
 41 42  2  0  0  0  0
 42 40  1  0  0  0  0
 42 45  1  0  0  0  0
 43 42  1  0  0  0  0
 44 43  1  0  0  0  0
 45 46  1  0  0  0  0
M  END
>  <minimizedAffinity>
-5.80754662

$$$$
