
 OpenBabel03252508253D

 44 49  0  0  1  0  0  0  0  0999 V2000
   47.0120   32.0900   45.3180 C   0  0  1  0  0  0  0  0  0  0  0  0
   46.8900   32.6870   46.6570 C   0  0  0  0  0  0  0  0  0  0  0  0
   45.7660   31.8000   45.9950 C   0  0  2  0  0  0  0  0  0  0  0  0
   47.9650   31.4480   45.3620 H   0  0  0  0  0  0  0  0  0  0  0  0
   47.3140   32.2770   47.5800 H   0  0  0  0  0  0  0  0  0  0  0  0
   46.6510   33.7640   46.6700 H   0  0  0  0  0  0  0  0  0  0  0  0
   44.8570   32.4830   45.9790 H   0  0  0  0  0  0  0  0  0  0  0  0
   45.4040   30.5150   46.5990 C   0  0  0  0  0  0  0  0  0  0  0  0
   45.4330   30.1810   47.9160 C   0  0  0  0  0  0  0  0  0  0  0  0
   45.2010   28.9150   48.4360 C   0  0  0  0  0  0  0  0  0  0  0  0
   44.9140   27.9020   47.5120 C   0  0  0  0  0  0  0  0  0  0  0  0
   44.8740   28.2170   46.1530 C   0  0  0  0  0  0  0  0  0  0  0  0
   44.5260   27.2010   45.2840 C   0  0  0  0  0  0  0  0  0  0  0  0
   44.4050   27.4870   43.9300 C   0  0  0  0  0  0  0  0  0  0  0  0
   44.6250   28.7620   43.4560 C   0  0  0  0  0  0  0  0  0  0  0  0
   44.9710   29.7370   44.3630 C   0  0  0  0  0  0  0  0  0  0  0  0
   45.1130   29.5000   45.7220 C   0  0  0  0  0  0  0  0  0  0  0  0
   45.6610   30.9980   48.5970 H   0  0  0  0  0  0  0  0  0  0  0  0
   45.2400   28.7220   49.5010 H   0  0  0  0  0  0  0  0  0  0  0  0
   44.7330   26.9070   47.9000 H   0  0  0  0  0  0  0  0  0  0  0  0
   44.3560   26.2090   45.6810 H   0  0  0  0  0  0  0  0  0  0  0  0
   44.1250   26.6040   43.3310 H   0  0  0  0  0  0  0  0  0  0  0  0
   44.4810   28.7850   42.3940 H   0  0  0  0  0  0  0  0  0  0  0  0
   44.9990   30.6160   43.7880 H   0  0  0  0  0  0  0  0  0  0  0  0
   46.3700   34.9230   43.0420 C   0  0  0  0  0  0  0  0  0  0  0  0
   46.9480   34.4590   41.8070 C   0  0  0  0  0  0  0  0  0  0  0  0
   47.5600   33.1610   41.8110 C   0  0  0  0  0  0  0  0  0  0  0  0
   47.5720   32.4460   42.9380 N   0  0  0  0  0  0  0  0  0  0  0  0
   47.0020   32.9430   44.0930 C   0  0  0  0  0  0  0  0  0  0  0  0
   46.4230   34.1380   44.1400 N   0  0  0  0  0  0  0  0  0  0  0  0
   45.9320   35.9010   42.9630 H   0  0  0  0  0  0  0  0  0  0  0  0
   46.9080   35.0840   40.9260 H   0  0  0  0  0  0  0  0  0  0  0  0
   48.1330   32.6950   40.5930 N   0  0  0  0  0  0  0  0  0  0  0  0
   47.5580   32.5480   39.3830 C   0  0  0  0  0  0  0  0  0  0  0  0
   46.5160   32.7950   39.2170 H   0  0  0  0  0  0  0  0  0  0  0  0
   48.4250   32.0790   38.4710 N   0  0  0  0  0  0  0  0  0  0  0  0
   49.6120   31.9090   39.1030 C   0  0  0  0  0  0  0  0  0  0  0  0
   50.8630   31.4680   38.7270 C   0  0  0  0  0  0  0  0  0  0  0  0
   51.0170   31.1630   37.6850 H   0  0  0  0  0  0  0  0  0  0  0  0
   51.8730   31.4170   39.6330 N   0  0  0  0  0  0  0  0  0  0  0  0
   51.6700   31.7980   40.9180 C   0  0  0  0  0  0  0  0  0  0  0  0
   52.4750   31.7590   41.6460 H   0  0  0  0  0  0  0  0  0  0  0  0
   50.4410   32.2370   41.3090 N   0  0  0  0  0  0  0  0  0  0  0  0
   49.4310   32.2960   40.4360 C   0  0  0  0  0  0  0  0  0  0  0  0
  1  4  1  6  0  0  0
  1  3  1  0  0  0  0
  1  2  1  0  0  0  0
  2  6  1  0  0  0  0
  2  5  1  0  0  0  0
  3  7  1  6  0  0  0
  3  8  1  0  0  0  0
  3  2  1  0  0  0  0
  8  9  1  0  0  0  0
  9 10  2  0  0  0  0
  9 18  1  0  0  0  0
 10 19  1  0  0  0  0
 11 20  1  0  0  0  0
 11 10  1  0  0  0  0
 12 11  2  0  0  0  0
 13 21  1  0  0  0  0
 13 12  1  0  0  0  0
 14 13  2  0  0  0  0
 15 14  1  0  0  0  0
 15 16  2  0  0  0  0
 16 17  1  0  0  0  0
 17 12  1  0  0  0  0
 17  8  2  0  0  0  0
 22 14  1  0  0  0  0
 23 15  1  0  0  0  0
 24 16  1  0  0  0  0
 25 30  1  0  0  0  0
 26 27  1  0  0  0  0
 26 25  2  0  0  0  0
 27 28  2  0  0  0  0
 28 29  1  0  0  0  0
 29 30  2  0  0  0  0
 29  1  1  0  0  0  0
 31 25  1  0  0  0  0
 32 26  1  0  0  0  0
 33 27  1  0  0  0  0
 34 33  1  0  0  0  0
 35 34  1  0  0  0  0
 36 37  1  0  0  0  0
 36 34  2  0  0  0  0
 37 44  1  0  0  0  0
 38 37  2  0  0  0  0
 38 40  1  0  0  0  0
 39 38  1  0  0  0  0
 40 41  2  0  0  0  0
 41 43  1  0  0  0  0
 41 42  1  0  0  0  0
 44 33  1  0  0  0  0
 44 43  2  0  0  0  0
M  END
>  <minimizedAffinity>
-5.05520582

>  <minimizedRMSD>
2.44913054

$$$$
