
 OpenBabel03252502003D

 37 41  0  0  0  0  0  0  0  0999 V2000
   47.5630   32.3620   48.1030 C   0  0  0  0  0  0  0  0  0  0  0  0
   47.1150   31.0660   48.2410 C   0  0  0  0  0  0  0  0  0  0  0  0
   46.1890   30.6520   47.3290 C   0  0  0  0  0  0  0  0  0  0  0  0
   45.7590   31.4810   46.3670 N   0  0  0  0  0  0  0  0  0  0  0  0
   46.1980   32.7360   46.2420 C   0  0  0  0  0  0  0  0  0  0  0  0
   47.0990   33.1380   47.1280 N   0  0  0  0  0  0  0  0  0  0  0  0
   48.3090   32.6930   48.8380 H   0  0  0  0  0  0  0  0  0  0  0  0
   45.6590   29.3620   47.3640 N   0  0  0  0  0  0  0  0  0  0  0  0
   45.0870   28.6780   48.3720 C   0  0  0  0  0  0  0  0  0  0  0  0
   44.9410   29.0550   49.3750 H   0  0  0  0  0  0  0  0  0  0  0  0
   44.7190   27.4540   47.9470 N   0  0  0  0  0  0  0  0  0  0  0  0
   45.0520   27.3300   46.6490 C   0  0  0  0  0  0  0  0  0  0  0  0
   44.9030   26.2960   45.7480 C   0  0  0  0  0  0  0  0  0  0  0  0
   44.4330   25.3730   46.0800 H   0  0  0  0  0  0  0  0  0  0  0  0
   45.3570   26.5090   44.5000 N   0  0  0  0  0  0  0  0  0  0  0  0
   45.9350   27.6720   44.1260 C   0  0  0  0  0  0  0  0  0  0  0  0
   46.2840   27.7830   43.0950 H   0  0  0  0  0  0  0  0  0  0  0  0
   46.0690   28.6580   45.0170 N   0  0  0  0  0  0  0  0  0  0  0  0
   45.6320   28.5110   46.2970 C   0  0  0  0  0  0  0  0  0  0  0  0
   45.8700   33.7990   45.2810 C   0  0  0  0  0  0  0  0  0  0  0  0
   44.9070   34.7250   45.4910 N   0  0  0  0  0  0  0  0  0  0  0  0
   44.5790   35.7010   44.6480 C   0  0  0  0  0  0  0  0  0  0  0  0
   45.2370   35.8150   43.4750 N   0  0  0  0  0  0  0  0  0  0  0  0
   46.2200   34.9520   43.1480 C   0  0  0  0  0  0  0  0  0  0  0  0
   46.8900   35.0730   41.9440 C   0  0  0  0  0  0  0  0  0  0  0  0
   47.8900   34.2010   41.6080 C   0  0  0  0  0  0  0  0  0  0  0  0
   48.1970   33.2060   42.5060 C   0  0  0  0  0  0  0  0  0  0  0  0
   47.5100   33.1180   43.6890 C   0  0  0  0  0  0  0  0  0  0  0  0
   46.5030   33.9640   44.0740 C   0  0  0  0  0  0  0  0  0  0  0  0
   43.7890   36.3890   44.9190 H   0  0  0  0  0  0  0  0  0  0  0  0
   46.6280   35.8670   41.2540 H   0  0  0  0  0  0  0  0  0  0  0  0
   48.4440   34.2510   40.6820 H   0  0  0  0  0  0  0  0  0  0  0  0
   48.9780   32.4900   42.2900 H   0  0  0  0  0  0  0  0  0  0  0  0
   47.7920   32.3090   44.3710 H   0  0  0  0  0  0  0  0  0  0  0  0
   47.6030   30.2420   49.2700 N   0  0  0  0  0  0  0  0  0  0  0  0
   47.1130   30.1380   50.1840 H   0  0  0  0  0  0  0  0  0  0  0  0
   48.4750   29.6510   49.2730 H   0  0  0  0  0  0  0  0  0  0  0  0
  1  2  1  0  0  0  0
  1  7  1  0  0  0  0
  2 35  1  0  0  0  0
  3  8  1  0  0  0  0
  3  2  2  0  0  0  0
  4  3  1  0  0  0  0
  5  4  2  0  0  0  0
  5  6  1  0  0  0  0
  6  1  2  0  0  0  0
  8  9  1  0  0  0  0
  9 10  1  0  0  0  0
 11  9  2  0  0  0  0
 12 11  1  0  0  0  0
 13 14  1  0  0  0  0
 13 12  2  0  0  0  0
 15 13  1  0  0  0  0
 16 15  2  0  0  0  0
 16 18  1  0  0  0  0
 17 16  1  0  0  0  0
 18 19  2  0  0  0  0
 19 12  1  0  0  0  0
 19  8  1  0  0  0  0
 20 21  1  0  0  0  0
 20  5  1  0  0  0  0
 22 30  1  0  0  0  0
 22 21  2  0  0  0  0
 23 22  1  0  0  0  0
 24 23  2  0  0  0  0
 24 29  1  0  0  0  0
 25 24  1  0  0  0  0
 26 25  2  0  0  0  0
 26 27  1  0  0  0  0
 27 28  2  0  0  0  0
 28 29  1  0  0  0  0
 28 34  1  0  0  0  0
 29 20  2  0  0  0  0
 31 25  1  0  0  0  0
 32 26  1  0  0  0  0
 33 27  1  0  0  0  0
 35 37  1  0  0  0  0
 35 36  1  0  0  0  0
M  END
>  <minimizedAffinity>
-6.49904299

>  <minimizedRMSD>
0.275788903

$$$$
