
 OpenBabel03242523233D

 46 50  0  0  1  0  0  0  0  0999 V2000
   47.3590   32.7900   43.9030 C   0  0  0  0  0  0  0  0  0  0  0  0
   48.1280   33.2770   42.9330 C   0  0  0  0  0  0  0  0  0  0  0  0
   48.9380   32.3560   42.3180 C   0  0  0  0  0  0  0  0  0  0  0  0
   48.8870   31.0180   42.7590 N   0  0  0  0  0  0  0  0  0  0  0  0
   48.1050   30.6110   43.7270 C   0  0  0  0  0  0  0  0  0  0  0  0
   47.2750   31.5070   44.3650 N   0  0  0  0  0  0  0  0  0  0  0  0
   49.6390   32.5110   41.5140 H   0  0  0  0  0  0  0  0  0  0  0  0
   48.1700   29.5460   43.9650 H   0  0  0  0  0  0  0  0  0  0  0  0
   48.2720   34.6470   42.5570 C   0  0  1  0  0  0  0  0  0  0  0  0
   49.0390   35.1860   41.5710 C   0  0  0  0  0  0  0  0  0  0  0  0
   47.5800   35.0850   41.2110 C   0  0  1  0  0  0  0  0  0  0  0  0
   48.1220   35.3360   43.4000 H   0  0  0  0  0  0  0  0  0  0  0  0
   49.8020   34.5480   41.0550 H   0  0  0  0  0  0  0  0  0  0  0  0
   49.4120   36.2460   41.4900 H   0  0  0  0  0  0  0  0  0  0  0  0
   46.9540   35.9770   41.2980 H   0  0  0  0  0  0  0  0  0  0  0  0
   47.3390   34.0920   40.2200 N   0  0  0  0  0  0  0  0  0  0  0  0
   46.4910   33.0500   40.4930 C   0  0  0  0  0  0  0  0  0  0  0  0
   45.8860   32.7440   41.3570 H   0  0  0  0  0  0  0  0  0  0  0  0
   46.3880   32.2080   39.4350 N   0  0  0  0  0  0  0  0  0  0  0  0
   47.1810   32.7130   38.4630 C   0  0  0  0  0  0  0  0  0  0  0  0
   47.4770   32.2960   37.1770 C   0  0  0  0  0  0  0  0  0  0  0  0
   47.0420   31.3900   36.7530 H   0  0  0  0  0  0  0  0  0  0  0  0
   48.3340   33.0420   36.4350 N   0  0  0  0  0  0  0  0  0  0  0  0
   48.8650   34.1710   36.9900 C   0  0  0  0  0  0  0  0  0  0  0  0
   49.5300   34.6710   36.2940 H   0  0  0  0  0  0  0  0  0  0  0  0
   48.5790   34.5810   38.2400 N   0  0  0  0  0  0  0  0  0  0  0  0
   47.7450   33.8640   38.9770 C   0  0  0  0  0  0  0  0  0  0  0  0
   46.3370   33.5370   44.6700 C   0  0  0  0  0  0  0  0  0  0  0  0
   45.8350   33.9520   45.6750 O   0  0  0  0  0  0  0  0  0  0  0  0
   44.4940   31.6490   43.0660 Cl  0  0  0  0  0  0  0  0  0  0  0  0
   44.4560   33.3930   42.8830 C   0  0  0  0  0  0  0  0  0  0  0  0
   45.3540   34.1240   43.7020 C   0  0  0  0  0  0  0  0  0  0  0  0
   45.2190   35.4740   43.4690 C   0  0  0  0  0  0  0  0  0  0  0  0
   44.4270   36.1400   42.6420 C   0  0  0  0  0  0  0  0  0  0  0  0
   43.5850   35.3710   41.8790 C   0  0  0  0  0  0  0  0  0  0  0  0
   43.5850   34.0100   41.9880 C   0  0  0  0  0  0  0  0  0  0  0  0
   45.8480   36.1640   44.0800 H   0  0  0  0  0  0  0  0  0  0  0  0
   44.3960   37.2220   42.5270 H   0  0  0  0  0  0  0  0  0  0  0  0
   42.9050   35.8850   41.1740 H   0  0  0  0  0  0  0  0  0  0  0  0
   42.6970   33.3540   41.1790 O   0  0  0  0  0  0  0  0  0  0  0  0
   40.4200   32.5490   40.1640 O   0  0  0  0  0  0  0  0  0  0  0  0
   41.0840   32.9300   41.4640 P   0  0  0  0  0  0  0  0  0  0  0  0
   41.0270   31.6580   42.5820 O   0  0  0  0  0  0  0  0  0  0  0  0
   41.6360   30.9110   42.3640 H   0  0  0  0  0  0  0  0  0  0  0  0
   40.2290   34.2010   42.1930 O   0  0  0  0  0  0  0  0  0  0  0  0
   40.0430   34.9190   41.5480 H   0  0  0  0  0  0  0  0  0  0  0  0
  1  6  1  0  0  0  0
  1 28  1  0  0  0  0
  2  1  2  0  0  0  0
  3  4  2  0  0  0  0
  3  2  1  0  0  0  0
  4  5  1  0  0  0  0
  5  8  1  0  0  0  0
  5  6  2  0  0  0  0
  7  3  1  0  0  0  0
  9  2  1  0  0  0  0
  9 12  1  1  0  0  0
 10  9  1  0  0  0  0
 11 15  1  6  0  0  0
 11 10  1  0  0  0  0
 11  9  1  0  0  0  0
 13 10  1  0  0  0  0
 14 10  1  0  0  0  0
 16 17  1  0  0  0  0
 16 11  1  0  0  0  0
 17 18  1  0  0  0  0
 19 17  2  0  0  0  0
 20 27  1  0  0  0  0
 20 19  1  0  0  0  0
 21 20  2  0  0  0  0
 22 21  1  0  0  0  0
 23 24  2  0  0  0  0
 23 21  1  0  0  0  0
 24 26  1  0  0  0  0
 25 24  1  0  0  0  0
 26 27  2  0  0  0  0
 27 16  1  0  0  0  0
 28 29  2  0  0  0  0
 31 30  1  0  0  0  0
 31 32  1  0  0  0  0
 32 28  1  0  0  0  0
 33 32  2  0  0  0  0
 33 37  1  0  0  0  0
 34 33  1  0  0  0  0
 35 36  1  0  0  0  0
 35 34  2  0  0  0  0
 36 31  2  0  0  0  0
 38 34  1  0  0  0  0
 39 35  1  0  0  0  0
 40 42  1  0  0  0  0
 40 36  1  0  0  0  0
 41 42  2  0  0  0  0
 42 45  1  0  0  0  0
 42 43  1  0  0  0  0
 44 43  1  0  0  0  0
 46 45  1  0  0  0  0
M  END
>  <minimizedAffinity>
-6.38378191

>  <minimizedRMSD>
0.917163849

$$$$
