
 OpenBabel03252509003D

 48 51  0  0  1  0  0  0  0  0999 V2000
   46.9210   34.3000   43.3510 N   0  0  0  0  0  0  0  0  0  0  0  0
   46.4780   35.4990   42.7310 C   0  0  0  0  0  0  0  0  0  0  0  0
   44.9960   35.7800   42.8700 C   0  0  0  0  0  0  0  0  0  0  0  0
   44.3940   35.3150   44.1660 C   0  0  0  0  0  0  0  0  0  0  0  0
   45.4320   34.7190   45.0870 C   0  0  0  0  0  0  0  0  0  0  0  0
   46.0970   33.5940   44.2140 C   0  0  2  0  0  0  0  0  0  0  0  0
   46.9960   36.3420   43.2650 H   0  0  0  0  0  0  0  0  0  0  0  0
   46.7350   35.6140   41.6770 H   0  0  0  0  0  0  0  0  0  0  0  0
   44.4870   35.2170   42.0570 H   0  0  0  0  0  0  0  0  0  0  0  0
   44.8420   36.8560   42.6630 H   0  0  0  0  0  0  0  0  0  0  0  0
   43.5560   34.6230   44.0630 H   0  0  0  0  0  0  0  0  0  0  0  0
   43.9900   36.2270   44.6880 H   0  0  0  0  0  0  0  0  0  0  0  0
   46.1940   35.4650   45.3640 H   0  0  0  0  0  0  0  0  0  0  0  0
   44.9180   34.2370   45.9330 H   0  0  0  0  0  0  0  0  0  0  0  0
   45.2500   33.0240   43.7880 H   0  0  0  0  0  0  0  0  0  0  0  0
   47.9140   33.5810   42.6040 C   0  0  0  0  0  0  0  0  0  0  0  0
   48.6000   34.3010   42.1360 H   0  0  0  0  0  0  0  0  0  0  0  0
   48.5170   32.9610   43.2880 H   0  0  0  0  0  0  0  0  0  0  0  0
   47.2150   32.6960   41.6090 C   0  0  0  0  0  0  0  0  0  0  0  0
   46.1470   32.9830   41.5090 H   0  0  0  0  0  0  0  0  0  0  0  0
   47.2480   31.6270   41.8620 H   0  0  0  0  0  0  0  0  0  0  0  0
   49.2760   32.1580   38.5080 C   0  0  0  0  0  0  0  0  0  0  0  0
   48.6940   31.9690   39.7760 C   0  0  0  0  0  0  0  0  0  0  0  0
   47.8240   32.9090   40.2660 C   0  0  0  0  0  0  0  0  0  0  0  0
   47.5650   33.9780   39.4970 N   0  0  0  0  0  0  0  0  0  0  0  0
   48.1210   34.1570   38.2890 C   0  0  0  0  0  0  0  0  0  0  0  0
   48.9830   33.2460   37.7830 N   0  0  0  0  0  0  0  0  0  0  0  0
   49.9600   31.3960   38.1490 H   0  0  0  0  0  0  0  0  0  0  0  0
   48.9650   31.0740   40.3200 H   0  0  0  0  0  0  0  0  0  0  0  0
   47.7960   35.0760   37.8150 H   0  0  0  0  0  0  0  0  0  0  0  0
   46.8290   32.8970   45.1690 O   0  0  0  0  0  0  0  0  0  0  0  0
   45.3470   30.8650   44.3070 O   0  0  0  0  0  0  0  0  0  0  0  0
   46.2120   31.3600   45.4650 P   0  0  2  0  0  0  0  0  0  0  0  0
   45.1310   31.5280   46.7800 O   0  0  0  0  0  0  0  0  0  0  0  0
   45.6820   31.8340   47.5570 H   0  0  0  0  0  0  0  0  0  0  0  0
   47.3820   30.2700   45.9110 O   0  0  0  0  0  0  0  0  0  0  0  0
   48.0750   31.0030   43.3640 H   0  0  0  0  0  0  0  0  0  0  0  0
   48.6810   30.3810   43.9530 N   0  0  0  0  0  0  0  0  0  0  0  0
   48.5180   29.9080   45.2210 C   0  0  0  0  0  0  0  0  0  0  0  0
   49.5930   29.1330   45.5330 N   0  0  0  0  0  0  0  0  0  0  0  0
   50.4490   29.1030   44.4720 C   0  0  0  0  0  0  0  0  0  0  0  0
   51.6610   28.4700   44.2840 C   0  0  0  0  0  0  0  0  0  0  0  0
   52.0220   27.8820   45.1180 H   0  0  0  0  0  0  0  0  0  0  0  0
   52.2660   28.6460   43.0940 N   0  0  0  0  0  0  0  0  0  0  0  0
   51.6850   29.4120   42.1540 C   0  0  0  0  0  0  0  0  0  0  0  0
   52.1740   29.5530   41.1930 H   0  0  0  0  0  0  0  0  0  0  0  0
   50.4930   30.0420   42.3220 N   0  0  0  0  0  0  0  0  0  0  0  0
   49.8500   29.8880   43.5110 C   0  0  0  0  0  0  0  0  0  0  0  0
  1  6  1  0  0  0  0
  2  3  1  0  0  0  0
  2  7  1  0  0  0  0
  2  1  1  0  0  0  0
  3  4  1  0  0  0  0
  4 12  1  0  0  0  0
  4  5  1  0  0  0  0
  5 13  1  0  0  0  0
  5 14  1  0  0  0  0
  6 15  1  6  0  0  0
  6  5  1  0  0  0  0
  6 31  1  0  0  0  0
  8  2  1  0  0  0  0
  9  3  1  0  0  0  0
 10  3  1  0  0  0  0
 11  4  1  0  0  0  0
 16 18  1  0  0  0  0
 16  1  1  0  0  0  0
 17 16  1  0  0  0  0
 19 21  1  0  0  0  0
 19 16  1  0  0  0  0
 20 19  1  0  0  0  0
 22 23  1  0  0  0  0
 23 24  2  0  0  0  0
 23 29  1  0  0  0  0
 24 19  1  0  0  0  0
 25 24  1  0  0  0  0
 26 25  2  0  0  0  0
 27 26  1  0  0  0  0
 27 22  2  0  0  0  0
 28 22  1  0  0  0  0
 30 26  1  0  0  0  0
 31 33  1  0  0  0  0
 33 32  2  6  0  0  0
 33 36  1  0  0  0  0
 33 34  1  0  0  0  0
 34 35  1  0  0  0  0
 37 38  1  0  0  0  0
 38 39  1  0  0  0  0
 39 40  2  0  0  0  0
 39 36  1  0  0  0  0
 41 40  1  0  0  0  0
 42 41  1  0  0  0  0
 42 43  1  0  0  0  0
 44 42  2  0  0  0  0
 45 47  2  0  0  0  0
 45 44  1  0  0  0  0
 46 45  1  0  0  0  0
 47 48  1  0  0  0  0
 48 38  1  0  0  0  0
 48 41  2  0  0  0  0
M  END
>  <minimizedAffinity>
-4.1392107

>  <minimizedRMSD>
1.1082468

$$$$
