
 OpenBabel03252506343D

 36 39  0  0  1  0  0  0  0  0999 V2000
   44.4840   35.7140   45.0620 C   0  0  0  0  0  0  0  0  0  0  0  0
   45.0920   35.6580   43.8020 C   0  0  0  0  0  0  0  0  0  0  0  0
   45.9600   34.6480   43.5350 C   0  0  0  0  0  0  0  0  0  0  0  0
   46.1770   33.7510   44.5330 N   0  0  0  0  0  0  0  0  0  0  0  0
   45.6010   33.8060   45.7220 C   0  0  0  0  0  0  0  0  0  0  0  0
   44.7360   34.7910   46.0230 N   0  0  0  0  0  0  0  0  0  0  0  0
   45.9210   32.8110   46.6720 N   0  0  0  0  0  0  0  0  0  0  0  0
   45.1690   32.5560   47.9080 C   0  0  0  0  0  0  0  0  0  0  0  0
   46.2860   32.2280   48.8780 C   0  0  0  0  0  0  0  0  0  0  0  0
   47.5370   32.0290   48.0770 C   0  0  0  0  0  0  0  0  0  0  0  0
   46.9990   31.8480   46.6780 C   0  0  1  0  0  0  0  0  0  0  0  0
   43.7780   36.5290   45.2830 H   0  0  0  0  0  0  0  0  0  0  0  0
   46.4100   34.6280   42.5700 H   0  0  0  0  0  0  0  0  0  0  0  0
   44.4530   31.7260   47.7920 H   0  0  0  0  0  0  0  0  0  0  0  0
   44.6040   33.4660   48.1730 H   0  0  0  0  0  0  0  0  0  0  0  0
   46.0160   31.2980   49.4440 H   0  0  0  0  0  0  0  0  0  0  0  0
   46.3990   33.1020   49.5540 H   0  0  0  0  0  0  0  0  0  0  0  0
   48.2360   32.8870   48.1470 H   0  0  0  0  0  0  0  0  0  0  0  0
   48.0730   31.0900   48.3410 H   0  0  0  0  0  0  0  0  0  0  0  0
   47.7260   32.1270   45.8990 H   0  0  0  0  0  0  0  0  0  0  0  0
   44.7370   36.7010   42.8850 N   0  0  0  0  0  0  0  0  0  0  0  0
   44.3950   37.6230   43.2310 H   0  0  0  0  0  0  0  0  0  0  0  0
   44.8220   36.5350   41.8490 H   0  0  0  0  0  0  0  0  0  0  0  0
   46.4110   30.1530   46.4910 S   0  0  0  0  0  0  0  0  0  0  0  0
   45.9410   31.6580   43.9360 H   0  0  0  0  0  0  0  0  0  0  0  0
   45.3290   30.8310   44.0950 N   0  0  0  0  0  0  0  0  0  0  0  0
   45.2910   29.9660   45.1220 C   0  0  0  0  0  0  0  0  0  0  0  0
   44.3230   29.0300   44.9050 N   0  0  0  0  0  0  0  0  0  0  0  0
   43.7460   29.3310   43.7010 C   0  0  0  0  0  0  0  0  0  0  0  0
   42.7580   28.8360   42.8980 C   0  0  0  0  0  0  0  0  0  0  0  0
   42.2390   27.9440   43.2740 H   0  0  0  0  0  0  0  0  0  0  0  0
   42.4260   29.3890   41.7250 N   0  0  0  0  0  0  0  0  0  0  0  0
   43.0510   30.4760   41.2610 C   0  0  0  0  0  0  0  0  0  0  0  0
   42.6920   30.8250   40.3030 H   0  0  0  0  0  0  0  0  0  0  0  0
   44.0280   31.0040   42.0050 N   0  0  0  0  0  0  0  0  0  0  0  0
   44.3880   30.4620   43.2060 C   0  0  0  0  0  0  0  0  0  0  0  0
  1 12  1  0  0  0  0
  1  6  1  0  0  0  0
  2  1  2  0  0  0  0
  3  2  1  0  0  0  0
  3  4  2  0  0  0  0
  4  5  1  0  0  0  0
  5  6  2  0  0  0  0
  5  7  1  0  0  0  0
  7 11  1  0  0  0  0
  7  8  1  0  0  0  0
  8 15  1  0  0  0  0
  8  9  1  0  0  0  0
  9 16  1  0  0  0  0
  9 17  1  0  0  0  0
 10 18  1  0  0  0  0
 10 19  1  0  0  0  0
 10  9  1  0  0  0  0
 11 20  1  6  0  0  0
 11 10  1  0  0  0  0
 13  3  1  0  0  0  0
 14  8  1  0  0  0  0
 21 22  1  0  0  0  0
 21  2  1  0  0  0  0
 23 21  1  0  0  0  0
 24 11  1  0  0  0  0
 25 26  1  0  0  0  0
 26 27  1  0  0  0  0
 27 24  1  0  0  0  0
 28 27  2  0  0  0  0
 29 28  1  0  0  0  0
 30 31  1  0  0  0  0
 30 29  2  0  0  0  0
 32 30  1  0  0  0  0
 33 32  2  0  0  0  0
 33 35  1  0  0  0  0
 34 33  1  0  0  0  0
 35 36  2  0  0  0  0
 36 29  1  0  0  0  0
 36 26  1  0  0  0  0
M  END
>  <minimizedAffinity>
-5.34045458

>  <minimizedRMSD>
0.927771747

$$$$
