
 OpenBabel03252507393D

 41 46  0  0  0  0  0  0  0  0999 V2000
   37.6780   27.1170   42.5050 C   0  0  0  0  0  0  0  0  0  0  0  0
   39.0190   27.3320   42.9300 C   0  0  0  0  0  0  0  0  0  0  0  0
   39.8450   26.2150   42.9530 C   0  0  0  0  0  0  0  0  0  0  0  0
   39.3610   25.0250   42.5870 N   0  0  0  0  0  0  0  0  0  0  0  0
   38.0780   24.8540   42.1860 C   0  0  0  0  0  0  0  0  0  0  0  0
   37.2630   25.8960   42.1520 N   0  0  0  0  0  0  0  0  0  0  0  0
   39.4210   28.2740   43.2250 H   0  0  0  0  0  0  0  0  0  0  0  0
   37.8360   23.8310   41.9220 H   0  0  0  0  0  0  0  0  0  0  0  0
   41.6370   27.4590   44.0370 C   0  0  0  0  0  0  0  0  0  0  0  0
   41.2520   26.2900   43.3720 C   0  0  0  0  0  0  0  0  0  0  0  0
   42.1860   25.3250   43.1580 C   0  0  0  0  0  0  0  0  0  0  0  0
   43.4960   25.4450   43.5690 C   0  0  0  0  0  0  0  0  0  0  0  0
   44.5710   24.6370   43.4690 N   0  0  0  0  0  0  0  0  0  0  0  0
   45.6330   25.2820   44.0660 C   0  0  0  0  0  0  0  0  0  0  0  0
   45.1940   26.4630   44.5160 N   0  0  0  0  0  0  0  0  0  0  0  0
   43.8910   26.5840   44.2230 C   0  0  0  0  0  0  0  0  0  0  0  0
   42.9660   27.5860   44.4570 C   0  0  0  0  0  0  0  0  0  0  0  0
   40.9740   28.2890   44.2580 H   0  0  0  0  0  0  0  0  0  0  0  0
   41.8640   24.4150   42.6350 H   0  0  0  0  0  0  0  0  0  0  0  0
   44.5010   23.7070   43.0020 H   0  0  0  0  0  0  0  0  0  0  0  0
   46.5690   24.7390   44.0550 H   0  0  0  0  0  0  0  0  0  0  0  0
   43.3160   28.4690   44.9750 H   0  0  0  0  0  0  0  0  0  0  0  0
   36.8410   28.2250   42.4760 O   0  0  0  0  0  0  0  0  0  0  0  0
   37.2130   29.3770   41.8380 C   0  0  0  0  0  0  0  0  0  0  0  0
   36.1130   29.7340   41.1440 C   0  0  0  0  0  0  0  0  0  0  0  0
   36.6590   31.3220   40.2720 S   0  0  0  0  0  0  0  0  0  0  0  0
   38.3690   31.1550   41.0850 C   0  0  0  0  0  0  0  0  0  0  0  0
   38.2040   30.2250   41.6580 N   0  0  0  0  0  0  0  0  0  0  0  0
   35.0050   29.5920   40.7910 H   0  0  0  0  0  0  0  0  0  0  0  0
   39.5790   31.9830   41.0090 N   0  0  0  0  0  0  0  0  0  0  0  0
   40.7940   31.5140   41.2690 C   0  0  0  0  0  0  0  0  0  0  0  0
   41.0820   30.5050   41.5640 H   0  0  0  0  0  0  0  0  0  0  0  0
   41.6050   32.5690   41.0880 N   0  0  0  0  0  0  0  0  0  0  0  0
   40.8870   33.6410   40.7280 C   0  0  0  0  0  0  0  0  0  0  0  0
   41.2260   34.9540   40.4260 C   0  0  0  0  0  0  0  0  0  0  0  0
   42.2450   35.2930   40.4550 H   0  0  0  0  0  0  0  0  0  0  0  0
   40.2930   35.8600   40.0850 N   0  0  0  0  0  0  0  0  0  0  0  0
   38.9890   35.4810   40.0340 C   0  0  0  0  0  0  0  0  0  0  0  0
   38.2270   36.2120   39.7580 H   0  0  0  0  0  0  0  0  0  0  0  0
   38.6450   34.1950   40.3280 N   0  0  0  0  0  0  0  0  0  0  0  0
   39.5590   33.2700   40.6720 C   0  0  0  0  0  0  0  0  0  0  0  0
  1  2  1  0  0  0  0
  2  3  2  0  0  0  0
  2  7  1  0  0  0  0
  3 10  1  0  0  0  0
  4  3  1  0  0  0  0
  5  4  2  0  0  0  0
  6  5  1  0  0  0  0
  6  1  2  0  0  0  0
  8  5  1  0  0  0  0
  9 18  1  0  0  0  0
  9 17  1  0  0  0  0
 10  9  2  0  0  0  0
 11 10  1  0  0  0  0
 11 12  2  0  0  0  0
 12 16  1  0  0  0  0
 13 12  1  0  0  0  0
 13 14  1  0  0  0  0
 14 15  2  0  0  0  0
 16 17  2  0  0  0  0
 16 15  1  0  0  0  0
 17 22  1  0  0  0  0
 19 11  1  0  0  0  0
 20 13  1  0  0  0  0
 21 14  1  0  0  0  0
 23  1  1  0  0  0  0
 24 23  1  0  0  0  0
 25 24  2  0  0  0  0
 26 27  1  0  0  0  0
 26 25  1  0  0  0  0
 27 28  2  0  0  0  0
 28 24  1  0  0  0  0
 29 25  1  0  0  0  0
 30 27  1  0  0  0  0
 30 31  1  0  0  0  0
 31 32  1  0  0  0  0
 33 31  2  0  0  0  0
 34 33  1  0  0  0  0
 35 36  1  0  0  0  0
 35 34  2  0  0  0  0
 37 35  1  0  0  0  0
 38 37  2  0  0  0  0
 38 40  1  0  0  0  0
 39 38  1  0  0  0  0
 40 41  2  0  0  0  0
 41 34  1  0  0  0  0
 41 30  1  0  0  0  0
M  END
>  <minimizedAffinity>
-7.4016304

$$$$

 OpenBabel03252507393D

 41 46  0  0  0  0  0  0  0  0999 V2000
   37.3070   30.8760   40.0840 C   0  0  0  0  0  0  0  0  0  0  0  0
   38.3750   30.2870   40.8170 C   0  0  0  0  0  0  0  0  0  0  0  0
   38.0600   29.1670   41.5740 C   0  0  0  0  0  0  0  0  0  0  0  0
   36.8070   28.7030   41.5820 N   0  0  0  0  0  0  0  0  0  0  0  0
   35.8120   29.2870   40.8730 C   0  0  0  0  0  0  0  0  0  0  0  0
   36.0760   30.3570   40.1400 N   0  0  0  0  0  0  0  0  0  0  0  0
   39.3800   30.6440   40.8210 H   0  0  0  0  0  0  0  0  0  0  0  0
   34.8510   28.7960   40.9820 H   0  0  0  0  0  0  0  0  0  0  0  0
   38.6030   27.3710   43.1280 C   0  0  0  0  0  0  0  0  0  0  0  0
   39.0650   28.4590   42.3800 C   0  0  0  0  0  0  0  0  0  0  0  0
   40.3840   28.7840   42.4500 C   0  0  0  0  0  0  0  0  0  0  0  0
   41.2880   28.0880   43.2240 C   0  0  0  0  0  0  0  0  0  0  0  0
   42.6110   28.2260   43.4430 N   0  0  0  0  0  0  0  0  0  0  0  0
   42.9920   27.2350   44.3220 C   0  0  0  0  0  0  0  0  0  0  0  0
   41.9060   26.5160   44.6240 N   0  0  0  0  0  0  0  0  0  0  0  0
   40.8520   27.0190   43.9640 C   0  0  0  0  0  0  0  0  0  0  0  0
   39.5170   26.6620   43.9160 C   0  0  0  0  0  0  0  0  0  0  0  0
   37.5740   27.0280   43.1460 H   0  0  0  0  0  0  0  0  0  0  0  0
   40.7270   29.6400   41.8550 H   0  0  0  0  0  0  0  0  0  0  0  0
   43.1560   28.9840   42.9770 H   0  0  0  0  0  0  0  0  0  0  0  0
   44.0410   27.2310   44.5870 H   0  0  0  0  0  0  0  0  0  0  0  0
   39.2120   25.8130   44.5140 H   0  0  0  0  0  0  0  0  0  0  0  0
   37.6080   31.9970   39.3220 O   0  0  0  0  0  0  0  0  0  0  0  0
   38.5970   32.8650   39.6990 C   0  0  0  0  0  0  0  0  0  0  0  0
   37.9320   33.9910   40.0320 C   0  0  0  0  0  0  0  0  0  0  0  0
   39.3230   35.1680   40.5420 S   0  0  0  0  0  0  0  0  0  0  0  0
   40.5890   33.7980   40.1730 C   0  0  0  0  0  0  0  0  0  0  0  0
   39.8980   33.0010   39.8470 N   0  0  0  0  0  0  0  0  0  0  0  0
   36.9610   34.6310   40.1770 H   0  0  0  0  0  0  0  0  0  0  0  0
   42.0530   33.7600   40.2740 N   0  0  0  0  0  0  0  0  0  0  0  0
   42.8030   32.9120   39.5800 C   0  0  0  0  0  0  0  0  0  0  0  0
   42.4840   32.1520   38.8670 H   0  0  0  0  0  0  0  0  0  0  0  0
   44.0620   33.1980   39.9540 N   0  0  0  0  0  0  0  0  0  0  0  0
   44.0570   34.1930   40.8500 C   0  0  0  0  0  0  0  0  0  0  0  0
   45.0660   34.8560   41.5390 C   0  0  0  0  0  0  0  0  0  0  0  0
   46.1010   34.5990   41.4050 H   0  0  0  0  0  0  0  0  0  0  0  0
   44.7910   35.8470   42.4050 N   0  0  0  0  0  0  0  0  0  0  0  0
   43.4970   36.2080   42.6100 C   0  0  0  0  0  0  0  0  0  0  0  0
   43.2680   37.0110   43.3120 H   0  0  0  0  0  0  0  0  0  0  0  0
   42.5000   35.5650   41.9390 N   0  0  0  0  0  0  0  0  0  0  0  0
   42.7480   34.5700   41.0670 C   0  0  0  0  0  0  0  0  0  0  0  0
  1  6  2  0  0  0  0
  1  2  1  0  0  0  0
  2  7  1  0  0  0  0
  2  3  2  0  0  0  0
  3  4  1  0  0  0  0
  3 10  1  0  0  0  0
  5  8  1  0  0  0  0
  5  4  2  0  0  0  0
  6  5  1  0  0  0  0
  9 18  1  0  0  0  0
  9 17  1  0  0  0  0
 10 11  1  0  0  0  0
 10  9  2  0  0  0  0
 11 12  2  0  0  0  0
 12 13  1  0  0  0  0
 12 16  1  0  0  0  0
 13 14  1  0  0  0  0
 14 21  1  0  0  0  0
 14 15  2  0  0  0  0
 16 15  1  0  0  0  0
 17 16  2  0  0  0  0
 17 22  1  0  0  0  0
 19 11  1  0  0  0  0
 20 13  1  0  0  0  0
 23 24  1  0  0  0  0
 23  1  1  0  0  0  0
 24 28  1  0  0  0  0
 24 25  2  0  0  0  0
 25 29  1  0  0  0  0
 25 26  1  0  0  0  0
 27 30  1  0  0  0  0
 27 26  1  0  0  0  0
 28 27  2  0  0  0  0
 30 41  1  0  0  0  0
 31 33  2  0  0  0  0
 31 30  1  0  0  0  0
 32 31  1  0  0  0  0
 33 34  1  0  0  0  0
 34 41  2  0  0  0  0
 34 35  1  0  0  0  0
 35 37  2  0  0  0  0
 36 35  1  0  0  0  0
 37 38  1  0  0  0  0
 38 39  1  0  0  0  0
 40 38  2  0  0  0  0
 41 40  1  0  0  0  0
M  END
>  <minimizedAffinity>
-7.30738258

$$$$

 OpenBabel03252507393D

 41 46  0  0  0  0  0  0  0  0999 V2000
   37.1500   31.2370   40.7400 C   0  0  0  0  0  0  0  0  0  0  0  0
   38.2340   30.6140   41.4200 C   0  0  0  0  0  0  0  0  0  0  0  0
   38.0290   29.3070   41.8400 C   0  0  0  0  0  0  0  0  0  0  0  0
   36.8610   28.7070   41.5960 N   0  0  0  0  0  0  0  0  0  0  0  0
   35.8480   29.3280   40.9450 C   0  0  0  0  0  0  0  0  0  0  0  0
   36.0080   30.5740   40.5300 N   0  0  0  0  0  0  0  0  0  0  0  0
   39.1720   31.0780   41.6230 H   0  0  0  0  0  0  0  0  0  0  0  0
   34.9640   28.7110   40.8230 H   0  0  0  0  0  0  0  0  0  0  0  0
   38.6240   27.4130   43.2540 C   0  0  0  0  0  0  0  0  0  0  0  0
   39.0620   28.5430   42.5550 C   0  0  0  0  0  0  0  0  0  0  0  0
   40.3860   28.8550   42.5860 C   0  0  0  0  0  0  0  0  0  0  0  0
   41.3170   28.1070   43.2750 C   0  0  0  0  0  0  0  0  0  0  0  0
   42.6490   28.2230   43.4430 N   0  0  0  0  0  0  0  0  0  0  0  0
   43.0600   27.1770   44.2410 C   0  0  0  0  0  0  0  0  0  0  0  0
   41.9820   26.4460   44.5450 N   0  0  0  0  0  0  0  0  0  0  0  0
   40.9050   26.9960   43.9650 C   0  0  0  0  0  0  0  0  0  0  0  0
   39.5660   26.6500   43.9540 C   0  0  0  0  0  0  0  0  0  0  0  0
   37.5940   27.0760   43.2950 H   0  0  0  0  0  0  0  0  0  0  0  0
   40.7100   29.7450   42.0320 H   0  0  0  0  0  0  0  0  0  0  0  0
   43.1800   29.0050   43.0020 H   0  0  0  0  0  0  0  0  0  0  0  0
   44.1200   27.1490   44.4580 H   0  0  0  0  0  0  0  0  0  0  0  0
   39.2790   25.7680   44.5110 H   0  0  0  0  0  0  0  0  0  0  0  0
   37.3410   32.5450   40.3140 O   0  0  0  0  0  0  0  0  0  0  0  0
   38.5740   32.9870   39.9160 C   0  0  0  0  0  0  0  0  0  0  0  0
   38.6810   34.2050   40.4870 C   0  0  0  0  0  0  0  0  0  0  0  0
   40.3880   34.7900   39.9170 S   0  0  0  0  0  0  0  0  0  0  0  0
   40.6070   33.1580   38.9680 C   0  0  0  0  0  0  0  0  0  0  0  0
   39.6430   32.6780   39.2130 N   0  0  0  0  0  0  0  0  0  0  0  0
   38.2890   35.0930   41.1430 H   0  0  0  0  0  0  0  0  0  0  0  0
   41.7060   32.6400   38.1430 N   0  0  0  0  0  0  0  0  0  0  0  0
   41.5340   31.7080   37.2130 C   0  0  0  0  0  0  0  0  0  0  0  0
   40.6140   31.2010   36.9230 H   0  0  0  0  0  0  0  0  0  0  0  0
   42.7610   31.5200   36.6990 N   0  0  0  0  0  0  0  0  0  0  0  0
   43.6400   32.3240   37.3100 C   0  0  0  0  0  0  0  0  0  0  0  0
   45.0080   32.5220   37.1630 C   0  0  0  0  0  0  0  0  0  0  0  0
   45.5820   31.9720   36.4400 H   0  0  0  0  0  0  0  0  0  0  0  0
   45.6740   33.4120   37.9190 N   0  0  0  0  0  0  0  0  0  0  0  0
   44.9930   34.1330   38.8490 C   0  0  0  0  0  0  0  0  0  0  0  0
   45.5290   34.8570   39.4660 H   0  0  0  0  0  0  0  0  0  0  0  0
   43.6520   33.9460   39.0010 N   0  0  0  0  0  0  0  0  0  0  0  0
   42.9620   33.0620   38.2570 C   0  0  0  0  0  0  0  0  0  0  0  0
  1  2  1  0  0  0  0
  2  7  1  0  0  0  0
  2  3  2  0  0  0  0
  3 10  1  0  0  0  0
  4  3  1  0  0  0  0
  5  4  2  0  0  0  0
  6  1  2  0  0  0  0
  6  5  1  0  0  0  0
  8  5  1  0  0  0  0
  9 18  1  0  0  0  0
  9 17  1  0  0  0  0
 10 11  1  0  0  0  0
 10  9  2  0  0  0  0
 11 12  2  0  0  0  0
 12 13  1  0  0  0  0
 12 16  1  0  0  0  0
 13 14  1  0  0  0  0
 14 21  1  0  0  0  0
 14 15  2  0  0  0  0
 16 15  1  0  0  0  0
 17 16  2  0  0  0  0
 17 22  1  0  0  0  0
 19 11  1  0  0  0  0
 20 13  1  0  0  0  0
 23  1  1  0  0  0  0
 24 23  1  0  0  0  0
 24 25  2  0  0  0  0
 25 29  1  0  0  0  0
 26 25  1  0  0  0  0
 27 28  2  0  0  0  0
 27 26  1  0  0  0  0
 28 24  1  0  0  0  0
 30 41  1  0  0  0  0
 30 27  1  0  0  0  0
 31 30  1  0  0  0  0
 32 31  1  0  0  0  0
 33 31  2  0  0  0  0
 33 34  1  0  0  0  0
 34 41  1  0  0  0  0
 35 34  2  0  0  0  0
 35 37  1  0  0  0  0
 36 35  1  0  0  0  0
 37 38  2  0  0  0  0
 38 40  1  0  0  0  0
 38 39  1  0  0  0  0
 41 40  2  0  0  0  0
M  END
>  <minimizedAffinity>
-7.30346012

$$$$

 OpenBabel03252507393D

 41 46  0  0  0  0  0  0  0  0999 V2000
   37.6890   27.5170   42.5770 C   0  0  0  0  0  0  0  0  0  0  0  0
   37.1950   26.4630   41.7590 C   0  0  0  0  0  0  0  0  0  0  0  0
   37.9440   25.2940   41.7400 C   0  0  0  0  0  0  0  0  0  0  0  0
   39.0610   25.2110   42.4680 N   0  0  0  0  0  0  0  0  0  0  0  0
   39.5050   26.2330   43.2380 C   0  0  0  0  0  0  0  0  0  0  0  0
   38.8160   27.3630   43.2790 N   0  0  0  0  0  0  0  0  0  0  0  0
   36.3060   26.5130   41.1720 H   0  0  0  0  0  0  0  0  0  0  0  0
   40.4250   26.0140   43.7680 H   0  0  0  0  0  0  0  0  0  0  0  0
   36.3040   24.1980   40.3110 C   0  0  0  0  0  0  0  0  0  0  0  0
   37.5520   24.1260   40.9390 C   0  0  0  0  0  0  0  0  0  0  0  0
   38.3010   23.0020   40.7720 C   0  0  0  0  0  0  0  0  0  0  0  0
   37.8860   21.9310   40.0100 C   0  0  0  0  0  0  0  0  0  0  0  0
   38.4470   20.7420   39.7110 N   0  0  0  0  0  0  0  0  0  0  0  0
   37.5670   20.0600   38.8980 C   0  0  0  0  0  0  0  0  0  0  0  0
   36.4930   20.8360   38.7160 N   0  0  0  0  0  0  0  0  0  0  0  0
   36.6660   21.9850   39.3870 C   0  0  0  0  0  0  0  0  0  0  0  0
   35.8790   23.1120   39.5360 C   0  0  0  0  0  0  0  0  0  0  0  0
   35.6290   25.0440   40.3780 H   0  0  0  0  0  0  0  0  0  0  0  0
   39.2770   22.9650   41.2720 H   0  0  0  0  0  0  0  0  0  0  0  0
   39.3870   20.4840   40.0820 H   0  0  0  0  0  0  0  0  0  0  0  0
   37.8960   19.0790   38.5800 H   0  0  0  0  0  0  0  0  0  0  0  0
   34.9220   23.1170   39.0300 H   0  0  0  0  0  0  0  0  0  0  0  0
   36.9490   28.6920   42.6060 O   0  0  0  0  0  0  0  0  0  0  0  0
   37.3660   29.8080   41.9310 C   0  0  0  0  0  0  0  0  0  0  0  0
   36.2790   30.1870   41.2270 C   0  0  0  0  0  0  0  0  0  0  0  0
   36.8860   31.7230   40.3040 S   0  0  0  0  0  0  0  0  0  0  0  0
   38.5900   31.5120   41.1190 C   0  0  0  0  0  0  0  0  0  0  0  0
   38.3890   30.6080   41.7220 N   0  0  0  0  0  0  0  0  0  0  0  0
   35.1640   30.0790   40.8820 H   0  0  0  0  0  0  0  0  0  0  0  0
   39.8330   32.2870   41.0140 N   0  0  0  0  0  0  0  0  0  0  0  0
   41.0280   31.7770   41.2860 C   0  0  0  0  0  0  0  0  0  0  0  0
   41.2760   30.7670   41.6130 H   0  0  0  0  0  0  0  0  0  0  0  0
   41.8820   32.7920   41.0700 N   0  0  0  0  0  0  0  0  0  0  0  0
   41.2060   33.8800   40.6780 C   0  0  0  0  0  0  0  0  0  0  0  0
   41.5970   35.1690   40.3340 C   0  0  0  0  0  0  0  0  0  0  0  0
   42.6300   35.4660   40.3500 H   0  0  0  0  0  0  0  0  0  0  0  0
   40.7010   36.1000   39.9650 N   0  0  0  0  0  0  0  0  0  0  0  0
   39.3820   35.7740   39.9300 C   0  0  0  0  0  0  0  0  0  0  0  0
   38.6500   36.5260   39.6320 H   0  0  0  0  0  0  0  0  0  0  0  0
   38.9880   34.5130   40.2650 N   0  0  0  0  0  0  0  0  0  0  0  0
   39.8640   33.5620   40.6370 C   0  0  0  0  0  0  0  0  0  0  0  0
  1 23  1  0  0  0  0
  1  6  1  0  0  0  0
  2  1  2  0  0  0  0
  3  2  1  0  0  0  0
  3  4  2  0  0  0  0
  4  5  1  0  0  0  0
  5  6  2  0  0  0  0
  5  8  1  0  0  0  0
  7  2  1  0  0  0  0
  9 18  1  0  0  0  0
  9 10  1  0  0  0  0
 10  3  1  0  0  0  0
 11 10  2  0  0  0  0
 11 19  1  0  0  0  0
 12 11  1  0  0  0  0
 13 12  1  0  0  0  0
 13 20  1  0  0  0  0
 14 13  1  0  0  0  0
 15 14  2  0  0  0  0
 15 16  1  0  0  0  0
 16 17  1  0  0  0  0
 16 12  2  0  0  0  0
 17  9  2  0  0  0  0
 21 14  1  0  0  0  0
 22 17  1  0  0  0  0
 24 23  1  0  0  0  0
 25 24  2  0  0  0  0
 26 27  1  0  0  0  0
 26 25  1  0  0  0  0
 27 28  2  0  0  0  0
 28 24  1  0  0  0  0
 29 25  1  0  0  0  0
 30 27  1  0  0  0  0
 30 31  1  0  0  0  0
 31 32  1  0  0  0  0
 33 31  2  0  0  0  0
 34 33  1  0  0  0  0
 35 36  1  0  0  0  0
 35 34  2  0  0  0  0
 37 35  1  0  0  0  0
 38 37  2  0  0  0  0
 38 40  1  0  0  0  0
 39 38  1  0  0  0  0
 40 41  2  0  0  0  0
 41 34  1  0  0  0  0
 41 30  1  0  0  0  0
M  END
>  <minimizedAffinity>
-7.1314559

$$$$

 OpenBabel03252507393D

 41 46  0  0  0  0  0  0  0  0999 V2000
   38.2540   32.9930   40.0000 C   0  0  0  0  0  0  0  0  0  0  0  0
   39.2660   32.3510   39.2320 C   0  0  0  0  0  0  0  0  0  0  0  0
   40.4180   33.0880   38.9910 C   0  0  0  0  0  0  0  0  0  0  0  0
   40.5240   34.3290   39.4740 N   0  0  0  0  0  0  0  0  0  0  0  0
   39.5420   34.9120   40.2020 C   0  0  0  0  0  0  0  0  0  0  0  0
   38.4300   34.2400   40.4510 N   0  0  0  0  0  0  0  0  0  0  0  0
   39.1970   31.3620   38.8400 H   0  0  0  0  0  0  0  0  0  0  0  0
   39.7760   35.9210   40.5220 H   0  0  0  0  0  0  0  0  0  0  0  0
   42.7760   33.1840   38.3880 C   0  0  0  0  0  0  0  0  0  0  0  0
   41.5430   32.5500   38.2130 C   0  0  0  0  0  0  0  0  0  0  0  0
   41.4670   31.5010   37.3490 C   0  0  0  0  0  0  0  0  0  0  0  0
   42.5530   31.0340   36.6400 C   0  0  0  0  0  0  0  0  0  0  0  0
   42.7100   30.0340   35.7490 N   0  0  0  0  0  0  0  0  0  0  0  0
   44.0320   30.0290   35.3590 C   0  0  0  0  0  0  0  0  0  0  0  0
   44.6550   31.0160   36.0120 N   0  0  0  0  0  0  0  0  0  0  0  0
   43.7700   31.6450   36.8000 C   0  0  0  0  0  0  0  0  0  0  0  0
   43.8820   32.7140   37.6700 C   0  0  0  0  0  0  0  0  0  0  0  0
   42.9470   34.0270   39.0500 H   0  0  0  0  0  0  0  0  0  0  0  0
   40.4900   31.0160   37.2260 H   0  0  0  0  0  0  0  0  0  0  0  0
   41.9060   29.4300   35.4730 H   0  0  0  0  0  0  0  0  0  0  0  0
   44.2980   29.2670   34.6380 H   0  0  0  0  0  0  0  0  0  0  0  0
   44.8580   33.1700   37.7690 H   0  0  0  0  0  0  0  0  0  0  0  0
   37.0960   32.2680   40.2490 O   0  0  0  0  0  0  0  0  0  0  0  0
   37.1520   30.9910   40.7370 C   0  0  0  0  0  0  0  0  0  0  0  0
   35.9200   30.4970   40.4970 C   0  0  0  0  0  0  0  0  0  0  0  0
   36.0280   28.7370   41.1840 S   0  0  0  0  0  0  0  0  0  0  0  0
   37.8330   29.0640   41.6800 C   0  0  0  0  0  0  0  0  0  0  0  0
   37.9290   30.1070   41.3280 N   0  0  0  0  0  0  0  0  0  0  0  0
   34.8220   30.5690   40.0930 H   0  0  0  0  0  0  0  0  0  0  0  0
   38.8410   28.2220   42.3360 N   0  0  0  0  0  0  0  0  0  0  0  0
   39.8800   28.7190   42.9970 C   0  0  0  0  0  0  0  0  0  0  0  0
   40.1460   29.7640   43.1550 H   0  0  0  0  0  0  0  0  0  0  0  0
   40.5450   27.6370   43.4360 N   0  0  0  0  0  0  0  0  0  0  0  0
   39.9130   26.5230   43.0440 C   0  0  0  0  0  0  0  0  0  0  0  0
   40.1720   25.1700   43.2260 C   0  0  0  0  0  0  0  0  0  0  0  0
   41.0290   24.8310   43.7790 H   0  0  0  0  0  0  0  0  0  0  0  0
   39.3620   24.2250   42.7180 N   0  0  0  0  0  0  0  0  0  0  0  0
   38.2660   24.6020   42.0100 C   0  0  0  0  0  0  0  0  0  0  0  0
   37.6040   23.8400   41.5950 H   0  0  0  0  0  0  0  0  0  0  0  0
   38.0020   25.9270   41.8260 N   0  0  0  0  0  0  0  0  0  0  0  0
   38.7960   26.8920   42.3240 C   0  0  0  0  0  0  0  0  0  0  0  0
  1 23  1  0  0  0  0
  1  6  1  0  0  0  0
  2  1  2  0  0  0  0
  3  2  1  0  0  0  0
  3  4  2  0  0  0  0
  4  5  1  0  0  0  0
  5  6  2  0  0  0  0
  5  8  1  0  0  0  0
  7  2  1  0  0  0  0
  9 18  1  0  0  0  0
 10  9  1  0  0  0  0
 10  3  1  0  0  0  0
 11 10  2  0  0  0  0
 12 16  2  0  0  0  0
 12 11  1  0  0  0  0
 13 12  1  0  0  0  0
 14 13  1  0  0  0  0
 14 15  2  0  0  0  0
 15 16  1  0  0  0  0
 16 17  1  0  0  0  0
 17 22  1  0  0  0  0
 17  9  2  0  0  0  0
 19 11  1  0  0  0  0
 20 13  1  0  0  0  0
 21 14  1  0  0  0  0
 23 24  1  0  0  0  0
 24 28  1  0  0  0  0
 25 24  2  0  0  0  0
 25 26  1  0  0  0  0
 26 27  1  0  0  0  0
 27 30  1  0  0  0  0
 28 27  2  0  0  0  0
 29 25  1  0  0  0  0
 30 31  1  0  0  0  0
 31 32  1  0  0  0  0
 31 33  2  0  0  0  0
 34 35  1  0  0  0  0
 34 33  1  0  0  0  0
 35 36  1  0  0  0  0
 37 35  2  0  0  0  0
 38 37  1  0  0  0  0
 39 38  1  0  0  0  0
 40 38  2  0  0  0  0
 40 41  1  0  0  0  0
 41 30  1  0  0  0  0
 41 34  2  0  0  0  0
M  END
>  <minimizedAffinity>
-7.1108284

$$$$

 OpenBabel03252507393D

 41 46  0  0  0  0  0  0  0  0999 V2000
   37.5800   32.2750   39.3310 C   0  0  0  0  0  0  0  0  0  0  0  0
   37.4680   31.1490   40.1940 C   0  0  0  0  0  0  0  0  0  0  0  0
   37.3310   29.9110   39.5770 C   0  0  0  0  0  0  0  0  0  0  0  0
   37.3110   29.8340   38.2440 N   0  0  0  0  0  0  0  0  0  0  0  0
   37.4200   30.9260   37.4500 C   0  0  0  0  0  0  0  0  0  0  0  0
   37.5510   32.1210   38.0030 N   0  0  0  0  0  0  0  0  0  0  0  0
   37.4820   31.1940   41.2580 H   0  0  0  0  0  0  0  0  0  0  0  0
   37.3860   30.7010   36.3900 H   0  0  0  0  0  0  0  0  0  0  0  0
   37.0870   28.8020   41.7330 C   0  0  0  0  0  0  0  0  0  0  0  0
   37.2040   28.6650   40.3460 C   0  0  0  0  0  0  0  0  0  0  0  0
   37.1970   27.4130   39.8120 C   0  0  0  0  0  0  0  0  0  0  0  0
   37.0790   26.2730   40.5780 C   0  0  0  0  0  0  0  0  0  0  0  0
   37.0490   24.9590   40.2750 N   0  0  0  0  0  0  0  0  0  0  0  0
   36.9130   24.2630   41.4570 C   0  0  0  0  0  0  0  0  0  0  0  0
   36.8620   25.1540   42.4530 N   0  0  0  0  0  0  0  0  0  0  0  0
   36.9620   26.3890   41.9390 C   0  0  0  0  0  0  0  0  0  0  0  0
   36.9660   27.6470   42.5140 C   0  0  0  0  0  0  0  0  0  0  0  0
   37.0820   29.7510   42.2590 H   0  0  0  0  0  0  0  0  0  0  0  0
   37.2900   27.3260   38.7220 H   0  0  0  0  0  0  0  0  0  0  0  0
   37.1230   24.6350   39.2870 H   0  0  0  0  0  0  0  0  0  0  0  0
   36.8750   23.1860   41.3580 H   0  0  0  0  0  0  0  0  0  0  0  0
   36.8730   27.6980   43.5910 H   0  0  0  0  0  0  0  0  0  0  0  0
   37.7180   33.5190   39.9330 O   0  0  0  0  0  0  0  0  0  0  0  0
   38.9530   34.0390   40.2090 C   0  0  0  0  0  0  0  0  0  0  0  0
   38.7420   35.3710   40.2540 C   0  0  0  0  0  0  0  0  0  0  0  0
   40.4640   36.0590   40.6310 S   0  0  0  0  0  0  0  0  0  0  0  0
   41.1460   34.2850   40.6490 C   0  0  0  0  0  0  0  0  0  0  0  0
   40.2140   33.7330   40.4330 N   0  0  0  0  0  0  0  0  0  0  0  0
   38.0700   36.3280   40.1870 H   0  0  0  0  0  0  0  0  0  0  0  0
   42.4950   33.7530   40.8750 N   0  0  0  0  0  0  0  0  0  0  0  0
   42.8890   32.5650   40.4300 C   0  0  0  0  0  0  0  0  0  0  0  0
   42.3180   31.8320   39.8590 H   0  0  0  0  0  0  0  0  0  0  0  0
   44.1640   32.4600   40.8410 N   0  0  0  0  0  0  0  0  0  0  0  0
   44.5180   33.5610   41.5150 C   0  0  0  0  0  0  0  0  0  0  0  0
   45.6960   33.9560   42.1390 C   0  0  0  0  0  0  0  0  0  0  0  0
   46.5670   33.3260   42.1440 H   0  0  0  0  0  0  0  0  0  0  0  0
   45.7970   35.1420   42.7630 N   0  0  0  0  0  0  0  0  0  0  0  0
   44.7230   35.9730   42.7850 C   0  0  0  0  0  0  0  0  0  0  0  0
   44.7990   36.9370   43.2910 H   0  0  0  0  0  0  0  0  0  0  0  0
   43.5620   35.5960   42.1770 N   0  0  0  0  0  0  0  0  0  0  0  0
   43.4350   34.4150   41.5450 C   0  0  0  0  0  0  0  0  0  0  0  0
  1 23  1  0  0  0  0
  1  2  1  0  0  0  0
  2  7  1  0  0  0  0
  3  2  2  0  0  0  0
  3 10  1  0  0  0  0
  4  3  1  0  0  0  0
  5  6  1  0  0  0  0
  5  4  2  0  0  0  0
  6  1  2  0  0  0  0
  8  5  1  0  0  0  0
  9 18  1  0  0  0  0
  9 17  1  0  0  0  0
 10  9  2  0  0  0  0
 11 10  1  0  0  0  0
 11 12  2  0  0  0  0
 12 16  1  0  0  0  0
 13 12  1  0  0  0  0
 13 14  1  0  0  0  0
 14 15  2  0  0  0  0
 16 15  1  0  0  0  0
 16 17  2  0  0  0  0
 17 22  1  0  0  0  0
 19 11  1  0  0  0  0
 20 13  1  0  0  0  0
 21 14  1  0  0  0  0
 23 24  1  0  0  0  0
 24 25  2  0  0  0  0
 24 28  1  0  0  0  0
 25 26  1  0  0  0  0
 26 27  1  0  0  0  0
 27 30  1  0  0  0  0
 28 27  2  0  0  0  0
 29 25  1  0  0  0  0
 30 41  1  0  0  0  0
 31 33  2  0  0  0  0
 31 30  1  0  0  0  0
 32 31  1  0  0  0  0
 33 34  1  0  0  0  0
 34 41  2  0  0  0  0
 34 35  1  0  0  0  0
 35 36  1  0  0  0  0
 35 37  2  0  0  0  0
 37 38  1  0  0  0  0
 38 39  1  0  0  0  0
 40 38  2  0  0  0  0
 41 40  1  0  0  0  0
M  END
>  <minimizedAffinity>
-7.09272194

$$$$

 OpenBabel03252507393D

 41 46  0  0  0  0  0  0  0  0999 V2000
   38.2120   32.7860   39.2860 C   0  0  0  0  0  0  0  0  0  0  0  0
   39.6040   32.6590   39.0140 C   0  0  0  0  0  0  0  0  0  0  0  0
   40.4070   33.7250   39.4000 C   0  0  0  0  0  0  0  0  0  0  0  0
   39.8570   34.7900   39.9900 N   0  0  0  0  0  0  0  0  0  0  0  0
   38.5270   34.8790   40.2350 C   0  0  0  0  0  0  0  0  0  0  0  0
   37.7320   33.8830   39.8810 N   0  0  0  0  0  0  0  0  0  0  0  0
   40.0580   31.8180   38.5450 H   0  0  0  0  0  0  0  0  0  0  0  0
   38.2340   35.8040   40.7190 H   0  0  0  0  0  0  0  0  0  0  0  0
   42.6570   33.9000   40.3170 C   0  0  0  0  0  0  0  0  0  0  0  0
   41.8600   33.7300   39.1800 C   0  0  0  0  0  0  0  0  0  0  0  0
   42.4710   33.5850   37.9730 C   0  0  0  0  0  0  0  0  0  0  0  0
   43.8400   33.5990   37.8200 C   0  0  0  0  0  0  0  0  0  0  0  0
   44.6480   33.4770   36.7470 N   0  0  0  0  0  0  0  0  0  0  0  0
   45.9490   33.5690   37.1930 C   0  0  0  0  0  0  0  0  0  0  0  0
   45.9150   33.7430   38.5190 N   0  0  0  0  0  0  0  0  0  0  0  0
   44.6370   33.7640   38.9240 C   0  0  0  0  0  0  0  0  0  0  0  0
   44.0480   33.9140   40.1660 C   0  0  0  0  0  0  0  0  0  0  0  0
   42.2730   34.0240   41.3250 H   0  0  0  0  0  0  0  0  0  0  0  0
   41.8280   33.4530   37.0930 H   0  0  0  0  0  0  0  0  0  0  0  0
   44.2530   33.3420   35.7910 H   0  0  0  0  0  0  0  0  0  0  0  0
   46.7080   33.4870   36.4260 H   0  0  0  0  0  0  0  0  0  0  0  0
   44.7090   34.0430   41.0130 H   0  0  0  0  0  0  0  0  0  0  0  0
   37.3970   31.7270   38.9060 O   0  0  0  0  0  0  0  0  0  0  0  0
   37.4100   30.5430   39.5920 C   0  0  0  0  0  0  0  0  0  0  0  0
   36.2740   29.9290   39.2010 C   0  0  0  0  0  0  0  0  0  0  0  0
   36.3170   28.3030   40.1660 S   0  0  0  0  0  0  0  0  0  0  0  0
   37.9700   28.8320   40.9420 C   0  0  0  0  0  0  0  0  0  0  0  0
   38.0890   29.8160   40.4540 N   0  0  0  0  0  0  0  0  0  0  0  0
   35.2780   29.8600   38.5880 H   0  0  0  0  0  0  0  0  0  0  0  0
   38.8610   28.1720   41.9050 N   0  0  0  0  0  0  0  0  0  0  0  0
   39.7230   28.8370   42.6660 C   0  0  0  0  0  0  0  0  0  0  0  0
   39.9060   29.9110   42.7030 H   0  0  0  0  0  0  0  0  0  0  0  0
   40.3320   27.8830   43.3900 N   0  0  0  0  0  0  0  0  0  0  0  0
   39.8420   26.6800   43.0660 C   0  0  0  0  0  0  0  0  0  0  0  0
   40.1170   25.3910   43.5060 C   0  0  0  0  0  0  0  0  0  0  0  0
   40.8590   25.2020   44.2610 H   0  0  0  0  0  0  0  0  0  0  0  0
   39.4680   24.3250   43.0090 N   0  0  0  0  0  0  0  0  0  0  0  0
   38.5210   24.5120   42.0520 C   0  0  0  0  0  0  0  0  0  0  0  0
   37.9910   23.6500   41.6450 H   0  0  0  0  0  0  0  0  0  0  0  0
   38.2430   25.7720   41.6130 N   0  0  0  0  0  0  0  0  0  0  0  0
   38.8780   26.8560   42.0950 C   0  0  0  0  0  0  0  0  0  0  0  0
  1  6  1  0  0  0  0
  2  1  2  0  0  0  0
  2  3  1  0  0  0  0
  3  4  2  0  0  0  0
  4  5  1  0  0  0  0
  5  8  1  0  0  0  0
  6  5  2  0  0  0  0
  7  2  1  0  0  0  0
  9 18  1  0  0  0  0
 10  3  1  0  0  0  0
 10  9  2  0  0  0  0
 11 10  1  0  0  0  0
 12 11  2  0  0  0  0
 12 16  1  0  0  0  0
 13 14  1  0  0  0  0
 13 12  1  0  0  0  0
 14 15  2  0  0  0  0
 15 16  1  0  0  0  0
 16 17  2  0  0  0  0
 17  9  1  0  0  0  0
 17 22  1  0  0  0  0
 19 11  1  0  0  0  0
 20 13  1  0  0  0  0
 21 14  1  0  0  0  0
 23  1  1  0  0  0  0
 23 24  1  0  0  0  0
 24 28  1  0  0  0  0
 25 24  2  0  0  0  0
 25 26  1  0  0  0  0
 26 27  1  0  0  0  0
 27 30  1  0  0  0  0
 28 27  2  0  0  0  0
 29 25  1  0  0  0  0
 30 41  1  0  0  0  0
 30 31  1  0  0  0  0
 31 32  1  0  0  0  0
 31 33  2  0  0  0  0
 34 33  1  0  0  0  0
 34 35  1  0  0  0  0
 35 36  1  0  0  0  0
 37 35  2  0  0  0  0
 38 37  1  0  0  0  0
 39 38  1  0  0  0  0
 40 38  2  0  0  0  0
 40 41  1  0  0  0  0
 41 34  2  0  0  0  0
M  END
>  <minimizedAffinity>
-6.90306664

$$$$

 OpenBabel03252507393D

 41 46  0  0  0  0  0  0  0  0999 V2000
   37.9110   27.5400   42.6040 C   0  0  0  0  0  0  0  0  0  0  0  0
   37.8820   26.5330   41.5980 C   0  0  0  0  0  0  0  0  0  0  0  0
   38.7720   25.4790   41.7540 C   0  0  0  0  0  0  0  0  0  0  0  0
   39.5920   25.4540   42.8080 N   0  0  0  0  0  0  0  0  0  0  0  0
   39.5950   26.4280   43.7490 C   0  0  0  0  0  0  0  0  0  0  0  0
   38.7600   27.4490   43.6320 N   0  0  0  0  0  0  0  0  0  0  0  0
   37.2340   26.5380   40.7510 H   0  0  0  0  0  0  0  0  0  0  0  0
   40.3170   26.2680   44.5420 H   0  0  0  0  0  0  0  0  0  0  0  0
   38.0560   23.2540   41.0680 C   0  0  0  0  0  0  0  0  0  0  0  0
   38.8500   24.3710   40.7910 C   0  0  0  0  0  0  0  0  0  0  0  0
   39.6280   24.3570   39.6740 C   0  0  0  0  0  0  0  0  0  0  0  0
   39.6670   23.2910   38.8010 C   0  0  0  0  0  0  0  0  0  0  0  0
   40.3450   23.0600   37.6600 N   0  0  0  0  0  0  0  0  0  0  0  0
   39.9880   21.8070   37.2100 C   0  0  0  0  0  0  0  0  0  0  0  0
   39.1060   21.2970   38.0760 N   0  0  0  0  0  0  0  0  0  0  0  0
   38.8940   22.1870   39.0570 C   0  0  0  0  0  0  0  0  0  0  0  0
   38.0930   22.1680   40.1840 C   0  0  0  0  0  0  0  0  0  0  0  0
   37.4020   23.1610   41.9280 H   0  0  0  0  0  0  0  0  0  0  0  0
   40.2430   25.2440   39.4740 H   0  0  0  0  0  0  0  0  0  0  0  0
   41.0010   23.7720   37.2720 H   0  0  0  0  0  0  0  0  0  0  0  0
   40.4660   21.4920   36.2910 H   0  0  0  0  0  0  0  0  0  0  0  0
   37.4980   21.2800   40.3520 H   0  0  0  0  0  0  0  0  0  0  0  0
   37.0260   28.6000   42.4600 O   0  0  0  0  0  0  0  0  0  0  0  0
   37.3980   29.7510   41.8200 C   0  0  0  0  0  0  0  0  0  0  0  0
   36.2750   30.1460   41.1850 C   0  0  0  0  0  0  0  0  0  0  0  0
   36.8210   31.7320   40.3080 S   0  0  0  0  0  0  0  0  0  0  0  0
   38.5630   31.5090   41.0360 C   0  0  0  0  0  0  0  0  0  0  0  0
   38.4010   30.5750   41.6040 N   0  0  0  0  0  0  0  0  0  0  0  0
   35.1480   30.0380   40.8840 H   0  0  0  0  0  0  0  0  0  0  0  0
   39.7900   32.3060   40.9120 N   0  0  0  0  0  0  0  0  0  0  0  0
   41.0030   31.8010   41.1070 C   0  0  0  0  0  0  0  0  0  0  0  0
   41.2780   30.7810   41.3740 H   0  0  0  0  0  0  0  0  0  0  0  0
   41.8330   32.8370   40.9000 N   0  0  0  0  0  0  0  0  0  0  0  0
   41.1270   33.9330   40.5900 C   0  0  0  0  0  0  0  0  0  0  0  0
   41.4860   35.2410   40.2890 C   0  0  0  0  0  0  0  0  0  0  0  0
   42.5140   35.5520   40.2730 H   0  0  0  0  0  0  0  0  0  0  0  0
   40.5620   36.1750   40.0050 N   0  0  0  0  0  0  0  0  0  0  0  0
   39.2470   35.8320   40.0130 C   0  0  0  0  0  0  0  0  0  0  0  0
   38.4930   36.5860   39.7830 H   0  0  0  0  0  0  0  0  0  0  0  0
   38.8840   34.5510   40.3060 N   0  0  0  0  0  0  0  0  0  0  0  0
   39.7880   33.5970   40.5940 C   0  0  0  0  0  0  0  0  0  0  0  0
  1  6  1  0  0  0  0
  2  3  1  0  0  0  0
  2  1  2  0  0  0  0
  3  4  2  0  0  0  0
  4  5  1  0  0  0  0
  5  8  1  0  0  0  0
  6  5  2  0  0  0  0
  7  2  1  0  0  0  0
  9 18  1  0  0  0  0
 10  9  1  0  0  0  0
 10  3  1  0  0  0  0
 11 10  2  0  0  0  0
 12 16  2  0  0  0  0
 12 11  1  0  0  0  0
 13 12  1  0  0  0  0
 14 13  1  0  0  0  0
 14 15  2  0  0  0  0
 15 16  1  0  0  0  0
 16 17  1  0  0  0  0
 17 22  1  0  0  0  0
 17  9  2  0  0  0  0
 19 11  1  0  0  0  0
 20 13  1  0  0  0  0
 21 14  1  0  0  0  0
 23  1  1  0  0  0  0
 24 23  1  0  0  0  0
 25 24  2  0  0  0  0
 26 27  1  0  0  0  0
 26 25  1  0  0  0  0
 27 28  2  0  0  0  0
 28 24  1  0  0  0  0
 29 25  1  0  0  0  0
 30 27  1  0  0  0  0
 30 31  1  0  0  0  0
 31 32  1  0  0  0  0
 33 31  2  0  0  0  0
 34 41  1  0  0  0  0
 34 33  1  0  0  0  0
 35 34  2  0  0  0  0
 36 35  1  0  0  0  0
 37 38  2  0  0  0  0
 37 35  1  0  0  0  0
 38 40  1  0  0  0  0
 39 38  1  0  0  0  0
 40 41  2  0  0  0  0
 41 30  1  0  0  0  0
M  END
>  <minimizedAffinity>
-6.86192131

$$$$

 OpenBabel03252507393D

 41 46  0  0  0  0  0  0  0  0999 V2000
   39.4730   32.4630   38.9410 C   0  0  0  0  0  0  0  0  0  0  0  0
   40.3610   33.0890   39.8600 C   0  0  0  0  0  0  0  0  0  0  0  0
   41.6640   33.2880   39.4210 C   0  0  0  0  0  0  0  0  0  0  0  0
   42.0170   32.8960   38.1940 N   0  0  0  0  0  0  0  0  0  0  0  0
   41.1460   32.3030   37.3420 C   0  0  0  0  0  0  0  0  0  0  0  0
   39.8970   32.0970   37.7270 N   0  0  0  0  0  0  0  0  0  0  0  0
   40.0960   33.4070   40.8420 H   0  0  0  0  0  0  0  0  0  0  0  0
   41.5820   32.0430   36.3830 H   0  0  0  0  0  0  0  0  0  0  0  0
   44.0120   33.7850   39.8400 C   0  0  0  0  0  0  0  0  0  0  0  0
   42.6860   33.9220   40.2660 C   0  0  0  0  0  0  0  0  0  0  0  0
   42.4380   34.6140   41.4110 C   0  0  0  0  0  0  0  0  0  0  0  0
   43.4340   35.1890   42.1700 C   0  0  0  0  0  0  0  0  0  0  0  0
   43.4240   35.9040   43.3130 N   0  0  0  0  0  0  0  0  0  0  0  0
   44.7310   36.2220   43.6160 C   0  0  0  0  0  0  0  0  0  0  0  0
   45.5100   35.7020   42.6620 N   0  0  0  0  0  0  0  0  0  0  0  0
   44.7390   35.0650   41.7670 C   0  0  0  0  0  0  0  0  0  0  0  0
   45.0270   34.3680   40.6090 C   0  0  0  0  0  0  0  0  0  0  0  0
   44.3190   33.2550   38.9460 H   0  0  0  0  0  0  0  0  0  0  0  0
   41.3910   34.7100   41.7270 H   0  0  0  0  0  0  0  0  0  0  0  0
   42.5290   36.1210   43.8020 H   0  0  0  0  0  0  0  0  0  0  0  0
   44.8680   36.8010   44.5200 H   0  0  0  0  0  0  0  0  0  0  0  0
   46.0680   34.2910   40.3240 H   0  0  0  0  0  0  0  0  0  0  0  0
   38.1670   32.2570   39.3670 O   0  0  0  0  0  0  0  0  0  0  0  0
   37.6940   30.9980   39.6170 C   0  0  0  0  0  0  0  0  0  0  0  0
   36.6300   30.8810   38.7960 C   0  0  0  0  0  0  0  0  0  0  0  0
   35.9970   29.1370   39.1680 S   0  0  0  0  0  0  0  0  0  0  0  0
   37.3970   28.9230   40.4360 C   0  0  0  0  0  0  0  0  0  0  0  0
   37.8840   29.9090   40.3330 N   0  0  0  0  0  0  0  0  0  0  0  0
   35.8890   31.2760   37.9790 H   0  0  0  0  0  0  0  0  0  0  0  0
   37.7650   27.8060   41.3140 N   0  0  0  0  0  0  0  0  0  0  0  0
   38.4720   27.9630   42.4270 C   0  0  0  0  0  0  0  0  0  0  0  0
   38.8740   28.8840   42.8500 H   0  0  0  0  0  0  0  0  0  0  0  0
   38.5900   26.7220   42.9270 N   0  0  0  0  0  0  0  0  0  0  0  0
   37.9660   25.8470   42.1270 C   0  0  0  0  0  0  0  0  0  0  0  0
   37.7880   24.4700   42.1800 C   0  0  0  0  0  0  0  0  0  0  0  0
   38.1920   23.8820   42.9840 H   0  0  0  0  0  0  0  0  0  0  0  0
   37.1030   23.8120   41.2290 N   0  0  0  0  0  0  0  0  0  0  0  0
   36.5730   24.5110   40.1910 C   0  0  0  0  0  0  0  0  0  0  0  0
   36.0170   23.9820   39.4150 H   0  0  0  0  0  0  0  0  0  0  0  0
   36.7410   25.8620   40.1290 N   0  0  0  0  0  0  0  0  0  0  0  0
   37.4220   26.5440   41.0680 C   0  0  0  0  0  0  0  0  0  0  0  0
  1 23  1  0  0  0  0
  1  2  1  0  0  0  0
  2  7  1  0  0  0  0
  3  2  2  0  0  0  0
  3 10  1  0  0  0  0
  4  3  1  0  0  0  0
  5  6  1  0  0  0  0
  5  4  2  0  0  0  0
  6  1  2  0  0  0  0
  8  5  1  0  0  0  0
  9 10  2  0  0  0  0
  9 17  1  0  0  0  0
 10 11  1  0  0  0  0
 11 19  1  0  0  0  0
 11 12  2  0  0  0  0
 12 13  1  0  0  0  0
 13 14  1  0  0  0  0
 13 20  1  0  0  0  0
 14 21  1  0  0  0  0
 15 14  2  0  0  0  0
 16 12  1  0  0  0  0
 16 15  1  0  0  0  0
 17 16  2  0  0  0  0
 18  9  1  0  0  0  0
 22 17  1  0  0  0  0
 23 24  1  0  0  0  0
 24 28  1  0  0  0  0
 25 26  1  0  0  0  0
 25 24  2  0  0  0  0
 26 27  1  0  0  0  0
 27 30  1  0  0  0  0
 28 27  2  0  0  0  0
 29 25  1  0  0  0  0
 30 31  1  0  0  0  0
 31 32  1  0  0  0  0
 31 33  2  0  0  0  0
 34 35  1  0  0  0  0
 34 33  1  0  0  0  0
 35 36  1  0  0  0  0
 37 35  2  0  0  0  0
 38 37  1  0  0  0  0
 39 38  1  0  0  0  0
 40 38  2  0  0  0  0
 40 41  1  0  0  0  0
 41 30  1  0  0  0  0
 41 34  2  0  0  0  0
M  END
>  <minimizedAffinity>
-6.80510807

$$$$
