
 OpenBabel03242519013D

 42 46  0  0  1  0  0  0  0  0999 V2000
   46.1990   33.8280   44.3380 C   0  0  1  0  0  0  0  0  0  0  0  0
   46.4980   32.4180   44.7640 C   0  0  0  0  0  0  0  0  0  0  0  0
   47.4880   33.0940   44.0650 C   0  0  1  0  0  0  0  0  0  0  0  0
   46.2240   34.6270   45.1080 H   0  0  0  0  0  0  0  0  0  0  0  0
   46.6150   32.2790   45.8830 H   0  0  0  0  0  0  0  0  0  0  0  0
   45.7930   31.6440   44.3950 H   0  0  0  0  0  0  0  0  0  0  0  0
   48.3290   33.6550   44.5320 H   0  0  0  0  0  0  0  0  0  0  0  0
   45.2000   34.0740   43.3010 C   0  0  0  0  0  0  0  0  0  0  0  0
   45.1110   35.3840   42.8050 C   0  0  0  0  0  0  0  0  0  0  0  0
   44.1500   35.6020   41.8010 C   0  0  0  0  0  0  0  0  0  0  0  0
   43.3910   34.5460   41.3930 N   0  0  0  0  0  0  0  0  0  0  0  0
   43.5230   33.2810   41.9180 C   0  0  0  0  0  0  0  0  0  0  0  0
   44.4430   33.0340   42.8900 N   0  0  0  0  0  0  0  0  0  0  0  0
   45.7330   36.1340   43.2240 H   0  0  0  0  0  0  0  0  0  0  0  0
   44.0500   36.5780   41.3980 H   0  0  0  0  0  0  0  0  0  0  0  0
   42.6860   32.2360   41.4340 N   0  0  0  0  0  0  0  0  0  0  0  0
   42.0420   31.3520   42.2170 C   0  0  0  0  0  0  0  0  0  0  0  0
   42.0870   31.3380   43.2900 H   0  0  0  0  0  0  0  0  0  0  0  0
   41.3420   30.5030   41.4300 N   0  0  0  0  0  0  0  0  0  0  0  0
   41.5830   30.9010   40.1530 C   0  0  0  0  0  0  0  0  0  0  0  0
   41.0650   30.3110   38.9970 C   0  0  0  0  0  0  0  0  0  0  0  0
   40.4040   29.4550   39.0460 H   0  0  0  0  0  0  0  0  0  0  0  0
   41.4630   30.9010   37.8540 N   0  0  0  0  0  0  0  0  0  0  0  0
   42.2870   31.9650   37.8270 C   0  0  0  0  0  0  0  0  0  0  0  0
   42.5780   32.4040   36.8780 H   0  0  0  0  0  0  0  0  0  0  0  0
   42.7820   32.5260   38.9570 N   0  0  0  0  0  0  0  0  0  0  0  0
   42.4290   31.9910   40.1370 C   0  0  0  0  0  0  0  0  0  0  0  0
   47.8920   32.6280   42.7120 C   0  0  0  0  0  0  0  0  0  0  0  0
   47.3790   31.4960   42.1250 C   0  0  0  0  0  0  0  0  0  0  0  0
   47.7500   31.0050   40.9040 C   0  0  0  0  0  0  0  0  0  0  0  0
   48.7120   31.6980   40.2060 C   0  0  0  0  0  0  0  0  0  0  0  0
   49.2580   32.8490   40.7640 C   0  0  0  0  0  0  0  0  0  0  0  0
   48.8390   33.2800   41.9910 C   0  0  0  0  0  0  0  0  0  0  0  0
   46.6110   30.9320   42.6670 H   0  0  0  0  0  0  0  0  0  0  0  0
   47.2900   30.1030   40.5200 H   0  0  0  0  0  0  0  0  0  0  0  0
   48.9720   31.2610   39.2320 H   0  0  0  0  0  0  0  0  0  0  0  0
   49.9940   33.2630   40.0850 H   0  0  0  0  0  0  0  0  0  0  0  0
   49.0380   35.6510   41.6820 C   0  0  0  0  0  0  0  0  0  0  0  0
   48.0200   35.3180   41.0740 O   0  0  0  0  0  0  0  0  0  0  0  0
   49.5920   34.4710   42.2950 N   0  0  0  0  0  0  0  0  0  0  0  0
   49.5920   36.5620   41.8610 H   0  0  0  0  0  0  0  0  0  0  0  0
   50.4430   34.3980   42.9060 H   0  0  0  0  0  0  0  0  0  0  0  0
  1  2  1  0  0  0  0
  1  4  1  1  0  0  0
  2  5  1  0  0  0  0
  3  1  1  0  0  0  0
  3  7  1  1  0  0  0
  3  2  1  0  0  0  0
  6  2  1  0  0  0  0
  8  1  1  0  0  0  0
  9 14  1  0  0  0  0
  9  8  2  0  0  0  0
 10  9  1  0  0  0  0
 11 10  2  0  0  0  0
 11 12  1  0  0  0  0
 12 13  2  0  0  0  0
 13  8  1  0  0  0  0
 15 10  1  0  0  0  0
 16 12  1  0  0  0  0
 16 17  1  0  0  0  0
 17 18  1  0  0  0  0
 19 17  2  0  0  0  0
 20 19  1  0  0  0  0
 21 22  1  0  0  0  0
 21 20  2  0  0  0  0
 23 21  1  0  0  0  0
 24 23  2  0  0  0  0
 24 26  1  0  0  0  0
 25 24  1  0  0  0  0
 26 27  2  0  0  0  0
 27 20  1  0  0  0  0
 27 16  1  0  0  0  0
 28  3  1  0  0  0  0
 29 34  1  0  0  0  0
 29 28  1  0  0  0  0
 30 29  2  0  0  0  0
 31 32  2  0  0  0  0
 31 30  1  0  0  0  0
 32 33  1  0  0  0  0
 33 40  1  0  0  0  0
 33 28  2  0  0  0  0
 35 30  1  0  0  0  0
 36 31  1  0  0  0  0
 37 32  1  0  0  0  0
 38 41  1  0  0  0  0
 38 40  1  0  0  0  0
 39 38  2  0  0  0  0
 40 42  1  0  0  0  0
M  END
>  <minimizedAffinity>
-5.13152504

>  <minimizedRMSD>
7.35521793

$$$$
