
 OpenBabel03242515593D

 31 34  0  0  0  0  0  0  0  0999 V2000
   44.8340   33.3360   41.1490 Cl  0  0  0  0  0  0  0  0  0  0  0  0
   46.3710   34.1360   41.0490 C   0  0  0  0  0  0  0  0  0  0  0  0
   46.8820   34.8110   42.1080 C   0  0  0  0  0  0  0  0  0  0  0  0
   48.1130   35.4120   41.9200 C   0  0  0  0  0  0  0  0  0  0  0  0
   48.7960   35.3460   40.7430 C   0  0  0  0  0  0  0  0  0  0  0  0
   48.2760   34.6660   39.6840 C   0  0  0  0  0  0  0  0  0  0  0  0
   47.0480   34.0570   39.8460 C   0  0  0  0  0  0  0  0  0  0  0  0
   48.5530   35.9600   42.7460 H   0  0  0  0  0  0  0  0  0  0  0  0
   49.7610   35.8440   40.6700 H   0  0  0  0  0  0  0  0  0  0  0  0
   48.8340   34.6240   38.7570 H   0  0  0  0  0  0  0  0  0  0  0  0
   46.5390   33.3570   38.7120 N   0  0  0  0  0  0  0  0  0  0  0  0
   45.2910   32.8470   38.7380 C   0  0  0  0  0  0  0  0  0  0  0  0
   44.4670   32.8170   39.4670 H   0  0  0  0  0  0  0  0  0  0  0  0
   44.9980   32.2250   37.5770 N   0  0  0  0  0  0  0  0  0  0  0  0
   46.0800   32.3340   36.7820 C   0  0  0  0  0  0  0  0  0  0  0  0
   46.4130   31.9230   35.5010 C   0  0  0  0  0  0  0  0  0  0  0  0
   45.6330   31.3780   34.9940 H   0  0  0  0  0  0  0  0  0  0  0  0
   47.6430   32.2190   35.0000 N   0  0  0  0  0  0  0  0  0  0  0  0
   48.5240   32.9180   35.7680 C   0  0  0  0  0  0  0  0  0  0  0  0
   49.4440   33.0710   35.2350 H   0  0  0  0  0  0  0  0  0  0  0  0
   48.2480   33.3470   37.0330 N   0  0  0  0  0  0  0  0  0  0  0  0
   47.0260   33.0370   37.4990 C   0  0  0  0  0  0  0  0  0  0  0  0
   44.4800   35.9030   44.8240 C   0  0  0  0  0  0  0  0  0  0  0  0
   45.1990   35.8740   43.6180 C   0  0  0  0  0  0  0  0  0  0  0  0
   46.1290   34.8610   43.3450 C   0  0  0  0  0  0  0  0  0  0  0  0
   46.2720   33.9400   44.3130 N   0  0  0  0  0  0  0  0  0  0  0  0
   45.5840   33.9710   45.4630 C   0  0  0  0  0  0  0  0  0  0  0  0
   44.6880   34.9490   45.7240 N   0  0  0  0  0  0  0  0  0  0  0  0
   43.7650   36.6890   45.0220 H   0  0  0  0  0  0  0  0  0  0  0  0
   45.0290   36.6570   42.8790 H   0  0  0  0  0  0  0  0  0  0  0  0
   45.7850   33.1710   46.1680 H   0  0  0  0  0  0  0  0  0  0  0  0
  2  1  1  0  0  0  0
  2  3  1  0  0  0  0
  3 25  1  0  0  0  0
  4  3  2  0  0  0  0
  4  8  1  0  0  0  0
  5  4  1  0  0  0  0
  6  7  1  0  0  0  0
  6  5  2  0  0  0  0
  7  2  2  0  0  0  0
  9  5  1  0  0  0  0
 10  6  1  0  0  0  0
 11 12  1  0  0  0  0
 11  7  1  0  0  0  0
 12 13  1  0  0  0  0
 14 12  2  0  0  0  0
 15 22  1  0  0  0  0
 15 14  1  0  0  0  0
 16 15  2  0  0  0  0
 17 16  1  0  0  0  0
 18 16  1  0  0  0  0
 18 19  2  0  0  0  0
 19 21  1  0  0  0  0
 20 19  1  0  0  0  0
 21 22  2  0  0  0  0
 22 11  1  0  0  0  0
 23 29  1  0  0  0  0
 23 28  1  0  0  0  0
 24 23  2  0  0  0  0
 25 24  1  0  0  0  0
 25 26  2  0  0  0  0
 26 27  1  0  0  0  0
 27 28  2  0  0  0  0
 27 31  1  0  0  0  0
 30 24  1  0  0  0  0
M  END
>  <minimizedAffinity>
-6.33639669

>  <minimizedRMSD>
0.417900413

$$$$
