
 OpenBabel03252507313D

 52 56  0  0  1  0  0  0  0  0999 V2000
   46.9400   32.8160   45.4770 C   0  0  0  0  0  0  0  0  0  0  0  0
   45.8380   33.4850   45.9860 C   0  0  0  0  0  0  0  0  0  0  0  0
   45.1580   34.4300   45.1830 C   0  0  0  0  0  0  0  0  0  0  0  0
   45.6630   34.6270   43.8990 N   0  0  0  0  0  0  0  0  0  0  0  0
   46.7320   33.9500   43.4700 C   0  0  0  0  0  0  0  0  0  0  0  0
   47.3600   33.0610   44.2410 N   0  0  0  0  0  0  0  0  0  0  0  0
   45.3160   33.5200   46.9200 H   0  0  0  0  0  0  0  0  0  0  0  0
   44.3100   35.0250   45.4000 H   0  0  0  0  0  0  0  0  0  0  0  0
   47.2250   34.2180   42.1150 C   0  0  0  0  0  0  0  0  0  0  0  0
   48.2240   35.1380   41.8930 C   0  0  0  0  0  0  0  0  0  0  0  0
   48.7540   35.4570   40.6610 C   0  0  0  0  0  0  0  0  0  0  0  0
   48.1970   34.7670   39.6140 C   0  0  0  0  0  0  0  0  0  0  0  0
   47.1830   33.8280   39.8090 C   0  0  0  0  0  0  0  0  0  0  0  0
   46.7050   33.5620   41.0650 N   0  0  0  0  0  0  0  0  0  0  0  0
   48.6160   35.6460   42.7800 H   0  0  0  0  0  0  0  0  0  0  0  0
   49.5330   36.1770   40.5050 H   0  0  0  0  0  0  0  0  0  0  0  0
   48.5190   34.9190   38.5930 H   0  0  0  0  0  0  0  0  0  0  0  0
   46.6420   33.1410   38.6830 N   0  0  0  0  0  0  0  0  0  0  0  0
   46.6210   33.4200   37.3490 C   0  0  0  0  0  0  0  0  0  0  0  0
   47.0820   34.3210   36.9630 H   0  0  0  0  0  0  0  0  0  0  0  0
   45.9710   32.4270   36.7050 N   0  0  0  0  0  0  0  0  0  0  0  0
   45.5690   31.5050   37.6100 C   0  0  0  0  0  0  0  0  0  0  0  0
   44.8720   30.3130   37.4710 C   0  0  0  0  0  0  0  0  0  0  0  0
   44.5470   29.9710   36.4900 H   0  0  0  0  0  0  0  0  0  0  0  0
   44.5890   29.5580   38.5480 N   0  0  0  0  0  0  0  0  0  0  0  0
   45.0180   30.0300   39.7540 C   0  0  0  0  0  0  0  0  0  0  0  0
   44.8430   29.4970   40.7020 H   0  0  0  0  0  0  0  0  0  0  0  0
   45.6960   31.1810   39.9350 N   0  0  0  0  0  0  0  0  0  0  0  0
   45.9920   31.9540   38.8660 C   0  0  0  0  0  0  0  0  0  0  0  0
   47.5860   31.8400   46.3310 C   0  0  2  0  0  0  0  0  0  0  0  0
   47.3530   30.3900   45.8230 C   0  0  0  0  0  0  0  0  0  0  0  0
   48.1670   29.4410   46.6360 C   0  0  0  0  0  0  0  0  0  0  0  0
   48.1440   29.6610   48.1110 C   0  0  0  0  0  0  0  0  0  0  0  0
   48.1360   31.0500   48.5070 C   0  0  0  0  0  0  0  0  0  0  0  0
   47.1370   31.9170   47.7070 C   0  0  2  0  0  0  0  0  0  0  0  0
   48.6840   31.9570   46.2200 H   0  0  0  0  0  0  0  0  0  0  0  0
   46.3030   30.1100   45.8410 H   0  0  0  0  0  0  0  0  0  0  0  0
   47.6880   30.3630   44.7670 H   0  0  0  0  0  0  0  0  0  0  0  0
   49.1620   29.4010   46.1550 H   0  0  0  0  0  0  0  0  0  0  0  0
   47.7440   28.4080   46.4630 H   0  0  0  0  0  0  0  0  0  0  0  0
   47.7700   28.8620   48.7480 H   0  0  0  0  0  0  0  0  0  0  0  0
   49.2570   29.4120   48.3450 H   0  0  0  0  0  0  0  0  0  0  0  0
   49.0890   31.6290   48.4500 H   0  0  0  0  0  0  0  0  0  0  0  0
   47.8180   31.1760   49.5790 H   0  0  0  0  0  0  0  0  0  0  0  0
   47.2490   32.8780   48.2100 H   0  0  0  0  0  0  0  0  0  0  0  0
   45.8030   31.3280   47.8320 N   0  0  0  0  0  0  0  0  0  0  0  0
   45.1400   30.7370   48.9210 C   0  0  0  0  0  0  0  0  0  0  0  0
   44.6200   31.4190   49.8770 O   0  0  0  0  0  0  0  0  0  0  0  0
   45.0830   29.3100   48.8810 N   0  0  0  0  0  0  0  0  0  0  0  0
   45.1420   31.2210   46.9740 H   0  0  0  0  0  0  0  0  0  0  0  0
   44.7550   28.6830   48.1260 H   0  0  0  0  0  0  0  0  0  0  0  0
   45.4060   28.7430   49.7030 H   0  0  0  0  0  0  0  0  0  0  0  0
  1  2  1  0  0  0  0
  1 30  1  0  0  0  0
  2  7  1  0  0  0  0
  3  8  1  0  0  0  0
  3  2  2  0  0  0  0
  4  3  1  0  0  0  0
  5  4  2  0  0  0  0
  5  6  1  0  0  0  0
  6  1  2  0  0  0  0
  9  5  1  0  0  0  0
 10  9  1  0  0  0  0
 10 15  1  0  0  0  0
 11 10  2  0  0  0  0
 12 13  2  0  0  0  0
 12 11  1  0  0  0  0
 13 14  1  0  0  0  0
 14  9  2  0  0  0  0
 16 11  1  0  0  0  0
 17 12  1  0  0  0  0
 18 29  1  0  0  0  0
 18 13  1  0  0  0  0
 19 18  1  0  0  0  0
 20 19  1  0  0  0  0
 21 19  2  0  0  0  0
 21 22  1  0  0  0  0
 22 29  1  0  0  0  0
 23 22  2  0  0  0  0
 23 25  1  0  0  0  0
 24 23  1  0  0  0  0
 25 26  2  0  0  0  0
 26 28  1  0  0  0  0
 26 27  1  0  0  0  0
 29 28  2  0  0  0  0
 30 36  1  6  0  0  0
 30 35  1  0  0  0  0
 31 37  1  0  0  0  0
 31 30  1  0  0  0  0
 31 32  1  0  0  0  0
 32 33  1  0  0  0  0
 33 42  1  0  0  0  0
 33 34  1  0  0  0  0
 33 41  1  0  0  0  0
 34 44  1  0  0  0  0
 35 46  1  0  0  0  0
 35 45  1  1  0  0  0
 35 34  1  0  0  0  0
 38 31  1  0  0  0  0
 39 32  1  0  0  0  0
 40 32  1  0  0  0  0
 43 34  1  0  0  0  0
 46 47  1  0  0  0  0
 47 48  2  0  0  0  0
 49 47  1  0  0  0  0
 49 52  1  0  0  0  0
 50 46  1  0  0  0  0
 51 49  1  0  0  0  0
M  END
>  <minimizedAffinity>
-6.77776384

>  <minimizedRMSD>
0.155995101

$$$$
