
 OpenBabel03252502003D

 37 41  0  0  0  0  0  0  0  0999 V2000
   47.6560   32.3300   48.2140 C   0  0  0  0  0  0  0  0  0  0  0  0
   47.2970   31.0030   48.3090 C   0  0  0  0  0  0  0  0  0  0  0  0
   46.4150   30.5510   47.3720 C   0  0  0  0  0  0  0  0  0  0  0  0
   45.9420   31.3750   46.4250 N   0  0  0  0  0  0  0  0  0  0  0  0
   46.2950   32.6600   46.3410 C   0  0  0  0  0  0  0  0  0  0  0  0
   47.1540   33.0990   47.2520 N   0  0  0  0  0  0  0  0  0  0  0  0
   48.3670   32.6910   48.9690 H   0  0  0  0  0  0  0  0  0  0  0  0
   45.9750   29.2280   47.3640 N   0  0  0  0  0  0  0  0  0  0  0  0
   44.7290   28.7190   47.3480 C   0  0  0  0  0  0  0  0  0  0  0  0
   43.8190   29.3050   47.3380 H   0  0  0  0  0  0  0  0  0  0  0  0
   44.7810   27.3740   47.3460 N   0  0  0  0  0  0  0  0  0  0  0  0
   46.0700   26.9930   47.3600 C   0  0  0  0  0  0  0  0  0  0  0  0
   46.6700   25.7490   47.3640 C   0  0  0  0  0  0  0  0  0  0  0  0
   46.0410   24.8620   47.3550 H   0  0  0  0  0  0  0  0  0  0  0  0
   48.0140   25.7240   47.3810 N   0  0  0  0  0  0  0  0  0  0  0  0
   48.7610   26.8510   47.3930 C   0  0  0  0  0  0  0  0  0  0  0  0
   49.8520   26.7630   47.4050 H   0  0  0  0  0  0  0  0  0  0  0  0
   48.1570   28.0420   47.3880 N   0  0  0  0  0  0  0  0  0  0  0  0
   46.8010   28.1400   47.3710 C   0  0  0  0  0  0  0  0  0  0  0  0
   45.9090   33.7230   45.4030 C   0  0  0  0  0  0  0  0  0  0  0  0
   44.9320   34.6250   45.6560 N   0  0  0  0  0  0  0  0  0  0  0  0
   44.5520   35.6010   44.8360 C   0  0  0  0  0  0  0  0  0  0  0  0
   45.1640   35.7410   43.6420 N   0  0  0  0  0  0  0  0  0  0  0  0
   46.1550   34.9040   43.2710 C   0  0  0  0  0  0  0  0  0  0  0  0
   46.7790   35.0530   42.0450 C   0  0  0  0  0  0  0  0  0  0  0  0
   47.7860   34.2080   41.6640 C   0  0  0  0  0  0  0  0  0  0  0  0
   48.1480   33.2130   42.5410 C   0  0  0  0  0  0  0  0  0  0  0  0
   47.5060   33.0960   43.7470 C   0  0  0  0  0  0  0  0  0  0  0  0
   46.4940   33.9150   44.1760 C   0  0  0  0  0  0  0  0  0  0  0  0
   43.7560   36.2670   45.1420 H   0  0  0  0  0  0  0  0  0  0  0  0
   46.4730   35.8470   41.3730 H   0  0  0  0  0  0  0  0  0  0  0  0
   48.3050   34.2800   40.7200 H   0  0  0  0  0  0  0  0  0  0  0  0
   48.9370   32.5170   42.2900 H   0  0  0  0  0  0  0  0  0  0  0  0
   47.8310   32.2880   44.4100 H   0  0  0  0  0  0  0  0  0  0  0  0
   47.8260   30.1860   49.3250 N   0  0  0  0  0  0  0  0  0  0  0  0
   47.3310   30.0240   50.2280 H   0  0  0  0  0  0  0  0  0  0  0  0
   48.7370   29.6560   49.3260 H   0  0  0  0  0  0  0  0  0  0  0  0
  1  2  1  0  0  0  0
  1  7  1  0  0  0  0
  2 35  1  0  0  0  0
  3  2  2  0  0  0  0
  4  3  1  0  0  0  0
  5  4  2  0  0  0  0
  5  6  1  0  0  0  0
  6  1  2  0  0  0  0
  8 19  1  0  0  0  0
  8  3  1  0  0  0  0
  9  8  1  0  0  0  0
 10  9  1  0  0  0  0
 11  9  2  0  0  0  0
 11 12  1  0  0  0  0
 12 13  2  0  0  0  0
 12 19  1  0  0  0  0
 13 15  1  0  0  0  0
 14 13  1  0  0  0  0
 15 16  2  0  0  0  0
 16 17  1  0  0  0  0
 18 16  1  0  0  0  0
 19 18  2  0  0  0  0
 20 21  1  0  0  0  0
 20  5  1  0  0  0  0
 22 30  1  0  0  0  0
 22 21  2  0  0  0  0
 23 22  1  0  0  0  0
 24 23  2  0  0  0  0
 24 29  1  0  0  0  0
 25 24  1  0  0  0  0
 26 25  2  0  0  0  0
 26 27  1  0  0  0  0
 27 28  2  0  0  0  0
 28 29  1  0  0  0  0
 28 34  1  0  0  0  0
 29 20  2  0  0  0  0
 31 25  1  0  0  0  0
 32 26  1  0  0  0  0
 33 27  1  0  0  0  0
 35 37  1  0  0  0  0
 35 36  1  0  0  0  0
M  END
>  <minimizedAffinity>
-6.78892946

>  <minimizedRMSD>
0.055432342

$$$$
