
 OpenBabel03242520243D

 27 29  0  0  0  0  0  0  0  0999 V2000
   44.8820   35.0510   45.2900 C   0  0  0  0  0  0  0  0  0  0  0  0
   45.7780   34.2400   44.5730 C   0  0  0  0  0  0  0  0  0  0  0  0
   46.2340   34.6980   43.3500 C   0  0  0  0  0  0  0  0  0  0  0  0
   45.7980   35.9110   42.8910 N   0  0  0  0  0  0  0  0  0  0  0  0
   44.9360   36.6720   43.5990 C   0  0  0  0  0  0  0  0  0  0  0  0
   44.4780   36.2420   44.7990 N   0  0  0  0  0  0  0  0  0  0  0  0
   44.5000   34.7480   46.2350 H   0  0  0  0  0  0  0  0  0  0  0  0
   44.7180   37.5780   43.0730 H   0  0  0  0  0  0  0  0  0  0  0  0
   46.1630   32.9980   45.1490 N   0  0  0  0  0  0  0  0  0  0  0  0
   46.8940   32.8700   46.2720 C   0  0  0  0  0  0  0  0  0  0  0  0
   47.3040   33.6390   46.9120 H   0  0  0  0  0  0  0  0  0  0  0  0
   47.0980   31.5930   46.5690 N   0  0  0  0  0  0  0  0  0  0  0  0
   46.4960   30.8460   45.6340 C   0  0  0  0  0  0  0  0  0  0  0  0
   46.3700   29.4740   45.4210 C   0  0  0  0  0  0  0  0  0  0  0  0
   46.8430   28.8150   46.1410 H   0  0  0  0  0  0  0  0  0  0  0  0
   45.6670   29.0680   44.3350 N   0  0  0  0  0  0  0  0  0  0  0  0
   45.1120   29.9580   43.4930 C   0  0  0  0  0  0  0  0  0  0  0  0
   44.5660   29.5300   42.6470 H   0  0  0  0  0  0  0  0  0  0  0  0
   45.2140   31.2960   43.6660 N   0  0  0  0  0  0  0  0  0  0  0  0
   45.9150   31.7370   44.7510 C   0  0  0  0  0  0  0  0  0  0  0  0
   47.1210   33.8910   42.6480 O   0  0  0  0  0  0  0  0  0  0  0  0
   48.0990   34.7770   40.3560 O   0  0  0  0  0  0  0  0  0  0  0  0
   47.0400   33.8460   40.9300 P   0  0  0  0  0  0  0  0  0  0  0  0
   47.2610   32.2590   40.4260 O   0  0  0  0  0  0  0  0  0  0  0  0
   47.1230   32.1580   39.4540 H   0  0  0  0  0  0  0  0  0  0  0  0
   45.5130   34.4160   40.4830 O   0  0  0  0  0  0  0  0  0  0  0  0
   45.5900   35.4000   40.4060 H   0  0  0  0  0  0  0  0  0  0  0  0
  1  7  1  0  0  0  0
  2  9  1  0  0  0  0
  2  1  2  0  0  0  0
  3  2  1  0  0  0  0
  4  3  2  0  0  0  0
  4  5  1  0  0  0  0
  5  6  2  0  0  0  0
  6  1  1  0  0  0  0
  8  5  1  0  0  0  0
  9 10  1  0  0  0  0
 10 12  2  0  0  0  0
 10 11  1  0  0  0  0
 13 12  1  0  0  0  0
 14 13  1  0  0  0  0
 14 15  1  0  0  0  0
 16 14  2  0  0  0  0
 17 19  2  0  0  0  0
 17 16  1  0  0  0  0
 18 17  1  0  0  0  0
 19 20  1  0  0  0  0
 20  9  1  0  0  0  0
 20 13  2  0  0  0  0
 21  3  1  0  0  0  0
 22 23  2  0  0  0  0
 23 21  1  0  0  0  0
 24 23  1  0  0  0  0
 25 24  1  0  0  0  0
 26 23  1  0  0  0  0
 27 26  1  0  0  0  0
M  END
>  <minimizedAffinity>
-4.41622114

>  <minimizedRMSD>
6.43574619

$$$$
