
 OpenBabel03252507313D

 52 56  0  0  1  0  0  0  0  0999 V2000
   46.9680   32.7810   45.4170 C   0  0  0  0  0  0  0  0  0  0  0  0
   45.8540   33.4370   45.9170 C   0  0  0  0  0  0  0  0  0  0  0  0
   45.1870   34.3940   45.1180 C   0  0  0  0  0  0  0  0  0  0  0  0
   45.7150   34.6150   43.8480 N   0  0  0  0  0  0  0  0  0  0  0  0
   46.7950   33.9490   43.4270 C   0  0  0  0  0  0  0  0  0  0  0  0
   47.4110   33.0490   44.1940 N   0  0  0  0  0  0  0  0  0  0  0  0
   45.3140   33.4540   46.8410 H   0  0  0  0  0  0  0  0  0  0  0  0
   44.3320   34.9830   45.3280 H   0  0  0  0  0  0  0  0  0  0  0  0
   47.3140   34.2430   42.0870 C   0  0  0  0  0  0  0  0  0  0  0  0
   48.2630   35.2200   41.8930 C   0  0  0  0  0  0  0  0  0  0  0  0
   48.8110   35.5660   40.6760 C   0  0  0  0  0  0  0  0  0  0  0  0
   48.3290   34.8430   39.6150 C   0  0  0  0  0  0  0  0  0  0  0  0
   47.3650   33.8460   39.7830 C   0  0  0  0  0  0  0  0  0  0  0  0
   46.8660   33.5560   41.0240 N   0  0  0  0  0  0  0  0  0  0  0  0
   48.5970   35.7520   42.7890 H   0  0  0  0  0  0  0  0  0  0  0  0
   49.5520   36.3310   40.5420 H   0  0  0  0  0  0  0  0  0  0  0  0
   48.6720   35.0110   38.6040 H   0  0  0  0  0  0  0  0  0  0  0  0
   46.9000   33.1260   38.6430 N   0  0  0  0  0  0  0  0  0  0  0  0
   46.6630   33.4890   37.3510 C   0  0  0  0  0  0  0  0  0  0  0  0
   46.8300   34.5060   37.0200 H   0  0  0  0  0  0  0  0  0  0  0  0
   46.2250   32.4100   36.6680 N   0  0  0  0  0  0  0  0  0  0  0  0
   46.1750   31.3490   37.5050 C   0  0  0  0  0  0  0  0  0  0  0  0
   45.8000   30.0280   37.3060 C   0  0  0  0  0  0  0  0  0  0  0  0
   45.4690   29.6860   36.3280 H   0  0  0  0  0  0  0  0  0  0  0  0
   45.8390   29.1470   38.3210 N   0  0  0  0  0  0  0  0  0  0  0  0
   46.2620   29.6240   39.5290 C   0  0  0  0  0  0  0  0  0  0  0  0
   46.3330   28.9940   40.4300 H   0  0  0  0  0  0  0  0  0  0  0  0
   46.6350   30.8970   39.7660 N   0  0  0  0  0  0  0  0  0  0  0  0
   46.6030   31.8000   38.7590 C   0  0  0  0  0  0  0  0  0  0  0  0
   47.6010   31.7920   46.2670 C   0  0  2  0  0  0  0  0  0  0  0  0
   47.3130   30.3450   45.7760 C   0  0  0  0  0  0  0  0  0  0  0  0
   48.1130   29.3790   46.5810 C   0  0  0  0  0  0  0  0  0  0  0  0
   48.1270   29.6110   48.0540 C   0  0  0  0  0  0  0  0  0  0  0  0
   48.1710   31.0020   48.4380 C   0  0  0  0  0  0  0  0  0  0  0  0
   47.1830   31.8940   47.6510 C   0  0  2  0  0  0  0  0  0  0  0  0
   48.7000   31.8740   46.1320 H   0  0  0  0  0  0  0  0  0  0  0  0
   46.2540   30.0990   45.8180 H   0  0  0  0  0  0  0  0  0  0  0  0
   47.6250   30.3000   44.7140 H   0  0  0  0  0  0  0  0  0  0  0  0
   49.0970   29.3030   46.0790 H   0  0  0  0  0  0  0  0  0  0  0  0
   47.6550   28.3580   46.4250 H   0  0  0  0  0  0  0  0  0  0  0  0
   47.7420   28.8280   48.7050 H   0  0  0  0  0  0  0  0  0  0  0  0
   49.2360   29.3280   48.2680 H   0  0  0  0  0  0  0  0  0  0  0  0
   49.1400   31.5510   48.3570 H   0  0  0  0  0  0  0  0  0  0  0  0
   47.8790   31.1460   49.5150 H   0  0  0  0  0  0  0  0  0  0  0  0
   47.3350   32.8540   48.1440 H   0  0  0  0  0  0  0  0  0  0  0  0
   45.8340   31.3480   47.8080 N   0  0  0  0  0  0  0  0  0  0  0  0
   45.1800   30.7760   48.9130 C   0  0  0  0  0  0  0  0  0  0  0  0
   44.7050   31.4730   49.8810 O   0  0  0  0  0  0  0  0  0  0  0  0
   45.0760   29.3520   48.8730 N   0  0  0  0  0  0  0  0  0  0  0  0
   45.1490   31.2640   46.9660 H   0  0  0  0  0  0  0  0  0  0  0  0
   44.7090   28.7380   48.1250 H   0  0  0  0  0  0  0  0  0  0  0  0
   45.4000   28.7740   49.6860 H   0  0  0  0  0  0  0  0  0  0  0  0
  1  2  1  0  0  0  0
  1 30  1  0  0  0  0
  2  7  1  0  0  0  0
  3  8  1  0  0  0  0
  3  2  2  0  0  0  0
  4  3  1  0  0  0  0
  5  4  2  0  0  0  0
  5  6  1  0  0  0  0
  6  1  2  0  0  0  0
  9  5  1  0  0  0  0
 10  9  1  0  0  0  0
 10 15  1  0  0  0  0
 11 10  2  0  0  0  0
 12 13  2  0  0  0  0
 12 11  1  0  0  0  0
 13 14  1  0  0  0  0
 14  9  2  0  0  0  0
 16 11  1  0  0  0  0
 17 12  1  0  0  0  0
 18 29  1  0  0  0  0
 18 13  1  0  0  0  0
 19 18  1  0  0  0  0
 20 19  1  0  0  0  0
 21 19  2  0  0  0  0
 21 22  1  0  0  0  0
 22 29  1  0  0  0  0
 23 22  2  0  0  0  0
 23 25  1  0  0  0  0
 24 23  1  0  0  0  0
 25 26  2  0  0  0  0
 26 28  1  0  0  0  0
 26 27  1  0  0  0  0
 29 28  2  0  0  0  0
 30 36  1  6  0  0  0
 30 35  1  0  0  0  0
 31 37  1  0  0  0  0
 31 30  1  0  0  0  0
 31 32  1  0  0  0  0
 32 33  1  0  0  0  0
 33 42  1  0  0  0  0
 33 34  1  0  0  0  0
 33 41  1  0  0  0  0
 34 44  1  0  0  0  0
 35 46  1  0  0  0  0
 35 45  1  1  0  0  0
 35 34  1  0  0  0  0
 38 31  1  0  0  0  0
 39 32  1  0  0  0  0
 40 32  1  0  0  0  0
 43 34  1  0  0  0  0
 46 47  1  0  0  0  0
 47 48  2  0  0  0  0
 49 47  1  0  0  0  0
 49 52  1  0  0  0  0
 50 46  1  0  0  0  0
 51 49  1  0  0  0  0
M  END
>  <minimizedAffinity>
-6.7517662

>  <minimizedRMSD>
0.259944826

$$$$
