
 OpenBabel03242523543D

 48 52  0  0  1  0  0  0  0  0999 V2000
   42.6730   34.4870   38.8510 C   0  0  1  0  0  0  0  0  0  0  0  0
   42.9920   35.2120   40.1490 C   0  0  1  0  0  0  0  0  0  0  0  0
   41.7700   35.5770   40.7590 O   0  0  0  0  0  0  0  0  0  0  0  0
   40.7920   35.9400   39.8270 C   0  0  0  0  0  0  0  0  0  0  0  0
   40.3120   34.7470   39.0200 C   0  0  2  0  0  0  0  0  0  0  0  0
   41.4490   33.6730   39.1170 C   0  0  1  0  0  0  0  0  0  0  0  0
   43.5460   33.8350   38.5980 H   0  0  0  0  0  0  0  0  0  0  0  0
   43.6330   36.0970   39.9980 H   0  0  0  0  0  0  0  0  0  0  0  0
   39.9420   36.2950   40.4190 H   0  0  0  0  0  0  0  0  0  0  0  0
   41.1270   36.7710   39.1780 H   0  0  0  0  0  0  0  0  0  0  0  0
   39.3770   34.3070   39.3940 H   0  0  0  0  0  0  0  0  0  0  0  0
   41.3140   33.4900   40.2340 H   0  0  0  0  0  0  0  0  0  0  0  0
   42.4500   35.4040   37.8110 O   0  0  0  0  0  0  0  0  0  0  0  0
   42.5230   34.8980   36.9550 H   0  0  0  0  0  0  0  0  0  0  0  0
   40.2490   35.0890   37.6780 O   0  0  0  0  0  0  0  0  0  0  0  0
   39.6560   34.4500   37.2400 H   0  0  0  0  0  0  0  0  0  0  0  0
   43.5140   34.2360   41.0020 O   0  0  0  0  0  0  0  0  0  0  0  0
   44.6280   34.3680   41.7330 C   0  0  0  0  0  0  0  0  0  0  0  0
   45.8850   34.4710   41.1200 C   0  0  0  0  0  0  0  0  0  0  0  0
   47.0040   34.6070   41.9240 C   0  0  0  0  0  0  0  0  0  0  0  0
   46.8490   34.6370   43.3010 N   0  0  0  0  0  0  0  0  0  0  0  0
   45.6200   34.5360   43.8540 C   0  0  0  0  0  0  0  0  0  0  0  0
   44.5170   34.4020   43.0760 N   0  0  0  0  0  0  0  0  0  0  0  0
   45.9920   34.4450   40.0430 H   0  0  0  0  0  0  0  0  0  0  0  0
   45.5680   34.5660   44.9390 H   0  0  0  0  0  0  0  0  0  0  0  0
   48.3820   34.7110   41.3340 C   0  0  0  0  0  0  0  0  0  0  0  0
   49.0930   36.0490   41.5100 C   0  0  0  0  0  0  0  0  0  0  0  0
   49.5340   34.7380   42.1830 C   0  0  0  0  0  0  0  0  0  0  0  0
   48.3920   34.4020   40.2600 H   0  0  0  0  0  0  0  0  0  0  0  0
   48.6320   36.7620   42.2490 H   0  0  0  0  0  0  0  0  0  0  0  0
   49.7110   36.4480   40.7090 H   0  0  0  0  0  0  0  0  0  0  0  0
   50.5160   34.3690   41.8110 H   0  0  0  0  0  0  0  0  0  0  0  0
   49.4250   34.6280   43.2650 H   0  0  0  0  0  0  0  0  0  0  0  0
   41.1530   32.6940   38.2480 O   0  0  0  0  0  0  0  0  0  0  0  0
   40.4500   31.5680   38.3800 C   0  0  0  0  0  0  0  0  0  0  0  0
   39.6190   31.1430   37.4340 O   0  0  0  0  0  0  0  0  0  0  0  0
   39.7460   28.7090   38.4880 H   0  0  0  0  0  0  0  0  0  0  0  0
   40.0300   29.2860   39.2850 N   0  0  0  0  0  0  0  0  0  0  0  0
   40.3770   30.5360   39.4890 C   0  0  0  0  0  0  0  0  0  0  0  0
   40.6450   30.6550   40.8280 N   0  0  0  0  0  0  0  0  0  0  0  0
   40.4650   29.4890   41.4430 C   0  0  0  0  0  0  0  0  0  0  0  0
   40.6320   29.1980   42.7790 C   0  0  0  0  0  0  0  0  0  0  0  0
   40.9390   29.9100   43.5160 H   0  0  0  0  0  0  0  0  0  0  0  0
   40.3730   27.9070   43.1270 N   0  0  0  0  0  0  0  0  0  0  0  0
   39.9850   27.0060   42.2000 C   0  0  0  0  0  0  0  0  0  0  0  0
   39.7670   25.9690   42.4180 H   0  0  0  0  0  0  0  0  0  0  0  0
   39.8480   27.3750   40.9180 N   0  0  0  0  0  0  0  0  0  0  0  0
   40.0730   28.6040   40.4690 C   0  0  0  0  0  0  0  0  0  0  0  0
  1  7  1  6  0  0  0
  1  6  1  0  0  0  0
  1  2  1  0  0  0  0
  2  8  1  6  0  0  0
  2  3  1  0  0  0  0
  2 17  1  0  0  0  0
  4  9  1  0  0  0  0
  4  3  1  0  0  0  0
  5  6  1  0  0  0  0
  5 11  1  1  0  0  0
  5  4  1  0  0  0  0
  6 12  1  1  0  0  0
 10  4  1  0  0  0  0
 13  1  1  0  0  0  0
 14 13  1  0  0  0  0
 15  5  1  0  0  0  0
 16 15  1  0  0  0  0
 17 18  1  0  0  0  0
 18 23  1  0  0  0  0
 19 18  2  0  0  0  0
 19 20  1  0  0  0  0
 20 21  2  0  0  0  0
 21 22  1  0  0  0  0
 22 25  1  0  0  0  0
 23 22  2  0  0  0  0
 24 19  1  0  0  0  0
 26 27  1  0  0  0  0
 26 20  1  0  0  0  0
 26 28  1  0  0  0  0
 27 28  1  0  0  0  0
 27 30  1  0  0  0  0
 28 33  1  0  0  0  0
 29 26  1  0  0  0  0
 31 27  1  0  0  0  0
 32 28  1  0  0  0  0
 34 35  1  0  0  0  0
 34  6  1  0  0  0  0
 35 39  1  0  0  0  0
 36 35  2  0  0  0  0
 37 38  1  0  0  0  0
 38 39  1  0  0  0  0
 38 48  1  0  0  0  0
 39 40  2  0  0  0  0
 40 41  1  0  0  0  0
 41 42  1  0  0  0  0
 42 44  2  0  0  0  0
 42 43  1  0  0  0  0
 45 46  1  0  0  0  0
 45 44  1  0  0  0  0
 47 45  2  0  0  0  0
 48 47  1  0  0  0  0
 48 41  2  0  0  0  0
M  END
>  <minimizedAffinity>
-6.15967941

>  <minimizedRMSD>
1.84998167

$$$$
