
 OpenBabel03242516373D

 23 25  0  0  0  0  0  0  0  0999 V2000
   47.1380   34.7870   41.8330 N   0  0  0  0  0  0  0  0  0  0  0  0
   48.3040   35.4680   41.7290 C   0  0  0  0  0  0  0  0  0  0  0  0
   48.8520   36.0780   42.4440 H   0  0  0  0  0  0  0  0  0  0  0  0
   48.8330   35.3190   40.4830 N   0  0  0  0  0  0  0  0  0  0  0  0
   48.0050   34.5410   39.7860 C   0  0  0  0  0  0  0  0  0  0  0  0
   47.9330   34.0110   38.5090 C   0  0  0  0  0  0  0  0  0  0  0  0
   48.7310   34.2380   37.8140 H   0  0  0  0  0  0  0  0  0  0  0  0
   46.8900   33.2320   38.1540 N   0  0  0  0  0  0  0  0  0  0  0  0
   45.8820   32.9450   39.0290 C   0  0  0  0  0  0  0  0  0  0  0  0
   45.0730   32.3070   38.6670 H   0  0  0  0  0  0  0  0  0  0  0  0
   45.8920   33.4340   40.2970 N   0  0  0  0  0  0  0  0  0  0  0  0
   46.9540   34.2110   40.6170 C   0  0  0  0  0  0  0  0  0  0  0  0
   46.0190   34.1000   45.3310 C   0  0  0  0  0  0  0  0  0  0  0  0
   46.8040   34.0300   44.1700 C   0  0  0  0  0  0  0  0  0  0  0  0
   46.4020   34.7980   43.0500 C   0  0  0  0  0  0  0  0  0  0  0  0
   45.2810   35.5570   43.1710 N   0  0  0  0  0  0  0  0  0  0  0  0
   44.5550   35.5950   44.3100 C   0  0  0  0  0  0  0  0  0  0  0  0
   44.9270   34.8660   45.3850 N   0  0  0  0  0  0  0  0  0  0  0  0
   46.4210   33.3270   46.4620 N   0  0  0  0  0  0  0  0  0  0  0  0
   47.6770   33.4300   44.0970 H   0  0  0  0  0  0  0  0  0  0  0  0
   43.6600   36.2070   44.3930 H   0  0  0  0  0  0  0  0  0  0  0  0
   46.1720   32.3630   46.1790 H   0  0  0  0  0  0  0  0  0  0  0  0
   46.8570   33.6030   47.3680 H   0  0  0  0  0  0  0  0  0  0  0  0
  1 15  1  0  0  0  0
  2  1  1  0  0  0  0
  2  3  1  0  0  0  0
  4  2  2  0  0  0  0
  5  4  1  0  0  0  0
  5 12  1  0  0  0  0
  6  5  2  0  0  0  0
  7  6  1  0  0  0  0
  8  6  1  0  0  0  0
  8  9  2  0  0  0  0
  9 11  1  0  0  0  0
 10  9  1  0  0  0  0
 11 12  2  0  0  0  0
 12  1  1  0  0  0  0
 13 18  1  0  0  0  0
 13 19  1  0  0  0  0
 14 13  2  0  0  0  0
 15 16  2  0  0  0  0
 15 14  1  0  0  0  0
 16 17  1  0  0  0  0
 17 21  1  0  0  0  0
 17 18  2  0  0  0  0
 19 23  1  0  0  0  0
 20 14  1  0  0  0  0
 22 19  1  0  0  0  0
M  END
>  <minimizedAffinity>
-5.01370335

>  <minimizedRMSD>
4.16092205

$$$$
