
 OpenBabel03252506143D

 39 42  0  0  0  0  0  0  0  0999 V2000
   39.3140   27.6780   40.5190 F   0  0  0  0  0  0  0  0  0  0  0  0
   38.5040   27.6750   41.5570 C   0  0  0  0  0  0  0  0  0  0  0  0
   39.0370   27.5640   42.8350 C   0  0  0  0  0  0  0  0  0  0  0  0
   38.2550   27.5550   43.9890 C   0  0  0  0  0  0  0  0  0  0  0  0
   36.8680   27.6630   43.8800 C   0  0  0  0  0  0  0  0  0  0  0  0
   36.3710   27.7730   42.5930 C   0  0  0  0  0  0  0  0  0  0  0  0
   37.1190   27.7820   41.4580 C   0  0  0  0  0  0  0  0  0  0  0  0
   38.7540   27.4620   44.9640 H   0  0  0  0  0  0  0  0  0  0  0  0
   36.3280   27.6500   44.7960 H   0  0  0  0  0  0  0  0  0  0  0  0
   35.2910   27.8570   42.6530 H   0  0  0  0  0  0  0  0  0  0  0  0
   42.3700   26.1080   43.3100 C   0  0  0  0  0  0  0  0  0  0  0  0
   43.1890   27.2520   43.3400 C   0  0  0  0  0  0  0  0  0  0  0  0
   42.5880   28.5350   43.1950 C   0  0  0  0  0  0  0  0  0  0  0  0
   41.2310   28.5600   43.0350 N   0  0  0  0  0  0  0  0  0  0  0  0
   40.4900   27.4520   43.0120 C   0  0  0  0  0  0  0  0  0  0  0  0
   41.0530   26.2400   43.1480 N   0  0  0  0  0  0  0  0  0  0  0  0
   44.2540   27.2100   43.4680 H   0  0  0  0  0  0  0  0  0  0  0  0
   43.1880   29.4340   43.2130 H   0  0  0  0  0  0  0  0  0  0  0  0
   42.9870   24.8390   43.4560 N   0  0  0  0  0  0  0  0  0  0  0  0
   43.3670   24.3370   44.2900 H   0  0  0  0  0  0  0  0  0  0  0  0
   43.0160   24.4140   42.5020 H   0  0  0  0  0  0  0  0  0  0  0  0
   36.5180   27.8940   40.2350 O   0  0  0  0  0  0  0  0  0  0  0  0
   34.8080   29.2890   38.7570 O   0  0  0  0  0  0  0  0  0  0  0  0
   36.1330   29.3340   39.4460 P   0  0  2  0  0  0  0  0  0  0  0  0
   37.3900   29.6860   38.3440 O   0  0  0  0  0  0  0  0  0  0  0  0
   37.7950   28.8190   38.0410 H   0  0  0  0  0  0  0  0  0  0  0  0
   36.1320   30.6690   40.5160 O   0  0  0  0  0  0  0  0  0  0  0  0
   36.0530   33.3890   40.0970 H   0  0  0  0  0  0  0  0  0  0  0  0
   36.9670   32.8830   40.2710 N   0  0  0  0  0  0  0  0  0  0  0  0
   37.1820   31.5770   40.4910 C   0  0  0  0  0  0  0  0  0  0  0  0
   38.5180   31.4360   40.6560 N   0  0  0  0  0  0  0  0  0  0  0  0
   39.1100   32.6510   40.5360 C   0  0  0  0  0  0  0  0  0  0  0  0
   40.4080   33.1170   40.6050 C   0  0  0  0  0  0  0  0  0  0  0  0
   41.1910   32.3940   40.7980 H   0  0  0  0  0  0  0  0  0  0  0  0
   40.7150   34.4200   40.4410 N   0  0  0  0  0  0  0  0  0  0  0  0
   39.7150   35.3100   40.2000 C   0  0  0  0  0  0  0  0  0  0  0  0
   39.8070   36.3770   40.0480 H   0  0  0  0  0  0  0  0  0  0  0  0
   38.4390   34.8900   40.1270 N   0  0  0  0  0  0  0  0  0  0  0  0
   38.1070   33.5950   40.2870 C   0  0  0  0  0  0  0  0  0  0  0  0
  1  2  1  0  0  0  0
  2  3  1  0  0  0  0
  3 15  1  0  0  0  0
  3  4  2  0  0  0  0
  4  8  1  0  0  0  0
  5  4  1  0  0  0  0
  5  9  1  0  0  0  0
  6 10  1  0  0  0  0
  6  5  2  0  0  0  0
  7  2  2  0  0  0  0
  7  6  1  0  0  0  0
 11 12  1  0  0  0  0
 11 19  1  0  0  0  0
 12 17  1  0  0  0  0
 13 18  1  0  0  0  0
 13 12  2  0  0  0  0
 14 13  1  0  0  0  0
 15 14  2  0  0  0  0
 15 16  1  0  0  0  0
 16 11  2  0  0  0  0
 19 20  1  0  0  0  0
 21 19  1  0  0  0  0
 22  7  1  0  0  0  0
 24 23  2  6  0  0  0
 24 22  1  0  0  0  0
 24 27  1  0  0  0  0
 25 24  1  0  0  0  0
 26 25  1  0  0  0  0
 28 29  1  0  0  0  0
 29 39  1  0  0  0  0
 29 30  1  0  0  0  0
 30 27  1  0  0  0  0
 30 31  2  0  0  0  0
 32 33  1  0  0  0  0
 32 31  1  0  0  0  0
 33 34  1  0  0  0  0
 35 33  2  0  0  0  0
 36 35  1  0  0  0  0
 37 36  1  0  0  0  0
 38 36  2  0  0  0  0
 38 39  1  0  0  0  0
 39 32  2  0  0  0  0
M  END
>  <minimizedAffinity>
-7.09064484

$$$$

 OpenBabel03252506143D

 39 42  0  0  0  0  0  0  0  0999 V2000
   38.4150   28.0110   40.1620 F   0  0  0  0  0  0  0  0  0  0  0  0
   37.9440   27.9180   41.3890 C   0  0  0  0  0  0  0  0  0  0  0  0
   37.8860   29.0570   42.1820 C   0  0  0  0  0  0  0  0  0  0  0  0
   37.4010   29.0510   43.4900 C   0  0  0  0  0  0  0  0  0  0  0  0
   36.9460   27.8560   44.0490 C   0  0  0  0  0  0  0  0  0  0  0  0
   37.0190   26.7420   43.2300 C   0  0  0  0  0  0  0  0  0  0  0  0
   37.4890   26.7300   41.9550 C   0  0  0  0  0  0  0  0  0  0  0  0
   37.3890   29.9950   44.0520 H   0  0  0  0  0  0  0  0  0  0  0  0
   36.5890   27.9170   45.0480 H   0  0  0  0  0  0  0  0  0  0  0  0
   36.6290   25.8920   43.7800 H   0  0  0  0  0  0  0  0  0  0  0  0
   37.8570   32.3460   40.5600 C   0  0  0  0  0  0  0  0  0  0  0  0
   39.2070   32.7330   40.6560 C   0  0  0  0  0  0  0  0  0  0  0  0
   40.1340   31.8540   41.2850 C   0  0  0  0  0  0  0  0  0  0  0  0
   39.6330   30.6740   41.7590 N   0  0  0  0  0  0  0  0  0  0  0  0
   38.3460   30.3440   41.6470 C   0  0  0  0  0  0  0  0  0  0  0  0
   37.4680   31.1710   41.0550 N   0  0  0  0  0  0  0  0  0  0  0  0
   39.5800   33.6650   40.2770 H   0  0  0  0  0  0  0  0  0  0  0  0
   41.1780   32.1210   41.3760 H   0  0  0  0  0  0  0  0  0  0  0  0
   36.9490   33.2360   39.9300 N   0  0  0  0  0  0  0  0  0  0  0  0
   36.7790   33.4670   38.9260 H   0  0  0  0  0  0  0  0  0  0  0  0
   36.4010   33.6890   40.6960 H   0  0  0  0  0  0  0  0  0  0  0  0
   37.5150   25.5660   41.2380 O   0  0  0  0  0  0  0  0  0  0  0  0
   39.8320   24.5710   40.4040 O   0  0  0  0  0  0  0  0  0  0  0  0
   38.6900   24.3610   41.3440 P   0  0  2  0  0  0  0  0  0  0  0  0
   37.9310   22.8560   41.0660 O   0  0  0  0  0  0  0  0  0  0  0  0
   37.1480   23.0060   40.4550 H   0  0  0  0  0  0  0  0  0  0  0  0
   39.3220   24.2220   42.9270 O   0  0  0  0  0  0  0  0  0  0  0  0
   41.9790   23.7870   42.3510 H   0  0  0  0  0  0  0  0  0  0  0  0
   41.6690   24.6180   42.9300 N   0  0  0  0  0  0  0  0  0  0  0  0
   40.4290   24.9740   43.2990 C   0  0  0  0  0  0  0  0  0  0  0  0
   40.5620   26.1070   44.0280 N   0  0  0  0  0  0  0  0  0  0  0  0
   41.8770   26.4360   44.0990 C   0  0  0  0  0  0  0  0  0  0  0  0
   42.5980   27.4540   44.6890 C   0  0  0  0  0  0  0  0  0  0  0  0
   42.0480   28.2060   45.2410 H   0  0  0  0  0  0  0  0  0  0  0  0
   43.9420   27.5330   44.5930 N   0  0  0  0  0  0  0  0  0  0  0  0
   44.6130   26.5780   43.8940 C   0  0  0  0  0  0  0  0  0  0  0  0
   45.6800   26.5100   43.7330 H   0  0  0  0  0  0  0  0  0  0  0  0
   43.9400   25.5720   43.3070 N   0  0  0  0  0  0  0  0  0  0  0  0
   42.6000   25.4720   43.3870 C   0  0  0  0  0  0  0  0  0  0  0  0
  1  2  1  0  0  0  0
  2  7  2  0  0  0  0
  2  3  1  0  0  0  0
  3  4  2  0  0  0  0
  4  5  1  0  0  0  0
  4  8  1  0  0  0  0
  5  9  1  0  0  0  0
  6 10  1  0  0  0  0
  6  5  2  0  0  0  0
  7  6  1  0  0  0  0
 11 12  2  0  0  0  0
 11 16  1  0  0  0  0
 12 13  1  0  0  0  0
 13 18  1  0  0  0  0
 13 14  2  0  0  0  0
 15 14  1  0  0  0  0
 15  3  1  0  0  0  0
 16 15  2  0  0  0  0
 17 12  1  0  0  0  0
 19 11  1  0  0  0  0
 19 21  1  0  0  0  0
 20 19  1  0  0  0  0
 22 24  1  0  0  0  0
 22  7  1  0  0  0  0
 24 23  2  6  0  0  0
 24 27  1  0  0  0  0
 25 24  1  0  0  0  0
 26 25  1  0  0  0  0
 27 30  1  0  0  0  0
 28 29  1  0  0  0  0
 29 30  1  0  0  0  0
 29 39  1  0  0  0  0
 30 31  2  0  0  0  0
 31 32  1  0  0  0  0
 32 33  1  0  0  0  0
 33 34  1  0  0  0  0
 35 33  2  0  0  0  0
 36 35  1  0  0  0  0
 37 36  1  0  0  0  0
 38 39  1  0  0  0  0
 38 36  2  0  0  0  0
 39 32  2  0  0  0  0
M  END
>  <minimizedAffinity>
-6.82559395

$$$$

 OpenBabel03252506143D

 39 42  0  0  0  0  0  0  0  0999 V2000
   36.6080   26.1970   40.0080 F   0  0  0  0  0  0  0  0  0  0  0  0
   37.3470   26.4240   41.0750 C   0  0  0  0  0  0  0  0  0  0  0  0
   38.3790   25.5470   41.3870 C   0  0  0  0  0  0  0  0  0  0  0  0
   39.2100   25.7120   42.4940 C   0  0  0  0  0  0  0  0  0  0  0  0
   39.0160   26.8010   43.3440 C   0  0  0  0  0  0  0  0  0  0  0  0
   37.9790   27.6530   43.0030 C   0  0  0  0  0  0  0  0  0  0  0  0
   37.1600   27.5080   41.9290 C   0  0  0  0  0  0  0  0  0  0  0  0
   40.0030   24.9730   42.6720 H   0  0  0  0  0  0  0  0  0  0  0  0
   39.6820   26.8710   44.1700 H   0  0  0  0  0  0  0  0  0  0  0  0
   37.9450   28.4540   43.7360 H   0  0  0  0  0  0  0  0  0  0  0  0
   38.4500   22.0920   40.1590 C   0  0  0  0  0  0  0  0  0  0  0  0
   39.1110   22.2330   38.9240 C   0  0  0  0  0  0  0  0  0  0  0  0
   39.5350   23.5280   38.5120 C   0  0  0  0  0  0  0  0  0  0  0  0
   39.2630   24.5610   39.3640 N   0  0  0  0  0  0  0  0  0  0  0  0
   38.6340   24.3860   40.5270 C   0  0  0  0  0  0  0  0  0  0  0  0
   38.2320   23.1650   40.9190 N   0  0  0  0  0  0  0  0  0  0  0  0
   39.3150   21.4070   38.2690 H   0  0  0  0  0  0  0  0  0  0  0  0
   40.0450   23.6710   37.5690 H   0  0  0  0  0  0  0  0  0  0  0  0
   38.0340   20.7940   40.5510 N   0  0  0  0  0  0  0  0  0  0  0  0
   38.5610   19.9760   40.9330 H   0  0  0  0  0  0  0  0  0  0  0  0
   37.0030   20.7530   40.3910 H   0  0  0  0  0  0  0  0  0  0  0  0
   36.1640   28.4140   41.6910 O   0  0  0  0  0  0  0  0  0  0  0  0
   34.8720   29.2380   39.5210 O   0  0  0  0  0  0  0  0  0  0  0  0
   36.0750   29.4690   40.3770 P   0  0  2  0  0  0  0  0  0  0  0  0
   37.5150   29.3120   39.4730 O   0  0  0  0  0  0  0  0  0  0  0  0
   37.8560   28.3740   39.5840 H   0  0  0  0  0  0  0  0  0  0  0  0
   36.0700   31.1060   40.8720 O   0  0  0  0  0  0  0  0  0  0  0  0
   36.3010   33.7580   40.1690 H   0  0  0  0  0  0  0  0  0  0  0  0
   37.1530   33.1670   40.3820 N   0  0  0  0  0  0  0  0  0  0  0  0
   37.2180   31.8740   40.7350 C   0  0  0  0  0  0  0  0  0  0  0  0
   38.5330   31.5910   40.8930 N   0  0  0  0  0  0  0  0  0  0  0  0
   39.2600   32.7070   40.6360 C   0  0  0  0  0  0  0  0  0  0  0  0
   40.6050   33.0180   40.6350 C   0  0  0  0  0  0  0  0  0  0  0  0
   41.3030   32.2300   40.8910 H   0  0  0  0  0  0  0  0  0  0  0  0
   41.0600   34.2510   40.3300 N   0  0  0  0  0  0  0  0  0  0  0  0
   40.1650   35.2250   40.0110 C   0  0  0  0  0  0  0  0  0  0  0  0
   40.3780   36.2520   39.7460 H   0  0  0  0  0  0  0  0  0  0  0  0
   38.8470   34.9560   40.0030 N   0  0  0  0  0  0  0  0  0  0  0  0
   38.3690   33.7340   40.3040 C   0  0  0  0  0  0  0  0  0  0  0  0
  1  2  1  0  0  0  0
  2  3  2  0  0  0  0
  2  7  1  0  0  0  0
  3  4  1  0  0  0  0
  4  8  1  0  0  0  0
  4  5  2  0  0  0  0
  5  9  1  0  0  0  0
  6  5  1  0  0  0  0
  6 10  1  0  0  0  0
  7  6  2  0  0  0  0
 11 19  1  0  0  0  0
 11 16  1  0  0  0  0
 12 11  2  0  0  0  0
 13 12  1  0  0  0  0
 13 14  2  0  0  0  0
 14 15  1  0  0  0  0
 15 16  2  0  0  0  0
 15  3  1  0  0  0  0
 17 12  1  0  0  0  0
 18 13  1  0  0  0  0
 19 20  1  0  0  0  0
 21 19  1  0  0  0  0
 22  7  1  0  0  0  0
 24 23  2  6  0  0  0
 24 27  1  0  0  0  0
 24 22  1  0  0  0  0
 25 26  1  0  0  0  0
 25 24  1  0  0  0  0
 28 29  1  0  0  0  0
 29 30  1  0  0  0  0
 30 27  1  0  0  0  0
 30 31  2  0  0  0  0
 32 31  1  0  0  0  0
 33 32  1  0  0  0  0
 33 34  1  0  0  0  0
 35 33  2  0  0  0  0
 36 35  1  0  0  0  0
 37 36  1  0  0  0  0
 38 36  2  0  0  0  0
 38 39  1  0  0  0  0
 39 29  1  0  0  0  0
 39 32  2  0  0  0  0
M  END
>  <minimizedAffinity>
-6.70122862

$$$$

 OpenBabel03252506143D

 39 42  0  0  0  0  0  0  0  0999 V2000
   41.3130   31.7290   40.6220 F   0  0  0  0  0  0  0  0  0  0  0  0
   40.5680   32.8090   40.5090 C   0  0  0  0  0  0  0  0  0  0  0  0
   41.1540   33.9990   40.0970 C   0  0  0  0  0  0  0  0  0  0  0  0
   40.4410   35.1880   39.9480 C   0  0  0  0  0  0  0  0  0  0  0  0
   39.0730   35.2080   40.2190 C   0  0  0  0  0  0  0  0  0  0  0  0
   38.5220   34.0060   40.6270 C   0  0  0  0  0  0  0  0  0  0  0  0
   39.2010   32.8380   40.7780 C   0  0  0  0  0  0  0  0  0  0  0  0
   40.9800   36.0880   39.6190 H   0  0  0  0  0  0  0  0  0  0  0  0
   38.5870   36.1450   40.0870 H   0  0  0  0  0  0  0  0  0  0  0  0
   37.4610   34.1590   40.7940 H   0  0  0  0  0  0  0  0  0  0  0  0
   44.3050   33.8950   38.2220 C   0  0  0  0  0  0  0  0  0  0  0  0
   45.2570   34.1140   39.2350 C   0  0  0  0  0  0  0  0  0  0  0  0
   44.8090   34.2990   40.5750 C   0  0  0  0  0  0  0  0  0  0  0  0
   43.4600   34.2490   40.7810 N   0  0  0  0  0  0  0  0  0  0  0  0
   42.5890   34.0390   39.7930 C   0  0  0  0  0  0  0  0  0  0  0  0
   43.0080   33.8640   38.5280 N   0  0  0  0  0  0  0  0  0  0  0  0
   46.3140   34.1490   39.0510 H   0  0  0  0  0  0  0  0  0  0  0  0
   45.5150   34.4700   41.3760 H   0  0  0  0  0  0  0  0  0  0  0  0
   44.7700   33.7130   36.8950 N   0  0  0  0  0  0  0  0  0  0  0  0
   45.2180   32.9000   36.4150 H   0  0  0  0  0  0  0  0  0  0  0  0
   44.5840   34.6100   36.3910 H   0  0  0  0  0  0  0  0  0  0  0  0
   38.5520   31.7080   41.1890 O   0  0  0  0  0  0  0  0  0  0  0  0
   37.2970   31.2230   38.8980 O   0  0  0  0  0  0  0  0  0  0  0  0
   37.3130   30.9180   40.3610 P   0  0  2  0  0  0  0  0  0  0  0  0
   35.8300   31.3420   41.0950 O   0  0  0  0  0  0  0  0  0  0  0  0
   35.9240   32.2630   41.4840 H   0  0  0  0  0  0  0  0  0  0  0  0
   37.4000   29.2200   40.5490 O   0  0  0  0  0  0  0  0  0  0  0  0
   40.0480   29.8840   40.9090 H   0  0  0  0  0  0  0  0  0  0  0  0
   39.5900   29.1130   41.4730 N   0  0  0  0  0  0  0  0  0  0  0  0
   38.3260   28.6670   41.4240 C   0  0  0  0  0  0  0  0  0  0  0  0
   38.2390   27.6740   42.3400 N   0  0  0  0  0  0  0  0  0  0  0  0
   39.4460   27.5190   42.9410 C   0  0  0  0  0  0  0  0  0  0  0  0
   39.9490   26.6890   43.9220 C   0  0  0  0  0  0  0  0  0  0  0  0
   39.2750   25.9640   44.3610 H   0  0  0  0  0  0  0  0  0  0  0  0
   41.2310   26.7580   44.3360 N   0  0  0  0  0  0  0  0  0  0  0  0
   42.0610   27.6760   43.7700 C   0  0  0  0  0  0  0  0  0  0  0  0
   43.1040   27.8470   43.9970 H   0  0  0  0  0  0  0  0  0  0  0  0
   41.6020   28.5010   42.8110 N   0  0  0  0  0  0  0  0  0  0  0  0
   40.3280   28.4510   42.3820 C   0  0  0  0  0  0  0  0  0  0  0  0
  2  1  1  0  0  0  0
  2  7  1  0  0  0  0
  3  2  2  0  0  0  0
  4  3  1  0  0  0  0
  4  5  2  0  0  0  0
  5  6  1  0  0  0  0
  6  7  2  0  0  0  0
  6 10  1  0  0  0  0
  7 22  1  0  0  0  0
  8  4  1  0  0  0  0
  9  5  1  0  0  0  0
 11 16  2  0  0  0  0
 11 12  1  0  0  0  0
 12 13  2  0  0  0  0
 13 14  1  0  0  0  0
 13 18  1  0  0  0  0
 15  3  1  0  0  0  0
 15 14  2  0  0  0  0
 16 15  1  0  0  0  0
 17 12  1  0  0  0  0
 19 11  1  0  0  0  0
 20 19  1  0  0  0  0
 21 19  1  0  0  0  0
 24 23  2  6  0  0  0
 24 27  1  0  0  0  0
 24 25  1  0  0  0  0
 24 22  1  0  0  0  0
 25 26  1  0  0  0  0
 27 30  1  0  0  0  0
 28 29  1  0  0  0  0
 29 39  1  0  0  0  0
 30 29  1  0  0  0  0
 30 31  2  0  0  0  0
 31 32  1  0  0  0  0
 32 33  1  0  0  0  0
 33 35  2  0  0  0  0
 33 34  1  0  0  0  0
 36 37  1  0  0  0  0
 36 35  1  0  0  0  0
 38 36  2  0  0  0  0
 39 38  1  0  0  0  0
 39 32  2  0  0  0  0
M  END
>  <minimizedAffinity>
-6.61731625

$$$$

 OpenBabel03252506143D

 39 42  0  0  0  0  0  0  0  0999 V2000
   40.1990   29.8240   40.5530 F   0  0  0  0  0  0  0  0  0  0  0  0
   39.3260   30.7820   40.3220 C   0  0  0  0  0  0  0  0  0  0  0  0
   38.0130   30.6220   40.7480 C   0  0  0  0  0  0  0  0  0  0  0  0
   37.0240   31.5850   40.5490 C   0  0  0  0  0  0  0  0  0  0  0  0
   37.3450   32.7740   39.8930 C   0  0  0  0  0  0  0  0  0  0  0  0
   38.6610   32.9000   39.4840 C   0  0  0  0  0  0  0  0  0  0  0  0
   39.6360   31.9720   39.6690 C   0  0  0  0  0  0  0  0  0  0  0  0
   36.0090   31.3810   40.9150 H   0  0  0  0  0  0  0  0  0  0  0  0
   36.5480   33.4670   39.7720 H   0  0  0  0  0  0  0  0  0  0  0  0
   38.7740   33.8650   39.0000 H   0  0  0  0  0  0  0  0  0  0  0  0
   36.9680   28.3370   43.4200 C   0  0  0  0  0  0  0  0  0  0  0  0
   36.8820   27.1080   42.7390 C   0  0  0  0  0  0  0  0  0  0  0  0
   37.1870   27.0670   41.3490 C   0  0  0  0  0  0  0  0  0  0  0  0
   37.5480   28.2490   40.7660 N   0  0  0  0  0  0  0  0  0  0  0  0
   37.6170   29.3940   41.4470 C   0  0  0  0  0  0  0  0  0  0  0  0
   37.3300   29.4370   42.7590 N   0  0  0  0  0  0  0  0  0  0  0  0
   36.5970   26.1900   43.2160 H   0  0  0  0  0  0  0  0  0  0  0  0
   37.1310   26.1390   40.7960 H   0  0  0  0  0  0  0  0  0  0  0  0
   36.6590   28.3580   44.8050 N   0  0  0  0  0  0  0  0  0  0  0  0
   37.1960   28.0480   45.6460 H   0  0  0  0  0  0  0  0  0  0  0  0
   35.7060   28.7770   44.8880 H   0  0  0  0  0  0  0  0  0  0  0  0
   40.9060   32.2040   39.2180 O   0  0  0  0  0  0  0  0  0  0  0  0
   41.9330   33.9800   37.5320 O   0  0  0  0  0  0  0  0  0  0  0  0
   41.3420   32.6130   37.6410 P   0  0  2  0  0  0  0  0  0  0  0  0
   39.9580   32.4580   36.6520 O   0  0  0  0  0  0  0  0  0  0  0  0
   39.1470   32.6420   37.2150 H   0  0  0  0  0  0  0  0  0  0  0  0
   42.4550   31.4970   36.9760 O   0  0  0  0  0  0  0  0  0  0  0  0
   39.9880   30.3190   37.3070 H   0  0  0  0  0  0  0  0  0  0  0  0
   40.8430   29.7490   37.0500 N   0  0  0  0  0  0  0  0  0  0  0  0
   42.1050   30.1590   36.8530 C   0  0  0  0  0  0  0  0  0  0  0  0
   42.8200   29.0510   36.5470 N   0  0  0  0  0  0  0  0  0  0  0  0
   41.9940   27.9740   36.5580 C   0  0  0  0  0  0  0  0  0  0  0  0
   42.1490   26.6210   36.3300 C   0  0  0  0  0  0  0  0  0  0  0  0
   43.1400   26.2650   36.0770 H   0  0  0  0  0  0  0  0  0  0  0  0
   41.1190   25.7540   36.4140 N   0  0  0  0  0  0  0  0  0  0  0  0
   39.8830   26.2240   36.7340 C   0  0  0  0  0  0  0  0  0  0  0  0
   38.9690   25.6540   36.8380 H   0  0  0  0  0  0  0  0  0  0  0  0
   39.6960   27.5370   36.9620 N   0  0  0  0  0  0  0  0  0  0  0  0
   40.7080   28.4220   36.8850 C   0  0  0  0  0  0  0  0  0  0  0  0
  2  1  1  0  0  0  0
  2  3  1  0  0  0  0
  3 15  1  0  0  0  0
  4  3  2  0  0  0  0
  4  8  1  0  0  0  0
  5  4  1  0  0  0  0
  6  7  1  0  0  0  0
  6  5  2  0  0  0  0
  7  2  2  0  0  0  0
  9  5  1  0  0  0  0
 10  6  1  0  0  0  0
 11 19  1  0  0  0  0
 12 17  1  0  0  0  0
 12 11  2  0  0  0  0
 13 12  1  0  0  0  0
 14 13  2  0  0  0  0
 14 15  1  0  0  0  0
 15 16  2  0  0  0  0
 16 11  1  0  0  0  0
 18 13  1  0  0  0  0
 19 21  1  0  0  0  0
 19 20  1  0  0  0  0
 22  7  1  0  0  0  0
 24 23  2  6  0  0  0
 24 22  1  0  0  0  0
 25 26  1  0  0  0  0
 25 24  1  0  0  0  0
 27 24  1  0  0  0  0
 29 28  1  0  0  0  0
 30 27  1  0  0  0  0
 30 29  1  0  0  0  0
 31 32  1  0  0  0  0
 31 30  2  0  0  0  0
 32 39  1  0  0  0  0
 33 35  1  0  0  0  0
 33 32  2  0  0  0  0
 34 33  1  0  0  0  0
 35 36  2  0  0  0  0
 36 37  1  0  0  0  0
 36 38  1  0  0  0  0
 39 38  2  0  0  0  0
 39 29  1  0  0  0  0
M  END
>  <minimizedAffinity>
-6.5852375

$$$$

 OpenBabel03252506143D

 39 42  0  0  0  0  0  0  0  0999 V2000
   38.8210   30.2070   37.3980 F   0  0  0  0  0  0  0  0  0  0  0  0
   38.4120   31.0140   38.3560 C   0  0  0  0  0  0  0  0  0  0  0  0
   39.3000   31.9410   38.8880 C   0  0  0  0  0  0  0  0  0  0  0  0
   38.9510   32.8340   39.9000 C   0  0  0  0  0  0  0  0  0  0  0  0
   37.6570   32.8150   40.4200 C   0  0  0  0  0  0  0  0  0  0  0  0
   36.8000   31.8790   39.8670 C   0  0  0  0  0  0  0  0  0  0  0  0
   37.1220   31.0010   38.8810 C   0  0  0  0  0  0  0  0  0  0  0  0
   39.7130   33.5370   40.2680 H   0  0  0  0  0  0  0  0  0  0  0  0
   37.4540   33.5200   41.1900 H   0  0  0  0  0  0  0  0  0  0  0  0
   35.8340   31.9770   40.3510 H   0  0  0  0  0  0  0  0  0  0  0  0
   42.3460   33.2240   37.2980 C   0  0  0  0  0  0  0  0  0  0  0  0
   43.2280   32.1360   37.4340 C   0  0  0  0  0  0  0  0  0  0  0  0
   42.7700   30.9520   38.0790 C   0  0  0  0  0  0  0  0  0  0  0  0
   41.4790   30.9600   38.5270 N   0  0  0  0  0  0  0  0  0  0  0  0
   40.6740   32.0120   38.3780 C   0  0  0  0  0  0  0  0  0  0  0  0
   41.1030   33.1310   37.7710 N   0  0  0  0  0  0  0  0  0  0  0  0
   44.2400   32.1510   37.0750 H   0  0  0  0  0  0  0  0  0  0  0  0
   43.4230   30.0980   38.2000 H   0  0  0  0  0  0  0  0  0  0  0  0
   42.8210   34.3950   36.6540 N   0  0  0  0  0  0  0  0  0  0  0  0
   42.9860   34.6220   35.6480 H   0  0  0  0  0  0  0  0  0  0  0  0
   43.0080   35.0920   37.4100 H   0  0  0  0  0  0  0  0  0  0  0  0
   36.1920   30.1170   38.4110 O   0  0  0  0  0  0  0  0  0  0  0  0
   35.8970   27.5240   38.9070 O   0  0  0  0  0  0  0  0  0  0  0  0
   35.4460   28.8930   39.3000 P   0  0  2  0  0  0  0  0  0  0  0  0
   33.7560   29.0610   39.1200 O   0  0  0  0  0  0  0  0  0  0  0  0
   33.5750   29.4710   38.2210 H   0  0  0  0  0  0  0  0  0  0  0  0
   35.7050   29.0760   40.9810 O   0  0  0  0  0  0  0  0  0  0  0  0
   36.2070   26.3810   41.2420 H   0  0  0  0  0  0  0  0  0  0  0  0
   36.8750   27.1080   41.6280 N   0  0  0  0  0  0  0  0  0  0  0  0
   36.7830   28.4450   41.5880 C   0  0  0  0  0  0  0  0  0  0  0  0
   37.8840   28.9190   42.2190 N   0  0  0  0  0  0  0  0  0  0  0  0
   38.6380   27.8720   42.6380 C   0  0  0  0  0  0  0  0  0  0  0  0
   39.8330   27.7390   43.3170 C   0  0  0  0  0  0  0  0  0  0  0  0
   40.3450   28.6460   43.6150 H   0  0  0  0  0  0  0  0  0  0  0  0
   40.3650   26.5340   43.6080 N   0  0  0  0  0  0  0  0  0  0  0  0
   39.7050   25.4080   43.2230 C   0  0  0  0  0  0  0  0  0  0  0  0
   40.0060   24.3820   43.3860 H   0  0  0  0  0  0  0  0  0  0  0  0
   38.5380   25.5020   42.5600 N   0  0  0  0  0  0  0  0  0  0  0  0
   37.9880   26.6930   42.2570 C   0  0  0  0  0  0  0  0  0  0  0  0
  1  2  1  0  0  0  0
  2  7  2  0  0  0  0
  2  3  1  0  0  0  0
  3  4  2  0  0  0  0
  4  8  1  0  0  0  0
  4  5  1  0  0  0  0
  5  9  1  0  0  0  0
  6 10  1  0  0  0  0
  6  5  2  0  0  0  0
  7  6  1  0  0  0  0
 11 12  2  0  0  0  0
 11 16  1  0  0  0  0
 12 13  1  0  0  0  0
 13 18  1  0  0  0  0
 13 14  2  0  0  0  0
 15 14  1  0  0  0  0
 15  3  1  0  0  0  0
 16 15  2  0  0  0  0
 17 12  1  0  0  0  0
 19 11  1  0  0  0  0
 19 21  1  0  0  0  0
 20 19  1  0  0  0  0
 22  7  1  0  0  0  0
 22 24  1  0  0  0  0
 24 23  2  6  0  0  0
 24 27  1  0  0  0  0
 25 24  1  0  0  0  0
 26 25  1  0  0  0  0
 27 30  1  0  0  0  0
 28 29  1  0  0  0  0
 29 39  1  0  0  0  0
 30 29  1  0  0  0  0
 30 31  2  0  0  0  0
 31 32  1  0  0  0  0
 32 33  1  0  0  0  0
 33 35  2  0  0  0  0
 33 34  1  0  0  0  0
 36 37  1  0  0  0  0
 36 35  1  0  0  0  0
 38 36  2  0  0  0  0
 39 38  1  0  0  0  0
 39 32  2  0  0  0  0
M  END
>  <minimizedAffinity>
-6.47964382

$$$$

 OpenBabel03252506143D

 39 42  0  0  0  0  0  0  0  0999 V2000
   40.5120   30.3430   40.2820 F   0  0  0  0  0  0  0  0  0  0  0  0
   39.3730   30.9950   40.1690 C   0  0  0  0  0  0  0  0  0  0  0  0
   39.3910   32.3420   39.8310 C   0  0  0  0  0  0  0  0  0  0  0  0
   38.2350   33.1070   39.6880 C   0  0  0  0  0  0  0  0  0  0  0  0
   36.9880   32.5140   39.8880 C   0  0  0  0  0  0  0  0  0  0  0  0
   37.0070   31.1710   40.2230 C   0  0  0  0  0  0  0  0  0  0  0  0
   38.1240   30.4110   40.3680 C   0  0  0  0  0  0  0  0  0  0  0  0
   38.3350   34.1680   39.4200 H   0  0  0  0  0  0  0  0  0  0  0  0
   36.1450   33.1500   39.7640 H   0  0  0  0  0  0  0  0  0  0  0  0
   35.9810   30.8370   40.3410 H   0  0  0  0  0  0  0  0  0  0  0  0
   42.2170   33.9290   38.1130 C   0  0  0  0  0  0  0  0  0  0  0  0
   43.0550   34.2800   39.1880 C   0  0  0  0  0  0  0  0  0  0  0  0
   42.6420   33.9670   40.5150 C   0  0  0  0  0  0  0  0  0  0  0  0
   41.4380   33.3360   40.6490 N   0  0  0  0  0  0  0  0  0  0  0  0
   40.6730   33.0200   39.6030 C   0  0  0  0  0  0  0  0  0  0  0  0
   41.0580   33.3140   38.3500 N   0  0  0  0  0  0  0  0  0  0  0  0
   43.9980   34.7760   39.0610 H   0  0  0  0  0  0  0  0  0  0  0  0
   43.2620   34.2230   41.3630 H   0  0  0  0  0  0  0  0  0  0  0  0
   42.6440   34.2490   36.7990 N   0  0  0  0  0  0  0  0  0  0  0  0
   43.3530   33.8130   36.1680 H   0  0  0  0  0  0  0  0  0  0  0  0
   42.0890   35.0840   36.5030 H   0  0  0  0  0  0  0  0  0  0  0  0
   38.0230   29.0890   40.7040 O   0  0  0  0  0  0  0  0  0  0  0  0
   35.8140   28.0960   41.7950 O   0  0  0  0  0  0  0  0  0  0  0  0
   37.2370   28.4670   42.0600 P   0  0  2  0  0  0  0  0  0  0  0  0
   37.3500   29.6210   43.3140 O   0  0  0  0  0  0  0  0  0  0  0  0
   37.3920   30.5340   42.8980 H   0  0  0  0  0  0  0  0  0  0  0  0
   38.0370   27.0920   42.6870 O   0  0  0  0  0  0  0  0  0  0  0  0
   39.9450   28.9650   42.0290 H   0  0  0  0  0  0  0  0  0  0  0  0
   40.1520   28.1820   42.7120 N   0  0  0  0  0  0  0  0  0  0  0  0
   39.3460   27.1980   43.1380 C   0  0  0  0  0  0  0  0  0  0  0  0
   40.0790   26.4580   44.0030 N   0  0  0  0  0  0  0  0  0  0  0  0
   41.3230   26.9920   44.1000 C   0  0  0  0  0  0  0  0  0  0  0  0
   42.4680   26.6790   44.8050 C   0  0  0  0  0  0  0  0  0  0  0  0
   42.4370   25.8140   45.4550 H   0  0  0  0  0  0  0  0  0  0  0  0
   43.5970   27.4100   44.7040 N   0  0  0  0  0  0  0  0  0  0  0  0
   43.6130   28.4940   43.8810 C   0  0  0  0  0  0  0  0  0  0  0  0
   44.4380   29.1690   43.6990 H   0  0  0  0  0  0  0  0  0  0  0  0
   42.5140   28.8260   43.1800 N   0  0  0  0  0  0  0  0  0  0  0  0
   41.3760   28.1130   43.2630 C   0  0  0  0  0  0  0  0  0  0  0  0
  2  1  1  0  0  0  0
  2  7  1  0  0  0  0
  3  2  2  0  0  0  0
  4  3  1  0  0  0  0
  4  5  2  0  0  0  0
  5  6  1  0  0  0  0
  6 10  1  0  0  0  0
  6  7  2  0  0  0  0
  7 22  1  0  0  0  0
  8  4  1  0  0  0  0
  9  5  1  0  0  0  0
 11 16  2  0  0  0  0
 11 12  1  0  0  0  0
 12 13  2  0  0  0  0
 13 14  1  0  0  0  0
 13 18  1  0  0  0  0
 15  3  1  0  0  0  0
 15 14  2  0  0  0  0
 16 15  1  0  0  0  0
 17 12  1  0  0  0  0
 19 11  1  0  0  0  0
 20 19  1  0  0  0  0
 21 19  1  0  0  0  0
 22 24  1  0  0  0  0
 24 23  2  6  0  0  0
 24 27  1  0  0  0  0
 24 25  1  0  0  0  0
 26 25  1  0  0  0  0
 27 30  1  0  0  0  0
 28 29  1  0  0  0  0
 29 30  1  0  0  0  0
 29 39  1  0  0  0  0
 30 31  2  0  0  0  0
 31 32  1  0  0  0  0
 32 33  1  0  0  0  0
 33 34  1  0  0  0  0
 35 33  2  0  0  0  0
 36 35  1  0  0  0  0
 37 36  1  0  0  0  0
 38 39  1  0  0  0  0
 38 36  2  0  0  0  0
 39 32  2  0  0  0  0
M  END
>  <minimizedAffinity>
-6.47540712

$$$$

 OpenBabel03252506143D

 39 42  0  0  0  0  0  0  0  0999 V2000
   40.5290   31.0360   40.1570 F   0  0  0  0  0  0  0  0  0  0  0  0
   39.7910   32.1260   40.1160 C   0  0  0  0  0  0  0  0  0  0  0  0
   40.3980   33.3640   40.2850 C   0  0  0  0  0  0  0  0  0  0  0  0
   39.6940   34.5680   40.2540 C   0  0  0  0  0  0  0  0  0  0  0  0
   38.3150   34.5530   40.0440 C   0  0  0  0  0  0  0  0  0  0  0  0
   37.7440   33.3030   39.8790 C   0  0  0  0  0  0  0  0  0  0  0  0
   38.4140   32.1210   39.9070 C   0  0  0  0  0  0  0  0  0  0  0  0
   40.2480   35.5060   40.3980 H   0  0  0  0  0  0  0  0  0  0  0  0
   37.8360   35.5030   40.0310 H   0  0  0  0  0  0  0  0  0  0  0  0
   36.6790   33.4360   39.7170 H   0  0  0  0  0  0  0  0  0  0  0  0
   43.6450   33.4700   41.9860 C   0  0  0  0  0  0  0  0  0  0  0  0
   44.5390   33.5890   40.9060 C   0  0  0  0  0  0  0  0  0  0  0  0
   44.0180   33.6330   39.5810 C   0  0  0  0  0  0  0  0  0  0  0  0
   42.6600   33.5550   39.4540 N   0  0  0  0  0  0  0  0  0  0  0  0
   41.8460   33.4430   40.5050 C   0  0  0  0  0  0  0  0  0  0  0  0
   42.3340   33.4010   41.7560 N   0  0  0  0  0  0  0  0  0  0  0  0
   45.6030   33.6490   41.0270 H   0  0  0  0  0  0  0  0  0  0  0  0
   44.6780   33.7240   38.7290 H   0  0  0  0  0  0  0  0  0  0  0  0
   44.1820   33.4270   43.2980 N   0  0  0  0  0  0  0  0  0  0  0  0
   44.5690   34.1720   43.9210 H   0  0  0  0  0  0  0  0  0  0  0  0
   44.1360   32.4290   43.6040 H   0  0  0  0  0  0  0  0  0  0  0  0
   37.7440   30.9420   39.7330 O   0  0  0  0  0  0  0  0  0  0  0  0
   36.4480   28.7440   40.4720 O   0  0  0  0  0  0  0  0  0  0  0  0
   36.8930   30.0980   40.9200 P   0  0  2  0  0  0  0  0  0  0  0  0
   35.5640   31.0570   41.4010 O   0  0  0  0  0  0  0  0  0  0  0  0
   35.2840   31.6210   40.6200 H   0  0  0  0  0  0  0  0  0  0  0  0
   37.8100   29.9100   42.3510 O   0  0  0  0  0  0  0  0  0  0  0  0
   37.0350   27.2670   42.3570 H   0  0  0  0  0  0  0  0  0  0  0  0
   38.0460   27.5470   42.5040 N   0  0  0  0  0  0  0  0  0  0  0  0
   38.5890   28.7740   42.5300 C   0  0  0  0  0  0  0  0  0  0  0  0
   39.9130   28.5970   42.7500 N   0  0  0  0  0  0  0  0  0  0  0  0
   40.1710   27.2690   42.8550 C   0  0  0  0  0  0  0  0  0  0  0  0
   41.3020   26.5080   43.0720 C   0  0  0  0  0  0  0  0  0  0  0  0
   42.2430   27.0310   43.1960 H   0  0  0  0  0  0  0  0  0  0  0  0
   41.2640   25.1610   43.1320 N   0  0  0  0  0  0  0  0  0  0  0  0
   40.0700   24.5260   42.9740 C   0  0  0  0  0  0  0  0  0  0  0  0
   39.8850   23.4610   42.9970 H   0  0  0  0  0  0  0  0  0  0  0  0
   38.9490   25.2370   42.7610 N   0  0  0  0  0  0  0  0  0  0  0  0
   38.9620   26.5820   42.6970 C   0  0  0  0  0  0  0  0  0  0  0  0
  2  1  1  0  0  0  0
  2  3  1  0  0  0  0
  3 15  1  0  0  0  0
  4  3  2  0  0  0  0
  4  8  1  0  0  0  0
  5  4  1  0  0  0  0
  6  7  1  0  0  0  0
  6  5  2  0  0  0  0
  7  2  2  0  0  0  0
  9  5  1  0  0  0  0
 10  6  1  0  0  0  0
 11 19  1  0  0  0  0
 12 17  1  0  0  0  0
 12 11  2  0  0  0  0
 13 12  1  0  0  0  0
 14 13  2  0  0  0  0
 14 15  1  0  0  0  0
 15 16  2  0  0  0  0
 16 11  1  0  0  0  0
 18 13  1  0  0  0  0
 19 21  1  0  0  0  0
 19 20  1  0  0  0  0
 22  7  1  0  0  0  0
 22 24  1  0  0  0  0
 24 23  2  6  0  0  0
 24 25  1  0  0  0  0
 24 27  1  0  0  0  0
 26 25  1  0  0  0  0
 27 30  1  0  0  0  0
 28 29  1  0  0  0  0
 29 30  1  0  0  0  0
 29 39  1  0  0  0  0
 30 31  2  0  0  0  0
 31 32  1  0  0  0  0
 32 33  1  0  0  0  0
 33 35  2  0  0  0  0
 33 34  1  0  0  0  0
 36 37  1  0  0  0  0
 36 35  1  0  0  0  0
 38 36  2  0  0  0  0
 39 38  1  0  0  0  0
 39 32  2  0  0  0  0
M  END
>  <minimizedAffinity>
-6.43974304

$$$$

 OpenBabel03252506143D

 39 42  0  0  0  0  0  0  0  0999 V2000
   40.6570   30.3480   40.3620 F   0  0  0  0  0  0  0  0  0  0  0  0
   39.4970   30.9430   40.1760 C   0  0  0  0  0  0  0  0  0  0  0  0
   39.4720   32.2660   39.7520 C   0  0  0  0  0  0  0  0  0  0  0  0
   38.2910   32.9720   39.5290 C   0  0  0  0  0  0  0  0  0  0  0  0
   37.0630   32.3410   39.7320 C   0  0  0  0  0  0  0  0  0  0  0  0
   37.1260   31.0240   40.1530 C   0  0  0  0  0  0  0  0  0  0  0  0
   38.2670   30.3210   40.3770 C   0  0  0  0  0  0  0  0  0  0  0  0
   38.3570   34.0170   39.1960 H   0  0  0  0  0  0  0  0  0  0  0  0
   36.2000   32.9330   39.5450 H   0  0  0  0  0  0  0  0  0  0  0  0
   36.1110   30.6560   40.2640 H   0  0  0  0  0  0  0  0  0  0  0  0
   42.2310   33.9500   38.0190 C   0  0  0  0  0  0  0  0  0  0  0  0
   43.0740   34.3090   39.0880 C   0  0  0  0  0  0  0  0  0  0  0  0
   42.6880   33.9680   40.4160 C   0  0  0  0  0  0  0  0  0  0  0  0
   41.5020   33.3030   40.5570 N   0  0  0  0  0  0  0  0  0  0  0  0
   40.7320   32.9810   39.5170 C   0  0  0  0  0  0  0  0  0  0  0  0
   41.0920   33.3010   38.2630 N   0  0  0  0  0  0  0  0  0  0  0  0
   44.0010   34.8320   38.9550 H   0  0  0  0  0  0  0  0  0  0  0  0
   43.3120   34.2300   41.2590 H   0  0  0  0  0  0  0  0  0  0  0  0
   42.6320   34.2990   36.7040 N   0  0  0  0  0  0  0  0  0  0  0  0
   43.3440   33.8890   36.0570 H   0  0  0  0  0  0  0  0  0  0  0  0
   42.0510   35.1220   36.4260 H   0  0  0  0  0  0  0  0  0  0  0  0
   38.2080   29.0210   40.7950 O   0  0  0  0  0  0  0  0  0  0  0  0
   35.8280   28.1320   41.5710 O   0  0  0  0  0  0  0  0  0  0  0  0
   37.2240   28.4160   42.0240 P   0  0  2  0  0  0  0  0  0  0  0  0
   37.2380   29.5350   43.3130 O   0  0  0  0  0  0  0  0  0  0  0  0
   37.3830   30.4530   42.9330 H   0  0  0  0  0  0  0  0  0  0  0  0
   37.8620   26.9840   42.7070 O   0  0  0  0  0  0  0  0  0  0  0  0
   39.5290   26.6570   40.5400 H   0  0  0  0  0  0  0  0  0  0  0  0
   38.9090   25.8700   40.8830 N   0  0  0  0  0  0  0  0  0  0  0  0
   38.0480   25.8600   41.9120 C   0  0  0  0  0  0  0  0  0  0  0  0
   37.5020   24.6220   41.9370 N   0  0  0  0  0  0  0  0  0  0  0  0
   38.0310   23.8840   40.9280 C   0  0  0  0  0  0  0  0  0  0  0  0
   37.8640   22.5930   40.4700 C   0  0  0  0  0  0  0  0  0  0  0  0
   37.1580   21.9610   40.9960 H   0  0  0  0  0  0  0  0  0  0  0  0
   38.5430   22.1110   39.4090 N   0  0  0  0  0  0  0  0  0  0  0  0
   39.4250   22.9230   38.7640 C   0  0  0  0  0  0  0  0  0  0  0  0
   40.0360   22.6780   37.9060 H   0  0  0  0  0  0  0  0  0  0  0  0
   39.6120   24.1870   39.1840 N   0  0  0  0  0  0  0  0  0  0  0  0
   38.9460   24.6900   40.2400 C   0  0  0  0  0  0  0  0  0  0  0  0
  2  1  1  0  0  0  0
  2  7  1  0  0  0  0
  3  2  2  0  0  0  0
  4  5  2  0  0  0  0
  4  3  1  0  0  0  0
  5  6  1  0  0  0  0
  6 10  1  0  0  0  0
  6  7  2  0  0  0  0
  7 22  1  0  0  0  0
  8  4  1  0  0  0  0
  9  5  1  0  0  0  0
 11 16  2  0  0  0  0
 11 12  1  0  0  0  0
 12 13  2  0  0  0  0
 13 14  1  0  0  0  0
 13 18  1  0  0  0  0
 15  3  1  0  0  0  0
 15 14  2  0  0  0  0
 16 15  1  0  0  0  0
 17 12  1  0  0  0  0
 19 11  1  0  0  0  0
 20 19  1  0  0  0  0
 21 19  1  0  0  0  0
 22 24  1  0  0  0  0
 24 23  2  6  0  0  0
 24 27  1  0  0  0  0
 24 25  1  0  0  0  0
 26 25  1  0  0  0  0
 28 29  1  0  0  0  0
 29 30  1  0  0  0  0
 30 31  2  0  0  0  0
 30 27  1  0  0  0  0
 32 31  1  0  0  0  0
 33 32  1  0  0  0  0
 33 34  1  0  0  0  0
 35 33  2  0  0  0  0
 36 38  2  0  0  0  0
 36 35  1  0  0  0  0
 37 36  1  0  0  0  0
 38 39  1  0  0  0  0
 39 29  1  0  0  0  0
 39 32  2  0  0  0  0
M  END
>  <minimizedAffinity>
-6.34869242

$$$$
