
 OpenBabel03252503463D

 47 51  0  0  1  0  0  0  0  0999 V2000
   45.9530   35.5770   42.7360 C   0  0  0  0  0  0  0  0  0  0  0  0
   46.9500   35.4850   42.2530 H   0  0  0  0  0  0  0  0  0  0  0  0
   45.8750   36.6500   43.0180 H   0  0  0  0  0  0  0  0  0  0  0  0
   44.9030   35.1930   41.7810 C   0  0  0  0  0  0  0  0  0  0  0  0
   43.6040   35.6480   41.8050 C   0  0  0  0  0  0  0  0  0  0  0  0
   42.6580   35.2510   40.8930 C   0  0  0  0  0  0  0  0  0  0  0  0
   43.0240   34.3620   39.9170 C   0  0  0  0  0  0  0  0  0  0  0  0
   44.3330   33.8860   39.8690 C   0  0  0  0  0  0  0  0  0  0  0  0
   45.2840   34.3000   40.8030 C   0  0  0  0  0  0  0  0  0  0  0  0
   43.4050   36.3470   42.6120 H   0  0  0  0  0  0  0  0  0  0  0  0
   41.6580   35.6540   40.9780 H   0  0  0  0  0  0  0  0  0  0  0  0
   42.2370   34.0890   39.2300 H   0  0  0  0  0  0  0  0  0  0  0  0
   44.4510   33.1920   39.0350 H   0  0  0  0  0  0  0  0  0  0  0  0
   46.5170   33.6670   40.4920 N   0  0  0  0  0  0  0  0  0  0  0  0
   47.6090   34.1740   39.8480 C   0  0  0  0  0  0  0  0  0  0  0  0
   47.7060   35.1720   39.4630 H   0  0  0  0  0  0  0  0  0  0  0  0
   48.5850   33.2860   39.7320 N   0  0  0  0  0  0  0  0  0  0  0  0
   48.1360   32.1590   40.3100 C   0  0  0  0  0  0  0  0  0  0  0  0
   48.6420   30.8930   40.5250 C   0  0  0  0  0  0  0  0  0  0  0  0
   49.6420   30.6630   40.1730 H   0  0  0  0  0  0  0  0  0  0  0  0
   47.9380   29.9340   41.1540 N   0  0  0  0  0  0  0  0  0  0  0  0
   46.6920   30.1730   41.6090 C   0  0  0  0  0  0  0  0  0  0  0  0
   46.2150   29.3460   42.0970 H   0  0  0  0  0  0  0  0  0  0  0  0
   46.1620   31.4140   41.4130 N   0  0  0  0  0  0  0  0  0  0  0  0
   46.8400   32.3730   40.7940 C   0  0  0  0  0  0  0  0  0  0  0  0
   45.0080   34.8850   44.9140 C   0  0  0  0  0  0  0  0  0  0  0  0
   45.9310   34.7000   43.8900 C   0  0  0  0  0  0  0  0  0  0  0  0
   46.8240   33.6390   44.0320 C   0  0  0  0  0  0  0  0  0  0  0  0
   46.7930   32.8260   45.1120 N   0  0  0  0  0  0  0  0  0  0  0  0
   45.8750   33.0400   46.0880 C   0  0  0  0  0  0  0  0  0  0  0  0
   44.9820   34.0650   45.9970 N   0  0  0  0  0  0  0  0  0  0  0  0
   44.3240   35.7110   44.7910 H   0  0  0  0  0  0  0  0  0  0  0  0
   47.5870   33.3950   43.3410 H   0  0  0  0  0  0  0  0  0  0  0  0
   47.3210   31.8110   47.6950 C   0  0  2  0  0  0  0  0  0  0  0  0
   45.8700   32.1370   47.2360 C   0  0  1  0  0  0  0  0  0  0  0  0
   45.3960   32.6540   48.3940 O   0  0  0  0  0  0  0  0  0  0  0  0
   45.7740   31.8220   49.4080 C   0  0  0  0  0  0  0  0  0  0  0  0
   46.9390   30.9870   48.9310 C   0  0  2  0  0  0  0  0  0  0  0  0
   47.8430   31.2090   46.9320 H   0  0  0  0  0  0  0  0  0  0  0  0
   45.3830   31.1550   47.0290 H   0  0  0  0  0  0  0  0  0  0  0  0
   44.9180   31.2070   49.7520 H   0  0  0  0  0  0  0  0  0  0  0  0
   46.0710   32.4390   50.2830 H   0  0  0  0  0  0  0  0  0  0  0  0
   46.5660   29.9990   48.6560 H   0  0  0  0  0  0  0  0  0  0  0  0
   47.9420   32.9250   48.1130 O   0  0  0  0  0  0  0  0  0  0  0  0
   48.7680   33.1690   47.6410 H   0  0  0  0  0  0  0  0  0  0  0  0
   47.9600   30.8860   49.8370 O   0  0  0  0  0  0  0  0  0  0  0  0
   47.5690   30.7070   50.7380 H   0  0  0  0  0  0  0  0  0  0  0  0
  1  3  1  0  0  0  0
  1 27  1  0  0  0  0
  2  1  1  0  0  0  0
  4  5  1  0  0  0  0
  4  1  1  0  0  0  0
  5 10  1  0  0  0  0
  6 11  1  0  0  0  0
  6  5  2  0  0  0  0
  7  6  1  0  0  0  0
  8  7  2  0  0  0  0
  8  9  1  0  0  0  0
  9  4  2  0  0  0  0
 12  7  1  0  0  0  0
 13  8  1  0  0  0  0
 14 25  1  0  0  0  0
 14  9  1  0  0  0  0
 15 14  1  0  0  0  0
 16 15  1  0  0  0  0
 17 15  2  0  0  0  0
 17 18  1  0  0  0  0
 18 19  2  0  0  0  0
 18 25  1  0  0  0  0
 19 21  1  0  0  0  0
 20 19  1  0  0  0  0
 21 22  2  0  0  0  0
 22 23  1  0  0  0  0
 24 22  1  0  0  0  0
 25 24  2  0  0  0  0
 26 31  1  0  0  0  0
 27 28  1  0  0  0  0
 27 26  2  0  0  0  0
 28 29  2  0  0  0  0
 29 30  1  0  0  0  0
 30 35  1  0  0  0  0
 31 30  2  0  0  0  0
 32 26  1  0  0  0  0
 33 28  1  0  0  0  0
 34 39  1  6  0  0  0
 34 44  1  0  0  0  0
 34 38  1  0  0  0  0
 35 40  1  6  0  0  0
 35 34  1  0  0  0  0
 35 36  1  0  0  0  0
 36 37  1  0  0  0  0
 37 41  1  0  0  0  0
 37 42  1  0  0  0  0
 38 43  1  6  0  0  0
 38 37  1  0  0  0  0
 38 46  1  0  0  0  0
 45 44  1  0  0  0  0
 46 47  1  0  0  0  0
M  END
>  <minimizedAffinity>
-7.00671911

>  <minimizedRMSD>
1.13624465

$$$$
