
 OpenBabel03252507313D

 52 56  0  0  1  0  0  0  0  0999 V2000
   46.9880   32.7230   45.4830 C   0  0  0  0  0  0  0  0  0  0  0  0
   45.9030   33.3980   46.0200 C   0  0  0  0  0  0  0  0  0  0  0  0
   45.2210   34.3610   45.2410 C   0  0  0  0  0  0  0  0  0  0  0  0
   45.7050   34.5670   43.9510 N   0  0  0  0  0  0  0  0  0  0  0  0
   46.7580   33.8830   43.4940 C   0  0  0  0  0  0  0  0  0  0  0  0
   47.3880   32.9770   44.2430 N   0  0  0  0  0  0  0  0  0  0  0  0
   45.3990   33.4280   46.9630 H   0  0  0  0  0  0  0  0  0  0  0  0
   44.3840   34.9630   45.4800 H   0  0  0  0  0  0  0  0  0  0  0  0
   47.2300   34.1610   42.1340 C   0  0  0  0  0  0  0  0  0  0  0  0
   48.1870   35.1220   41.8980 C   0  0  0  0  0  0  0  0  0  0  0  0
   48.6940   35.4540   40.6600 C   0  0  0  0  0  0  0  0  0  0  0  0
   48.1610   34.7320   39.6220 C   0  0  0  0  0  0  0  0  0  0  0  0
   47.1890   33.7510   39.8310 C   0  0  0  0  0  0  0  0  0  0  0  0
   46.7320   33.4750   41.0920 N   0  0  0  0  0  0  0  0  0  0  0  0
   48.5620   35.6530   42.7780 H   0  0  0  0  0  0  0  0  0  0  0  0
   49.4400   36.2060   40.4930 H   0  0  0  0  0  0  0  0  0  0  0  0
   48.4690   34.8900   38.5980 H   0  0  0  0  0  0  0  0  0  0  0  0
   46.6710   33.0330   38.7140 N   0  0  0  0  0  0  0  0  0  0  0  0
   45.4500   33.0190   38.1060 C   0  0  0  0  0  0  0  0  0  0  0  0
   44.6440   33.6430   38.4670 H   0  0  0  0  0  0  0  0  0  0  0  0
   45.4870   32.1470   37.0750 N   0  0  0  0  0  0  0  0  0  0  0  0
   46.7200   31.5960   37.0080 C   0  0  0  0  0  0  0  0  0  0  0  0
   47.2700   30.6590   36.1450 C   0  0  0  0  0  0  0  0  0  0  0  0
   46.6760   30.2280   35.3400 H   0  0  0  0  0  0  0  0  0  0  0  0
   48.5490   30.2640   36.2900 N   0  0  0  0  0  0  0  0  0  0  0  0
   49.2500   30.8310   37.3140 C   0  0  0  0  0  0  0  0  0  0  0  0
   50.3020   30.5850   37.5270 H   0  0  0  0  0  0  0  0  0  0  0  0
   48.7570   31.7440   38.1740 N   0  0  0  0  0  0  0  0  0  0  0  0
   47.4740   32.1540   38.0470 C   0  0  0  0  0  0  0  0  0  0  0  0
   47.6370   31.7280   46.3140 C   0  0  2  0  0  0  0  0  0  0  0  0
   47.3980   30.2890   45.7790 C   0  0  0  0  0  0  0  0  0  0  0  0
   48.2150   29.3230   46.5690 C   0  0  0  0  0  0  0  0  0  0  0  0
   48.2020   29.5140   48.0470 C   0  0  0  0  0  0  0  0  0  0  0  0
   48.1990   30.8940   48.4710 C   0  0  0  0  0  0  0  0  0  0  0  0
   47.1970   31.7790   47.6940 C   0  0  2  0  0  0  0  0  0  0  0  0
   48.7350   31.8450   46.1980 H   0  0  0  0  0  0  0  0  0  0  0  0
   46.3470   30.0110   45.7980 H   0  0  0  0  0  0  0  0  0  0  0  0
   47.7270   30.2820   44.7210 H   0  0  0  0  0  0  0  0  0  0  0  0
   49.2080   29.2900   46.0800 H   0  0  0  0  0  0  0  0  0  0  0  0
   47.7890   28.2940   46.3770 H   0  0  0  0  0  0  0  0  0  0  0  0
   47.8300   28.7020   48.6710 H   0  0  0  0  0  0  0  0  0  0  0  0
   49.3150   29.2570   48.2700 H   0  0  0  0  0  0  0  0  0  0  0  0
   49.1530   31.4730   48.4190 H   0  0  0  0  0  0  0  0  0  0  0  0
   47.8880   31.0000   49.5470 H   0  0  0  0  0  0  0  0  0  0  0  0
   47.3140   32.7290   48.2160 H   0  0  0  0  0  0  0  0  0  0  0  0
   45.8620   31.1900   47.8150 N   0  0  0  0  0  0  0  0  0  0  0  0
   45.1670   30.6700   48.9210 C   0  0  0  0  0  0  0  0  0  0  0  0
   44.6120   31.4120   49.8100 O   0  0  0  0  0  0  0  0  0  0  0  0
   45.1180   29.2440   48.9770 N   0  0  0  0  0  0  0  0  0  0  0  0
   45.2300   31.0200   46.9450 H   0  0  0  0  0  0  0  0  0  0  0  0
   44.8190   28.5640   48.2560 H   0  0  0  0  0  0  0  0  0  0  0  0
   45.4160   28.7370   49.8460 H   0  0  0  0  0  0  0  0  0  0  0  0
  1  2  1  0  0  0  0
  1 30  1  0  0  0  0
  2  7  1  0  0  0  0
  3  8  1  0  0  0  0
  3  2  2  0  0  0  0
  4  3  1  0  0  0  0
  5  4  2  0  0  0  0
  5  6  1  0  0  0  0
  6  1  2  0  0  0  0
  9  5  1  0  0  0  0
 10  9  1  0  0  0  0
 10 15  1  0  0  0  0
 11 10  2  0  0  0  0
 12 13  2  0  0  0  0
 12 11  1  0  0  0  0
 13 14  1  0  0  0  0
 14  9  2  0  0  0  0
 16 11  1  0  0  0  0
 17 12  1  0  0  0  0
 18 13  1  0  0  0  0
 19 20  1  0  0  0  0
 19 18  1  0  0  0  0
 21 19  2  0  0  0  0
 22 21  1  0  0  0  0
 22 29  1  0  0  0  0
 23 25  1  0  0  0  0
 23 22  2  0  0  0  0
 24 23  1  0  0  0  0
 25 26  2  0  0  0  0
 26 27  1  0  0  0  0
 26 28  1  0  0  0  0
 29 28  2  0  0  0  0
 29 18  1  0  0  0  0
 30 36  1  6  0  0  0
 30 35  1  0  0  0  0
 31 37  1  0  0  0  0
 31 30  1  0  0  0  0
 31 32  1  0  0  0  0
 32 33  1  0  0  0  0
 33 42  1  0  0  0  0
 33 34  1  0  0  0  0
 33 41  1  0  0  0  0
 34 44  1  0  0  0  0
 35 46  1  0  0  0  0
 35 45  1  1  0  0  0
 35 34  1  0  0  0  0
 38 31  1  0  0  0  0
 39 32  1  0  0  0  0
 40 32  1  0  0  0  0
 43 34  1  0  0  0  0
 46 47  1  0  0  0  0
 47 49  1  0  0  0  0
 47 48  2  0  0  0  0
 49 52  1  0  0  0  0
 50 46  1  0  0  0  0
 51 49  1  0  0  0  0
M  END
>  <minimizedAffinity>
-6.84309149

>  <minimizedRMSD>
0.206053808

$$$$
