
 OpenBabel03252505033D

 37 40  0  0  1  0  0  0  0  0999 V2000
   45.1230   34.9760   44.3120 C   0  0  0  0  0  0  0  0  0  0  0  0
   45.9750   34.7770   43.2110 C   0  0  0  0  0  0  0  0  0  0  0  0
   47.0230   33.8400   43.3770 C   0  0  0  0  0  0  0  0  0  0  0  0
   47.1400   33.2000   44.5680 N   0  0  0  0  0  0  0  0  0  0  0  0
   46.3030   33.4230   45.5860 C   0  0  0  0  0  0  0  0  0  0  0  0
   45.2750   34.3230   45.4670 N   0  0  0  0  0  0  0  0  0  0  0  0
   44.3300   35.7030   44.1520 H   0  0  0  0  0  0  0  0  0  0  0  0
   45.8840   35.2820   42.2710 H   0  0  0  0  0  0  0  0  0  0  0  0
   46.5060   32.6850   46.8580 C   0  0  2  0  0  0  0  0  0  0  0  0
   47.0300   31.3390   46.4730 C   0  0  0  0  0  0  0  0  0  0  0  0
   46.0780   30.2180   46.5810 C   0  0  0  0  0  0  0  0  0  0  0  0
   45.5610   30.2370   48.0050 C   0  0  0  0  0  0  0  0  0  0  0  0
   44.7730   31.4430   48.2950 C   0  0  0  0  0  0  0  0  0  0  0  0
   45.3010   32.7050   47.6740 C   0  0  0  0  0  0  0  0  0  0  0  0
   47.2950   33.2670   47.3950 H   0  0  0  0  0  0  0  0  0  0  0  0
   47.4590   31.3200   45.4450 H   0  0  0  0  0  0  0  0  0  0  0  0
   47.9190   31.1260   47.1290 H   0  0  0  0  0  0  0  0  0  0  0  0
   45.2890   30.2530   45.8260 H   0  0  0  0  0  0  0  0  0  0  0  0
   46.6330   29.2700   46.4650 H   0  0  0  0  0  0  0  0  0  0  0  0
   46.3650   30.0050   48.6960 H   0  0  0  0  0  0  0  0  0  0  0  0
   44.8170   29.4060   48.0420 H   0  0  0  0  0  0  0  0  0  0  0  0
   43.9040   31.6790   48.8380 H   0  0  0  0  0  0  0  0  0  0  0  0
   44.6290   33.9410   47.8750 N   0  0  0  0  0  0  0  0  0  0  0  0
   44.9570   34.6910   48.5230 H   0  0  0  0  0  0  0  0  0  0  0  0
   43.7620   34.0200   47.2980 H   0  0  0  0  0  0  0  0  0  0  0  0
   47.9540   33.5420   42.3500 N   0  0  0  0  0  0  0  0  0  0  0  0
   49.2940   33.3640   42.2910 C   0  0  0  0  0  0  0  0  0  0  0  0
   49.8660   33.4570   43.2090 H   0  0  0  0  0  0  0  0  0  0  0  0
   49.6710   33.0960   41.0320 N   0  0  0  0  0  0  0  0  0  0  0  0
   48.5650   33.0960   40.2540 C   0  0  0  0  0  0  0  0  0  0  0  0
   48.4770   32.8680   38.9080 C   0  0  0  0  0  0  0  0  0  0  0  0
   49.3010   32.6540   38.2730 H   0  0  0  0  0  0  0  0  0  0  0  0
   47.2520   32.9210   38.3410 N   0  0  0  0  0  0  0  0  0  0  0  0
   46.1800   33.1940   39.1310 C   0  0  0  0  0  0  0  0  0  0  0  0
   45.1480   33.2630   38.7940 H   0  0  0  0  0  0  0  0  0  0  0  0
   46.3220   33.4090   40.4510 N   0  0  0  0  0  0  0  0  0  0  0  0
   47.4960   33.3760   41.0870 C   0  0  0  0  0  0  0  0  0  0  0  0
  1  6  1  0  0  0  0
  2  3  1  0  0  0  0
  2  1  2  0  0  0  0
  3  4  2  0  0  0  0
  4  5  1  0  0  0  0
  5  9  1  0  0  0  0
  6  5  2  0  0  0  0
  7  1  1  0  0  0  0
  8  2  1  0  0  0  0
  9 15  1  1  0  0  0
  9 14  1  0  0  0  0
 10 11  1  0  0  0  0
 10  9  1  0  0  0  0
 10 17  1  0  0  0  0
 11 12  1  0  0  0  0
 12 21  1  0  0  0  0
 12 13  1  0  0  0  0
 12 20  1  0  0  0  0
 13 22  1  0  0  0  0
 14 23  1  0  0  0  0
 14 13  2  0  0  0  0
 16 10  1  0  0  0  0
 18 11  1  0  0  0  0
 19 11  1  0  0  0  0
 23 24  1  0  0  0  0
 25 23  1  0  0  0  0
 26  3  1  0  0  0  0
 27 26  1  0  0  0  0
 27 28  1  0  0  0  0
 29 27  2  0  0  0  0
 30 29  1  0  0  0  0
 30 37  1  0  0  0  0
 31 30  2  0  0  0  0
 32 31  1  0  0  0  0
 33 31  1  0  0  0  0
 33 34  2  0  0  0  0
 34 36  1  0  0  0  0
 35 34  1  0  0  0  0
 36 37  2  0  0  0  0
 37 26  1  0  0  0  0
M  END
>  <minimizedAffinity>
-6.26496172

>  <minimizedRMSD>
0.628483057

$$$$
