
 OpenBabel03252507023D

 41 44  0  0  0  0  0  0  0  0999 V2000
   45.5850   31.0550   42.4380 C   0  0  0  0  0  0  0  0  0  0  0  0
   44.6190   30.5280   42.5290 H   0  0  0  0  0  0  0  0  0  0  0  0
   45.9690   31.1730   43.4770 H   0  0  0  0  0  0  0  0  0  0  0  0
   46.5880   30.2730   41.6660 C   0  0  0  0  0  0  0  0  0  0  0  0
   46.2640   29.0660   41.0720 C   0  0  0  0  0  0  0  0  0  0  0  0
   47.2640   28.3930   40.3810 C   0  0  0  0  0  0  0  0  0  0  0  0
   48.5140   28.9470   40.3190 N   0  0  0  0  0  0  0  0  0  0  0  0
   48.7720   30.1200   40.9120 C   0  0  0  0  0  0  0  0  0  0  0  0
   47.8170   30.7610   41.5710 N   0  0  0  0  0  0  0  0  0  0  0  0
   45.2630   28.6680   41.1500 H   0  0  0  0  0  0  0  0  0  0  0  0
   47.0680   27.4440   39.8980 H   0  0  0  0  0  0  0  0  0  0  0  0
   50.0700   30.7130   40.8560 N   0  0  0  0  0  0  0  0  0  0  0  0
   50.3010   31.9260   41.3910 C   0  0  0  0  0  0  0  0  0  0  0  0
   49.6160   32.5890   41.9000 H   0  0  0  0  0  0  0  0  0  0  0  0
   51.5760   32.2390   41.2030 N   0  0  0  0  0  0  0  0  0  0  0  0
   52.1590   31.2140   40.5430 C   0  0  0  0  0  0  0  0  0  0  0  0
   53.4340   30.9310   40.0630 C   0  0  0  0  0  0  0  0  0  0  0  0
   54.1950   31.6760   40.2250 H   0  0  0  0  0  0  0  0  0  0  0  0
   53.6450   29.7650   39.4320 N   0  0  0  0  0  0  0  0  0  0  0  0
   52.6940   28.8350   39.2290 C   0  0  0  0  0  0  0  0  0  0  0  0
   52.9090   27.9080   38.7150 H   0  0  0  0  0  0  0  0  0  0  0  0
   51.4340   29.0720   39.6840 N   0  0  0  0  0  0  0  0  0  0  0  0
   51.1990   30.2270   40.3150 C   0  0  0  0  0  0  0  0  0  0  0  0
   45.4990   32.4080   41.7990 C   0  0  0  0  0  0  0  0  0  0  0  0
   45.1480   32.2130   40.7330 H   0  0  0  0  0  0  0  0  0  0  0  0
   46.5450   32.7500   41.6080 H   0  0  0  0  0  0  0  0  0  0  0  0
   44.8350   33.2920   42.5360 N   0  0  0  0  0  0  0  0  0  0  0  0
   45.0890   33.7090   43.8680 C   0  0  0  0  0  0  0  0  0  0  0  0
   45.7450   35.0800   43.5610 C   0  0  0  0  0  0  0  0  0  0  0  0
   44.8430   35.9960   42.8570 C   0  0  0  0  0  0  0  0  0  0  0  0
   43.7330   35.4410   42.0820 C   0  0  0  0  0  0  0  0  0  0  0  0
   43.7140   33.9640   41.8710 C   0  0  0  0  0  0  0  0  0  0  0  0
   44.2780   33.8280   44.5620 H   0  0  0  0  0  0  0  0  0  0  0  0
   45.8880   33.1420   44.3640 H   0  0  0  0  0  0  0  0  0  0  0  0
   46.6480   34.8080   42.9590 H   0  0  0  0  0  0  0  0  0  0  0  0
   46.0630   35.5020   44.5400 H   0  0  0  0  0  0  0  0  0  0  0  0
   44.4050   36.7400   43.5540 H   0  0  0  0  0  0  0  0  0  0  0  0
   45.4500   36.6050   42.1300 H   0  0  0  0  0  0  0  0  0  0  0  0
   42.9450   35.9790   41.6280 H   0  0  0  0  0  0  0  0  0  0  0  0
   42.4700   33.1940   40.8710 S   0  0  0  0  0  0  0  0  0  0  0  0
   43.0040   32.5020   39.7850 H   0  0  0  0  0  0  0  0  0  0  0  0
  1  2  1  0  0  0  0
  1  3  1  0  0  0  0
  4  1  1  0  0  0  0
  5 10  1  0  0  0  0
  5  4  2  0  0  0  0
  6  5  1  0  0  0  0
  7  6  2  0  0  0  0
  7  8  1  0  0  0  0
  8  9  2  0  0  0  0
  9  4  1  0  0  0  0
 11  6  1  0  0  0  0
 12  8  1  0  0  0  0
 12 13  1  0  0  0  0
 13 14  1  0  0  0  0
 15 13  2  0  0  0  0
 16 15  1  0  0  0  0
 17 18  1  0  0  0  0
 17 16  2  0  0  0  0
 19 17  1  0  0  0  0
 20 19  2  0  0  0  0
 20 22  1  0  0  0  0
 21 20  1  0  0  0  0
 22 23  2  0  0  0  0
 23 16  1  0  0  0  0
 23 12  1  0  0  0  0
 24  1  1  0  0  0  0
 24 27  1  0  0  0  0
 25 24  1  0  0  0  0
 26 24  1  0  0  0  0
 27 28  1  0  0  0  0
 28 34  1  0  0  0  0
 28 33  1  0  0  0  0
 29 28  1  0  0  0  0
 29 36  1  0  0  0  0
 30 37  1  0  0  0  0
 30 29  1  0  0  0  0
 31 30  1  0  0  0  0
 32 31  2  0  0  0  0
 32 27  1  0  0  0  0
 35 29  1  0  0  0  0
 38 30  1  0  0  0  0
 39 31  1  0  0  0  0
 40 32  1  0  0  0  0
 41 40  1  0  0  0  0
M  END
>  <minimizedAffinity>
-3.45971441

>  <minimizedRMSD>
10.441309

$$$$
