
 OpenBabel03242518193D

 33 36  0  0  0  0  0  0  0  0999 V2000
   46.5340   31.7260   42.7370 C   0  0  0  0  0  0  0  0  0  0  0  0
   47.8970   31.9400   42.7340 C   0  0  0  0  0  0  0  0  0  0  0  0
   48.4620   30.9320   43.5210 C   0  0  0  0  0  0  0  0  0  0  0  0
   47.3930   30.1670   43.9520 C   0  0  0  0  0  0  0  0  0  0  0  0
   46.3160   30.6760   43.4660 O   0  0  0  0  0  0  0  0  0  0  0  0
   48.4450   32.7180   42.2350 H   0  0  0  0  0  0  0  0  0  0  0  0
   49.5030   30.7950   43.7350 H   0  0  0  0  0  0  0  0  0  0  0  0
   47.4560   29.0160   44.7870 N   0  0  0  0  0  0  0  0  0  0  0  0
   48.3200   27.9860   44.7430 C   0  0  0  0  0  0  0  0  0  0  0  0
   49.1370   27.8650   44.0390 H   0  0  0  0  0  0  0  0  0  0  0  0
   48.0670   27.0740   45.6990 N   0  0  0  0  0  0  0  0  0  0  0  0
   47.0120   27.5250   46.3770 C   0  0  0  0  0  0  0  0  0  0  0  0
   46.2400   27.1210   47.4450 C   0  0  0  0  0  0  0  0  0  0  0  0
   46.4840   26.1840   47.9350 H   0  0  0  0  0  0  0  0  0  0  0  0
   45.1940   27.8420   47.9060 N   0  0  0  0  0  0  0  0  0  0  0  0
   44.8620   29.0070   47.3230 C   0  0  0  0  0  0  0  0  0  0  0  0
   44.0190   29.5520   47.7220 H   0  0  0  0  0  0  0  0  0  0  0  0
   45.5780   29.4490   46.2810 N   0  0  0  0  0  0  0  0  0  0  0  0
   46.6350   28.7250   45.8130 C   0  0  0  0  0  0  0  0  0  0  0  0
   45.5380   32.5950   42.0010 C   0  0  0  0  0  0  0  0  0  0  0  0
   45.8850   32.8070   40.9660 H   0  0  0  0  0  0  0  0  0  0  0  0
   44.6230   31.9620   41.9040 H   0  0  0  0  0  0  0  0  0  0  0  0
   44.9390   34.8910   44.8040 C   0  0  0  0  0  0  0  0  0  0  0  0
   44.8570   36.1430   44.1990 C   0  0  0  0  0  0  0  0  0  0  0  0
   45.0060   36.1980   42.8320 C   0  0  0  0  0  0  0  0  0  0  0  0
   45.2230   35.0580   42.1340 N   0  0  0  0  0  0  0  0  0  0  0  0
   45.2990   33.8470   42.7590 C   0  0  0  0  0  0  0  0  0  0  0  0
   45.1540   33.7650   44.1170 N   0  0  0  0  0  0  0  0  0  0  0  0
   44.8350   34.7500   45.8710 H   0  0  0  0  0  0  0  0  0  0  0  0
   44.9410   37.1710   42.3660 H   0  0  0  0  0  0  0  0  0  0  0  0
   44.6270   37.2280   45.0550 N   0  0  0  0  0  0  0  0  0  0  0  0
   45.1250   37.2810   45.9830 H   0  0  0  0  0  0  0  0  0  0  0  0
   43.9940   38.0400   44.8940 H   0  0  0  0  0  0  0  0  0  0  0  0
  1  5  1  0  0  0  0
  2  1  2  0  0  0  0
  2  3  1  0  0  0  0
  3  7  1  0  0  0  0
  3  4  2  0  0  0  0
  4  8  1  0  0  0  0
  5  4  1  0  0  0  0
  6  2  1  0  0  0  0
  8 19  1  0  0  0  0
  9  8  1  0  0  0  0
  9 11  2  0  0  0  0
 10  9  1  0  0  0  0
 11 12  1  0  0  0  0
 12 13  1  0  0  0  0
 13 15  2  0  0  0  0
 13 14  1  0  0  0  0
 16 17  1  0  0  0  0
 16 15  1  0  0  0  0
 18 16  2  0  0  0  0
 19 18  1  0  0  0  0
 19 12  2  0  0  0  0
 20  1  1  0  0  0  0
 20 27  1  0  0  0  0
 21 20  1  0  0  0  0
 22 20  1  0  0  0  0
 23 29  1  0  0  0  0
 24 23  1  0  0  0  0
 24 31  1  0  0  0  0
 25 24  2  0  0  0  0
 26 27  2  0  0  0  0
 26 25  1  0  0  0  0
 27 28  1  0  0  0  0
 28 23  2  0  0  0  0
 30 25  1  0  0  0  0
 31 32  1  0  0  0  0
 33 31  1  0  0  0  0
M  END
>  <minimizedAffinity>
-3.72476411

>  <minimizedRMSD>
5.23245907

$$$$
