
 OpenBabel03252507313D

 52 56  0  0  1  0  0  0  0  0999 V2000
   46.8920   32.9340   45.5210 C   0  0  0  0  0  0  0  0  0  0  0  0
   45.7940   33.6370   45.9920 C   0  0  0  0  0  0  0  0  0  0  0  0
   45.0980   34.5120   45.1260 C   0  0  0  0  0  0  0  0  0  0  0  0
   45.5840   34.6080   43.8230 N   0  0  0  0  0  0  0  0  0  0  0  0
   46.6500   33.9030   43.4330 C   0  0  0  0  0  0  0  0  0  0  0  0
   47.2930   33.0810   44.2640 N   0  0  0  0  0  0  0  0  0  0  0  0
   45.2860   33.7440   46.9270 H   0  0  0  0  0  0  0  0  0  0  0  0
   44.2500   35.1190   45.3070 H   0  0  0  0  0  0  0  0  0  0  0  0
   47.1230   34.0650   42.0550 C   0  0  0  0  0  0  0  0  0  0  0  0
   48.0850   34.9970   41.7400 C   0  0  0  0  0  0  0  0  0  0  0  0
   48.5930   35.2210   40.4780 C   0  0  0  0  0  0  0  0  0  0  0  0
   48.0550   34.4190   39.5040 C   0  0  0  0  0  0  0  0  0  0  0  0
   47.0780   33.4640   39.7950 C   0  0  0  0  0  0  0  0  0  0  0  0
   46.6200   33.2970   41.0740 N   0  0  0  0  0  0  0  0  0  0  0  0
   48.4640   35.5980   42.5720 H   0  0  0  0  0  0  0  0  0  0  0  0
   49.3430   35.9520   40.2480 H   0  0  0  0  0  0  0  0  0  0  0  0
   48.3630   34.4890   38.4700 H   0  0  0  0  0  0  0  0  0  0  0  0
   46.5540   32.6580   38.7420 N   0  0  0  0  0  0  0  0  0  0  0  0
   45.5140   31.7790   38.6770 C   0  0  0  0  0  0  0  0  0  0  0  0
   44.9000   31.5820   39.5450 H   0  0  0  0  0  0  0  0  0  0  0  0
   45.4460   31.2750   37.4250 N   0  0  0  0  0  0  0  0  0  0  0  0
   46.4320   31.8210   36.6770 C   0  0  0  0  0  0  0  0  0  0  0  0
   46.7930   31.6440   35.3490 C   0  0  0  0  0  0  0  0  0  0  0  0
   46.2380   30.9590   34.7090 H   0  0  0  0  0  0  0  0  0  0  0  0
   47.8350   32.3170   34.8280 N   0  0  0  0  0  0  0  0  0  0  0  0
   48.4970   33.1630   35.6700 C   0  0  0  0  0  0  0  0  0  0  0  0
   49.3640   33.7640   35.3560 H   0  0  0  0  0  0  0  0  0  0  0  0
   48.1820   33.3650   36.9650 N   0  0  0  0  0  0  0  0  0  0  0  0
   47.1380   32.6980   37.5090 C   0  0  0  0  0  0  0  0  0  0  0  0
   47.5550   32.0310   46.4410 C   0  0  2  0  0  0  0  0  0  0  0  0
   47.4310   30.5510   45.9830 C   0  0  0  0  0  0  0  0  0  0  0  0
   48.2610   29.6850   46.8680 C   0  0  0  0  0  0  0  0  0  0  0  0
   48.1590   29.9590   48.3300 C   0  0  0  0  0  0  0  0  0  0  0  0
   48.0530   31.3590   48.6690 C   0  0  0  0  0  0  0  0  0  0  0  0
   47.0420   32.1340   47.7930 C   0  0  2  0  0  0  0  0  0  0  0  0
   48.6490   32.2100   46.3710 H   0  0  0  0  0  0  0  0  0  0  0  0
   46.3980   30.2100   45.9680 H   0  0  0  0  0  0  0  0  0  0  0  0
   47.8130   30.5040   44.9440 H   0  0  0  0  0  0  0  0  0  0  0  0
   49.2770   29.6860   46.4310 H   0  0  0  0  0  0  0  0  0  0  0  0
   47.9070   28.6230   46.7190 H   0  0  0  0  0  0  0  0  0  0  0  0
   47.8040   29.1630   48.9830 H   0  0  0  0  0  0  0  0  0  0  0  0
   49.2730   29.7860   48.6210 H   0  0  0  0  0  0  0  0  0  0  0  0
   48.9720   31.9920   48.6290 H   0  0  0  0  0  0  0  0  0  0  0  0
   47.6810   31.5060   49.7200 H   0  0  0  0  0  0  0  0  0  0  0  0
   47.0750   33.1180   48.2610 H   0  0  0  0  0  0  0  0  0  0  0  0
   45.7400   31.4710   47.8840 N   0  0  0  0  0  0  0  0  0  0  0  0
   45.1130   30.7840   48.9380 C   0  0  0  0  0  0  0  0  0  0  0  0
   44.5630   31.3810   49.9330 O   0  0  0  0  0  0  0  0  0  0  0  0
   45.1290   29.3610   48.8140 N   0  0  0  0  0  0  0  0  0  0  0  0
   45.0810   31.3810   47.0230 H   0  0  0  0  0  0  0  0  0  0  0  0
   44.8300   28.7630   48.0240 H   0  0  0  0  0  0  0  0  0  0  0  0
   45.4840   28.7640   49.6010 H   0  0  0  0  0  0  0  0  0  0  0  0
  1  2  1  0  0  0  0
  1 30  1  0  0  0  0
  2  7  1  0  0  0  0
  3  8  1  0  0  0  0
  3  2  2  0  0  0  0
  4  3  1  0  0  0  0
  5  4  2  0  0  0  0
  5  6  1  0  0  0  0
  6  1  2  0  0  0  0
  9  5  1  0  0  0  0
 10  9  1  0  0  0  0
 10 15  1  0  0  0  0
 11 10  2  0  0  0  0
 12 13  2  0  0  0  0
 12 11  1  0  0  0  0
 13 14  1  0  0  0  0
 14  9  2  0  0  0  0
 16 11  1  0  0  0  0
 17 12  1  0  0  0  0
 18 13  1  0  0  0  0
 19 18  1  0  0  0  0
 19 20  1  0  0  0  0
 21 19  2  0  0  0  0
 22 21  1  0  0  0  0
 22 29  1  0  0  0  0
 23 22  2  0  0  0  0
 24 23  1  0  0  0  0
 25 23  1  0  0  0  0
 25 26  2  0  0  0  0
 26 28  1  0  0  0  0
 27 26  1  0  0  0  0
 28 29  2  0  0  0  0
 29 18  1  0  0  0  0
 30 36  1  1  0  0  0
 30 35  1  0  0  0  0
 31 30  1  0  0  0  0
 31 32  1  0  0  0  0
 32 33  1  0  0  0  0
 33 42  1  0  0  0  0
 33 34  1  0  0  0  0
 33 41  1  0  0  0  0
 34 44  1  0  0  0  0
 35 46  1  0  0  0  0
 35 45  1  1  0  0  0
 35 34  1  0  0  0  0
 37 31  1  0  0  0  0
 38 31  1  0  0  0  0
 39 32  1  0  0  0  0
 40 32  1  0  0  0  0
 43 34  1  0  0  0  0
 46 47  1  0  0  0  0
 47 48  2  0  0  0  0
 49 47  1  0  0  0  0
 49 52  1  0  0  0  0
 50 46  1  0  0  0  0
 51 49  1  0  0  0  0
M  END
>  <minimizedAffinity>
-7.16570663

>  <minimizedRMSD>
0.316432387

$$$$
