
 OpenBabel03252505033D

 37 40  0  0  1  0  0  0  0  0999 V2000
   45.1240   34.9750   44.3120 C   0  0  0  0  0  0  0  0  0  0  0  0
   45.9760   34.7770   43.2110 C   0  0  0  0  0  0  0  0  0  0  0  0
   47.0230   33.8390   43.3780 C   0  0  0  0  0  0  0  0  0  0  0  0
   47.1400   33.1980   44.5680 N   0  0  0  0  0  0  0  0  0  0  0  0
   46.3040   33.4220   45.5860 C   0  0  0  0  0  0  0  0  0  0  0  0
   45.2760   34.3220   45.4670 N   0  0  0  0  0  0  0  0  0  0  0  0
   44.3310   35.7030   44.1520 H   0  0  0  0  0  0  0  0  0  0  0  0
   45.8850   35.2810   42.2710 H   0  0  0  0  0  0  0  0  0  0  0  0
   46.5070   32.6840   46.8580 C   0  0  2  0  0  0  0  0  0  0  0  0
   47.0300   31.3380   46.4730 C   0  0  0  0  0  0  0  0  0  0  0  0
   46.0780   30.2170   46.5820 C   0  0  0  0  0  0  0  0  0  0  0  0
   45.5610   30.2360   48.0060 C   0  0  0  0  0  0  0  0  0  0  0  0
   44.7730   31.4420   48.2950 C   0  0  0  0  0  0  0  0  0  0  0  0
   45.3020   32.7040   47.6740 C   0  0  0  0  0  0  0  0  0  0  0  0
   47.2950   33.2660   47.3960 H   0  0  0  0  0  0  0  0  0  0  0  0
   47.4590   31.3190   45.4460 H   0  0  0  0  0  0  0  0  0  0  0  0
   47.9190   31.1250   47.1290 H   0  0  0  0  0  0  0  0  0  0  0  0
   45.2890   30.2530   45.8260 H   0  0  0  0  0  0  0  0  0  0  0  0
   46.6330   29.2690   46.4660 H   0  0  0  0  0  0  0  0  0  0  0  0
   46.3650   30.0040   48.6970 H   0  0  0  0  0  0  0  0  0  0  0  0
   44.8170   29.4060   48.0420 H   0  0  0  0  0  0  0  0  0  0  0  0
   43.9040   31.6790   48.8380 H   0  0  0  0  0  0  0  0  0  0  0  0
   44.6290   33.9410   47.8750 N   0  0  0  0  0  0  0  0  0  0  0  0
   44.9570   34.6910   48.5240 H   0  0  0  0  0  0  0  0  0  0  0  0
   43.7630   34.0190   47.2980 H   0  0  0  0  0  0  0  0  0  0  0  0
   47.9540   33.5410   42.3500 N   0  0  0  0  0  0  0  0  0  0  0  0
   49.2940   33.3620   42.2920 C   0  0  0  0  0  0  0  0  0  0  0  0
   49.8650   33.4540   43.2090 H   0  0  0  0  0  0  0  0  0  0  0  0
   49.6710   33.0930   41.0330 N   0  0  0  0  0  0  0  0  0  0  0  0
   48.5660   33.0940   40.2550 C   0  0  0  0  0  0  0  0  0  0  0  0
   48.4780   32.8670   38.9080 C   0  0  0  0  0  0  0  0  0  0  0  0
   49.3020   32.6510   38.2720 H   0  0  0  0  0  0  0  0  0  0  0  0
   47.2520   32.9200   38.3420 N   0  0  0  0  0  0  0  0  0  0  0  0
   46.1800   33.1940   39.1310 C   0  0  0  0  0  0  0  0  0  0  0  0
   45.1500   33.2630   38.7940 H   0  0  0  0  0  0  0  0  0  0  0  0
   46.3220   33.4090   40.4510 N   0  0  0  0  0  0  0  0  0  0  0  0
   47.4960   33.3740   41.0870 C   0  0  0  0  0  0  0  0  0  0  0  0
  1  6  1  0  0  0  0
  2  3  1  0  0  0  0
  2  1  2  0  0  0  0
  3  4  2  0  0  0  0
  4  5  1  0  0  0  0
  5  9  1  0  0  0  0
  6  5  2  0  0  0  0
  7  1  1  0  0  0  0
  8  2  1  0  0  0  0
  9 15  1  1  0  0  0
  9 14  1  0  0  0  0
 10 11  1  0  0  0  0
 10  9  1  0  0  0  0
 10 17  1  0  0  0  0
 11 12  1  0  0  0  0
 12 21  1  0  0  0  0
 12 13  1  0  0  0  0
 12 20  1  0  0  0  0
 13 22  1  0  0  0  0
 14 23  1  0  0  0  0
 14 13  2  0  0  0  0
 16 10  1  0  0  0  0
 18 11  1  0  0  0  0
 19 11  1  0  0  0  0
 23 24  1  0  0  0  0
 25 23  1  0  0  0  0
 26  3  1  0  0  0  0
 27 26  1  0  0  0  0
 27 28  1  0  0  0  0
 29 27  2  0  0  0  0
 30 29  1  0  0  0  0
 30 37  1  0  0  0  0
 31 30  2  0  0  0  0
 32 31  1  0  0  0  0
 33 31  1  0  0  0  0
 33 34  2  0  0  0  0
 34 36  1  0  0  0  0
 35 34  1  0  0  0  0
 36 37  2  0  0  0  0
 37 26  1  0  0  0  0
M  END
>  <minimizedAffinity>
-6.26560879

>  <minimizedRMSD>
0.177384213

$$$$
