
 OpenBabel03242512303D

 41 44  0  0  1  0  0  0  0  0999 V2000
   47.4840   31.8140   47.2410 C   0  0  1  0  0  0  0  0  0  0  0  0
   47.7070   32.0890   48.7090 C   0  0  0  0  0  0  0  0  0  0  0  0
   49.0010   31.4750   49.1490 C   0  0  0  0  0  0  0  0  0  0  0  0
   49.0460   30.0280   48.7920 C   0  0  0  0  0  0  0  0  0  0  0  0
   48.7490   29.7480   47.3480 C   0  0  0  0  0  0  0  0  0  0  0  0
   47.3390   30.2790   47.0630 C   0  0  2  0  0  0  0  0  0  0  0  0
   48.3140   32.1400   46.6190 H   0  0  0  0  0  0  0  0  0  0  0  0
   47.8030   33.1790   48.8700 H   0  0  0  0  0  0  0  0  0  0  0  0
   46.8660   31.6570   49.3110 H   0  0  0  0  0  0  0  0  0  0  0  0
   49.0390   31.5500   50.2630 H   0  0  0  0  0  0  0  0  0  0  0  0
   49.8680   32.0560   48.7810 H   0  0  0  0  0  0  0  0  0  0  0  0
   48.2850   29.5140   49.4140 H   0  0  0  0  0  0  0  0  0  0  0  0
   50.0820   29.6630   48.9830 H   0  0  0  0  0  0  0  0  0  0  0  0
   49.4400   30.2460   46.6600 H   0  0  0  0  0  0  0  0  0  0  0  0
   48.7080   28.6740   47.1750 H   0  0  0  0  0  0  0  0  0  0  0  0
   46.7300   29.9610   47.9370 H   0  0  0  0  0  0  0  0  0  0  0  0
   46.8190   29.9070   45.8030 N   0  0  0  0  0  0  0  0  0  0  0  0
   47.5270   30.0290   44.6620 C   0  0  0  0  0  0  0  0  0  0  0  0
   48.5260   30.3940   44.4900 H   0  0  0  0  0  0  0  0  0  0  0  0
   46.7450   29.5910   43.6550 N   0  0  0  0  0  0  0  0  0  0  0  0
   45.5800   29.2070   44.1690 C   0  0  0  0  0  0  0  0  0  0  0  0
   44.4280   28.6880   43.6270 C   0  0  0  0  0  0  0  0  0  0  0  0
   44.3090   28.5010   42.5770 H   0  0  0  0  0  0  0  0  0  0  0  0
   43.3740   28.3820   44.4040 N   0  0  0  0  0  0  0  0  0  0  0  0
   43.3840   28.5630   45.7380 C   0  0  0  0  0  0  0  0  0  0  0  0
   42.5180   28.3070   46.3380 H   0  0  0  0  0  0  0  0  0  0  0  0
   44.5130   29.0780   46.3070 N   0  0  0  0  0  0  0  0  0  0  0  0
   45.5830   29.3930   45.5460 C   0  0  0  0  0  0  0  0  0  0  0  0
   46.2540   32.5100   46.7950 C   0  0  0  0  0  0  0  0  0  0  0  0
   45.3050   32.2700   47.5870 O   0  0  0  0  0  0  0  0  0  0  0  0
   44.9470   34.9840   44.5120 C   0  0  0  0  0  0  0  0  0  0  0  0
   45.8660   34.9720   43.4490 C   0  0  0  0  0  0  0  0  0  0  0  0
   46.9640   34.0970   43.5150 C   0  0  0  0  0  0  0  0  0  0  0  0
   47.0300   33.3340   44.6230 N   0  0  0  0  0  0  0  0  0  0  0  0
   46.1670   33.3420   45.6270 C   0  0  0  0  0  0  0  0  0  0  0  0
   45.1190   34.1810   45.5590 N   0  0  0  0  0  0  0  0  0  0  0  0
   43.8520   35.8670   44.4300 N   0  0  0  0  0  0  0  0  0  0  0  0
   45.7890   35.6020   42.5600 H   0  0  0  0  0  0  0  0  0  0  0  0
   47.6890   34.0470   42.7390 H   0  0  0  0  0  0  0  0  0  0  0  0
   43.2020   35.2480   43.9300 H   0  0  0  0  0  0  0  0  0  0  0  0
   43.8590   36.8340   44.8160 H   0  0  0  0  0  0  0  0  0  0  0  0
  1  7  1  6  0  0  0
  1  2  1  0  0  0  0
  2  8  1  0  0  0  0
  2  3  1  0  0  0  0
  2  9  1  0  0  0  0
  3 10  1  0  0  0  0
  4 13  1  0  0  0  0
  4  3  1  0  0  0  0
  4 12  1  0  0  0  0
  5  4  1  0  0  0  0
  6  1  1  0  0  0  0
  6  5  1  0  0  0  0
  6 16  1  1  0  0  0
 11  3  1  0  0  0  0
 14  5  1  0  0  0  0
 15  5  1  0  0  0  0
 17  6  1  0  0  0  0
 18 17  1  0  0  0  0
 19 18  1  0  0  0  0
 20 21  1  0  0  0  0
 20 18  2  0  0  0  0
 21 28  1  0  0  0  0
 22 21  2  0  0  0  0
 22 24  1  0  0  0  0
 23 22  1  0  0  0  0
 24 25  2  0  0  0  0
 25 27  1  0  0  0  0
 25 26  1  0  0  0  0
 28 17  1  0  0  0  0
 28 27  2  0  0  0  0
 29  1  1  0  0  0  0
 29 30  2  0  0  0  0
 31 36  1  0  0  0  0
 32 33  1  0  0  0  0
 32 31  2  0  0  0  0
 33 34  2  0  0  0  0
 34 35  1  0  0  0  0
 35 29  1  0  0  0  0
 36 35  2  0  0  0  0
 37 31  1  0  0  0  0
 37 41  1  0  0  0  0
 38 32  1  0  0  0  0
 39 33  1  0  0  0  0
 40 37  1  0  0  0  0
M  END
>  <minimizedAffinity>
-5.65313959

>  <minimizedRMSD>
1.10145128

$$$$
