
 OpenBabel03242515133D

 30 32  0  0  0  0  0  0  0  0999 V2000
   47.0440   32.7760   45.0240 C   0  0  0  0  0  0  0  0  0  0  0  0
   48.0870   32.3790   44.8380 H   0  0  0  0  0  0  0  0  0  0  0  0
   47.1750   33.3330   45.9950 H   0  0  0  0  0  0  0  0  0  0  0  0
   45.4510   35.3230   42.8220 C   0  0  0  0  0  0  0  0  0  0  0  0
   46.5480   35.6920   42.0140 C   0  0  0  0  0  0  0  0  0  0  0  0
   47.7580   35.0440   42.2760 C   0  0  0  0  0  0  0  0  0  0  0  0
   47.7990   34.1210   43.2740 N   0  0  0  0  0  0  0  0  0  0  0  0
   46.7190   33.8060   44.0140 C   0  0  0  0  0  0  0  0  0  0  0  0
   45.5610   34.4000   43.7900 N   0  0  0  0  0  0  0  0  0  0  0  0
   44.4870   35.8040   42.6500 H   0  0  0  0  0  0  0  0  0  0  0  0
   46.4270   36.4350   41.2460 H   0  0  0  0  0  0  0  0  0  0  0  0
   48.8810   35.4380   41.4300 C   0  0  0  0  0  0  0  0  0  0  0  0
   49.9690   34.6020   41.6920 F   0  0  0  0  0  0  0  0  0  0  0  0
   49.2630   36.6990   41.8500 F   0  0  0  0  0  0  0  0  0  0  0  0
   48.6130   35.3690   40.0920 F   0  0  0  0  0  0  0  0  0  0  0  0
   46.1140   31.6480   45.1120 C   0  0  0  0  0  0  0  0  0  0  0  0
   46.4370   30.8360   44.3830 H   0  0  0  0  0  0  0  0  0  0  0  0
   45.1080   31.9530   44.6580 H   0  0  0  0  0  0  0  0  0  0  0  0
   45.7890   31.1010   46.3810 N   0  0  0  0  0  0  0  0  0  0  0  0
   45.7760   32.0230   47.3910 C   0  0  0  0  0  0  0  0  0  0  0  0
   45.9690   33.0880   47.4890 H   0  0  0  0  0  0  0  0  0  0  0  0
   45.4310   31.4650   48.5840 N   0  0  0  0  0  0  0  0  0  0  0  0
   45.2130   30.1580   48.3710 C   0  0  0  0  0  0  0  0  0  0  0  0
   44.8580   29.0110   49.0730 C   0  0  0  0  0  0  0  0  0  0  0  0
   44.6780   29.1530   50.1340 H   0  0  0  0  0  0  0  0  0  0  0  0
   44.7590   27.8280   48.4360 N   0  0  0  0  0  0  0  0  0  0  0  0
   44.9920   27.6880   47.1110 C   0  0  0  0  0  0  0  0  0  0  0  0
   44.8980   26.7170   46.6540 H   0  0  0  0  0  0  0  0  0  0  0  0
   45.3310   28.8040   46.4510 N   0  0  0  0  0  0  0  0  0  0  0  0
   45.4420   29.9910   47.0300 C   0  0  0  0  0  0  0  0  0  0  0  0
  1 16  1  0  0  0  0
  1  3  1  0  0  0  0
  2  1  1  0  0  0  0
  4  9  1  0  0  0  0
  5  6  1  0  0  0  0
  5  4  2  0  0  0  0
  6  7  2  0  0  0  0
  7  8  1  0  0  0  0
  8  1  1  0  0  0  0
  9  8  2  0  0  0  0
 10  4  1  0  0  0  0
 11  5  1  0  0  0  0
 12 13  1  0  0  0  0
 12 14  1  0  0  0  0
 12  6  1  0  0  0  0
 15 12  1  0  0  0  0
 16 19  1  0  0  0  0
 17 16  1  0  0  0  0
 18 16  1  0  0  0  0
 19 30  1  0  0  0  0
 19 20  1  0  0  0  0
 20 21  1  0  0  0  0
 20 22  2  0  0  0  0
 23 22  1  0  0  0  0
 23 24  1  0  0  0  0
 24 25  1  0  0  0  0
 26 24  2  0  0  0  0
 27 26  1  0  0  0  0
 28 27  1  0  0  0  0
 29 30  1  0  0  0  0
 29 27  2  0  0  0  0
 30 23  2  0  0  0  0
M  END
>  <minimizedAffinity>
-4.66008472

>  <minimizedRMSD>
4.30793142

$$$$
