
 OpenBabel03252504583D

 40 43  0  0  1  0  0  0  0  0999 V2000
   47.9870   34.0890   42.0380 N   0  0  0  0  0  0  0  0  0  0  0  0
   48.0030   35.0230   40.9790 C   0  0  0  0  0  0  0  0  0  0  0  0
   49.1350   35.9060   41.3420 C   0  0  0  0  0  0  0  0  0  0  0  0
   49.7670   35.3750   42.6230 C   0  0  0  0  0  0  0  0  0  0  0  0
   49.2450   33.9340   42.6460 C   0  0  2  0  0  0  0  0  0  0  0  0
   47.4960   35.2630   40.0840 H   0  0  0  0  0  0  0  0  0  0  0  0
   49.5430   36.7780   40.8390 H   0  0  0  0  0  0  0  0  0  0  0  0
   49.4290   35.9510   43.4830 H   0  0  0  0  0  0  0  0  0  0  0  0
   50.8600   35.3910   42.4410 H   0  0  0  0  0  0  0  0  0  0  0  0
   49.2030   33.5070   43.6440 H   0  0  0  0  0  0  0  0  0  0  0  0
   46.8090   33.4750   42.3880 C   0  0  0  0  0  0  0  0  0  0  0  0
   47.0480   32.4140   42.6550 H   0  0  0  0  0  0  0  0  0  0  0  0
   46.0840   33.3370   41.5520 H   0  0  0  0  0  0  0  0  0  0  0  0
   44.6010   35.7850   44.4180 C   0  0  0  0  0  0  0  0  0  0  0  0
   45.3080   35.2740   43.2880 C   0  0  0  0  0  0  0  0  0  0  0  0
   46.0670   34.1150   43.4540 C   0  0  0  0  0  0  0  0  0  0  0  0
   46.0830   33.5520   44.6830 N   0  0  0  0  0  0  0  0  0  0  0  0
   45.3950   34.0600   45.7650 C   0  0  0  0  0  0  0  0  0  0  0  0
   44.6630   35.1650   45.6270 N   0  0  0  0  0  0  0  0  0  0  0  0
   44.0210   36.6920   44.2430 H   0  0  0  0  0  0  0  0  0  0  0  0
   45.2760   35.7380   42.3360 H   0  0  0  0  0  0  0  0  0  0  0  0
   45.4570   33.5510   46.7210 H   0  0  0  0  0  0  0  0  0  0  0  0
   50.0380   33.2190   41.7370 O   0  0  0  0  0  0  0  0  0  0  0  0
   49.2700   31.0870   43.1200 O   0  0  0  0  0  0  0  0  0  0  0  0
   50.2710   31.6280   42.1290 P   0  0  2  0  0  0  0  0  0  0  0  0
   51.8040   31.4730   42.8430 O   0  0  0  0  0  0  0  0  0  0  0  0
   52.1680   30.5640   42.6600 H   0  0  0  0  0  0  0  0  0  0  0  0
   50.3120   30.6420   40.7250 O   0  0  0  0  0  0  0  0  0  0  0  0
   49.8590   33.2250   39.6110 H   0  0  0  0  0  0  0  0  0  0  0  0
   49.6970   32.3780   39.0480 N   0  0  0  0  0  0  0  0  0  0  0  0
   49.8840   31.1040   39.4870 C   0  0  0  0  0  0  0  0  0  0  0  0
   49.5670   30.2650   38.4630 N   0  0  0  0  0  0  0  0  0  0  0  0
   49.1860   31.0180   37.3930 C   0  0  0  0  0  0  0  0  0  0  0  0
   48.7650   30.7400   36.1090 C   0  0  0  0  0  0  0  0  0  0  0  0
   48.6990   29.6860   35.8120 H   0  0  0  0  0  0  0  0  0  0  0  0
   48.4430   31.7040   35.2340 N   0  0  0  0  0  0  0  0  0  0  0  0
   48.5250   32.9960   35.6010 C   0  0  0  0  0  0  0  0  0  0  0  0
   48.2820   33.8530   34.9530 H   0  0  0  0  0  0  0  0  0  0  0  0
   48.9390   33.2990   36.8650 N   0  0  0  0  0  0  0  0  0  0  0  0
   49.2660   32.3440   37.7540 C   0  0  0  0  0  0  0  0  0  0  0  0
  1 11  1  0  0  0  0
  1  5  1  0  0  0  0
  2  3  2  0  0  0  0
  2  1  1  0  0  0  0
  3  4  1  0  0  0  0
  4  5  1  0  0  0  0
  4  8  1  0  0  0  0
  5 10  1  1  0  0  0
  6  2  1  0  0  0  0
  7  3  1  0  0  0  0
  9  4  1  0  0  0  0
 11 12  1  0  0  0  0
 11 16  1  0  0  0  0
 13 11  1  0  0  0  0
 14 19  1  0  0  0  0
 15 16  1  0  0  0  0
 15 14  2  0  0  0  0
 16 17  2  0  0  0  0
 17 18  1  0  0  0  0
 18 22  1  0  0  0  0
 19 18  2  0  0  0  0
 20 14  1  0  0  0  0
 21 15  1  0  0  0  0
 23 25  1  0  0  0  0
 23  5  1  0  0  0  0
 25 26  1  0  0  0  0
 25 24  2  1  0  0  0
 27 26  1  0  0  0  0
 28 25  1  0  0  0  0
 30 31  1  0  0  0  0
 30 29  1  0  0  0  0
 31 28  1  0  0  0  0
 32 31  2  0  0  0  0
 33 40  1  0  0  0  0
 33 32  1  0  0  0  0
 34 33  2  0  0  0  0
 35 34  1  0  0  0  0
 36 37  2  0  0  0  0
 36 34  1  0  0  0  0
 37 39  1  0  0  0  0
 38 37  1  0  0  0  0
 39 40  2  0  0  0  0
 40 30  1  0  0  0  0
M  END
>  <minimizedAffinity>
-5.61942339

>  <minimizedRMSD>
2.95372534

$$$$
