
 OpenBabel03252504343D

 43 46  0  0  0  0  0  0  0  0999 V2000
   37.8750   33.3420   39.9110 C   0  0  0  0  0  0  0  0  0  0  0  0
   37.3670   34.2750   40.3500 H   0  0  0  0  0  0  0  0  0  0  0  0
   37.6780   33.3710   38.8390 H   0  0  0  0  0  0  0  0  0  0  0  0
   40.1510   32.6460   40.4270 C   0  0  0  0  0  0  0  0  0  0  0  0
   39.3260   33.7080   40.0910 C   0  0  0  0  0  0  0  0  0  0  0  0
   39.8580   34.9450   39.9360 C   0  0  0  0  0  0  0  0  0  0  0  0
   41.1700   35.0460   40.1240 N   0  0  0  0  0  0  0  0  0  0  0  0
   41.9900   34.0460   40.4470 C   0  0  0  0  0  0  0  0  0  0  0  0
   41.4680   32.7640   40.6130 N   0  0  0  0  0  0  0  0  0  0  0  0
   39.8270   31.6190   40.5750 H   0  0  0  0  0  0  0  0  0  0  0  0
   39.1930   35.7340   39.6790 H   0  0  0  0  0  0  0  0  0  0  0  0
   43.3860   34.2770   40.6220 N   0  0  0  0  0  0  0  0  0  0  0  0
   44.4460   33.9360   39.8670 C   0  0  0  0  0  0  0  0  0  0  0  0
   44.2810   33.3970   38.9620 H   0  0  0  0  0  0  0  0  0  0  0  0
   45.5900   34.3820   40.4540 N   0  0  0  0  0  0  0  0  0  0  0  0
   45.2440   35.0100   41.5930 C   0  0  0  0  0  0  0  0  0  0  0  0
   45.9490   35.6520   42.5900 C   0  0  0  0  0  0  0  0  0  0  0  0
   47.0280   35.6940   42.4910 H   0  0  0  0  0  0  0  0  0  0  0  0
   45.3750   36.2230   43.6670 N   0  0  0  0  0  0  0  0  0  0  0  0
   44.0310   36.1430   43.7420 C   0  0  0  0  0  0  0  0  0  0  0  0
   43.5790   36.6030   44.6080 H   0  0  0  0  0  0  0  0  0  0  0  0
   43.3230   35.5210   42.7820 N   0  0  0  0  0  0  0  0  0  0  0  0
   43.8610   34.9410   41.6940 C   0  0  0  0  0  0  0  0  0  0  0  0
   37.4680   32.2880   40.6580 O   0  0  0  0  0  0  0  0  0  0  0  0
   36.7500   31.1620   40.2810 C   0  0  0  0  0  2  0  0  0  0  0  0
   36.6000   30.2460   41.2360 C   0  0  0  0  0  2  0  0  0  0  0  0
   35.8670   28.9320   41.0870 C   0  0  0  0  0  0  0  0  0  0  0  0
   35.1900   28.8110   41.9670 H   0  0  0  0  0  0  0  0  0  0  0  0
   35.2280   28.9040   40.1990 H   0  0  0  0  0  0  0  0  0  0  0  0
   36.7960   27.9260   40.9840 O   0  0  0  0  0  0  0  0  0  0  0  0
   38.5670   27.9740   42.9670 O   0  0  0  0  0  0  0  0  0  0  0  0
   37.2520   27.3870   42.5160 P   0  0  1  0  0  0  0  0  0  0  0  0
   36.0810   27.8390   43.6700 O   0  0  0  0  0  0  0  0  0  0  0  0
   35.2250   28.0650   43.2420 H   0  0  0  0  0  0  0  0  0  0  0  0
   37.3350   25.7040   42.5290 O   0  0  0  0  0  0  0  0  0  0  0  0
   37.6800   25.1830   41.2950 C   0  0  0  0  0  0  0  0  0  0  0  0
   37.3580   23.7530   40.9920 C   0  0  0  0  0  0  0  0  0  0  0  0
   38.7800   24.1470   41.3270 C   0  0  0  0  0  0  0  0  0  0  0  0
   37.6010   25.9100   40.4620 H   0  0  0  0  0  0  0  0  0  0  0  0
   37.0660   23.5120   39.9560 H   0  0  0  0  0  0  0  0  0  0  0  0
   36.8040   23.1930   41.7540 H   0  0  0  0  0  0  0  0  0  0  0  0
   39.4470   24.0610   40.4280 H   0  0  0  0  0  0  0  0  0  0  0  0
   39.1960   23.8290   42.2930 H   0  0  0  0  0  0  0  0  0  0  0  0
  1  5  1  0  0  0  0
  1  2  1  0  0  0  0
  1 24  1  0  0  0  0
  3  1  1  0  0  0  0
  4 10  1  0  0  0  0
  4  9  1  0  0  0  0
  5  4  2  0  0  0  0
  6  5  1  0  0  0  0
  6  7  2  0  0  0  0
  7  8  1  0  0  0  0
  8  9  2  0  0  0  0
  8 12  1  0  0  0  0
 11  6  1  0  0  0  0
 12 23  1  0  0  0  0
 13 15  2  0  0  0  0
 13 12  1  0  0  0  0
 14 13  1  0  0  0  0
 15 16  1  0  0  0  0
 16 23  2  0  0  0  0
 16 17  1  0  0  0  0
 17 19  2  0  0  0  0
 18 17  1  0  0  0  0
 19 20  1  0  0  0  0
 20 21  1  0  0  0  0
 22 20  2  0  0  0  0
 23 22  1  0  0  0  0
 25 24  1  0  0  0  0
 25 26  1  0  0  0  0
 27 26  1  0  0  0  0
 27 28  1  0  0  0  0
 29 27  1  0  0  0  0
 30 27  1  0  0  0  0
 30 32  1  0  0  0  0
 32 35  1  0  0  0  0
 32 31  2  1  0  0  0
 32 33  1  0  0  0  0
 34 33  1  0  0  0  0
 36 38  1  0  0  0  0
 36 35  1  0  0  0  0
 37 36  1  0  0  0  0
 37 38  1  0  0  0  0
 37 41  1  0  0  0  0
 38 43  1  0  0  0  0
 39 36  1  0  0  0  0
 40 37  1  0  0  0  0
 42 38  1  0  0  0  0
M  END
>  <minimizedAffinity>
-6.07271385

$$$$

 OpenBabel03252504343D

 43 46  0  0  0  0  0  0  0  0999 V2000
   37.2340   32.9330   39.4760 C   0  0  0  0  0  0  0  0  0  0  0  0
   37.8790   32.9700   38.5260 H   0  0  0  0  0  0  0  0  0  0  0  0
   36.1980   32.9560   39.1350 H   0  0  0  0  0  0  0  0  0  0  0  0
   36.6160   31.0510   40.8930 C   0  0  0  0  0  0  0  0  0  0  0  0
   37.5020   31.5220   39.9360 C   0  0  0  0  0  0  0  0  0  0  0  0
   38.4930   30.7150   39.4860 C   0  0  0  0  0  0  0  0  0  0  0  0
   38.5410   29.4960   40.0140 N   0  0  0  0  0  0  0  0  0  0  0  0
   37.7050   29.0130   40.9330 C   0  0  0  0  0  0  0  0  0  0  0  0
   36.6770   29.8230   41.4130 N   0  0  0  0  0  0  0  0  0  0  0  0
   35.7910   31.6140   41.3190 H   0  0  0  0  0  0  0  0  0  0  0  0
   39.1520   31.1130   38.7540 H   0  0  0  0  0  0  0  0  0  0  0  0
   37.8550   27.6820   41.4250 N   0  0  0  0  0  0  0  0  0  0  0  0
   37.1220   26.5720   41.2260 C   0  0  0  0  0  0  0  0  0  0  0  0
   36.2640   26.6280   40.5970 H   0  0  0  0  0  0  0  0  0  0  0  0
   37.6670   25.5320   41.9150 N   0  0  0  0  0  0  0  0  0  0  0  0
   38.7560   25.9960   42.5560 C   0  0  0  0  0  0  0  0  0  0  0  0
   39.6960   25.4280   43.3910 C   0  0  0  0  0  0  0  0  0  0  0  0
   39.5880   24.3740   43.6200 H   0  0  0  0  0  0  0  0  0  0  0  0
   40.7280   26.1060   43.9300 N   0  0  0  0  0  0  0  0  0  0  0  0
   40.8160   27.4140   43.6140 C   0  0  0  0  0  0  0  0  0  0  0  0
   41.6460   27.9490   44.0500 H   0  0  0  0  0  0  0  0  0  0  0  0
   39.9110   27.9890   42.8020 N   0  0  0  0  0  0  0  0  0  0  0  0
   38.8690   27.3450   42.2460 C   0  0  0  0  0  0  0  0  0  0  0  0
   37.7060   33.8910   40.3080 O   0  0  0  0  0  0  0  0  0  0  0  0
   38.7620   34.7750   40.1280 C   0  0  0  0  0  2  0  0  0  0  0  0
   39.9720   34.2400   40.2710 C   0  0  0  0  0  2  0  0  0  0  0  0
   41.2830   34.9810   40.1320 C   0  0  0  0  0  0  0  0  0  0  0  0
   41.2380   35.8880   40.7840 H   0  0  0  0  0  0  0  0  0  0  0  0
   42.1390   34.3930   40.4780 H   0  0  0  0  0  0  0  0  0  0  0  0
   41.4730   35.2850   38.8060 O   0  0  0  0  0  0  0  0  0  0  0  0
   41.1480   32.9250   37.6240 O   0  0  0  0  0  0  0  0  0  0  0  0
   42.1640   33.9770   37.9960 P   0  0  1  0  0  0  0  0  0  0  0  0
   42.8920   34.5040   36.5460 O   0  0  0  0  0  0  0  0  0  0  0  0
   43.0500   35.4740   36.5560 H   0  0  0  0  0  0  0  0  0  0  0  0
   43.3830   33.2980   38.9410 O   0  0  0  0  0  0  0  0  0  0  0  0
   44.6070   33.2890   38.2970 C   0  0  0  0  0  0  0  0  0  0  0  0
   45.8210   32.8380   39.0460 C   0  0  0  0  0  0  0  0  0  0  0  0
   45.5970   34.3140   38.8000 C   0  0  0  0  0  0  0  0  0  0  0  0
   44.5470   33.0280   37.2210 H   0  0  0  0  0  0  0  0  0  0  0  0
   46.5830   32.2780   38.4790 H   0  0  0  0  0  0  0  0  0  0  0  0
   45.6710   32.4760   40.0700 H   0  0  0  0  0  0  0  0  0  0  0  0
   46.3470   34.7220   38.0710 H   0  0  0  0  0  0  0  0  0  0  0  0
   45.3300   34.9510   39.6540 H   0  0  0  0  0  0  0  0  0  0  0  0
  1  5  1  0  0  0  0
  1 24  1  0  0  0  0
  2  1  1  0  0  0  0
  3  1  1  0  0  0  0
  4 10  1  0  0  0  0
  4  9  1  0  0  0  0
  5  4  2  0  0  0  0
  6  5  1  0  0  0  0
  6  7  2  0  0  0  0
  7  8  1  0  0  0  0
  8  9  2  0  0  0  0
  8 12  1  0  0  0  0
 11  6  1  0  0  0  0
 12 23  1  0  0  0  0
 13 12  1  0  0  0  0
 13 15  2  0  0  0  0
 14 13  1  0  0  0  0
 15 16  1  0  0  0  0
 16 17  1  0  0  0  0
 17 18  1  0  0  0  0
 17 19  2  0  0  0  0
 20 19  1  0  0  0  0
 20 21  1  0  0  0  0
 22 20  2  0  0  0  0
 23 16  2  0  0  0  0
 23 22  1  0  0  0  0
 25 26  1  0  0  0  0
 25 24  1  0  0  0  0
 27 26  1  0  0  0  0
 27 29  1  0  0  0  0
 27 28  1  0  0  0  0
 30 27  1  0  0  0  0
 32 31  2  6  0  0  0
 32 30  1  0  0  0  0
 32 35  1  0  0  0  0
 33 34  1  0  0  0  0
 33 32  1  0  0  0  0
 36 38  1  0  0  0  0
 36 35  1  0  0  0  0
 36 37  1  0  0  0  0
 37 41  1  0  0  0  0
 38 37  1  0  0  0  0
 38 43  1  0  0  0  0
 39 36  1  0  0  0  0
 40 37  1  0  0  0  0
 42 38  1  0  0  0  0
M  END
>  <minimizedAffinity>
-6.03710794

$$$$

 OpenBabel03252504343D

 43 46  0  0  0  0  0  0  0  0999 V2000
   35.4890   28.8150   39.6440 C   0  0  0  0  0  0  0  0  0  0  0  0
   35.2850   28.4990   40.7300 H   0  0  0  0  0  0  0  0  0  0  0  0
   34.5260   29.1310   39.2410 H   0  0  0  0  0  0  0  0  0  0  0  0
   36.6140   30.7630   38.7120 C   0  0  0  0  0  0  0  0  0  0  0  0
   36.2920   30.0710   39.8690 C   0  0  0  0  0  0  0  0  0  0  0  0
   36.6880   30.5560   41.0710 C   0  0  0  0  0  0  0  0  0  0  0  0
   37.3750   31.6940   41.0460 N   0  0  0  0  0  0  0  0  0  0  0  0
   37.6990   32.3830   39.9520 C   0  0  0  0  0  0  0  0  0  0  0  0
   37.3050   31.9050   38.7040 N   0  0  0  0  0  0  0  0  0  0  0  0
   36.3470   30.4610   37.7030 H   0  0  0  0  0  0  0  0  0  0  0  0
   36.4220   29.9960   41.9350 H   0  0  0  0  0  0  0  0  0  0  0  0
   38.4410   33.5970   40.0510 N   0  0  0  0  0  0  0  0  0  0  0  0
   38.0780   34.8790   39.8680 C   0  0  0  0  0  0  0  0  0  0  0  0
   37.0690   35.0950   39.6030 H   0  0  0  0  0  0  0  0  0  0  0  0
   39.1490   35.6940   40.0760 N   0  0  0  0  0  0  0  0  0  0  0  0
   40.1980   34.9120   40.3930 C   0  0  0  0  0  0  0  0  0  0  0  0
   41.5200   35.1560   40.7040 C   0  0  0  0  0  0  0  0  0  0  0  0
   41.8480   36.1890   40.7120 H   0  0  0  0  0  0  0  0  0  0  0  0
   42.4130   34.1900   40.9950 N   0  0  0  0  0  0  0  0  0  0  0  0
   41.9520   32.9230   40.9700 C   0  0  0  0  0  0  0  0  0  0  0  0
   42.6750   32.1550   41.2050 H   0  0  0  0  0  0  0  0  0  0  0  0
   40.6680   32.6610   40.6700 N   0  0  0  0  0  0  0  0  0  0  0  0
   39.7490   33.5990   40.3750 C   0  0  0  0  0  0  0  0  0  0  0  0
   36.1810   27.8050   39.0670 O   0  0  0  0  0  0  0  0  0  0  0  0
   37.4230   27.2810   39.3990 C   0  0  0  0  0  2  0  0  0  0  0  0
   37.4260   25.9780   39.6730 C   0  0  0  0  0  2  0  0  0  0  0  0
   38.6400   25.1660   40.0660 C   0  0  0  0  0  0  0  0  0  0  0  0
   38.2840   24.2000   40.5000 H   0  0  0  0  0  0  0  0  0  0  0  0
   39.2700   24.9070   39.2090 H   0  0  0  0  0  0  0  0  0  0  0  0
   39.3910   25.9040   40.9480 O   0  0  0  0  0  0  0  0  0  0  0  0
   38.2520   24.1580   42.6000 O   0  0  0  0  0  0  0  0  0  0  0  0
   39.2920   25.2470   42.4980 P   0  0  1  0  0  0  0  0  0  0  0  0
   40.7870   24.5530   42.9370 O   0  0  0  0  0  0  0  0  0  0  0  0
   41.5180   24.8910   42.3740 H   0  0  0  0  0  0  0  0  0  0  0  0
   38.9660   26.4650   43.6160 O   0  0  0  0  0  0  0  0  0  0  0  0
   38.2020   27.4850   43.0770 C   0  0  0  0  0  0  0  0  0  0  0  0
   37.3410   28.3070   43.9840 C   0  0  0  0  0  0  0  0  0  0  0  0
   36.7100   27.2460   43.1090 C   0  0  0  0  0  0  0  0  0  0  0  0
   38.6820   28.0030   42.2240 H   0  0  0  0  0  0  0  0  0  0  0  0
   37.2340   29.3770   43.7420 H   0  0  0  0  0  0  0  0  0  0  0  0
   37.4000   28.0950   45.0580 H   0  0  0  0  0  0  0  0  0  0  0  0
   36.0870   27.7070   42.2970 H   0  0  0  0  0  0  0  0  0  0  0  0
   36.3170   26.3390   43.5890 H   0  0  0  0  0  0  0  0  0  0  0  0
  1  5  1  0  0  0  0
  1  2  1  0  0  0  0
  3  1  1  0  0  0  0
  4  5  1  0  0  0  0
  5  6  2  0  0  0  0
  6 11  1  0  0  0  0
  7  6  1  0  0  0  0
  8 12  1  0  0  0  0
  8  7  2  0  0  0  0
  9  4  2  0  0  0  0
  9  8  1  0  0  0  0
 10  4  1  0  0  0  0
 12 23  1  0  0  0  0
 13 12  1  0  0  0  0
 13 15  2  0  0  0  0
 14 13  1  0  0  0  0
 15 16  1  0  0  0  0
 16 17  1  0  0  0  0
 17 18  1  0  0  0  0
 17 19  2  0  0  0  0
 20 19  1  0  0  0  0
 20 21  1  0  0  0  0
 22 20  2  0  0  0  0
 23 16  2  0  0  0  0
 23 22  1  0  0  0  0
 24 25  1  0  0  0  0
 24  1  1  0  0  0  0
 25 26  1  0  0  0  0
 26 27  1  0  0  0  0
 27 28  1  0  0  0  0
 27 30  1  0  0  0  0
 29 27  1  0  0  0  0
 30 32  1  0  0  0  0
 32 31  2  1  0  0  0
 32 33  1  0  0  0  0
 32 35  1  0  0  0  0
 34 33  1  0  0  0  0
 36 38  1  0  0  0  0
 36 35  1  0  0  0  0
 36 37  1  0  0  0  0
 37 41  1  0  0  0  0
 38 43  1  0  0  0  0
 38 37  1  0  0  0  0
 39 36  1  0  0  0  0
 40 37  1  0  0  0  0
 42 38  1  0  0  0  0
M  END
>  <minimizedAffinity>
-5.73908472

$$$$

 OpenBabel03252504343D

 43 46  0  0  0  0  0  0  0  0999 V2000
   37.3740   32.9200   39.5800 C   0  0  0  0  0  0  0  0  0  0  0  0
   38.1080   32.7800   38.7060 H   0  0  0  0  0  0  0  0  0  0  0  0
   36.3780   32.9230   39.1360 H   0  0  0  0  0  0  0  0  0  0  0  0
   38.7870   31.0280   40.1740 C   0  0  0  0  0  0  0  0  0  0  0  0
   37.5270   31.5940   40.2820 C   0  0  0  0  0  0  0  0  0  0  0  0
   36.5650   30.9560   40.9920 C   0  0  0  0  0  0  0  0  0  0  0  0
   36.9170   29.8010   41.5480 N   0  0  0  0  0  0  0  0  0  0  0  0
   38.1190   29.2310   41.4640 C   0  0  0  0  0  0  0  0  0  0  0  0
   39.1250   29.8660   40.7390 N   0  0  0  0  0  0  0  0  0  0  0  0
   39.6250   31.4550   39.6300 H   0  0  0  0  0  0  0  0  0  0  0  0
   35.6110   31.4220   41.0500 H   0  0  0  0  0  0  0  0  0  0  0  0
   38.3790   27.9840   42.1070 N   0  0  0  0  0  0  0  0  0  0  0  0
   39.1140   27.6790   43.1920 C   0  0  0  0  0  0  0  0  0  0  0  0
   39.6150   28.4640   43.7110 H   0  0  0  0  0  0  0  0  0  0  0  0
   39.0600   26.3390   43.4200 N   0  0  0  0  0  0  0  0  0  0  0  0
   38.2830   25.7950   42.4660 C   0  0  0  0  0  0  0  0  0  0  0  0
   37.8670   24.5110   42.1790 C   0  0  0  0  0  0  0  0  0  0  0  0
   38.2100   23.7170   42.8330 H   0  0  0  0  0  0  0  0  0  0  0  0
   37.0670   24.1950   41.1420 N   0  0  0  0  0  0  0  0  0  0  0  0
   36.6690   25.2190   40.3590 C   0  0  0  0  0  0  0  0  0  0  0  0
   36.0290   24.9560   39.5310 H   0  0  0  0  0  0  0  0  0  0  0  0
   37.0620   26.4790   40.6200 N   0  0  0  0  0  0  0  0  0  0  0  0
   37.8590   26.8310   41.6450 C   0  0  0  0  0  0  0  0  0  0  0  0
   37.8140   33.9830   40.2930 O   0  0  0  0  0  0  0  0  0  0  0  0
   38.8030   34.9070   39.9840 C   0  0  0  0  0  2  0  0  0  0  0  0
   40.0300   34.5660   40.3740 C   0  0  0  0  0  2  0  0  0  0  0  0
   41.2790   35.3930   40.1660 C   0  0  0  0  0  0  0  0  0  0  0  0
   41.9760   34.8090   39.5170 H   0  0  0  0  0  0  0  0  0  0  0  0
   41.0810   36.3320   39.6410 H   0  0  0  0  0  0  0  0  0  0  0  0
   41.8160   35.6880   41.3950 O   0  0  0  0  0  0  0  0  0  0  0  0
   44.2190   35.4530   42.5110 O   0  0  0  0  0  0  0  0  0  0  0  0
   43.1760   34.7350   41.6890 P   0  0  1  0  0  0  0  0  0  0  0  0
   42.7340   33.3340   42.5550 O   0  0  0  0  0  0  0  0  0  0  0  0
   41.7690   33.1600   42.4880 H   0  0  0  0  0  0  0  0  0  0  0  0
   43.8420   34.2230   40.2280 O   0  0  0  0  0  0  0  0  0  0  0  0
   45.2200   34.3410   40.2060 C   0  0  0  0  0  0  0  0  0  0  0  0
   45.9170   34.4980   38.8910 C   0  0  0  0  0  0  0  0  0  0  0  0
   45.9490   33.1630   39.6020 C   0  0  0  0  0  0  0  0  0  0  0  0
   45.6380   34.8920   41.0720 H   0  0  0  0  0  0  0  0  0  0  0  0
   46.8070   35.1490   38.8680 H   0  0  0  0  0  0  0  0  0  0  0  0
   45.2870   34.5700   37.9970 H   0  0  0  0  0  0  0  0  0  0  0  0
   46.9800   32.9310   39.9840 H   0  0  0  0  0  0  0  0  0  0  0  0
   45.3730   32.3300   39.1770 H   0  0  0  0  0  0  0  0  0  0  0  0
  1  5  1  0  0  0  0
  1 24  1  0  0  0  0
  2  1  1  0  0  0  0
  3  1  1  0  0  0  0
  4  5  2  0  0  0  0
  4  9  1  0  0  0  0
  5  6  1  0  0  0  0
  6 11  1  0  0  0  0
  6  7  2  0  0  0  0
  8  7  1  0  0  0  0
  8 12  1  0  0  0  0
  9  8  2  0  0  0  0
 10  4  1  0  0  0  0
 12 13  1  0  0  0  0
 13 15  2  0  0  0  0
 13 14  1  0  0  0  0
 16 15  1  0  0  0  0
 17 16  1  0  0  0  0
 17 18  1  0  0  0  0
 19 17  2  0  0  0  0
 20 22  2  0  0  0  0
 20 19  1  0  0  0  0
 21 20  1  0  0  0  0
 22 23  1  0  0  0  0
 23 12  1  0  0  0  0
 23 16  2  0  0  0  0
 25 24  1  0  0  0  0
 25 26  1  0  0  0  0
 27 26  1  0  0  0  0
 27 30  1  0  0  0  0
 28 27  1  0  0  0  0
 29 27  1  0  0  0  0
 30 32  1  0  0  0  0
 32 31  2  1  0  0  0
 32 33  1  0  0  0  0
 34 33  1  0  0  0  0
 35 32  1  0  0  0  0
 36 35  1  0  0  0  0
 36 39  1  0  0  0  0
 37 38  1  0  0  0  0
 37 36  1  0  0  0  0
 38 42  1  0  0  0  0
 38 36  1  0  0  0  0
 40 37  1  0  0  0  0
 41 37  1  0  0  0  0
 43 38  1  0  0  0  0
M  END
>  <minimizedAffinity>
-5.69166231

$$$$

 OpenBabel03252504343D

 43 46  0  0  0  0  0  0  0  0999 V2000
   37.2560   32.9570   39.3510 C   0  0  0  0  0  0  0  0  0  0  0  0
   37.7640   32.8870   38.3230 H   0  0  0  0  0  0  0  0  0  0  0  0
   36.1850   33.0200   39.1520 H   0  0  0  0  0  0  0  0  0  0  0  0
   36.6860   31.1890   40.9270 C   0  0  0  0  0  0  0  0  0  0  0  0
   37.5110   31.5670   39.8790 C   0  0  0  0  0  0  0  0  0  0  0  0
   38.4370   30.6970   39.4080 C   0  0  0  0  0  0  0  0  0  0  0  0
   38.4840   29.5110   40.0080 N   0  0  0  0  0  0  0  0  0  0  0  0
   37.7060   29.1170   41.0160 C   0  0  0  0  0  0  0  0  0  0  0  0
   36.7460   29.9940   41.5190 N   0  0  0  0  0  0  0  0  0  0  0  0
   35.9160   31.8090   41.3770 H   0  0  0  0  0  0  0  0  0  0  0  0
   39.0500   31.0240   38.6050 H   0  0  0  0  0  0  0  0  0  0  0  0
   37.8480   27.8140   41.5790 N   0  0  0  0  0  0  0  0  0  0  0  0
   37.0650   26.7230   41.5060 C   0  0  0  0  0  0  0  0  0  0  0  0
   36.1630   26.7740   40.9400 H   0  0  0  0  0  0  0  0  0  0  0  0
   37.6260   25.7070   42.2170 N   0  0  0  0  0  0  0  0  0  0  0  0
   38.7760   26.1670   42.7440 C   0  0  0  0  0  0  0  0  0  0  0  0
   39.7580   25.6150   43.5410 C   0  0  0  0  0  0  0  0  0  0  0  0
   39.6330   24.5810   43.8440 H   0  0  0  0  0  0  0  0  0  0  0  0
   40.8510   26.2840   43.9570 N   0  0  0  0  0  0  0  0  0  0  0  0
   40.9580   27.5660   43.5520 C   0  0  0  0  0  0  0  0  0  0  0  0
   41.8370   28.0940   43.8900 H   0  0  0  0  0  0  0  0  0  0  0  0
   40.0130   28.1250   42.7750 N   0  0  0  0  0  0  0  0  0  0  0  0
   38.9100   27.4890   42.3410 C   0  0  0  0  0  0  0  0  0  0  0  0
   37.8890   33.9390   40.0350 O   0  0  0  0  0  0  0  0  0  0  0  0
   39.2370   34.0770   40.3370 C   0  0  0  0  0  2  0  0  0  0  0  0
   39.6640   35.3350   40.4290 C   0  0  0  0  0  2  0  0  0  0  0  0
   41.0810   35.7610   40.7410 C   0  0  0  0  0  0  0  0  0  0  0  0
   41.2880   36.7080   40.1850 H   0  0  0  0  0  0  0  0  0  0  0  0
   41.2300   35.9850   41.8020 H   0  0  0  0  0  0  0  0  0  0  0  0
   41.9300   34.7400   40.3910 O   0  0  0  0  0  0  0  0  0  0  0  0
   44.5010   34.7780   41.0700 O   0  0  0  0  0  0  0  0  0  0  0  0
   43.1050   34.5170   41.5800 P   0  0  1  0  0  0  0  0  0  0  0  0
   42.8380   35.5920   42.8770 O   0  0  0  0  0  0  0  0  0  0  0  0
   41.9200   35.9430   42.8690 H   0  0  0  0  0  0  0  0  0  0  0  0
   42.9990   32.9550   42.2040 O   0  0  0  0  0  0  0  0  0  0  0  0
   42.2180   32.1260   41.4190 C   0  0  0  0  0  0  0  0  0  0  0  0
   41.0820   31.3830   42.0490 C   0  0  0  0  0  0  0  0  0  0  0  0
   42.3620   30.6500   41.7140 C   0  0  0  0  0  0  0  0  0  0  0  0
   42.0740   32.4920   40.3830 H   0  0  0  0  0  0  0  0  0  0  0  0
   40.1730   31.2430   41.4410 H   0  0  0  0  0  0  0  0  0  0  0  0
   40.8840   31.5790   43.1090 H   0  0  0  0  0  0  0  0  0  0  0  0
   42.2070   29.9280   40.8680 H   0  0  0  0  0  0  0  0  0  0  0  0
   43.0090   30.3240   42.5390 H   0  0  0  0  0  0  0  0  0  0  0  0
  1  5  1  0  0  0  0
  1 24  1  0  0  0  0
  2  1  1  0  0  0  0
  3  1  1  0  0  0  0
  4 10  1  0  0  0  0
  4  9  1  0  0  0  0
  5  4  2  0  0  0  0
  6  5  1  0  0  0  0
  6  7  2  0  0  0  0
  7  8  1  0  0  0  0
  8  9  2  0  0  0  0
  8 12  1  0  0  0  0
 11  6  1  0  0  0  0
 12 23  1  0  0  0  0
 13 12  1  0  0  0  0
 13 15  2  0  0  0  0
 14 13  1  0  0  0  0
 15 16  1  0  0  0  0
 16 17  1  0  0  0  0
 17 18  1  0  0  0  0
 17 19  2  0  0  0  0
 20 21  1  0  0  0  0
 20 19  1  0  0  0  0
 22 20  2  0  0  0  0
 23 16  2  0  0  0  0
 23 22  1  0  0  0  0
 24 25  1  0  0  0  0
 25 26  1  0  0  0  0
 26 27  1  0  0  0  0
 27 29  1  0  0  0  0
 28 27  1  0  0  0  0
 30 27  1  0  0  0  0
 30 32  1  0  0  0  0
 32 31  2  6  0  0  0
 32 35  1  0  0  0  0
 32 33  1  0  0  0  0
 34 33  1  0  0  0  0
 36 38  1  0  0  0  0
 36 37  1  0  0  0  0
 36 35  1  0  0  0  0
 37 41  1  0  0  0  0
 38 37  1  0  0  0  0
 38 43  1  0  0  0  0
 39 36  1  0  0  0  0
 40 37  1  0  0  0  0
 42 38  1  0  0  0  0
M  END
>  <minimizedAffinity>
-5.68813562

$$$$

 OpenBabel03252504343D

 43 46  0  0  0  0  0  0  0  0999 V2000
   36.5850   28.9400   41.5410 C   0  0  0  0  0  0  0  0  0  0  0  0
   35.5280   29.3910   41.5590 H   0  0  0  0  0  0  0  0  0  0  0  0
   36.6400   28.3440   40.6300 H   0  0  0  0  0  0  0  0  0  0  0  0
   36.7370   31.1900   40.6220 C   0  0  0  0  0  0  0  0  0  0  0  0
   37.4080   30.1790   41.2930 C   0  0  0  0  0  0  0  0  0  0  0  0
   38.6930   30.3690   41.6780 C   0  0  0  0  0  0  0  0  0  0  0  0
   39.2270   31.5480   41.3740 N   0  0  0  0  0  0  0  0  0  0  0  0
   38.6100   32.5400   40.7310 C   0  0  0  0  0  0  0  0  0  0  0  0
   37.2880   32.3690   40.3230 N   0  0  0  0  0  0  0  0  0  0  0  0
   35.7100   31.1390   40.2700 H   0  0  0  0  0  0  0  0  0  0  0  0
   39.1730   29.5700   42.1890 H   0  0  0  0  0  0  0  0  0  0  0  0
   39.2890   33.7650   40.4610 N   0  0  0  0  0  0  0  0  0  0  0  0
   39.1500   34.9940   40.9890 C   0  0  0  0  0  0  0  0  0  0  0  0
   38.4210   35.1470   41.7510 H   0  0  0  0  0  0  0  0  0  0  0  0
   40.0310   35.8480   40.4010 N   0  0  0  0  0  0  0  0  0  0  0  0
   40.7320   35.1460   39.4910 C   0  0  0  0  0  0  0  0  0  0  0  0
   41.7410   35.4580   38.6040 C   0  0  0  0  0  0  0  0  0  0  0  0
   42.0930   36.4840   38.5890 H   0  0  0  0  0  0  0  0  0  0  0  0
   42.3070   34.5670   37.7660 N   0  0  0  0  0  0  0  0  0  0  0  0
   41.8330   33.3060   37.8260 C   0  0  0  0  0  0  0  0  0  0  0  0
   42.2920   32.5990   37.1510 H   0  0  0  0  0  0  0  0  0  0  0  0
   40.8490   32.9790   38.6830 N   0  0  0  0  0  0  0  0  0  0  0  0
   40.2620   33.8410   39.5330 C   0  0  0  0  0  0  0  0  0  0  0  0
   36.7870   28.3690   42.7520 O   0  0  0  0  0  0  0  0  0  0  0  0
   37.3040   27.1190   43.0640 C   0  0  0  0  0  2  0  0  0  0  0  0
   38.6340   27.0550   43.0990 C   0  0  0  0  0  2  0  0  0  0  0  0
   39.4460   25.8180   43.4090 C   0  0  0  0  0  0  0  0  0  0  0  0
   38.8610   25.1890   44.1230 H   0  0  0  0  0  0  0  0  0  0  0  0
   39.6250   25.1990   42.5240 H   0  0  0  0  0  0  0  0  0  0  0  0
   40.6610   26.2110   43.9150 O   0  0  0  0  0  0  0  0  0  0  0  0
   42.7410   27.0240   42.4690 O   0  0  0  0  0  0  0  0  0  0  0  0
   41.9010   25.8250   42.8370 P   0  0  1  0  0  0  0  0  0  0  0  0
   42.9480   24.6750   43.5360 O   0  0  0  0  0  0  0  0  0  0  0  0
   42.5230   24.2170   44.2940 H   0  0  0  0  0  0  0  0  0  0  0  0
   41.2530   25.1240   41.4480 O   0  0  0  0  0  0  0  0  0  0  0  0
   41.8360   25.6080   40.2920 C   0  0  0  0  0  0  0  0  0  0  0  0
   41.6980   24.8260   39.0230 C   0  0  0  0  0  0  0  0  0  0  0  0
   43.0070   24.7990   39.7820 C   0  0  0  0  0  0  0  0  0  0  0  0
   41.8250   26.7140   40.2110 H   0  0  0  0  0  0  0  0  0  0  0  0
   41.5990   25.3990   38.0860 H   0  0  0  0  0  0  0  0  0  0  0  0
   41.0830   23.9190   39.0590 H   0  0  0  0  0  0  0  0  0  0  0  0
   43.8140   25.3390   39.2190 H   0  0  0  0  0  0  0  0  0  0  0  0
   43.2910   23.8730   40.3010 H   0  0  0  0  0  0  0  0  0  0  0  0
  1  2  1  0  0  0  0
  1 24  1  0  0  0  0
  3  1  1  0  0  0  0
  4  5  1  0  0  0  0
  5  1  1  0  0  0  0
  5  6  2  0  0  0  0
  6 11  1  0  0  0  0
  7  6  1  0  0  0  0
  8  7  2  0  0  0  0
  9  4  2  0  0  0  0
  9  8  1  0  0  0  0
 10  4  1  0  0  0  0
 12  8  1  0  0  0  0
 12 13  1  0  0  0  0
 13 14  1  0  0  0  0
 15 13  2  0  0  0  0
 16 23  1  0  0  0  0
 16 15  1  0  0  0  0
 17 16  2  0  0  0  0
 18 17  1  0  0  0  0
 19 20  2  0  0  0  0
 19 17  1  0  0  0  0
 20 22  1  0  0  0  0
 21 20  1  0  0  0  0
 22 23  2  0  0  0  0
 23 12  1  0  0  0  0
 24 25  1  0  0  0  0
 25 26  1  0  0  0  0
 26 27  1  0  0  0  0
 27 30  1  0  0  0  0
 27 28  1  0  0  0  0
 29 27  1  0  0  0  0
 32 31  2  6  0  0  0
 32 33  1  0  0  0  0
 32 30  1  0  0  0  0
 33 34  1  0  0  0  0
 35 32  1  0  0  0  0
 36 35  1  0  0  0  0
 37 41  1  0  0  0  0
 37 38  1  0  0  0  0
 37 36  1  0  0  0  0
 38 36  1  0  0  0  0
 38 43  1  0  0  0  0
 39 36  1  0  0  0  0
 40 37  1  0  0  0  0
 42 38  1  0  0  0  0
M  END
>  <minimizedAffinity>
-5.6763339

$$$$

 OpenBabel03252504343D

 43 46  0  0  0  0  0  0  0  0999 V2000
   36.2830   29.0000   41.3240 C   0  0  0  0  0  0  0  0  0  0  0  0
   35.3290   29.5040   41.7200 H   0  0  0  0  0  0  0  0  0  0  0  0
   36.0320   28.6240   40.3310 H   0  0  0  0  0  0  0  0  0  0  0  0
   36.5580   31.2490   40.4300 C   0  0  0  0  0  0  0  0  0  0  0  0
   37.1640   30.2060   41.1140 C   0  0  0  0  0  0  0  0  0  0  0  0
   38.4420   30.3410   41.5430 C   0  0  0  0  0  0  0  0  0  0  0  0
   39.0340   31.4990   41.2670 N   0  0  0  0  0  0  0  0  0  0  0  0
   38.4790   32.5200   40.6130 C   0  0  0  0  0  0  0  0  0  0  0  0
   37.1660   32.4060   40.1600 N   0  0  0  0  0  0  0  0  0  0  0  0
   35.5420   31.2430   40.0440 H   0  0  0  0  0  0  0  0  0  0  0  0
   38.8720   29.5190   42.0620 H   0  0  0  0  0  0  0  0  0  0  0  0
   39.2160   33.7180   40.3760 N   0  0  0  0  0  0  0  0  0  0  0  0
   39.1100   34.9480   40.9100 C   0  0  0  0  0  0  0  0  0  0  0  0
   38.3620   35.1250   41.6500 H   0  0  0  0  0  0  0  0  0  0  0  0
   40.0440   35.7700   40.3600 N   0  0  0  0  0  0  0  0  0  0  0  0
   40.7460   35.0460   39.4680 C   0  0  0  0  0  0  0  0  0  0  0  0
   41.7960   35.3240   38.6170 C   0  0  0  0  0  0  0  0  0  0  0  0
   42.1900   36.3340   38.6230 H   0  0  0  0  0  0  0  0  0  0  0  0
   42.3530   34.4170   37.7900 N   0  0  0  0  0  0  0  0  0  0  0  0
   41.8260   33.1760   37.8230 C   0  0  0  0  0  0  0  0  0  0  0  0
   42.2780   32.4550   37.1580 H   0  0  0  0  0  0  0  0  0  0  0  0
   40.8020   32.8820   38.6440 N   0  0  0  0  0  0  0  0  0  0  0  0
   40.2220   33.7610   39.4820 C   0  0  0  0  0  0  0  0  0  0  0  0
   36.7120   28.1570   42.2920 O   0  0  0  0  0  0  0  0  0  0  0  0
   37.1440   26.8420   42.1920 C   0  0  0  0  0  2  0  0  0  0  0  0
   38.2190   26.6620   41.4260 C   0  0  0  0  0  2  0  0  0  0  0  0
   38.8860   25.3340   41.1480 C   0  0  0  0  0  0  0  0  0  0  0  0
   38.4810   24.5840   41.8700 H   0  0  0  0  0  0  0  0  0  0  0  0
   38.6640   24.9510   40.1470 H   0  0  0  0  0  0  0  0  0  0  0  0
   40.2460   25.4990   41.2560 O   0  0  0  0  0  0  0  0  0  0  0  0
   39.7760   24.5280   43.6870 O   0  0  0  0  0  0  0  0  0  0  0  0
   40.7290   25.3620   42.8660 P   0  0  1  0  0  0  0  0  0  0  0  0
   42.2570   24.6100   42.9570 O   0  0  0  0  0  0  0  0  0  0  0  0
   42.7270   24.6450   42.0950 H   0  0  0  0  0  0  0  0  0  0  0  0
   40.8920   26.8950   43.5470 O   0  0  0  0  0  0  0  0  0  0  0  0
   41.9140   27.6240   42.9660 C   0  0  0  0  0  0  0  0  0  0  0  0
   42.7510   28.5180   43.8260 C   0  0  0  0  0  0  0  0  0  0  0  0
   41.6890   29.1180   42.9300 C   0  0  0  0  0  0  0  0  0  0  0  0
   42.4220   27.1000   42.1320 H   0  0  0  0  0  0  0  0  0  0  0  0
   43.8200   28.6040   43.5720 H   0  0  0  0  0  0  0  0  0  0  0  0
   42.5470   28.5100   44.9030 H   0  0  0  0  0  0  0  0  0  0  0  0
   42.1500   29.6990   42.0870 H   0  0  0  0  0  0  0  0  0  0  0  0
   40.7890   29.5410   43.3980 H   0  0  0  0  0  0  0  0  0  0  0  0
  1  2  1  0  0  0  0
  1 24  1  0  0  0  0
  3  1  1  0  0  0  0
  4  5  1  0  0  0  0
  5  1  1  0  0  0  0
  5  6  2  0  0  0  0
  6 11  1  0  0  0  0
  7  6  1  0  0  0  0
  8  7  2  0  0  0  0
  9  4  2  0  0  0  0
  9  8  1  0  0  0  0
 10  4  1  0  0  0  0
 12  8  1  0  0  0  0
 12 13  1  0  0  0  0
 13 14  1  0  0  0  0
 15 13  2  0  0  0  0
 16 23  1  0  0  0  0
 16 15  1  0  0  0  0
 17 18  1  0  0  0  0
 17 16  2  0  0  0  0
 19 20  2  0  0  0  0
 19 17  1  0  0  0  0
 20 22  1  0  0  0  0
 21 20  1  0  0  0  0
 22 23  2  0  0  0  0
 23 12  1  0  0  0  0
 25 24  1  0  0  0  0
 26 25  1  0  0  0  0
 27 30  1  0  0  0  0
 27 26  1  0  0  0  0
 27 28  1  0  0  0  0
 29 27  1  0  0  0  0
 30 32  1  0  0  0  0
 32 33  1  0  0  0  0
 32 35  1  0  0  0  0
 32 31  2  1  0  0  0
 34 33  1  0  0  0  0
 36 35  1  0  0  0  0
 36 37  1  0  0  0  0
 37 41  1  0  0  0  0
 38 36  1  0  0  0  0
 38 43  1  0  0  0  0
 38 37  1  0  0  0  0
 39 36  1  0  0  0  0
 40 37  1  0  0  0  0
 42 38  1  0  0  0  0
M  END
>  <minimizedAffinity>
-5.67409992

$$$$

 OpenBabel03252504343D

 43 46  0  0  0  0  0  0  0  0999 V2000
   37.2970   32.8720   39.2340 C   0  0  0  0  0  0  0  0  0  0  0  0
   38.0880   32.7420   38.4110 H   0  0  0  0  0  0  0  0  0  0  0  0
   36.3310   32.8100   38.7320 H   0  0  0  0  0  0  0  0  0  0  0  0
   38.7280   31.0060   39.8660 C   0  0  0  0  0  0  0  0  0  0  0  0
   37.4720   31.5790   39.9890 C   0  0  0  0  0  0  0  0  0  0  0  0
   36.5340   30.9750   40.7590 C   0  0  0  0  0  0  0  0  0  0  0  0
   36.9040   29.8450   41.3540 N   0  0  0  0  0  0  0  0  0  0  0  0
   38.1020   29.2700   41.2560 C   0  0  0  0  0  0  0  0  0  0  0  0
   39.0840   29.8700   40.4700 N   0  0  0  0  0  0  0  0  0  0  0  0
   39.5480   31.4070   39.2750 H   0  0  0  0  0  0  0  0  0  0  0  0
   35.5830   31.4450   40.8280 H   0  0  0  0  0  0  0  0  0  0  0  0
   38.3830   28.0530   41.9450 N   0  0  0  0  0  0  0  0  0  0  0  0
   39.1530   27.7960   43.0180 C   0  0  0  0  0  0  0  0  0  0  0  0
   39.6720   28.6020   43.4850 H   0  0  0  0  0  0  0  0  0  0  0  0
   39.1070   26.4670   43.3080 N   0  0  0  0  0  0  0  0  0  0  0  0
   38.2980   25.8820   42.4050 C   0  0  0  0  0  0  0  0  0  0  0  0
   37.8730   24.5870   42.1900 C   0  0  0  0  0  0  0  0  0  0  0  0
   38.2370   23.8230   42.8680 H   0  0  0  0  0  0  0  0  0  0  0  0
   37.0390   24.2260   41.1950 N   0  0  0  0  0  0  0  0  0  0  0  0
   36.6150   25.2150   40.3810 C   0  0  0  0  0  0  0  0  0  0  0  0
   35.9480   24.9170   39.5870 H   0  0  0  0  0  0  0  0  0  0  0  0
   37.0170   26.4850   40.5720 N   0  0  0  0  0  0  0  0  0  0  0  0
   37.8470   26.8810   41.5530 C   0  0  0  0  0  0  0  0  0  0  0  0
   37.6400   33.9790   39.9350 O   0  0  0  0  0  0  0  0  0  0  0  0
   38.8100   34.2590   40.6280 C   0  0  0  0  0  2  0  0  0  0  0  0
   39.6200   35.1310   40.0300 C   0  0  0  0  0  2  0  0  0  0  0  0
   40.9520   35.6030   40.5680 C   0  0  0  0  0  0  0  0  0  0  0  0
   41.0350   36.7010   40.3730 H   0  0  0  0  0  0  0  0  0  0  0  0
   41.0390   35.4740   41.6510 H   0  0  0  0  0  0  0  0  0  0  0  0
   41.9480   34.8760   39.9630 O   0  0  0  0  0  0  0  0  0  0  0  0
   44.0630   33.3960   40.6020 O   0  0  0  0  0  0  0  0  0  0  0  0
   42.7230   33.8890   41.0910 P   0  0  1  0  0  0  0  0  0  0  0  0
   43.0040   34.7550   42.5330 O   0  0  0  0  0  0  0  0  0  0  0  0
   42.4340   35.5540   42.5890 H   0  0  0  0  0  0  0  0  0  0  0  0
   41.7330   32.5830   41.4840 O   0  0  0  0  0  0  0  0  0  0  0  0
   42.4580   31.4630   41.8460 C   0  0  0  0  0  0  0  0  0  0  0  0
   41.8150   30.4280   42.7170 C   0  0  0  0  0  0  0  0  0  0  0  0
   42.8230   31.3870   43.3120 C   0  0  0  0  0  0  0  0  0  0  0  0
   43.1560   31.1050   41.0630 H   0  0  0  0  0  0  0  0  0  0  0  0
   42.0790   29.3750   42.5260 H   0  0  0  0  0  0  0  0  0  0  0  0
   40.7630   30.5840   42.9830 H   0  0  0  0  0  0  0  0  0  0  0  0
   43.7720   30.8570   43.5900 H   0  0  0  0  0  0  0  0  0  0  0  0
   42.4620   32.1640   44.0000 H   0  0  0  0  0  0  0  0  0  0  0  0
  1 24  1  0  0  0  0
  1  5  1  0  0  0  0
  2  1  1  0  0  0  0
  3  1  1  0  0  0  0
  4  5  2  0  0  0  0
  4  9  1  0  0  0  0
  5  6  1  0  0  0  0
  6 11  1  0  0  0  0
  6  7  2  0  0  0  0
  8  7  1  0  0  0  0
  8 12  1  0  0  0  0
  9  8  2  0  0  0  0
 10  4  1  0  0  0  0
 12 13  1  0  0  0  0
 13 15  2  0  0  0  0
 13 14  1  0  0  0  0
 16 15  1  0  0  0  0
 17 16  1  0  0  0  0
 17 18  1  0  0  0  0
 19 17  2  0  0  0  0
 20 22  2  0  0  0  0
 20 19  1  0  0  0  0
 21 20  1  0  0  0  0
 22 23  1  0  0  0  0
 23 12  1  0  0  0  0
 23 16  2  0  0  0  0
 24 25  1  0  0  0  0
 26 27  1  0  0  0  0
 26 25  1  0  0  0  0
 27 29  1  0  0  0  0
 28 27  1  0  0  0  0
 30 27  1  0  0  0  0
 30 32  1  0  0  0  0
 32 31  2  6  0  0  0
 32 35  1  0  0  0  0
 32 33  1  0  0  0  0
 33 34  1  0  0  0  0
 35 36  1  0  0  0  0
 36 37  1  0  0  0  0
 36 38  1  0  0  0  0
 37 41  1  0  0  0  0
 37 38  1  0  0  0  0
 38 42  1  0  0  0  0
 38 43  1  0  0  0  0
 39 36  1  0  0  0  0
 40 37  1  0  0  0  0
M  END
>  <minimizedAffinity>
-5.61955023

$$$$

 OpenBabel03252504343D

 43 46  0  0  0  0  0  0  0  0999 V2000
   36.4880   29.1390   41.4460 C   0  0  0  0  0  0  0  0  0  0  0  0
   35.5060   29.7190   41.5880 H   0  0  0  0  0  0  0  0  0  0  0  0
   36.3700   28.5750   40.5200 H   0  0  0  0  0  0  0  0  0  0  0  0
   36.8490   31.3490   40.4890 C   0  0  0  0  0  0  0  0  0  0  0  0
   37.4330   30.2730   41.1390 C   0  0  0  0  0  0  0  0  0  0  0  0
   38.7500   30.3160   41.4540 C   0  0  0  0  0  0  0  0  0  0  0  0
   39.4000   31.4230   41.1070 N   0  0  0  0  0  0  0  0  0  0  0  0
   38.8680   32.4750   40.4840 C   0  0  0  0  0  0  0  0  0  0  0  0
   37.5150   32.4540   40.1470 N   0  0  0  0  0  0  0  0  0  0  0  0
   35.8060   31.4150   40.1920 H   0  0  0  0  0  0  0  0  0  0  0  0
   39.1610   29.4710   41.9510 H   0  0  0  0  0  0  0  0  0  0  0  0
   39.6670   33.6110   40.1620 N   0  0  0  0  0  0  0  0  0  0  0  0
   39.6990   34.8520   40.6800 C   0  0  0  0  0  0  0  0  0  0  0  0
   39.0330   35.0940   41.4770 H   0  0  0  0  0  0  0  0  0  0  0  0
   40.6400   35.5950   40.0350 N   0  0  0  0  0  0  0  0  0  0  0  0
   41.2070   34.8090   39.1010 C   0  0  0  0  0  0  0  0  0  0  0  0
   42.1970   34.9960   38.1580 C   0  0  0  0  0  0  0  0  0  0  0  0
   42.6630   35.9740   38.1110 H   0  0  0  0  0  0  0  0  0  0  0  0
   42.6120   34.0400   37.3050 N   0  0  0  0  0  0  0  0  0  0  0  0
   42.0000   32.8420   37.4060 C   0  0  0  0  0  0  0  0  0  0  0  0
   42.3380   32.0810   36.7180 H   0  0  0  0  0  0  0  0  0  0  0  0
   41.0310   32.6370   38.3170 N   0  0  0  0  0  0  0  0  0  0  0  0
   40.5930   33.5670   39.1840 C   0  0  0  0  0  0  0  0  0  0  0  0
   36.7390   28.5030   42.6140 O   0  0  0  0  0  0  0  0  0  0  0  0
   36.6190   27.1570   42.9310 C   0  0  0  0  0  2  0  0  0  0  0  0
   37.3000   26.3310   42.1390 C   0  0  0  0  0  2  0  0  0  0  0  0
   37.3360   24.8240   42.2640 C   0  0  0  0  0  0  0  0  0  0  0  0
   37.4890   24.5700   43.3410 H   0  0  0  0  0  0  0  0  0  0  0  0
   36.3940   24.3540   41.9650 H   0  0  0  0  0  0  0  0  0  0  0  0
   38.3360   24.3440   41.4540 O   0  0  0  0  0  0  0  0  0  0  0  0
   38.2610   23.5660   38.9120 O   0  0  0  0  0  0  0  0  0  0  0  0
   37.7010   23.3040   40.2880 P   0  0  1  0  0  0  0  0  0  0  0  0
   38.0740   21.6860   40.6800 O   0  0  0  0  0  0  0  0  0  0  0  0
   38.3250   21.5950   41.6260 H   0  0  0  0  0  0  0  0  0  0  0  0
   36.0200   23.4300   40.2640 O   0  0  0  0  0  0  0  0  0  0  0  0
   35.4900   23.1620   39.0150 C   0  0  0  0  0  0  0  0  0  0  0  0
   34.0310   22.8470   38.8950 C   0  0  0  0  0  0  0  0  0  0  0  0
   35.0500   21.7310   38.8040 C   0  0  0  0  0  0  0  0  0  0  0  0
   35.9520   23.7470   38.1940 H   0  0  0  0  0  0  0  0  0  0  0  0
   33.5100   23.2120   37.9950 H   0  0  0  0  0  0  0  0  0  0  0  0
   33.4320   22.8990   39.8110 H   0  0  0  0  0  0  0  0  0  0  0  0
   35.1020   21.3140   37.7630 H   0  0  0  0  0  0  0  0  0  0  0  0
   35.1180   21.0170   39.6350 H   0  0  0  0  0  0  0  0  0  0  0  0
  1  2  1  0  0  0  0
  1 24  1  0  0  0  0
  3  1  1  0  0  0  0
  4  5  1  0  0  0  0
  5  1  1  0  0  0  0
  5  6  2  0  0  0  0
  6 11  1  0  0  0  0
  7  6  1  0  0  0  0
  8  7  2  0  0  0  0
  9  8  1  0  0  0  0
  9  4  2  0  0  0  0
 10  4  1  0  0  0  0
 12  8  1  0  0  0  0
 12 13  1  0  0  0  0
 13 14  1  0  0  0  0
 15 13  2  0  0  0  0
 16 23  1  0  0  0  0
 16 15  1  0  0  0  0
 17 16  2  0  0  0  0
 18 17  1  0  0  0  0
 19 20  2  0  0  0  0
 19 17  1  0  0  0  0
 20 22  1  0  0  0  0
 21 20  1  0  0  0  0
 22 23  2  0  0  0  0
 23 12  1  0  0  0  0
 24 25  1  0  0  0  0
 26 27  1  0  0  0  0
 26 25  1  0  0  0  0
 27 28  1  0  0  0  0
 29 27  1  0  0  0  0
 30 27  1  0  0  0  0
 32 31  2  6  0  0  0
 32 33  1  0  0  0  0
 32 30  1  0  0  0  0
 33 34  1  0  0  0  0
 35 32  1  0  0  0  0
 36 35  1  0  0  0  0
 37 36  1  0  0  0  0
 37 41  1  0  0  0  0
 38 37  1  0  0  0  0
 38 36  1  0  0  0  0
 38 43  1  0  0  0  0
 39 36  1  0  0  0  0
 40 37  1  0  0  0  0
 42 38  1  0  0  0  0
M  END
>  <minimizedAffinity>
-5.48601532

$$$$
