
 OpenBabel03252509083D

 44 48  0  0  0  0  0  0  0  0999 V2000
   49.3970   33.2030   40.9860 C   0  0  0  0  0  0  0  0  0  0  0  0
   48.5790   34.1120   40.3830 C   0  0  0  0  0  0  0  0  0  0  0  0
   48.4770   35.3920   40.8980 C   0  0  0  0  0  0  0  0  0  0  0  0
   49.1960   35.7510   42.0120 C   0  0  0  0  0  0  0  0  0  0  0  0
   50.0440   34.8500   42.6550 C   0  0  0  0  0  0  0  0  0  0  0  0
   50.1330   33.5620   42.1190 C   0  0  0  0  0  0  0  0  0  0  0  0
   47.8380   36.1460   40.4510 H   0  0  0  0  0  0  0  0  0  0  0  0
   49.1940   36.7110   42.4960 H   0  0  0  0  0  0  0  0  0  0  0  0
   50.6310   35.0610   43.5210 H   0  0  0  0  0  0  0  0  0  0  0  0
   50.7940   32.8440   42.6120 H   0  0  0  0  0  0  0  0  0  0  0  0
   44.0720   32.7160   38.2830 Cl  0  0  0  0  0  0  0  0  0  0  0  0
   45.7460   33.2130   38.2160 C   0  0  0  0  0  0  0  0  0  0  0  0
   46.4500   33.4660   39.3480 C   0  0  0  0  0  0  0  0  0  0  0  0
   47.7730   33.8380   39.1900 C   0  0  0  0  0  0  0  0  0  0  0  0
   48.3540   33.9500   37.9510 C   0  0  0  0  0  0  0  0  0  0  0  0
   47.6350   33.6920   36.8320 C   0  0  0  0  0  0  0  0  0  0  0  0
   46.3170   33.3210   36.9720 C   0  0  0  0  0  0  0  0  0  0  0  0
   49.4030   34.2480   37.9060 H   0  0  0  0  0  0  0  0  0  0  0  0
   48.1440   33.7970   35.8980 H   0  0  0  0  0  0  0  0  0  0  0  0
   45.7660   33.1220   36.0600 H   0  0  0  0  0  0  0  0  0  0  0  0
   44.5610   34.2330   42.5230 C   0  0  0  0  0  0  0  0  0  0  0  0
   45.1890   34.3800   41.2830 C   0  0  0  0  0  0  0  0  0  0  0  0
   45.7950   33.3250   40.6350 C   0  0  0  0  0  0  0  0  0  0  0  0
   45.7300   32.1400   41.3000 N   0  0  0  0  0  0  0  0  0  0  0  0
   45.1330   31.9890   42.4830 C   0  0  0  0  0  0  0  0  0  0  0  0
   44.5540   33.0320   43.0860 N   0  0  0  0  0  0  0  0  0  0  0  0
   44.1250   35.1500   42.9180 H   0  0  0  0  0  0  0  0  0  0  0  0
   45.2190   35.3380   40.7880 H   0  0  0  0  0  0  0  0  0  0  0  0
   45.1460   30.9980   42.9140 H   0  0  0  0  0  0  0  0  0  0  0  0
   49.5780   31.6520   40.3640 S   0  0  0  0  0  0  0  0  0  0  0  0
   50.6070   30.8380   41.1140 O   0  0  0  0  0  0  0  0  0  0  0  0
   48.2290   30.9370   40.7510 O   0  0  0  0  0  0  0  0  0  0  0  0
   47.8320   30.1220   38.5240 H   0  0  0  0  0  0  0  0  0  0  0  0
   48.7370   30.5200   38.1120 N   0  0  0  0  0  0  0  0  0  0  0  0
   49.7360   31.2740   38.6980 C   0  0  0  0  0  0  0  0  0  0  0  0
   50.5290   31.4070   37.6200 N   0  0  0  0  0  0  0  0  0  0  0  0
   50.0840   30.8220   36.5310 C   0  0  0  0  0  0  0  0  0  0  0  0
   50.7010   30.8000   35.2820 C   0  0  0  0  0  0  0  0  0  0  0  0
   51.6480   31.2920   35.0960 H   0  0  0  0  0  0  0  0  0  0  0  0
   50.0570   30.1300   34.2900 N   0  0  0  0  0  0  0  0  0  0  0  0
   48.8810   29.5330   34.5640 C   0  0  0  0  0  0  0  0  0  0  0  0
   48.3810   29.0060   33.7760 H   0  0  0  0  0  0  0  0  0  0  0  0
   48.3030   29.5730   35.8020 N   0  0  0  0  0  0  0  0  0  0  0  0
   48.8910   30.2190   36.8170 C   0  0  0  0  0  0  0  0  0  0  0  0
  1  6  1  0  0  0  0
  2  3  1  0  0  0  0
  2  1  2  0  0  0  0
  3  4  2  0  0  0  0
  4  8  1  0  0  0  0
  4  5  1  0  0  0  0
  5  9  1  0  0  0  0
  6 10  1  0  0  0  0
  6  5  2  0  0  0  0
  7  3  1  0  0  0  0
 12 11  1  0  0  0  0
 12 13  1  0  0  0  0
 13 23  1  0  0  0  0
 14 13  2  0  0  0  0
 14  2  1  0  0  0  0
 15 14  1  0  0  0  0
 16 17  1  0  0  0  0
 16 15  2  0  0  0  0
 17 12  2  0  0  0  0
 18 15  1  0  0  0  0
 19 16  1  0  0  0  0
 20 17  1  0  0  0  0
 21 27  1  0  0  0  0
 21 26  1  0  0  0  0
 22 21  2  0  0  0  0
 23 22  1  0  0  0  0
 23 24  2  0  0  0  0
 24 25  1  0  0  0  0
 25 29  1  0  0  0  0
 25 26  2  0  0  0  0
 28 22  1  0  0  0  0
 30 32  2  0  0  0  0
 30  1  1  0  0  0  0
 30 31  2  0  0  0  0
 34 33  1  0  0  0  0
 34 35  1  0  0  0  0
 35 30  1  0  0  0  0
 36 35  2  0  0  0  0
 37 44  1  0  0  0  0
 37 36  1  0  0  0  0
 38 37  2  0  0  0  0
 39 38  1  0  0  0  0
 40 41  2  0  0  0  0
 40 38  1  0  0  0  0
 41 43  1  0  0  0  0
 42 41  1  0  0  0  0
 43 44  2  0  0  0  0
 44 34  1  0  0  0  0
M  END
>  <minimizedAffinity>
-5.77057934

>  <minimizedRMSD>
5.87893152

$$$$
