
 OpenBabel03242522003D

 36 39  0  0  0  0  0  0  0  0999 V2000
   37.3380   26.6840   41.5370 C   0  0  0  0  0  0  0  0  0  0  0  0
   37.3540   26.7180   42.9210 C   0  0  0  0  0  0  0  0  0  0  0  0
   37.6210   27.8540   43.6800 C   0  0  0  0  0  0  0  0  0  0  0  0
   37.8890   29.0320   43.0130 C   0  0  0  0  0  0  0  0  0  0  0  0
   37.8660   28.9790   41.6620 C   0  0  0  0  0  0  0  0  0  0  0  0
   37.6080   27.8780   40.9610 N   0  0  0  0  0  0  0  0  0  0  0  0
   37.1310   25.7380   43.3710 H   0  0  0  0  0  0  0  0  0  0  0  0
   37.5800   27.6520   44.7440 H   0  0  0  0  0  0  0  0  0  0  0  0
   38.0840   29.7790   43.7590 H   0  0  0  0  0  0  0  0  0  0  0  0
   37.0200   23.1530   40.2880 C   0  0  0  0  0  0  0  0  0  0  0  0
   37.3510   24.1980   41.1560 C   0  0  0  0  0  0  0  0  0  0  0  0
   37.0690   25.4840   40.7760 C   0  0  0  0  0  0  0  0  0  0  0  0
   36.4720   25.6720   39.5520 N   0  0  0  0  0  0  0  0  0  0  0  0
   36.1620   24.6500   38.7290 C   0  0  0  0  0  0  0  0  0  0  0  0
   36.4390   23.3950   39.1050 N   0  0  0  0  0  0  0  0  0  0  0  0
   37.2540   22.1480   40.6130 H   0  0  0  0  0  0  0  0  0  0  0  0
   37.8130   24.0830   42.1070 H   0  0  0  0  0  0  0  0  0  0  0  0
   35.6930   24.8810   37.7800 H   0  0  0  0  0  0  0  0  0  0  0  0
   38.1290   30.1520   40.9740 O   0  0  0  0  0  0  0  0  0  0  0  0
   36.4970   30.7060   38.9750 O   0  0  0  0  0  0  0  0  0  0  0  0
   36.9010   31.1630   40.3580 P   0  0  1  0  0  0  0  0  0  0  0  0
   35.5630   31.0810   41.3870 O   0  0  0  0  0  0  0  0  0  0  0  0
   34.7550   30.8070   40.8700 H   0  0  0  0  0  0  0  0  0  0  0  0
   37.5130   32.7340   40.2420 O   0  0  0  0  0  0  0  0  0  0  0  0
   38.9230   32.8970   37.8120 H   0  0  0  0  0  0  0  0  0  0  0  0
   39.4080   33.0980   38.7190 N   0  0  0  0  0  0  0  0  0  0  0  0
   38.8180   33.0460   39.9280 C   0  0  0  0  0  0  0  0  0  0  0  0
   39.7980   33.3740   40.8220 N   0  0  0  0  0  0  0  0  0  0  0  0
   40.9400   33.6120   40.1490 C   0  0  0  0  0  0  0  0  0  0  0  0
   42.2050   33.9750   40.5670 C   0  0  0  0  0  0  0  0  0  0  0  0
   42.3790   34.1090   41.6400 H   0  0  0  0  0  0  0  0  0  0  0  0
   43.2090   34.1610   39.6890 N   0  0  0  0  0  0  0  0  0  0  0  0
   42.9530   33.9850   38.3690 C   0  0  0  0  0  0  0  0  0  0  0  0
   43.7230   34.1210   37.6110 H   0  0  0  0  0  0  0  0  0  0  0  0
   41.7120   33.6280   37.9340 N   0  0  0  0  0  0  0  0  0  0  0  0
   40.7080   33.4420   38.8180 C   0  0  0  0  0  0  0  0  0  0  0  0
  1  2  1  0  0  0  0
  2  7  1  0  0  0  0
  2  3  2  0  0  0  0
  3  8  1  0  0  0  0
  4  3  1  0  0  0  0
  4  9  1  0  0  0  0
  5  4  2  0  0  0  0
  6  1  2  0  0  0  0
  6  5  1  0  0  0  0
 10 16  1  0  0  0  0
 10 11  1  0  0  0  0
 11 17  1  0  0  0  0
 12 11  2  0  0  0  0
 12  1  1  0  0  0  0
 13 12  1  0  0  0  0
 14 15  1  0  0  0  0
 14 13  2  0  0  0  0
 15 10  2  0  0  0  0
 18 14  1  0  0  0  0
 19  5  1  0  0  0  0
 21 20  2  6  0  0  0
 21 19  1  0  0  0  0
 21 22  1  0  0  0  0
 23 22  1  0  0  0  0
 24 21  1  0  0  0  0
 25 26  1  0  0  0  0
 26 36  1  0  0  0  0
 26 27  1  0  0  0  0
 27 24  1  0  0  0  0
 27 28  2  0  0  0  0
 29 30  1  0  0  0  0
 29 28  1  0  0  0  0
 30 31  1  0  0  0  0
 32 30  2  0  0  0  0
 33 32  1  0  0  0  0
 34 33  1  0  0  0  0
 35 33  2  0  0  0  0
 35 36  1  0  0  0  0
 36 29  2  0  0  0  0
M  END
>  <minimizedAffinity>
-6.5033145

$$$$

 OpenBabel03242522003D

 36 39  0  0  0  0  0  0  0  0999 V2000
   39.3860   28.9360   42.0390 C   0  0  0  0  0  0  0  0  0  0  0  0
   39.3270   28.1990   43.2080 C   0  0  0  0  0  0  0  0  0  0  0  0
   38.2370   27.4260   43.6010 C   0  0  0  0  0  0  0  0  0  0  0  0
   37.1360   27.3870   42.7700 C   0  0  0  0  0  0  0  0  0  0  0  0
   37.2130   28.1120   41.6320 C   0  0  0  0  0  0  0  0  0  0  0  0
   38.2680   28.8440   41.2810 N   0  0  0  0  0  0  0  0  0  0  0  0
   40.2450   28.2850   43.8100 H   0  0  0  0  0  0  0  0  0  0  0  0
   38.4090   26.9330   44.5510 H   0  0  0  0  0  0  0  0  0  0  0  0
   36.4040   26.7620   43.2460 H   0  0  0  0  0  0  0  0  0  0  0  0
   42.3340   30.5010   40.3120 C   0  0  0  0  0  0  0  0  0  0  0  0
   41.2560   29.6350   40.5080 C   0  0  0  0  0  0  0  0  0  0  0  0
   40.5280   29.7410   41.6640 C   0  0  0  0  0  0  0  0  0  0  0  0
   40.9060   30.7020   42.5720 N   0  0  0  0  0  0  0  0  0  0  0  0
   41.9510   31.5280   42.3630 C   0  0  0  0  0  0  0  0  0  0  0  0
   42.6590   31.4200   41.2320 N   0  0  0  0  0  0  0  0  0  0  0  0
   42.8920   30.3950   39.3910 H   0  0  0  0  0  0  0  0  0  0  0  0
   40.9400   28.8820   39.8260 H   0  0  0  0  0  0  0  0  0  0  0  0
   42.1860   32.2600   43.1270 H   0  0  0  0  0  0  0  0  0  0  0  0
   36.1190   28.0850   40.7840 O   0  0  0  0  0  0  0  0  0  0  0  0
   34.0110   29.2320   39.6850 O   0  0  0  0  0  0  0  0  0  0  0  0
   35.4430   29.4910   40.0940 P   0  0  1  0  0  0  0  0  0  0  0  0
   35.4800   30.7310   41.2420 O   0  0  0  0  0  0  0  0  0  0  0  0
   34.5600   31.0910   41.3810 H   0  0  0  0  0  0  0  0  0  0  0  0
   36.3290   29.8860   38.7100 O   0  0  0  0  0  0  0  0  0  0  0  0
   37.3080   31.8210   40.5050 H   0  0  0  0  0  0  0  0  0  0  0  0
   37.8190   31.6220   39.6120 N   0  0  0  0  0  0  0  0  0  0  0  0
   37.4280   30.7170   38.6940 C   0  0  0  0  0  0  0  0  0  0  0  0
   38.3670   30.7810   37.7030 N   0  0  0  0  0  0  0  0  0  0  0  0
   39.2880   31.7060   38.0330 C   0  0  0  0  0  0  0  0  0  0  0  0
   40.4250   32.1530   37.3910 C   0  0  0  0  0  0  0  0  0  0  0  0
   40.6830   31.7110   36.4230 H   0  0  0  0  0  0  0  0  0  0  0  0
   41.2070   33.1080   37.9290 N   0  0  0  0  0  0  0  0  0  0  0  0
   40.8530   33.6310   39.1300 C   0  0  0  0  0  0  0  0  0  0  0  0
   41.4440   34.4060   39.6170 H   0  0  0  0  0  0  0  0  0  0  0  0
   39.7340   33.2040   39.7820 N   0  0  0  0  0  0  0  0  0  0  0  0
   38.9540   32.2460   39.2370 C   0  0  0  0  0  0  0  0  0  0  0  0
  1  2  1  0  0  0  0
  2  3  2  0  0  0  0
  2  7  1  0  0  0  0
  3  8  1  0  0  0  0
  4  9  1  0  0  0  0
  4  3  1  0  0  0  0
  5  4  2  0  0  0  0
  6  5  1  0  0  0  0
  6  1  2  0  0  0  0
 10 11  2  0  0  0  0
 10 15  1  0  0  0  0
 11 12  1  0  0  0  0
 12  1  1  0  0  0  0
 12 13  2  0  0  0  0
 14 13  1  0  0  0  0
 14 18  1  0  0  0  0
 15 14  2  0  0  0  0
 16 10  1  0  0  0  0
 17 11  1  0  0  0  0
 19  5  1  0  0  0  0
 21 20  2  6  0  0  0
 21 19  1  0  0  0  0
 21 22  1  0  0  0  0
 22 23  1  0  0  0  0
 24 21  1  0  0  0  0
 26 25  1  0  0  0  0
 27 24  1  0  0  0  0
 27 26  1  0  0  0  0
 28 29  1  0  0  0  0
 28 27  2  0  0  0  0
 29 36  1  0  0  0  0
 30 32  1  0  0  0  0
 30 29  2  0  0  0  0
 31 30  1  0  0  0  0
 32 33  2  0  0  0  0
 33 34  1  0  0  0  0
 33 35  1  0  0  0  0
 36 26  1  0  0  0  0
 36 35  2  0  0  0  0
M  END
>  <minimizedAffinity>
-5.7414937

$$$$

 OpenBabel03242522003D

 36 39  0  0  0  0  0  0  0  0999 V2000
   37.3460   27.9740   41.0200 C   0  0  0  0  0  0  0  0  0  0  0  0
   36.1950   28.6670   41.3530 C   0  0  0  0  0  0  0  0  0  0  0  0
   35.1800   28.9870   40.4560 C   0  0  0  0  0  0  0  0  0  0  0  0
   35.3240   28.5900   39.1430 C   0  0  0  0  0  0  0  0  0  0  0  0
   36.4540   27.9130   38.8380 C   0  0  0  0  0  0  0  0  0  0  0  0
   37.4100   27.6200   39.7160 N   0  0  0  0  0  0  0  0  0  0  0  0
   36.1610   28.9450   42.4180 H   0  0  0  0  0  0  0  0  0  0  0  0
   34.3720   29.5310   40.9330 H   0  0  0  0  0  0  0  0  0  0  0  0
   34.4590   28.9400   38.6110 H   0  0  0  0  0  0  0  0  0  0  0  0
   39.5240   26.4530   43.6790 C   0  0  0  0  0  0  0  0  0  0  0  0
   38.4300   26.5920   42.8210 C   0  0  0  0  0  0  0  0  0  0  0  0
   38.3910   27.6670   41.9720 C   0  0  0  0  0  0  0  0  0  0  0  0
   39.4410   28.5540   42.0160 N   0  0  0  0  0  0  0  0  0  0  0  0
   40.4870   28.4020   42.8530 C   0  0  0  0  0  0  0  0  0  0  0  0
   40.5200   27.3490   43.6790 N   0  0  0  0  0  0  0  0  0  0  0  0
   39.5290   25.5950   44.3380 H   0  0  0  0  0  0  0  0  0  0  0  0
   37.6040   25.9230   42.7640 H   0  0  0  0  0  0  0  0  0  0  0  0
   41.2750   29.1450   42.8280 H   0  0  0  0  0  0  0  0  0  0  0  0
   36.6160   27.5030   37.5250 O   0  0  0  0  0  0  0  0  0  0  0  0
   38.9570   28.2730   36.5790 O   0  0  0  0  0  0  0  0  0  0  0  0
   37.4680   28.4180   36.3650 P   0  0  1  0  0  0  0  0  0  0  0  0
   37.0670   27.8510   34.8240 O   0  0  0  0  0  0  0  0  0  0  0  0
   37.8960   27.5880   34.3340 H   0  0  0  0  0  0  0  0  0  0  0  0
   37.0580   30.0450   36.5640 O   0  0  0  0  0  0  0  0  0  0  0  0
   39.7180   30.9590   36.6750 H   0  0  0  0  0  0  0  0  0  0  0  0
   39.0110   31.3040   37.3680 N   0  0  0  0  0  0  0  0  0  0  0  0
   37.7190   30.9250   37.3930 C   0  0  0  0  0  0  0  0  0  0  0  0
   37.1650   31.6050   38.4410 N   0  0  0  0  0  0  0  0  0  0  0  0
   38.1140   32.3660   39.0180 C   0  0  0  0  0  0  0  0  0  0  0  0
   38.0830   33.2310   40.0940 C   0  0  0  0  0  0  0  0  0  0  0  0
   37.1350   33.3680   40.6230 H   0  0  0  0  0  0  0  0  0  0  0  0
   39.1840   33.8960   40.4930 N   0  0  0  0  0  0  0  0  0  0  0  0
   40.3400   33.6990   39.8120 C   0  0  0  0  0  0  0  0  0  0  0  0
   41.2640   34.2070   40.0860 H   0  0  0  0  0  0  0  0  0  0  0  0
   40.3930   32.8500   38.7460 N   0  0  0  0  0  0  0  0  0  0  0  0
   39.2870   32.1860   38.3500 C   0  0  0  0  0  0  0  0  0  0  0  0
  1  2  1  0  0  0  0
  1 12  1  0  0  0  0
  2  7  1  0  0  0  0
  3  8  1  0  0  0  0
  3  2  2  0  0  0  0
  4  3  1  0  0  0  0
  5  4  2  0  0  0  0
  5  6  1  0  0  0  0
  6  1  2  0  0  0  0
  9  4  1  0  0  0  0
 10 15  1  0  0  0  0
 10 16  1  0  0  0  0
 11 10  2  0  0  0  0
 12 13  2  0  0  0  0
 12 11  1  0  0  0  0
 13 14  1  0  0  0  0
 14 15  2  0  0  0  0
 17 11  1  0  0  0  0
 18 14  1  0  0  0  0
 19  5  1  0  0  0  0
 21 24  1  0  0  0  0
 21 20  2  1  0  0  0
 21 19  1  0  0  0  0
 22 21  1  0  0  0  0
 23 22  1  0  0  0  0
 24 27  1  0  0  0  0
 25 26  1  0  0  0  0
 26 27  1  0  0  0  0
 26 36  1  0  0  0  0
 27 28  2  0  0  0  0
 28 29  1  0  0  0  0
 29 30  1  0  0  0  0
 30 32  2  0  0  0  0
 30 31  1  0  0  0  0
 33 34  1  0  0  0  0
 33 32  1  0  0  0  0
 35 33  2  0  0  0  0
 36 35  1  0  0  0  0
 36 29  2  0  0  0  0
M  END
>  <minimizedAffinity>
-5.73370934

$$$$

 OpenBabel03242522003D

 36 39  0  0  0  0  0  0  0  0999 V2000
   36.4960   27.4840   39.3010 C   0  0  0  0  0  0  0  0  0  0  0  0
   35.6410   27.4120   38.2160 C   0  0  0  0  0  0  0  0  0  0  0  0
   35.4060   28.4570   37.3250 C   0  0  0  0  0  0  0  0  0  0  0  0
   36.0710   29.6470   37.5320 C   0  0  0  0  0  0  0  0  0  0  0  0
   36.9040   29.6970   38.5950 C   0  0  0  0  0  0  0  0  0  0  0  0
   37.1090   28.6830   39.4320 N   0  0  0  0  0  0  0  0  0  0  0  0
   35.1530   26.4290   38.1250 H   0  0  0  0  0  0  0  0  0  0  0  0
   34.7000   28.1800   36.5500 H   0  0  0  0  0  0  0  0  0  0  0  0
   35.7510   30.3250   36.7620 H   0  0  0  0  0  0  0  0  0  0  0  0
   36.7930   24.1240   40.9590 C   0  0  0  0  0  0  0  0  0  0  0  0
   36.5410   25.0530   39.9470 C   0  0  0  0  0  0  0  0  0  0  0  0
   36.7090   26.3860   40.2180 C   0  0  0  0  0  0  0  0  0  0  0  0
   37.1210   26.7330   41.4830 N   0  0  0  0  0  0  0  0  0  0  0  0
   37.3590   25.8200   42.4470 C   0  0  0  0  0  0  0  0  0  0  0  0
   37.1930   24.5190   42.1760 N   0  0  0  0  0  0  0  0  0  0  0  0
   36.6520   23.0790   40.7180 H   0  0  0  0  0  0  0  0  0  0  0  0
   36.2210   24.8150   38.9600 H   0  0  0  0  0  0  0  0  0  0  0  0
   37.6800   26.1730   43.4190 H   0  0  0  0  0  0  0  0  0  0  0  0
   37.5830   30.8830   38.8180 O   0  0  0  0  0  0  0  0  0  0  0  0
   37.1760   33.2920   39.8180 O   0  0  0  0  0  0  0  0  0  0  0  0
   37.3440   31.8420   40.2090 P   0  0  1  0  0  0  0  0  0  0  0  0
   35.9490   31.3130   41.0020 O   0  0  0  0  0  0  0  0  0  0  0  0
   35.3130   32.0730   41.1120 H   0  0  0  0  0  0  0  0  0  0  0  0
   38.7150   31.7110   41.1890 O   0  0  0  0  0  0  0  0  0  0  0  0
   40.9830   32.3210   42.7400 H   0  0  0  0  0  0  0  0  0  0  0  0
   40.9840   32.5020   41.7080 N   0  0  0  0  0  0  0  0  0  0  0  0
   39.9490   32.2440   40.8860 C   0  0  0  0  0  0  0  0  0  0  0  0
   40.3710   32.6260   39.6440 N   0  0  0  0  0  0  0  0  0  0  0  0
   41.6280   33.1000   39.7360 C   0  0  0  0  0  0  0  0  0  0  0  0
   42.5020   33.6060   38.7940 C   0  0  0  0  0  0  0  0  0  0  0  0
   42.1680   33.6590   37.7530 H   0  0  0  0  0  0  0  0  0  0  0  0
   43.7350   34.0260   39.1330 N   0  0  0  0  0  0  0  0  0  0  0  0
   44.1100   33.9440   40.4330 C   0  0  0  0  0  0  0  0  0  0  0  0
   45.0940   34.2680   40.7700 H   0  0  0  0  0  0  0  0  0  0  0  0
   43.2650   33.4480   41.3810 N   0  0  0  0  0  0  0  0  0  0  0  0
   42.0290   33.0280   41.0360 C   0  0  0  0  0  0  0  0  0  0  0  0
  1  6  1  0  0  0  0
  1 12  1  0  0  0  0
  2  1  2  0  0  0  0
  3  4  2  0  0  0  0
  3  2  1  0  0  0  0
  4  5  1  0  0  0  0
  5 19  1  0  0  0  0
  5  6  2  0  0  0  0
  7  2  1  0  0  0  0
  8  3  1  0  0  0  0
  9  4  1  0  0  0  0
 10 15  1  0  0  0  0
 11 12  1  0  0  0  0
 11 10  2  0  0  0  0
 12 13  2  0  0  0  0
 13 14  1  0  0  0  0
 14 18  1  0  0  0  0
 15 14  2  0  0  0  0
 16 10  1  0  0  0  0
 17 11  1  0  0  0  0
 19 21  1  0  0  0  0
 21 20  2  6  0  0  0
 21 22  1  0  0  0  0
 21 24  1  0  0  0  0
 22 23  1  0  0  0  0
 26 25  1  0  0  0  0
 27 24  1  0  0  0  0
 27 26  1  0  0  0  0
 28 29  1  0  0  0  0
 28 27  2  0  0  0  0
 29 36  1  0  0  0  0
 30 32  1  0  0  0  0
 30 29  2  0  0  0  0
 31 30  1  0  0  0  0
 32 33  2  0  0  0  0
 33 34  1  0  0  0  0
 33 35  1  0  0  0  0
 36 35  2  0  0  0  0
 36 26  1  0  0  0  0
M  END
>  <minimizedAffinity>
-5.72002172

$$$$

 OpenBabel03242522003D

 36 39  0  0  0  0  0  0  0  0999 V2000
   38.1700   31.4290   41.1050 C   0  0  0  0  0  0  0  0  0  0  0  0
   37.2590   32.0730   40.2860 C   0  0  0  0  0  0  0  0  0  0  0  0
   37.4920   33.2880   39.6480 C   0  0  0  0  0  0  0  0  0  0  0  0
   38.7150   33.8980   39.8400 C   0  0  0  0  0  0  0  0  0  0  0  0
   39.5910   33.2530   40.6410 C   0  0  0  0  0  0  0  0  0  0  0  0
   39.3420   32.0920   41.2410 N   0  0  0  0  0  0  0  0  0  0  0  0
   36.3120   31.5190   40.1880 H   0  0  0  0  0  0  0  0  0  0  0  0
   36.6420   33.6070   39.0550 H   0  0  0  0  0  0  0  0  0  0  0  0
   38.6980   34.8190   39.2880 H   0  0  0  0  0  0  0  0  0  0  0  0
   38.1800   28.4010   43.3310 C   0  0  0  0  0  0  0  0  0  0  0  0
   38.5910   29.6320   42.8140 C   0  0  0  0  0  0  0  0  0  0  0  0
   37.8930   30.1730   41.7670 C   0  0  0  0  0  0  0  0  0  0  0  0
   36.8200   29.4640   41.2810 N   0  0  0  0  0  0  0  0  0  0  0  0
   36.4400   28.2760   41.7940 C   0  0  0  0  0  0  0  0  0  0  0  0
   37.1250   27.7530   42.8180 N   0  0  0  0  0  0  0  0  0  0  0  0
   38.7490   27.9970   44.1580 H   0  0  0  0  0  0  0  0  0  0  0  0
   39.4160   30.2030   43.1680 H   0  0  0  0  0  0  0  0  0  0  0  0
   35.5830   27.7800   41.3550 H   0  0  0  0  0  0  0  0  0  0  0  0
   40.8250   33.8480   40.8450 O   0  0  0  0  0  0  0  0  0  0  0  0
   42.9270   33.1600   42.2850 O   0  0  0  0  0  0  0  0  0  0  0  0
   42.2800   32.9620   40.9340 P   0  0  1  0  0  0  0  0  0  0  0  0
   41.9330   31.3220   40.7160 O   0  0  0  0  0  0  0  0  0  0  0  0
   42.2760   30.7970   41.4910 H   0  0  0  0  0  0  0  0  0  0  0  0
   43.3340   33.5460   39.7490 O   0  0  0  0  0  0  0  0  0  0  0  0
   42.0300   31.6830   38.0900 H   0  0  0  0  0  0  0  0  0  0  0  0
   43.0220   31.9600   37.8960 N   0  0  0  0  0  0  0  0  0  0  0  0
   43.7260   32.8410   38.6320 C   0  0  0  0  0  0  0  0  0  0  0  0
   44.9550   32.9050   38.0380 N   0  0  0  0  0  0  0  0  0  0  0  0
   44.9700   32.0770   36.9750 C   0  0  0  0  0  0  0  0  0  0  0  0
   45.9470   31.7740   36.0490 C   0  0  0  0  0  0  0  0  0  0  0  0
   46.9210   32.2660   36.1410 H   0  0  0  0  0  0  0  0  0  0  0  0
   45.7240   30.8960   35.0530 N   0  0  0  0  0  0  0  0  0  0  0  0
   44.5050   30.3070   34.9730 C   0  0  0  0  0  0  0  0  0  0  0  0
   44.2620   29.5890   34.1910 H   0  0  0  0  0  0  0  0  0  0  0  0
   43.5240   30.5920   35.8760 N   0  0  0  0  0  0  0  0  0  0  0  0
   43.7540   31.4730   36.8740 C   0  0  0  0  0  0  0  0  0  0  0  0
  1  6  1  0  0  0  0
  1 12  1  0  0  0  0
  2  1  2  0  0  0  0
  3  4  2  0  0  0  0
  3  2  1  0  0  0  0
  4  5  1  0  0  0  0
  5 19  1  0  0  0  0
  5  6  2  0  0  0  0
  7  2  1  0  0  0  0
  8  3  1  0  0  0  0
  9  4  1  0  0  0  0
 10 16  1  0  0  0  0
 11 17  1  0  0  0  0
 11 10  2  0  0  0  0
 12 11  1  0  0  0  0
 13 12  2  0  0  0  0
 13 14  1  0  0  0  0
 14 15  2  0  0  0  0
 15 10  1  0  0  0  0
 18 14  1  0  0  0  0
 19 21  1  0  0  0  0
 21 20  2  1  0  0  0
 22 21  1  0  0  0  0
 22 23  1  0  0  0  0
 24 21  1  0  0  0  0
 26 25  1  0  0  0  0
 26 27  1  0  0  0  0
 27 24  1  0  0  0  0
 28 27  2  0  0  0  0
 29 28  1  0  0  0  0
 30 31  1  0  0  0  0
 30 29  2  0  0  0  0
 32 30  1  0  0  0  0
 33 32  2  0  0  0  0
 33 35  1  0  0  0  0
 34 33  1  0  0  0  0
 35 36  2  0  0  0  0
 36 29  1  0  0  0  0
 36 26  1  0  0  0  0
M  END
>  <minimizedAffinity>
-5.61433887

$$$$

 OpenBabel03242522003D

 36 39  0  0  0  0  0  0  0  0999 V2000
   38.1230   31.7340   40.1190 C   0  0  0  0  0  0  0  0  0  0  0  0
   37.7040   33.0530   40.0800 C   0  0  0  0  0  0  0  0  0  0  0  0
   38.5510   34.1530   40.1800 C   0  0  0  0  0  0  0  0  0  0  0  0
   39.9030   33.9200   40.3280 C   0  0  0  0  0  0  0  0  0  0  0  0
   40.2920   32.6270   40.3620 C   0  0  0  0  0  0  0  0  0  0  0  0
   39.4610   31.5930   40.2650 N   0  0  0  0  0  0  0  0  0  0  0  0
   36.6140   33.1470   39.9600 H   0  0  0  0  0  0  0  0  0  0  0  0
   38.0090   35.0910   40.1240 H   0  0  0  0  0  0  0  0  0  0  0  0
   40.3810   34.8790   40.4040 H   0  0  0  0  0  0  0  0  0  0  0  0
   35.2850   29.2980   40.4930 C   0  0  0  0  0  0  0  0  0  0  0  0
   36.0380   30.4550   40.7080 C   0  0  0  0  0  0  0  0  0  0  0  0
   37.2160   30.6100   40.0260 C   0  0  0  0  0  0  0  0  0  0  0  0
   37.5920   29.6090   39.1620 N   0  0  0  0  0  0  0  0  0  0  0  0
   36.8500   28.4990   38.9700 C   0  0  0  0  0  0  0  0  0  0  0  0
   35.7000   28.3520   39.6390 N   0  0  0  0  0  0  0  0  0  0  0  0
   34.3600   29.2010   41.0450 H   0  0  0  0  0  0  0  0  0  0  0  0
   35.7750   31.2460   41.3690 H   0  0  0  0  0  0  0  0  0  0  0  0
   37.2140   27.7540   38.2720 H   0  0  0  0  0  0  0  0  0  0  0  0
   41.6460   32.3720   40.5070 O   0  0  0  0  0  0  0  0  0  0  0  0
   43.7820   31.4400   41.7460 O   0  0  0  0  0  0  0  0  0  0  0  0
   42.2730   31.3480   41.7190 P   0  0  1  0  0  0  0  0  0  0  0  0
   41.6570   31.8350   43.2150 O   0  0  0  0  0  0  0  0  0  0  0  0
   42.4070   32.0280   43.8440 H   0  0  0  0  0  0  0  0  0  0  0  0
   41.8430   29.7570   41.3470 O   0  0  0  0  0  0  0  0  0  0  0  0
   39.8270   30.4710   43.1760 H   0  0  0  0  0  0  0  0  0  0  0  0
   39.7630   29.5700   42.6450 N   0  0  0  0  0  0  0  0  0  0  0  0
   40.6770   29.1450   41.7510 C   0  0  0  0  0  0  0  0  0  0  0  0
   40.2090   27.9420   41.3030 N   0  0  0  0  0  0  0  0  0  0  0  0
   39.0450   27.6680   41.9220 C   0  0  0  0  0  0  0  0  0  0  0  0
   38.1740   26.6000   41.8330 C   0  0  0  0  0  0  0  0  0  0  0  0
   38.4220   25.7850   41.1450 H   0  0  0  0  0  0  0  0  0  0  0  0
   37.0480   26.5480   42.5680 N   0  0  0  0  0  0  0  0  0  0  0  0
   36.7770   27.5770   43.4090 C   0  0  0  0  0  0  0  0  0  0  0  0
   35.8820   27.5930   44.0290 H   0  0  0  0  0  0  0  0  0  0  0  0
   37.6220   28.6420   43.5130 N   0  0  0  0  0  0  0  0  0  0  0  0
   38.7510   28.6890   42.7740 C   0  0  0  0  0  0  0  0  0  0  0  0
  1  6  1  0  0  0  0
  2  1  2  0  0  0  0
  2  3  1  0  0  0  0
  3  4  2  0  0  0  0
  4  5  1  0  0  0  0
  4  9  1  0  0  0  0
  5 19  1  0  0  0  0
  6  5  2  0  0  0  0
  7  2  1  0  0  0  0
  8  3  1  0  0  0  0
 10 11  1  0  0  0  0
 10 16  1  0  0  0  0
 11 17  1  0  0  0  0
 12  1  1  0  0  0  0
 12 11  2  0  0  0  0
 13 12  1  0  0  0  0
 14 13  2  0  0  0  0
 14 15  1  0  0  0  0
 15 10  2  0  0  0  0
 18 14  1  0  0  0  0
 19 21  1  0  0  0  0
 21 20  2  1  0  0  0
 21 22  1  0  0  0  0
 22 23  1  0  0  0  0
 24 21  1  0  0  0  0
 24 27  1  0  0  0  0
 26 36  1  0  0  0  0
 26 25  1  0  0  0  0
 27 26  1  0  0  0  0
 28 27  2  0  0  0  0
 28 29  1  0  0  0  0
 29 36  1  0  0  0  0
 30 29  2  0  0  0  0
 30 32  1  0  0  0  0
 31 30  1  0  0  0  0
 32 33  2  0  0  0  0
 33 35  1  0  0  0  0
 33 34  1  0  0  0  0
 36 35  2  0  0  0  0
M  END
>  <minimizedAffinity>
-5.48019886

$$$$

 OpenBabel03242522003D

 36 39  0  0  0  0  0  0  0  0999 V2000
   38.2350   31.4350   38.5360 C   0  0  0  0  0  0  0  0  0  0  0  0
   37.2710   32.4040   38.7510 C   0  0  0  0  0  0  0  0  0  0  0  0
   37.4100   33.4740   39.6330 C   0  0  0  0  0  0  0  0  0  0  0  0
   38.5880   33.5800   40.3430 C   0  0  0  0  0  0  0  0  0  0  0  0
   39.5180   32.6250   40.1170 C   0  0  0  0  0  0  0  0  0  0  0  0
   39.3580   31.6120   39.2690 N   0  0  0  0  0  0  0  0  0  0  0  0
   36.3660   32.2440   38.1460 H   0  0  0  0  0  0  0  0  0  0  0  0
   36.5330   34.1100   39.6420 H   0  0  0  0  0  0  0  0  0  0  0  0
   38.4990   34.4460   40.9730 H   0  0  0  0  0  0  0  0  0  0  0  0
   37.0100   29.0200   35.9300 C   0  0  0  0  0  0  0  0  0  0  0  0
   37.0220   30.1570   36.7400 C   0  0  0  0  0  0  0  0  0  0  0  0
   38.0560   30.3270   37.6230 C   0  0  0  0  0  0  0  0  0  0  0  0
   39.0310   29.3580   37.6590 N   0  0  0  0  0  0  0  0  0  0  0  0
   39.0010   28.2670   36.8670 C   0  0  0  0  0  0  0  0  0  0  0  0
   37.9880   28.1060   36.0070 N   0  0  0  0  0  0  0  0  0  0  0  0
   36.1820   28.9110   35.2430 H   0  0  0  0  0  0  0  0  0  0  0  0
   36.2830   30.9230   36.7360 H   0  0  0  0  0  0  0  0  0  0  0  0
   39.8070   27.5480   36.9550 H   0  0  0  0  0  0  0  0  0  0  0  0
   40.7080   32.7160   40.8190 O   0  0  0  0  0  0  0  0  0  0  0  0
   41.9570   30.4080   41.1020 O   0  0  0  0  0  0  0  0  0  0  0  0
   41.2560   31.4980   41.8800 P   0  0  1  0  0  0  0  0  0  0  0  0
   42.3400   32.1830   42.9810 O   0  0  0  0  0  0  0  0  0  0  0  0
   43.2100   31.6970   42.9470 H   0  0  0  0  0  0  0  0  0  0  0  0
   39.9140   30.8220   42.6540 O   0  0  0  0  0  0  0  0  0  0  0  0
   39.6980   29.4630   40.1980 H   0  0  0  0  0  0  0  0  0  0  0  0
   39.2530   29.0680   41.0610 N   0  0  0  0  0  0  0  0  0  0  0  0
   39.3030   29.6450   42.2770 C   0  0  0  0  0  0  0  0  0  0  0  0
   38.6040   28.8090   43.1020 N   0  0  0  0  0  0  0  0  0  0  0  0
   38.1520   27.7640   42.3820 C   0  0  0  0  0  0  0  0  0  0  0  0
   37.4070   26.6540   42.7250 C   0  0  0  0  0  0  0  0  0  0  0  0
   37.0880   26.5440   43.7670 H   0  0  0  0  0  0  0  0  0  0  0  0
   37.0710   25.7230   41.8120 N   0  0  0  0  0  0  0  0  0  0  0  0
   37.4840   25.8950   40.5320 C   0  0  0  0  0  0  0  0  0  0  0  0
   37.2450   25.1780   39.7490 H   0  0  0  0  0  0  0  0  0  0  0  0
   38.2220   26.9840   40.1710 N   0  0  0  0  0  0  0  0  0  0  0  0
   38.5560   27.9150   41.0900 C   0  0  0  0  0  0  0  0  0  0  0  0
  1  2  2  0  0  0  0
  1  6  1  0  0  0  0
  2  3  1  0  0  0  0
  3  8  1  0  0  0  0
  3  4  2  0  0  0  0
  4  9  1  0  0  0  0
  5  4  1  0  0  0  0
  5 19  1  0  0  0  0
  6  5  2  0  0  0  0
  7  2  1  0  0  0  0
 10 15  2  0  0  0  0
 10 11  1  0  0  0  0
 11 12  2  0  0  0  0
 12 13  1  0  0  0  0
 12  1  1  0  0  0  0
 14 18  1  0  0  0  0
 14 13  2  0  0  0  0
 15 14  1  0  0  0  0
 16 10  1  0  0  0  0
 17 11  1  0  0  0  0
 19 21  1  0  0  0  0
 21 20  2  6  0  0  0
 21 24  1  0  0  0  0
 21 22  1  0  0  0  0
 23 22  1  0  0  0  0
 25 26  1  0  0  0  0
 26 36  1  0  0  0  0
 26 27  1  0  0  0  0
 27 24  1  0  0  0  0
 27 28  2  0  0  0  0
 29 30  1  0  0  0  0
 29 28  1  0  0  0  0
 30 31  1  0  0  0  0
 32 30  2  0  0  0  0
 33 32  1  0  0  0  0
 34 33  1  0  0  0  0
 35 33  2  0  0  0  0
 35 36  1  0  0  0  0
 36 29  2  0  0  0  0
M  END
>  <minimizedAffinity>
-5.45414734

$$$$

 OpenBabel03242522003D

 36 39  0  0  0  0  0  0  0  0999 V2000
   36.6300   27.4710   40.3190 C   0  0  0  0  0  0  0  0  0  0  0  0
   35.8280   27.4680   39.1910 C   0  0  0  0  0  0  0  0  0  0  0  0
   35.2710   28.6070   38.6160 C   0  0  0  0  0  0  0  0  0  0  0  0
   35.5320   29.8260   39.2050 C   0  0  0  0  0  0  0  0  0  0  0  0
   36.3190   29.8080   40.3040 C   0  0  0  0  0  0  0  0  0  0  0  0
   36.8380   28.7040   40.8350 N   0  0  0  0  0  0  0  0  0  0  0  0
   35.6710   26.4560   38.7860 H   0  0  0  0  0  0  0  0  0  0  0  0
   34.6790   28.3710   37.7380 H   0  0  0  0  0  0  0  0  0  0  0  0
   35.0080   30.5700   38.6360 H   0  0  0  0  0  0  0  0  0  0  0  0
   37.4890   23.9330   41.2540 C   0  0  0  0  0  0  0  0  0  0  0  0
   36.8470   24.9790   40.5850 C   0  0  0  0  0  0  0  0  0  0  0  0
   37.1840   26.2680   40.9020 C   0  0  0  0  0  0  0  0  0  0  0  0
   38.1430   26.4590   41.8690 N   0  0  0  0  0  0  0  0  0  0  0  0
   38.7510   25.4350   42.5030 C   0  0  0  0  0  0  0  0  0  0  0  0
   38.4170   24.1770   42.1890 N   0  0  0  0  0  0  0  0  0  0  0  0
   37.2030   22.9250   40.9840 H   0  0  0  0  0  0  0  0  0  0  0  0
   36.1030   24.8630   39.8340 H   0  0  0  0  0  0  0  0  0  0  0  0
   39.4960   25.6680   43.2540 H   0  0  0  0  0  0  0  0  0  0  0  0
   36.5950   31.0230   40.9100 O   0  0  0  0  0  0  0  0  0  0  0  0
   38.3780   31.5790   39.0450 O   0  0  0  0  0  0  0  0  0  0  0  0
   37.6820   32.1630   40.2520 P   0  0  1  0  0  0  0  0  0  0  0  0
   36.8130   33.5360   39.7870 O   0  0  0  0  0  0  0  0  0  0  0  0
   36.9780   33.7300   38.8230 H   0  0  0  0  0  0  0  0  0  0  0  0
   38.8500   32.5200   41.4200 O   0  0  0  0  0  0  0  0  0  0  0  0
   41.4780   32.7830   42.3930 H   0  0  0  0  0  0  0  0  0  0  0  0
   41.0180   31.8420   42.3600 N   0  0  0  0  0  0  0  0  0  0  0  0
   39.7680   31.6180   41.9120 C   0  0  0  0  0  0  0  0  0  0  0  0
   39.5740   30.2720   42.0430 N   0  0  0  0  0  0  0  0  0  0  0  0
   40.6890   29.7180   42.5560 C   0  0  0  0  0  0  0  0  0  0  0  0
   41.0140   28.4160   42.8810 C   0  0  0  0  0  0  0  0  0  0  0  0
   40.2650   27.6360   42.7110 H   0  0  0  0  0  0  0  0  0  0  0  0
   42.2180   28.0990   43.3930 N   0  0  0  0  0  0  0  0  0  0  0  0
   43.1190   29.0940   43.5880 C   0  0  0  0  0  0  0  0  0  0  0  0
   44.1090   28.9010   43.9990 H   0  0  0  0  0  0  0  0  0  0  0  0
   42.8200   30.3860   43.2760 N   0  0  0  0  0  0  0  0  0  0  0  0
   41.6110   30.6990   42.7620 C   0  0  0  0  0  0  0  0  0  0  0  0
  1  6  1  0  0  0  0
  1 12  1  0  0  0  0
  2  1  2  0  0  0  0
  3  2  1  0  0  0  0
  3  4  2  0  0  0  0
  4  5  1  0  0  0  0
  5  6  2  0  0  0  0
  5 19  1  0  0  0  0
  7  2  1  0  0  0  0
  8  3  1  0  0  0  0
  9  4  1  0  0  0  0
 10 15  1  0  0  0  0
 11 12  1  0  0  0  0
 11 10  2  0  0  0  0
 12 13  2  0  0  0  0
 13 14  1  0  0  0  0
 14 18  1  0  0  0  0
 15 14  2  0  0  0  0
 16 10  1  0  0  0  0
 17 11  1  0  0  0  0
 21 20  2  6  0  0  0
 21 19  1  0  0  0  0
 21 24  1  0  0  0  0
 22 21  1  0  0  0  0
 23 22  1  0  0  0  0
 24 27  1  0  0  0  0
 26 25  1  0  0  0  0
 26 36  1  0  0  0  0
 27 28  2  0  0  0  0
 27 26  1  0  0  0  0
 28 29  1  0  0  0  0
 29 36  2  0  0  0  0
 29 30  1  0  0  0  0
 30 32  2  0  0  0  0
 31 30  1  0  0  0  0
 32 33  1  0  0  0  0
 33 34  1  0  0  0  0
 35 33  2  0  0  0  0
 36 35  1  0  0  0  0
M  END
>  <minimizedAffinity>
-5.43955612

$$$$

 OpenBabel03242522003D

 36 39  0  0  0  0  0  0  0  0999 V2000
   36.7510   26.4080   40.3140 C   0  0  0  0  0  0  0  0  0  0  0  0
   36.6670   25.0280   40.2660 C   0  0  0  0  0  0  0  0  0  0  0  0
   36.2350   24.3010   39.1590 C   0  0  0  0  0  0  0  0  0  0  0  0
   35.8660   24.9990   38.0280 C   0  0  0  0  0  0  0  0  0  0  0  0
   35.9580   26.3460   38.0940 C   0  0  0  0  0  0  0  0  0  0  0  0
   36.3720   27.0160   39.1660 N   0  0  0  0  0  0  0  0  0  0  0  0
   36.9800   24.5510   41.2080 H   0  0  0  0  0  0  0  0  0  0  0  0
   36.2500   23.2320   39.3430 H   0  0  0  0  0  0  0  0  0  0  0  0
   35.5520   24.2760   37.3000 H   0  0  0  0  0  0  0  0  0  0  0  0
   38.1010   27.4580   43.6600 C   0  0  0  0  0  0  0  0  0  0  0  0
   37.7310   26.5990   42.6230 C   0  0  0  0  0  0  0  0  0  0  0  0
   37.1910   27.1360   41.4840 C   0  0  0  0  0  0  0  0  0  0  0  0
   37.0430   28.5020   41.4300 N   0  0  0  0  0  0  0  0  0  0  0  0
   37.4070   29.3140   42.4430 C   0  0  0  0  0  0  0  0  0  0  0  0
   37.9350   28.7830   43.5530 N   0  0  0  0  0  0  0  0  0  0  0  0
   38.5250   27.0070   44.5480 H   0  0  0  0  0  0  0  0  0  0  0  0
   37.8330   25.5400   42.6360 H   0  0  0  0  0  0  0  0  0  0  0  0
   37.2580   30.3800   42.3240 H   0  0  0  0  0  0  0  0  0  0  0  0
   35.5930   27.0650   36.9680 O   0  0  0  0  0  0  0  0  0  0  0  0
   38.1100   27.1370   36.1740 O   0  0  0  0  0  0  0  0  0  0  0  0
   36.7170   27.5840   35.7930 P   0  0  1  0  0  0  0  0  0  0  0  0
   36.3000   26.9030   34.3040 O   0  0  0  0  0  0  0  0  0  0  0  0
   37.0730   26.3900   33.9370 H   0  0  0  0  0  0  0  0  0  0  0  0
   36.6950   29.2730   35.7430 O   0  0  0  0  0  0  0  0  0  0  0  0
   39.0750   30.7130   36.1710 H   0  0  0  0  0  0  0  0  0  0  0  0
   38.3030   30.7460   36.8790 N   0  0  0  0  0  0  0  0  0  0  0  0
   37.1310   30.0930   36.7610 C   0  0  0  0  0  0  0  0  0  0  0  0
   36.4270   30.4090   37.8890 N   0  0  0  0  0  0  0  0  0  0  0  0
   37.1730   31.2310   38.6520 C   0  0  0  0  0  0  0  0  0  0  0  0
   36.9360   31.8350   39.8710 C   0  0  0  0  0  0  0  0  0  0  0  0
   35.9770   31.6490   40.3650 H   0  0  0  0  0  0  0  0  0  0  0  0
   37.8530   32.6330   40.4500 N   0  0  0  0  0  0  0  0  0  0  0  0
   39.0280   32.8390   39.8060 C   0  0  0  0  0  0  0  0  0  0  0  0
   39.8090   33.4740   40.2230 H   0  0  0  0  0  0  0  0  0  0  0  0
   39.2830   32.2530   38.6020 N   0  0  0  0  0  0  0  0  0  0  0  0
   38.3610   31.4530   38.0260 C   0  0  0  0  0  0  0  0  0  0  0  0
  1 12  1  0  0  0  0
  2  1  1  0  0  0  0
  2  7  1  0  0  0  0
  3  8  1  0  0  0  0
  3  2  2  0  0  0  0
  4  5  2  0  0  0  0
  4  3  1  0  0  0  0
  5  6  1  0  0  0  0
  6  1  2  0  0  0  0
  9  4  1  0  0  0  0
 10 16  1  0  0  0  0
 11 17  1  0  0  0  0
 11 10  2  0  0  0  0
 12 11  1  0  0  0  0
 13 12  2  0  0  0  0
 13 14  1  0  0  0  0
 14 15  2  0  0  0  0
 15 10  1  0  0  0  0
 18 14  1  0  0  0  0
 19  5  1  0  0  0  0
 21 20  2  1  0  0  0
 21 19  1  0  0  0  0
 22 21  1  0  0  0  0
 23 22  1  0  0  0  0
 24 21  1  0  0  0  0
 24 27  1  0  0  0  0
 25 26  1  0  0  0  0
 26 36  1  0  0  0  0
 27 26  1  0  0  0  0
 27 28  2  0  0  0  0
 28 29  1  0  0  0  0
 29 30  1  0  0  0  0
 30 31  1  0  0  0  0
 30 32  2  0  0  0  0
 33 34  1  0  0  0  0
 33 32  1  0  0  0  0
 35 33  2  0  0  0  0
 36 35  1  0  0  0  0
 36 29  2  0  0  0  0
M  END
>  <minimizedAffinity>
-5.43598795

$$$$
