
 OpenBabel03252507463D

 40 43  0  0  0  0  0  0  0  0999 V2000
   48.5260   33.5760   40.8040 C   0  0  0  0  0  0  0  0  0  0  0  0
   48.7360   32.4300   40.0620 C   0  0  0  0  0  0  0  0  0  0  0  0
   49.8490   31.6150   40.2340 C   0  0  0  0  0  0  0  0  0  0  0  0
   50.7390   32.0320   41.2060 N   0  0  0  0  0  0  0  0  0  0  0  0
   50.5080   33.1520   41.9140 C   0  0  0  0  0  0  0  0  0  0  0  0
   49.4250   33.9000   41.7120 N   0  0  0  0  0  0  0  0  0  0  0  0
   49.9650   30.7400   39.6340 H   0  0  0  0  0  0  0  0  0  0  0  0
   51.2830   33.3660   42.6430 H   0  0  0  0  0  0  0  0  0  0  0  0
   47.3000   34.3310   40.5060 C   0  0  0  0  0  0  0  0  0  0  0  0
   47.4870   35.2490   39.8880 H   0  0  0  0  0  0  0  0  0  0  0  0
   46.5690   33.7300   39.9270 H   0  0  0  0  0  0  0  0  0  0  0  0
   46.5660   34.7590   41.7530 C   0  0  0  0  0  0  0  0  0  0  0  0
   46.9040   35.7860   42.0040 H   0  0  0  0  0  0  0  0  0  0  0  0
   46.8670   34.1410   42.6440 H   0  0  0  0  0  0  0  0  0  0  0  0
   45.0940   34.8240   41.5950 C   0  0  0  0  0  0  0  0  0  0  0  0
   44.3110   35.4850   42.5810 C   0  0  0  0  0  0  0  0  0  0  0  0
   42.5990   35.3020   41.9510 S   0  0  0  0  0  0  0  0  0  0  0  0
   43.2440   34.3430   40.4320 C   0  0  0  0  0  0  0  0  0  0  0  0
   44.3670   34.3350   40.6250 N   0  0  0  0  0  0  0  0  0  0  0  0
   44.6560   35.9750   43.4820 H   0  0  0  0  0  0  0  0  0  0  0  0
   42.4040   33.8560   39.4440 O   0  0  0  0  0  0  0  0  0  0  0  0
   40.4850   34.2670   37.6620 O   0  0  0  0  0  0  0  0  0  0  0  0
   41.5360   34.9660   38.5060 P   0  0  0  0  0  0  0  0  0  0  0  0
   40.7650   36.0430   39.5640 O   0  0  0  0  0  0  0  0  0  0  0  0
   40.4010   35.4920   40.3050 H   0  0  0  0  0  0  0  0  0  0  0  0
   42.6210   35.8530   37.5360 O   0  0  0  0  0  0  0  0  0  0  0  0
   42.9410   35.2610   36.7900 H   0  0  0  0  0  0  0  0  0  0  0  0
   47.5440   31.9420   38.7790 S   0  0  0  0  0  0  0  0  0  0  0  0
   49.8840   30.3620   37.4380 H   0  0  0  0  0  0  0  0  0  0  0  0
   49.4100   31.0550   36.8180 N   0  0  0  0  0  0  0  0  0  0  0  0
   48.3830   31.8330   37.2060 C   0  0  0  0  0  0  0  0  0  0  0  0
   47.9960   32.6160   36.1860 N   0  0  0  0  0  0  0  0  0  0  0  0
   48.7630   32.3670   35.1080 C   0  0  0  0  0  0  0  0  0  0  0  0
   48.8230   32.8540   33.8150 C   0  0  0  0  0  0  0  0  0  0  0  0
   48.0830   33.6320   33.5780 H   0  0  0  0  0  0  0  0  0  0  0  0
   49.7490   32.3730   32.9430 N   0  0  0  0  0  0  0  0  0  0  0  0
   50.5920   31.4110   33.3930 C   0  0  0  0  0  0  0  0  0  0  0  0
   51.3010   31.0830   32.6290 H   0  0  0  0  0  0  0  0  0  0  0  0
   50.5710   30.9000   34.6550 N   0  0  0  0  0  0  0  0  0  0  0  0
   49.6440   31.3830   35.5280 C   0  0  0  0  0  0  0  0  0  0  0  0
  1  6  1  0  0  0  0
  2  3  1  0  0  0  0
  2  1  2  0  0  0  0
  3  4  2  0  0  0  0
  4  5  1  0  0  0  0
  5  8  1  0  0  0  0
  6  5  2  0  0  0  0
  7  3  1  0  0  0  0
  9  1  1  0  0  0  0
  9 12  1  0  0  0  0
 10  9  1  0  0  0  0
 11  9  1  0  0  0  0
 12 13  1  0  0  0  0
 12 14  1  0  0  0  0
 15 12  1  0  0  0  0
 15 16  2  0  0  0  0
 16 20  1  0  0  0  0
 17 16  1  0  0  0  0
 18 19  2  0  0  0  0
 18 17  1  0  0  0  0
 19 15  1  0  0  0  0
 21 18  1  0  0  0  0
 22 23  2  0  0  0  0
 23 21  1  0  0  0  0
 23 24  1  0  0  0  0
 24 25  1  0  0  0  0
 26 23  1  0  0  0  0
 27 26  1  0  0  0  0
 28  2  1  0  0  0  0
 30 31  1  0  0  0  0
 30 29  1  0  0  0  0
 31 28  1  0  0  0  0
 32 31  2  0  0  0  0
 33 40  1  0  0  0  0
 33 32  1  0  0  0  0
 34 33  2  0  0  0  0
 35 34  1  0  0  0  0
 36 37  2  0  0  0  0
 36 34  1  0  0  0  0
 37 39  1  0  0  0  0
 38 37  1  0  0  0  0
 39 40  2  0  0  0  0
 40 30  1  0  0  0  0
M  END
>  <minimizedAffinity>
-5.42089796

>  <minimizedRMSD>
3.00738716

$$$$
