
 OpenBabel03242516413D

 35 37  0  0  0  0  0  0  0  0999 V2000
   49.2490   32.4690   42.0060 O   0  0  0  0  0  0  0  0  0  0  0  0
   49.3280   33.7780   42.4300 C   0  0  0  0  0  0  0  0  0  0  0  0
   49.4340   33.7950   43.5530 H   0  0  0  0  0  0  0  0  0  0  0  0
   50.2700   34.2460   42.0230 H   0  0  0  0  0  0  0  0  0  0  0  0
   48.1190   34.5540   42.0160 C   0  0  0  0  0  0  0  0  0  0  0  0
   47.7320   34.2000   41.0350 H   0  0  0  0  0  0  0  0  0  0  0  0
   48.4080   35.6270   41.9480 H   0  0  0  0  0  0  0  0  0  0  0  0
   44.9340   35.1050   43.9580 C   0  0  0  0  0  0  0  0  0  0  0  0
   45.9330   35.2000   42.9380 C   0  0  0  0  0  0  0  0  0  0  0  0
   47.0930   34.4470   43.0790 C   0  0  0  0  0  0  0  0  0  0  0  0
   47.2210   33.6720   44.1590 N   0  0  0  0  0  0  0  0  0  0  0  0
   46.2680   33.5940   45.1130 C   0  0  0  0  0  0  0  0  0  0  0  0
   45.1320   34.2980   45.0240 N   0  0  0  0  0  0  0  0  0  0  0  0
   43.7500   35.8520   43.8460 N   0  0  0  0  0  0  0  0  0  0  0  0
   45.7150   35.8600   42.1120 H   0  0  0  0  0  0  0  0  0  0  0  0
   46.4400   32.9440   45.9630 H   0  0  0  0  0  0  0  0  0  0  0  0
   43.2590   36.1250   44.7260 H   0  0  0  0  0  0  0  0  0  0  0  0
   43.3010   36.1680   42.9570 H   0  0  0  0  0  0  0  0  0  0  0  0
   51.0970   30.6250   42.1820 O   0  0  0  0  0  0  0  0  0  0  0  0
   50.7360   31.8810   41.4490 P   0  0  2  0  0  0  0  0  0  0  0  0
   51.8660   33.1170   41.6930 O   0  0  0  0  0  0  0  0  0  0  0  0
   51.9550   33.7130   40.8940 H   0  0  0  0  0  0  0  0  0  0  0  0
   50.6630   31.6460   39.7710 O   0  0  0  0  0  0  0  0  0  0  0  0
   49.7090   33.9640   38.4210 H   0  0  0  0  0  0  0  0  0  0  0  0
   49.0880   33.1310   38.4450 N   0  0  0  0  0  0  0  0  0  0  0  0
   49.5220   32.0270   39.0780 C   0  0  0  0  0  0  0  0  0  0  0  0
   48.5710   31.0600   38.9970 N   0  0  0  0  0  0  0  0  0  0  0  0
   47.5090   31.5400   38.3040 C   0  0  0  0  0  0  0  0  0  0  0  0
   46.2680   31.1300   37.8680 C   0  0  0  0  0  0  0  0  0  0  0  0
   45.9930   30.1100   38.1300 H   0  0  0  0  0  0  0  0  0  0  0  0
   45.4740   31.9470   37.1730 N   0  0  0  0  0  0  0  0  0  0  0  0
   45.8260   33.2070   36.8560 C   0  0  0  0  0  0  0  0  0  0  0  0
   45.1750   33.8590   36.2930 H   0  0  0  0  0  0  0  0  0  0  0  0
   47.0450   33.6350   37.2730 N   0  0  0  0  0  0  0  0  0  0  0  0
   47.8690   32.8360   37.9750 C   0  0  0  0  0  0  0  0  0  0  0  0
  1  2  1  0  0  0  0
  2  3  1  0  0  0  0
  4  2  1  0  0  0  0
  5  2  1  0  0  0  0
  5 10  1  0  0  0  0
  6  5  1  0  0  0  0
  7  5  1  0  0  0  0
  8 13  1  0  0  0  0
  9 10  1  0  0  0  0
  9  8  2  0  0  0  0
 10 11  2  0  0  0  0
 11 12  1  0  0  0  0
 12 16  1  0  0  0  0
 13 12  2  0  0  0  0
 14  8  1  0  0  0  0
 14 17  1  0  0  0  0
 15  9  1  0  0  0  0
 18 14  1  0  0  0  0
 20 21  1  0  0  0  0
 20  1  1  0  0  0  0
 20 19  2  1  0  0  0
 22 21  1  0  0  0  0
 23 20  1  0  0  0  0
 24 25  1  0  0  0  0
 25 26  1  0  0  0  0
 26 23  1  0  0  0  0
 27 26  2  0  0  0  0
 28 27  1  0  0  0  0
 29 30  1  0  0  0  0
 29 28  2  0  0  0  0
 31 29  1  0  0  0  0
 32 31  2  0  0  0  0
 32 34  1  0  0  0  0
 33 32  1  0  0  0  0
 34 35  2  0  0  0  0
 35 28  1  0  0  0  0
 35 25  1  0  0  0  0
M  END
>  <minimizedAffinity>
-5.06967926

>  <minimizedRMSD>
1.43480921

$$$$
