
 OpenBabel03242521493D

 23 25  0  0  0  0  0  0  0  0999 V2000
   44.5250   35.7480   44.8050 C   0  0  0  0  0  0  0  0  0  0  0  0
   44.6700   35.7680   43.4050 C   0  0  0  0  0  0  0  0  0  0  0  0
   45.3720   34.7150   42.7940 C   0  0  0  0  0  0  0  0  0  0  0  0
   45.8610   33.7530   43.6060 N   0  0  0  0  0  0  0  0  0  0  0  0
   45.7090   33.7570   44.9400 C   0  0  0  0  0  0  0  0  0  0  0  0
   45.0450   34.7520   45.5270 N   0  0  0  0  0  0  0  0  0  0  0  0
   43.9930   36.5440   45.2890 H   0  0  0  0  0  0  0  0  0  0  0  0
   44.2550   36.5730   42.7820 H   0  0  0  0  0  0  0  0  0  0  0  0
   46.3270   32.6180   45.5460 N   0  0  0  0  0  0  0  0  0  0  0  0
   47.1690   31.7410   44.9690 C   0  0  0  0  0  0  0  0  0  0  0  0
   47.4680   31.8340   43.9300 H   0  0  0  0  0  0  0  0  0  0  0  0
   47.5480   30.7960   45.8490 N   0  0  0  0  0  0  0  0  0  0  0  0
   46.9340   31.0770   47.0110 C   0  0  0  0  0  0  0  0  0  0  0  0
   47.0210   30.3830   48.2010 C   0  0  0  0  0  0  0  0  0  0  0  0
   47.6370   29.4980   48.2870 H   0  0  0  0  0  0  0  0  0  0  0  0
   46.2860   30.9010   49.2180 N   0  0  0  0  0  0  0  0  0  0  0  0
   45.5300   32.0140   49.0590 C   0  0  0  0  0  0  0  0  0  0  0  0
   44.9830   32.3270   49.9630 H   0  0  0  0  0  0  0  0  0  0  0  0
   45.4490   32.6910   47.8870 N   0  0  0  0  0  0  0  0  0  0  0  0
   46.1580   32.2220   46.8420 C   0  0  0  0  0  0  0  0  0  0  0  0
   45.5290   34.7140   41.4010 N   0  0  0  0  0  0  0  0  0  0  0  0
   46.3500   34.9860   40.7820 H   0  0  0  0  0  0  0  0  0  0  0  0
   44.6220   34.3710   41.0300 H   0  0  0  0  0  0  0  0  0  0  0  0
  1  7  1  0  0  0  0
  1  6  1  0  0  0  0
  2  1  2  0  0  0  0
  3  2  1  0  0  0  0
  3  4  2  0  0  0  0
  4  5  1  0  0  0  0
  5  6  2  0  0  0  0
  5  9  1  0  0  0  0
  8  2  1  0  0  0  0
  9 20  1  0  0  0  0
 10  9  1  0  0  0  0
 10 12  2  0  0  0  0
 11 10  1  0  0  0  0
 12 13  1  0  0  0  0
 13 14  1  0  0  0  0
 14 15  1  0  0  0  0
 14 16  2  0  0  0  0
 17 16  1  0  0  0  0
 17 18  1  0  0  0  0
 19 17  2  0  0  0  0
 20 13  2  0  0  0  0
 20 19  1  0  0  0  0
 21  3  1  0  0  0  0
 22 21  1  0  0  0  0
 23 21  1  0  0  0  0
M  END
>  <minimizedAffinity>
-5.20929146

>  <minimizedRMSD>
1.19850433

$$$$
