
 OpenBabel03242514293D

 41 45  0  0  0  0  0  0  0  0999 V2000
   48.9850   33.3150   37.6610 Cl  0  0  0  0  0  0  0  0  0  0  0  0
   47.2410   33.1150   37.6470 C   0  0  0  0  0  0  0  0  0  0  0  0
   46.5320   33.3990   38.7670 C   0  0  0  0  0  0  0  0  0  0  0  0
   45.1830   33.0980   38.6850 C   0  0  0  0  0  0  0  0  0  0  0  0
   44.5450   32.5600   37.5920 C   0  0  0  0  0  0  0  0  0  0  0  0
   45.3030   32.2910   36.4670 C   0  0  0  0  0  0  0  0  0  0  0  0
   46.6620   32.5760   36.5070 C   0  0  0  0  0  0  0  0  0  0  0  0
   44.6390   33.3370   39.6190 H   0  0  0  0  0  0  0  0  0  0  0  0
   43.5030   32.4110   37.7480 H   0  0  0  0  0  0  0  0  0  0  0  0
   44.7630   31.8730   35.6310 H   0  0  0  0  0  0  0  0  0  0  0  0
   47.4080   32.2860   35.3380 N   0  0  0  0  0  0  0  0  0  0  0  0
   48.5700   32.7850   34.8970 C   0  0  0  0  0  0  0  0  0  0  0  0
   49.1540   33.5380   35.4040 H   0  0  0  0  0  0  0  0  0  0  0  0
   48.9480   32.2410   33.7250 N   0  0  0  0  0  0  0  0  0  0  0  0
   47.9870   31.3440   33.3870 C   0  0  0  0  0  0  0  0  0  0  0  0
   47.9190   30.5320   32.2760 C   0  0  0  0  0  0  0  0  0  0  0  0
   48.7120   30.5660   31.5290 H   0  0  0  0  0  0  0  0  0  0  0  0
   46.8360   29.7170   32.1780 N   0  0  0  0  0  0  0  0  0  0  0  0
   45.9030   29.7440   33.1550 C   0  0  0  0  0  0  0  0  0  0  0  0
   45.0890   29.0550   32.9710 H   0  0  0  0  0  0  0  0  0  0  0  0
   46.0000   30.5500   34.2300 N   0  0  0  0  0  0  0  0  0  0  0  0
   47.0450   31.3840   34.3930 C   0  0  0  0  0  0  0  0  0  0  0  0
   48.8270   35.3540   40.9650 C   0  0  0  0  0  0  0  0  0  0  0  0
   48.2280   34.8480   39.8020 C   0  0  0  0  0  0  0  0  0  0  0  0
   47.1470   33.9850   39.9260 C   0  0  0  0  0  0  0  0  0  0  0  0
   46.7270   33.6890   41.1760 N   0  0  0  0  0  0  0  0  0  0  0  0
   47.2980   34.1800   42.2860 C   0  0  0  0  0  0  0  0  0  0  0  0
   48.3550   35.0140   42.1860 N   0  0  0  0  0  0  0  0  0  0  0  0
   49.6730   36.0260   41.0250 H   0  0  0  0  0  0  0  0  0  0  0  0
   48.7290   35.2850   39.0000 H   0  0  0  0  0  0  0  0  0  0  0  0
   45.0530   35.9990   43.2830 Cl  0  0  0  0  0  0  0  0  0  0  0  0
   45.7430   34.6510   44.1600 C   0  0  0  0  0  0  0  0  0  0  0  0
   46.7670   33.8870   43.6020 C   0  0  0  0  0  0  0  0  0  0  0  0
   47.2190   32.8640   44.3650 C   0  0  0  0  0  0  0  0  0  0  0  0
   46.7280   32.5600   45.6270 C   0  0  0  0  0  0  0  0  0  0  0  0
   45.7230   33.3280   46.1510 C   0  0  0  0  0  0  0  0  0  0  0  0
   45.1940   32.8370   47.7480 Cl  0  0  0  0  0  0  0  0  0  0  0  0
   45.2300   34.3690   45.4240 C   0  0  0  0  0  0  0  0  0  0  0  0
   48.0160   32.2600   43.9450 H   0  0  0  0  0  0  0  0  0  0  0  0
   47.1900   31.7020   46.1320 H   0  0  0  0  0  0  0  0  0  0  0  0
   44.4440   34.9420   45.8770 H   0  0  0  0  0  0  0  0  0  0  0  0
  2  1  1  0  0  0  0
  2  3  1  0  0  0  0
  3 25  1  0  0  0  0
  4  3  2  0  0  0  0
  4  8  1  0  0  0  0
  5  9  1  0  0  0  0
  5  4  1  0  0  0  0
  6  7  1  0  0  0  0
  6  5  2  0  0  0  0
  7  2  2  0  0  0  0
 10  6  1  0  0  0  0
 11  7  1  0  0  0  0
 12 11  1  0  0  0  0
 12 13  1  0  0  0  0
 14 12  2  0  0  0  0
 15 14  1  0  0  0  0
 15 22  1  0  0  0  0
 16 15  2  0  0  0  0
 17 16  1  0  0  0  0
 18 16  1  0  0  0  0
 18 19  2  0  0  0  0
 19 21  1  0  0  0  0
 20 19  1  0  0  0  0
 21 22  2  0  0  0  0
 22 11  1  0  0  0  0
 23 29  1  0  0  0  0
 23 28  1  0  0  0  0
 24 25  1  0  0  0  0
 24 23  2  0  0  0  0
 25 26  2  0  0  0  0
 26 27  1  0  0  0  0
 27 33  1  0  0  0  0
 28 27  2  0  0  0  0
 30 24  1  0  0  0  0
 31 32  1  0  0  0  0
 32 38  1  0  0  0  0
 33 32  2  0  0  0  0
 33 34  1  0  0  0  0
 34 35  2  0  0  0  0
 35 40  1  0  0  0  0
 35 36  1  0  0  0  0
 36 37  1  0  0  0  0
 38 41  1  0  0  0  0
 38 36  2  0  0  0  0
 39 34  1  0  0  0  0
M  END
>  <minimizedAffinity>
-7.19384527

>  <minimizedRMSD>
0.698943436

$$$$
