
 OpenBabel03252509003D

 48 51  0  0  1  0  0  0  0  0999 V2000
   46.9880   34.3300   43.0900 N   0  0  0  0  0  0  0  0  0  0  0  0
   46.5060   35.5800   42.6170 C   0  0  0  0  0  0  0  0  0  0  0  0
   45.0300   35.8250   42.8540 C   0  0  0  0  0  0  0  0  0  0  0  0
   44.4950   35.2230   44.1220 C   0  0  0  0  0  0  0  0  0  0  0  0
   45.5810   34.5500   44.9280 C   0  0  0  0  0  0  0  0  0  0  0  0
   46.2130   33.5290   43.9150 C   0  0  2  0  0  0  0  0  0  0  0  0
   47.0410   36.3710   43.2100 H   0  0  0  0  0  0  0  0  0  0  0  0
   46.7110   35.8040   41.5700 H   0  0  0  0  0  0  0  0  0  0  0  0
   44.4870   35.3400   42.0120 H   0  0  0  0  0  0  0  0  0  0  0  0
   44.8560   36.9140   42.7650 H   0  0  0  0  0  0  0  0  0  0  0  0
   43.6580   34.5340   43.9880 H   0  0  0  0  0  0  0  0  0  0  0  0
   44.1080   36.0720   44.7530 H   0  0  0  0  0  0  0  0  0  0  0  0
   46.3490   35.2750   45.2430 H   0  0  0  0  0  0  0  0  0  0  0  0
   45.1120   33.9780   45.7430 H   0  0  0  0  0  0  0  0  0  0  0  0
   45.3510   32.9940   43.4730 H   0  0  0  0  0  0  0  0  0  0  0  0
   47.9510   33.7040   42.2280 C   0  0  0  0  0  0  0  0  0  0  0  0
   48.5830   34.4800   41.7760 H   0  0  0  0  0  0  0  0  0  0  0  0
   48.6140   33.0540   42.8230 H   0  0  0  0  0  0  0  0  0  0  0  0
   47.2140   32.8740   41.2130 C   0  0  0  0  0  0  0  0  0  0  0  0
   46.1680   33.2290   41.0990 H   0  0  0  0  0  0  0  0  0  0  0  0
   47.1750   31.8020   41.4570 H   0  0  0  0  0  0  0  0  0  0  0  0
   49.2450   32.2100   38.1170 C   0  0  0  0  0  0  0  0  0  0  0  0
   48.6320   32.0480   39.3740 C   0  0  0  0  0  0  0  0  0  0  0  0
   47.8570   33.0590   39.8830 C   0  0  0  0  0  0  0  0  0  0  0  0
   47.7210   34.1700   39.1430 N   0  0  0  0  0  0  0  0  0  0  0  0
   48.3070   34.3240   37.9460 C   0  0  0  0  0  0  0  0  0  0  0  0
   49.0750   33.3430   37.4210 N   0  0  0  0  0  0  0  0  0  0  0  0
   49.8510   31.3920   37.7430 H   0  0  0  0  0  0  0  0  0  0  0  0
   48.8010   31.1150   39.8950 H   0  0  0  0  0  0  0  0  0  0  0  0
   48.0840   35.2840   37.4950 H   0  0  0  0  0  0  0  0  0  0  0  0
   46.9960   32.7490   44.7580 O   0  0  0  0  0  0  0  0  0  0  0  0
   45.2620   30.8740   44.0190 O   0  0  0  0  0  0  0  0  0  0  0  0
   46.3170   31.2390   45.0620 P   0  0  2  0  0  0  0  0  0  0  0  0
   45.4490   31.3960   46.5290 O   0  0  0  0  0  0  0  0  0  0  0  0
   46.1270   31.6180   47.2310 H   0  0  0  0  0  0  0  0  0  0  0  0
   47.4560   30.0510   45.2760 O   0  0  0  0  0  0  0  0  0  0  0  0
   48.2400   31.2010   42.9160 H   0  0  0  0  0  0  0  0  0  0  0  0
   48.8720   30.5750   43.4710 N   0  0  0  0  0  0  0  0  0  0  0  0
   48.6760   29.9160   44.6490 C   0  0  0  0  0  0  0  0  0  0  0  0
   49.8100   29.2300   44.9530 N   0  0  0  0  0  0  0  0  0  0  0  0
   50.7390   29.4430   43.9790 C   0  0  0  0  0  0  0  0  0  0  0  0
   52.0320   28.9810   43.8200 C   0  0  0  0  0  0  0  0  0  0  0  0
   52.4000   28.3280   44.6010 H   0  0  0  0  0  0  0  0  0  0  0  0
   52.6970   29.3860   42.7220 N   0  0  0  0  0  0  0  0  0  0  0  0
   52.0970   30.2040   41.8390 C   0  0  0  0  0  0  0  0  0  0  0  0
   52.6350   30.5300   40.9520 H   0  0  0  0  0  0  0  0  0  0  0  0
   50.8280   30.6670   41.9790 N   0  0  0  0  0  0  0  0  0  0  0  0
   50.1230   30.2810   43.0770 C   0  0  0  0  0  0  0  0  0  0  0  0
  1  6  1  0  0  0  0
  2  3  1  0  0  0  0
  2  1  1  0  0  0  0
  2  7  1  0  0  0  0
  3  4  1  0  0  0  0
  4 12  1  0  0  0  0
  4  5  1  0  0  0  0
  5 13  1  0  0  0  0
  5 14  1  0  0  0  0
  6 15  1  6  0  0  0
  6 31  1  0  0  0  0
  6  5  1  0  0  0  0
  8  2  1  0  0  0  0
  9  3  1  0  0  0  0
 10  3  1  0  0  0  0
 11  4  1  0  0  0  0
 16 18  1  0  0  0  0
 16  1  1  0  0  0  0
 17 16  1  0  0  0  0
 19 21  1  0  0  0  0
 19 16  1  0  0  0  0
 20 19  1  0  0  0  0
 22 23  1  0  0  0  0
 23 24  2  0  0  0  0
 23 29  1  0  0  0  0
 24 19  1  0  0  0  0
 25 24  1  0  0  0  0
 26 25  2  0  0  0  0
 27 26  1  0  0  0  0
 27 22  2  0  0  0  0
 28 22  1  0  0  0  0
 30 26  1  0  0  0  0
 31 33  1  0  0  0  0
 33 32  2  6  0  0  0
 33 36  1  0  0  0  0
 33 34  1  0  0  0  0
 34 35  1  0  0  0  0
 37 38  1  0  0  0  0
 38 39  1  0  0  0  0
 39 40  2  0  0  0  0
 39 36  1  0  0  0  0
 41 40  1  0  0  0  0
 42 41  1  0  0  0  0
 42 43  1  0  0  0  0
 44 42  2  0  0  0  0
 45 47  2  0  0  0  0
 45 44  1  0  0  0  0
 46 45  1  0  0  0  0
 47 48  1  0  0  0  0
 48 38  1  0  0  0  0
 48 41  2  0  0  0  0
M  END
>  <minimizedAffinity>
-4.18105698

>  <minimizedRMSD>
1.04285026

$$$$
