
 OpenBabel03252508293D

 42 46  0  0  1  0  0  0  0  0999 V2000
   42.7000   33.0220   40.1760 N   0  0  0  0  0  0  0  0  0  0  0  0
   42.4750   33.9990   41.2470 C   0  0  2  0  0  0  0  0  0  0  0  0
   41.6920   35.1770   40.7880 C   0  0  0  0  0  0  0  0  0  0  0  0
   41.0870   34.9700   39.4850 N   0  0  0  0  0  0  0  0  0  0  0  0
   41.9770   34.5110   38.4830 C   0  0  0  0  0  0  0  0  0  0  0  0
   43.2010   33.8360   39.0450 C   0  0  2  0  0  0  0  0  0  0  0  0
   41.7500   32.6430   39.9130 H   0  0  0  0  0  0  0  0  0  0  0  0
   41.9720   33.5010   42.0900 H   0  0  0  0  0  0  0  0  0  0  0  0
   42.2590   36.1070   40.6020 H   0  0  0  0  0  0  0  0  0  0  0  0
   40.8220   35.4090   41.4700 H   0  0  0  0  0  0  0  0  0  0  0  0
   40.6470   35.8610   39.1820 H   0  0  0  0  0  0  0  0  0  0  0  0
   42.2420   35.2620   37.7330 H   0  0  0  0  0  0  0  0  0  0  0  0
   41.4310   33.7080   37.9060 H   0  0  0  0  0  0  0  0  0  0  0  0
   43.8280   34.6560   39.4650 H   0  0  0  0  0  0  0  0  0  0  0  0
   43.9220   33.0540   38.1000 N   0  0  0  0  0  0  0  0  0  0  0  0
   45.2030   33.3200   37.7090 C   0  0  0  0  0  0  0  0  0  0  0  0
   45.8050   34.1630   38.0830 H   0  0  0  0  0  0  0  0  0  0  0  0
   45.6380   32.4330   36.8170 N   0  0  0  0  0  0  0  0  0  0  0  0
   44.6150   31.5700   36.6240 C   0  0  0  0  0  0  0  0  0  0  0  0
   44.5140   30.4600   35.8080 C   0  0  0  0  0  0  0  0  0  0  0  0
   45.3740   30.2030   35.2060 H   0  0  0  0  0  0  0  0  0  0  0  0
   43.3550   29.7740   35.8160 N   0  0  0  0  0  0  0  0  0  0  0  0
   42.3060   30.1540   36.6010 C   0  0  0  0  0  0  0  0  0  0  0  0
   41.4290   29.5270   36.5230 H   0  0  0  0  0  0  0  0  0  0  0  0
   42.4200   31.2530   37.4020 N   0  0  0  0  0  0  0  0  0  0  0  0
   43.5500   31.9720   37.4330 C   0  0  0  0  0  0  0  0  0  0  0  0
   45.9250   34.6400   42.0990 C   0  0  0  0  0  0  0  0  0  0  0  0
   45.2330   35.7190   42.6520 C   0  0  0  0  0  0  0  0  0  0  0  0
   43.8790   35.5910   42.4020 C   0  0  0  0  0  0  0  0  0  0  0  0
   43.7760   34.4580   41.7120 N   0  0  0  0  0  0  0  0  0  0  0  0
   44.9670   33.9020   41.5350 N   0  0  0  0  0  0  0  0  0  0  0  0
   45.8220   36.4910   43.1880 H   0  0  0  0  0  0  0  0  0  0  0  0
   43.3420   36.4260   42.8390 H   0  0  0  0  0  0  0  0  0  0  0  0
   49.6560   35.0890   42.1110 C   0  0  0  0  0  0  0  0  0  0  0  0
   48.2790   35.4500   41.9980 C   0  0  0  0  0  0  0  0  0  0  0  0
   47.3720   34.4340   42.1790 C   0  0  0  0  0  0  0  0  0  0  0  0
   47.8040   33.1670   42.4500 N   0  0  0  0  0  0  0  0  0  0  0  0
   49.1230   32.8720   42.5490 C   0  0  0  0  0  0  0  0  0  0  0  0
   50.0200   33.8420   42.3770 N   0  0  0  0  0  0  0  0  0  0  0  0
   50.3160   35.9580   41.9530 H   0  0  0  0  0  0  0  0  0  0  0  0
   47.9390   36.4530   41.7830 H   0  0  0  0  0  0  0  0  0  0  0  0
   49.3980   31.8590   42.7640 H   0  0  0  0  0  0  0  0  0  0  0  0
  1  2  1  0  0  0  0
  2 30  1  0  0  0  0
  2  8  1  1  0  0  0
  3  2  1  0  0  0  0
  3 10  1  0  0  0  0
  4  3  1  0  0  0  0
  5  6  1  0  0  0  0
  5  4  1  0  0  0  0
  6 14  1  1  0  0  0
  6  1  1  0  0  0  0
  7  1  1  0  0  0  0
  9  3  1  0  0  0  0
 11  4  1  0  0  0  0
 12  5  1  0  0  0  0
 13  5  1  0  0  0  0
 15  6  1  0  0  0  0
 16 17  1  0  0  0  0
 16 15  1  0  0  0  0
 18 16  2  0  0  0  0
 19 18  1  0  0  0  0
 19 26  1  0  0  0  0
 20 22  1  0  0  0  0
 20 19  2  0  0  0  0
 21 20  1  0  0  0  0
 22 23  2  0  0  0  0
 23 25  1  0  0  0  0
 24 23  1  0  0  0  0
 25 26  2  0  0  0  0
 26 15  1  0  0  0  0
 27 36  1  0  0  0  0
 27 28  1  0  0  0  0
 28 32  1  0  0  0  0
 29 28  2  0  0  0  0
 29 33  1  0  0  0  0
 30 29  1  0  0  0  0
 31 30  1  0  0  0  0
 31 27  2  0  0  0  0
 34 39  1  0  0  0  0
 35 34  2  0  0  0  0
 35 36  1  0  0  0  0
 36 37  2  0  0  0  0
 37 38  1  0  0  0  0
 38 42  1  0  0  0  0
 39 38  2  0  0  0  0
 40 34  1  0  0  0  0
 41 35  1  0  0  0  0
M  END
>  <minimizedAffinity>
-5.16388083

>  <minimizedRMSD>
1.84805489

$$$$
