
 OpenBabel03252506343D

 36 39  0  0  1  0  0  0  0  0999 V2000
   44.4690   35.8920   45.0490 C   0  0  0  0  0  0  0  0  0  0  0  0
   45.0480   35.8490   43.7740 C   0  0  0  0  0  0  0  0  0  0  0  0
   45.8780   34.8200   43.4640 C   0  0  0  0  0  0  0  0  0  0  0  0
   46.0880   33.8920   44.4340 N   0  0  0  0  0  0  0  0  0  0  0  0
   45.5410   33.9350   45.6370 C   0  0  0  0  0  0  0  0  0  0  0  0
   44.7130   34.9380   45.9820 N   0  0  0  0  0  0  0  0  0  0  0  0
   45.8500   32.9070   46.5550 N   0  0  0  0  0  0  0  0  0  0  0  0
   45.1180   32.6440   47.8020 C   0  0  0  0  0  0  0  0  0  0  0  0
   46.2450   32.2590   48.7380 C   0  0  0  0  0  0  0  0  0  0  0  0
   47.4710   32.0420   47.9040 C   0  0  0  0  0  0  0  0  0  0  0  0
   46.8980   31.9120   46.5140 C   0  0  1  0  0  0  0  0  0  0  0  0
   43.7940   36.7230   45.3050 H   0  0  0  0  0  0  0  0  0  0  0  0
   46.3060   34.8100   42.4890 H   0  0  0  0  0  0  0  0  0  0  0  0
   44.3740   31.8410   47.6820 H   0  0  0  0  0  0  0  0  0  0  0  0
   44.5880   33.5650   48.1010 H   0  0  0  0  0  0  0  0  0  0  0  0
   45.9590   31.3240   49.2870 H   0  0  0  0  0  0  0  0  0  0  0  0
   46.4000   33.1120   49.4320 H   0  0  0  0  0  0  0  0  0  0  0  0
   48.1980   32.8760   47.9790 H   0  0  0  0  0  0  0  0  0  0  0  0
   47.9840   31.0800   48.1340 H   0  0  0  0  0  0  0  0  0  0  0  0
   47.6160   32.1870   45.7260 H   0  0  0  0  0  0  0  0  0  0  0  0
   44.7050   36.9240   42.8910 N   0  0  0  0  0  0  0  0  0  0  0  0
   44.3990   37.8470   43.2670 H   0  0  0  0  0  0  0  0  0  0  0  0
   44.7620   36.7820   41.8500 H   0  0  0  0  0  0  0  0  0  0  0  0
   46.2530   30.2410   46.3000 S   0  0  0  0  0  0  0  0  0  0  0  0
   44.5300   31.9350   44.5180 H   0  0  0  0  0  0  0  0  0  0  0  0
   44.7560   30.9850   44.1610 N   0  0  0  0  0  0  0  0  0  0  0  0
   45.4880   30.0030   44.7120 C   0  0  0  0  0  0  0  0  0  0  0  0
   45.5130   28.9200   43.8830 N   0  0  0  0  0  0  0  0  0  0  0  0
   44.7670   29.2490   42.7830 C   0  0  0  0  0  0  0  0  0  0  0  0
   44.3840   28.6690   41.6070 C   0  0  0  0  0  0  0  0  0  0  0  0
   44.7440   27.6450   41.4410 H   0  0  0  0  0  0  0  0  0  0  0  0
   43.6180   29.2900   40.7020 N   0  0  0  0  0  0  0  0  0  0  0  0
   43.1750   30.5370   40.8980 C   0  0  0  0  0  0  0  0  0  0  0  0
   42.5670   30.9280   40.0950 H   0  0  0  0  0  0  0  0  0  0  0  0
   43.5190   31.1550   42.0310 N   0  0  0  0  0  0  0  0  0  0  0  0
   44.2990   30.5460   42.9720 C   0  0  0  0  0  0  0  0  0  0  0  0
  1 12  1  0  0  0  0
  1  6  1  0  0  0  0
  2  1  2  0  0  0  0
  3  2  1  0  0  0  0
  3  4  2  0  0  0  0
  4  5  1  0  0  0  0
  5  6  2  0  0  0  0
  5  7  1  0  0  0  0
  7  8  1  0  0  0  0
  8 15  1  0  0  0  0
  8  9  1  0  0  0  0
  9 16  1  0  0  0  0
  9 17  1  0  0  0  0
 10 18  1  0  0  0  0
 10 19  1  0  0  0  0
 10  9  1  0  0  0  0
 11 20  1  6  0  0  0
 11  7  1  0  0  0  0
 11 10  1  0  0  0  0
 13  3  1  0  0  0  0
 14  8  1  0  0  0  0
 21 22  1  0  0  0  0
 21  2  1  0  0  0  0
 23 21  1  0  0  0  0
 24 11  1  0  0  0  0
 26 25  1  0  0  0  0
 26 27  1  0  0  0  0
 27 24  1  0  0  0  0
 28 27  2  0  0  0  0
 29 36  1  0  0  0  0
 29 28  1  0  0  0  0
 30 29  2  0  0  0  0
 31 30  1  0  0  0  0
 32 33  2  0  0  0  0
 32 30  1  0  0  0  0
 33 35  1  0  0  0  0
 34 33  1  0  0  0  0
 35 36  2  0  0  0  0
 36 26  1  0  0  0  0
M  END
>  <minimizedAffinity>
-5.28663731

>  <minimizedRMSD>
0.32681641

$$$$
