
 OpenBabel03252500143D

 41 45  0  0  0  0  0  0  0  0999 V2000
   45.4920   32.3880   40.4330 Cl  0  0  0  0  0  0  0  0  0  0  0  0
   46.7980   33.4890   40.0980 C   0  0  0  0  0  0  0  0  0  0  0  0
   47.3720   34.2170   41.1110 C   0  0  0  0  0  0  0  0  0  0  0  0
   48.4180   35.1060   40.8780 C   0  0  0  0  0  0  0  0  0  0  0  0
   48.8420   35.2120   39.5710 C   0  0  0  0  0  0  0  0  0  0  0  0
   48.2660   34.4800   38.5490 C   0  0  0  0  0  0  0  0  0  0  0  0
   47.2660   33.6350   38.7990 C   0  0  0  0  0  0  0  0  0  0  0  0
   48.8500   35.6660   41.6970 H   0  0  0  0  0  0  0  0  0  0  0  0
   49.6510   35.8960   39.3810 H   0  0  0  0  0  0  0  0  0  0  0  0
   48.6190   34.5820   37.5320 H   0  0  0  0  0  0  0  0  0  0  0  0
   46.8540   32.8750   44.5050 C   0  0  0  0  0  0  0  0  0  0  0  0
   45.9290   33.7900   45.0530 C   0  0  0  0  0  0  0  0  0  0  0  0
   45.4990   34.8480   44.2540 C   0  0  0  0  0  0  0  0  0  0  0  0
   45.9910   34.9500   42.9820 N   0  0  0  0  0  0  0  0  0  0  0  0
   46.8750   34.0610   42.4830 C   0  0  0  0  0  0  0  0  0  0  0  0
   47.2960   33.0340   43.2500 N   0  0  0  0  0  0  0  0  0  0  0  0
   47.1620   32.0690   45.1560 H   0  0  0  0  0  0  0  0  0  0  0  0
   45.5460   33.7040   46.0540 H   0  0  0  0  0  0  0  0  0  0  0  0
   44.5230   35.8780   44.7260 C   0  0  0  0  0  0  0  0  0  0  0  0
   44.9920   37.1340   44.4940 F   0  0  0  0  0  0  0  0  0  0  0  0
   43.3400   35.7000   44.0370 F   0  0  0  0  0  0  0  0  0  0  0  0
   44.3210   35.6400   46.0630 F   0  0  0  0  0  0  0  0  0  0  0  0
   46.6330   32.8470   37.7530 C   0  0  0  0  0  0  0  0  0  0  0  0
   45.5740   33.2940   36.9500 C   0  0  0  0  0  0  0  0  0  0  0  0
   45.2140   32.3000   36.0660 C   0  0  0  0  0  0  0  0  0  0  0  0
   46.0850   31.2800   36.3800 C   0  0  0  0  0  0  0  0  0  0  0  0
   46.8960   31.6260   37.3610 O   0  0  0  0  0  0  0  0  0  0  0  0
   45.0740   34.2760   36.9810 H   0  0  0  0  0  0  0  0  0  0  0  0
   44.4560   32.2650   35.3010 H   0  0  0  0  0  0  0  0  0  0  0  0
   46.1420   29.9970   35.7540 N   0  0  0  0  0  0  0  0  0  0  0  0
   47.0970   29.6010   34.8910 C   0  0  0  0  0  0  0  0  0  0  0  0
   47.9620   30.1260   34.5130 H   0  0  0  0  0  0  0  0  0  0  0  0
   46.8260   28.3210   34.5020 N   0  0  0  0  0  0  0  0  0  0  0  0
   45.7000   27.9060   35.1160 C   0  0  0  0  0  0  0  0  0  0  0  0
   44.8980   26.7830   35.1760 C   0  0  0  0  0  0  0  0  0  0  0  0
   45.2190   25.9390   34.5620 H   0  0  0  0  0  0  0  0  0  0  0  0
   43.7890   26.7430   35.9490 N   0  0  0  0  0  0  0  0  0  0  0  0
   43.4160   27.7960   36.6960 C   0  0  0  0  0  0  0  0  0  0  0  0
   42.5430   27.8130   37.3280 H   0  0  0  0  0  0  0  0  0  0  0  0
   44.1760   28.9160   36.6640 N   0  0  0  0  0  0  0  0  0  0  0  0
   45.2820   28.9710   35.9000 C   0  0  0  0  0  0  0  0  0  0  0  0
  2  1  1  0  0  0  0
  2  3  1  0  0  0  0
  3 15  1  0  0  0  0
  4  3  2  0  0  0  0
  4  8  1  0  0  0  0
  5  4  1  0  0  0  0
  6  7  1  0  0  0  0
  6  5  2  0  0  0  0
  7  2  2  0  0  0  0
  9  5  1  0  0  0  0
 10  6  1  0  0  0  0
 11 12  1  0  0  0  0
 11 17  1  0  0  0  0
 12 18  1  0  0  0  0
 13 19  1  0  0  0  0
 13 12  2  0  0  0  0
 14 13  1  0  0  0  0
 15 14  2  0  0  0  0
 15 16  1  0  0  0  0
 16 11  2  0  0  0  0
 19 22  1  0  0  0  0
 20 19  1  0  0  0  0
 21 19  1  0  0  0  0
 23  7  1  0  0  0  0
 24 28  1  0  0  0  0
 24 23  2  0  0  0  0
 25 26  2  0  0  0  0
 25 24  1  0  0  0  0
 26 27  1  0  0  0  0
 27 23  1  0  0  0  0
 29 25  1  0  0  0  0
 30 41  1  0  0  0  0
 30 26  1  0  0  0  0
 31 30  1  0  0  0  0
 32 31  1  0  0  0  0
 33 31  2  0  0  0  0
 33 34  1  0  0  0  0
 34 35  2  0  0  0  0
 34 41  1  0  0  0  0
 35 37  1  0  0  0  0
 36 35  1  0  0  0  0
 37 38  2  0  0  0  0
 38 39  1  0  0  0  0
 40 38  1  0  0  0  0
 41 40  2  0  0  0  0
M  END
>  <minimizedAffinity>
-5.82941675

>  <minimizedRMSD>
0.542969346

$$$$
