
 OpenBabel03252507373D

 41 46  0  0  0  0  0  0  0  0999 V2000
   48.2560   31.5030   41.3800 C   0  0  0  0  0  0  0  0  0  0  0  0
   47.8450   31.9890   42.6530 C   0  0  0  0  0  0  0  0  0  0  0  0
   47.5050   31.0300   43.5990 C   0  0  0  0  0  0  0  0  0  0  0  0
   47.5750   29.7340   43.2840 N   0  0  0  0  0  0  0  0  0  0  0  0
   47.9710   29.3030   42.0620 C   0  0  0  0  0  0  0  0  0  0  0  0
   48.3020   30.1890   41.1360 N   0  0  0  0  0  0  0  0  0  0  0  0
   47.7840   33.0180   42.9210 H   0  0  0  0  0  0  0  0  0  0  0  0
   47.9750   28.2240   41.9590 H   0  0  0  0  0  0  0  0  0  0  0  0
   46.8100   32.7460   45.1820 C   0  0  0  0  0  0  0  0  0  0  0  0
   47.0630   31.3900   44.9540 C   0  0  0  0  0  0  0  0  0  0  0  0
   46.8900   30.5130   45.9810 C   0  0  0  0  0  0  0  0  0  0  0  0
   46.4750   30.9030   47.2360 C   0  0  0  0  0  0  0  0  0  0  0  0
   46.2410   30.2270   48.3790 N   0  0  0  0  0  0  0  0  0  0  0  0
   45.8410   31.1420   49.3290 C   0  0  0  0  0  0  0  0  0  0  0  0
   45.8380   32.3510   48.7560 N   0  0  0  0  0  0  0  0  0  0  0  0
   46.2220   32.2290   47.4770 C   0  0  0  0  0  0  0  0  0  0  0  0
   46.3880   33.1460   46.4550 C   0  0  0  0  0  0  0  0  0  0  0  0
   46.9160   33.5260   44.4350 H   0  0  0  0  0  0  0  0  0  0  0  0
   47.0930   29.4540   45.7810 H   0  0  0  0  0  0  0  0  0  0  0  0
   46.3710   29.1930   48.4270 H   0  0  0  0  0  0  0  0  0  0  0  0
   45.6200   30.7300   50.3040 H   0  0  0  0  0  0  0  0  0  0  0  0
   46.1790   34.1830   46.6840 H   0  0  0  0  0  0  0  0  0  0  0  0
   48.6000   32.4500   40.4250 O   0  0  0  0  0  0  0  0  0  0  0  0
   48.4910   32.1790   39.0880 C   0  0  0  0  0  0  0  0  0  0  0  0
   49.7670   32.0050   38.6870 C   0  0  0  0  0  0  0  0  0  0  0  0
   49.5840   31.6380   36.8390 S   0  0  0  0  0  0  0  0  0  0  0  0
   47.6990   31.8080   37.0150 C   0  0  0  0  0  0  0  0  0  0  0  0
   47.6400   32.0350   38.0940 N   0  0  0  0  0  0  0  0  0  0  0  0
   50.9240   31.9580   38.8640 H   0  0  0  0  0  0  0  0  0  0  0  0
   46.6060   31.6860   36.0420 N   0  0  0  0  0  0  0  0  0  0  0  0
   46.7050   32.1050   34.7850 C   0  0  0  0  0  0  0  0  0  0  0  0
   47.5550   32.5780   34.2950 H   0  0  0  0  0  0  0  0  0  0  0  0
   45.5130   31.8140   34.2420 N   0  0  0  0  0  0  0  0  0  0  0  0
   44.7220   31.2350   35.1550 C   0  0  0  0  0  0  0  0  0  0  0  0
   43.4210   30.7500   35.1160 C   0  0  0  0  0  0  0  0  0  0  0  0
   42.8310   30.7960   34.2180 H   0  0  0  0  0  0  0  0  0  0  0  0
   42.8430   30.2000   36.1970 N   0  0  0  0  0  0  0  0  0  0  0  0
   43.5480   30.1180   37.3560 C   0  0  0  0  0  0  0  0  0  0  0  0
   43.0840   29.6730   38.2380 H   0  0  0  0  0  0  0  0  0  0  0  0
   44.8260   30.5910   37.4060 N   0  0  0  0  0  0  0  0  0  0  0  0
   45.4270   31.1450   36.3370 C   0  0  0  0  0  0  0  0  0  0  0  0
  1  2  1  0  0  0  0
  2  7  1  0  0  0  0
  2  3  2  0  0  0  0
  3 10  1  0  0  0  0
  4  3  1  0  0  0  0
  5  4  2  0  0  0  0
  6  1  2  0  0  0  0
  6  5  1  0  0  0  0
  8  5  1  0  0  0  0
  9 17  1  0  0  0  0
 10  9  2  0  0  0  0
 10 11  1  0  0  0  0
 11 12  2  0  0  0  0
 12 16  1  0  0  0  0
 12 13  1  0  0  0  0
 13 20  1  0  0  0  0
 13 14  1  0  0  0  0
 14 21  1  0  0  0  0
 15 14  2  0  0  0  0
 16 15  1  0  0  0  0
 17 22  1  0  0  0  0
 17 16  2  0  0  0  0
 18  9  1  0  0  0  0
 19 11  1  0  0  0  0
 23  1  1  0  0  0  0
 24 23  1  0  0  0  0
 25 29  1  0  0  0  0
 25 24  2  0  0  0  0
 26 27  1  0  0  0  0
 26 25  1  0  0  0  0
 27 28  2  0  0  0  0
 28 24  1  0  0  0  0
 30 41  1  0  0  0  0
 30 27  1  0  0  0  0
 31 30  1  0  0  0  0
 32 31  1  0  0  0  0
 33 31  2  0  0  0  0
 33 34  1  0  0  0  0
 34 41  1  0  0  0  0
 35 34  2  0  0  0  0
 35 37  1  0  0  0  0
 36 35  1  0  0  0  0
 37 38  2  0  0  0  0
 38 40  1  0  0  0  0
 38 39  1  0  0  0  0
 41 40  2  0  0  0  0
M  END
>  <minimizedAffinity>
-5.02226686

>  <minimizedRMSD>
6.29078388

$$$$
