
 OpenBabel03252509083D

 44 48  0  0  0  0  0  0  0  0999 V2000
   45.6500   31.4830   39.7580 C   0  0  0  0  0  0  0  0  0  0  0  0
   45.7130   32.8260   39.5340 C   0  0  0  0  0  0  0  0  0  0  0  0
   46.6110   33.3260   38.6070 C   0  0  0  0  0  0  0  0  0  0  0  0
   47.4370   32.4750   37.9130 C   0  0  0  0  0  0  0  0  0  0  0  0
   47.4000   31.0970   38.1140 C   0  0  0  0  0  0  0  0  0  0  0  0
   46.4860   30.6110   39.0540 C   0  0  0  0  0  0  0  0  0  0  0  0
   46.6960   34.3860   38.3980 H   0  0  0  0  0  0  0  0  0  0  0  0
   48.1690   32.7510   37.1750 H   0  0  0  0  0  0  0  0  0  0  0  0
   48.0100   30.3800   37.6100 H   0  0  0  0  0  0  0  0  0  0  0  0
   46.4460   29.5320   39.2230 H   0  0  0  0  0  0  0  0  0  0  0  0
   45.1120   36.3050   43.3020 Cl  0  0  0  0  0  0  0  0  0  0  0  0
   44.5820   35.4010   41.9050 C   0  0  0  0  0  0  0  0  0  0  0  0
   45.3960   34.4970   41.3020 C   0  0  0  0  0  0  0  0  0  0  0  0
   44.8780   33.8190   40.2130 C   0  0  0  0  0  0  0  0  0  0  0  0
   43.6020   34.0460   39.7550 C   0  0  0  0  0  0  0  0  0  0  0  0
   42.8050   34.9520   40.3710 C   0  0  0  0  0  0  0  0  0  0  0  0
   43.3050   35.6340   41.4560 C   0  0  0  0  0  0  0  0  0  0  0  0
   43.2640   33.4740   38.8900 H   0  0  0  0  0  0  0  0  0  0  0  0
   41.8240   35.0830   39.9660 H   0  0  0  0  0  0  0  0  0  0  0  0
   42.6460   36.3530   41.9280 H   0  0  0  0  0  0  0  0  0  0  0  0
   49.1090   34.7840   41.9020 C   0  0  0  0  0  0  0  0  0  0  0  0
   47.8270   34.9960   41.3880 C   0  0  0  0  0  0  0  0  0  0  0  0
   46.7310   34.2860   41.8280 C   0  0  0  0  0  0  0  0  0  0  0  0
   47.0030   33.3690   42.7970 N   0  0  0  0  0  0  0  0  0  0  0  0
   48.2220   33.1600   43.2940 C   0  0  0  0  0  0  0  0  0  0  0  0
   49.2650   33.8650   42.8460 N   0  0  0  0  0  0  0  0  0  0  0  0
   49.8810   35.4150   41.4620 H   0  0  0  0  0  0  0  0  0  0  0  0
   47.6540   35.7330   40.6200 H   0  0  0  0  0  0  0  0  0  0  0  0
   48.3140   32.4040   44.0610 H   0  0  0  0  0  0  0  0  0  0  0  0
   44.5430   30.8370   40.8460 S   0  0  0  0  0  0  0  0  0  0  0  0
   44.6450   29.3330   40.9590 O   0  0  0  0  0  0  0  0  0  0  0  0
   45.0730   31.3220   42.2470 O   0  0  0  0  0  0  0  0  0  0  0  0
   42.3710   30.5520   38.8530 H   0  0  0  0  0  0  0  0  0  0  0  0
   42.1090   30.9920   39.7950 N   0  0  0  0  0  0  0  0  0  0  0  0
   42.8790   31.2460   40.9130 C   0  0  0  0  0  0  0  0  0  0  0  0
   41.9200   31.7910   41.6820 N   0  0  0  0  0  0  0  0  0  0  0  0
   40.7340   31.8620   41.1200 C   0  0  0  0  0  0  0  0  0  0  0  0
   39.5690   32.3770   41.6860 C   0  0  0  0  0  0  0  0  0  0  0  0
   39.5450   32.7820   42.6890 H   0  0  0  0  0  0  0  0  0  0  0  0
   38.4480   32.3500   40.9170 N   0  0  0  0  0  0  0  0  0  0  0  0
   38.5240   31.8360   39.6740 C   0  0  0  0  0  0  0  0  0  0  0  0
   37.6340   31.8190   39.0760 H   0  0  0  0  0  0  0  0  0  0  0  0
   39.6830   31.3390   39.1490 N   0  0  0  0  0  0  0  0  0  0  0  0
   40.8180   31.3390   39.8600 C   0  0  0  0  0  0  0  0  0  0  0  0
  1 30  1  0  0  0  0
  2  1  1  0  0  0  0
  2 14  1  0  0  0  0
  3  2  2  0  0  0  0
  4  5  2  0  0  0  0
  4  3  1  0  0  0  0
  5  6  1  0  0  0  0
  6 10  1  0  0  0  0
  6  1  2  0  0  0  0
  7  3  1  0  0  0  0
  8  4  1  0  0  0  0
  9  5  1  0  0  0  0
 12 11  1  0  0  0  0
 13 23  1  0  0  0  0
 13 12  2  0  0  0  0
 14 13  1  0  0  0  0
 15 14  2  0  0  0  0
 15 16  1  0  0  0  0
 16 17  2  0  0  0  0
 17 12  1  0  0  0  0
 17 20  1  0  0  0  0
 18 15  1  0  0  0  0
 19 16  1  0  0  0  0
 21 26  1  0  0  0  0
 22 23  1  0  0  0  0
 22 21  2  0  0  0  0
 23 24  2  0  0  0  0
 24 25  1  0  0  0  0
 25 29  1  0  0  0  0
 26 25  2  0  0  0  0
 27 21  1  0  0  0  0
 28 22  1  0  0  0  0
 30 35  1  0  0  0  0
 30 31  2  0  0  0  0
 30 32  2  0  0  0  0
 33 34  1  0  0  0  0
 34 44  1  0  0  0  0
 34 35  1  0  0  0  0
 35 36  2  0  0  0  0
 37 36  1  0  0  0  0
 37 38  1  0  0  0  0
 38 39  1  0  0  0  0
 40 38  2  0  0  0  0
 41 40  1  0  0  0  0
 42 41  1  0  0  0  0
 43 41  2  0  0  0  0
 43 44  1  0  0  0  0
 44 37  2  0  0  0  0
M  END
>  <minimizedAffinity>
-5.73658705

>  <minimizedRMSD>
2.78579569

$$$$
