
 OpenBabel03252506353D

 36 39  0  0  1  0  0  0  0  0999 V2000
   44.4680   35.7360   44.9890 C   0  0  0  0  0  0  0  0  0  0  0  0
   45.1290   35.7330   43.7540 C   0  0  0  0  0  0  0  0  0  0  0  0
   46.0490   34.7660   43.5030 C   0  0  0  0  0  0  0  0  0  0  0  0
   46.2630   33.8580   44.4920 N   0  0  0  0  0  0  0  0  0  0  0  0
   45.6390   33.8640   45.6570 C   0  0  0  0  0  0  0  0  0  0  0  0
   44.7210   34.8050   45.9420 N   0  0  0  0  0  0  0  0  0  0  0  0
   45.9620   32.8630   46.6000 N   0  0  0  0  0  0  0  0  0  0  0  0
   45.1730   32.5510   47.8000 C   0  0  0  0  0  0  0  0  0  0  0  0
   46.2630   32.2490   48.8080 C   0  0  0  0  0  0  0  0  0  0  0  0
   47.5520   32.1200   48.0540 C   0  0  0  0  0  0  0  0  0  0  0  0
   47.0790   31.9460   46.6320 C   0  0  1  0  0  0  0  0  0  0  0  0
   43.7210   36.5170   45.1960 H   0  0  0  0  0  0  0  0  0  0  0  0
   46.5370   34.7850   42.5580 H   0  0  0  0  0  0  0  0  0  0  0  0
   44.4980   31.6950   47.6380 H   0  0  0  0  0  0  0  0  0  0  0  0
   44.5600   33.4310   48.0590 H   0  0  0  0  0  0  0  0  0  0  0  0
   46.0110   31.2970   49.3440 H   0  0  0  0  0  0  0  0  0  0  0  0
   46.3120   33.1130   49.5040 H   0  0  0  0  0  0  0  0  0  0  0  0
   48.2110   33.0040   48.1700 H   0  0  0  0  0  0  0  0  0  0  0  0
   48.1170   31.1980   48.3220 H   0  0  0  0  0  0  0  0  0  0  0  0
   47.8240   32.2710   45.8890 H   0  0  0  0  0  0  0  0  0  0  0  0
   44.7670   36.7790   42.8430 N   0  0  0  0  0  0  0  0  0  0  0  0
   44.3720   37.6780   43.1930 H   0  0  0  0  0  0  0  0  0  0  0  0
   44.9000   36.6390   41.8090 H   0  0  0  0  0  0  0  0  0  0  0  0
   46.5720   30.2320   46.3880 S   0  0  0  0  0  0  0  0  0  0  0  0
   43.9350   30.8910   45.1130 H   0  0  0  0  0  0  0  0  0  0  0  0
   44.6170   30.3840   44.5110 N   0  0  0  0  0  0  0  0  0  0  0  0
   45.8590   29.9530   44.7830 C   0  0  0  0  0  0  0  0  0  0  0  0
   46.3850   29.3330   43.6880 N   0  0  0  0  0  0  0  0  0  0  0  0
   45.4320   29.3840   42.7080 C   0  0  0  0  0  0  0  0  0  0  0  0
   45.2840   28.9810   41.4120 C   0  0  0  0  0  0  0  0  0  0  0  0
   46.1450   28.4550   40.9760 H   0  0  0  0  0  0  0  0  0  0  0  0
   44.1720   29.1990   40.7000 N   0  0  0  0  0  0  0  0  0  0  0  0
   43.1200   29.8380   41.2230 C   0  0  0  0  0  0  0  0  0  0  0  0
   42.2850   29.9520   40.5480 H   0  0  0  0  0  0  0  0  0  0  0  0
   43.2060   30.2560   42.4890 N   0  0  0  0  0  0  0  0  0  0  0  0
   44.3290   30.0470   43.2400 C   0  0  0  0  0  0  0  0  0  0  0  0
  1 12  1  0  0  0  0
  1  6  1  0  0  0  0
  2  1  2  0  0  0  0
  3  2  1  0  0  0  0
  3  4  2  0  0  0  0
  4  5  1  0  0  0  0
  5  6  2  0  0  0  0
  5  7  1  0  0  0  0
  7 11  1  0  0  0  0
  7  8  1  0  0  0  0
  8 15  1  0  0  0  0
  8  9  1  0  0  0  0
  9 16  1  0  0  0  0
  9 17  1  0  0  0  0
 10 18  1  0  0  0  0
 10 19  1  0  0  0  0
 10  9  1  0  0  0  0
 11 20  1  6  0  0  0
 11 10  1  0  0  0  0
 13  3  1  0  0  0  0
 14  8  1  0  0  0  0
 21 22  1  0  0  0  0
 21  2  1  0  0  0  0
 23 21  1  0  0  0  0
 24 11  1  0  0  0  0
 26 27  1  0  0  0  0
 26 25  1  0  0  0  0
 27 24  1  0  0  0  0
 28 27  2  0  0  0  0
 29 36  1  0  0  0  0
 29 28  1  0  0  0  0
 30 29  2  0  0  0  0
 31 30  1  0  0  0  0
 32 33  2  0  0  0  0
 32 30  1  0  0  0  0
 33 35  1  0  0  0  0
 34 33  1  0  0  0  0
 35 36  2  0  0  0  0
 36 26  1  0  0  0  0
M  END
>  <minimizedAffinity>
-5.20792389

>  <minimizedRMSD>
0.162457123

$$$$
