
 OpenBabel03242511283D

 37 41  0  0  0  0  0  0  0  0999 V2000
   44.5900   33.3900   41.2180 Cl  0  0  0  0  0  0  0  0  0  0  0  0
   46.1720   34.0670   41.0400 C   0  0  0  0  0  0  0  0  0  0  0  0
   46.7650   34.7110   42.0960 C   0  0  0  0  0  0  0  0  0  0  0  0
   48.0400   35.2720   41.9990 C   0  0  0  0  0  0  0  0  0  0  0  0
   48.6610   35.1360   40.7760 C   0  0  0  0  0  0  0  0  0  0  0  0
   48.0760   34.5010   39.7330 C   0  0  0  0  0  0  0  0  0  0  0  0
   46.8220   33.9540   39.8460 C   0  0  0  0  0  0  0  0  0  0  0  0
   48.4560   35.7680   42.8660 H   0  0  0  0  0  0  0  0  0  0  0  0
   49.6580   35.5740   40.6980 H   0  0  0  0  0  0  0  0  0  0  0  0
   48.6550   34.4510   38.8150 H   0  0  0  0  0  0  0  0  0  0  0  0
   46.3210   33.2980   38.6310 C   0  0  0  0  0  0  0  0  0  0  0  0
   47.1570   33.2250   37.5210 C   0  0  0  0  0  0  0  0  0  0  0  0
   46.1260   32.3360   36.2590 S   0  0  0  0  0  0  0  0  0  0  0  0
   44.7100   32.2250   37.5140 C   0  0  0  0  0  0  0  0  0  0  0  0
   45.1690   32.7400   38.3940 N   0  0  0  0  0  0  0  0  0  0  0  0
   48.1830   33.5940   37.3880 H   0  0  0  0  0  0  0  0  0  0  0  0
   43.3500   31.6330   37.4100 N   0  0  0  0  0  0  0  0  0  0  0  0
   42.9790   30.4670   36.8750 C   0  0  0  0  0  0  0  0  0  0  0  0
   43.7530   29.8330   36.4440 H   0  0  0  0  0  0  0  0  0  0  0  0
   41.6510   30.3830   37.0230 N   0  0  0  0  0  0  0  0  0  0  0  0
   41.2430   31.5130   37.6520 C   0  0  0  0  0  0  0  0  0  0  0  0
   39.9710   31.9420   38.0500 C   0  0  0  0  0  0  0  0  0  0  0  0
   39.1100   31.2970   37.8480 H   0  0  0  0  0  0  0  0  0  0  0  0
   39.7930   33.1370   38.6780 N   0  0  0  0  0  0  0  0  0  0  0  0
   40.8790   33.9150   38.9150 C   0  0  0  0  0  0  0  0  0  0  0  0
   40.7060   34.8570   39.4150 H   0  0  0  0  0  0  0  0  0  0  0  0
   42.1190   33.5030   38.5300 N   0  0  0  0  0  0  0  0  0  0  0  0
   42.3210   32.3320   37.9110 C   0  0  0  0  0  0  0  0  0  0  0  0
   45.5500   33.9910   45.5040 C   0  0  0  0  0  0  0  0  0  0  0  0
   44.6870   35.0490   45.7430 C   0  0  0  0  0  0  0  0  0  0  0  0
   44.5160   36.0000   44.7600 C   0  0  0  0  0  0  0  0  0  0  0  0
   45.2030   35.8570   43.5990 N   0  0  0  0  0  0  0  0  0  0  0  0
   46.0450   34.8190   43.3740 C   0  0  0  0  0  0  0  0  0  0  0  0
   46.2080   33.9000   44.3290 N   0  0  0  0  0  0  0  0  0  0  0  0
   45.6420   33.2830   46.3080 H   0  0  0  0  0  0  0  0  0  0  0  0
   44.1050   35.2420   46.6300 H   0  0  0  0  0  0  0  0  0  0  0  0
   43.8930   36.8870   44.7640 H   0  0  0  0  0  0  0  0  0  0  0  0
  2  1  1  0  0  0  0
  2  3  1  0  0  0  0
  3 33  1  0  0  0  0
  4  3  2  0  0  0  0
  4  8  1  0  0  0  0
  5  4  1  0  0  0  0
  6  7  1  0  0  0  0
  6  5  2  0  0  0  0
  7  2  2  0  0  0  0
  9  5  1  0  0  0  0
 10  6  1  0  0  0  0
 11  7  1  0  0  0  0
 12 11  2  0  0  0  0
 13 14  1  0  0  0  0
 13 12  1  0  0  0  0
 14 15  2  0  0  0  0
 15 11  1  0  0  0  0
 16 12  1  0  0  0  0
 17 14  1  0  0  0  0
 17 28  1  0  0  0  0
 18 20  2  0  0  0  0
 18 17  1  0  0  0  0
 19 18  1  0  0  0  0
 20 21  1  0  0  0  0
 21 28  2  0  0  0  0
 21 22  1  0  0  0  0
 22 24  2  0  0  0  0
 23 22  1  0  0  0  0
 24 25  1  0  0  0  0
 25 26  1  0  0  0  0
 27 25  2  0  0  0  0
 28 27  1  0  0  0  0
 29 30  1  0  0  0  0
 29 35  1  0  0  0  0
 30 36  1  0  0  0  0
 31 37  1  0  0  0  0
 31 30  2  0  0  0  0
 32 31  1  0  0  0  0
 33 32  2  0  0  0  0
 33 34  1  0  0  0  0
 34 29  2  0  0  0  0
M  END
>  <minimizedAffinity>
-6.89411259

>  <minimizedRMSD>
2.2712996

$$$$
