
 OpenBabel03252506353D

 36 39  0  0  1  0  0  0  0  0999 V2000
   44.4920   35.6500   45.0870 C   0  0  0  0  0  0  0  0  0  0  0  0
   45.1280   35.6260   43.8390 C   0  0  0  0  0  0  0  0  0  0  0  0
   46.0300   34.6440   43.5790 C   0  0  0  0  0  0  0  0  0  0  0  0
   46.2510   33.7420   44.5710 N   0  0  0  0  0  0  0  0  0  0  0  0
   45.6500   33.7670   45.7490 C   0  0  0  0  0  0  0  0  0  0  0  0
   44.7510   34.7230   46.0430 N   0  0  0  0  0  0  0  0  0  0  0  0
   45.9780   32.7700   46.6940 N   0  0  0  0  0  0  0  0  0  0  0  0
   45.2090   32.4790   47.9120 C   0  0  0  0  0  0  0  0  0  0  0  0
   46.3140   32.1720   48.9010 C   0  0  0  0  0  0  0  0  0  0  0  0
   47.5860   32.0180   48.1240 C   0  0  0  0  0  0  0  0  0  0  0  0
   47.0830   31.8380   46.7130 C   0  0  1  0  0  0  0  0  0  0  0  0
   43.7590   36.4420   45.3010 H   0  0  0  0  0  0  0  0  0  0  0  0
   46.5000   34.6490   42.6240 H   0  0  0  0  0  0  0  0  0  0  0  0
   44.5190   31.6320   47.7710 H   0  0  0  0  0  0  0  0  0  0  0  0
   44.6130   33.3700   48.1740 H   0  0  0  0  0  0  0  0  0  0  0  0
   46.0590   31.2280   49.4510 H   0  0  0  0  0  0  0  0  0  0  0  0
   46.3880   33.0410   49.5880 H   0  0  0  0  0  0  0  0  0  0  0  0
   48.2590   32.8950   48.2190 H   0  0  0  0  0  0  0  0  0  0  0  0
   48.1440   31.0920   48.3890 H   0  0  0  0  0  0  0  0  0  0  0  0
   47.8180   32.1470   45.9520 H   0  0  0  0  0  0  0  0  0  0  0  0
   44.7620   36.6690   42.9260 N   0  0  0  0  0  0  0  0  0  0  0  0
   44.3870   37.5760   43.2750 H   0  0  0  0  0  0  0  0  0  0  0  0
   44.8730   36.5180   41.8910 H   0  0  0  0  0  0  0  0  0  0  0  0
   46.5480   30.1300   46.4940 S   0  0  0  0  0  0  0  0  0  0  0  0
   46.2840   31.4210   43.7960 H   0  0  0  0  0  0  0  0  0  0  0  0
   45.5830   30.6840   44.0180 N   0  0  0  0  0  0  0  0  0  0  0  0
   45.4340   29.9330   45.1220 C   0  0  0  0  0  0  0  0  0  0  0  0
   44.3710   29.0920   44.9710 N   0  0  0  0  0  0  0  0  0  0  0  0
   43.8490   29.3340   43.7300 C   0  0  0  0  0  0  0  0  0  0  0  0
   42.8240   28.8740   42.9530 C   0  0  0  0  0  0  0  0  0  0  0  0
   42.2050   28.0850   43.3990 H   0  0  0  0  0  0  0  0  0  0  0  0
   42.5710   29.3420   41.7240 N   0  0  0  0  0  0  0  0  0  0  0  0
   43.3200   30.3040   41.1750 C   0  0  0  0  0  0  0  0  0  0  0  0
   43.0160   30.5950   40.1790 H   0  0  0  0  0  0  0  0  0  0  0  0
   44.3390   30.7940   41.8880 N   0  0  0  0  0  0  0  0  0  0  0  0
   44.6190   30.3350   43.1450 C   0  0  0  0  0  0  0  0  0  0  0  0
  1 12  1  0  0  0  0
  1  6  1  0  0  0  0
  2  1  2  0  0  0  0
  3  2  1  0  0  0  0
  3  4  2  0  0  0  0
  4  5  1  0  0  0  0
  5  6  2  0  0  0  0
  5  7  1  0  0  0  0
  7 11  1  0  0  0  0
  7  8  1  0  0  0  0
  8 15  1  0  0  0  0
  8  9  1  0  0  0  0
  9 16  1  0  0  0  0
  9 17  1  0  0  0  0
 10 18  1  0  0  0  0
 10 19  1  0  0  0  0
 10  9  1  0  0  0  0
 11 20  1  6  0  0  0
 11 10  1  0  0  0  0
 13  3  1  0  0  0  0
 14  8  1  0  0  0  0
 21 22  1  0  0  0  0
 21  2  1  0  0  0  0
 23 21  1  0  0  0  0
 24 11  1  0  0  0  0
 25 26  1  0  0  0  0
 26 27  1  0  0  0  0
 27 24  1  0  0  0  0
 28 27  2  0  0  0  0
 29 28  1  0  0  0  0
 30 31  1  0  0  0  0
 30 29  2  0  0  0  0
 32 30  1  0  0  0  0
 33 32  2  0  0  0  0
 33 35  1  0  0  0  0
 34 33  1  0  0  0  0
 35 36  2  0  0  0  0
 36 29  1  0  0  0  0
 36 26  1  0  0  0  0
M  END
>  <minimizedAffinity>
-5.2331419

>  <minimizedRMSD>
0.873132944

$$$$
