
 OpenBabel03252500093D

 34 37  0  0  0  0  0  0  0  0999 V2000
   45.1380   33.0860   38.7510 Cl  0  0  0  0  0  0  0  0  0  0  0  0
   45.8110   33.8760   40.1360 C   0  0  0  0  0  0  0  0  0  0  0  0
   45.0100   34.2280   41.2050 C   0  0  0  0  0  0  0  0  0  0  0  0
   45.5100   34.8610   42.3310 C   0  0  0  0  0  0  0  0  0  0  0  0
   46.8660   35.1290   42.3350 C   0  0  0  0  0  0  0  0  0  0  0  0
   47.6740   34.7840   41.2770 C   0  0  0  0  0  0  0  0  0  0  0  0
   47.1600   34.1680   40.1960 C   0  0  0  0  0  0  0  0  0  0  0  0
   44.9130   35.1430   43.1690 H   0  0  0  0  0  0  0  0  0  0  0  0
   47.3190   35.6180   43.1780 H   0  0  0  0  0  0  0  0  0  0  0  0
   48.7430   34.9770   41.2430 H   0  0  0  0  0  0  0  0  0  0  0  0
   47.9600   33.7850   39.0610 N   0  0  0  0  0  0  0  0  0  0  0  0
   48.2260   34.3690   37.8760 C   0  0  0  0  0  0  0  0  0  0  0  0
   47.7870   35.3430   37.6310 H   0  0  0  0  0  0  0  0  0  0  0  0
   49.0510   33.5550   37.1820 N   0  0  0  0  0  0  0  0  0  0  0  0
   49.2980   32.4620   37.9370 C   0  0  0  0  0  0  0  0  0  0  0  0
   50.0760   31.3530   37.6710 C   0  0  0  0  0  0  0  0  0  0  0  0
   50.6300   31.2240   36.7310 H   0  0  0  0  0  0  0  0  0  0  0  0
   50.1570   30.3800   38.6180 N   0  0  0  0  0  0  0  0  0  0  0  0
   49.4890   30.5030   39.7890 C   0  0  0  0  0  0  0  0  0  0  0  0
   49.4910   29.7860   40.5980 H   0  0  0  0  0  0  0  0  0  0  0  0
   48.7310   31.5880   40.0460 N   0  0  0  0  0  0  0  0  0  0  0  0
   48.6130   32.5900   39.1370 C   0  0  0  0  0  0  0  0  0  0  0  0
   41.7990   32.4330   41.4540 C   0  0  0  0  0  0  0  0  0  0  0  0
   40.8750   33.3960   41.0180 C   0  0  0  0  0  0  0  0  0  0  0  0
   41.3650   34.6440   40.6450 C   0  0  0  0  0  0  0  0  0  0  0  0
   42.7000   34.8860   40.7160 N   0  0  0  0  0  0  0  0  0  0  0  0
   43.5730   33.9180   41.1470 C   0  0  0  0  0  0  0  0  0  0  0  0
   43.1160   32.7110   41.5090 N   0  0  0  0  0  0  0  0  0  0  0  0
   41.4300   31.4590   41.7460 H   0  0  0  0  0  0  0  0  0  0  0  0
   39.8250   33.2300   40.9550 H   0  0  0  0  0  0  0  0  0  0  0  0
   40.4710   35.7600   40.1610 C   0  0  0  0  0  0  0  0  0  0  0  0
   40.4710   36.7990   41.0500 F   0  0  0  0  0  0  0  0  0  0  0  0
   40.9560   36.2080   38.9470 F   0  0  0  0  0  0  0  0  0  0  0  0
   39.2180   35.2220   39.9930 F   0  0  0  0  0  0  0  0  0  0  0  0
  1  2  1  0  0  0  0
  2  7  2  0  0  0  0
  2  3  1  0  0  0  0
  3  4  2  0  0  0  0
  4  5  1  0  0  0  0
  4  8  1  0  0  0  0
  5  9  1  0  0  0  0
  6  5  2  0  0  0  0
  7  6  1  0  0  0  0
 10  6  1  0  0  0  0
 11 22  1  0  0  0  0
 11  7  1  0  0  0  0
 12 11  1  0  0  0  0
 13 12  1  0  0  0  0
 14 12  2  0  0  0  0
 14 15  1  0  0  0  0
 15 22  1  0  0  0  0
 16 15  2  0  0  0  0
 16 18  1  0  0  0  0
 17 16  1  0  0  0  0
 18 19  2  0  0  0  0
 19 21  1  0  0  0  0
 19 20  1  0  0  0  0
 22 21  2  0  0  0  0
 23 28  1  0  0  0  0
 23 29  1  0  0  0  0
 24 23  2  0  0  0  0
 25 26  2  0  0  0  0
 25 24  1  0  0  0  0
 26 27  1  0  0  0  0
 27  3  1  0  0  0  0
 27 28  2  0  0  0  0
 30 24  1  0  0  0  0
 31 25  1  0  0  0  0
 31 32  1  0  0  0  0
 33 31  1  0  0  0  0
 34 31  1  0  0  0  0
M  END
>  <minimizedAffinity>
-6.41904402

>  <minimizedRMSD>
5.34163713

$$$$
