
 OpenBabel03252504483D

 30 32  0  0  0  0  0  0  0  0999 V2000
   36.6430   30.9960   38.9280 O   0  0  0  0  0  0  0  0  0  0  0  0
   37.1180   31.3100   40.3550 P   0  0  1  0  0  0  0  0  0  0  0  0
   35.7550   31.1900   41.3520 O   0  0  0  0  0  0  0  0  0  0  0  0
   35.6110   32.0080   41.8840 H   0  0  0  0  0  0  0  0  0  0  0  0
   38.3100   30.1880   40.7250 O   0  0  0  0  0  0  0  0  0  0  0  0
   38.8800   27.4010   42.9410 C   0  0  0  0  0  0  0  0  0  0  0  0
   37.5870   26.9270   43.1340 C   0  0  0  0  0  0  0  0  0  0  0  0
   36.5470   27.5970   42.4820 C   0  0  0  0  0  0  0  0  0  0  0  0
   36.8620   28.6590   41.7070 N   0  0  0  0  0  0  0  0  0  0  0  0
   38.1470   29.0850   41.5500 C   0  0  0  0  0  0  0  0  0  0  0  0
   39.1560   28.4460   42.1750 N   0  0  0  0  0  0  0  0  0  0  0  0
   37.3840   26.0730   43.7640 H   0  0  0  0  0  0  0  0  0  0  0  0
   35.5320   27.2690   42.6010 H   0  0  0  0  0  0  0  0  0  0  0  0
   39.9750   26.6730   43.6640 C   0  0  0  0  0  0  0  0  0  0  0  0
   40.9500   27.1020   43.3980 H   0  0  0  0  0  0  0  0  0  0  0  0
   39.8890   25.5850   43.5590 H   0  0  0  0  0  0  0  0  0  0  0  0
   39.8260   26.9040   44.7430 H   0  0  0  0  0  0  0  0  0  0  0  0
   37.7110   32.8900   40.4670 O   0  0  0  0  0  0  0  0  0  0  0  0
   39.8670   32.5740   42.3030 H   0  0  0  0  0  0  0  0  0  0  0  0
   40.0810   32.9310   41.3480 N   0  0  0  0  0  0  0  0  0  0  0  0
   39.0860   33.0920   40.4580 C   0  0  0  0  0  0  0  0  0  0  0  0
   39.6550   33.5660   39.3150 N   0  0  0  0  0  0  0  0  0  0  0  0
   40.9770   33.6960   39.4940 C   0  0  0  0  0  0  0  0  0  0  0  0
   42.0790   34.1070   38.7580 C   0  0  0  0  0  0  0  0  0  0  0  0
   41.8420   34.4230   37.7320 H   0  0  0  0  0  0  0  0  0  0  0  0
   43.3320   34.1180   39.2560 N   0  0  0  0  0  0  0  0  0  0  0  0
   43.5370   33.7100   40.5350 C   0  0  0  0  0  0  0  0  0  0  0  0
   44.5460   33.7260   40.9170 H   0  0  0  0  0  0  0  0  0  0  0  0
   42.5090   33.3000   41.2990 N   0  0  0  0  0  0  0  0  0  0  0  0
   41.2570   33.2890   40.8020 C   0  0  0  0  0  0  0  0  0  0  0  0
  2  1  2  6  0  0  0
  2 18  1  0  0  0  0
  2  5  1  0  0  0  0
  2  3  1  0  0  0  0
  3  4  1  0  0  0  0
  5 10  1  0  0  0  0
  6  7  1  0  0  0  0
  6 14  1  0  0  0  0
  7 12  1  0  0  0  0
  8 13  1  0  0  0  0
  8  7  2  0  0  0  0
  9  8  1  0  0  0  0
 10  9  2  0  0  0  0
 10 11  1  0  0  0  0
 11  6  2  0  0  0  0
 14 17  1  0  0  0  0
 15 14  1  0  0  0  0
 16 14  1  0  0  0  0
 20 19  1  0  0  0  0
 21 18  1  0  0  0  0
 21 20  1  0  0  0  0
 22 23  1  0  0  0  0
 22 21  2  0  0  0  0
 23 30  1  0  0  0  0
 24 26  1  0  0  0  0
 24 23  2  0  0  0  0
 25 24  1  0  0  0  0
 26 27  2  0  0  0  0
 27 28  1  0  0  0  0
 27 29  1  0  0  0  0
 30 29  2  0  0  0  0
 30 20  1  0  0  0  0
M  END
>  <minimizedAffinity>
-5.61486912

$$$$

 OpenBabel03252504483D

 30 32  0  0  0  0  0  0  0  0999 V2000
   35.7650   29.9600   38.5710 O   0  0  0  0  0  0  0  0  0  0  0  0
   37.0640   30.6820   38.9560 P   0  0  1  0  0  0  0  0  0  0  0  0
   36.6310   31.8990   40.0510 O   0  0  0  0  0  0  0  0  0  0  0  0
   36.9500   32.7860   39.7650 H   0  0  0  0  0  0  0  0  0  0  0  0
   38.0810   29.5250   39.6210 O   0  0  0  0  0  0  0  0  0  0  0  0
   37.3800   26.9780   42.0750 C   0  0  0  0  0  0  0  0  0  0  0  0
   37.4460   27.7030   43.2600 C   0  0  0  0  0  0  0  0  0  0  0  0
   37.7360   29.0680   43.1680 C   0  0  0  0  0  0  0  0  0  0  0  0
   37.9320   29.5960   41.9390 N   0  0  0  0  0  0  0  0  0  0  0  0
   37.8550   28.8410   40.8060 C   0  0  0  0  0  0  0  0  0  0  0  0
   37.5770   27.5240   40.8850 N   0  0  0  0  0  0  0  0  0  0  0  0
   37.2820   27.2370   44.2200 H   0  0  0  0  0  0  0  0  0  0  0  0
   37.7990   29.6700   44.0550 H   0  0  0  0  0  0  0  0  0  0  0  0
   37.0820   25.5120   42.2030 C   0  0  0  0  0  0  0  0  0  0  0  0
   37.0060   25.0570   41.2070 H   0  0  0  0  0  0  0  0  0  0  0  0
   36.2440   25.3170   42.8820 H   0  0  0  0  0  0  0  0  0  0  0  0
   37.9870   25.0640   42.6720 H   0  0  0  0  0  0  0  0  0  0  0  0
   37.7750   31.4190   37.6100 O   0  0  0  0  0  0  0  0  0  0  0  0
   40.0360   31.9210   35.9520 H   0  0  0  0  0  0  0  0  0  0  0  0
   40.0720   32.2380   36.9440 N   0  0  0  0  0  0  0  0  0  0  0  0
   39.0210   32.0160   37.7530 C   0  0  0  0  0  0  0  0  0  0  0  0
   39.3470   32.5310   38.9710 N   0  0  0  0  0  0  0  0  0  0  0  0
   40.5770   33.0620   38.9170 C   0  0  0  0  0  0  0  0  0  0  0  0
   41.4550   33.7120   39.7720 C   0  0  0  0  0  0  0  0  0  0  0  0
   41.0690   33.8510   40.7920 H   0  0  0  0  0  0  0  0  0  0  0  0
   42.6750   34.1380   39.3870 N   0  0  0  0  0  0  0  0  0  0  0  0
   43.0740   33.9270   38.1070 C   0  0  0  0  0  0  0  0  0  0  0  0
   44.0540   34.2740   37.8160 H   0  0  0  0  0  0  0  0  0  0  0  0
   42.2680   33.3020   37.2300 N   0  0  0  0  0  0  0  0  0  0  0  0
   41.0490   32.8750   37.6140 C   0  0  0  0  0  0  0  0  0  0  0  0
  2  1  2  6  0  0  0
  2  5  1  0  0  0  0
  2  3  1  0  0  0  0
  4  3  1  0  0  0  0
  5 10  1  0  0  0  0
  6 14  1  0  0  0  0
  6  7  1  0  0  0  0
  7 12  1  0  0  0  0
  8  7  2  0  0  0  0
  8 13  1  0  0  0  0
  9  8  1  0  0  0  0
 10 11  1  0  0  0  0
 10  9  2  0  0  0  0
 11  6  2  0  0  0  0
 14 17  1  0  0  0  0
 14 16  1  0  0  0  0
 15 14  1  0  0  0  0
 18 21  1  0  0  0  0
 18  2  1  0  0  0  0
 19 20  1  0  0  0  0
 20 30  1  0  0  0  0
 20 21  1  0  0  0  0
 21 22  2  0  0  0  0
 23 22  1  0  0  0  0
 23 24  1  0  0  0  0
 24 25  1  0  0  0  0
 26 24  2  0  0  0  0
 27 26  1  0  0  0  0
 28 27  1  0  0  0  0
 29 30  1  0  0  0  0
 29 27  2  0  0  0  0
 30 23  2  0  0  0  0
M  END
>  <minimizedAffinity>
-5.50087166

$$$$

 OpenBabel03252504483D

 30 32  0  0  0  0  0  0  0  0999 V2000
   36.6920   31.3740   38.6800 O   0  0  0  0  0  0  0  0  0  0  0  0
   37.1890   31.3740   40.1330 P   0  0  1  0  0  0  0  0  0  0  0  0
   35.8180   31.1900   41.1100 O   0  0  0  0  0  0  0  0  0  0  0  0
   35.7460   31.9040   41.7860 H   0  0  0  0  0  0  0  0  0  0  0  0
   38.2760   30.1020   40.2720 O   0  0  0  0  0  0  0  0  0  0  0  0
   37.4510   27.8520   42.9660 C   0  0  0  0  0  0  0  0  0  0  0  0
   38.7130   27.4690   43.4090 C   0  0  0  0  0  0  0  0  0  0  0  0
   39.8220   28.0100   42.7500 C   0  0  0  0  0  0  0  0  0  0  0  0
   39.6000   28.8680   41.7300 N   0  0  0  0  0  0  0  0  0  0  0  0
   38.3410   29.2130   41.3340 C   0  0  0  0  0  0  0  0  0  0  0  0
   37.2660   28.6960   41.9620 N   0  0  0  0  0  0  0  0  0  0  0  0
   38.8400   26.7790   44.2290 H   0  0  0  0  0  0  0  0  0  0  0  0
   40.8160   27.7440   43.0560 H   0  0  0  0  0  0  0  0  0  0  0  0
   36.2790   27.2450   43.6800 C   0  0  0  0  0  0  0  0  0  0  0  0
   35.3430   27.6570   43.2800 H   0  0  0  0  0  0  0  0  0  0  0  0
   36.3900   27.2870   44.7690 H   0  0  0  0  0  0  0  0  0  0  0  0
   36.2810   26.1690   43.3970 H   0  0  0  0  0  0  0  0  0  0  0  0
   37.9190   32.8470   40.5290 O   0  0  0  0  0  0  0  0  0  0  0  0
   39.8880   31.6480   42.2040 H   0  0  0  0  0  0  0  0  0  0  0  0
   40.2060   32.3130   41.4680 N   0  0  0  0  0  0  0  0  0  0  0  0
   39.3020   32.8960   40.6600 C   0  0  0  0  0  0  0  0  0  0  0  0
   39.9960   33.7030   39.8100 N   0  0  0  0  0  0  0  0  0  0  0  0
   41.3060   33.6200   40.0860 C   0  0  0  0  0  0  0  0  0  0  0  0
   42.4930   34.1610   39.6130 C   0  0  0  0  0  0  0  0  0  0  0  0
   42.3650   34.8610   38.7750 H   0  0  0  0  0  0  0  0  0  0  0  0
   43.6980   33.8570   40.1350 N   0  0  0  0  0  0  0  0  0  0  0  0
   43.7660   32.9820   41.1700 C   0  0  0  0  0  0  0  0  0  0  0  0
   44.7390   32.7500   41.5760 H   0  0  0  0  0  0  0  0  0  0  0  0
   42.6510   32.4230   41.6740 N   0  0  0  0  0  0  0  0  0  0  0  0
   41.4460   32.7270   41.1530 C   0  0  0  0  0  0  0  0  0  0  0  0
  2  1  2  6  0  0  0
  2  5  1  0  0  0  0
  2 18  1  0  0  0  0
  2  3  1  0  0  0  0
  3  4  1  0  0  0  0
  5 10  1  0  0  0  0
  6  7  1  0  0  0  0
  6 14  1  0  0  0  0
  7 12  1  0  0  0  0
  8 13  1  0  0  0  0
  8  7  2  0  0  0  0
  9  8  1  0  0  0  0
 10  9  2  0  0  0  0
 10 11  1  0  0  0  0
 11  6  2  0  0  0  0
 14 16  1  0  0  0  0
 15 14  1  0  0  0  0
 17 14  1  0  0  0  0
 18 21  1  0  0  0  0
 20 19  1  0  0  0  0
 21 20  1  0  0  0  0
 22 23  1  0  0  0  0
 22 21  2  0  0  0  0
 23 30  1  0  0  0  0
 24 23  2  0  0  0  0
 24 26  1  0  0  0  0
 25 24  1  0  0  0  0
 26 27  2  0  0  0  0
 27 28  1  0  0  0  0
 27 29  1  0  0  0  0
 30 20  1  0  0  0  0
 30 29  2  0  0  0  0
M  END
>  <minimizedAffinity>
-5.35760307

$$$$

 OpenBabel03252504483D

 30 32  0  0  0  0  0  0  0  0999 V2000
   34.0340   29.2840   39.8590 O   0  0  0  0  0  0  0  0  0  0  0  0
   35.4940   29.4870   40.2930 P   0  0  1  0  0  0  0  0  0  0  0  0
   35.5040   30.8170   41.3400 O   0  0  0  0  0  0  0  0  0  0  0  0
   36.1420   31.5110   41.0510 H   0  0  0  0  0  0  0  0  0  0  0  0
   35.9800   28.0600   41.0310 O   0  0  0  0  0  0  0  0  0  0  0  0
   38.8570   26.6470   42.6830 C   0  0  0  0  0  0  0  0  0  0  0  0
   39.4770   27.7840   43.1900 C   0  0  0  0  0  0  0  0  0  0  0  0
   38.8700   29.0190   42.9390 C   0  0  0  0  0  0  0  0  0  0  0  0
   37.7230   29.0300   42.2230 N   0  0  0  0  0  0  0  0  0  0  0  0
   37.1540   27.8850   41.7480 C   0  0  0  0  0  0  0  0  0  0  0  0
   37.7330   26.6910   41.9840 N   0  0  0  0  0  0  0  0  0  0  0  0
   40.3940   27.7250   43.7570 H   0  0  0  0  0  0  0  0  0  0  0  0
   39.3110   29.9250   43.3090 H   0  0  0  0  0  0  0  0  0  0  0  0
   39.5370   25.3370   42.9540 C   0  0  0  0  0  0  0  0  0  0  0  0
   38.9350   24.5120   42.5510 H   0  0  0  0  0  0  0  0  0  0  0  0
   39.8430   25.2370   44.0020 H   0  0  0  0  0  0  0  0  0  0  0  0
   40.4710   25.3540   42.3470 H   0  0  0  0  0  0  0  0  0  0  0  0
   36.4790   29.8550   38.9690 O   0  0  0  0  0  0  0  0  0  0  0  0
   39.3070   29.5830   38.7680 H   0  0  0  0  0  0  0  0  0  0  0  0
   38.9200   30.5050   39.0600 N   0  0  0  0  0  0  0  0  0  0  0  0
   37.5890   30.6660   39.1640 C   0  0  0  0  0  0  0  0  0  0  0  0
   37.3790   31.9530   39.5580 N   0  0  0  0  0  0  0  0  0  0  0  0
   38.5590   32.5770   39.6940 C   0  0  0  0  0  0  0  0  0  0  0  0
   39.0210   33.8360   40.0500 C   0  0  0  0  0  0  0  0  0  0  0  0
   38.2260   34.5530   40.2980 H   0  0  0  0  0  0  0  0  0  0  0  0
   40.3310   34.1520   40.0900 N   0  0  0  0  0  0  0  0  0  0  0  0
   41.2490   33.2050   39.7680 C   0  0  0  0  0  0  0  0  0  0  0  0
   42.2930   33.4760   39.8060 H   0  0  0  0  0  0  0  0  0  0  0  0
   40.8630   31.9660   39.4140 N   0  0  0  0  0  0  0  0  0  0  0  0
   39.5540   31.6480   39.3750 C   0  0  0  0  0  0  0  0  0  0  0  0
  2  1  2  6  0  0  0
  2  5  1  0  0  0  0
  2  3  1  0  0  0  0
  4  3  1  0  0  0  0
  5 10  1  0  0  0  0
  6 14  1  0  0  0  0
  6  7  1  0  0  0  0
  7 12  1  0  0  0  0
  8  7  2  0  0  0  0
  8 13  1  0  0  0  0
  9  8  1  0  0  0  0
 10 11  1  0  0  0  0
 10  9  2  0  0  0  0
 11  6  2  0  0  0  0
 14 16  1  0  0  0  0
 15 14  1  0  0  0  0
 17 14  1  0  0  0  0
 18 21  1  0  0  0  0
 18  2  1  0  0  0  0
 19 20  1  0  0  0  0
 20 21  1  0  0  0  0
 20 30  1  0  0  0  0
 21 22  2  0  0  0  0
 22 23  1  0  0  0  0
 23 24  1  0  0  0  0
 24 26  2  0  0  0  0
 24 25  1  0  0  0  0
 27 28  1  0  0  0  0
 27 26  1  0  0  0  0
 29 27  2  0  0  0  0
 30 29  1  0  0  0  0
 30 23  2  0  0  0  0
M  END
>  <minimizedAffinity>
-5.31272602

$$$$

 OpenBabel03252504483D

 30 32  0  0  0  0  0  0  0  0999 V2000
   38.6040   30.0060   37.2610 O   0  0  0  0  0  0  0  0  0  0  0  0
   38.5810   31.4770   37.6990 P   0  0  1  0  0  0  0  0  0  0  0  0
   38.2650   32.3880   36.3070 O   0  0  0  0  0  0  0  0  0  0  0  0
   38.9450   33.0860   36.1580 H   0  0  0  0  0  0  0  0  0  0  0  0
   37.3820   31.6150   38.8660 O   0  0  0  0  0  0  0  0  0  0  0  0
   37.4730   29.5180   41.7970 C   0  0  0  0  0  0  0  0  0  0  0  0
   36.3270   28.7480   41.6280 C   0  0  0  0  0  0  0  0  0  0  0  0
   35.5510   28.9840   40.4890 C   0  0  0  0  0  0  0  0  0  0  0  0
   35.9610   29.9410   39.6270 N   0  0  0  0  0  0  0  0  0  0  0  0
   37.0940   30.6700   39.8380 C   0  0  0  0  0  0  0  0  0  0  0  0
   37.8480   30.4500   40.9340 N   0  0  0  0  0  0  0  0  0  0  0  0
   36.0410   27.9940   42.3450 H   0  0  0  0  0  0  0  0  0  0  0  0
   34.6580   28.4150   40.3150 H   0  0  0  0  0  0  0  0  0  0  0  0
   38.2800   29.2550   43.0360 C   0  0  0  0  0  0  0  0  0  0  0  0
   39.1800   29.8830   43.0360 H   0  0  0  0  0  0  0  0  0  0  0  0
   38.4450   28.1840   43.2030 H   0  0  0  0  0  0  0  0  0  0  0  0
   37.6550   29.6200   43.8820 H   0  0  0  0  0  0  0  0  0  0  0  0
   40.0830   31.9560   38.3080 O   0  0  0  0  0  0  0  0  0  0  0  0
   40.7750   30.1230   36.2410 H   0  0  0  0  0  0  0  0  0  0  0  0
   41.5260   30.7270   36.6360 N   0  0  0  0  0  0  0  0  0  0  0  0
   41.2330   31.6030   37.6130 C   0  0  0  0  0  0  0  0  0  0  0  0
   42.3920   32.2450   37.9270 N   0  0  0  0  0  0  0  0  0  0  0  0
   43.3850   31.7750   37.1570 C   0  0  0  0  0  0  0  0  0  0  0  0
   44.7440   31.9960   36.9840 C   0  0  0  0  0  0  0  0  0  0  0  0
   45.1620   32.7670   37.6460 H   0  0  0  0  0  0  0  0  0  0  0  0
   45.4880   31.3240   36.0830 N   0  0  0  0  0  0  0  0  0  0  0  0
   44.8920   30.3860   35.3030 C   0  0  0  0  0  0  0  0  0  0  0  0
   45.5020   29.8570   34.5870 H   0  0  0  0  0  0  0  0  0  0  0  0
   43.5770   30.1260   35.4240 N   0  0  0  0  0  0  0  0  0  0  0  0
   42.8330   30.7970   36.3250 C   0  0  0  0  0  0  0  0  0  0  0  0
  2  1  2  6  0  0  0
  2 18  1  0  0  0  0
  2  5  1  0  0  0  0
  3  2  1  0  0  0  0
  4  3  1  0  0  0  0
  5 10  1  0  0  0  0
  6 14  1  0  0  0  0
  7  6  1  0  0  0  0
  7 12  1  0  0  0  0
  8  7  2  0  0  0  0
  9 10  2  0  0  0  0
  9  8  1  0  0  0  0
 10 11  1  0  0  0  0
 11  6  2  0  0  0  0
 13  8  1  0  0  0  0
 14 16  1  0  0  0  0
 14 17  1  0  0  0  0
 15 14  1  0  0  0  0
 19 20  1  0  0  0  0
 20 21  1  0  0  0  0
 21 22  2  0  0  0  0
 21 18  1  0  0  0  0
 23 22  1  0  0  0  0
 24 23  1  0  0  0  0
 24 25  1  0  0  0  0
 26 24  2  0  0  0  0
 27 29  2  0  0  0  0
 27 26  1  0  0  0  0
 28 27  1  0  0  0  0
 29 30  1  0  0  0  0
 30 20  1  0  0  0  0
 30 23  2  0  0  0  0
M  END
>  <minimizedAffinity>
-5.14659643

$$$$

 OpenBabel03252504483D

 30 32  0  0  0  0  0  0  0  0999 V2000
   36.2320   30.6950   38.7600 O   0  0  0  0  0  0  0  0  0  0  0  0
   37.5010   31.4920   39.0970 P   0  0  1  0  0  0  0  0  0  0  0  0
   37.2800   33.0420   38.4510 O   0  0  0  0  0  0  0  0  0  0  0  0
   38.0190   33.3040   37.8540 H   0  0  0  0  0  0  0  0  0  0  0  0
   37.6460   31.4870   40.7690 O   0  0  0  0  0  0  0  0  0  0  0  0
   37.5480   28.4750   42.7500 C   0  0  0  0  0  0  0  0  0  0  0  0
   38.8940   28.2910   43.0490 C   0  0  0  0  0  0  0  0  0  0  0  0
   39.8030   29.2290   42.5470 C   0  0  0  0  0  0  0  0  0  0  0  0
   39.3180   30.2520   41.8070 N   0  0  0  0  0  0  0  0  0  0  0  0
   37.9880   30.3880   41.5420 C   0  0  0  0  0  0  0  0  0  0  0  0
   37.1050   29.4880   42.0210 N   0  0  0  0  0  0  0  0  0  0  0  0
   39.2340   27.4580   43.6450 H   0  0  0  0  0  0  0  0  0  0  0  0
   40.8520   29.1290   42.7510 H   0  0  0  0  0  0  0  0  0  0  0  0
   36.5970   27.4460   43.2870 C   0  0  0  0  0  0  0  0  0  0  0  0
   35.5650   27.7210   43.0320 H   0  0  0  0  0  0  0  0  0  0  0  0
   36.7830   27.2220   44.3440 H   0  0  0  0  0  0  0  0  0  0  0  0
   36.8120   26.5140   42.7180 H   0  0  0  0  0  0  0  0  0  0  0  0
   38.8630   30.8100   38.3640 O   0  0  0  0  0  0  0  0  0  0  0  0
   39.6490   33.0710   36.8200 H   0  0  0  0  0  0  0  0  0  0  0  0
   40.3450   32.6540   37.4730 N   0  0  0  0  0  0  0  0  0  0  0  0
   40.0050   31.5860   38.2160 C   0  0  0  0  0  0  0  0  0  0  0  0
   41.0980   31.2640   38.9630 N   0  0  0  0  0  0  0  0  0  0  0  0
   42.0950   32.1180   38.6890 C   0  0  0  0  0  0  0  0  0  0  0  0
   43.4070   32.3290   39.0880 C   0  0  0  0  0  0  0  0  0  0  0  0
   43.7680   31.6160   39.8420 H   0  0  0  0  0  0  0  0  0  0  0  0
   44.1730   33.3230   38.5940 N   0  0  0  0  0  0  0  0  0  0  0  0
   43.6480   34.1610   37.6640 C   0  0  0  0  0  0  0  0  0  0  0  0
   44.2750   34.9510   37.2800 H   0  0  0  0  0  0  0  0  0  0  0  0
   42.3810   34.0080   37.2370 N   0  0  0  0  0  0  0  0  0  0  0  0
   41.6150   33.0150   37.7290 C   0  0  0  0  0  0  0  0  0  0  0  0
  2  1  2  6  0  0  0
  2  5  1  0  0  0  0
  3  2  1  0  0  0  0
  4  3  1  0  0  0  0
  5 10  1  0  0  0  0
  6  7  1  0  0  0  0
  6 14  1  0  0  0  0
  7 12  1  0  0  0  0
  8 13  1  0  0  0  0
  8  7  2  0  0  0  0
  9  8  1  0  0  0  0
 10  9  2  0  0  0  0
 10 11  1  0  0  0  0
 11  6  2  0  0  0  0
 14 16  1  0  0  0  0
 15 14  1  0  0  0  0
 17 14  1  0  0  0  0
 18  2  1  0  0  0  0
 19 20  1  0  0  0  0
 20 30  1  0  0  0  0
 20 21  1  0  0  0  0
 21 18  1  0  0  0  0
 21 22  2  0  0  0  0
 23 22  1  0  0  0  0
 23 24  1  0  0  0  0
 24 25  1  0  0  0  0
 26 24  2  0  0  0  0
 27 26  1  0  0  0  0
 28 27  1  0  0  0  0
 29 27  2  0  0  0  0
 29 30  1  0  0  0  0
 30 23  2  0  0  0  0
M  END
>  <minimizedAffinity>
-5.13150358

$$$$

 OpenBabel03252504483D

 30 32  0  0  0  0  0  0  0  0999 V2000
   34.6540   29.1070   40.1760 O   0  0  0  0  0  0  0  0  0  0  0  0
   35.9660   29.9050   40.2180 P   0  0  1  0  0  0  0  0  0  0  0  0
   35.7260   31.1640   41.3260 O   0  0  0  0  0  0  0  0  0  0  0  0
   35.9230   32.0460   40.9330 H   0  0  0  0  0  0  0  0  0  0  0  0
   37.1690   28.8330   40.6860 O   0  0  0  0  0  0  0  0  0  0  0  0
   37.2510   25.2350   40.9080 C   0  0  0  0  0  0  0  0  0  0  0  0
   37.2530   24.8700   39.5660 C   0  0  0  0  0  0  0  0  0  0  0  0
   37.2260   25.8960   38.6160 C   0  0  0  0  0  0  0  0  0  0  0  0
   37.1990   27.1730   39.0600 N   0  0  0  0  0  0  0  0  0  0  0  0
   37.1990   27.4790   40.3890 C   0  0  0  0  0  0  0  0  0  0  0  0
   37.2240   26.4960   41.3110 N   0  0  0  0  0  0  0  0  0  0  0  0
   37.2750   23.8350   39.2600 H   0  0  0  0  0  0  0  0  0  0  0  0
   37.2260   25.6640   37.5680 H   0  0  0  0  0  0  0  0  0  0  0  0
   37.2660   24.1140   41.9070 C   0  0  0  0  0  0  0  0  0  0  0  0
   37.3120   24.5200   42.9250 H   0  0  0  0  0  0  0  0  0  0  0  0
   38.0140   23.3510   41.6630 H   0  0  0  0  0  0  0  0  0  0  0  0
   36.2690   23.6250   41.8210 H   0  0  0  0  0  0  0  0  0  0  0  0
   36.3110   30.5920   38.7130 O   0  0  0  0  0  0  0  0  0  0  0  0
   38.4410   30.4500   36.8250 H   0  0  0  0  0  0  0  0  0  0  0  0
   38.5280   31.1220   37.6170 N   0  0  0  0  0  0  0  0  0  0  0  0
   37.5400   31.2130   38.5250 C   0  0  0  0  0  0  0  0  0  0  0  0
   37.9240   32.1570   39.4290 N   0  0  0  0  0  0  0  0  0  0  0  0
   39.1260   32.6410   39.0860 C   0  0  0  0  0  0  0  0  0  0  0  0
   40.0310   33.5790   39.5630 C   0  0  0  0  0  0  0  0  0  0  0  0
   39.7060   34.0910   40.4800 H   0  0  0  0  0  0  0  0  0  0  0  0
   41.2060   33.8390   38.9560 N   0  0  0  0  0  0  0  0  0  0  0  0
   41.5300   33.1600   37.8260 C   0  0  0  0  0  0  0  0  0  0  0  0
   42.4750   33.3810   37.3540 H   0  0  0  0  0  0  0  0  0  0  0  0
   40.6940   32.2390   37.3140 N   0  0  0  0  0  0  0  0  0  0  0  0
   39.5200   31.9770   37.9200 C   0  0  0  0  0  0  0  0  0  0  0  0
  2  1  2  6  0  0  0
  2  5  1  0  0  0  0
  2  3  1  0  0  0  0
  4  3  1  0  0  0  0
  6 11  1  0  0  0  0
  6 14  1  0  0  0  0
  7  6  2  0  0  0  0
  8  9  2  0  0  0  0
  8  7  1  0  0  0  0
  9 10  1  0  0  0  0
 10  5  1  0  0  0  0
 10 11  2  0  0  0  0
 12  7  1  0  0  0  0
 13  8  1  0  0  0  0
 14 15  1  0  0  0  0
 16 14  1  0  0  0  0
 17 14  1  0  0  0  0
 18  2  1  0  0  0  0
 19 20  1  0  0  0  0
 20 30  1  0  0  0  0
 20 21  1  0  0  0  0
 21 18  1  0  0  0  0
 21 22  2  0  0  0  0
 23 22  1  0  0  0  0
 23 24  1  0  0  0  0
 24 25  1  0  0  0  0
 26 24  2  0  0  0  0
 27 26  1  0  0  0  0
 28 27  1  0  0  0  0
 29 27  2  0  0  0  0
 29 30  1  0  0  0  0
 30 23  2  0  0  0  0
M  END
>  <minimizedAffinity>
-5.07905531

$$$$

 OpenBabel03252504483D

 30 32  0  0  0  0  0  0  0  0999 V2000
   37.4480   29.0880   40.0230 O   0  0  0  0  0  0  0  0  0  0  0  0
   37.0380   29.3490   41.4800 P   0  0  1  0  0  0  0  0  0  0  0  0
   35.7810   30.4830   41.4290 O   0  0  0  0  0  0  0  0  0  0  0  0
   35.9690   31.2710   41.9910 H   0  0  0  0  0  0  0  0  0  0  0  0
   36.5700   27.8710   42.1220 O   0  0  0  0  0  0  0  0  0  0  0  0
   39.2940   25.6740   42.9890 C   0  0  0  0  0  0  0  0  0  0  0  0
   38.8470   24.4580   42.4830 C   0  0  0  0  0  0  0  0  0  0  0  0
   37.6010   24.4400   41.8500 C   0  0  0  0  0  0  0  0  0  0  0  0
   36.9110   25.5990   41.7690 N   0  0  0  0  0  0  0  0  0  0  0  0
   37.3930   26.7670   42.2820 C   0  0  0  0  0  0  0  0  0  0  0  0
   38.5940   26.7940   42.8950 N   0  0  0  0  0  0  0  0  0  0  0  0
   39.4350   23.5570   42.5720 H   0  0  0  0  0  0  0  0  0  0  0  0
   37.2130   23.5250   41.4430 H   0  0  0  0  0  0  0  0  0  0  0  0
   40.6280   25.6630   43.6770 C   0  0  0  0  0  0  0  0  0  0  0  0
   40.8970   26.6800   43.9890 H   0  0  0  0  0  0  0  0  0  0  0  0
   41.3880   25.1250   43.0990 H   0  0  0  0  0  0  0  0  0  0  0  0
   40.4750   25.0880   44.6180 H   0  0  0  0  0  0  0  0  0  0  0  0
   38.3130   30.0220   42.3620 O   0  0  0  0  0  0  0  0  0  0  0  0
   41.1070   29.9540   41.8050 H   0  0  0  0  0  0  0  0  0  0  0  0
   40.5540   30.7650   41.4570 N   0  0  0  0  0  0  0  0  0  0  0  0
   39.2330   30.8270   41.7030 C   0  0  0  0  0  0  0  0  0  0  0  0
   38.7820   31.9810   41.1370 N   0  0  0  0  0  0  0  0  0  0  0  0
   39.8040   32.6210   40.5500 C   0  0  0  0  0  0  0  0  0  0  0  0
   40.0090   33.7910   39.8330 C   0  0  0  0  0  0  0  0  0  0  0  0
   39.1010   34.3910   39.6820 H   0  0  0  0  0  0  0  0  0  0  0  0
   41.2180   34.1610   39.3630 N   0  0  0  0  0  0  0  0  0  0  0  0
   42.2890   33.3610   39.5940 C   0  0  0  0  0  0  0  0  0  0  0  0
   43.2490   33.6730   39.2110 H   0  0  0  0  0  0  0  0  0  0  0  0
   42.1540   32.2130   40.2830 N   0  0  0  0  0  0  0  0  0  0  0  0
   40.9480   31.8420   40.7540 C   0  0  0  0  0  0  0  0  0  0  0  0
  2  1  2  6  0  0  0
  2  5  1  0  0  0  0
  2 18  1  0  0  0  0
  3  2  1  0  0  0  0
  3  4  1  0  0  0  0
  5 10  1  0  0  0  0
  6 14  1  0  0  0  0
  7 12  1  0  0  0  0
  7  6  2  0  0  0  0
  8  7  1  0  0  0  0
  9  8  2  0  0  0  0
  9 10  1  0  0  0  0
 10 11  2  0  0  0  0
 11  6  1  0  0  0  0
 13  8  1  0  0  0  0
 14 15  1  0  0  0  0
 14 17  1  0  0  0  0
 16 14  1  0  0  0  0
 20 21  1  0  0  0  0
 20 19  1  0  0  0  0
 21 18  1  0  0  0  0
 22 21  2  0  0  0  0
 23 30  1  0  0  0  0
 23 22  1  0  0  0  0
 24 23  2  0  0  0  0
 25 24  1  0  0  0  0
 26 27  2  0  0  0  0
 26 24  1  0  0  0  0
 27 29  1  0  0  0  0
 28 27  1  0  0  0  0
 29 30  2  0  0  0  0
 30 20  1  0  0  0  0
M  END
>  <minimizedAffinity>
-5.06823444

$$$$

 OpenBabel03252504483D

 30 32  0  0  0  0  0  0  0  0999 V2000
   39.4200   33.7440   39.7910 O   0  0  0  0  0  0  0  0  0  0  0  0
   38.5480   32.5190   40.1030 P   0  0  1  0  0  0  0  0  0  0  0  0
   36.9750   33.0970   40.3440 O   0  0  0  0  0  0  0  0  0  0  0  0
   36.6030   32.8110   41.2110 H   0  0  0  0  0  0  0  0  0  0  0  0
   38.6790   31.4840   38.7880 O   0  0  0  0  0  0  0  0  0  0  0  0
   36.4800   29.7390   36.5260 C   0  0  0  0  0  0  0  0  0  0  0  0
   35.5110   29.2510   37.3960 C   0  0  0  0  0  0  0  0  0  0  0  0
   35.6530   29.5470   38.7550 C   0  0  0  0  0  0  0  0  0  0  0  0
   36.7190   30.2860   39.1370 N   0  0  0  0  0  0  0  0  0  0  0  0
   37.6430   30.7410   38.2430 C   0  0  0  0  0  0  0  0  0  0  0  0
   37.5140   30.4600   36.9310 N   0  0  0  0  0  0  0  0  0  0  0  0
   34.6760   28.6640   37.0430 H   0  0  0  0  0  0  0  0  0  0  0  0
   34.9310   29.1920   39.4650 H   0  0  0  0  0  0  0  0  0  0  0  0
   36.3110   29.3940   35.0750 C   0  0  0  0  0  0  0  0  0  0  0  0
   37.1030   29.8710   34.4820 H   0  0  0  0  0  0  0  0  0  0  0  0
   35.2860   29.5620   34.7250 H   0  0  0  0  0  0  0  0  0  0  0  0
   36.4990   28.2980   35.0040 H   0  0  0  0  0  0  0  0  0  0  0  0
   39.0500   31.7600   41.5290 O   0  0  0  0  0  0  0  0  0  0  0  0
   36.6510   30.5550   42.4820 H   0  0  0  0  0  0  0  0  0  0  0  0
   37.4550   29.9350   42.2490 N   0  0  0  0  0  0  0  0  0  0  0  0
   38.6020   30.4730   41.7970 C   0  0  0  0  0  0  0  0  0  0  0  0
   39.4610   29.4390   41.5800 N   0  0  0  0  0  0  0  0  0  0  0  0
   38.8570   28.2820   41.8910 C   0  0  0  0  0  0  0  0  0  0  0  0
   39.1660   26.9300   41.8960 C   0  0  0  0  0  0  0  0  0  0  0  0
   40.1850   26.7000   41.5540 H   0  0  0  0  0  0  0  0  0  0  0  0
   38.2930   25.9790   42.2870 N   0  0  0  0  0  0  0  0  0  0  0  0
   37.0530   26.3500   42.6950 C   0  0  0  0  0  0  0  0  0  0  0  0
   36.3670   25.5760   43.0040 H   0  0  0  0  0  0  0  0  0  0  0  0
   36.6930   27.6460   42.7130 N   0  0  0  0  0  0  0  0  0  0  0  0
   37.5650   28.5970   42.3240 C   0  0  0  0  0  0  0  0  0  0  0  0
  2  1  2  6  0  0  0
  2  3  1  0  0  0  0
  2 18  1  0  0  0  0
  3  4  1  0  0  0  0
  5  2  1  0  0  0  0
  6 11  2  0  0  0  0
  6  7  1  0  0  0  0
  7  8  2  0  0  0  0
  8  9  1  0  0  0  0
  8 13  1  0  0  0  0
 10  5  1  0  0  0  0
 10  9  2  0  0  0  0
 11 10  1  0  0  0  0
 12  7  1  0  0  0  0
 14  6  1  0  0  0  0
 15 14  1  0  0  0  0
 16 14  1  0  0  0  0
 17 14  1  0  0  0  0
 18 21  1  0  0  0  0
 20 30  1  0  0  0  0
 20 19  1  0  0  0  0
 21 20  1  0  0  0  0
 22 21  2  0  0  0  0
 22 23  1  0  0  0  0
 23 24  2  0  0  0  0
 23 30  1  0  0  0  0
 24 26  1  0  0  0  0
 25 24  1  0  0  0  0
 26 27  2  0  0  0  0
 27 29  1  0  0  0  0
 27 28  1  0  0  0  0
 30 29  2  0  0  0  0
M  END
>  <minimizedAffinity>
-4.9736042

$$$$
