
 OpenBabel03252505033D

 37 40  0  0  1  0  0  0  0  0999 V2000
   44.9380   35.2770   44.8090 C   0  0  0  0  0  0  0  0  0  0  0  0
   44.3270   35.2010   43.5440 C   0  0  0  0  0  0  0  0  0  0  0  0
   44.5020   33.9950   42.8230 C   0  0  0  0  0  0  0  0  0  0  0  0
   45.2370   33.0020   43.3860 N   0  0  0  0  0  0  0  0  0  0  0  0
   45.7980   33.1230   44.5920 C   0  0  0  0  0  0  0  0  0  0  0  0
   45.6530   34.2740   45.3240 N   0  0  0  0  0  0  0  0  0  0  0  0
   44.7840   36.2170   45.3350 H   0  0  0  0  0  0  0  0  0  0  0  0
   43.7470   35.9830   43.0990 H   0  0  0  0  0  0  0  0  0  0  0  0
   46.5920   31.9900   45.1320 C   0  0  2  0  0  0  0  0  0  0  0  0
   45.9870   30.7520   44.5550 C   0  0  0  0  0  0  0  0  0  0  0  0
   45.1730   29.9380   45.4760 C   0  0  0  0  0  0  0  0  0  0  0  0
   46.0590   29.6320   46.6660 C   0  0  0  0  0  0  0  0  0  0  0  0
   46.4090   30.8410   47.4250 C   0  0  0  0  0  0  0  0  0  0  0  0
   46.6800   32.0560   46.5830 C   0  0  0  0  0  0  0  0  0  0  0  0
   47.6190   32.1480   44.7180 H   0  0  0  0  0  0  0  0  0  0  0  0
   45.3720   30.9540   43.6480 H   0  0  0  0  0  0  0  0  0  0  0  0
   46.8300   30.1200   44.1600 H   0  0  0  0  0  0  0  0  0  0  0  0
   44.2260   30.4140   45.7420 H   0  0  0  0  0  0  0  0  0  0  0  0
   44.9550   28.9690   44.9940 H   0  0  0  0  0  0  0  0  0  0  0  0
   46.8830   28.9940   46.3630 H   0  0  0  0  0  0  0  0  0  0  0  0
   45.4030   29.0530   47.3590 H   0  0  0  0  0  0  0  0  0  0  0  0
   46.5270   31.1050   48.4360 H   0  0  0  0  0  0  0  0  0  0  0  0
   47.0270   33.2910   47.1950 N   0  0  0  0  0  0  0  0  0  0  0  0
   47.9950   33.6840   47.2210 H   0  0  0  0  0  0  0  0  0  0  0  0
   46.2020   33.7690   47.6200 H   0  0  0  0  0  0  0  0  0  0  0  0
   43.9410   33.7820   41.5380 N   0  0  0  0  0  0  0  0  0  0  0  0
   42.6860   33.7220   41.0370 C   0  0  0  0  0  0  0  0  0  0  0  0
   41.8530   33.8580   41.7190 H   0  0  0  0  0  0  0  0  0  0  0  0
   42.7250   33.4900   39.7160 N   0  0  0  0  0  0  0  0  0  0  0  0
   44.0200   33.3970   39.3450 C   0  0  0  0  0  0  0  0  0  0  0  0
   44.5300   33.1690   38.0950 C   0  0  0  0  0  0  0  0  0  0  0  0
   43.9470   33.0280   37.2180 H   0  0  0  0  0  0  0  0  0  0  0  0
   45.8740   33.1170   37.9650 N   0  0  0  0  0  0  0  0  0  0  0  0
   46.6430   33.2930   39.0700 C   0  0  0  0  0  0  0  0  0  0  0  0
   47.7300   33.2740   39.0930 H   0  0  0  0  0  0  0  0  0  0  0  0
   46.0920   33.5160   40.2770 N   0  0  0  0  0  0  0  0  0  0  0  0
   44.7760   33.5810   40.4910 C   0  0  0  0  0  0  0  0  0  0  0  0
  1  6  1  0  0  0  0
  1  7  1  0  0  0  0
  2  1  2  0  0  0  0
  3  4  2  0  0  0  0
  3  2  1  0  0  0  0
  4  5  1  0  0  0  0
  5  9  1  0  0  0  0
  5  6  2  0  0  0  0
  8  2  1  0  0  0  0
  9 15  1  6  0  0  0
  9 14  1  0  0  0  0
 10  9  1  0  0  0  0
 10 11  1  0  0  0  0
 11 18  1  0  0  0  0
 11 12  1  0  0  0  0
 12 21  1  0  0  0  0
 12 13  1  0  0  0  0
 13 22  1  0  0  0  0
 14 23  1  0  0  0  0
 14 13  2  0  0  0  0
 16 10  1  0  0  0  0
 17 10  1  0  0  0  0
 19 11  1  0  0  0  0
 20 12  1  0  0  0  0
 23 24  1  0  0  0  0
 23 25  1  0  0  0  0
 26  3  1  0  0  0  0
 27 26  1  0  0  0  0
 27 28  1  0  0  0  0
 29 27  2  0  0  0  0
 30 29  1  0  0  0  0
 30 37  1  0  0  0  0
 31 30  2  0  0  0  0
 32 31  1  0  0  0  0
 33 31  1  0  0  0  0
 33 34  2  0  0  0  0
 34 35  1  0  0  0  0
 34 36  1  0  0  0  0
 36 37  2  0  0  0  0
 37 26  1  0  0  0  0
M  END
>  <minimizedAffinity>
-5.0548234

>  <minimizedRMSD>
4.06943893

$$$$
