
 OpenBabel03252505053D

 37 40  0  0  1  0  0  0  0  0999 V2000
   36.2530   29.9080   38.9500 C   0  0  0  0  0  0  0  0  0  0  0  0
   37.0030   31.0970   38.9170 C   0  0  0  0  0  0  0  0  0  0  0  0
   38.1390   31.1570   39.7580 C   0  0  0  0  0  0  0  0  0  0  0  0
   38.4320   30.0820   40.5330 N   0  0  0  0  0  0  0  0  0  0  0  0
   37.6870   28.9730   40.5290 C   0  0  0  0  0  0  0  0  0  0  0  0
   36.5780   28.8730   39.7290 N   0  0  0  0  0  0  0  0  0  0  0  0
   35.3860   29.8950   38.2920 H   0  0  0  0  0  0  0  0  0  0  0  0
   36.7730   31.9460   38.3060 H   0  0  0  0  0  0  0  0  0  0  0  0
   38.0740   27.8440   41.4130 C   0  0  2  0  0  0  0  0  0  0  0  0
   38.0900   26.6280   40.5460 C   0  0  0  0  0  0  0  0  0  0  0  0
   36.9630   25.6930   40.7200 C   0  0  0  0  0  0  0  0  0  0  0  0
   36.9320   25.3360   42.1920 C   0  0  0  0  0  0  0  0  0  0  0  0
   36.6080   26.4930   43.0380 C   0  0  0  0  0  0  0  0  0  0  0  0
   37.2260   27.7900   42.5950 C   0  0  0  0  0  0  0  0  0  0  0  0
   39.1110   28.0960   41.7470 H   0  0  0  0  0  0  0  0  0  0  0  0
   38.1620   26.8720   39.4610 H   0  0  0  0  0  0  0  0  0  0  0  0
   39.0510   26.0820   40.7530 H   0  0  0  0  0  0  0  0  0  0  0  0
   36.0170   26.0900   40.3420 H   0  0  0  0  0  0  0  0  0  0  0  0
   37.1920   24.7580   40.1790 H   0  0  0  0  0  0  0  0  0  0  0  0
   37.8210   24.7740   42.4570 H   0  0  0  0  0  0  0  0  0  0  0  0
   36.0480   24.6640   42.2960 H   0  0  0  0  0  0  0  0  0  0  0  0
   36.0390   26.6760   43.9030 H   0  0  0  0  0  0  0  0  0  0  0  0
   36.9890   28.9860   43.3260 N   0  0  0  0  0  0  0  0  0  0  0  0
   37.6810   29.4290   43.9700 H   0  0  0  0  0  0  0  0  0  0  0  0
   36.0380   29.3780   43.1490 H   0  0  0  0  0  0  0  0  0  0  0  0
   38.9840   32.2940   39.8240 N   0  0  0  0  0  0  0  0  0  0  0  0
   39.0880   33.3680   40.6410 C   0  0  0  0  0  0  0  0  0  0  0  0
   38.3920   33.4510   41.4690 H   0  0  0  0  0  0  0  0  0  0  0  0
   40.0910   34.1610   40.2380 N   0  0  0  0  0  0  0  0  0  0  0  0
   40.6530   33.6040   39.1430 C   0  0  0  0  0  0  0  0  0  0  0  0
   41.7050   34.0680   38.4020 C   0  0  0  0  0  0  0  0  0  0  0  0
   42.2400   34.9660   38.5990 H   0  0  0  0  0  0  0  0  0  0  0  0
   42.0980   33.3330   37.3380 N   0  0  0  0  0  0  0  0  0  0  0  0
   41.4340   32.1800   37.0630 C   0  0  0  0  0  0  0  0  0  0  0  0
   41.6540   31.5050   36.2400 H   0  0  0  0  0  0  0  0  0  0  0  0
   40.4040   31.7670   37.8250 N   0  0  0  0  0  0  0  0  0  0  0  0
   39.9550   32.4360   38.8910 C   0  0  0  0  0  0  0  0  0  0  0  0
  1  6  1  0  0  0  0
  2  1  2  0  0  0  0
  2  3  1  0  0  0  0
  3 26  1  0  0  0  0
  3  4  2  0  0  0  0
  5  4  1  0  0  0  0
  5  9  1  0  0  0  0
  6  5  2  0  0  0  0
  7  1  1  0  0  0  0
  8  2  1  0  0  0  0
  9 15  1  1  0  0  0
  9 14  1  0  0  0  0
 10 11  1  0  0  0  0
 10 17  1  0  0  0  0
 10  9  1  0  0  0  0
 11 12  1  0  0  0  0
 12 21  1  0  0  0  0
 12 20  1  0  0  0  0
 12 13  1  0  0  0  0
 13 22  1  0  0  0  0
 14 13  2  0  0  0  0
 14 23  1  0  0  0  0
 16 10  1  0  0  0  0
 18 11  1  0  0  0  0
 19 11  1  0  0  0  0
 23 24  1  0  0  0  0
 25 23  1  0  0  0  0
 26 27  1  0  0  0  0
 27 28  1  0  0  0  0
 29 27  2  0  0  0  0
 30 29  1  0  0  0  0
 31 32  1  0  0  0  0
 31 30  2  0  0  0  0
 33 31  1  0  0  0  0
 34 33  2  0  0  0  0
 34 36  1  0  0  0  0
 35 34  1  0  0  0  0
 36 37  2  0  0  0  0
 37 30  1  0  0  0  0
 37 26  1  0  0  0  0
M  END
>  <minimizedAffinity>
-5.93188334

$$$$

 OpenBabel03252505053D

 37 40  0  0  1  0  0  0  0  0999 V2000
   37.5480   32.6790   39.8520 C   0  0  0  0  0  0  0  0  0  0  0  0
   37.2010   31.5990   40.6850 C   0  0  0  0  0  0  0  0  0  0  0  0
   38.2210   30.6600   40.9690 C   0  0  0  0  0  0  0  0  0  0  0  0
   39.4520   30.8530   40.4310 N   0  0  0  0  0  0  0  0  0  0  0  0
   39.7330   31.8970   39.6440 C   0  0  0  0  0  0  0  0  0  0  0  0
   38.7740   32.8300   39.3440 N   0  0  0  0  0  0  0  0  0  0  0  0
   36.7420   33.3810   39.6530 H   0  0  0  0  0  0  0  0  0  0  0  0
   36.2300   31.4460   41.1100 H   0  0  0  0  0  0  0  0  0  0  0  0
   41.1040   32.0290   39.0910 C   0  0  2  0  0  0  0  0  0  0  0  0
   41.9320   32.6260   40.1820 C   0  0  0  0  0  0  0  0  0  0  0  0
   42.2920   34.0460   40.0190 C   0  0  0  0  0  0  0  0  0  0  0  0
   42.9700   34.1600   38.6700 C   0  0  0  0  0  0  0  0  0  0  0  0
   42.0530   33.8650   37.5600 C   0  0  0  0  0  0  0  0  0  0  0  0
   41.0900   32.7420   37.8210 C   0  0  0  0  0  0  0  0  0  0  0  0
   41.4260   30.9780   38.8910 H   0  0  0  0  0  0  0  0  0  0  0  0
   41.4710   32.5070   41.1890 H   0  0  0  0  0  0  0  0  0  0  0  0
   42.8760   32.0180   40.2560 H   0  0  0  0  0  0  0  0  0  0  0  0
   41.4400   34.7200   40.1430 H   0  0  0  0  0  0  0  0  0  0  0  0
   43.0570   34.3060   40.7730 H   0  0  0  0  0  0  0  0  0  0  0  0
   43.9110   33.6200   38.6790 H   0  0  0  0  0  0  0  0  0  0  0  0
   43.1920   35.2480   38.5610 H   0  0  0  0  0  0  0  0  0  0  0  0
   41.8740   34.2370   36.5930 H   0  0  0  0  0  0  0  0  0  0  0  0
   40.1470   32.3580   36.8280 N   0  0  0  0  0  0  0  0  0  0  0  0
   40.2350   31.5050   36.2320 H   0  0  0  0  0  0  0  0  0  0  0  0
   39.3490   33.0270   36.7600 H   0  0  0  0  0  0  0  0  0  0  0  0
   38.0090   29.5260   41.7940 N   0  0  0  0  0  0  0  0  0  0  0  0
   38.0710   29.2810   43.1240 C   0  0  0  0  0  0  0  0  0  0  0  0
   38.3410   30.0980   43.7840 H   0  0  0  0  0  0  0  0  0  0  0  0
   37.7660   27.9990   43.3730 N   0  0  0  0  0  0  0  0  0  0  0  0
   37.5030   27.3940   42.1940 C   0  0  0  0  0  0  0  0  0  0  0  0
   37.1490   26.0910   41.9710 C   0  0  0  0  0  0  0  0  0  0  0  0
   37.0310   25.3540   42.7290 H   0  0  0  0  0  0  0  0  0  0  0  0
   36.9330   25.7080   40.6940 N   0  0  0  0  0  0  0  0  0  0  0  0
   37.0750   26.6290   39.7050 C   0  0  0  0  0  0  0  0  0  0  0  0
   36.9290   26.4440   38.6440 H   0  0  0  0  0  0  0  0  0  0  0  0
   37.4250   27.8990   39.9790 N   0  0  0  0  0  0  0  0  0  0  0  0
   37.6560   28.3560   41.2120 C   0  0  0  0  0  0  0  0  0  0  0  0
  1  2  1  0  0  0  0
  2  3  2  0  0  0  0
  2  8  1  0  0  0  0
  3 26  1  0  0  0  0
  4  3  1  0  0  0  0
  5  4  2  0  0  0  0
  6  5  1  0  0  0  0
  6  1  2  0  0  0  0
  7  1  1  0  0  0  0
  9 15  1  6  0  0  0
  9  5  1  0  0  0  0
  9 10  1  0  0  0  0
 10 17  1  0  0  0  0
 10 16  1  0  0  0  0
 11 18  1  0  0  0  0
 11 10  1  0  0  0  0
 11 19  1  0  0  0  0
 12 20  1  0  0  0  0
 12 11  1  0  0  0  0
 13 14  2  0  0  0  0
 13 12  1  0  0  0  0
 14  9  1  0  0  0  0
 21 12  1  0  0  0  0
 22 13  1  0  0  0  0
 23 14  1  0  0  0  0
 24 23  1  0  0  0  0
 25 23  1  0  0  0  0
 26 27  1  0  0  0  0
 27 29  2  0  0  0  0
 27 28  1  0  0  0  0
 30 29  1  0  0  0  0
 31 30  1  0  0  0  0
 31 32  1  0  0  0  0
 33 31  2  0  0  0  0
 34 36  2  0  0  0  0
 34 33  1  0  0  0  0
 35 34  1  0  0  0  0
 36 37  1  0  0  0  0
 37 26  1  0  0  0  0
 37 30  2  0  0  0  0
M  END
>  <minimizedAffinity>
-5.90603828

$$$$

 OpenBabel03252505053D

 37 40  0  0  1  0  0  0  0  0999 V2000
   36.4920   31.2580   40.2740 C   0  0  0  0  0  0  0  0  0  0  0  0
   37.4590   31.9340   39.5080 C   0  0  0  0  0  0  0  0  0  0  0  0
   38.7500   31.3570   39.4590 C   0  0  0  0  0  0  0  0  0  0  0  0
   38.9750   30.2060   40.1410 N   0  0  0  0  0  0  0  0  0  0  0  0
   38.0220   29.6010   40.8570 C   0  0  0  0  0  0  0  0  0  0  0  0
   36.7570   30.1260   40.9310 N   0  0  0  0  0  0  0  0  0  0  0  0
   35.5110   31.7280   40.2920 H   0  0  0  0  0  0  0  0  0  0  0  0
   37.2830   32.8420   38.9680 H   0  0  0  0  0  0  0  0  0  0  0  0
   38.3540   28.3470   41.5800 C   0  0  2  0  0  0  0  0  0  0  0  0
   38.2970   27.2560   40.5610 C   0  0  0  0  0  0  0  0  0  0  0  0
   37.1230   26.3680   40.6280 C   0  0  0  0  0  0  0  0  0  0  0  0
   37.0840   25.8220   42.0400 C   0  0  0  0  0  0  0  0  0  0  0  0
   36.8290   26.8740   43.0350 C   0  0  0  0  0  0  0  0  0  0  0  0
   37.5130   28.1830   42.7560 C   0  0  0  0  0  0  0  0  0  0  0  0
   39.4060   28.4970   41.9280 H   0  0  0  0  0  0  0  0  0  0  0  0
   38.3750   27.6370   39.5170 H   0  0  0  0  0  0  0  0  0  0  0  0
   39.2290   26.6370   40.6810 H   0  0  0  0  0  0  0  0  0  0  0  0
   36.1970   26.8590   40.3190 H   0  0  0  0  0  0  0  0  0  0  0  0
   37.2970   25.5000   39.9650 H   0  0  0  0  0  0  0  0  0  0  0  0
   37.9430   25.1840   42.2170 H   0  0  0  0  0  0  0  0  0  0  0  0
   36.1650   25.1890   42.0680 H   0  0  0  0  0  0  0  0  0  0  0  0
   36.2780   26.9710   43.9250 H   0  0  0  0  0  0  0  0  0  0  0  0
   37.3470   29.2830   43.6420 N   0  0  0  0  0  0  0  0  0  0  0  0
   38.0670   29.6010   44.3280 H   0  0  0  0  0  0  0  0  0  0  0  0
   36.4170   29.7450   43.5300 H   0  0  0  0  0  0  0  0  0  0  0  0
   39.8180   31.9320   38.7240 N   0  0  0  0  0  0  0  0  0  0  0  0
   40.1740   31.9720   37.4190 C   0  0  0  0  0  0  0  0  0  0  0  0
   39.5410   31.4650   36.6990 H   0  0  0  0  0  0  0  0  0  0  0  0
   41.3070   32.6740   37.2690 N   0  0  0  0  0  0  0  0  0  0  0  0
   41.7010   33.1000   38.4890 C   0  0  0  0  0  0  0  0  0  0  0  0
   42.8010   33.8480   38.8110 C   0  0  0  0  0  0  0  0  0  0  0  0
   43.5180   34.2060   38.1130 H   0  0  0  0  0  0  0  0  0  0  0  0
   42.9930   34.1560   40.1120 N   0  0  0  0  0  0  0  0  0  0  0  0
   42.0910   33.7120   41.0260 C   0  0  0  0  0  0  0  0  0  0  0  0
   42.1350   33.8940   42.0960 H   0  0  0  0  0  0  0  0  0  0  0  0
   41.0240   32.9790   40.6570 N   0  0  0  0  0  0  0  0  0  0  0  0
   40.7640   32.6320   39.3930 C   0  0  0  0  0  0  0  0  0  0  0  0
  1  7  1  0  0  0  0
  1  6  1  0  0  0  0
  2  1  2  0  0  0  0
  3  2  1  0  0  0  0
  3  4  2  0  0  0  0
  4  5  1  0  0  0  0
  5  6  2  0  0  0  0
  5  9  1  0  0  0  0
  8  2  1  0  0  0  0
  9 15  1  1  0  0  0
  9 14  1  0  0  0  0
 10 11  1  0  0  0  0
 10 17  1  0  0  0  0
 10  9  1  0  0  0  0
 11 12  1  0  0  0  0
 12 21  1  0  0  0  0
 12 20  1  0  0  0  0
 12 13  1  0  0  0  0
 13 22  1  0  0  0  0
 14 13  2  0  0  0  0
 14 23  1  0  0  0  0
 16 10  1  0  0  0  0
 18 11  1  0  0  0  0
 19 11  1  0  0  0  0
 23 24  1  0  0  0  0
 25 23  1  0  0  0  0
 26 37  1  0  0  0  0
 26  3  1  0  0  0  0
 27 26  1  0  0  0  0
 28 27  1  0  0  0  0
 29 27  2  0  0  0  0
 29 30  1  0  0  0  0
 30 31  2  0  0  0  0
 30 37  1  0  0  0  0
 31 33  1  0  0  0  0
 32 31  1  0  0  0  0
 33 34  2  0  0  0  0
 34 35  1  0  0  0  0
 36 34  1  0  0  0  0
 37 36  2  0  0  0  0
M  END
>  <minimizedAffinity>
-5.90170622

$$$$

 OpenBabel03252505053D

 37 40  0  0  1  0  0  0  0  0999 V2000
   36.7550   27.3280   43.4130 C   0  0  0  0  0  0  0  0  0  0  0  0
   37.4240   28.5630   43.3390 C   0  0  0  0  0  0  0  0  0  0  0  0
   38.3940   28.7010   42.3160 C   0  0  0  0  0  0  0  0  0  0  0  0
   38.6170   27.6530   41.4840 N   0  0  0  0  0  0  0  0  0  0  0  0
   37.9540   26.4980   41.5960 C   0  0  0  0  0  0  0  0  0  0  0  0
   37.0070   26.3210   42.5720 N   0  0  0  0  0  0  0  0  0  0  0  0
   36.0180   27.2540   44.2090 H   0  0  0  0  0  0  0  0  0  0  0  0
   37.2490   29.3910   43.9950 H   0  0  0  0  0  0  0  0  0  0  0  0
   38.2640   25.3980   40.6480 C   0  0  2  0  0  0  0  0  0  0  0  0
   37.3110   25.5560   39.5080 C   0  0  0  0  0  0  0  0  0  0  0  0
   36.2000   24.5890   39.4530 C   0  0  0  0  0  0  0  0  0  0  0  0
   36.8340   23.2130   39.4710 C   0  0  0  0  0  0  0  0  0  0  0  0
   37.5250   22.9360   40.7380 C   0  0  0  0  0  0  0  0  0  0  0  0
   38.2620   24.1080   41.3230 C   0  0  0  0  0  0  0  0  0  0  0  0
   39.3090   25.6070   40.3110 H   0  0  0  0  0  0  0  0  0  0  0  0
   36.8720   26.5780   39.4510 H   0  0  0  0  0  0  0  0  0  0  0  0
   37.9090   25.4780   38.5590 H   0  0  0  0  0  0  0  0  0  0  0  0
   35.4600   24.7430   40.2420 H   0  0  0  0  0  0  0  0  0  0  0  0
   35.6950   24.6840   38.4750 H   0  0  0  0  0  0  0  0  0  0  0  0
   37.4050   23.0540   38.5620 H   0  0  0  0  0  0  0  0  0  0  0  0
   35.9690   22.5080   39.4700 H   0  0  0  0  0  0  0  0  0  0  0  0
   37.6530   22.1120   41.3790 H   0  0  0  0  0  0  0  0  0  0  0  0
   38.9700   23.9730   42.5490 N   0  0  0  0  0  0  0  0  0  0  0  0
   40.0090   23.8950   42.6220 H   0  0  0  0  0  0  0  0  0  0  0  0
   38.3330   23.9610   43.3750 H   0  0  0  0  0  0  0  0  0  0  0  0
   39.1410   29.8920   42.1270 N   0  0  0  0  0  0  0  0  0  0  0  0
   40.3700   30.3230   42.4960 C   0  0  0  0  0  0  0  0  0  0  0  0
   40.9940   29.6560   43.0800 H   0  0  0  0  0  0  0  0  0  0  0  0
   40.5800   31.5660   42.0370 N   0  0  0  0  0  0  0  0  0  0  0  0
   39.4790   31.9560   41.3600 C   0  0  0  0  0  0  0  0  0  0  0  0
   39.2530   33.1460   40.7240 C   0  0  0  0  0  0  0  0  0  0  0  0
   39.9440   33.9530   40.6790 H   0  0  0  0  0  0  0  0  0  0  0  0
   38.0630   33.3120   40.1060 N   0  0  0  0  0  0  0  0  0  0  0  0
   37.1610   32.2970   40.1460 C   0  0  0  0  0  0  0  0  0  0  0  0
   36.1750   32.3100   39.6890 H   0  0  0  0  0  0  0  0  0  0  0  0
   37.4340   31.1450   40.7850 N   0  0  0  0  0  0  0  0  0  0  0  0
   38.5840   30.9030   41.4200 C   0  0  0  0  0  0  0  0  0  0  0  0
  1  7  1  0  0  0  0
  2  1  1  0  0  0  0
  2  8  1  0  0  0  0
  3  2  2  0  0  0  0
  4  5  2  0  0  0  0
  4  3  1  0  0  0  0
  5  6  1  0  0  0  0
  6  1  2  0  0  0  0
  9 15  1  6  0  0  0
  9 14  1  0  0  0  0
  9  5  1  0  0  0  0
 10  9  1  0  0  0  0
 11 12  1  0  0  0  0
 11 10  1  0  0  0  0
 11 18  1  0  0  0  0
 12 13  1  0  0  0  0
 13 14  2  0  0  0  0
 13 22  1  0  0  0  0
 14 23  1  0  0  0  0
 16 10  1  0  0  0  0
 17 10  1  0  0  0  0
 19 11  1  0  0  0  0
 20 12  1  0  0  0  0
 21 12  1  0  0  0  0
 23 24  1  0  0  0  0
 23 25  1  0  0  0  0
 26  3  1  0  0  0  0
 26 27  1  0  0  0  0
 27 28  1  0  0  0  0
 29 27  2  0  0  0  0
 30 37  1  0  0  0  0
 30 29  1  0  0  0  0
 31 30  2  0  0  0  0
 32 31  1  0  0  0  0
 33 34  2  0  0  0  0
 33 31  1  0  0  0  0
 34 36  1  0  0  0  0
 35 34  1  0  0  0  0
 36 37  2  0  0  0  0
 37 26  1  0  0  0  0
M  END
>  <minimizedAffinity>
-5.73228359

$$$$

 OpenBabel03252505053D

 37 40  0  0  1  0  0  0  0  0999 V2000
   39.2890   27.5790   43.3160 C   0  0  0  0  0  0  0  0  0  0  0  0
   40.1510   28.6090   42.8990 C   0  0  0  0  0  0  0  0  0  0  0  0
   39.6880   29.4420   41.8520 C   0  0  0  0  0  0  0  0  0  0  0  0
   38.4630   29.2010   41.3220 N   0  0  0  0  0  0  0  0  0  0  0  0
   37.6800   28.2060   41.7530 C   0  0  0  0  0  0  0  0  0  0  0  0
   38.0890   27.3770   42.7650 N   0  0  0  0  0  0  0  0  0  0  0  0
   39.6740   26.9570   44.1210 H   0  0  0  0  0  0  0  0  0  0  0  0
   41.1180   28.8010   43.3170 H   0  0  0  0  0  0  0  0  0  0  0  0
   36.3550   28.0070   41.1130 C   0  0  2  0  0  0  0  0  0  0  0  0
   36.5430   26.9170   40.1080 C   0  0  0  0  0  0  0  0  0  0  0  0
   36.5800   27.3370   38.6960 C   0  0  0  0  0  0  0  0  0  0  0  0
   35.3040   28.1150   38.4510 C   0  0  0  0  0  0  0  0  0  0  0  0
   35.2570   29.3640   39.2240 C   0  0  0  0  0  0  0  0  0  0  0  0
   35.8190   29.2650   40.6140 C   0  0  0  0  0  0  0  0  0  0  0  0
   35.6940   27.6580   41.9440 H   0  0  0  0  0  0  0  0  0  0  0  0
   37.4520   26.3030   40.3020 H   0  0  0  0  0  0  0  0  0  0  0  0
   35.7010   26.1840   40.2480 H   0  0  0  0  0  0  0  0  0  0  0  0
   37.4880   27.8870   38.4370 H   0  0  0  0  0  0  0  0  0  0  0  0
   36.5210   26.4370   38.0570 H   0  0  0  0  0  0  0  0  0  0  0  0
   34.4440   27.4580   38.5380 H   0  0  0  0  0  0  0  0  0  0  0  0
   35.3820   28.4510   37.3900 H   0  0  0  0  0  0  0  0  0  0  0  0
   34.9280   30.3510   39.0690 H   0  0  0  0  0  0  0  0  0  0  0  0
   35.8360   30.4040   41.4650 N   0  0  0  0  0  0  0  0  0  0  0  0
   35.1750   30.5560   42.2590 H   0  0  0  0  0  0  0  0  0  0  0  0
   36.5890   31.0800   41.2090 H   0  0  0  0  0  0  0  0  0  0  0  0
   40.4530   30.5190   41.3360 N   0  0  0  0  0  0  0  0  0  0  0  0
   41.7710   30.7460   41.1250 C   0  0  0  0  0  0  0  0  0  0  0  0
   42.4750   29.9640   41.3900 H   0  0  0  0  0  0  0  0  0  0  0  0
   41.9510   31.9660   40.5990 N   0  0  0  0  0  0  0  0  0  0  0  0
   40.7400   32.5480   40.4630 C   0  0  0  0  0  0  0  0  0  0  0  0
   40.4480   33.7910   39.9700 C   0  0  0  0  0  0  0  0  0  0  0  0
   41.1660   34.4890   39.6150 H   0  0  0  0  0  0  0  0  0  0  0  0
   39.1490   34.1610   39.9290 N   0  0  0  0  0  0  0  0  0  0  0  0
   38.2090   33.2880   40.3750 C   0  0  0  0  0  0  0  0  0  0  0  0
   37.1380   33.4690   40.3940 H   0  0  0  0  0  0  0  0  0  0  0  0
   38.5500   32.0760   40.8520 N   0  0  0  0  0  0  0  0  0  0  0  0
   39.8080   31.6360   40.9260 C   0  0  0  0  0  0  0  0  0  0  0  0
  1  7  1  0  0  0  0
  2  1  1  0  0  0  0
  2  8  1  0  0  0  0
  3  2  2  0  0  0  0
  4  5  2  0  0  0  0
  4  3  1  0  0  0  0
  5  6  1  0  0  0  0
  6  1  2  0  0  0  0
  9  5  1  0  0  0  0
  9 15  1  1  0  0  0
 10 17  1  0  0  0  0
 10 16  1  0  0  0  0
 10  9  1  0  0  0  0
 11 10  1  0  0  0  0
 12 20  1  0  0  0  0
 12 11  1  0  0  0  0
 12 13  1  0  0  0  0
 13 14  2  0  0  0  0
 14  9  1  0  0  0  0
 14 23  1  0  0  0  0
 18 11  1  0  0  0  0
 19 11  1  0  0  0  0
 21 12  1  0  0  0  0
 22 13  1  0  0  0  0
 23 24  1  0  0  0  0
 25 23  1  0  0  0  0
 26  3  1  0  0  0  0
 27 26  1  0  0  0  0
 27 28  1  0  0  0  0
 29 27  2  0  0  0  0
 30 29  1  0  0  0  0
 30 37  1  0  0  0  0
 31 30  2  0  0  0  0
 32 31  1  0  0  0  0
 33 31  1  0  0  0  0
 33 34  2  0  0  0  0
 34 35  1  0  0  0  0
 34 36  1  0  0  0  0
 36 37  2  0  0  0  0
 37 26  1  0  0  0  0
M  END
>  <minimizedAffinity>
-5.73077488

$$$$

 OpenBabel03252505053D

 37 40  0  0  1  0  0  0  0  0999 V2000
   39.8390   29.0880   42.8460 C   0  0  0  0  0  0  0  0  0  0  0  0
   40.3780   30.2050   42.1820 C   0  0  0  0  0  0  0  0  0  0  0  0
   39.5970   30.7680   41.1440 C   0  0  0  0  0  0  0  0  0  0  0  0
   38.3970   30.2060   40.8560 N   0  0  0  0  0  0  0  0  0  0  0  0
   37.9270   29.1430   41.5160 C   0  0  0  0  0  0  0  0  0  0  0  0
   38.6510   28.5670   42.5290 N   0  0  0  0  0  0  0  0  0  0  0  0
   40.4640   28.6800   43.6370 H   0  0  0  0  0  0  0  0  0  0  0  0
   41.3260   30.6500   42.4090 H   0  0  0  0  0  0  0  0  0  0  0  0
   36.6060   28.5850   41.1320 C   0  0  2  0  0  0  0  0  0  0  0  0
   36.8930   27.4300   40.2290 C   0  0  0  0  0  0  0  0  0  0  0  0
   36.6330   27.6500   38.7940 C   0  0  0  0  0  0  0  0  0  0  0  0
   35.1910   28.1040   38.6890 C   0  0  0  0  0  0  0  0  0  0  0  0
   34.9720   29.4100   39.3250 C   0  0  0  0  0  0  0  0  0  0  0  0
   35.7330   29.6230   40.6040 C   0  0  0  0  0  0  0  0  0  0  0  0
   36.1660   28.2240   42.0950 H   0  0  0  0  0  0  0  0  0  0  0  0
   37.9360   27.0520   40.3290 H   0  0  0  0  0  0  0  0  0  0  0  0
   36.2680   26.5650   40.5840 H   0  0  0  0  0  0  0  0  0  0  0  0
   37.3460   28.3360   38.3310 H   0  0  0  0  0  0  0  0  0  0  0  0
   36.6910   26.6780   38.2710 H   0  0  0  0  0  0  0  0  0  0  0  0
   34.5250   27.3010   38.9870 H   0  0  0  0  0  0  0  0  0  0  0  0
   35.0400   28.2990   37.6010 H   0  0  0  0  0  0  0  0  0  0  0  0
   34.4090   30.2750   39.1270 H   0  0  0  0  0  0  0  0  0  0  0  0
   35.6100   30.8470   41.3170 N   0  0  0  0  0  0  0  0  0  0  0  0
   35.0510   30.9650   42.1910 H   0  0  0  0  0  0  0  0  0  0  0  0
   36.1460   31.6230   40.8690 H   0  0  0  0  0  0  0  0  0  0  0  0
   40.0190   31.8950   40.3940 N   0  0  0  0  0  0  0  0  0  0  0  0
   39.9060   33.2370   40.5310 C   0  0  0  0  0  0  0  0  0  0  0  0
   39.3780   33.6210   41.3970 H   0  0  0  0  0  0  0  0  0  0  0  0
   40.5050   33.8590   39.5050 N   0  0  0  0  0  0  0  0  0  0  0  0
   41.0190   32.9160   38.6850 C   0  0  0  0  0  0  0  0  0  0  0  0
   41.7130   33.0950   37.5190 C   0  0  0  0  0  0  0  0  0  0  0  0
   41.9480   34.0390   37.0900 H   0  0  0  0  0  0  0  0  0  0  0  0
   42.1330   31.9920   36.8620 N   0  0  0  0  0  0  0  0  0  0  0  0
   41.8470   30.7720   37.3890 C   0  0  0  0  0  0  0  0  0  0  0  0
   42.1290   29.8160   36.9560 H   0  0  0  0  0  0  0  0  0  0  0  0
   41.1600   30.6520   38.5400 N   0  0  0  0  0  0  0  0  0  0  0  0
   40.7110   31.6910   39.2480 C   0  0  0  0  0  0  0  0  0  0  0  0
  1  7  1  0  0  0  0
  2  8  1  0  0  0  0
  2  1  2  0  0  0  0
  3  2  1  0  0  0  0
  4  3  2  0  0  0  0
  4  5  1  0  0  0  0
  5  6  2  0  0  0  0
  6  1  1  0  0  0  0
  9  5  1  0  0  0  0
  9 15  1  1  0  0  0
 10 16  1  0  0  0  0
 10 17  1  0  0  0  0
 10  9  1  0  0  0  0
 11 10  1  0  0  0  0
 12 11  1  0  0  0  0
 12 20  1  0  0  0  0
 12 13  1  0  0  0  0
 13 14  2  0  0  0  0
 14  9  1  0  0  0  0
 14 23  1  0  0  0  0
 18 11  1  0  0  0  0
 19 11  1  0  0  0  0
 21 12  1  0  0  0  0
 22 13  1  0  0  0  0
 23 24  1  0  0  0  0
 25 23  1  0  0  0  0
 26 27  1  0  0  0  0
 26  3  1  0  0  0  0
 27 28  1  0  0  0  0
 29 27  2  0  0  0  0
 30 37  1  0  0  0  0
 30 29  1  0  0  0  0
 31 30  2  0  0  0  0
 32 31  1  0  0  0  0
 33 34  2  0  0  0  0
 33 31  1  0  0  0  0
 34 36  1  0  0  0  0
 35 34  1  0  0  0  0
 36 37  2  0  0  0  0
 37 26  1  0  0  0  0
M  END
>  <minimizedAffinity>
-5.72940779

$$$$

 OpenBabel03252505053D

 37 40  0  0  1  0  0  0  0  0999 V2000
   36.2350   29.7740   38.1800 C   0  0  0  0  0  0  0  0  0  0  0  0
   36.9510   30.9750   38.3340 C   0  0  0  0  0  0  0  0  0  0  0  0
   37.8620   31.0390   39.4150 C   0  0  0  0  0  0  0  0  0  0  0  0
   37.9890   29.9580   40.2240 N   0  0  0  0  0  0  0  0  0  0  0  0
   37.2850   28.8370   40.0360 C   0  0  0  0  0  0  0  0  0  0  0  0
   36.3920   28.7330   39.0020 N   0  0  0  0  0  0  0  0  0  0  0  0
   35.5430   29.7580   37.3410 H   0  0  0  0  0  0  0  0  0  0  0  0
   36.8510   31.8300   37.6960 H   0  0  0  0  0  0  0  0  0  0  0  0
   37.4800   27.7010   40.9730 C   0  0  2  0  0  0  0  0  0  0  0  0
   36.6450   28.0100   42.1730 C   0  0  0  0  0  0  0  0  0  0  0  0
   37.3760   28.4470   43.3760 C   0  0  0  0  0  0  0  0  0  0  0  0
   38.4020   27.3710   43.6640 C   0  0  0  0  0  0  0  0  0  0  0  0
   39.4190   27.2750   42.6080 C   0  0  0  0  0  0  0  0  0  0  0  0
   38.8950   27.4550   41.2110 C   0  0  0  0  0  0  0  0  0  0  0  0
   37.0650   26.8170   40.4290 H   0  0  0  0  0  0  0  0  0  0  0  0
   35.8530   28.7650   41.9650 H   0  0  0  0  0  0  0  0  0  0  0  0
   36.0600   27.0810   42.4210 H   0  0  0  0  0  0  0  0  0  0  0  0
   37.8030   29.4480   43.2760 H   0  0  0  0  0  0  0  0  0  0  0  0
   36.6780   28.4480   44.2330 H   0  0  0  0  0  0  0  0  0  0  0  0
   37.9040   26.4480   43.9440 H   0  0  0  0  0  0  0  0  0  0  0  0
   38.9610   27.7510   44.5520 H   0  0  0  0  0  0  0  0  0  0  0  0
   40.4560   27.1100   42.5540 H   0  0  0  0  0  0  0  0  0  0  0  0
   39.7770   27.3880   40.0980 N   0  0  0  0  0  0  0  0  0  0  0  0
   39.8490   26.5710   39.4530 H   0  0  0  0  0  0  0  0  0  0  0  0
   40.3520   28.2540   39.9950 H   0  0  0  0  0  0  0  0  0  0  0  0
   38.6490   32.1880   39.6860 N   0  0  0  0  0  0  0  0  0  0  0  0
   38.6100   33.1840   40.6020 C   0  0  0  0  0  0  0  0  0  0  0  0
   37.8170   33.1700   41.3410 H   0  0  0  0  0  0  0  0  0  0  0  0
   39.6240   34.0380   40.3990 N   0  0  0  0  0  0  0  0  0  0  0  0
   40.3360   33.6010   39.3380 C   0  0  0  0  0  0  0  0  0  0  0  0
   41.4510   34.1610   38.7770 C   0  0  0  0  0  0  0  0  0  0  0  0
   41.9230   35.0500   39.1180 H   0  0  0  0  0  0  0  0  0  0  0  0
   41.9980   33.5390   37.7100 N   0  0  0  0  0  0  0  0  0  0  0  0
   41.4170   32.3980   37.2530 C   0  0  0  0  0  0  0  0  0  0  0  0
   41.7620   31.8100   36.4070 H   0  0  0  0  0  0  0  0  0  0  0  0
   40.3200   31.8890   37.8410 N   0  0  0  0  0  0  0  0  0  0  0  0
   39.7190   32.4430   38.8980 C   0  0  0  0  0  0  0  0  0  0  0  0
  1  2  2  0  0  0  0
  1  6  1  0  0  0  0
  2  3  1  0  0  0  0
  3 26  1  0  0  0  0
  3  4  2  0  0  0  0
  5  4  1  0  0  0  0
  5  9  1  0  0  0  0
  6  5  2  0  0  0  0
  7  1  1  0  0  0  0
  8  2  1  0  0  0  0
  9 15  1  6  0  0  0
  9 14  1  0  0  0  0
  9 10  1  0  0  0  0
 10 17  1  0  0  0  0
 10 11  1  0  0  0  0
 11 12  1  0  0  0  0
 11 19  1  0  0  0  0
 12 20  1  0  0  0  0
 12 21  1  0  0  0  0
 13 12  1  0  0  0  0
 14 13  2  0  0  0  0
 16 10  1  0  0  0  0
 18 11  1  0  0  0  0
 22 13  1  0  0  0  0
 23 14  1  0  0  0  0
 24 23  1  0  0  0  0
 25 23  1  0  0  0  0
 26 27  1  0  0  0  0
 27 28  1  0  0  0  0
 29 27  2  0  0  0  0
 30 29  1  0  0  0  0
 31 32  1  0  0  0  0
 31 30  2  0  0  0  0
 33 31  1  0  0  0  0
 34 33  2  0  0  0  0
 34 36  1  0  0  0  0
 35 34  1  0  0  0  0
 36 37  2  0  0  0  0
 37 30  1  0  0  0  0
 37 26  1  0  0  0  0
M  END
>  <minimizedAffinity>
-5.72245836

$$$$

 OpenBabel03252505053D

 37 40  0  0  1  0  0  0  0  0999 V2000
   37.3390   28.2090   43.3960 C   0  0  0  0  0  0  0  0  0  0  0  0
   37.4870   26.8500   43.0650 C   0  0  0  0  0  0  0  0  0  0  0  0
   37.6870   26.5470   41.6970 C   0  0  0  0  0  0  0  0  0  0  0  0
   37.7240   27.5660   40.8030 N   0  0  0  0  0  0  0  0  0  0  0  0
   37.5770   28.8440   41.1680 C   0  0  0  0  0  0  0  0  0  0  0  0
   37.3820   29.1820   42.4820 N   0  0  0  0  0  0  0  0  0  0  0  0
   37.1860   28.4080   44.4550 H   0  0  0  0  0  0  0  0  0  0  0  0
   37.4590   26.0440   43.7700 H   0  0  0  0  0  0  0  0  0  0  0  0
   37.6230   29.8990   40.1240 C   0  0  2  0  0  0  0  0  0  0  0  0
   39.0680   30.0840   39.7890 C   0  0  0  0  0  0  0  0  0  0  0  0
   39.7030   31.3070   40.3130 C   0  0  0  0  0  0  0  0  0  0  0  0
   38.8580   32.4650   39.8260 C   0  0  0  0  0  0  0  0  0  0  0  0
   37.5080   32.4520   40.4070 C   0  0  0  0  0  0  0  0  0  0  0  0
   36.8970   31.0870   40.5470 C   0  0  0  0  0  0  0  0  0  0  0  0
   37.0780   29.4540   39.2550 H   0  0  0  0  0  0  0  0  0  0  0  0
   39.6970   29.2170   40.0970 H   0  0  0  0  0  0  0  0  0  0  0  0
   39.1540   30.0810   38.6670 H   0  0  0  0  0  0  0  0  0  0  0  0
   39.8400   31.2860   41.3970 H   0  0  0  0  0  0  0  0  0  0  0  0
   40.6930   31.4230   39.8360 H   0  0  0  0  0  0  0  0  0  0  0  0
   38.9210   32.5440   38.7450 H   0  0  0  0  0  0  0  0  0  0  0  0
   39.3410   33.3670   40.2710 H   0  0  0  0  0  0  0  0  0  0  0  0
   36.8220   33.1620   40.7690 H   0  0  0  0  0  0  0  0  0  0  0  0
   35.5950   30.9360   41.0980 N   0  0  0  0  0  0  0  0  0  0  0  0
   34.7370   30.7370   40.5360 H   0  0  0  0  0  0  0  0  0  0  0  0
   35.5880   31.0460   42.1360 H   0  0  0  0  0  0  0  0  0  0  0  0
   37.8520   25.2200   41.2240 N   0  0  0  0  0  0  0  0  0  0  0  0
   38.6230   24.1640   41.5750 C   0  0  0  0  0  0  0  0  0  0  0  0
   39.3060   24.2820   42.4090 H   0  0  0  0  0  0  0  0  0  0  0  0
   38.3720   23.1210   40.7710 N   0  0  0  0  0  0  0  0  0  0  0  0
   37.4260   23.4940   39.8810 C   0  0  0  0  0  0  0  0  0  0  0  0
   36.8670   22.7510   38.8770 C   0  0  0  0  0  0  0  0  0  0  0  0
   37.1150   21.7410   38.6570 H   0  0  0  0  0  0  0  0  0  0  0  0
   35.9290   23.3420   38.1050 N   0  0  0  0  0  0  0  0  0  0  0  0
   35.5920   24.6320   38.3640 C   0  0  0  0  0  0  0  0  0  0  0  0
   34.8550   25.2140   37.8170 H   0  0  0  0  0  0  0  0  0  0  0  0
   36.1720   25.3190   39.3660 N   0  0  0  0  0  0  0  0  0  0  0  0
   37.1060   24.8080   40.1720 C   0  0  0  0  0  0  0  0  0  0  0  0
  1  7  1  0  0  0  0
  2  1  1  0  0  0  0
  2  8  1  0  0  0  0
  3  2  2  0  0  0  0
  4  5  2  0  0  0  0
  4  3  1  0  0  0  0
  5  6  1  0  0  0  0
  6  1  2  0  0  0  0
  9 15  1  6  0  0  0
  9 14  1  0  0  0  0
  9  5  1  0  0  0  0
 10 16  1  0  0  0  0
 10  9  1  0  0  0  0
 10 11  1  0  0  0  0
 11 18  1  0  0  0  0
 12 21  1  0  0  0  0
 12 11  1  0  0  0  0
 12 13  1  0  0  0  0
 13 14  2  0  0  0  0
 13 22  1  0  0  0  0
 14 23  1  0  0  0  0
 17 10  1  0  0  0  0
 19 11  1  0  0  0  0
 20 12  1  0  0  0  0
 23 25  1  0  0  0  0
 24 23  1  0  0  0  0
 26 27  1  0  0  0  0
 26  3  1  0  0  0  0
 27 28  1  0  0  0  0
 29 27  2  0  0  0  0
 30 37  1  0  0  0  0
 30 29  1  0  0  0  0
 31 30  2  0  0  0  0
 32 31  1  0  0  0  0
 33 34  2  0  0  0  0
 33 31  1  0  0  0  0
 34 36  1  0  0  0  0
 35 34  1  0  0  0  0
 36 37  2  0  0  0  0
 37 26  1  0  0  0  0
M  END
>  <minimizedAffinity>
-5.57284069

$$$$

 OpenBabel03252505053D

 37 40  0  0  1  0  0  0  0  0999 V2000
   36.7620   31.5230   39.0770 C   0  0  0  0  0  0  0  0  0  0  0  0
   37.9490   31.5150   38.3220 C   0  0  0  0  0  0  0  0  0  0  0  0
   39.0800   30.9090   38.9210 C   0  0  0  0  0  0  0  0  0  0  0  0
   38.9540   30.3830   40.1660 N   0  0  0  0  0  0  0  0  0  0  0  0
   37.8020   30.4170   40.8430 C   0  0  0  0  0  0  0  0  0  0  0  0
   36.6830   30.9930   40.3000 N   0  0  0  0  0  0  0  0  0  0  0  0
   35.9130   31.9970   38.5880 H   0  0  0  0  0  0  0  0  0  0  0  0
   38.0500   31.9300   37.3400 H   0  0  0  0  0  0  0  0  0  0  0  0
   37.7520   29.8230   42.2030 C   0  0  2  0  0  0  0  0  0  0  0  0
   39.1700   29.7330   42.6650 C   0  0  0  0  0  0  0  0  0  0  0  0
   39.7660   28.3850   42.6670 C   0  0  0  0  0  0  0  0  0  0  0  0
   38.8460   27.5150   43.4980 C   0  0  0  0  0  0  0  0  0  0  0  0
   37.5240   27.3520   42.8760 C   0  0  0  0  0  0  0  0  0  0  0  0
   36.9870   28.5850   42.2070 C   0  0  0  0  0  0  0  0  0  0  0  0
   37.1920   30.5750   42.8140 H   0  0  0  0  0  0  0  0  0  0  0  0
   39.8530   30.4050   42.0970 H   0  0  0  0  0  0  0  0  0  0  0  0
   39.2080   30.1490   43.7100 H   0  0  0  0  0  0  0  0  0  0  0  0
   39.9500   27.9990   41.6620 H   0  0  0  0  0  0  0  0  0  0  0  0
   40.7280   28.4240   43.2090 H   0  0  0  0  0  0  0  0  0  0  0  0
   38.8580   27.8410   44.5330 H   0  0  0  0  0  0  0  0  0  0  0  0
   39.3020   26.4980   43.4450 H   0  0  0  0  0  0  0  0  0  0  0  0
   36.8200   26.5790   42.7620 H   0  0  0  0  0  0  0  0  0  0  0  0
   35.7180   28.5590   41.5650 N   0  0  0  0  0  0  0  0  0  0  0  0
   34.8480   28.9780   41.9630 H   0  0  0  0  0  0  0  0  0  0  0  0
   35.7500   28.0730   40.6420 H   0  0  0  0  0  0  0  0  0  0  0  0
   40.3390   30.8300   38.2730 N   0  0  0  0  0  0  0  0  0  0  0  0
   41.0560   29.8440   37.6850 C   0  0  0  0  0  0  0  0  0  0  0  0
   40.6340   28.8450   37.6650 H   0  0  0  0  0  0  0  0  0  0  0  0
   42.2150   30.3310   37.2180 N   0  0  0  0  0  0  0  0  0  0  0  0
   42.2610   31.6510   37.5010 C   0  0  0  0  0  0  0  0  0  0  0  0
   43.2550   32.5450   37.2100 C   0  0  0  0  0  0  0  0  0  0  0  0
   44.1580   32.3080   36.7030 H   0  0  0  0  0  0  0  0  0  0  0  0
   43.0780   33.8280   37.5960 N   0  0  0  0  0  0  0  0  0  0  0  0
   41.9330   34.1600   38.2460 C   0  0  0  0  0  0  0  0  0  0  0  0
   41.6760   35.1530   38.6050 H   0  0  0  0  0  0  0  0  0  0  0  0
   40.9850   33.2410   38.5080 N   0  0  0  0  0  0  0  0  0  0  0  0
   41.0830   31.9550   38.1610 C   0  0  0  0  0  0  0  0  0  0  0  0
  1  6  1  0  0  0  0
  2  3  1  0  0  0  0
  2  1  2  0  0  0  0
  3  4  2  0  0  0  0
  4  5  1  0  0  0  0
  5  9  1  0  0  0  0
  6  5  2  0  0  0  0
  7  1  1  0  0  0  0
  8  2  1  0  0  0  0
  9 14  1  0  0  0  0
  9 10  1  0  0  0  0
  9 15  1  1  0  0  0
 10 11  1  0  0  0  0
 10 17  1  0  0  0  0
 11 19  1  0  0  0  0
 11 12  1  0  0  0  0
 12 20  1  0  0  0  0
 13 12  1  0  0  0  0
 14 13  2  0  0  0  0
 16 10  1  0  0  0  0
 18 11  1  0  0  0  0
 21 12  1  0  0  0  0
 22 13  1  0  0  0  0
 23 24  1  0  0  0  0
 23 14  1  0  0  0  0
 25 23  1  0  0  0  0
 26  3  1  0  0  0  0
 27 26  1  0  0  0  0
 28 27  1  0  0  0  0
 29 30  1  0  0  0  0
 29 27  2  0  0  0  0
 30 37  1  0  0  0  0
 31 30  2  0  0  0  0
 31 33  1  0  0  0  0
 32 31  1  0  0  0  0
 33 34  2  0  0  0  0
 34 36  1  0  0  0  0
 34 35  1  0  0  0  0
 37 26  1  0  0  0  0
 37 36  2  0  0  0  0
M  END
>  <minimizedAffinity>
-5.57041597

$$$$
