
 OpenBabel03252503213D

 42 46  0  0  0  0  0  0  0  0999 V2000
   37.8900   31.3650   40.7720 C   0  0  0  0  0  0  0  0  0  0  0  0
   38.7510   30.7840   41.6620 C   0  0  0  0  0  0  0  0  0  0  0  0
   38.1100   29.6980   42.1450 N   0  0  0  0  0  0  0  0  0  0  0  0
   36.9110   29.6210   41.5740 C   0  0  0  0  0  0  0  0  0  0  0  0
   36.7630   30.6480   40.7200 N   0  0  0  0  0  0  0  0  0  0  0  0
   35.8710   28.6680   41.7470 N   0  0  0  0  0  0  0  0  0  0  0  0
   39.7410   31.1190   41.9290 H   0  0  0  0  0  0  0  0  0  0  0  0
   36.1910   27.6580   41.6720 H   0  0  0  0  0  0  0  0  0  0  0  0
   34.9030   29.0150   41.9280 H   0  0  0  0  0  0  0  0  0  0  0  0
   38.5810   28.7400   43.1150 C   0  0  0  0  0  0  0  0  0  0  0  0
   37.7420   28.3140   43.7070 H   0  0  0  0  0  0  0  0  0  0  0  0
   39.2650   29.2150   43.8340 H   0  0  0  0  0  0  0  0  0  0  0  0
   39.2230   27.6770   42.3620 N   0  0  0  0  0  0  0  0  0  0  0  0
   40.4280   27.5870   41.7720 C   0  0  0  0  0  0  0  0  0  0  0  0
   41.0810   28.4470   41.8430 H   0  0  0  0  0  0  0  0  0  0  0  0
   40.5740   26.3840   41.1860 N   0  0  0  0  0  0  0  0  0  0  0  0
   39.4550   25.6600   41.3870 C   0  0  0  0  0  0  0  0  0  0  0  0
   39.0920   24.3830   41.0030 C   0  0  0  0  0  0  0  0  0  0  0  0
   39.7810   23.7770   40.4260 H   0  0  0  0  0  0  0  0  0  0  0  0
   37.8560   23.9450   41.3800 N   0  0  0  0  0  0  0  0  0  0  0  0
   37.0490   24.7690   42.1040 C   0  0  0  0  0  0  0  0  0  0  0  0
   36.0650   24.3670   42.3830 H   0  0  0  0  0  0  0  0  0  0  0  0
   37.3820   26.0140   42.4890 N   0  0  0  0  0  0  0  0  0  0  0  0
   38.6090   26.4800   42.1280 C   0  0  0  0  0  0  0  0  0  0  0  0
   38.1200   32.5980   39.9600 C   0  0  0  0  0  0  0  0  0  0  0  0
   37.3370   33.5930   39.9030 O   0  0  0  0  0  0  0  0  0  0  0  0
   40.2940   33.6540   39.4990 C   0  0  0  0  0  0  0  0  0  0  0  0
   39.2970   32.7120   39.1720 C   0  0  0  0  0  0  0  0  0  0  0  0
   39.5960   31.9530   38.0470 C   0  0  0  0  0  0  0  0  0  0  0  0
   40.7100   32.0930   37.3410 N   0  0  0  0  0  0  0  0  0  0  0  0
   41.6340   33.0270   37.7120 C   0  0  0  0  0  0  0  0  0  0  0  0
   41.4150   33.7940   38.7840 N   0  0  0  0  0  0  0  0  0  0  0  0
   40.0880   34.2690   40.3830 H   0  0  0  0  0  0  0  0  0  0  0  0
   42.5460   33.1710   37.1670 H   0  0  0  0  0  0  0  0  0  0  0  0
   38.6420   30.9720   37.6360 C   0  0  0  0  0  0  0  0  0  0  0  0
   37.4380   30.9770   37.0160 C   0  0  0  0  0  0  0  0  0  0  0  0
   36.7520   29.8890   36.7500 C   0  0  0  0  0  0  0  0  0  0  0  0
   37.3240   28.7410   37.1380 C   0  0  0  0  0  0  0  0  0  0  0  0
   38.8950   29.2240   37.9070 S   0  0  0  0  0  0  0  0  0  0  0  0
   37.0980   32.0020   36.7590 H   0  0  0  0  0  0  0  0  0  0  0  0
   35.7880   29.8470   36.2580 H   0  0  0  0  0  0  0  0  0  0  0  0
   36.9080   27.6480   37.0120 H   0  0  0  0  0  0  0  0  0  0  0  0
  1  2  2  0  0  0  0
  2  7  1  0  0  0  0
  2  3  1  0  0  0  0
  3 10  1  0  0  0  0
  4  6  1  0  0  0  0
  4  3  1  0  0  0  0
  5  1  1  0  0  0  0
  5  4  2  0  0  0  0
  6  9  1  0  0  0  0
  8  6  1  0  0  0  0
 10 11  1  0  0  0  0
 10 12  1  0  0  0  0
 13 10  1  0  0  0  0
 14 15  1  0  0  0  0
 14 13  1  0  0  0  0
 16 17  1  0  0  0  0
 16 14  2  0  0  0  0
 17 24  1  0  0  0  0
 18 20  1  0  0  0  0
 18 17  2  0  0  0  0
 19 18  1  0  0  0  0
 20 21  2  0  0  0  0
 21 22  1  0  0  0  0
 21 23  1  0  0  0  0
 24 13  1  0  0  0  0
 24 23  2  0  0  0  0
 25  1  1  0  0  0  0
 26 25  2  0  0  0  0
 27 33  1  0  0  0  0
 28 27  1  0  0  0  0
 28 25  1  0  0  0  0
 29 28  2  0  0  0  0
 30 31  2  0  0  0  0
 30 29  1  0  0  0  0
 31 32  1  0  0  0  0
 32 27  2  0  0  0  0
 34 31  1  0  0  0  0
 35 39  1  0  0  0  0
 35 29  1  0  0  0  0
 36 35  2  0  0  0  0
 37 36  1  0  0  0  0
 37 38  2  0  0  0  0
 38 39  1  0  0  0  0
 40 36  1  0  0  0  0
 41 37  1  0  0  0  0
 42 38  1  0  0  0  0
M  END
>  <minimizedAffinity>
-6.15099764

$$$$

 OpenBabel03252503213D

 42 46  0  0  0  0  0  0  0  0999 V2000
   38.3330   28.7600   41.7480 C   0  0  0  0  0  0  0  0  0  0  0  0
   38.7420   29.3550   40.5860 C   0  0  0  0  0  0  0  0  0  0  0  0
   37.7990   30.2760   40.2900 N   0  0  0  0  0  0  0  0  0  0  0  0
   36.8600   30.2430   41.2300 C   0  0  0  0  0  0  0  0  0  0  0  0
   37.1790   29.3080   42.1400 N   0  0  0  0  0  0  0  0  0  0  0  0
   35.6710   31.0110   41.3690 N   0  0  0  0  0  0  0  0  0  0  0  0
   39.6320   29.1390   40.0170 H   0  0  0  0  0  0  0  0  0  0  0  0
   35.8170   32.0590   41.2720 H   0  0  0  0  0  0  0  0  0  0  0  0
   34.7730   30.5090   41.5480 H   0  0  0  0  0  0  0  0  0  0  0  0
   37.7530   31.1770   39.1640 C   0  0  0  0  0  0  0  0  0  0  0  0
   36.7250   31.5640   38.9940 H   0  0  0  0  0  0  0  0  0  0  0  0
   38.0550   30.6630   38.2390 H   0  0  0  0  0  0  0  0  0  0  0  0
   38.6320   32.2870   39.4910 N   0  0  0  0  0  0  0  0  0  0  0  0
   38.5690   33.2420   40.4360 C   0  0  0  0  0  0  0  0  0  0  0  0
   37.7200   33.2240   41.1050 H   0  0  0  0  0  0  0  0  0  0  0  0
   39.6330   34.0620   40.3430 N   0  0  0  0  0  0  0  0  0  0  0  0
   40.4170   33.6510   39.3260 C   0  0  0  0  0  0  0  0  0  0  0  0
   41.6070   34.1330   38.8160 C   0  0  0  0  0  0  0  0  0  0  0  0
   42.0690   35.0070   39.2590 H   0  0  0  0  0  0  0  0  0  0  0  0
   42.1480   33.4660   37.7550 N   0  0  0  0  0  0  0  0  0  0  0  0
   41.5030   32.3750   37.2550 C   0  0  0  0  0  0  0  0  0  0  0  0
   41.9810   31.8740   36.4020 H   0  0  0  0  0  0  0  0  0  0  0  0
   40.3450   31.8890   37.7370 N   0  0  0  0  0  0  0  0  0  0  0  0
   39.7810   32.5330   38.7940 C   0  0  0  0  0  0  0  0  0  0  0  0
   39.0270   27.6720   42.5020 C   0  0  0  0  0  0  0  0  0  0  0  0
   38.7130   27.2700   43.6610 O   0  0  0  0  0  0  0  0  0  0  0  0
   41.4510   27.4440   42.1510 C   0  0  0  0  0  0  0  0  0  0  0  0
   40.1340   27.0030   41.9120 C   0  0  0  0  0  0  0  0  0  0  0  0
   40.0600   25.8960   41.0740 C   0  0  0  0  0  0  0  0  0  0  0  0
   41.1220   25.3040   40.5450 N   0  0  0  0  0  0  0  0  0  0  0  0
   42.3710   25.7830   40.8180 C   0  0  0  0  0  0  0  0  0  0  0  0
   42.5200   26.8440   41.6160 N   0  0  0  0  0  0  0  0  0  0  0  0
   41.5430   28.3160   42.8100 H   0  0  0  0  0  0  0  0  0  0  0  0
   43.2540   25.3320   40.4100 H   0  0  0  0  0  0  0  0  0  0  0  0
   38.7640   25.3790   40.7700 C   0  0  0  0  0  0  0  0  0  0  0  0
   37.8220   25.5920   39.8200 C   0  0  0  0  0  0  0  0  0  0  0  0
   36.6760   24.9540   39.7750 C   0  0  0  0  0  0  0  0  0  0  0  0
   36.4820   24.0540   40.7490 C   0  0  0  0  0  0  0  0  0  0  0  0
   37.9830   24.1180   41.7660 S   0  0  0  0  0  0  0  0  0  0  0  0
   38.1300   26.3660   39.0860 H   0  0  0  0  0  0  0  0  0  0  0  0
   35.8970   25.0930   39.0350 H   0  0  0  0  0  0  0  0  0  0  0  0
   35.5440   23.3650   40.9190 H   0  0  0  0  0  0  0  0  0  0  0  0
  1  5  1  0  0  0  0
  1 25  1  0  0  0  0
  2  1  2  0  0  0  0
  3  2  1  0  0  0  0
  3  4  1  0  0  0  0
  4  6  1  0  0  0  0
  4  5  2  0  0  0  0
  6  9  1  0  0  0  0
  7  2  1  0  0  0  0
  8  6  1  0  0  0  0
 10 13  1  0  0  0  0
 10  3  1  0  0  0  0
 11 10  1  0  0  0  0
 12 10  1  0  0  0  0
 13 14  1  0  0  0  0
 14 15  1  0  0  0  0
 16 14  2  0  0  0  0
 17 16  1  0  0  0  0
 18 19  1  0  0  0  0
 18 17  1  0  0  0  0
 20 18  2  0  0  0  0
 21 23  2  0  0  0  0
 21 20  1  0  0  0  0
 22 21  1  0  0  0  0
 23 24  1  0  0  0  0
 24 17  2  0  0  0  0
 24 13  1  0  0  0  0
 25 26  2  0  0  0  0
 27 33  1  0  0  0  0
 28 27  1  0  0  0  0
 28 25  1  0  0  0  0
 29 28  2  0  0  0  0
 30 31  2  0  0  0  0
 30 29  1  0  0  0  0
 31 32  1  0  0  0  0
 32 27  2  0  0  0  0
 34 31  1  0  0  0  0
 35 29  1  0  0  0  0
 35 39  1  0  0  0  0
 36 35  2  0  0  0  0
 37 36  1  0  0  0  0
 37 38  2  0  0  0  0
 38 42  1  0  0  0  0
 38 39  1  0  0  0  0
 40 36  1  0  0  0  0
 41 37  1  0  0  0  0
M  END
>  <minimizedAffinity>
-6.10135412

$$$$

 OpenBabel03252503213D

 42 46  0  0  0  0  0  0  0  0999 V2000
   36.3950   30.2590   39.1370 C   0  0  0  0  0  0  0  0  0  0  0  0
   36.9420   31.2030   39.9620 C   0  0  0  0  0  0  0  0  0  0  0  0
   37.6920   31.9990   39.1690 N   0  0  0  0  0  0  0  0  0  0  0  0
   37.6040   31.5600   37.9180 C   0  0  0  0  0  0  0  0  0  0  0  0
   36.8030   30.4820   37.8830 N   0  0  0  0  0  0  0  0  0  0  0  0
   38.2030   32.0530   36.7270 N   0  0  0  0  0  0  0  0  0  0  0  0
   36.8080   31.2980   41.0280 H   0  0  0  0  0  0  0  0  0  0  0  0
   38.0800   33.0980   36.5790 H   0  0  0  0  0  0  0  0  0  0  0  0
   38.7050   31.3800   36.1060 H   0  0  0  0  0  0  0  0  0  0  0  0
   38.4800   33.1470   39.5460 C   0  0  0  0  0  0  0  0  0  0  0  0
   38.0180   33.6970   40.3950 H   0  0  0  0  0  0  0  0  0  0  0  0
   38.5570   33.8610   38.7120 H   0  0  0  0  0  0  0  0  0  0  0  0
   39.7770   32.6370   39.9570 N   0  0  0  0  0  0  0  0  0  0  0  0
   40.2130   32.0990   41.1100 C   0  0  0  0  0  0  0  0  0  0  0  0
   39.4990   32.0090   41.9170 H   0  0  0  0  0  0  0  0  0  0  0  0
   41.5150   31.7710   41.0100 N   0  0  0  0  0  0  0  0  0  0  0  0
   41.9550   32.0920   39.7760 C   0  0  0  0  0  0  0  0  0  0  0  0
   43.1880   31.9660   39.1670 C   0  0  0  0  0  0  0  0  0  0  0  0
   44.0190   31.5370   39.7150 H   0  0  0  0  0  0  0  0  0  0  0  0
   43.2960   32.4000   37.8780 N   0  0  0  0  0  0  0  0  0  0  0  0
   42.2040   32.9290   37.2590 C   0  0  0  0  0  0  0  0  0  0  0  0
   42.3440   33.2630   36.2220 H   0  0  0  0  0  0  0  0  0  0  0  0
   40.9940   33.0600   37.8330 N   0  0  0  0  0  0  0  0  0  0  0  0
   40.8550   32.6360   39.1190 C   0  0  0  0  0  0  0  0  0  0  0  0
   35.4810   29.1400   39.5190 C   0  0  0  0  0  0  0  0  0  0  0  0
   34.3580   29.2750   40.0880 O   0  0  0  0  0  0  0  0  0  0  0  0
   35.4440   27.1630   38.0560 C   0  0  0  0  0  0  0  0  0  0  0  0
   35.8590   27.7980   39.2440 C   0  0  0  0  0  0  0  0  0  0  0  0
   36.6400   26.9910   40.0640 C   0  0  0  0  0  0  0  0  0  0  0  0
   36.9690   25.7420   39.7660 N   0  0  0  0  0  0  0  0  0  0  0  0
   36.5320   25.1870   38.5970 C   0  0  0  0  0  0  0  0  0  0  0  0
   35.7780   25.9020   37.7590 N   0  0  0  0  0  0  0  0  0  0  0  0
   34.8260   27.7730   37.3870 H   0  0  0  0  0  0  0  0  0  0  0  0
   36.7770   24.1800   38.3210 H   0  0  0  0  0  0  0  0  0  0  0  0
   37.1060   27.5490   41.2940 C   0  0  0  0  0  0  0  0  0  0  0  0
   36.6130   27.7070   42.5460 C   0  0  0  0  0  0  0  0  0  0  0  0
   37.2800   28.2750   43.5240 C   0  0  0  0  0  0  0  0  0  0  0  0
   38.5100   28.7030   43.2070 C   0  0  0  0  0  0  0  0  0  0  0  0
   38.7270   28.2820   41.4550 S   0  0  0  0  0  0  0  0  0  0  0  0
   35.5850   27.3030   42.6500 H   0  0  0  0  0  0  0  0  0  0  0  0
   36.9260   28.4210   44.5360 H   0  0  0  0  0  0  0  0  0  0  0  0
   39.2910   29.2370   43.9050 H   0  0  0  0  0  0  0  0  0  0  0  0
  1 25  1  0  0  0  0
  1  2  2  0  0  0  0
  2  7  1  0  0  0  0
  3 10  1  0  0  0  0
  3  2  1  0  0  0  0
  4  3  1  0  0  0  0
  5  4  2  0  0  0  0
  5  1  1  0  0  0  0
  6  4  1  0  0  0  0
  8  6  1  0  0  0  0
  9  6  1  0  0  0  0
 10 13  1  0  0  0  0
 10 11  1  0  0  0  0
 12 10  1  0  0  0  0
 13 14  1  0  0  0  0
 14 15  1  0  0  0  0
 16 14  2  0  0  0  0
 17 16  1  0  0  0  0
 18 19  1  0  0  0  0
 18 17  1  0  0  0  0
 20 18  2  0  0  0  0
 21 23  2  0  0  0  0
 21 20  1  0  0  0  0
 22 21  1  0  0  0  0
 23 24  1  0  0  0  0
 24 17  2  0  0  0  0
 24 13  1  0  0  0  0
 25 26  2  0  0  0  0
 27 28  1  0  0  0  0
 28 25  1  0  0  0  0
 28 29  2  0  0  0  0
 29 35  1  0  0  0  0
 30 29  1  0  0  0  0
 31 30  2  0  0  0  0
 32 27  2  0  0  0  0
 32 31  1  0  0  0  0
 33 27  1  0  0  0  0
 34 31  1  0  0  0  0
 35 39  1  0  0  0  0
 35 36  2  0  0  0  0
 36 40  1  0  0  0  0
 36 37  1  0  0  0  0
 37 41  1  0  0  0  0
 38 37  2  0  0  0  0
 38 42  1  0  0  0  0
 39 38  1  0  0  0  0
M  END
>  <minimizedAffinity>
-6.08520079

$$$$

 OpenBabel03252503213D

 42 46  0  0  0  0  0  0  0  0999 V2000
   38.1610   29.3680   42.1850 C   0  0  0  0  0  0  0  0  0  0  0  0
   37.6140   30.3000   41.3460 C   0  0  0  0  0  0  0  0  0  0  0  0
   38.4830   31.3340   41.3260 N   0  0  0  0  0  0  0  0  0  0  0  0
   39.5120   31.0440   42.1160 C   0  0  0  0  0  0  0  0  0  0  0  0
   39.3250   29.8270   42.6550 N   0  0  0  0  0  0  0  0  0  0  0  0
   40.6750   31.8000   42.4250 N   0  0  0  0  0  0  0  0  0  0  0  0
   36.6820   30.2310   40.8090 H   0  0  0  0  0  0  0  0  0  0  0  0
   41.1820   32.1860   41.5750 H   0  0  0  0  0  0  0  0  0  0  0  0
   40.9390   31.9200   43.4290 H   0  0  0  0  0  0  0  0  0  0  0  0
   38.3790   32.5740   40.5950 C   0  0  0  0  0  0  0  0  0  0  0  0
   38.8510   33.4140   41.1490 H   0  0  0  0  0  0  0  0  0  0  0  0
   37.3240   32.8500   40.4400 H   0  0  0  0  0  0  0  0  0  0  0  0
   39.0860   32.3710   39.3420 N   0  0  0  0  0  0  0  0  0  0  0  0
   38.7770   31.6780   38.2320 C   0  0  0  0  0  0  0  0  0  0  0  0
   37.8320   31.1520   38.2210 H   0  0  0  0  0  0  0  0  0  0  0  0
   39.7620   31.7900   37.3210 N   0  0  0  0  0  0  0  0  0  0  0  0
   40.7410   32.5680   37.8270 C   0  0  0  0  0  0  0  0  0  0  0  0
   41.9510   32.9920   37.3130 C   0  0  0  0  0  0  0  0  0  0  0  0
   42.2510   32.6860   36.3170 H   0  0  0  0  0  0  0  0  0  0  0  0
   42.7210   33.7910   38.1060 N   0  0  0  0  0  0  0  0  0  0  0  0
   42.2730   34.1290   39.3470 C   0  0  0  0  0  0  0  0  0  0  0  0
   42.9310   34.7750   39.9440 H   0  0  0  0  0  0  0  0  0  0  0  0
   41.0980   33.7290   39.8660 N   0  0  0  0  0  0  0  0  0  0  0  0
   40.3080   32.9310   39.0990 C   0  0  0  0  0  0  0  0  0  0  0  0
   37.5930   28.0340   42.5510 C   0  0  0  0  0  0  0  0  0  0  0  0
   36.4060   27.8270   42.9380 O   0  0  0  0  0  0  0  0  0  0  0  0
   39.1310   26.4270   43.6020 C   0  0  0  0  0  0  0  0  0  0  0  0
   38.4140   26.8760   42.4750 C   0  0  0  0  0  0  0  0  0  0  0  0
   38.6000   26.0870   41.3450 C   0  0  0  0  0  0  0  0  0  0  0  0
   39.3770   25.0130   41.3200 N   0  0  0  0  0  0  0  0  0  0  0  0
   40.0450   24.6340   42.4490 C   0  0  0  0  0  0  0  0  0  0  0  0
   39.9140   25.3430   43.5730 N   0  0  0  0  0  0  0  0  0  0  0  0
   39.0050   27.0280   44.5100 H   0  0  0  0  0  0  0  0  0  0  0  0
   40.6820   23.7710   42.4690 H   0  0  0  0  0  0  0  0  0  0  0  0
   37.9140   26.4660   40.1510 C   0  0  0  0  0  0  0  0  0  0  0  0
   36.6800   26.2720   39.6260 C   0  0  0  0  0  0  0  0  0  0  0  0
   36.3000   26.7520   38.4650 C   0  0  0  0  0  0  0  0  0  0  0  0
   37.2250   27.4630   37.8070 C   0  0  0  0  0  0  0  0  0  0  0  0
   38.6900   27.4510   38.8780 S   0  0  0  0  0  0  0  0  0  0  0  0
   36.0300   25.6640   40.2890 H   0  0  0  0  0  0  0  0  0  0  0  0
   35.3260   26.6210   38.0090 H   0  0  0  0  0  0  0  0  0  0  0  0
   37.1230   27.9880   36.7590 H   0  0  0  0  0  0  0  0  0  0  0  0
  1 25  1  0  0  0  0
  1  5  1  0  0  0  0
  2  1  2  0  0  0  0
  3  2  1  0  0  0  0
  3  4  1  0  0  0  0
  4  6  1  0  0  0  0
  4  5  2  0  0  0  0
  6  9  1  0  0  0  0
  7  2  1  0  0  0  0
  8  6  1  0  0  0  0
 10 11  1  0  0  0  0
 10  3  1  0  0  0  0
 12 10  1  0  0  0  0
 13 10  1  0  0  0  0
 14 13  1  0  0  0  0
 15 14  1  0  0  0  0
 16 17  1  0  0  0  0
 16 14  2  0  0  0  0
 17 24  1  0  0  0  0
 18 17  2  0  0  0  0
 18 20  1  0  0  0  0
 19 18  1  0  0  0  0
 20 21  2  0  0  0  0
 21 23  1  0  0  0  0
 21 22  1  0  0  0  0
 24 13  1  0  0  0  0
 24 23  2  0  0  0  0
 25 26  2  0  0  0  0
 27 33  1  0  0  0  0
 28 25  1  0  0  0  0
 28 27  2  0  0  0  0
 29 28  1  0  0  0  0
 30 29  2  0  0  0  0
 30 31  1  0  0  0  0
 31 34  1  0  0  0  0
 31 32  2  0  0  0  0
 32 27  1  0  0  0  0
 35 29  1  0  0  0  0
 36 35  2  0  0  0  0
 36 40  1  0  0  0  0
 37 36  1  0  0  0  0
 38 37  2  0  0  0  0
 38 39  1  0  0  0  0
 39 35  1  0  0  0  0
 41 37  1  0  0  0  0
 42 38  1  0  0  0  0
M  END
>  <minimizedAffinity>
-5.86388969

$$$$

 OpenBabel03252503213D

 42 46  0  0  0  0  0  0  0  0999 V2000
   38.2780   28.6890   40.7300 C   0  0  0  0  0  0  0  0  0  0  0  0
   38.5850   29.5810   39.7390 C   0  0  0  0  0  0  0  0  0  0  0  0
   37.6650   30.5660   39.8300 N   0  0  0  0  0  0  0  0  0  0  0  0
   36.8360   30.2860   40.8300 C   0  0  0  0  0  0  0  0  0  0  0  0
   37.2050   29.1250   41.3970 N   0  0  0  0  0  0  0  0  0  0  0  0
   35.7130   31.0050   41.3220 N   0  0  0  0  0  0  0  0  0  0  0  0
   39.3930   29.5180   39.0280 H   0  0  0  0  0  0  0  0  0  0  0  0
   35.9020   32.0350   41.5050 H   0  0  0  0  0  0  0  0  0  0  0  0
   34.8150   30.4910   41.4630 H   0  0  0  0  0  0  0  0  0  0  0  0
   37.5410   31.7500   39.0150 C   0  0  0  0  0  0  0  0  0  0  0  0
   36.5470   32.2320   39.1450 H   0  0  0  0  0  0  0  0  0  0  0  0
   37.6340   31.5020   37.9460 H   0  0  0  0  0  0  0  0  0  0  0  0
   38.5780   32.6650   39.4610 N   0  0  0  0  0  0  0  0  0  0  0  0
   38.6470   33.5150   40.5020 C   0  0  0  0  0  0  0  0  0  0  0  0
   37.7920   33.5620   41.1610 H   0  0  0  0  0  0  0  0  0  0  0  0
   39.8290   34.1600   40.5000 N   0  0  0  0  0  0  0  0  0  0  0  0
   40.5580   33.7370   39.4480 C   0  0  0  0  0  0  0  0  0  0  0  0
   41.8200   34.0740   38.9960 C   0  0  0  0  0  0  0  0  0  0  0  0
   42.4050   34.8120   39.5320 H   0  0  0  0  0  0  0  0  0  0  0  0
   42.2700   33.4430   37.8730 N   0  0  0  0  0  0  0  0  0  0  0  0
   41.4720   32.5270   37.2580 C   0  0  0  0  0  0  0  0  0  0  0  0
   41.8820   32.0490   36.3580 H   0  0  0  0  0  0  0  0  0  0  0  0
   40.2410   32.1840   37.6810 N   0  0  0  0  0  0  0  0  0  0  0  0
   39.7640   32.7960   38.7990 C   0  0  0  0  0  0  0  0  0  0  0  0
   38.9930   27.4180   41.0580 C   0  0  0  0  0  0  0  0  0  0  0  0
   40.2030   27.3330   41.4220 O   0  0  0  0  0  0  0  0  0  0  0  0
   37.6610   25.6310   42.1000 C   0  0  0  0  0  0  0  0  0  0  0  0
   38.3020   26.1800   40.9700 C   0  0  0  0  0  0  0  0  0  0  0  0
   38.1780   25.4000   39.8260 C   0  0  0  0  0  0  0  0  0  0  0  0
   37.5220   24.2480   39.7900 N   0  0  0  0  0  0  0  0  0  0  0  0
   36.9250   23.7730   40.9220 C   0  0  0  0  0  0  0  0  0  0  0  0
   37.0010   24.4690   42.0600 N   0  0  0  0  0  0  0  0  0  0  0  0
   37.7400   26.2230   43.0190 H   0  0  0  0  0  0  0  0  0  0  0  0
   36.3850   22.8460   40.9330 H   0  0  0  0  0  0  0  0  0  0  0  0
   38.7980   25.8740   38.6300 C   0  0  0  0  0  0  0  0  0  0  0  0
   38.4260   26.6220   37.5630 C   0  0  0  0  0  0  0  0  0  0  0  0
   39.2270   26.9170   36.5660 C   0  0  0  0  0  0  0  0  0  0  0  0
   40.4690   26.4230   36.6620 C   0  0  0  0  0  0  0  0  0  0  0  0
   40.5000   25.5060   38.2280 S   0  0  0  0  0  0  0  0  0  0  0  0
   37.3690   26.9560   37.6300 H   0  0  0  0  0  0  0  0  0  0  0  0
   38.9710   27.5110   35.6970 H   0  0  0  0  0  0  0  0  0  0  0  0
   41.3580   26.5500   35.9030 H   0  0  0  0  0  0  0  0  0  0  0  0
  1 25  1  0  0  0  0
  1  5  1  0  0  0  0
  2  3  1  0  0  0  0
  2  1  2  0  0  0  0
  3  4  1  0  0  0  0
  4  6  1  0  0  0  0
  4  5  2  0  0  0  0
  6  9  1  0  0  0  0
  6  8  1  0  0  0  0
  7  2  1  0  0  0  0
 10 11  1  0  0  0  0
 10 13  1  0  0  0  0
 10  3  1  0  0  0  0
 12 10  1  0  0  0  0
 13 14  1  0  0  0  0
 14 15  1  0  0  0  0
 16 14  2  0  0  0  0
 17 16  1  0  0  0  0
 18 17  1  0  0  0  0
 18 19  1  0  0  0  0
 20 18  2  0  0  0  0
 21 23  2  0  0  0  0
 21 20  1  0  0  0  0
 22 21  1  0  0  0  0
 23 24  1  0  0  0  0
 24 17  2  0  0  0  0
 24 13  1  0  0  0  0
 25 26  2  0  0  0  0
 27 33  1  0  0  0  0
 28 25  1  0  0  0  0
 28 27  2  0  0  0  0
 29 28  1  0  0  0  0
 30 29  2  0  0  0  0
 30 31  1  0  0  0  0
 31 34  1  0  0  0  0
 31 32  2  0  0  0  0
 32 27  1  0  0  0  0
 35 29  1  0  0  0  0
 36 40  1  0  0  0  0
 36 35  2  0  0  0  0
 37 38  2  0  0  0  0
 37 36  1  0  0  0  0
 38 39  1  0  0  0  0
 39 35  1  0  0  0  0
 41 37  1  0  0  0  0
 42 38  1  0  0  0  0
M  END
>  <minimizedAffinity>
-5.76044607

$$$$

 OpenBabel03252503213D

 42 46  0  0  0  0  0  0  0  0999 V2000
   37.7630   28.5560   40.7290 C   0  0  0  0  0  0  0  0  0  0  0  0
   37.2320   29.8020   40.5350 C   0  0  0  0  0  0  0  0  0  0  0  0
   37.6750   30.2090   39.3260 N   0  0  0  0  0  0  0  0  0  0  0  0
   38.4410   29.2540   38.8070 C   0  0  0  0  0  0  0  0  0  0  0  0
   38.5030   28.2230   39.6670 N   0  0  0  0  0  0  0  0  0  0  0  0
   39.1330   29.2040   37.5670 N   0  0  0  0  0  0  0  0  0  0  0  0
   36.5910   30.3520   41.2050 H   0  0  0  0  0  0  0  0  0  0  0  0
   38.5360   29.4580   36.7250 H   0  0  0  0  0  0  0  0  0  0  0  0
   40.1420   28.9330   37.5700 H   0  0  0  0  0  0  0  0  0  0  0  0
   37.4050   31.4540   38.6490 C   0  0  0  0  0  0  0  0  0  0  0  0
   36.3520   31.7780   38.7960 H   0  0  0  0  0  0  0  0  0  0  0  0
   37.5550   31.3510   37.5630 H   0  0  0  0  0  0  0  0  0  0  0  0
   38.2950   32.4410   39.2370 N   0  0  0  0  0  0  0  0  0  0  0  0
   38.1690   33.2500   40.3040 C   0  0  0  0  0  0  0  0  0  0  0  0
   37.2460   33.1920   40.8650 H   0  0  0  0  0  0  0  0  0  0  0  0
   39.2760   34.0000   40.4560 N   0  0  0  0  0  0  0  0  0  0  0  0
   40.1530   33.6900   39.4800 C   0  0  0  0  0  0  0  0  0  0  0  0
   41.4190   34.1590   39.1840 C   0  0  0  0  0  0  0  0  0  0  0  0
   41.8690   34.9250   39.8040 H   0  0  0  0  0  0  0  0  0  0  0  0
   42.0470   33.6190   38.0990 N   0  0  0  0  0  0  0  0  0  0  0  0
   41.4120   32.6600   37.3700 C   0  0  0  0  0  0  0  0  0  0  0  0
   41.9610   32.2580   36.5080 H   0  0  0  0  0  0  0  0  0  0  0  0
   40.1810   32.1890   37.6410 N   0  0  0  0  0  0  0  0  0  0  0  0
   39.5290   32.7080   38.7170 C   0  0  0  0  0  0  0  0  0  0  0  0
   37.5770   27.6660   41.9150 C   0  0  0  0  0  0  0  0  0  0  0  0
   36.5010   27.5380   42.5720 O   0  0  0  0  0  0  0  0  0  0  0  0
   39.6520   27.4410   43.2170 C   0  0  0  0  0  0  0  0  0  0  0  0
   38.6650   26.8800   42.3820 C   0  0  0  0  0  0  0  0  0  0  0  0
   38.8790   25.5370   42.0900 C   0  0  0  0  0  0  0  0  0  0  0  0
   39.9110   24.8420   42.5490 N   0  0  0  0  0  0  0  0  0  0  0  0
   40.8320   25.4490   43.3540 C   0  0  0  0  0  0  0  0  0  0  0  0
   40.6920   26.7370   43.6770 N   0  0  0  0  0  0  0  0  0  0  0  0
   39.5110   28.5000   43.4660 H   0  0  0  0  0  0  0  0  0  0  0  0
   41.6800   24.9210   43.7450 H   0  0  0  0  0  0  0  0  0  0  0  0
   37.9320   24.8820   41.2460 C   0  0  0  0  0  0  0  0  0  0  0  0
   36.7170   24.3020   41.4030 C   0  0  0  0  0  0  0  0  0  0  0  0
   36.0400   23.7540   40.4210 C   0  0  0  0  0  0  0  0  0  0  0  0
   36.6330   23.8000   39.2200 C   0  0  0  0  0  0  0  0  0  0  0  0
   38.2100   24.6540   39.4960 S   0  0  0  0  0  0  0  0  0  0  0  0
   36.3610   24.3430   42.4540 H   0  0  0  0  0  0  0  0  0  0  0  0
   35.0690   23.2820   40.5010 H   0  0  0  0  0  0  0  0  0  0  0  0
   36.2280   23.3820   38.1980 H   0  0  0  0  0  0  0  0  0  0  0  0
  1 25  1  0  0  0  0
  2  1  2  0  0  0  0
  2  7  1  0  0  0  0
  3  2  1  0  0  0  0
  4  3  1  0  0  0  0
  4  5  2  0  0  0  0
  5  1  1  0  0  0  0
  6  9  1  0  0  0  0
  6  4  1  0  0  0  0
  8  6  1  0  0  0  0
 10 11  1  0  0  0  0
 10 13  1  0  0  0  0
 10  3  1  0  0  0  0
 12 10  1  0  0  0  0
 13 14  1  0  0  0  0
 14 16  2  0  0  0  0
 14 15  1  0  0  0  0
 17 16  1  0  0  0  0
 18 17  1  0  0  0  0
 18 19  1  0  0  0  0
 20 18  2  0  0  0  0
 21 23  2  0  0  0  0
 21 20  1  0  0  0  0
 22 21  1  0  0  0  0
 23 24  1  0  0  0  0
 24 13  1  0  0  0  0
 24 17  2  0  0  0  0
 25 28  1  0  0  0  0
 25 26  2  0  0  0  0
 27 33  1  0  0  0  0
 27 32  1  0  0  0  0
 28 27  2  0  0  0  0
 29 28  1  0  0  0  0
 29 30  2  0  0  0  0
 30 31  1  0  0  0  0
 31 32  2  0  0  0  0
 31 34  1  0  0  0  0
 35 36  2  0  0  0  0
 35 29  1  0  0  0  0
 36 40  1  0  0  0  0
 37 41  1  0  0  0  0
 37 36  1  0  0  0  0
 38 39  1  0  0  0  0
 38 37  2  0  0  0  0
 39 35  1  0  0  0  0
 42 38  1  0  0  0  0
M  END
>  <minimizedAffinity>
-5.73425961

$$$$

 OpenBabel03252503213D

 42 46  0  0  0  0  0  0  0  0999 V2000
   38.3180   31.7150   40.4770 C   0  0  0  0  0  0  0  0  0  0  0  0
   38.6610   32.6870   39.5770 C   0  0  0  0  0  0  0  0  0  0  0  0
   39.8760   33.1340   39.9620 N   0  0  0  0  0  0  0  0  0  0  0  0
   40.2550   32.4660   41.0460 C   0  0  0  0  0  0  0  0  0  0  0  0
   39.2980   31.5820   41.3760 N   0  0  0  0  0  0  0  0  0  0  0  0
   41.4430   32.5680   41.8210 N   0  0  0  0  0  0  0  0  0  0  0  0
   38.0860   33.0300   38.7330 H   0  0  0  0  0  0  0  0  0  0  0  0
   42.3380   32.5420   41.2490 H   0  0  0  0  0  0  0  0  0  0  0  0
   41.3550   32.6600   42.8570 H   0  0  0  0  0  0  0  0  0  0  0  0
   40.6850   34.1610   39.3490 C   0  0  0  0  0  0  0  0  0  0  0  0
   41.2220   34.7650   40.1110 H   0  0  0  0  0  0  0  0  0  0  0  0
   40.0600   34.8610   38.7730 H   0  0  0  0  0  0  0  0  0  0  0  0
   41.6550   33.4730   38.5130 N   0  0  0  0  0  0  0  0  0  0  0  0
   41.5280   32.7600   37.3800 C   0  0  0  0  0  0  0  0  0  0  0  0
   40.5320   32.6470   36.9740 H   0  0  0  0  0  0  0  0  0  0  0  0
   42.7300   32.3130   36.9720 N   0  0  0  0  0  0  0  0  0  0  0  0
   43.6730   32.7330   37.8410 C   0  0  0  0  0  0  0  0  0  0  0  0
   45.0420   32.5540   37.8850 C   0  0  0  0  0  0  0  0  0  0  0  0
   45.5360   31.9780   37.1110 H   0  0  0  0  0  0  0  0  0  0  0  0
   45.7130   33.1260   38.9260 N   0  0  0  0  0  0  0  0  0  0  0  0
   45.0180   33.8340   39.8590 C   0  0  0  0  0  0  0  0  0  0  0  0
   45.6060   34.2740   40.6760 H   0  0  0  0  0  0  0  0  0  0  0  0
   43.6860   34.0210   39.8340 N   0  0  0  0  0  0  0  0  0  0  0  0
   42.9880   33.4630   38.8080 C   0  0  0  0  0  0  0  0  0  0  0  0
   37.0650   30.9010   40.4990 C   0  0  0  0  0  0  0  0  0  0  0  0
   36.0890   31.0810   41.2870 O   0  0  0  0  0  0  0  0  0  0  0  0
   36.3640   30.0510   38.2990 C   0  0  0  0  0  0  0  0  0  0  0  0
   36.9070   29.8280   39.5810 C   0  0  0  0  0  0  0  0  0  0  0  0
   37.2500   28.5020   39.8170 C   0  0  0  0  0  0  0  0  0  0  0  0
   37.0850   27.5310   38.9290 N   0  0  0  0  0  0  0  0  0  0  0  0
   36.5510   27.8170   37.7050 C   0  0  0  0  0  0  0  0  0  0  0  0
   36.1990   29.0700   37.4060 N   0  0  0  0  0  0  0  0  0  0  0  0
   36.0830   31.0890   38.0810 H   0  0  0  0  0  0  0  0  0  0  0  0
   36.4020   27.0600   36.9600 H   0  0  0  0  0  0  0  0  0  0  0  0
   37.8060   28.1770   41.0920 C   0  0  0  0  0  0  0  0  0  0  0  0
   39.0490   28.0820   41.6230 C   0  0  0  0  0  0  0  0  0  0  0  0
   39.2830   27.7520   42.8720 C   0  0  0  0  0  0  0  0  0  0  0  0
   38.1950   27.5070   43.6150 C   0  0  0  0  0  0  0  0  0  0  0  0
   36.7870   27.7550   42.4970 S   0  0  0  0  0  0  0  0  0  0  0  0
   39.8430   28.3140   40.8830 H   0  0  0  0  0  0  0  0  0  0  0  0
   40.2580   27.6640   43.3360 H   0  0  0  0  0  0  0  0  0  0  0  0
   38.1490   27.1980   44.7480 H   0  0  0  0  0  0  0  0  0  0  0  0
  1 25  1  0  0  0  0
  1  5  1  0  0  0  0
  2  3  1  0  0  0  0
  2  1  2  0  0  0  0
  3  4  1  0  0  0  0
  4  5  2  0  0  0  0
  4  6  1  0  0  0  0
  6  9  1  0  0  0  0
  7  2  1  0  0  0  0
  8  6  1  0  0  0  0
 10  3  1  0  0  0  0
 10 11  1  0  0  0  0
 12 10  1  0  0  0  0
 13 24  1  0  0  0  0
 13 10  1  0  0  0  0
 14 13  1  0  0  0  0
 15 14  1  0  0  0  0
 16 14  2  0  0  0  0
 16 17  1  0  0  0  0
 17 18  2  0  0  0  0
 17 24  1  0  0  0  0
 18 20  1  0  0  0  0
 19 18  1  0  0  0  0
 20 21  2  0  0  0  0
 21 22  1  0  0  0  0
 23 21  1  0  0  0  0
 24 23  2  0  0  0  0
 25 26  2  0  0  0  0
 27 28  1  0  0  0  0
 28 29  2  0  0  0  0
 28 25  1  0  0  0  0
 29 35  1  0  0  0  0
 30 29  1  0  0  0  0
 31 30  2  0  0  0  0
 32 31  1  0  0  0  0
 32 27  2  0  0  0  0
 33 27  1  0  0  0  0
 34 31  1  0  0  0  0
 35 36  2  0  0  0  0
 35 39  1  0  0  0  0
 36 37  1  0  0  0  0
 37 41  1  0  0  0  0
 37 38  2  0  0  0  0
 38 42  1  0  0  0  0
 39 38  1  0  0  0  0
 40 36  1  0  0  0  0
M  END
>  <minimizedAffinity>
-5.7309742

$$$$

 OpenBabel03252503213D

 42 46  0  0  0  0  0  0  0  0999 V2000
   39.1370   31.8580   40.2530 C   0  0  0  0  0  0  0  0  0  0  0  0
   39.1840   30.5060   40.0460 C   0  0  0  0  0  0  0  0  0  0  0  0
   37.9540   30.0410   40.3580 N   0  0  0  0  0  0  0  0  0  0  0  0
   37.1940   31.0630   40.7360 C   0  0  0  0  0  0  0  0  0  0  0  0
   37.9150   32.1960   40.6760 N   0  0  0  0  0  0  0  0  0  0  0  0
   35.8360   31.0920   41.1570 N   0  0  0  0  0  0  0  0  0  0  0  0
   40.0250   29.9240   39.7060 H   0  0  0  0  0  0  0  0  0  0  0  0
   35.1690   30.5800   40.5080 H   0  0  0  0  0  0  0  0  0  0  0  0
   35.6000   31.5960   42.0410 H   0  0  0  0  0  0  0  0  0  0  0  0
   37.4760   28.6810   40.3120 C   0  0  0  0  0  0  0  0  0  0  0  0
   37.9430   28.1120   39.4780 H   0  0  0  0  0  0  0  0  0  0  0  0
   36.3880   28.6530   40.1430 H   0  0  0  0  0  0  0  0  0  0  0  0
   37.8540   28.0710   41.5750 N   0  0  0  0  0  0  0  0  0  0  0  0
   37.3940   28.2290   42.8290 C   0  0  0  0  0  0  0  0  0  0  0  0
   36.5890   28.9360   42.9770 H   0  0  0  0  0  0  0  0  0  0  0  0
   38.0700   27.4340   43.6790 N   0  0  0  0  0  0  0  0  0  0  0  0
   38.9920   26.7340   42.9870 C   0  0  0  0  0  0  0  0  0  0  0  0
   39.9290   25.7950   43.3730 C   0  0  0  0  0  0  0  0  0  0  0  0
   40.0060   25.5070   44.4150 H   0  0  0  0  0  0  0  0  0  0  0  0
   40.7250   25.2700   42.3970 N   0  0  0  0  0  0  0  0  0  0  0  0
   40.5650   25.6860   41.1100 C   0  0  0  0  0  0  0  0  0  0  0  0
   41.2300   25.2320   40.3640 H   0  0  0  0  0  0  0  0  0  0  0  0
   39.6580   26.5980   40.7130 N   0  0  0  0  0  0  0  0  0  0  0  0
   38.8500   27.1400   41.6630 C   0  0  0  0  0  0  0  0  0  0  0  0
   40.2420   32.8440   40.0530 C   0  0  0  0  0  0  0  0  0  0  0  0
   40.3240   33.9740   40.6180 O   0  0  0  0  0  0  0  0  0  0  0  0
   41.2060   32.8170   37.7900 C   0  0  0  0  0  0  0  0  0  0  0  0
   41.3090   32.5340   39.1670 C   0  0  0  0  0  0  0  0  0  0  0  0
   42.5170   31.9470   39.5270 C   0  0  0  0  0  0  0  0  0  0  0  0
   43.4870   31.6750   38.6640 N   0  0  0  0  0  0  0  0  0  0  0  0
   43.3210   31.9750   37.3420 C   0  0  0  0  0  0  0  0  0  0  0  0
   42.1870   32.5410   36.9230 N   0  0  0  0  0  0  0  0  0  0  0  0
   40.2650   33.2810   37.4740 H   0  0  0  0  0  0  0  0  0  0  0  0
   44.0820   31.7710   36.6150 H   0  0  0  0  0  0  0  0  0  0  0  0
   42.7120   31.6200   40.9030 C   0  0  0  0  0  0  0  0  0  0  0  0
   42.4740   30.5490   41.6990 C   0  0  0  0  0  0  0  0  0  0  0  0
   42.7630   30.5150   42.9790 C   0  0  0  0  0  0  0  0  0  0  0  0
   43.3220   31.6300   43.4710 C   0  0  0  0  0  0  0  0  0  0  0  0
   43.4410   32.7680   42.0620 S   0  0  0  0  0  0  0  0  0  0  0  0
   42.0080   29.7070   41.1460 H   0  0  0  0  0  0  0  0  0  0  0  0
   42.5910   29.6830   43.6500 H   0  0  0  0  0  0  0  0  0  0  0  0
   43.6660   31.8380   44.5760 H   0  0  0  0  0  0  0  0  0  0  0  0
  1  5  1  0  0  0  0
  2  1  2  0  0  0  0
  2  3  1  0  0  0  0
  3  4  1  0  0  0  0
  4  6  1  0  0  0  0
  5  4  2  0  0  0  0
  6  9  1  0  0  0  0
  7  2  1  0  0  0  0
  8  6  1  0  0  0  0
 10  3  1  0  0  0  0
 10 13  1  0  0  0  0
 11 10  1  0  0  0  0
 12 10  1  0  0  0  0
 13 24  1  0  0  0  0
 13 14  1  0  0  0  0
 14 15  1  0  0  0  0
 14 16  2  0  0  0  0
 17 18  1  0  0  0  0
 17 16  1  0  0  0  0
 18 19  1  0  0  0  0
 20 18  2  0  0  0  0
 21 20  1  0  0  0  0
 22 21  1  0  0  0  0
 23 21  2  0  0  0  0
 23 24  1  0  0  0  0
 24 17  2  0  0  0  0
 25  1  1  0  0  0  0
 25 26  2  0  0  0  0
 27 28  1  0  0  0  0
 28 29  2  0  0  0  0
 28 25  1  0  0  0  0
 29 35  1  0  0  0  0
 30 29  1  0  0  0  0
 31 30  2  0  0  0  0
 32 31  1  0  0  0  0
 32 27  2  0  0  0  0
 33 27  1  0  0  0  0
 34 31  1  0  0  0  0
 35 36  2  0  0  0  0
 35 39  1  0  0  0  0
 36 37  1  0  0  0  0
 37 38  2  0  0  0  0
 37 41  1  0  0  0  0
 38 42  1  0  0  0  0
 39 38  1  0  0  0  0
 40 36  1  0  0  0  0
M  END
>  <minimizedAffinity>
-5.69669676

$$$$

 OpenBabel03252503213D

 42 46  0  0  0  0  0  0  0  0999 V2000
   38.3520   31.5920   39.9690 C   0  0  0  0  0  0  0  0  0  0  0  0
   39.1700   32.5960   40.4090 C   0  0  0  0  0  0  0  0  0  0  0  0
   39.8970   32.9780   39.3370 N   0  0  0  0  0  0  0  0  0  0  0  0
   39.5370   32.2410   38.2920 C   0  0  0  0  0  0  0  0  0  0  0  0
   38.5800   31.3770   38.6700 N   0  0  0  0  0  0  0  0  0  0  0  0
   40.0050   32.2600   36.9490 N   0  0  0  0  0  0  0  0  0  0  0  0
   39.2290   33.0030   41.4060 H   0  0  0  0  0  0  0  0  0  0  0  0
   40.0260   33.2270   36.5100 H   0  0  0  0  0  0  0  0  0  0  0  0
   40.2840   31.3560   36.5060 H   0  0  0  0  0  0  0  0  0  0  0  0
   40.9090   34.0040   39.2640 C   0  0  0  0  0  0  0  0  0  0  0  0
   40.6380   34.8890   39.8800 H   0  0  0  0  0  0  0  0  0  0  0  0
   41.0300   34.3630   38.2310 H   0  0  0  0  0  0  0  0  0  0  0  0
   42.1290   33.4140   39.7880 N   0  0  0  0  0  0  0  0  0  0  0  0
   42.6230   33.3170   41.0350 C   0  0  0  0  0  0  0  0  0  0  0  0
   42.0380   33.7470   41.8360 H   0  0  0  0  0  0  0  0  0  0  0  0
   43.8050   32.6740   41.0210 N   0  0  0  0  0  0  0  0  0  0  0  0
   44.1060   32.3340   39.7510 C   0  0  0  0  0  0  0  0  0  0  0  0
   45.1830   31.6710   39.1960 C   0  0  0  0  0  0  0  0  0  0  0  0
   45.9880   31.3220   39.8320 H   0  0  0  0  0  0  0  0  0  0  0  0
   45.1740   31.4890   37.8440 N   0  0  0  0  0  0  0  0  0  0  0  0
   44.1240   31.9590   37.1140 C   0  0  0  0  0  0  0  0  0  0  0  0
   44.1660   31.7850   36.0300 H   0  0  0  0  0  0  0  0  0  0  0  0
   43.0660   32.6050   37.6350 N   0  0  0  0  0  0  0  0  0  0  0  0
   43.0450   32.8030   38.9810 C   0  0  0  0  0  0  0  0  0  0  0  0
   37.3460   30.8260   40.7670 C   0  0  0  0  0  0  0  0  0  0  0  0
   36.2240   31.2710   41.1480 O   0  0  0  0  0  0  0  0  0  0  0  0
   38.4970   29.2170   42.2290 C   0  0  0  0  0  0  0  0  0  0  0  0
   37.6270   29.4880   41.1530 C   0  0  0  0  0  0  0  0  0  0  0  0
   37.1100   28.3450   40.5540 C   0  0  0  0  0  0  0  0  0  0  0  0
   37.4010   27.1130   40.9480 N   0  0  0  0  0  0  0  0  0  0  0  0
   38.2520   26.9220   41.9980 C   0  0  0  0  0  0  0  0  0  0  0  0
   38.7880   27.9720   42.6250 N   0  0  0  0  0  0  0  0  0  0  0  0
   38.9220   30.0980   42.7240 H   0  0  0  0  0  0  0  0  0  0  0  0
   38.5110   25.9410   42.3470 H   0  0  0  0  0  0  0  0  0  0  0  0
   36.2200   28.5200   39.4500 C   0  0  0  0  0  0  0  0  0  0  0  0
   34.8960   28.7590   39.2880 C   0  0  0  0  0  0  0  0  0  0  0  0
   34.3170   28.8800   38.1160 C   0  0  0  0  0  0  0  0  0  0  0  0
   35.1290   28.7480   37.0580 C   0  0  0  0  0  0  0  0  0  0  0  0
   36.7770   28.4420   37.7540 S   0  0  0  0  0  0  0  0  0  0  0  0
   34.3600   28.8420   40.2560 H   0  0  0  0  0  0  0  0  0  0  0  0
   33.2660   29.0710   37.9410 H   0  0  0  0  0  0  0  0  0  0  0  0
   34.8480   28.8140   35.9180 H   0  0  0  0  0  0  0  0  0  0  0  0
  1  2  2  0  0  0  0
  1 25  1  0  0  0  0
  2  7  1  0  0  0  0
  3  2  1  0  0  0  0
  4  5  2  0  0  0  0
  4  3  1  0  0  0  0
  5  1  1  0  0  0  0
  6  4  1  0  0  0  0
  8  6  1  0  0  0  0
  9  6  1  0  0  0  0
 10  3  1  0  0  0  0
 10 13  1  0  0  0  0
 10 11  1  0  0  0  0
 12 10  1  0  0  0  0
 13 14  1  0  0  0  0
 14 15  1  0  0  0  0
 16 14  2  0  0  0  0
 17 16  1  0  0  0  0
 18 17  1  0  0  0  0
 18 19  1  0  0  0  0
 20 18  2  0  0  0  0
 21 23  2  0  0  0  0
 21 20  1  0  0  0  0
 22 21  1  0  0  0  0
 23 24  1  0  0  0  0
 24 17  2  0  0  0  0
 24 13  1  0  0  0  0
 25 26  2  0  0  0  0
 25 28  1  0  0  0  0
 27 32  1  0  0  0  0
 27 33  1  0  0  0  0
 28 27  2  0  0  0  0
 29 30  2  0  0  0  0
 29 28  1  0  0  0  0
 30 31  1  0  0  0  0
 31 34  1  0  0  0  0
 31 32  2  0  0  0  0
 35 29  1  0  0  0  0
 36 35  2  0  0  0  0
 36 40  1  0  0  0  0
 37 36  1  0  0  0  0
 38 39  1  0  0  0  0
 38 37  2  0  0  0  0
 39 35  1  0  0  0  0
 41 37  1  0  0  0  0
 42 38  1  0  0  0  0
M  END
>  <minimizedAffinity>
-5.6955204

$$$$
