
 OpenBabel03252502003D

 37 41  0  0  0  0  0  0  0  0999 V2000
   47.6470   32.4550   48.3490 C   0  0  0  0  0  0  0  0  0  0  0  0
   47.3350   31.1180   48.4670 C   0  0  0  0  0  0  0  0  0  0  0  0
   46.4990   30.6110   47.5160 C   0  0  0  0  0  0  0  0  0  0  0  0
   46.0260   31.3930   46.5350 N   0  0  0  0  0  0  0  0  0  0  0  0
   46.3330   32.6880   46.4290 C   0  0  0  0  0  0  0  0  0  0  0  0
   47.1460   33.1810   47.3540 N   0  0  0  0  0  0  0  0  0  0  0  0
   48.3210   32.8610   49.1160 H   0  0  0  0  0  0  0  0  0  0  0  0
   46.1100   29.2710   47.5280 N   0  0  0  0  0  0  0  0  0  0  0  0
   44.9070   28.7120   47.7540 C   0  0  0  0  0  0  0  0  0  0  0  0
   44.0000   29.2580   47.9740 H   0  0  0  0  0  0  0  0  0  0  0  0
   44.9980   27.3700   47.6630 N   0  0  0  0  0  0  0  0  0  0  0  0
   46.2720   27.0450   47.3760 C   0  0  0  0  0  0  0  0  0  0  0  0
   46.8960   25.8300   47.1790 C   0  0  0  0  0  0  0  0  0  0  0  0
   46.3080   24.9180   47.2560 H   0  0  0  0  0  0  0  0  0  0  0  0
   48.2120   25.8630   46.9020 N   0  0  0  0  0  0  0  0  0  0  0  0
   48.9080   27.0170   46.8160 C   0  0  0  0  0  0  0  0  0  0  0  0
   49.9760   26.9760   46.5870 H   0  0  0  0  0  0  0  0  0  0  0  0
   48.2800   28.1810   47.0100 N   0  0  0  0  0  0  0  0  0  0  0  0
   46.9510   28.2210   47.2940 C   0  0  0  0  0  0  0  0  0  0  0  0
   45.9360   33.7130   45.4540 C   0  0  0  0  0  0  0  0  0  0  0  0
   44.9490   34.6120   45.6740 N   0  0  0  0  0  0  0  0  0  0  0  0
   44.5590   35.5540   44.8190 C   0  0  0  0  0  0  0  0  0  0  0  0
   45.1710   35.6590   43.6220 N   0  0  0  0  0  0  0  0  0  0  0  0
   46.1710   34.8210   43.2810 C   0  0  0  0  0  0  0  0  0  0  0  0
   46.7950   34.9340   42.0520 C   0  0  0  0  0  0  0  0  0  0  0  0
   47.8130   34.0870   41.7020 C   0  0  0  0  0  0  0  0  0  0  0  0
   48.1850   33.1270   42.6140 C   0  0  0  0  0  0  0  0  0  0  0  0
   47.5420   33.0460   43.8220 C   0  0  0  0  0  0  0  0  0  0  0  0
   46.5200   33.8680   44.2220 C   0  0  0  0  0  0  0  0  0  0  0  0
   43.7550   36.2220   45.1010 H   0  0  0  0  0  0  0  0  0  0  0  0
   46.4820   35.6990   41.3520 H   0  0  0  0  0  0  0  0  0  0  0  0
   48.3320   34.1310   40.7570 H   0  0  0  0  0  0  0  0  0  0  0  0
   48.9820   32.4330   42.3890 H   0  0  0  0  0  0  0  0  0  0  0  0
   47.8750   32.2660   44.5140 H   0  0  0  0  0  0  0  0  0  0  0  0
   47.8630   30.3460   49.5180 N   0  0  0  0  0  0  0  0  0  0  0  0
   47.3470   30.1870   50.4100 H   0  0  0  0  0  0  0  0  0  0  0  0
   48.7930   29.8520   49.5590 H   0  0  0  0  0  0  0  0  0  0  0  0
  1  2  1  0  0  0  0
  1  7  1  0  0  0  0
  2 35  1  0  0  0  0
  3  8  1  0  0  0  0
  3  2  2  0  0  0  0
  4  3  1  0  0  0  0
  5  4  2  0  0  0  0
  5  6  1  0  0  0  0
  6  1  2  0  0  0  0
  8  9  1  0  0  0  0
  9 10  1  0  0  0  0
 11  9  2  0  0  0  0
 12 11  1  0  0  0  0
 13 14  1  0  0  0  0
 13 12  2  0  0  0  0
 15 13  1  0  0  0  0
 16 15  2  0  0  0  0
 16 18  1  0  0  0  0
 17 16  1  0  0  0  0
 18 19  2  0  0  0  0
 19 12  1  0  0  0  0
 19  8  1  0  0  0  0
 20 21  1  0  0  0  0
 20  5  1  0  0  0  0
 22 30  1  0  0  0  0
 22 21  2  0  0  0  0
 23 22  1  0  0  0  0
 24 23  2  0  0  0  0
 24 29  1  0  0  0  0
 25 24  1  0  0  0  0
 26 25  2  0  0  0  0
 26 27  1  0  0  0  0
 27 28  2  0  0  0  0
 28 29  1  0  0  0  0
 28 34  1  0  0  0  0
 29 20  2  0  0  0  0
 31 25  1  0  0  0  0
 32 26  1  0  0  0  0
 33 27  1  0  0  0  0
 35 37  1  0  0  0  0
 35 36  1  0  0  0  0
M  END
>  <minimizedAffinity>
-6.72738981

>  <minimizedRMSD>
0.271708757

$$$$
