
 OpenBabel03252502013D

 37 41  0  0  0  0  0  0  0  0999 V2000
   47.6510   32.3220   48.2090 C   0  0  0  0  0  0  0  0  0  0  0  0
   47.2980   30.9920   48.2930 C   0  0  0  0  0  0  0  0  0  0  0  0
   46.4220   30.5430   47.3500 C   0  0  0  0  0  0  0  0  0  0  0  0
   45.9480   31.3710   46.4080 N   0  0  0  0  0  0  0  0  0  0  0  0
   46.2940   32.6590   46.3340 C   0  0  0  0  0  0  0  0  0  0  0  0
   47.1470   33.0950   47.2510 N   0  0  0  0  0  0  0  0  0  0  0  0
   48.3570   32.6810   48.9700 H   0  0  0  0  0  0  0  0  0  0  0  0
   45.9890   29.2170   47.3300 N   0  0  0  0  0  0  0  0  0  0  0  0
   45.0200   28.6020   48.0320 C   0  0  0  0  0  0  0  0  0  0  0  0
   44.3880   29.0800   48.7680 H   0  0  0  0  0  0  0  0  0  0  0  0
   44.9520   27.3020   47.6830 N   0  0  0  0  0  0  0  0  0  0  0  0
   45.8850   27.0600   46.7440 C   0  0  0  0  0  0  0  0  0  0  0  0
   46.2330   25.9130   46.0590 C   0  0  0  0  0  0  0  0  0  0  0  0
   45.6950   24.9920   46.2660 H   0  0  0  0  0  0  0  0  0  0  0  0
   47.2350   26.0230   45.1680 N   0  0  0  0  0  0  0  0  0  0  0  0
   47.8800   27.1880   44.9380 C   0  0  0  0  0  0  0  0  0  0  0  0
   48.6870   27.2100   44.1990 H   0  0  0  0  0  0  0  0  0  0  0  0
   47.5240   28.2830   45.6150 N   0  0  0  0  0  0  0  0  0  0  0  0
   46.5210   28.2440   46.5310 C   0  0  0  0  0  0  0  0  0  0  0  0
   45.9050   33.7280   45.4040 C   0  0  0  0  0  0  0  0  0  0  0  0
   44.9280   34.6270   45.6640 N   0  0  0  0  0  0  0  0  0  0  0  0
   44.5460   35.6070   44.8500 C   0  0  0  0  0  0  0  0  0  0  0  0
   45.1550   35.7550   43.6560 N   0  0  0  0  0  0  0  0  0  0  0  0
   46.1450   34.9210   43.2770 C   0  0  0  0  0  0  0  0  0  0  0  0
   46.7660   35.0770   42.0510 C   0  0  0  0  0  0  0  0  0  0  0  0
   47.7730   34.2340   41.6630 C   0  0  0  0  0  0  0  0  0  0  0  0
   48.1380   33.2340   42.5330 C   0  0  0  0  0  0  0  0  0  0  0  0
   47.4980   33.1110   43.7400 C   0  0  0  0  0  0  0  0  0  0  0  0
   46.4870   33.9270   44.1760 C   0  0  0  0  0  0  0  0  0  0  0  0
   43.7500   36.2720   45.1620 H   0  0  0  0  0  0  0  0  0  0  0  0
   46.4580   35.8740   41.3840 H   0  0  0  0  0  0  0  0  0  0  0  0
   48.2900   34.3120   40.7180 H   0  0  0  0  0  0  0  0  0  0  0  0
   48.9260   32.5410   42.2770 H   0  0  0  0  0  0  0  0  0  0  0  0
   47.8250   32.2990   44.3970 H   0  0  0  0  0  0  0  0  0  0  0  0
   47.8290   30.1700   49.3040 N   0  0  0  0  0  0  0  0  0  0  0  0
   47.3320   29.9980   50.2040 H   0  0  0  0  0  0  0  0  0  0  0  0
   48.7420   29.6450   49.3040 H   0  0  0  0  0  0  0  0  0  0  0  0
  1  2  1  0  0  0  0
  1  7  1  0  0  0  0
  2 35  1  0  0  0  0
  3  2  2  0  0  0  0
  4  3  1  0  0  0  0
  5  4  2  0  0  0  0
  5  6  1  0  0  0  0
  6  1  2  0  0  0  0
  8  3  1  0  0  0  0
  8  9  1  0  0  0  0
  9 10  1  0  0  0  0
 11  9  2  0  0  0  0
 12 11  1  0  0  0  0
 13 14  1  0  0  0  0
 13 12  2  0  0  0  0
 15 13  1  0  0  0  0
 16 15  2  0  0  0  0
 16 18  1  0  0  0  0
 17 16  1  0  0  0  0
 18 19  2  0  0  0  0
 19 12  1  0  0  0  0
 19  8  1  0  0  0  0
 20 21  1  0  0  0  0
 20  5  1  0  0  0  0
 22 30  1  0  0  0  0
 22 21  2  0  0  0  0
 23 22  1  0  0  0  0
 24 23  2  0  0  0  0
 24 29  1  0  0  0  0
 25 24  1  0  0  0  0
 26 25  2  0  0  0  0
 26 27  1  0  0  0  0
 27 28  2  0  0  0  0
 28 29  1  0  0  0  0
 28 34  1  0  0  0  0
 29 20  2  0  0  0  0
 31 25  1  0  0  0  0
 32 26  1  0  0  0  0
 33 27  1  0  0  0  0
 35 37  1  0  0  0  0
 35 36  1  0  0  0  0
M  END
>  <minimizedAffinity>
-6.56441307

>  <minimizedRMSD>
0.0686768591

$$$$
