
 OpenBabel03252504473D

 30 32  0  0  0  0  0  0  0  0999 V2000
   45.3550   31.1800   49.6300 O   0  0  0  0  0  0  0  0  0  0  0  0
   45.7130   31.1490   48.1370 P   0  0  1  0  0  0  0  0  0  0  0  0
   44.5000   30.2490   47.3710 O   0  0  0  0  0  0  0  0  0  0  0  0
   44.8700   29.5040   46.8410 H   0  0  0  0  0  0  0  0  0  0  0  0
   45.7760   32.7460   47.6230 O   0  0  0  0  0  0  0  0  0  0  0  0
   45.0690   34.7070   44.6810 C   0  0  0  0  0  0  0  0  0  0  0  0
   45.3640   33.8050   43.6640 C   0  0  0  0  0  0  0  0  0  0  0  0
   45.8040   32.5310   44.0370 C   0  0  0  0  0  0  0  0  0  0  0  0
   45.9140   32.2560   45.3560 N   0  0  0  0  0  0  0  0  0  0  0  0
   45.6120   33.1770   46.3150 C   0  0  0  0  0  0  0  0  0  0  0  0
   45.1880   34.4080   45.9650 N   0  0  0  0  0  0  0  0  0  0  0  0
   45.2610   34.0710   42.6230 H   0  0  0  0  0  0  0  0  0  0  0  0
   46.0450   31.8000   43.2870 H   0  0  0  0  0  0  0  0  0  0  0  0
   44.6140   36.0720   44.2530 C   0  0  0  0  0  0  0  0  0  0  0  0
   44.3650   36.6770   45.1350 H   0  0  0  0  0  0  0  0  0  0  0  0
   43.8460   36.0270   43.4730 H   0  0  0  0  0  0  0  0  0  0  0  0
   45.5070   36.5560   43.7970 H   0  0  0  0  0  0  0  0  0  0  0  0
   47.1890   30.3660   47.8790 O   0  0  0  0  0  0  0  0  0  0  0  0
   48.4340   28.8740   49.9620 H   0  0  0  0  0  0  0  0  0  0  0  0
   48.7870   29.8340   49.7640 N   0  0  0  0  0  0  0  0  0  0  0  0
   48.2210   30.5640   48.7870 C   0  0  0  0  0  0  0  0  0  0  0  0
   48.8780   31.7570   48.7570 N   0  0  0  0  0  0  0  0  0  0  0  0
   49.8340   31.7640   49.6980 C   0  0  0  0  0  0  0  0  0  0  0  0
   50.8090   32.6330   50.1670 C   0  0  0  0  0  0  0  0  0  0  0  0
   50.8390   33.6000   49.6440 H   0  0  0  0  0  0  0  0  0  0  0  0
   51.6470   32.3200   51.1750 N   0  0  0  0  0  0  0  0  0  0  0  0
   51.5430   31.1030   51.7660 C   0  0  0  0  0  0  0  0  0  0  0  0
   52.2220   30.8690   52.5720 H   0  0  0  0  0  0  0  0  0  0  0  0
   50.6180   30.2160   51.3570 N   0  0  0  0  0  0  0  0  0  0  0  0
   49.7790   30.5280   50.3490 C   0  0  0  0  0  0  0  0  0  0  0  0
  2  1  2  1  0  0  0
  3  2  1  0  0  0  0
  4  3  1  0  0  0  0
  5  2  1  0  0  0  0
  6 11  1  0  0  0  0
  7  8  1  0  0  0  0
  7  6  2  0  0  0  0
  8  9  2  0  0  0  0
  9 10  1  0  0  0  0
 10  5  1  0  0  0  0
 11 10  2  0  0  0  0
 12  7  1  0  0  0  0
 13  8  1  0  0  0  0
 14  6  1  0  0  0  0
 14 15  1  0  0  0  0
 16 14  1  0  0  0  0
 17 14  1  0  0  0  0
 18  2  1  0  0  0  0
 18 21  1  0  0  0  0
 20 19  1  0  0  0  0
 20 30  1  0  0  0  0
 21 20  1  0  0  0  0
 22 21  2  0  0  0  0
 22 23  1  0  0  0  0
 23 24  2  0  0  0  0
 23 30  1  0  0  0  0
 24 26  1  0  0  0  0
 25 24  1  0  0  0  0
 26 27  2  0  0  0  0
 27 28  1  0  0  0  0
 29 27  1  0  0  0  0
 30 29  2  0  0  0  0
M  END
>  <minimizedAffinity>
-5.65480375

>  <minimizedRMSD>
2.35165572

$$$$
