
 OpenBabel03242516413D

 35 37  0  0  0  0  0  0  0  0999 V2000
   49.2550   32.2960   42.4000 O   0  0  0  0  0  0  0  0  0  0  0  0
   49.1980   33.6310   42.7430 C   0  0  0  0  0  0  0  0  0  0  0  0
   49.2850   33.7260   43.8630 H   0  0  0  0  0  0  0  0  0  0  0  0
   50.0960   34.1640   42.3160 H   0  0  0  0  0  0  0  0  0  0  0  0
   47.9250   34.2560   42.2720 C   0  0  0  0  0  0  0  0  0  0  0  0
   47.5270   33.7300   41.3760 H   0  0  0  0  0  0  0  0  0  0  0  0
   48.1380   35.3200   42.0250 H   0  0  0  0  0  0  0  0  0  0  0  0
   44.8800   35.0820   44.3370 C   0  0  0  0  0  0  0  0  0  0  0  0
   45.8310   35.0740   43.2680 C   0  0  0  0  0  0  0  0  0  0  0  0
   46.9480   34.2550   43.3840 C   0  0  0  0  0  0  0  0  0  0  0  0
   47.0800   33.5140   44.4870 N   0  0  0  0  0  0  0  0  0  0  0  0
   46.1730   33.5320   45.4880 C   0  0  0  0  0  0  0  0  0  0  0  0
   45.0800   34.3040   45.4240 N   0  0  0  0  0  0  0  0  0  0  0  0
   43.7410   35.8980   44.2500 N   0  0  0  0  0  0  0  0  0  0  0  0
   45.6150   35.7160   42.4280 H   0  0  0  0  0  0  0  0  0  0  0  0
   46.3460   32.9040   46.3540 H   0  0  0  0  0  0  0  0  0  0  0  0
   43.3120   36.2350   45.1410 H   0  0  0  0  0  0  0  0  0  0  0  0
   43.2690   36.2090   43.3720 H   0  0  0  0  0  0  0  0  0  0  0  0
   51.2660   30.6440   42.1360 O   0  0  0  0  0  0  0  0  0  0  0  0
   50.6790   31.9030   41.5750 P   0  0  2  0  0  0  0  0  0  0  0  0
   51.7180   33.2290   41.7430 O   0  0  0  0  0  0  0  0  0  0  0  0
   51.6220   33.8830   40.9920 H   0  0  0  0  0  0  0  0  0  0  0  0
   50.3580   31.7750   39.9140 O   0  0  0  0  0  0  0  0  0  0  0  0
   47.7280   30.9980   40.6780 H   0  0  0  0  0  0  0  0  0  0  0  0
   47.8280   31.5910   39.8310 N   0  0  0  0  0  0  0  0  0  0  0  0
   49.0620   31.9660   39.4540 C   0  0  0  0  0  0  0  0  0  0  0  0
   48.9770   32.7290   38.3320 N   0  0  0  0  0  0  0  0  0  0  0  0
   47.6740   32.8480   37.9760 C   0  0  0  0  0  0  0  0  0  0  0  0
   46.9020   33.4420   37.0020 C   0  0  0  0  0  0  0  0  0  0  0  0
   47.4500   34.0090   36.2520 H   0  0  0  0  0  0  0  0  0  0  0  0
   45.5720   33.3170   37.0000 N   0  0  0  0  0  0  0  0  0  0  0  0
   44.9070   32.6120   37.9330 C   0  0  0  0  0  0  0  0  0  0  0  0
   43.8320   32.5180   37.9210 H   0  0  0  0  0  0  0  0  0  0  0  0
   45.6450   32.0170   38.9050 N   0  0  0  0  0  0  0  0  0  0  0  0
   46.9860   32.1240   38.9350 C   0  0  0  0  0  0  0  0  0  0  0  0
  1  2  1  0  0  0  0
  2  3  1  0  0  0  0
  4  2  1  0  0  0  0
  5  2  1  0  0  0  0
  5 10  1  0  0  0  0
  6  5  1  0  0  0  0
  7  5  1  0  0  0  0
  8 13  1  0  0  0  0
  9 10  1  0  0  0  0
  9  8  2  0  0  0  0
 10 11  2  0  0  0  0
 11 12  1  0  0  0  0
 12 16  1  0  0  0  0
 13 12  2  0  0  0  0
 14  8  1  0  0  0  0
 14 17  1  0  0  0  0
 15  9  1  0  0  0  0
 18 14  1  0  0  0  0
 20 21  1  0  0  0  0
 20 19  2  1  0  0  0
 20  1  1  0  0  0  0
 22 21  1  0  0  0  0
 23 20  1  0  0  0  0
 25 24  1  0  0  0  0
 26 25  1  0  0  0  0
 26 23  1  0  0  0  0
 27 26  2  0  0  0  0
 28 27  1  0  0  0  0
 28 35  1  0  0  0  0
 29 28  2  0  0  0  0
 30 29  1  0  0  0  0
 31 29  1  0  0  0  0
 31 32  2  0  0  0  0
 32 34  1  0  0  0  0
 33 32  1  0  0  0  0
 34 35  2  0  0  0  0
 35 25  1  0  0  0  0
M  END
>  <minimizedAffinity>
-4.97296095

>  <minimizedRMSD>
1.28977442

$$$$
