
 OpenBabel03242520253D

 27 29  0  0  0  0  0  0  0  0999 V2000
   41.4360   29.3110   40.5010 C   0  0  0  0  0  0  0  0  0  0  0  0
   40.1700   29.4690   41.0900 C   0  0  0  0  0  0  0  0  0  0  0  0
   39.5460   30.6980   40.9700 C   0  0  0  0  0  0  0  0  0  0  0  0
   40.1820   31.7010   40.2900 N   0  0  0  0  0  0  0  0  0  0  0  0
   41.3990   31.5230   39.7330 C   0  0  0  0  0  0  0  0  0  0  0  0
   42.0260   30.3280   39.8380 N   0  0  0  0  0  0  0  0  0  0  0  0
   41.9600   28.3880   40.5630 H   0  0  0  0  0  0  0  0  0  0  0  0
   41.7230   32.4210   39.2490 H   0  0  0  0  0  0  0  0  0  0  0  0
   39.6060   28.3560   41.7730 N   0  0  0  0  0  0  0  0  0  0  0  0
   39.9110   28.0000   43.0350 C   0  0  0  0  0  0  0  0  0  0  0  0
   40.5990   28.4620   43.7290 H   0  0  0  0  0  0  0  0  0  0  0  0
   39.2320   26.9220   43.4070 N   0  0  0  0  0  0  0  0  0  0  0  0
   38.4560   26.5430   42.3810 C   0  0  0  0  0  0  0  0  0  0  0  0
   37.5460   25.5060   42.1850 C   0  0  0  0  0  0  0  0  0  0  0  0
   37.3880   24.8220   43.0110 H   0  0  0  0  0  0  0  0  0  0  0  0
   36.9270   25.4330   40.9800 N   0  0  0  0  0  0  0  0  0  0  0  0
   37.1840   26.3290   40.0100 C   0  0  0  0  0  0  0  0  0  0  0  0
   36.6340   26.1820   39.0750 H   0  0  0  0  0  0  0  0  0  0  0  0
   38.0620   27.3470   40.1640 N   0  0  0  0  0  0  0  0  0  0  0  0
   38.7000   27.4490   41.3660 C   0  0  0  0  0  0  0  0  0  0  0  0
   38.2940   30.8460   41.5550 O   0  0  0  0  0  0  0  0  0  0  0  0
   37.0430   30.6100   39.2360 O   0  0  0  0  0  0  0  0  0  0  0  0
   36.9600   31.3230   40.5790 P   0  0  0  0  0  0  0  0  0  0  0  0
   35.5400   30.9520   41.3980 O   0  0  0  0  0  0  0  0  0  0  0  0
   34.7440   31.2970   40.9290 H   0  0  0  0  0  0  0  0  0  0  0  0
   37.0940   32.9880   40.3220 O   0  0  0  0  0  0  0  0  0  0  0  0
   37.6610   33.1050   39.5190 H   0  0  0  0  0  0  0  0  0  0  0  0
  1  7  1  0  0  0  0
  1  2  1  0  0  0  0
  2  9  1  0  0  0  0
  3  2  2  0  0  0  0
  3 21  1  0  0  0  0
  4  3  1  0  0  0  0
  5  6  1  0  0  0  0
  5  4  2  0  0  0  0
  6  1  2  0  0  0  0
  8  5  1  0  0  0  0
  9 10  1  0  0  0  0
 10 12  2  0  0  0  0
 10 11  1  0  0  0  0
 13 12  1  0  0  0  0
 14 13  1  0  0  0  0
 14 15  1  0  0  0  0
 16 14  2  0  0  0  0
 17 19  2  0  0  0  0
 17 16  1  0  0  0  0
 18 17  1  0  0  0  0
 19 20  1  0  0  0  0
 20  9  1  0  0  0  0
 20 13  2  0  0  0  0
 22 23  2  0  0  0  0
 23 24  1  0  0  0  0
 23 21  1  0  0  0  0
 25 24  1  0  0  0  0
 26 23  1  0  0  0  0
 27 26  1  0  0  0  0
M  END
>  <minimizedAffinity>
-5.04667139

$$$$

 OpenBabel03242520253D

 27 29  0  0  0  0  0  0  0  0999 V2000
   36.0270   28.0580   39.6670 C   0  0  0  0  0  0  0  0  0  0  0  0
   37.0080   28.8530   40.2860 C   0  0  0  0  0  0  0  0  0  0  0  0
   37.3630   30.0400   39.6730 C   0  0  0  0  0  0  0  0  0  0  0  0
   36.7520   30.3910   38.5000 N   0  0  0  0  0  0  0  0  0  0  0  0
   35.8130   29.6100   37.9260 C   0  0  0  0  0  0  0  0  0  0  0  0
   35.4500   28.4430   38.5090 N   0  0  0  0  0  0  0  0  0  0  0  0
   35.7160   27.1350   40.0950 H   0  0  0  0  0  0  0  0  0  0  0  0
   35.4580   30.0560   37.0190 H   0  0  0  0  0  0  0  0  0  0  0  0
   37.5740   28.3870   41.5050 N   0  0  0  0  0  0  0  0  0  0  0  0
   37.1610   28.7590   42.7300 C   0  0  0  0  0  0  0  0  0  0  0  0
   36.3680   29.4400   43.0080 H   0  0  0  0  0  0  0  0  0  0  0  0
   37.8740   28.1640   43.6790 N   0  0  0  0  0  0  0  0  0  0  0  0
   38.7840   27.3780   43.0850 C   0  0  0  0  0  0  0  0  0  0  0  0
   39.7860   26.5300   43.5540 C   0  0  0  0  0  0  0  0  0  0  0  0
   39.9030   26.4470   44.6290 H   0  0  0  0  0  0  0  0  0  0  0  0
   40.5360   25.8750   42.6330 N   0  0  0  0  0  0  0  0  0  0  0  0
   40.3200   26.0390   41.3160 C   0  0  0  0  0  0  0  0  0  0  0  0
   40.9790   25.4670   40.6550 H   0  0  0  0  0  0  0  0  0  0  0  0
   39.3580   26.8540   40.8240 N   0  0  0  0  0  0  0  0  0  0  0  0
   38.5850   27.5270   41.7250 C   0  0  0  0  0  0  0  0  0  0  0  0
   38.3330   30.8200   40.2910 O   0  0  0  0  0  0  0  0  0  0  0  0
   39.2440   33.1860   41.0460 O   0  0  0  0  0  0  0  0  0  0  0  0
   38.3600   32.5160   40.0030 P   0  0  0  0  0  0  0  0  0  0  0  0
   38.9200   32.7830   38.4410 O   0  0  0  0  0  0  0  0  0  0  0  0
   38.8600   33.7350   38.1860 H   0  0  0  0  0  0  0  0  0  0  0  0
   36.7780   33.0820   40.1840 O   0  0  0  0  0  0  0  0  0  0  0  0
   36.6630   33.2960   41.1430 H   0  0  0  0  0  0  0  0  0  0  0  0
  1  7  1  0  0  0  0
  1  2  1  0  0  0  0
  2  9  1  0  0  0  0
  3  2  2  0  0  0  0
  3 21  1  0  0  0  0
  4  3  1  0  0  0  0
  5  4  2  0  0  0  0
  5  6  1  0  0  0  0
  6  1  2  0  0  0  0
  8  5  1  0  0  0  0
  9 20  1  0  0  0  0
  9 10  1  0  0  0  0
 10 11  1  0  0  0  0
 10 12  2  0  0  0  0
 13 14  1  0  0  0  0
 13 12  1  0  0  0  0
 14 15  1  0  0  0  0
 16 14  2  0  0  0  0
 17 16  1  0  0  0  0
 18 17  1  0  0  0  0
 19 17  2  0  0  0  0
 19 20  1  0  0  0  0
 20 13  2  0  0  0  0
 23 26  1  0  0  0  0
 23 21  1  0  0  0  0
 23 22  2  0  0  0  0
 24 23  1  0  0  0  0
 25 24  1  0  0  0  0
 26 27  1  0  0  0  0
M  END
>  <minimizedAffinity>
-4.96301603

$$$$

 OpenBabel03242520253D

 27 29  0  0  0  0  0  0  0  0999 V2000
   39.6390   27.7710   41.3580 C   0  0  0  0  0  0  0  0  0  0  0  0
   39.4060   29.0310   40.7780 C   0  0  0  0  0  0  0  0  0  0  0  0
   38.6740   29.9540   41.5020 C   0  0  0  0  0  0  0  0  0  0  0  0
   38.2080   29.6080   42.7410 N   0  0  0  0  0  0  0  0  0  0  0  0
   38.4450   28.3910   43.2750 C   0  0  0  0  0  0  0  0  0  0  0  0
   39.1600   27.4720   42.5840 N   0  0  0  0  0  0  0  0  0  0  0  0
   40.1950   27.0240   40.8460 H   0  0  0  0  0  0  0  0  0  0  0  0
   37.9990   28.3160   44.2460 H   0  0  0  0  0  0  0  0  0  0  0  0
   39.9400   29.2790   39.4830 N   0  0  0  0  0  0  0  0  0  0  0  0
   39.4500   28.7570   38.3430 C   0  0  0  0  0  0  0  0  0  0  0  0
   38.6100   28.0920   38.2000 H   0  0  0  0  0  0  0  0  0  0  0  0
   40.1490   29.1630   37.2900 N   0  0  0  0  0  0  0  0  0  0  0  0
   41.1270   29.9710   37.7250 C   0  0  0  0  0  0  0  0  0  0  0  0
   42.1510   30.6800   37.0990 C   0  0  0  0  0  0  0  0  0  0  0  0
   42.2210   30.5990   36.0190 H   0  0  0  0  0  0  0  0  0  0  0  0
   42.9770   31.4160   37.8820 N   0  0  0  0  0  0  0  0  0  0  0  0
   42.8140   31.4590   39.2170 C   0  0  0  0  0  0  0  0  0  0  0  0
   43.5330   32.0810   39.7600 H   0  0  0  0  0  0  0  0  0  0  0  0
   41.8330   30.7840   39.8600 N   0  0  0  0  0  0  0  0  0  0  0  0
   40.9840   30.0340   39.0990 C   0  0  0  0  0  0  0  0  0  0  0  0
   38.4490   31.1970   40.9220 O   0  0  0  0  0  0  0  0  0  0  0  0
   36.7340   30.9120   38.9280 O   0  0  0  0  0  0  0  0  0  0  0  0
   36.8900   31.5640   40.2950 P   0  0  0  0  0  0  0  0  0  0  0  0
   35.7340   31.0190   41.3850 O   0  0  0  0  0  0  0  0  0  0  0  0
   34.8230   31.2940   41.1240 H   0  0  0  0  0  0  0  0  0  0  0  0
   36.8050   33.2430   40.1110 O   0  0  0  0  0  0  0  0  0  0  0  0
   37.1610   33.4470   39.2110 H   0  0  0  0  0  0  0  0  0  0  0  0
  1  6  1  0  0  0  0
  2  1  2  0  0  0  0
  2  3  1  0  0  0  0
  3  4  2  0  0  0  0
  4  5  1  0  0  0  0
  5  8  1  0  0  0  0
  6  5  2  0  0  0  0
  7  1  1  0  0  0  0
  9  2  1  0  0  0  0
 10  9  1  0  0  0  0
 11 10  1  0  0  0  0
 12 13  1  0  0  0  0
 12 10  2  0  0  0  0
 13 20  1  0  0  0  0
 14 13  2  0  0  0  0
 14 16  1  0  0  0  0
 15 14  1  0  0  0  0
 16 17  2  0  0  0  0
 17 18  1  0  0  0  0
 17 19  1  0  0  0  0
 20  9  1  0  0  0  0
 20 19  2  0  0  0  0
 21  3  1  0  0  0  0
 22 23  2  0  0  0  0
 23 21  1  0  0  0  0
 23 24  1  0  0  0  0
 25 24  1  0  0  0  0
 26 23  1  0  0  0  0
 27 26  1  0  0  0  0
M  END
>  <minimizedAffinity>
-4.85112238

$$$$

 OpenBabel03242520253D

 27 29  0  0  0  0  0  0  0  0999 V2000
   35.7210   27.0650   38.4420 C   0  0  0  0  0  0  0  0  0  0  0  0
   36.6270   28.0190   38.9360 C   0  0  0  0  0  0  0  0  0  0  0  0
   36.4130   29.3470   38.6140 C   0  0  0  0  0  0  0  0  0  0  0  0
   35.3380   29.6750   37.8340 N   0  0  0  0  0  0  0  0  0  0  0  0
   34.4820   28.7390   37.3710 C   0  0  0  0  0  0  0  0  0  0  0  0
   34.6730   27.4340   37.6750 N   0  0  0  0  0  0  0  0  0  0  0  0
   35.8380   26.0300   38.6590 H   0  0  0  0  0  0  0  0  0  0  0  0
   33.7110   29.1950   36.7830 H   0  0  0  0  0  0  0  0  0  0  0  0
   37.7090   27.5610   39.7380 N   0  0  0  0  0  0  0  0  0  0  0  0
   38.8700   27.0840   39.2530 C   0  0  0  0  0  0  0  0  0  0  0  0
   39.1850   26.9650   38.2260 H   0  0  0  0  0  0  0  0  0  0  0  0
   39.6910   26.7320   40.2350 N   0  0  0  0  0  0  0  0  0  0  0  0
   39.0750   26.9730   41.4010 C   0  0  0  0  0  0  0  0  0  0  0  0
   39.4320   26.8090   42.7380 C   0  0  0  0  0  0  0  0  0  0  0  0
   40.4150   26.3990   42.9430 H   0  0  0  0  0  0  0  0  0  0  0  0
   38.5270   27.1750   43.6790 N   0  0  0  0  0  0  0  0  0  0  0  0
   37.3280   27.6770   43.3330 C   0  0  0  0  0  0  0  0  0  0  0  0
   36.6690   27.9400   44.1670 H   0  0  0  0  0  0  0  0  0  0  0  0
   36.9460   27.8490   42.0470 N   0  0  0  0  0  0  0  0  0  0  0  0
   37.8360   27.4920   41.0750 C   0  0  0  0  0  0  0  0  0  0  0  0
   37.3130   30.2840   39.1070 O   0  0  0  0  0  0  0  0  0  0  0  0
   37.9830   31.0560   41.5460 O   0  0  0  0  0  0  0  0  0  0  0  0
   36.8910   31.2070   40.4960 P   0  0  0  0  0  0  0  0  0  0  0  0
   36.6860   32.8080   40.0310 O   0  0  0  0  0  0  0  0  0  0  0  0
   36.3430   33.3650   40.7700 H   0  0  0  0  0  0  0  0  0  0  0  0
   35.4530   30.5650   41.1090 O   0  0  0  0  0  0  0  0  0  0  0  0
   35.7100   29.8380   41.7300 H   0  0  0  0  0  0  0  0  0  0  0  0
  1  7  1  0  0  0  0
  1  2  1  0  0  0  0
  2  9  1  0  0  0  0
  3  2  2  0  0  0  0
  3 21  1  0  0  0  0
  4  3  1  0  0  0  0
  5  6  1  0  0  0  0
  5  4  2  0  0  0  0
  6  1  2  0  0  0  0
  8  5  1  0  0  0  0
  9 20  1  0  0  0  0
 10  9  1  0  0  0  0
 10 12  2  0  0  0  0
 11 10  1  0  0  0  0
 12 13  1  0  0  0  0
 13 14  1  0  0  0  0
 14 15  1  0  0  0  0
 14 16  2  0  0  0  0
 17 16  1  0  0  0  0
 17 18  1  0  0  0  0
 19 17  2  0  0  0  0
 20 13  2  0  0  0  0
 20 19  1  0  0  0  0
 21 23  1  0  0  0  0
 23 26  1  0  0  0  0
 23 22  2  0  0  0  0
 24 23  1  0  0  0  0
 24 25  1  0  0  0  0
 26 27  1  0  0  0  0
M  END
>  <minimizedAffinity>
-4.84175968

$$$$

 OpenBabel03242520253D

 27 29  0  0  0  0  0  0  0  0999 V2000
   36.9520   30.6110   37.7010 C   0  0  0  0  0  0  0  0  0  0  0  0
   37.1040   30.9040   39.0670 C   0  0  0  0  0  0  0  0  0  0  0  0
   36.5100   30.0550   39.9840 C   0  0  0  0  0  0  0  0  0  0  0  0
   35.8040   28.9760   39.5280 N   0  0  0  0  0  0  0  0  0  0  0  0
   35.6720   28.7160   38.2100 C   0  0  0  0  0  0  0  0  0  0  0  0
   36.2470   29.5340   37.2960 N   0  0  0  0  0  0  0  0  0  0  0  0
   37.3870   31.2290   36.9540 H   0  0  0  0  0  0  0  0  0  0  0  0
   35.0870   27.8320   38.0590 H   0  0  0  0  0  0  0  0  0  0  0  0
   37.8600   32.0550   39.4240 N   0  0  0  0  0  0  0  0  0  0  0  0
   37.3440   33.2860   39.5900 C   0  0  0  0  0  0  0  0  0  0  0  0
   36.3190   33.6180   39.4910 H   0  0  0  0  0  0  0  0  0  0  0  0
   38.2860   34.1610   39.9210 N   0  0  0  0  0  0  0  0  0  0  0  0
   39.4570   33.5110   39.9790 C   0  0  0  0  0  0  0  0  0  0  0  0
   40.7650   33.8940   40.2690 C   0  0  0  0  0  0  0  0  0  0  0  0
   40.9350   34.9380   40.5080 H   0  0  0  0  0  0  0  0  0  0  0  0
   41.7230   32.9350   40.2300 N   0  0  0  0  0  0  0  0  0  0  0  0
   41.4210   31.6610   39.9230 C   0  0  0  0  0  0  0  0  0  0  0  0
   42.2650   30.9640   39.9180 H   0  0  0  0  0  0  0  0  0  0  0  0
   40.1640   31.2530   39.6350 N   0  0  0  0  0  0  0  0  0  0  0  0
   39.1760   32.1940   39.6660 C   0  0  0  0  0  0  0  0  0  0  0  0
   36.6650   30.3520   41.3330 O   0  0  0  0  0  0  0  0  0  0  0  0
   38.9690   30.1790   42.6200 O   0  0  0  0  0  0  0  0  0  0  0  0
   37.7130   29.3830   42.2920 P   0  0  0  0  0  0  0  0  0  0  0  0
   36.8880   28.9150   43.6800 O   0  0  0  0  0  0  0  0  0  0  0  0
   37.4080   28.2730   44.2180 H   0  0  0  0  0  0  0  0  0  0  0  0
   38.1460   28.0380   41.3630 O   0  0  0  0  0  0  0  0  0  0  0  0
   38.9460   28.3010   40.8430 H   0  0  0  0  0  0  0  0  0  0  0  0
  1  2  1  0  0  0  0
  2  9  1  0  0  0  0
  2  3  2  0  0  0  0
  3 21  1  0  0  0  0
  4  3  1  0  0  0  0
  5  4  2  0  0  0  0
  6  1  2  0  0  0  0
  6  5  1  0  0  0  0
  7  1  1  0  0  0  0
  8  5  1  0  0  0  0
  9 10  1  0  0  0  0
  9 20  1  0  0  0  0
 10 12  2  0  0  0  0
 11 10  1  0  0  0  0
 12 13  1  0  0  0  0
 13 14  1  0  0  0  0
 14 15  1  0  0  0  0
 16 14  2  0  0  0  0
 17 16  1  0  0  0  0
 18 17  1  0  0  0  0
 19 20  1  0  0  0  0
 19 17  2  0  0  0  0
 20 13  2  0  0  0  0
 21 23  1  0  0  0  0
 23 22  2  0  0  0  0
 23 24  1  0  0  0  0
 24 25  1  0  0  0  0
 26 23  1  0  0  0  0
 27 26  1  0  0  0  0
M  END
>  <minimizedAffinity>
-4.83105707

$$$$

 OpenBabel03242520253D

 27 29  0  0  0  0  0  0  0  0999 V2000
   36.4010   29.9530   37.0730 C   0  0  0  0  0  0  0  0  0  0  0  0
   37.1700   29.7830   38.2370 C   0  0  0  0  0  0  0  0  0  0  0  0
   36.7250   28.8800   39.1850 C   0  0  0  0  0  0  0  0  0  0  0  0
   35.5640   28.1940   38.9540 N   0  0  0  0  0  0  0  0  0  0  0  0
   34.8430   28.3740   37.8270 C   0  0  0  0  0  0  0  0  0  0  0  0
   35.2610   29.2540   36.8860 N   0  0  0  0  0  0  0  0  0  0  0  0
   36.6960   30.6340   36.3120 H   0  0  0  0  0  0  0  0  0  0  0  0
   33.9740   27.7490   37.8350 H   0  0  0  0  0  0  0  0  0  0  0  0
   38.3600   30.5510   38.3690 N   0  0  0  0  0  0  0  0  0  0  0  0
   39.5630   30.1840   37.8890 C   0  0  0  0  0  0  0  0  0  0  0  0
   39.8390   29.2910   37.3450 H   0  0  0  0  0  0  0  0  0  0  0  0
   40.4870   31.0970   38.1610 N   0  0  0  0  0  0  0  0  0  0  0  0
   39.9010   32.0960   38.8360 C   0  0  0  0  0  0  0  0  0  0  0  0
   40.3540   33.2990   39.3760 C   0  0  0  0  0  0  0  0  0  0  0  0
   41.4060   33.5320   39.2530 H   0  0  0  0  0  0  0  0  0  0  0  0
   39.4480   34.0830   40.0100 N   0  0  0  0  0  0  0  0  0  0  0  0
   38.1590   33.7130   40.1140 C   0  0  0  0  0  0  0  0  0  0  0  0
   37.5080   34.4160   40.6440 H   0  0  0  0  0  0  0  0  0  0  0  0
   37.6830   32.5540   39.6040 N   0  0  0  0  0  0  0  0  0  0  0  0
   38.5710   31.7410   38.9580 C   0  0  0  0  0  0  0  0  0  0  0  0
   37.4920   28.7180   40.3320 O   0  0  0  0  0  0  0  0  0  0  0  0
   38.2190   30.1340   42.4450 O   0  0  0  0  0  0  0  0  0  0  0  0
   37.0040   29.4930   41.7880 P   0  0  0  0  0  0  0  0  0  0  0  0
   35.8200   30.6280   41.4180 O   0  0  0  0  0  0  0  0  0  0  0  0
   35.4310   31.0310   42.2290 H   0  0  0  0  0  0  0  0  0  0  0  0
   36.3950   28.2970   42.8150 O   0  0  0  0  0  0  0  0  0  0  0  0
   37.1670   27.9410   43.3220 H   0  0  0  0  0  0  0  0  0  0  0  0
  1  2  1  0  0  0  0
  2  9  1  0  0  0  0
  2  3  2  0  0  0  0
  3 21  1  0  0  0  0
  4  3  1  0  0  0  0
  5  8  1  0  0  0  0
  5  4  2  0  0  0  0
  6  1  2  0  0  0  0
  6  5  1  0  0  0  0
  7  1  1  0  0  0  0
  9 20  1  0  0  0  0
 10 12  2  0  0  0  0
 10  9  1  0  0  0  0
 11 10  1  0  0  0  0
 12 13  1  0  0  0  0
 13 20  2  0  0  0  0
 13 14  1  0  0  0  0
 14 16  2  0  0  0  0
 15 14  1  0  0  0  0
 16 17  1  0  0  0  0
 17 18  1  0  0  0  0
 19 17  2  0  0  0  0
 20 19  1  0  0  0  0
 21 23  1  0  0  0  0
 23 22  2  0  0  0  0
 23 26  1  0  0  0  0
 24 23  1  0  0  0  0
 24 25  1  0  0  0  0
 26 27  1  0  0  0  0
M  END
>  <minimizedAffinity>
-4.73525238

$$$$

 OpenBabel03242520253D

 27 29  0  0  0  0  0  0  0  0999 V2000
   35.8250   28.5960   38.7280 C   0  0  0  0  0  0  0  0  0  0  0  0
   37.0160   29.1810   39.1920 C   0  0  0  0  0  0  0  0  0  0  0  0
   37.7670   29.9230   38.2980 C   0  0  0  0  0  0  0  0  0  0  0  0
   37.3240   30.0570   37.0110 N   0  0  0  0  0  0  0  0  0  0  0  0
   36.1760   29.4850   36.5890 C   0  0  0  0  0  0  0  0  0  0  0  0
   35.4260   28.7540   37.4480 N   0  0  0  0  0  0  0  0  0  0  0  0
   35.2090   28.0160   39.3720 H   0  0  0  0  0  0  0  0  0  0  0  0
   36.0060   29.7050   35.5550 H   0  0  0  0  0  0  0  0  0  0  0  0
   37.3760   28.9740   40.5520 N   0  0  0  0  0  0  0  0  0  0  0  0
   36.9800   29.7560   41.5740 C   0  0  0  0  0  0  0  0  0  0  0  0
   36.3520   30.6350   41.5590 H   0  0  0  0  0  0  0  0  0  0  0  0
   37.4710   29.3210   42.7280 N   0  0  0  0  0  0  0  0  0  0  0  0
   38.2090   28.2290   42.4830 C   0  0  0  0  0  0  0  0  0  0  0  0
   38.9520   27.3620   43.2820 C   0  0  0  0  0  0  0  0  0  0  0  0
   38.9750   27.5640   44.3470 H   0  0  0  0  0  0  0  0  0  0  0  0
   39.5880   26.3330   42.6690 N   0  0  0  0  0  0  0  0  0  0  0  0
   39.5040   26.1560   41.3380 C   0  0  0  0  0  0  0  0  0  0  0  0
   40.0530   25.2970   40.9410 H   0  0  0  0  0  0  0  0  0  0  0  0
   38.7930   26.9780   40.5310 N   0  0  0  0  0  0  0  0  0  0  0  0
   38.1410   28.0240   41.1180 C   0  0  0  0  0  0  0  0  0  0  0  0
   38.9420   30.4980   38.7650 O   0  0  0  0  0  0  0  0  0  0  0  0
   40.3420   32.6640   39.3520 O   0  0  0  0  0  0  0  0  0  0  0  0
   39.2810   32.1430   38.3920 P   0  0  0  0  0  0  0  0  0  0  0  0
   39.7850   32.2350   36.7920 O   0  0  0  0  0  0  0  0  0  0  0  0
   39.8950   33.1690   36.4940 H   0  0  0  0  0  0  0  0  0  0  0  0
   37.8540   33.0170   38.6300 O   0  0  0  0  0  0  0  0  0  0  0  0
   37.8430   33.2860   39.5820 H   0  0  0  0  0  0  0  0  0  0  0  0
  1  2  1  0  0  0  0
  1  7  1  0  0  0  0
  2  9  1  0  0  0  0
  3 21  1  0  0  0  0
  3  2  2  0  0  0  0
  4  3  1  0  0  0  0
  5  4  2  0  0  0  0
  5  6  1  0  0  0  0
  6  1  2  0  0  0  0
  8  5  1  0  0  0  0
  9 20  1  0  0  0  0
  9 10  1  0  0  0  0
 10 12  2  0  0  0  0
 11 10  1  0  0  0  0
 13 12  1  0  0  0  0
 13 14  1  0  0  0  0
 14 15  1  0  0  0  0
 16 14  2  0  0  0  0
 17 16  1  0  0  0  0
 18 17  1  0  0  0  0
 19 20  1  0  0  0  0
 19 17  2  0  0  0  0
 20 13  2  0  0  0  0
 23 26  1  0  0  0  0
 23 21  1  0  0  0  0
 23 22  2  0  0  0  0
 24 23  1  0  0  0  0
 25 24  1  0  0  0  0
 26 27  1  0  0  0  0
M  END
>  <minimizedAffinity>
-4.69430256

$$$$

 OpenBabel03242520253D

 27 29  0  0  0  0  0  0  0  0999 V2000
   40.5040   31.0890   42.0290 C   0  0  0  0  0  0  0  0  0  0  0  0
   39.6990   30.5410   41.0150 C   0  0  0  0  0  0  0  0  0  0  0  0
   39.9430   30.9280   39.7100 C   0  0  0  0  0  0  0  0  0  0  0  0
   40.9480   31.8230   39.4610 N   0  0  0  0  0  0  0  0  0  0  0  0
   41.7070   32.3350   40.4520 C   0  0  0  0  0  0  0  0  0  0  0  0
   41.4850   31.9690   41.7370 N   0  0  0  0  0  0  0  0  0  0  0  0
   40.3590   30.8260   43.0490 H   0  0  0  0  0  0  0  0  0  0  0  0
   42.4350   33.0130   40.0550 H   0  0  0  0  0  0  0  0  0  0  0  0
   38.6830   29.6190   41.3930 N   0  0  0  0  0  0  0  0  0  0  0  0
   37.3910   29.9430   41.5830 C   0  0  0  0  0  0  0  0  0  0  0  0
   36.9060   30.9050   41.4910 H   0  0  0  0  0  0  0  0  0  0  0  0
   36.6760   28.8810   41.9300 N   0  0  0  0  0  0  0  0  0  0  0  0
   37.4970   27.8220   41.9750 C   0  0  0  0  0  0  0  0  0  0  0  0
   37.3230   26.4710   42.2720 C   0  0  0  0  0  0  0  0  0  0  0  0
   36.3210   26.1450   42.5320 H   0  0  0  0  0  0  0  0  0  0  0  0
   38.4140   25.6690   42.2140 N   0  0  0  0  0  0  0  0  0  0  0  0
   39.6220   26.1600   41.8820 C   0  0  0  0  0  0  0  0  0  0  0  0
   40.4390   25.4320   41.8640 H   0  0  0  0  0  0  0  0  0  0  0  0
   39.8290   27.4650   41.5880 N   0  0  0  0  0  0  0  0  0  0  0  0
   38.7500   28.2980   41.6370 C   0  0  0  0  0  0  0  0  0  0  0  0
   39.1440   30.3810   38.7130 O   0  0  0  0  0  0  0  0  0  0  0  0
   37.3660   32.3020   38.3290 O   0  0  0  0  0  0  0  0  0  0  0  0
   38.3670   31.4250   37.5890 P   0  0  0  0  0  0  0  0  0  0  0  0
   39.5420   32.3380   36.8070 O   0  0  0  0  0  0  0  0  0  0  0  0
   39.1600   32.8820   36.0780 H   0  0  0  0  0  0  0  0  0  0  0  0
   37.5300   30.4490   36.4920 O   0  0  0  0  0  0  0  0  0  0  0  0
   36.6360   30.2860   36.8840 H   0  0  0  0  0  0  0  0  0  0  0  0
  1  7  1  0  0  0  0
  2  9  1  0  0  0  0
  2  1  2  0  0  0  0
  3  2  1  0  0  0  0
  4  3  2  0  0  0  0
  4  5  1  0  0  0  0
  5  6  2  0  0  0  0
  6  1  1  0  0  0  0
  8  5  1  0  0  0  0
  9 10  1  0  0  0  0
  9 20  1  0  0  0  0
 10 12  2  0  0  0  0
 11 10  1  0  0  0  0
 12 13  1  0  0  0  0
 13 14  1  0  0  0  0
 14 15  1  0  0  0  0
 16 14  2  0  0  0  0
 17 16  1  0  0  0  0
 18 17  1  0  0  0  0
 19 20  1  0  0  0  0
 19 17  2  0  0  0  0
 20 13  2  0  0  0  0
 21  3  1  0  0  0  0
 23 22  2  0  0  0  0
 23 21  1  0  0  0  0
 24 23  1  0  0  0  0
 25 24  1  0  0  0  0
 26 27  1  0  0  0  0
 26 23  1  0  0  0  0
M  END
>  <minimizedAffinity>
-4.69152021

$$$$

 OpenBabel03242520253D

 27 29  0  0  0  0  0  0  0  0999 V2000
   41.3030   28.4280   41.3930 C   0  0  0  0  0  0  0  0  0  0  0  0
   40.2780   29.3580   41.1470 C   0  0  0  0  0  0  0  0  0  0  0  0
   39.2070   29.3920   42.0210 C   0  0  0  0  0  0  0  0  0  0  0  0
   39.1880   28.5260   43.0800 N   0  0  0  0  0  0  0  0  0  0  0  0
   40.1850   27.6420   43.2950 C   0  0  0  0  0  0  0  0  0  0  0  0
   41.2430   27.5920   42.4520 N   0  0  0  0  0  0  0  0  0  0  0  0
   42.1490   28.3590   40.7530 H   0  0  0  0  0  0  0  0  0  0  0  0
   39.9850   27.0570   44.1700 H   0  0  0  0  0  0  0  0  0  0  0  0
   40.4060   30.2090   40.0140 N   0  0  0  0  0  0  0  0  0  0  0  0
   40.1330   29.8410   38.7480 C   0  0  0  0  0  0  0  0  0  0  0  0
   39.7850   28.8880   38.3720 H   0  0  0  0  0  0  0  0  0  0  0  0
   40.3430   30.8410   37.9020 N   0  0  0  0  0  0  0  0  0  0  0  0
   40.7660   31.9010   38.6050 C   0  0  0  0  0  0  0  0  0  0  0  0
   41.1360   33.2020   38.2700 C   0  0  0  0  0  0  0  0  0  0  0  0
   41.0920   33.4760   37.2220 H   0  0  0  0  0  0  0  0  0  0  0  0
   41.5210   34.0250   39.2770 N   0  0  0  0  0  0  0  0  0  0  0  0
   41.5440   33.5990   40.5530 C   0  0  0  0  0  0  0  0  0  0  0  0
   41.8700   34.3390   41.2910 H   0  0  0  0  0  0  0  0  0  0  0  0
   41.1940   32.3440   40.9160 N   0  0  0  0  0  0  0  0  0  0  0  0
   40.8000   31.4910   39.9250 C   0  0  0  0  0  0  0  0  0  0  0  0
   38.1990   30.3150   41.7710 O   0  0  0  0  0  0  0  0  0  0  0  0
   36.7560   29.3630   39.7690 O   0  0  0  0  0  0  0  0  0  0  0  0
   36.6620   29.7580   41.2360 P   0  0  0  0  0  0  0  0  0  0  0  0
   36.1940   28.4670   42.2040 O   0  0  0  0  0  0  0  0  0  0  0  0
   35.2730   28.1730   42.0060 H   0  0  0  0  0  0  0  0  0  0  0  0
   35.5800   31.0490   41.3850 O   0  0  0  0  0  0  0  0  0  0  0  0
   35.6340   31.5610   40.5400 H   0  0  0  0  0  0  0  0  0  0  0  0
  1  6  1  0  0  0  0
  2  1  2  0  0  0  0
  2  3  1  0  0  0  0
  3  4  2  0  0  0  0
  4  5  1  0  0  0  0
  5  8  1  0  0  0  0
  6  5  2  0  0  0  0
  7  1  1  0  0  0  0
  9  2  1  0  0  0  0
 10  9  1  0  0  0  0
 11 10  1  0  0  0  0
 12 13  1  0  0  0  0
 12 10  2  0  0  0  0
 13 20  1  0  0  0  0
 14 13  2  0  0  0  0
 14 16  1  0  0  0  0
 15 14  1  0  0  0  0
 16 17  2  0  0  0  0
 17 19  1  0  0  0  0
 17 18  1  0  0  0  0
 20  9  1  0  0  0  0
 20 19  2  0  0  0  0
 21  3  1  0  0  0  0
 22 23  2  0  0  0  0
 23 26  1  0  0  0  0
 23 21  1  0  0  0  0
 23 24  1  0  0  0  0
 25 24  1  0  0  0  0
 27 26  1  0  0  0  0
M  END
>  <minimizedAffinity>
-4.6836381

$$$$
