
 OpenBabel03252509003D

 48 51  0  0  1  0  0  0  0  0999 V2000
   46.9870   34.2410   43.1510 N   0  0  0  0  0  0  0  0  0  0  0  0
   46.5340   35.4900   42.6470 C   0  0  0  0  0  0  0  0  0  0  0  0
   45.0610   35.7700   42.8620 C   0  0  0  0  0  0  0  0  0  0  0  0
   44.5010   35.2050   44.1360 C   0  0  0  0  0  0  0  0  0  0  0  0
   45.5650   34.5280   44.9680 C   0  0  0  0  0  0  0  0  0  0  0  0
   46.1860   33.4730   43.9830 C   0  0  2  0  0  0  0  0  0  0  0  0
   47.0790   36.2820   43.2280 H   0  0  0  0  0  0  0  0  0  0  0  0
   46.7540   35.6880   41.5970 H   0  0  0  0  0  0  0  0  0  0  0  0
   44.5170   35.2780   42.0250 H   0  0  0  0  0  0  0  0  0  0  0  0
   44.9110   36.8600   42.7490 H   0  0  0  0  0  0  0  0  0  0  0  0
   43.6520   34.5300   44.0080 H   0  0  0  0  0  0  0  0  0  0  0  0
   44.1250   36.0750   44.7460 H   0  0  0  0  0  0  0  0  0  0  0  0
   46.3440   35.2440   45.2760 H   0  0  0  0  0  0  0  0  0  0  0  0
   45.0760   33.9830   45.7900 H   0  0  0  0  0  0  0  0  0  0  0  0
   45.3190   32.9470   43.5430 H   0  0  0  0  0  0  0  0  0  0  0  0
   47.9450   33.5780   42.3120 C   0  0  0  0  0  0  0  0  0  0  0  0
   48.6190   34.3290   41.8770 H   0  0  0  0  0  0  0  0  0  0  0  0
   48.5670   32.9020   42.9220 H   0  0  0  0  0  0  0  0  0  0  0  0
   47.2010   32.7790   41.2770 C   0  0  0  0  0  0  0  0  0  0  0  0
   46.1600   33.1470   41.1690 H   0  0  0  0  0  0  0  0  0  0  0  0
   47.1510   31.7030   41.4960 H   0  0  0  0  0  0  0  0  0  0  0  0
   49.3110   32.2070   38.2140 C   0  0  0  0  0  0  0  0  0  0  0  0
   48.6920   32.0220   39.4660 C   0  0  0  0  0  0  0  0  0  0  0  0
   47.8500   32.9880   39.9530 C   0  0  0  0  0  0  0  0  0  0  0  0
   47.6540   34.0800   39.1970 N   0  0  0  0  0  0  0  0  0  0  0  0
   48.2450   34.2560   38.0050 C   0  0  0  0  0  0  0  0  0  0  0  0
   49.0790   33.3180   37.5020 N   0  0  0  0  0  0  0  0  0  0  0  0
   49.9710   31.4230   37.8580 H   0  0  0  0  0  0  0  0  0  0  0  0
   48.9120   31.1070   40.0000 H   0  0  0  0  0  0  0  0  0  0  0  0
   47.9690   35.1950   37.5400 H   0  0  0  0  0  0  0  0  0  0  0  0
   46.9450   32.6950   44.8510 O   0  0  0  0  0  0  0  0  0  0  0  0
   45.2420   30.8160   44.0550 O   0  0  0  0  0  0  0  0  0  0  0  0
   46.2640   31.1820   45.1290 P   0  0  2  0  0  0  0  0  0  0  0  0
   45.3530   31.3290   46.5710 O   0  0  0  0  0  0  0  0  0  0  0  0
   46.0090   31.5510   47.2930 H   0  0  0  0  0  0  0  0  0  0  0  0
   47.4020   29.9980   45.3720 O   0  0  0  0  0  0  0  0  0  0  0  0
   48.2130   31.1080   43.0020 H   0  0  0  0  0  0  0  0  0  0  0  0
   48.8410   30.4960   43.5790 N   0  0  0  0  0  0  0  0  0  0  0  0
   48.6310   29.8590   44.7650 C   0  0  0  0  0  0  0  0  0  0  0  0
   49.7660   29.1860   45.0990 N   0  0  0  0  0  0  0  0  0  0  0  0
   50.7070   29.3850   44.1330 C   0  0  0  0  0  0  0  0  0  0  0  0
   52.0040   28.9280   44.0020 C   0  0  0  0  0  0  0  0  0  0  0  0
   52.3640   28.2920   44.7990 H   0  0  0  0  0  0  0  0  0  0  0  0
   52.6820   29.3170   42.9050 N   0  0  0  0  0  0  0  0  0  0  0  0
   52.0900   30.1160   41.9990 C   0  0  0  0  0  0  0  0  0  0  0  0
   52.6400   30.4280   41.1140 H   0  0  0  0  0  0  0  0  0  0  0  0
   50.8170   30.5740   42.1120 N   0  0  0  0  0  0  0  0  0  0  0  0
   50.0980   30.2030   43.2070 C   0  0  0  0  0  0  0  0  0  0  0  0
  1  6  1  0  0  0  0
  2  3  1  0  0  0  0
  2  1  1  0  0  0  0
  2  7  1  0  0  0  0
  3  4  1  0  0  0  0
  4 12  1  0  0  0  0
  4  5  1  0  0  0  0
  5 13  1  0  0  0  0
  5 14  1  0  0  0  0
  6 15  1  6  0  0  0
  6 31  1  0  0  0  0
  6  5  1  0  0  0  0
  8  2  1  0  0  0  0
  9  3  1  0  0  0  0
 10  3  1  0  0  0  0
 11  4  1  0  0  0  0
 16 18  1  0  0  0  0
 16  1  1  0  0  0  0
 17 16  1  0  0  0  0
 19 21  1  0  0  0  0
 19 16  1  0  0  0  0
 20 19  1  0  0  0  0
 22 23  1  0  0  0  0
 23 24  2  0  0  0  0
 23 29  1  0  0  0  0
 24 19  1  0  0  0  0
 25 24  1  0  0  0  0
 26 25  2  0  0  0  0
 27 26  1  0  0  0  0
 27 22  2  0  0  0  0
 28 22  1  0  0  0  0
 30 26  1  0  0  0  0
 31 33  1  0  0  0  0
 33 32  2  6  0  0  0
 33 36  1  0  0  0  0
 33 34  1  0  0  0  0
 34 35  1  0  0  0  0
 37 38  1  0  0  0  0
 38 39  1  0  0  0  0
 39 40  2  0  0  0  0
 39 36  1  0  0  0  0
 41 40  1  0  0  0  0
 42 41  1  0  0  0  0
 42 43  1  0  0  0  0
 44 42  2  0  0  0  0
 45 47  2  0  0  0  0
 45 44  1  0  0  0  0
 46 45  1  0  0  0  0
 47 48  1  0  0  0  0
 48 38  1  0  0  0  0
 48 41  2  0  0  0  0
M  END
>  <minimizedAffinity>
-4.17845488

>  <minimizedRMSD>
0.837291241

$$$$
