
 OpenBabel03242518243D

 35 38  0  0  0  0  0  0  0  0999 V2000
   36.8850   28.1770   41.5680 C   0  0  0  0  0  0  0  0  0  0  0  0
   37.8290   27.3020   41.0420 C   0  0  0  0  0  0  0  0  0  0  0  0
   38.9050   27.8480   40.3240 C   0  0  0  0  0  0  0  0  0  0  0  0
   38.9860   29.2000   40.1670 N   0  0  0  0  0  0  0  0  0  0  0  0
   38.0450   30.0130   40.6950 C   0  0  0  0  0  0  0  0  0  0  0  0
   37.0170   29.5140   41.3810 N   0  0  0  0  0  0  0  0  0  0  0  0
   36.0110   27.9510   42.1360 H   0  0  0  0  0  0  0  0  0  0  0  0
   39.6240   27.1360   39.9270 H   0  0  0  0  0  0  0  0  0  0  0  0
   38.2690   31.3980   40.4470 N   0  0  0  0  0  0  0  0  0  0  0  0
   37.2240   32.1950   40.1230 C   0  0  0  0  0  0  0  0  0  0  0  0
   36.1590   32.0220   39.9930 H   0  0  0  0  0  0  0  0  0  0  0  0
   37.6670   33.4560   39.9330 N   0  0  0  0  0  0  0  0  0  0  0  0
   38.9770   33.4700   40.1320 C   0  0  0  0  0  0  0  0  0  0  0  0
   40.0380   34.3490   40.1150 C   0  0  0  0  0  0  0  0  0  0  0  0
   39.7940   35.3910   39.8640 H   0  0  0  0  0  0  0  0  0  0  0  0
   41.3150   34.0150   40.3800 N   0  0  0  0  0  0  0  0  0  0  0  0
   41.5890   32.7160   40.6880 C   0  0  0  0  0  0  0  0  0  0  0  0
   42.6150   32.5180   40.8860 H   0  0  0  0  0  0  0  0  0  0  0  0
   40.6120   31.7840   40.7280 N   0  0  0  0  0  0  0  0  0  0  0  0
   39.3470   32.1660   40.4550 C   0  0  0  0  0  0  0  0  0  0  0  0
   37.6230   25.9330   41.2620 N   0  0  0  0  0  0  0  0  0  0  0  0
   36.7950   25.2150   40.3320 C   0  0  0  0  0  0  0  0  0  0  0  0
   36.6030   23.7770   40.6840 C   0  0  0  0  0  0  0  0  0  0  0  0
   37.7800   23.1070   41.0930 N   0  0  0  0  0  0  0  0  0  0  0  0
   38.7310   23.8400   41.8350 C   0  0  0  0  0  0  0  0  0  0  0  0
   38.1500   25.1520   42.3360 C   0  0  0  0  0  0  0  0  0  0  0  0
   37.1140   25.3710   39.2810 H   0  0  0  0  0  0  0  0  0  0  0  0
   35.7810   25.7050   40.3980 H   0  0  0  0  0  0  0  0  0  0  0  0
   36.1940   23.2600   39.7900 H   0  0  0  0  0  0  0  0  0  0  0  0
   35.8030   23.7020   41.4690 H   0  0  0  0  0  0  0  0  0  0  0  0
   37.4620   22.2600   41.6550 H   0  0  0  0  0  0  0  0  0  0  0  0
   39.6230   24.0300   41.1810 H   0  0  0  0  0  0  0  0  0  0  0  0
   39.1360   23.3240   42.7330 H   0  0  0  0  0  0  0  0  0  0  0  0
   37.2840   24.8570   42.9850 H   0  0  0  0  0  0  0  0  0  0  0  0
   38.9190   25.6050   42.9550 H   0  0  0  0  0  0  0  0  0  0  0  0
  1  7  1  0  0  0  0
  2 21  1  0  0  0  0
  2  1  2  0  0  0  0
  3  2  1  0  0  0  0
  4  3  2  0  0  0  0
  4  5  1  0  0  0  0
  5  6  2  0  0  0  0
  6  1  1  0  0  0  0
  8  3  1  0  0  0  0
  9 20  1  0  0  0  0
  9  5  1  0  0  0  0
 10  9  1  0  0  0  0
 11 10  1  0  0  0  0
 12 10  2  0  0  0  0
 12 13  1  0  0  0  0
 13 20  1  0  0  0  0
 14 13  2  0  0  0  0
 14 16  1  0  0  0  0
 15 14  1  0  0  0  0
 16 17  2  0  0  0  0
 17 19  1  0  0  0  0
 17 18  1  0  0  0  0
 20 19  2  0  0  0  0
 21 26  1  0  0  0  0
 22 28  1  0  0  0  0
 22 23  1  0  0  0  0
 22 21  1  0  0  0  0
 23 24  1  0  0  0  0
 23 30  1  0  0  0  0
 24 31  1  0  0  0  0
 24 25  1  0  0  0  0
 25 26  1  0  0  0  0
 25 33  1  0  0  0  0
 26 35  1  0  0  0  0
 26 34  1  0  0  0  0
 27 22  1  0  0  0  0
 29 23  1  0  0  0  0
 32 25  1  0  0  0  0
M  END
>  <minimizedAffinity>
-5.22570276

$$$$

 OpenBabel03242518243D

 35 38  0  0  0  0  0  0  0  0999 V2000
   38.6210   29.0160   42.6520 C   0  0  0  0  0  0  0  0  0  0  0  0
   38.8910   27.9610   41.7870 C   0  0  0  0  0  0  0  0  0  0  0  0
   39.4260   28.2650   40.5260 C   0  0  0  0  0  0  0  0  0  0  0  0
   39.6590   29.5670   40.1940 N   0  0  0  0  0  0  0  0  0  0  0  0
   39.3810   30.5610   41.0660 C   0  0  0  0  0  0  0  0  0  0  0  0
   38.8730   30.2920   42.2690 N   0  0  0  0  0  0  0  0  0  0  0  0
   38.2190   28.9810   43.6400 H   0  0  0  0  0  0  0  0  0  0  0  0
   39.6250   27.4170   39.8750 H   0  0  0  0  0  0  0  0  0  0  0  0
   39.6790   31.8640   40.5750 N   0  0  0  0  0  0  0  0  0  0  0  0
   38.8190   32.8810   40.8160 C   0  0  0  0  0  0  0  0  0  0  0  0
   37.8700   32.9530   41.3410 H   0  0  0  0  0  0  0  0  0  0  0  0
   39.3000   34.0140   40.2620 N   0  0  0  0  0  0  0  0  0  0  0  0
   40.4530   33.7300   39.6730 C   0  0  0  0  0  0  0  0  0  0  0  0
   41.4490   34.3490   38.9510 C   0  0  0  0  0  0  0  0  0  0  0  0
   41.3100   35.4230   38.7650 H   0  0  0  0  0  0  0  0  0  0  0  0
   42.5470   33.7330   38.4740 N   0  0  0  0  0  0  0  0  0  0  0  0
   42.6930   32.4000   38.7190 C   0  0  0  0  0  0  0  0  0  0  0  0
   43.5800   31.9730   38.3160 H   0  0  0  0  0  0  0  0  0  0  0  0
   41.7650   31.7100   39.4190 N   0  0  0  0  0  0  0  0  0  0  0  0
   40.6820   32.3710   39.8760 C   0  0  0  0  0  0  0  0  0  0  0  0
   38.5930   26.6690   42.2440 N   0  0  0  0  0  0  0  0  0  0  0  0
   37.5400   25.9450   41.5860 C   0  0  0  0  0  0  0  0  0  0  0  0
   37.2740   24.6010   42.1790 C   0  0  0  0  0  0  0  0  0  0  0  0
   38.4330   23.8490   42.4790 N   0  0  0  0  0  0  0  0  0  0  0  0
   39.5740   24.5470   42.9300 C   0  0  0  0  0  0  0  0  0  0  0  0
   39.2300   25.9760   43.3180 C   0  0  0  0  0  0  0  0  0  0  0  0
   37.6730   25.9210   40.4860 H   0  0  0  0  0  0  0  0  0  0  0  0
   36.6100   26.5630   41.7480 H   0  0  0  0  0  0  0  0  0  0  0  0
   36.6570   24.0270   41.4550 H   0  0  0  0  0  0  0  0  0  0  0  0
   36.6300   24.7310   43.0900 H   0  0  0  0  0  0  0  0  0  0  0  0
   38.1420   23.1290   43.2080 H   0  0  0  0  0  0  0  0  0  0  0  0
   40.3430   24.5370   42.1140 H   0  0  0  0  0  0  0  0  0  0  0  0
   40.0850   24.1060   43.8150 H   0  0  0  0  0  0  0  0  0  0  0  0
   38.4740   25.8790   44.1420 H   0  0  0  0  0  0  0  0  0  0  0  0
   40.1420   26.4060   43.7220 H   0  0  0  0  0  0  0  0  0  0  0  0
  1  7  1  0  0  0  0
  2 21  1  0  0  0  0
  2  1  2  0  0  0  0
  3  2  1  0  0  0  0
  4  3  2  0  0  0  0
  4  5  1  0  0  0  0
  5  6  2  0  0  0  0
  6  1  1  0  0  0  0
  8  3  1  0  0  0  0
  9 10  1  0  0  0  0
  9  5  1  0  0  0  0
 10 11  1  0  0  0  0
 12 10  2  0  0  0  0
 13 20  1  0  0  0  0
 13 12  1  0  0  0  0
 14 13  2  0  0  0  0
 15 14  1  0  0  0  0
 16 17  2  0  0  0  0
 16 14  1  0  0  0  0
 17 19  1  0  0  0  0
 18 17  1  0  0  0  0
 19 20  2  0  0  0  0
 20  9  1  0  0  0  0
 21 26  1  0  0  0  0
 22 28  1  0  0  0  0
 22 23  1  0  0  0  0
 22 21  1  0  0  0  0
 23 24  1  0  0  0  0
 23 30  1  0  0  0  0
 24 25  1  0  0  0  0
 24 31  1  0  0  0  0
 25 26  1  0  0  0  0
 25 33  1  0  0  0  0
 26 35  1  0  0  0  0
 26 34  1  0  0  0  0
 27 22  1  0  0  0  0
 29 23  1  0  0  0  0
 32 25  1  0  0  0  0
M  END
>  <minimizedAffinity>
-5.21069956

$$$$

 OpenBabel03242518243D

 35 38  0  0  0  0  0  0  0  0999 V2000
   38.0620   29.6340   42.1080 C   0  0  0  0  0  0  0  0  0  0  0  0
   38.2230   30.1510   40.8270 C   0  0  0  0  0  0  0  0  0  0  0  0
   38.5050   29.2540   39.7850 C   0  0  0  0  0  0  0  0  0  0  0  0
   38.6110   27.9220   40.0600 N   0  0  0  0  0  0  0  0  0  0  0  0
   38.4480   27.4630   41.3200 C   0  0  0  0  0  0  0  0  0  0  0  0
   38.1790   28.3000   42.3230 N   0  0  0  0  0  0  0  0  0  0  0  0
   37.8470   30.1540   43.0140 H   0  0  0  0  0  0  0  0  0  0  0  0
   38.6240   29.6910   38.7970 H   0  0  0  0  0  0  0  0  0  0  0  0
   38.5880   26.0520   41.4470 N   0  0  0  0  0  0  0  0  0  0  0  0
   39.2580   25.5400   42.5060 C   0  0  0  0  0  0  0  0  0  0  0  0
   39.7610   25.9830   43.3620 H   0  0  0  0  0  0  0  0  0  0  0  0
   39.2670   24.1930   42.4200 N   0  0  0  0  0  0  0  0  0  0  0  0
   38.6120   23.8440   41.3220 C   0  0  0  0  0  0  0  0  0  0  0  0
   38.2410   22.7110   40.6300 C   0  0  0  0  0  0  0  0  0  0  0  0
   38.5550   21.7550   41.0720 H   0  0  0  0  0  0  0  0  0  0  0  0
   37.5410   22.7100   39.4810 N   0  0  0  0  0  0  0  0  0  0  0  0
   37.1650   23.9100   38.9550 C   0  0  0  0  0  0  0  0  0  0  0  0
   36.6150   23.8410   38.0470 H   0  0  0  0  0  0  0  0  0  0  0  0
   37.4850   25.0730   39.5650 N   0  0  0  0  0  0  0  0  0  0  0  0
   38.1890   25.0240   40.7150 C   0  0  0  0  0  0  0  0  0  0  0  0
   38.1020   31.5400   40.6800 N   0  0  0  0  0  0  0  0  0  0  0  0
   39.2480   32.3540   40.9800 C   0  0  0  0  0  0  0  0  0  0  0  0
   38.9990   33.8200   40.8360 C   0  0  0  0  0  0  0  0  0  0  0  0
   38.2820   34.1840   39.6730 N   0  0  0  0  0  0  0  0  0  0  0  0
   37.2800   33.3020   39.2120 C   0  0  0  0  0  0  0  0  0  0  0  0
   36.9390   32.2560   40.2610 C   0  0  0  0  0  0  0  0  0  0  0  0
   40.1580   32.0100   40.4480 H   0  0  0  0  0  0  0  0  0  0  0  0
   39.4670   32.1670   42.0720 H   0  0  0  0  0  0  0  0  0  0  0  0
   39.9840   34.3320   40.8210 H   0  0  0  0  0  0  0  0  0  0  0  0
   38.4800   34.1890   41.7610 H   0  0  0  0  0  0  0  0  0  0  0  0
   37.8550   35.1390   39.8720 H   0  0  0  0  0  0  0  0  0  0  0  0
   37.6440   32.8110   38.2710 H   0  0  0  0  0  0  0  0  0  0  0  0
   36.3150   33.7800   38.9340 H   0  0  0  0  0  0  0  0  0  0  0  0
   36.5750   32.8410   41.1460 H   0  0  0  0  0  0  0  0  0  0  0  0
   36.1150   31.6790   39.8530 H   0  0  0  0  0  0  0  0  0  0  0  0
  1  6  1  0  0  0  0
  1  7  1  0  0  0  0
  2  1  2  0  0  0  0
  3  4  2  0  0  0  0
  3  2  1  0  0  0  0
  4  5  1  0  0  0  0
  5  9  1  0  0  0  0
  5  6  2  0  0  0  0
  8  3  1  0  0  0  0
  9 10  1  0  0  0  0
 10 11  1  0  0  0  0
 12 10  2  0  0  0  0
 13 12  1  0  0  0  0
 14 15  1  0  0  0  0
 14 13  2  0  0  0  0
 16 14  1  0  0  0  0
 17 16  2  0  0  0  0
 17 19  1  0  0  0  0
 18 17  1  0  0  0  0
 19 20  2  0  0  0  0
 20 13  1  0  0  0  0
 20  9  1  0  0  0  0
 21  2  1  0  0  0  0
 21 22  1  0  0  0  0
 22 28  1  0  0  0  0
 23 22  1  0  0  0  0
 23 30  1  0  0  0  0
 24 31  1  0  0  0  0
 24 23  1  0  0  0  0
 25 24  1  0  0  0  0
 25 26  1  0  0  0  0
 26 21  1  0  0  0  0
 26 34  1  0  0  0  0
 27 22  1  0  0  0  0
 29 23  1  0  0  0  0
 32 25  1  0  0  0  0
 33 25  1  0  0  0  0
 35 26  1  0  0  0  0
M  END
>  <minimizedAffinity>
-5.02366447

$$$$

 OpenBabel03242518243D

 35 38  0  0  0  0  0  0  0  0999 V2000
   40.3820   31.9100   39.9480 C   0  0  0  0  0  0  0  0  0  0  0  0
   41.2690   31.2980   39.0680 C   0  0  0  0  0  0  0  0  0  0  0  0
   41.3420   29.8960   39.0760 C   0  0  0  0  0  0  0  0  0  0  0  0
   40.5530   29.1900   39.9360 N   0  0  0  0  0  0  0  0  0  0  0  0
   39.7060   29.8260   40.7750 C   0  0  0  0  0  0  0  0  0  0  0  0
   39.6210   31.1570   40.7810 N   0  0  0  0  0  0  0  0  0  0  0  0
   40.1900   32.9500   40.0830 H   0  0  0  0  0  0  0  0  0  0  0  0
   42.0440   29.4510   38.3760 H   0  0  0  0  0  0  0  0  0  0  0  0
   38.9510   28.9540   41.6090 N   0  0  0  0  0  0  0  0  0  0  0  0
   38.7560   29.2760   42.9090 C   0  0  0  0  0  0  0  0  0  0  0  0
   39.0630   30.1150   43.5290 H   0  0  0  0  0  0  0  0  0  0  0  0
   38.0190   28.3130   43.5030 N   0  0  0  0  0  0  0  0  0  0  0  0
   37.7440   27.3850   42.5970 C   0  0  0  0  0  0  0  0  0  0  0  0
   37.0770   26.1850   42.4860 C   0  0  0  0  0  0  0  0  0  0  0  0
   36.5940   25.8180   43.4030 H   0  0  0  0  0  0  0  0  0  0  0  0
   36.9870   25.4590   41.3570 N   0  0  0  0  0  0  0  0  0  0  0  0
   37.5970   25.9380   40.2350 C   0  0  0  0  0  0  0  0  0  0  0  0
   37.4890   25.3180   39.3770 H   0  0  0  0  0  0  0  0  0  0  0  0
   38.2750   27.1070   40.2500 N   0  0  0  0  0  0  0  0  0  0  0  0
   38.3370   27.7990   41.4070 C   0  0  0  0  0  0  0  0  0  0  0  0
   42.0330   32.1370   38.2460 N   0  0  0  0  0  0  0  0  0  0  0  0
   41.7810   33.5510   38.3020 C   0  0  0  0  0  0  0  0  0  0  0  0
   42.6150   34.3490   37.3540 C   0  0  0  0  0  0  0  0  0  0  0  0
   43.9790   33.9750   37.3110 N   0  0  0  0  0  0  0  0  0  0  0  0
   44.2930   32.6070   37.4670 C   0  0  0  0  0  0  0  0  0  0  0  0
   43.0550   31.7370   37.3310 C   0  0  0  0  0  0  0  0  0  0  0  0
   41.8040   33.9390   39.3400 H   0  0  0  0  0  0  0  0  0  0  0  0
   40.7080   33.6750   37.9750 H   0  0  0  0  0  0  0  0  0  0  0  0
   42.5490   35.4150   37.6590 H   0  0  0  0  0  0  0  0  0  0  0  0
   42.1500   34.2960   36.3340 H   0  0  0  0  0  0  0  0  0  0  0  0
   44.3550   34.3260   36.3780 H   0  0  0  0  0  0  0  0  0  0  0  0
   44.7650   32.4640   38.4740 H   0  0  0  0  0  0  0  0  0  0  0  0
   45.0310   32.2020   36.7400 H   0  0  0  0  0  0  0  0  0  0  0  0
   42.6690   31.9400   36.2970 H   0  0  0  0  0  0  0  0  0  0  0  0
   43.4020   30.7090   37.3860 H   0  0  0  0  0  0  0  0  0  0  0  0
  1  7  1  0  0  0  0
  1  6  1  0  0  0  0
  2  3  1  0  0  0  0
  2  1  2  0  0  0  0
  3  4  2  0  0  0  0
  4  5  1  0  0  0  0
  5  6  2  0  0  0  0
  5  9  1  0  0  0  0
  8  3  1  0  0  0  0
  9 10  1  0  0  0  0
 10 12  2  0  0  0  0
 10 11  1  0  0  0  0
 13 12  1  0  0  0  0
 14 13  1  0  0  0  0
 14 15  1  0  0  0  0
 16 14  2  0  0  0  0
 17 19  2  0  0  0  0
 17 16  1  0  0  0  0
 18 17  1  0  0  0  0
 19 20  1  0  0  0  0
 20  9  1  0  0  0  0
 20 13  2  0  0  0  0
 21 22  1  0  0  0  0
 21  2  1  0  0  0  0
 22 27  1  0  0  0  0
 23 29  1  0  0  0  0
 23 22  1  0  0  0  0
 24 23  1  0  0  0  0
 24 25  1  0  0  0  0
 25 32  1  0  0  0  0
 26 35  1  0  0  0  0
 26 25  1  0  0  0  0
 26 21  1  0  0  0  0
 28 22  1  0  0  0  0
 30 23  1  0  0  0  0
 31 24  1  0  0  0  0
 33 25  1  0  0  0  0
 34 26  1  0  0  0  0
M  END
>  <minimizedAffinity>
-4.88493443

$$$$

 OpenBabel03242518243D

 35 38  0  0  0  0  0  0  0  0999 V2000
   37.5640   30.1930   41.0470 C   0  0  0  0  0  0  0  0  0  0  0  0
   38.2440   30.4520   39.8620 C   0  0  0  0  0  0  0  0  0  0  0  0
   38.5470   29.3650   39.0270 C   0  0  0  0  0  0  0  0  0  0  0  0
   38.1700   28.1090   39.4000 N   0  0  0  0  0  0  0  0  0  0  0  0
   37.5110   27.9040   40.5620 C   0  0  0  0  0  0  0  0  0  0  0  0
   37.2130   28.9230   41.3680 N   0  0  0  0  0  0  0  0  0  0  0  0
   37.2500   30.8820   41.7990 H   0  0  0  0  0  0  0  0  0  0  0  0
   39.0790   29.6030   38.1090 H   0  0  0  0  0  0  0  0  0  0  0  0
   37.1870   26.5400   40.8120 N   0  0  0  0  0  0  0  0  0  0  0  0
   37.3280   26.0380   42.0610 C   0  0  0  0  0  0  0  0  0  0  0  0
   37.6590   26.4600   43.0060 H   0  0  0  0  0  0  0  0  0  0  0  0
   36.9660   24.7380   42.0640 N   0  0  0  0  0  0  0  0  0  0  0  0
   36.5960   24.4080   40.8340 C   0  0  0  0  0  0  0  0  0  0  0  0
   36.1340   23.3190   40.1280 C   0  0  0  0  0  0  0  0  0  0  0  0
   36.0060   22.3930   40.7050 H   0  0  0  0  0  0  0  0  0  0  0  0
   35.8400   23.3260   38.8150 N   0  0  0  0  0  0  0  0  0  0  0  0
   36.0090   24.4890   38.1240 C   0  0  0  0  0  0  0  0  0  0  0  0
   35.7600   24.4280   37.0910 H   0  0  0  0  0  0  0  0  0  0  0  0
   36.4590   25.6080   38.7340 N   0  0  0  0  0  0  0  0  0  0  0  0
   36.7400   25.5520   40.0520 C   0  0  0  0  0  0  0  0  0  0  0  0
   38.5860   31.7860   39.6000 N   0  0  0  0  0  0  0  0  0  0  0  0
   38.0440   32.8040   40.4590 C   0  0  0  0  0  0  0  0  0  0  0  0
   38.4320   34.1910   40.0650 C   0  0  0  0  0  0  0  0  0  0  0  0
   39.7950   34.3470   39.7230 N   0  0  0  0  0  0  0  0  0  0  0  0
   40.4360   33.2770   39.0610 C   0  0  0  0  0  0  0  0  0  0  0  0
   39.4280   32.2610   38.5490 C   0  0  0  0  0  0  0  0  0  0  0  0
   38.2220   32.5860   41.5310 H   0  0  0  0  0  0  0  0  0  0  0  0
   36.9240   32.7310   40.3340 H   0  0  0  0  0  0  0  0  0  0  0  0
   38.2020   34.8630   40.9190 H   0  0  0  0  0  0  0  0  0  0  0  0
   37.7650   34.5270   39.2270 H   0  0  0  0  0  0  0  0  0  0  0  0
   39.8550   35.2260   39.1240 H   0  0  0  0  0  0  0  0  0  0  0  0
   41.1510   32.7930   39.7780 H   0  0  0  0  0  0  0  0  0  0  0  0
   41.0550   33.5620   38.1820 H   0  0  0  0  0  0  0  0  0  0  0  0
   38.7760   32.8330   37.8370 H   0  0  0  0  0  0  0  0  0  0  0  0
   40.0000   31.5240   37.9930 H   0  0  0  0  0  0  0  0  0  0  0  0
  1  6  1  0  0  0  0
  1  7  1  0  0  0  0
  2  1  2  0  0  0  0
  3  4  2  0  0  0  0
  3  2  1  0  0  0  0
  4  5  1  0  0  0  0
  5  9  1  0  0  0  0
  5  6  2  0  0  0  0
  8  3  1  0  0  0  0
  9 10  1  0  0  0  0
 10 12  2  0  0  0  0
 10 11  1  0  0  0  0
 13 12  1  0  0  0  0
 14 15  1  0  0  0  0
 14 13  1  0  0  0  0
 16 14  2  0  0  0  0
 17 19  2  0  0  0  0
 17 16  1  0  0  0  0
 18 17  1  0  0  0  0
 19 20  1  0  0  0  0
 20  9  1  0  0  0  0
 20 13  2  0  0  0  0
 21  2  1  0  0  0  0
 21 22  1  0  0  0  0
 22 27  1  0  0  0  0
 23 22  1  0  0  0  0
 23 29  1  0  0  0  0
 24 23  1  0  0  0  0
 25 24  1  0  0  0  0
 25 32  1  0  0  0  0
 26 25  1  0  0  0  0
 26 21  1  0  0  0  0
 28 22  1  0  0  0  0
 30 23  1  0  0  0  0
 31 24  1  0  0  0  0
 33 25  1  0  0  0  0
 34 26  1  0  0  0  0
 35 26  1  0  0  0  0
M  END
>  <minimizedAffinity>
-4.86684752

$$$$

 OpenBabel03242518243D

 35 38  0  0  0  0  0  0  0  0999 V2000
   39.9770   31.6760   38.8650 C   0  0  0  0  0  0  0  0  0  0  0  0
   41.0110   31.9560   39.7530 C   0  0  0  0  0  0  0  0  0  0  0  0
   41.0500   31.2470   40.9630 C   0  0  0  0  0  0  0  0  0  0  0  0
   40.0850   30.3190   41.2260 N   0  0  0  0  0  0  0  0  0  0  0  0
   39.0980   30.0800   40.3350 C   0  0  0  0  0  0  0  0  0  0  0  0
   39.0450   30.7430   39.1800 N   0  0  0  0  0  0  0  0  0  0  0  0
   39.7860   32.1080   37.9090 H   0  0  0  0  0  0  0  0  0  0  0  0
   41.8710   31.4900   41.6330 H   0  0  0  0  0  0  0  0  0  0  0  0
   38.1680   29.0860   40.7520 N   0  0  0  0  0  0  0  0  0  0  0  0
   36.8460   29.2720   40.5270 C   0  0  0  0  0  0  0  0  0  0  0  0
   36.2680   30.0670   40.0640 H   0  0  0  0  0  0  0  0  0  0  0  0
   36.1590   28.2110   41.0020 N   0  0  0  0  0  0  0  0  0  0  0  0
   37.0260   27.3560   41.5250 C   0  0  0  0  0  0  0  0  0  0  0  0
   37.0500   26.1310   42.1550 C   0  0  0  0  0  0  0  0  0  0  0  0
   36.0740   25.6490   42.3060 H   0  0  0  0  0  0  0  0  0  0  0  0
   38.1650   25.5100   42.5820 N   0  0  0  0  0  0  0  0  0  0  0  0
   39.3630   26.1300   42.3820 C   0  0  0  0  0  0  0  0  0  0  0  0
   40.2040   25.5890   42.7430 H   0  0  0  0  0  0  0  0  0  0  0  0
   39.4360   27.3350   41.7730 N   0  0  0  0  0  0  0  0  0  0  0  0
   38.2900   27.9180   41.3630 C   0  0  0  0  0  0  0  0  0  0  0  0
   41.9320   32.9410   39.3690 N   0  0  0  0  0  0  0  0  0  0  0  0
   43.2980   32.7910   39.7910 C   0  0  0  0  0  0  0  0  0  0  0  0
   44.1840   33.9170   39.3700 C   0  0  0  0  0  0  0  0  0  0  0  0
   44.0040   34.3400   38.0320 N   0  0  0  0  0  0  0  0  0  0  0  0
   42.6970   34.3020   37.4980 C   0  0  0  0  0  0  0  0  0  0  0  0
   41.6590   34.1080   38.5920 C   0  0  0  0  0  0  0  0  0  0  0  0
   43.7070   31.7920   39.5390 H   0  0  0  0  0  0  0  0  0  0  0  0
   43.2630   32.8090   40.9190 H   0  0  0  0  0  0  0  0  0  0  0  0
   45.2370   33.5860   39.4980 H   0  0  0  0  0  0  0  0  0  0  0  0
   44.0460   34.7710   40.0850 H   0  0  0  0  0  0  0  0  0  0  0  0
   44.3840   35.3330   37.9790 H   0  0  0  0  0  0  0  0  0  0  0  0
   42.6420   33.4660   36.7520 H   0  0  0  0  0  0  0  0  0  0  0  0
   42.3840   35.2110   36.9390 H   0  0  0  0  0  0  0  0  0  0  0  0
   41.7850   34.9930   39.2710 H   0  0  0  0  0  0  0  0  0  0  0  0
   40.6920   34.1700   38.1030 H   0  0  0  0  0  0  0  0  0  0  0  0
  1  6  2  0  0  0  0
  1  2  1  0  0  0  0
  2  3  2  0  0  0  0
  3  4  1  0  0  0  0
  3  8  1  0  0  0  0
  5  9  1  0  0  0  0
  5  4  2  0  0  0  0
  6  5  1  0  0  0  0
  7  1  1  0  0  0  0
  9 20  1  0  0  0  0
 10  9  1  0  0  0  0
 10 12  2  0  0  0  0
 11 10  1  0  0  0  0
 12 13  1  0  0  0  0
 13 14  1  0  0  0  0
 14 15  1  0  0  0  0
 14 16  2  0  0  0  0
 17 16  1  0  0  0  0
 17 18  1  0  0  0  0
 19 17  2  0  0  0  0
 20 13  2  0  0  0  0
 20 19  1  0  0  0  0
 21  2  1  0  0  0  0
 21 22  1  0  0  0  0
 22 28  1  0  0  0  0
 23 29  1  0  0  0  0
 23 22  1  0  0  0  0
 23 30  1  0  0  0  0
 24 23  1  0  0  0  0
 25 24  1  0  0  0  0
 25 26  1  0  0  0  0
 26 34  1  0  0  0  0
 26 21  1  0  0  0  0
 27 22  1  0  0  0  0
 31 24  1  0  0  0  0
 32 25  1  0  0  0  0
 33 25  1  0  0  0  0
 35 26  1  0  0  0  0
M  END
>  <minimizedAffinity>
-4.82049227

$$$$

 OpenBabel03242518243D

 35 38  0  0  0  0  0  0  0  0999 V2000
   41.2620   29.6970   37.9520 C   0  0  0  0  0  0  0  0  0  0  0  0
   41.1170   31.0270   38.3330 C   0  0  0  0  0  0  0  0  0  0  0  0
   40.1280   31.3350   39.2810 C   0  0  0  0  0  0  0  0  0  0  0  0
   39.3530   30.3340   39.7880 N   0  0  0  0  0  0  0  0  0  0  0  0
   39.5290   29.0560   39.3880 C   0  0  0  0  0  0  0  0  0  0  0  0
   40.4630   28.7430   38.4900 N   0  0  0  0  0  0  0  0  0  0  0  0
   41.9510   29.2760   37.2540 H   0  0  0  0  0  0  0  0  0  0  0  0
   40.0420   32.3830   39.5570 H   0  0  0  0  0  0  0  0  0  0  0  0
   38.6450   28.1270   40.0080 N   0  0  0  0  0  0  0  0  0  0  0  0
   38.0880   27.1400   39.2670 C   0  0  0  0  0  0  0  0  0  0  0  0
   38.1570   26.8560   38.2210 H   0  0  0  0  0  0  0  0  0  0  0  0
   37.2920   26.3860   40.0550 N   0  0  0  0  0  0  0  0  0  0  0  0
   37.3360   26.8810   41.2840 C   0  0  0  0  0  0  0  0  0  0  0  0
   36.8110   26.6460   42.5350 C   0  0  0  0  0  0  0  0  0  0  0  0
   36.1280   25.7880   42.6160 H   0  0  0  0  0  0  0  0  0  0  0  0
   37.0770   27.3820   43.6300 N   0  0  0  0  0  0  0  0  0  0  0  0
   37.9270   28.4400   43.5010 C   0  0  0  0  0  0  0  0  0  0  0  0
   38.0950   28.9810   44.4020 H   0  0  0  0  0  0  0  0  0  0  0  0
   38.4890   28.7470   42.3110 N   0  0  0  0  0  0  0  0  0  0  0  0
   38.1920   27.9800   41.2420 C   0  0  0  0  0  0  0  0  0  0  0  0
   41.9680   31.9610   37.7270 N   0  0  0  0  0  0  0  0  0  0  0  0
   41.7300   33.3560   37.9800 C   0  0  0  0  0  0  0  0  0  0  0  0
   42.6620   34.2670   37.2510 C   0  0  0  0  0  0  0  0  0  0  0  0
   44.0190   33.8670   37.2770 N   0  0  0  0  0  0  0  0  0  0  0  0
   44.2990   32.4830   37.2460 C   0  0  0  0  0  0  0  0  0  0  0  0
   43.0680   31.6780   36.8610 C   0  0  0  0  0  0  0  0  0  0  0  0
   41.6580   33.5790   39.0640 H   0  0  0  0  0  0  0  0  0  0  0  0
   40.6960   33.5590   37.5770 H   0  0  0  0  0  0  0  0  0  0  0  0
   42.5810   35.2750   37.7100 H   0  0  0  0  0  0  0  0  0  0  0  0
   42.2980   34.3850   36.1950 H   0  0  0  0  0  0  0  0  0  0  0  0
   44.4880   34.3460   36.4500 H   0  0  0  0  0  0  0  0  0  0  0  0
   44.6700   32.1720   38.2580 H   0  0  0  0  0  0  0  0  0  0  0  0
   45.0990   32.1740   36.5370 H   0  0  0  0  0  0  0  0  0  0  0  0
   42.7870   32.0490   35.8390 H   0  0  0  0  0  0  0  0  0  0  0  0
   43.3950   30.6460   36.7860 H   0  0  0  0  0  0  0  0  0  0  0  0
  1  2  2  0  0  0  0
  1  6  1  0  0  0  0
  2  3  1  0  0  0  0
  3  8  1  0  0  0  0
  3  4  2  0  0  0  0
  5  4  1  0  0  0  0
  5  9  1  0  0  0  0
  6  5  2  0  0  0  0
  7  1  1  0  0  0  0
  9 20  1  0  0  0  0
 10  9  1  0  0  0  0
 10 12  2  0  0  0  0
 11 10  1  0  0  0  0
 12 13  1  0  0  0  0
 13 14  1  0  0  0  0
 14 15  1  0  0  0  0
 14 16  2  0  0  0  0
 17 16  1  0  0  0  0
 17 18  1  0  0  0  0
 19 17  2  0  0  0  0
 20 13  2  0  0  0  0
 20 19  1  0  0  0  0
 21 22  1  0  0  0  0
 21  2  1  0  0  0  0
 22 27  1  0  0  0  0
 23 24  1  0  0  0  0
 23 29  1  0  0  0  0
 23 22  1  0  0  0  0
 25 24  1  0  0  0  0
 25 32  1  0  0  0  0
 26 25  1  0  0  0  0
 26 21  1  0  0  0  0
 28 22  1  0  0  0  0
 30 23  1  0  0  0  0
 31 24  1  0  0  0  0
 33 25  1  0  0  0  0
 34 26  1  0  0  0  0
 35 26  1  0  0  0  0
M  END
>  <minimizedAffinity>
-4.74309301

$$$$

 OpenBabel03242518243D

 35 38  0  0  0  0  0  0  0  0999 V2000
   36.1280   29.6100   39.0420 C   0  0  0  0  0  0  0  0  0  0  0  0
   36.0980   29.4170   37.6650 C   0  0  0  0  0  0  0  0  0  0  0  0
   36.9040   30.2430   36.8670 C   0  0  0  0  0  0  0  0  0  0  0  0
   37.6790   31.1960   37.4600 N   0  0  0  0  0  0  0  0  0  0  0  0
   37.6770   31.3490   38.8020 C   0  0  0  0  0  0  0  0  0  0  0  0
   36.9190   30.5730   39.5770 N   0  0  0  0  0  0  0  0  0  0  0  0
   35.5910   29.0860   39.8000 H   0  0  0  0  0  0  0  0  0  0  0  0
   36.8560   30.0650   35.7950 H   0  0  0  0  0  0  0  0  0  0  0  0
   38.5370   32.3830   39.2700 N   0  0  0  0  0  0  0  0  0  0  0  0
   38.1180   33.2010   40.2640 C   0  0  0  0  0  0  0  0  0  0  0  0
   37.2030   33.2680   40.8450 H   0  0  0  0  0  0  0  0  0  0  0  0
   39.0880   34.0990   40.5420 N   0  0  0  0  0  0  0  0  0  0  0  0
   40.1150   33.8610   39.7380 C   0  0  0  0  0  0  0  0  0  0  0  0
   41.3760   34.3450   39.4680 C   0  0  0  0  0  0  0  0  0  0  0  0
   41.7020   35.2020   40.0740 H   0  0  0  0  0  0  0  0  0  0  0  0
   42.2050   33.8440   38.5330 N   0  0  0  0  0  0  0  0  0  0  0  0
   41.7760   32.7810   37.7950 C   0  0  0  0  0  0  0  0  0  0  0  0
   42.4760   32.4340   37.0750 H   0  0  0  0  0  0  0  0  0  0  0  0
   40.5520   32.2410   37.9910 N   0  0  0  0  0  0  0  0  0  0  0  0
   39.7570   32.7780   38.9390 C   0  0  0  0  0  0  0  0  0  0  0  0
   35.2480   28.4130   37.1810 N   0  0  0  0  0  0  0  0  0  0  0  0
   35.3560   27.1000   37.7560 C   0  0  0  0  0  0  0  0  0  0  0  0
   34.4410   26.0960   37.1370 C   0  0  0  0  0  0  0  0  0  0  0  0
   33.1210   26.5560   36.9170 N   0  0  0  0  0  0  0  0  0  0  0  0
   32.9470   27.9100   36.5550 C   0  0  0  0  0  0  0  0  0  0  0  0
   34.2660   28.5480   36.1510 C   0  0  0  0  0  0  0  0  0  0  0  0
   35.3000   27.1210   38.8620 H   0  0  0  0  0  0  0  0  0  0  0  0
   36.4090   26.7630   37.5290 H   0  0  0  0  0  0  0  0  0  0  0  0
   34.4000   25.2130   37.8100 H   0  0  0  0  0  0  0  0  0  0  0  0
   34.9030   25.7280   36.1810 H   0  0  0  0  0  0  0  0  0  0  0  0
   32.7060   25.9280   36.1650 H   0  0  0  0  0  0  0  0  0  0  0  0
   32.4980   28.4560   37.4260 H   0  0  0  0  0  0  0  0  0  0  0  0
   32.2490   28.0910   35.7080 H   0  0  0  0  0  0  0  0  0  0  0  0
   34.6230   27.9460   35.2740 H   0  0  0  0  0  0  0  0  0  0  0  0
   34.0250   29.5530   35.8180 H   0  0  0  0  0  0  0  0  0  0  0  0
  1  6  1  0  0  0  0
  1  7  1  0  0  0  0
  2  1  2  0  0  0  0
  3  4  2  0  0  0  0
  3  2  1  0  0  0  0
  4  5  1  0  0  0  0
  5  9  1  0  0  0  0
  5  6  2  0  0  0  0
  8  3  1  0  0  0  0
  9 10  1  0  0  0  0
 10 12  2  0  0  0  0
 10 11  1  0  0  0  0
 13 12  1  0  0  0  0
 14 13  1  0  0  0  0
 14 15  1  0  0  0  0
 16 14  2  0  0  0  0
 17 19  2  0  0  0  0
 17 16  1  0  0  0  0
 18 17  1  0  0  0  0
 19 20  1  0  0  0  0
 20  9  1  0  0  0  0
 20 13  2  0  0  0  0
 21  2  1  0  0  0  0
 21 22  1  0  0  0  0
 22 27  1  0  0  0  0
 23 22  1  0  0  0  0
 23 29  1  0  0  0  0
 24 23  1  0  0  0  0
 25 24  1  0  0  0  0
 25 32  1  0  0  0  0
 26 25  1  0  0  0  0
 26 21  1  0  0  0  0
 28 22  1  0  0  0  0
 30 23  1  0  0  0  0
 31 24  1  0  0  0  0
 33 25  1  0  0  0  0
 34 26  1  0  0  0  0
 35 26  1  0  0  0  0
M  END
>  <minimizedAffinity>
-4.70130301

$$$$

 OpenBabel03242518243D

 35 38  0  0  0  0  0  0  0  0999 V2000
   38.8900   26.5220   40.5460 C   0  0  0  0  0  0  0  0  0  0  0  0
   37.5180   26.2960   40.5960 C   0  0  0  0  0  0  0  0  0  0  0  0
   36.6770   27.4010   40.8010 C   0  0  0  0  0  0  0  0  0  0  0  0
   37.2240   28.6420   40.9420 N   0  0  0  0  0  0  0  0  0  0  0  0
   38.5630   28.8140   40.8870 C   0  0  0  0  0  0  0  0  0  0  0  0
   39.3790   27.7780   40.6930 N   0  0  0  0  0  0  0  0  0  0  0  0
   39.6760   25.8160   40.4000 H   0  0  0  0  0  0  0  0  0  0  0  0
   35.6110   27.1890   40.8350 H   0  0  0  0  0  0  0  0  0  0  0  0
   38.9810   30.1660   41.0510 N   0  0  0  0  0  0  0  0  0  0  0  0
   40.0680   30.4410   41.8100 C   0  0  0  0  0  0  0  0  0  0  0  0
   40.7630   29.8270   42.3770 H   0  0  0  0  0  0  0  0  0  0  0  0
   40.2760   31.7750   41.8250 N   0  0  0  0  0  0  0  0  0  0  0  0
   39.3370   32.3490   41.0860 C   0  0  0  0  0  0  0  0  0  0  0  0
   38.9400   33.6010   40.6720 C   0  0  0  0  0  0  0  0  0  0  0  0
   39.5520   34.4420   41.0290 H   0  0  0  0  0  0  0  0  0  0  0  0
   37.8810   33.8460   39.8790 N   0  0  0  0  0  0  0  0  0  0  0  0
   37.1390   32.7860   39.4510 C   0  0  0  0  0  0  0  0  0  0  0  0
   36.3170   33.0470   38.8290 H   0  0  0  0  0  0  0  0  0  0  0  0
   37.4540   31.5210   39.8080 N   0  0  0  0  0  0  0  0  0  0  0  0
   38.5250   31.3250   40.6040 C   0  0  0  0  0  0  0  0  0  0  0  0
   37.0840   24.9710   40.4500 N   0  0  0  0  0  0  0  0  0  0  0  0
   36.1900   24.6690   39.3660 C   0  0  0  0  0  0  0  0  0  0  0  0
   35.7520   23.2410   39.3290 C   0  0  0  0  0  0  0  0  0  0  0  0
   36.7870   22.3010   39.5440 N   0  0  0  0  0  0  0  0  0  0  0  0
   37.8140   22.6470   40.4500 C   0  0  0  0  0  0  0  0  0  0  0  0
   37.4330   23.8620   41.2790 C   0  0  0  0  0  0  0  0  0  0  0  0
   36.5720   25.0360   38.3930 H   0  0  0  0  0  0  0  0  0  0  0  0
   35.2660   25.2870   39.5620 H   0  0  0  0  0  0  0  0  0  0  0  0
   35.3020   23.0510   38.3310 H   0  0  0  0  0  0  0  0  0  0  0  0
   34.9200   23.1010   40.0690 H   0  0  0  0  0  0  0  0  0  0  0  0
   36.3130   21.4030   39.8640 H   0  0  0  0  0  0  0  0  0  0  0  0
   38.7500   22.8480   39.8650 H   0  0  0  0  0  0  0  0  0  0  0  0
   38.0920   21.8550   41.1790 H   0  0  0  0  0  0  0  0  0  0  0  0
   36.5040   23.5570   41.8310 H   0  0  0  0  0  0  0  0  0  0  0  0
   38.2390   24.0030   41.9930 H   0  0  0  0  0  0  0  0  0  0  0  0
  1  2  2  0  0  0  0
  1  6  1  0  0  0  0
  2  3  1  0  0  0  0
  3  8  1  0  0  0  0
  3  4  2  0  0  0  0
  5  4  1  0  0  0  0
  5  9  1  0  0  0  0
  6  5  2  0  0  0  0
  7  1  1  0  0  0  0
  9 10  1  0  0  0  0
 10 12  2  0  0  0  0
 10 11  1  0  0  0  0
 13 12  1  0  0  0  0
 14 15  1  0  0  0  0
 14 13  1  0  0  0  0
 16 14  2  0  0  0  0
 17 19  2  0  0  0  0
 17 16  1  0  0  0  0
 18 17  1  0  0  0  0
 19 20  1  0  0  0  0
 20  9  1  0  0  0  0
 20 13  2  0  0  0  0
 21  2  1  0  0  0  0
 21 26  1  0  0  0  0
 22 28  1  0  0  0  0
 22 21  1  0  0  0  0
 23 22  1  0  0  0  0
 23 24  1  0  0  0  0
 23 30  1  0  0  0  0
 24 31  1  0  0  0  0
 24 25  1  0  0  0  0
 25 33  1  0  0  0  0
 25 26  1  0  0  0  0
 26 34  1  0  0  0  0
 26 35  1  0  0  0  0
 27 22  1  0  0  0  0
 29 23  1  0  0  0  0
 32 25  1  0  0  0  0
M  END
>  <minimizedAffinity>
-4.69734764

$$$$
