
 OpenBabel03242523543D

 48 52  0  0  1  0  0  0  0  0999 V2000
   42.6850   34.4790   38.8570 C   0  0  1  0  0  0  0  0  0  0  0  0
   42.9890   35.2030   40.1600 C   0  0  1  0  0  0  0  0  0  0  0  0
   41.7600   35.5510   40.7650 O   0  0  0  0  0  0  0  0  0  0  0  0
   40.7820   35.9070   39.8290 C   0  0  0  0  0  0  0  0  0  0  0  0
   40.3210   34.7110   39.0150 C   0  0  2  0  0  0  0  0  0  0  0  0
   41.4700   33.6500   39.1140 C   0  0  1  0  0  0  0  0  0  0  0  0
   43.5670   33.8380   38.6060 H   0  0  0  0  0  0  0  0  0  0  0  0
   43.6210   36.0950   40.0160 H   0  0  0  0  0  0  0  0  0  0  0  0
   39.9260   36.2490   40.4180 H   0  0  0  0  0  0  0  0  0  0  0  0
   41.1120   36.7440   39.1850 H   0  0  0  0  0  0  0  0  0  0  0  0
   39.3880   34.2580   39.3830 H   0  0  0  0  0  0  0  0  0  0  0  0
   41.3310   33.4610   40.2300 H   0  0  0  0  0  0  0  0  0  0  0  0
   42.4570   35.3980   37.8200 O   0  0  0  0  0  0  0  0  0  0  0  0
   42.5400   34.8950   36.9620 H   0  0  0  0  0  0  0  0  0  0  0  0
   40.2600   35.0580   37.6740 O   0  0  0  0  0  0  0  0  0  0  0  0
   39.6770   34.4130   37.2310 H   0  0  0  0  0  0  0  0  0  0  0  0
   43.5180   34.2300   41.0110 O   0  0  0  0  0  0  0  0  0  0  0  0
   44.6330   34.3670   41.7400 C   0  0  0  0  0  0  0  0  0  0  0  0
   45.8880   34.4710   41.1230 C   0  0  0  0  0  0  0  0  0  0  0  0
   47.0090   34.6130   41.9240 C   0  0  0  0  0  0  0  0  0  0  0  0
   46.8580   34.6480   43.3010 N   0  0  0  0  0  0  0  0  0  0  0  0
   45.6300   34.5450   43.8580 C   0  0  0  0  0  0  0  0  0  0  0  0
   44.5250   34.4050   43.0830 N   0  0  0  0  0  0  0  0  0  0  0  0
   45.9930   34.4420   40.0460 H   0  0  0  0  0  0  0  0  0  0  0  0
   45.5810   34.5790   44.9430 H   0  0  0  0  0  0  0  0  0  0  0  0
   48.3850   34.7180   41.3300 C   0  0  0  0  0  0  0  0  0  0  0  0
   49.0990   36.0550   41.5130 C   0  0  0  0  0  0  0  0  0  0  0  0
   49.5400   34.7380   42.1760 C   0  0  0  0  0  0  0  0  0  0  0  0
   48.3910   34.4160   40.2540 H   0  0  0  0  0  0  0  0  0  0  0  0
   48.6420   36.7640   42.2580 H   0  0  0  0  0  0  0  0  0  0  0  0
   49.7150   36.4580   40.7130 H   0  0  0  0  0  0  0  0  0  0  0  0
   50.5200   34.3710   41.7990 H   0  0  0  0  0  0  0  0  0  0  0  0
   49.4340   34.6210   43.2580 H   0  0  0  0  0  0  0  0  0  0  0  0
   41.1900   32.6710   38.2400 O   0  0  0  0  0  0  0  0  0  0  0  0
   40.3590   31.6290   38.3050 C   0  0  0  0  0  0  0  0  0  0  0  0
   39.4090   31.4290   37.3970 O   0  0  0  0  0  0  0  0  0  0  0  0
   41.6220   30.9930   40.8900 H   0  0  0  0  0  0  0  0  0  0  0  0
   40.9230   30.4200   40.4090 N   0  0  0  0  0  0  0  0  0  0  0  0
   40.2400   30.4800   39.2880 C   0  0  0  0  0  0  0  0  0  0  0  0
   39.4540   29.3570   39.2470 N   0  0  0  0  0  0  0  0  0  0  0  0
   39.6530   28.6120   40.3310 C   0  0  0  0  0  0  0  0  0  0  0  0
   39.0570   27.4140   40.6600 C   0  0  0  0  0  0  0  0  0  0  0  0
   38.3300   26.9180   40.0520 H   0  0  0  0  0  0  0  0  0  0  0  0
   39.4580   26.8730   41.8430 N   0  0  0  0  0  0  0  0  0  0  0  0
   40.3760   27.4970   42.6120 C   0  0  0  0  0  0  0  0  0  0  0  0
   40.7310   27.1160   43.5600 H   0  0  0  0  0  0  0  0  0  0  0  0
   40.9060   28.6640   42.2150 N   0  0  0  0  0  0  0  0  0  0  0  0
   40.5880   29.2780   41.0820 C   0  0  0  0  0  0  0  0  0  0  0  0
  1  7  1  6  0  0  0
  1  6  1  0  0  0  0
  1  2  1  0  0  0  0
  2  8  1  6  0  0  0
  2  3  1  0  0  0  0
  2 17  1  0  0  0  0
  4  9  1  0  0  0  0
  4  3  1  0  0  0  0
  5  6  1  0  0  0  0
  5 11  1  1  0  0  0
  5  4  1  0  0  0  0
  6 12  1  1  0  0  0
 10  4  1  0  0  0  0
 13  1  1  0  0  0  0
 14 13  1  0  0  0  0
 15  5  1  0  0  0  0
 16 15  1  0  0  0  0
 17 18  1  0  0  0  0
 18 23  1  0  0  0  0
 19 18  2  0  0  0  0
 19 20  1  0  0  0  0
 20 21  2  0  0  0  0
 21 22  1  0  0  0  0
 22 25  1  0  0  0  0
 23 22  2  0  0  0  0
 24 19  1  0  0  0  0
 26 27  1  0  0  0  0
 26 20  1  0  0  0  0
 26 28  1  0  0  0  0
 27 28  1  0  0  0  0
 27 30  1  0  0  0  0
 28 33  1  0  0  0  0
 29 26  1  0  0  0  0
 31 27  1  0  0  0  0
 32 28  1  0  0  0  0
 34 35  1  0  0  0  0
 34  6  1  0  0  0  0
 35 39  1  0  0  0  0
 36 35  2  0  0  0  0
 38 37  1  0  0  0  0
 38 48  1  0  0  0  0
 39 38  1  0  0  0  0
 40 39  2  0  0  0  0
 40 41  1  0  0  0  0
 41 42  2  0  0  0  0
 41 48  1  0  0  0  0
 42 44  1  0  0  0  0
 43 42  1  0  0  0  0
 44 45  2  0  0  0  0
 45 46  1  0  0  0  0
 47 45  1  0  0  0  0
 48 47  2  0  0  0  0
M  END
>  <minimizedAffinity>
-6.16414356

>  <minimizedRMSD>
1.7146306

$$$$
