
 OpenBabel03252500143D

 41 45  0  0  0  0  0  0  0  0999 V2000
   45.5370   32.3860   40.4500 Cl  0  0  0  0  0  0  0  0  0  0  0  0
   46.8320   33.5020   40.1220 C   0  0  0  0  0  0  0  0  0  0  0  0
   47.3910   34.2380   41.1380 C   0  0  0  0  0  0  0  0  0  0  0  0
   48.4280   35.1390   40.9100 C   0  0  0  0  0  0  0  0  0  0  0  0
   48.8590   35.2500   39.6050 C   0  0  0  0  0  0  0  0  0  0  0  0
   48.2980   34.5100   38.5800 C   0  0  0  0  0  0  0  0  0  0  0  0
   47.3060   33.6530   38.8250 C   0  0  0  0  0  0  0  0  0  0  0  0
   48.8480   35.7050   41.7310 H   0  0  0  0  0  0  0  0  0  0  0  0
   49.6600   35.9430   39.4190 H   0  0  0  0  0  0  0  0  0  0  0  0
   48.6550   34.6150   37.5660 H   0  0  0  0  0  0  0  0  0  0  0  0
   46.8620   32.8870   44.5260 C   0  0  0  0  0  0  0  0  0  0  0  0
   45.9310   33.7970   45.0720 C   0  0  0  0  0  0  0  0  0  0  0  0
   45.5010   34.8550   44.2730 C   0  0  0  0  0  0  0  0  0  0  0  0
   45.9990   34.9620   43.0030 N   0  0  0  0  0  0  0  0  0  0  0  0
   46.8880   34.0770   42.5070 C   0  0  0  0  0  0  0  0  0  0  0  0
   47.3100   33.0500   43.2730 N   0  0  0  0  0  0  0  0  0  0  0  0
   47.1690   32.0810   45.1770 H   0  0  0  0  0  0  0  0  0  0  0  0
   45.5420   33.7080   46.0700 H   0  0  0  0  0  0  0  0  0  0  0  0
   44.5190   35.8810   44.7420 C   0  0  0  0  0  0  0  0  0  0  0  0
   44.9840   37.1390   44.5150 F   0  0  0  0  0  0  0  0  0  0  0  0
   43.3390   35.7000   44.0470 F   0  0  0  0  0  0  0  0  0  0  0  0
   44.3100   35.6400   46.0780 F   0  0  0  0  0  0  0  0  0  0  0  0
   46.6890   32.8570   37.7770 C   0  0  0  0  0  0  0  0  0  0  0  0
   45.6560   33.3040   36.9410 C   0  0  0  0  0  0  0  0  0  0  0  0
   45.3050   32.3010   36.0640 C   0  0  0  0  0  0  0  0  0  0  0  0
   46.1550   31.2750   36.4140 C   0  0  0  0  0  0  0  0  0  0  0  0
   46.9460   31.6260   37.4100 O   0  0  0  0  0  0  0  0  0  0  0  0
   45.1680   34.2930   36.9440 H   0  0  0  0  0  0  0  0  0  0  0  0
   44.5660   32.2630   35.2810 H   0  0  0  0  0  0  0  0  0  0  0  0
   46.2110   29.9820   35.8100 N   0  0  0  0  0  0  0  0  0  0  0  0
   47.2910   29.4610   35.1990 C   0  0  0  0  0  0  0  0  0  0  0  0
   48.2770   29.8760   35.0430 H   0  0  0  0  0  0  0  0  0  0  0  0
   46.9740   28.2140   34.7440 N   0  0  0  0  0  0  0  0  0  0  0  0
   45.6930   27.9430   35.0680 C   0  0  0  0  0  0  0  0  0  0  0  0
   44.7760   26.9210   34.9250 C   0  0  0  0  0  0  0  0  0  0  0  0
   45.1340   26.0330   34.3980 H   0  0  0  0  0  0  0  0  0  0  0  0
   43.5170   27.0240   35.4080 N   0  0  0  0  0  0  0  0  0  0  0  0
   43.1010   28.1280   36.0520 C   0  0  0  0  0  0  0  0  0  0  0  0
   42.1100   28.2580   36.4550 H   0  0  0  0  0  0  0  0  0  0  0  0
   43.9710   29.1520   36.2120 N   0  0  0  0  0  0  0  0  0  0  0  0
   45.2270   29.0640   35.7360 C   0  0  0  0  0  0  0  0  0  0  0  0
  2  1  1  0  0  0  0
  2  3  1  0  0  0  0
  3 15  1  0  0  0  0
  4  3  2  0  0  0  0
  4  8  1  0  0  0  0
  5  4  1  0  0  0  0
  6  7  1  0  0  0  0
  6  5  2  0  0  0  0
  7  2  2  0  0  0  0
  9  5  1  0  0  0  0
 10  6  1  0  0  0  0
 11 12  1  0  0  0  0
 11 17  1  0  0  0  0
 12 18  1  0  0  0  0
 13 19  1  0  0  0  0
 13 12  2  0  0  0  0
 14 13  1  0  0  0  0
 15 14  2  0  0  0  0
 15 16  1  0  0  0  0
 16 11  2  0  0  0  0
 19 22  1  0  0  0  0
 20 19  1  0  0  0  0
 21 19  1  0  0  0  0
 23  7  1  0  0  0  0
 24 28  1  0  0  0  0
 24 23  2  0  0  0  0
 25 26  2  0  0  0  0
 25 24  1  0  0  0  0
 26 27  1  0  0  0  0
 27 23  1  0  0  0  0
 29 25  1  0  0  0  0
 30 26  1  0  0  0  0
 31 30  1  0  0  0  0
 32 31  1  0  0  0  0
 33 34  1  0  0  0  0
 33 31  2  0  0  0  0
 34 41  1  0  0  0  0
 35 34  2  0  0  0  0
 35 37  1  0  0  0  0
 36 35  1  0  0  0  0
 37 38  2  0  0  0  0
 38 40  1  0  0  0  0
 38 39  1  0  0  0  0
 41 30  1  0  0  0  0
 41 40  2  0  0  0  0
M  END
>  <minimizedAffinity>
-5.89105225

>  <minimizedRMSD>
0.355553806

$$$$
