
 OpenBabel03252500093D

 34 37  0  0  0  0  0  0  0  0999 V2000
   46.1390   31.2660   40.0990 Cl  0  0  0  0  0  0  0  0  0  0  0  0
   46.9700   32.4700   39.1740 C   0  0  0  0  0  0  0  0  0  0  0  0
   47.4740   33.6030   39.7840 C   0  0  0  0  0  0  0  0  0  0  0  0
   48.1450   34.5900   39.0800 C   0  0  0  0  0  0  0  0  0  0  0  0
   48.2880   34.3860   37.7210 C   0  0  0  0  0  0  0  0  0  0  0  0
   47.7910   33.2620   37.1020 C   0  0  0  0  0  0  0  0  0  0  0  0
   47.1440   32.3200   37.8120 C   0  0  0  0  0  0  0  0  0  0  0  0
   48.5430   35.4720   39.5270 H   0  0  0  0  0  0  0  0  0  0  0  0
   48.7990   35.1120   37.1140 H   0  0  0  0  0  0  0  0  0  0  0  0
   47.8830   33.0660   36.0370 H   0  0  0  0  0  0  0  0  0  0  0  0
   46.6030   31.1250   37.2150 N   0  0  0  0  0  0  0  0  0  0  0  0
   47.1570   29.9820   36.7670 C   0  0  0  0  0  0  0  0  0  0  0  0
   48.2420   29.8360   36.8260 H   0  0  0  0  0  0  0  0  0  0  0  0
   46.1680   29.1900   36.2990 N   0  0  0  0  0  0  0  0  0  0  0  0
   44.9960   29.8440   36.4570 C   0  0  0  0  0  0  0  0  0  0  0  0
   43.7100   29.4570   36.1370 C   0  0  0  0  0  0  0  0  0  0  0  0
   43.4750   28.4870   35.6770 H   0  0  0  0  0  0  0  0  0  0  0  0
   42.6900   30.3160   36.4060 N   0  0  0  0  0  0  0  0  0  0  0  0
   42.9400   31.5210   36.9730 C   0  0  0  0  0  0  0  0  0  0  0  0
   42.2000   32.2690   37.2220 H   0  0  0  0  0  0  0  0  0  0  0  0
   44.1950   31.8960   37.2840 N   0  0  0  0  0  0  0  0  0  0  0  0
   45.2520   31.0770   37.0390 C   0  0  0  0  0  0  0  0  0  0  0  0
   47.8900   33.2470   43.4300 C   0  0  0  0  0  0  0  0  0  0  0  0
   46.9100   34.1160   43.9370 C   0  0  0  0  0  0  0  0  0  0  0  0
   46.1220   34.8100   43.0230 C   0  0  0  0  0  0  0  0  0  0  0  0
   46.3250   34.6270   41.6920 N   0  0  0  0  0  0  0  0  0  0  0  0
   47.2930   33.7680   41.2350 C   0  0  0  0  0  0  0  0  0  0  0  0
   48.0600   33.0930   42.1030 N   0  0  0  0  0  0  0  0  0  0  0  0
   48.5080   32.7020   44.1310 H   0  0  0  0  0  0  0  0  0  0  0  0
   46.7330   34.2760   44.9750 H   0  0  0  0  0  0  0  0  0  0  0  0
   45.0380   35.7720   43.4450 C   0  0  0  0  0  0  0  0  0  0  0  0
   45.3470   37.0470   43.0600 F   0  0  0  0  0  0  0  0  0  0  0  0
   43.8590   35.3920   42.8330 F   0  0  0  0  0  0  0  0  0  0  0  0
   44.9130   35.6570   44.8080 F   0  0  0  0  0  0  0  0  0  0  0  0
  2  3  1  0  0  0  0
  2  1  1  0  0  0  0
  3 27  1  0  0  0  0
  4  8  1  0  0  0  0
  4  3  2  0  0  0  0
  5  4  1  0  0  0  0
  6  5  2  0  0  0  0
  6  7  1  0  0  0  0
  7  2  2  0  0  0  0
  9  5  1  0  0  0  0
 10  6  1  0  0  0  0
 11  7  1  0  0  0  0
 12 13  1  0  0  0  0
 12 11  1  0  0  0  0
 14 15  1  0  0  0  0
 14 12  2  0  0  0  0
 15 22  1  0  0  0  0
 16 18  1  0  0  0  0
 16 15  2  0  0  0  0
 17 16  1  0  0  0  0
 18 19  2  0  0  0  0
 19 20  1  0  0  0  0
 19 21  1  0  0  0  0
 22 11  1  0  0  0  0
 22 21  2  0  0  0  0
 23 24  1  0  0  0  0
 23 29  1  0  0  0  0
 24 30  1  0  0  0  0
 25 31  1  0  0  0  0
 25 24  2  0  0  0  0
 26 25  1  0  0  0  0
 27 26  2  0  0  0  0
 27 28  1  0  0  0  0
 28 23  2  0  0  0  0
 31 34  1  0  0  0  0
 32 31  1  0  0  0  0
 33 31  1  0  0  0  0
M  END
>  <minimizedAffinity>
-5.12176609

>  <minimizedRMSD>
1.30713272

$$$$
