
 OpenBabel03252506343D

 36 39  0  0  1  0  0  0  0  0999 V2000
   44.4840   35.7130   45.0090 C   0  0  0  0  0  0  0  0  0  0  0  0
   45.1240   35.6870   43.7630 C   0  0  0  0  0  0  0  0  0  0  0  0
   46.0210   34.7000   43.5060 C   0  0  0  0  0  0  0  0  0  0  0  0
   46.2330   33.7960   44.4990 N   0  0  0  0  0  0  0  0  0  0  0  0
   45.6280   33.8240   45.6740 C   0  0  0  0  0  0  0  0  0  0  0  0
   44.7330   34.7850   45.9650 N   0  0  0  0  0  0  0  0  0  0  0  0
   45.9470   32.8240   46.6200 N   0  0  0  0  0  0  0  0  0  0  0  0
   45.1720   32.5370   47.8340 C   0  0  0  0  0  0  0  0  0  0  0  0
   46.2710   32.2230   48.8280 C   0  0  0  0  0  0  0  0  0  0  0  0
   47.5460   32.0620   48.0550 C   0  0  0  0  0  0  0  0  0  0  0  0
   47.0470   31.8860   46.6420 C   0  0  1  0  0  0  0  0  0  0  0  0
   43.7550   36.5100   45.2210 H   0  0  0  0  0  0  0  0  0  0  0  0
   46.4940   34.7020   42.5530 H   0  0  0  0  0  0  0  0  0  0  0  0
   44.4780   31.6940   47.6910 H   0  0  0  0  0  0  0  0  0  0  0  0
   44.5800   33.4320   48.0960 H   0  0  0  0  0  0  0  0  0  0  0  0
   46.0100   31.2800   49.3750 H   0  0  0  0  0  0  0  0  0  0  0  0
   46.3490   33.0910   49.5160 H   0  0  0  0  0  0  0  0  0  0  0  0
   48.2240   32.9340   48.1520 H   0  0  0  0  0  0  0  0  0  0  0  0
   48.0970   31.1320   48.3210 H   0  0  0  0  0  0  0  0  0  0  0  0
   47.7860   32.1900   45.8840 H   0  0  0  0  0  0  0  0  0  0  0  0
   44.7670   36.7320   42.8500 N   0  0  0  0  0  0  0  0  0  0  0  0
   44.3960   37.6420   43.1990 H   0  0  0  0  0  0  0  0  0  0  0  0
   44.8810   36.5810   41.8150 H   0  0  0  0  0  0  0  0  0  0  0  0
   46.5020   30.1810   46.4200 S   0  0  0  0  0  0  0  0  0  0  0  0
   43.8780   28.7730   46.0480 H   0  0  0  0  0  0  0  0  0  0  0  0
   44.2420   29.2830   45.2160 N   0  0  0  0  0  0  0  0  0  0  0  0
   45.3680   29.9970   45.0620 C   0  0  0  0  0  0  0  0  0  0  0  0
   45.4370   30.4880   43.7920 N   0  0  0  0  0  0  0  0  0  0  0  0
   44.3110   30.0610   43.1420 C   0  0  0  0  0  0  0  0  0  0  0  0
   43.7500   30.1750   41.9020 C   0  0  0  0  0  0  0  0  0  0  0  0
   44.3210   30.7670   41.1730 H   0  0  0  0  0  0  0  0  0  0  0  0
   42.5830   29.6110   41.5740 N   0  0  0  0  0  0  0  0  0  0  0  0
   41.8820   28.8880   42.4540 C   0  0  0  0  0  0  0  0  0  0  0  0
   40.9570   28.4850   42.0690 H   0  0  0  0  0  0  0  0  0  0  0  0
   42.3820   28.7400   43.6850 N   0  0  0  0  0  0  0  0  0  0  0  0
   43.5720   29.3060   44.0480 C   0  0  0  0  0  0  0  0  0  0  0  0
  1 12  1  0  0  0  0
  1  6  1  0  0  0  0
  2  1  2  0  0  0  0
  3  2  1  0  0  0  0
  3  4  2  0  0  0  0
  4  5  1  0  0  0  0
  5  6  2  0  0  0  0
  5  7  1  0  0  0  0
  7 11  1  0  0  0  0
  7  8  1  0  0  0  0
  8 15  1  0  0  0  0
  8  9  1  0  0  0  0
  9 16  1  0  0  0  0
  9 17  1  0  0  0  0
 10 18  1  0  0  0  0
 10 19  1  0  0  0  0
 10  9  1  0  0  0  0
 11 20  1  6  0  0  0
 11 10  1  0  0  0  0
 13  3  1  0  0  0  0
 14  8  1  0  0  0  0
 21 22  1  0  0  0  0
 21  2  1  0  0  0  0
 23 21  1  0  0  0  0
 24 11  1  0  0  0  0
 26 25  1  0  0  0  0
 27 26  1  0  0  0  0
 27 24  1  0  0  0  0
 28 27  2  0  0  0  0
 29 28  1  0  0  0  0
 29 36  1  0  0  0  0
 30 29  2  0  0  0  0
 31 30  1  0  0  0  0
 32 30  1  0  0  0  0
 32 33  2  0  0  0  0
 33 35  1  0  0  0  0
 34 33  1  0  0  0  0
 35 36  2  0  0  0  0
 36 26  1  0  0  0  0
M  END
>  <minimizedAffinity>
-5.39363861

>  <minimizedRMSD>
0.855921149

$$$$
