
 OpenBabel03242521523D

 39 43  0  0  0  0  0  0  0  0999 V2000
   46.1410   32.2770   46.0610 C   0  0  0  0  0  0  0  0  0  0  0  0
   45.5350   32.8460   47.1730 C   0  0  0  0  0  0  0  0  0  0  0  0
   45.7650   32.4040   48.4820 C   0  0  0  0  0  0  0  0  0  0  0  0
   46.6270   31.3590   48.7270 C   0  0  0  0  0  0  0  0  0  0  0  0
   47.2460   30.7620   47.6250 C   0  0  0  0  0  0  0  0  0  0  0  0
   48.0840   29.7120   47.8900 C   0  0  0  0  0  0  0  0  0  0  0  0
   48.6950   29.0600   46.8190 C   0  0  0  0  0  0  0  0  0  0  0  0
   48.4000   29.5200   45.5000 C   0  0  0  0  0  0  0  0  0  0  0  0
   47.5430   30.5810   45.3580 C   0  0  0  0  0  0  0  0  0  0  0  0
   46.9620   31.2470   46.3580 C   0  0  0  0  0  0  0  0  0  0  0  0
   44.8480   33.6780   47.0260 H   0  0  0  0  0  0  0  0  0  0  0  0
   45.2370   32.9220   49.2700 H   0  0  0  0  0  0  0  0  0  0  0  0
   46.8100   31.0230   49.7160 H   0  0  0  0  0  0  0  0  0  0  0  0
   48.2540   29.4120   48.9170 H   0  0  0  0  0  0  0  0  0  0  0  0
   49.3550   28.2410   47.1520 H   0  0  0  0  0  0  0  0  0  0  0  0
   48.9680   28.8780   44.8490 H   0  0  0  0  0  0  0  0  0  0  0  0
   47.0850   30.3300   44.0080 N   0  0  0  0  0  0  0  0  0  0  0  0
   45.9470   29.5890   43.6960 C   0  0  0  0  0  0  0  0  0  0  0  0
   45.1810   29.1280   44.3410 H   0  0  0  0  0  0  0  0  0  0  0  0
   45.7600   29.3840   42.3980 N   0  0  0  0  0  0  0  0  0  0  0  0
   46.7700   29.9810   41.7750 C   0  0  0  0  0  0  0  0  0  0  0  0
   47.2380   30.1740   40.4900 C   0  0  0  0  0  0  0  0  0  0  0  0
   46.6100   29.7270   39.7050 H   0  0  0  0  0  0  0  0  0  0  0  0
   48.3650   30.8510   40.2050 N   0  0  0  0  0  0  0  0  0  0  0  0
   49.1040   31.3840   41.2110 C   0  0  0  0  0  0  0  0  0  0  0  0
   50.0000   31.9170   40.9230 H   0  0  0  0  0  0  0  0  0  0  0  0
   48.6890   31.2230   42.4810 N   0  0  0  0  0  0  0  0  0  0  0  0
   47.5410   30.5350   42.7670 C   0  0  0  0  0  0  0  0  0  0  0  0
   45.3020   33.7920   42.7650 C   0  0  0  0  0  0  0  0  0  0  0  0
   46.5370   34.3720   42.4360 C   0  0  0  0  0  0  0  0  0  0  0  0
   47.5850   34.1900   43.3430 C   0  0  0  0  0  0  0  0  0  0  0  0
   47.2820   33.4820   44.4270 N   0  0  0  0  0  0  0  0  0  0  0  0
   46.1420   32.9250   44.7650 C   0  0  0  0  0  0  0  0  0  0  0  0
   45.1610   33.1060   43.8920 N   0  0  0  0  0  0  0  0  0  0  0  0
   44.4710   33.9170   42.0810 H   0  0  0  0  0  0  0  0  0  0  0  0
   46.7130   34.9370   41.5390 H   0  0  0  0  0  0  0  0  0  0  0  0
   48.9120   34.6340   43.0940 N   0  0  0  0  0  0  0  0  0  0  0  0
   49.5940   34.4160   42.3530 H   0  0  0  0  0  0  0  0  0  0  0  0
   49.2800   35.3260   43.8060 H   0  0  0  0  0  0  0  0  0  0  0  0
  1 10  2  0  0  0  0
  1  2  1  0  0  0  0
  2  3  2  0  0  0  0
  3  4  1  0  0  0  0
  3 12  1  0  0  0  0
  4 13  1  0  0  0  0
  5  6  1  0  0  0  0
  5  4  2  0  0  0  0
  6 14  1  0  0  0  0
  7 15  1  0  0  0  0
  7  6  2  0  0  0  0
  8  7  1  0  0  0  0
  9  8  2  0  0  0  0
  9 10  1  0  0  0  0
 10  5  1  0  0  0  0
 11  2  1  0  0  0  0
 16  8  1  0  0  0  0
 17  9  1  0  0  0  0
 18 17  1  0  0  0  0
 18 19  1  0  0  0  0
 20 18  2  0  0  0  0
 21 20  1  0  0  0  0
 21 28  1  0  0  0  0
 22 21  2  0  0  0  0
 23 22  1  0  0  0  0
 24 22  1  0  0  0  0
 24 25  2  0  0  0  0
 25 27  1  0  0  0  0
 26 25  1  0  0  0  0
 27 28  2  0  0  0  0
 28 17  1  0  0  0  0
 29 34  1  0  0  0  0
 30 29  2  0  0  0  0
 30 31  1  0  0  0  0
 31 32  2  0  0  0  0
 32 33  1  0  0  0  0
 33  1  1  0  0  0  0
 34 33  2  0  0  0  0
 35 29  1  0  0  0  0
 36 30  1  0  0  0  0
 37 31  1  0  0  0  0
 37 39  1  0  0  0  0
 38 37  1  0  0  0  0
M  END
>  <minimizedAffinity>
-5.10734415

>  <minimizedRMSD>
1.75843894

$$$$
