
 OpenBabel03242523543D

 48 52  0  0  1  0  0  0  0  0999 V2000
   42.8040   34.4840   38.7610 C   0  0  1  0  0  0  0  0  0  0  0  0
   42.9720   35.1790   40.1030 C   0  0  1  0  0  0  0  0  0  0  0  0
   41.6850   35.4550   40.6180 O   0  0  0  0  0  0  0  0  0  0  0  0
   40.7680   35.7970   39.6180 C   0  0  0  0  0  0  0  0  0  0  0  0
   40.4260   34.6090   38.7370 C   0  0  2  0  0  0  0  0  0  0  0  0
   41.6110   33.5960   38.8970 C   0  0  1  0  0  0  0  0  0  0  0  0
   43.7310   33.8900   38.5620 H   0  0  0  0  0  0  0  0  0  0  0  0
   43.5720   36.1030   40.0340 H   0  0  0  0  0  0  0  0  0  0  0  0
   39.8530   36.0830   40.1470 H   0  0  0  0  0  0  0  0  0  0  0  0
   41.1080   36.6670   39.0260 H   0  0  0  0  0  0  0  0  0  0  0  0
   39.4900   34.1040   39.0170 H   0  0  0  0  0  0  0  0  0  0  0  0
   41.3950   33.3660   39.9930 H   0  0  0  0  0  0  0  0  0  0  0  0
   42.6150   35.4240   37.7340 O   0  0  0  0  0  0  0  0  0  0  0  0
   42.7880   34.9530   36.8720 H   0  0  0  0  0  0  0  0  0  0  0  0
   40.4550   34.9940   37.4060 O   0  0  0  0  0  0  0  0  0  0  0  0
   39.9370   34.3390   36.9000 H   0  0  0  0  0  0  0  0  0  0  0  0
   43.4770   34.2040   40.9660 O   0  0  0  0  0  0  0  0  0  0  0  0
   44.5890   34.3280   41.7030 C   0  0  0  0  0  0  0  0  0  0  0  0
   45.8470   34.4400   41.0940 C   0  0  0  0  0  0  0  0  0  0  0  0
   46.9640   34.5670   41.9040 C   0  0  0  0  0  0  0  0  0  0  0  0
   46.8050   34.5800   43.2800 N   0  0  0  0  0  0  0  0  0  0  0  0
   45.5750   34.4700   43.8280 C   0  0  0  0  0  0  0  0  0  0  0  0
   44.4730   34.3450   43.0460 N   0  0  0  0  0  0  0  0  0  0  0  0
   45.9580   34.4270   40.0170 H   0  0  0  0  0  0  0  0  0  0  0  0
   45.5190   34.4870   44.9130 H   0  0  0  0  0  0  0  0  0  0  0  0
   48.3430   34.6790   41.3190 C   0  0  0  0  0  0  0  0  0  0  0  0
   49.0560   36.0130   41.5220 C   0  0  0  0  0  0  0  0  0  0  0  0
   49.4930   34.6890   42.1710 C   0  0  0  0  0  0  0  0  0  0  0  0
   48.3560   34.3900   40.2390 H   0  0  0  0  0  0  0  0  0  0  0  0
   48.5950   36.7130   42.2730 H   0  0  0  0  0  0  0  0  0  0  0  0
   49.6770   36.4260   40.7300 H   0  0  0  0  0  0  0  0  0  0  0  0
   50.4760   34.3260   41.7950 H   0  0  0  0  0  0  0  0  0  0  0  0
   49.3810   34.5590   43.2510 H   0  0  0  0  0  0  0  0  0  0  0  0
   41.4450   32.6330   37.9770 O   0  0  0  0  0  0  0  0  0  0  0  0
   41.1230   31.3430   38.0850 C   0  0  0  0  0  0  0  0  0  0  0  0
   40.7990   30.6080   37.0260 O   0  0  0  0  0  0  0  0  0  0  0  0
   43.0920   30.2320   39.9740 H   0  0  0  0  0  0  0  0  0  0  0  0
   42.0820   30.0530   39.9860 N   0  0  0  0  0  0  0  0  0  0  0  0
   41.0370   30.4100   39.2780 C   0  0  0  0  0  0  0  0  0  0  0  0
   39.9500   29.7980   39.8470 N   0  0  0  0  0  0  0  0  0  0  0  0
   40.3240   29.0700   40.8950 C   0  0  0  0  0  0  0  0  0  0  0  0
   39.5310   28.3090   41.7270 C   0  0  0  0  0  0  0  0  0  0  0  0
   38.4720   28.2080   41.6220 H   0  0  0  0  0  0  0  0  0  0  0  0
   40.1940   27.6650   42.7270 N   0  0  0  0  0  0  0  0  0  0  0  0
   41.5310   27.7890   42.8630 C   0  0  0  0  0  0  0  0  0  0  0  0
   42.1100   27.3030   43.6370 H   0  0  0  0  0  0  0  0  0  0  0  0
   42.2270   28.5520   42.0060 N   0  0  0  0  0  0  0  0  0  0  0  0
   41.6830   29.2230   40.9970 C   0  0  0  0  0  0  0  0  0  0  0  0
  1  7  1  6  0  0  0
  1  6  1  0  0  0  0
  1  2  1  0  0  0  0
  2  8  1  6  0  0  0
  2  3  1  0  0  0  0
  2 17  1  0  0  0  0
  4  9  1  0  0  0  0
  4  3  1  0  0  0  0
  5  6  1  0  0  0  0
  5 11  1  1  0  0  0
  5  4  1  0  0  0  0
  6 12  1  1  0  0  0
 10  4  1  0  0  0  0
 13  1  1  0  0  0  0
 14 13  1  0  0  0  0
 15  5  1  0  0  0  0
 16 15  1  0  0  0  0
 17 18  1  0  0  0  0
 18 23  1  0  0  0  0
 19 18  2  0  0  0  0
 19 20  1  0  0  0  0
 20 21  2  0  0  0  0
 21 22  1  0  0  0  0
 22 25  1  0  0  0  0
 23 22  2  0  0  0  0
 24 19  1  0  0  0  0
 26 27  1  0  0  0  0
 26 20  1  0  0  0  0
 26 28  1  0  0  0  0
 27 28  1  0  0  0  0
 27 30  1  0  0  0  0
 28 33  1  0  0  0  0
 29 26  1  0  0  0  0
 31 27  1  0  0  0  0
 32 28  1  0  0  0  0
 34 35  1  0  0  0  0
 34  6  1  0  0  0  0
 35 39  1  0  0  0  0
 36 35  2  0  0  0  0
 37 38  1  0  0  0  0
 38 48  1  0  0  0  0
 39 40  2  0  0  0  0
 39 38  1  0  0  0  0
 40 41  1  0  0  0  0
 41 48  2  0  0  0  0
 41 42  1  0  0  0  0
 42 44  2  0  0  0  0
 43 42  1  0  0  0  0
 44 45  1  0  0  0  0
 45 46  1  0  0  0  0
 47 45  2  0  0  0  0
 48 47  1  0  0  0  0
M  END
>  <minimizedAffinity>
-6.10321999

>  <minimizedRMSD>
1.71974146

$$$$
