
 OpenBabel03242511553D

 37 40  0  0  1  0  0  0  0  0999 V2000
   36.1550   29.7100   40.1570 C   0  0  2  0  0  0  0  0  0  0  0  0
   34.7860   29.2390   39.8520 C   0  0  0  0  0  0  0  0  0  0  0  0
   34.6790   28.4980   38.5570 C   0  0  0  0  0  0  0  0  0  0  0  0
   35.2560   29.2580   37.3760 C   0  0  0  0  0  0  0  0  0  0  0  0
   36.4940   30.0470   37.7050 C   0  0  0  0  0  0  0  0  0  0  0  0
   37.1210   29.5660   38.9880 C   0  0  1  0  0  0  0  0  0  0  0  0
   36.2200   30.8100   40.4150 H   0  0  0  0  0  0  0  0  0  0  0  0
   34.1420   30.1630   39.7460 H   0  0  0  0  0  0  0  0  0  0  0  0
   34.3210   28.6130   40.6230 H   0  0  0  0  0  0  0  0  0  0  0  0
   34.9860   27.4570   38.5550 H   0  0  0  0  0  0  0  0  0  0  0  0
   33.5690   28.4650   38.3370 H   0  0  0  0  0  0  0  0  0  0  0  0
   35.5910   28.4770   36.6380 H   0  0  0  0  0  0  0  0  0  0  0  0
   34.5020   29.8560   36.8330 H   0  0  0  0  0  0  0  0  0  0  0  0
   37.2450   30.0930   36.9170 H   0  0  0  0  0  0  0  0  0  0  0  0
   36.1280   31.0980   37.8990 H   0  0  0  0  0  0  0  0  0  0  0  0
   37.4150   28.5040   38.8170 H   0  0  0  0  0  0  0  0  0  0  0  0
   38.3210   30.2880   39.2810 N   0  0  0  0  0  0  0  0  0  0  0  0
   39.5640   29.7630   39.3170 C   0  0  0  0  0  0  0  0  0  0  0  0
   39.9090   28.7550   39.1460 H   0  0  0  0  0  0  0  0  0  0  0  0
   40.4840   30.7010   39.6210 N   0  0  0  0  0  0  0  0  0  0  0  0
   39.8470   31.8700   39.7920 C   0  0  0  0  0  0  0  0  0  0  0  0
   40.2550   33.1470   40.1080 C   0  0  0  0  0  0  0  0  0  0  0  0
   41.3040   33.3760   40.2800 H   0  0  0  0  0  0  0  0  0  0  0  0
   39.3610   34.1580   40.2150 N   0  0  0  0  0  0  0  0  0  0  0  0
   38.0600   33.8280   39.9930 C   0  0  0  0  0  0  0  0  0  0  0  0
   37.2750   34.5870   40.0600 H   0  0  0  0  0  0  0  0  0  0  0  0
   37.6250   32.5890   39.6810 N   0  0  0  0  0  0  0  0  0  0  0  0
   38.5090   31.5810   39.5740 C   0  0  0  0  0  0  0  0  0  0  0  0
   36.7490   29.0050   41.3090 C   0  0  0  0  0  0  0  0  0  0  0  0
   36.7530   27.5980   41.2350 C   0  0  0  0  0  0  0  0  0  0  0  0
   37.2980   26.8410   42.2740 C   0  0  0  0  0  0  0  0  0  0  0  0
   37.8130   27.5460   43.3390 N   0  0  0  0  0  0  0  0  0  0  0  0
   37.7950   28.9020   43.3830 C   0  0  0  0  0  0  0  0  0  0  0  0
   37.2660   29.6260   42.3710 N   0  0  0  0  0  0  0  0  0  0  0  0
   36.3730   26.9690   40.4450 H   0  0  0  0  0  0  0  0  0  0  0  0
   37.3370   25.7720   42.2890 H   0  0  0  0  0  0  0  0  0  0  0  0
   38.2290   29.3390   44.2690 H   0  0  0  0  0  0  0  0  0  0  0  0
  1  7  1  1  0  0  0
  1 29  1  0  0  0  0
  2  1  1  0  0  0  0
  2  9  1  0  0  0  0
  3  2  1  0  0  0  0
  4  5  1  0  0  0  0
  4  3  1  0  0  0  0
  5 15  1  0  0  0  0
  5  6  1  0  0  0  0
  6 16  1  6  0  0  0
  6 17  1  0  0  0  0
  6  1  1  0  0  0  0
  8  2  1  0  0  0  0
 10  3  1  0  0  0  0
 11  3  1  0  0  0  0
 12  4  1  0  0  0  0
 13  4  1  0  0  0  0
 14  5  1  0  0  0  0
 17 18  1  0  0  0  0
 17 28  1  0  0  0  0
 18 20  2  0  0  0  0
 19 18  1  0  0  0  0
 20 21  1  0  0  0  0
 21 22  1  0  0  0  0
 22 24  2  0  0  0  0
 22 23  1  0  0  0  0
 25 26  1  0  0  0  0
 25 24  1  0  0  0  0
 27 25  2  0  0  0  0
 28 27  1  0  0  0  0
 28 21  2  0  0  0  0
 29 34  1  0  0  0  0
 30 29  2  0  0  0  0
 30 31  1  0  0  0  0
 31 36  1  0  0  0  0
 31 32  2  0  0  0  0
 32 33  1  0  0  0  0
 33 37  1  0  0  0  0
 34 33  2  0  0  0  0
 35 30  1  0  0  0  0
M  END
>  <minimizedAffinity>
-5.65520048

$$$$

 OpenBabel03242511553D

 37 40  0  0  1  0  0  0  0  0999 V2000
   38.1360   28.2490   40.9300 C   0  0  2  0  0  0  0  0  0  0  0  0
   37.4120   27.0200   41.3220 C   0  0  0  0  0  0  0  0  0  0  0  0
   36.4670   27.2170   42.4660 C   0  0  0  0  0  0  0  0  0  0  0  0
   37.1140   27.8640   43.6780 C   0  0  0  0  0  0  0  0  0  0  0  0
   38.1320   28.9180   43.3370 C   0  0  0  0  0  0  0  0  0  0  0  0
   37.9650   29.3960   41.9180 C   0  0  1  0  0  0  0  0  0  0  0  0
   39.2590   28.1240   40.8680 H   0  0  0  0  0  0  0  0  0  0  0  0
   38.1920   26.2830   41.6760 H   0  0  0  0  0  0  0  0  0  0  0  0
   36.8490   26.5290   40.5190 H   0  0  0  0  0  0  0  0  0  0  0  0
   35.5010   27.6580   42.2410 H   0  0  0  0  0  0  0  0  0  0  0  0
   36.2250   26.1700   42.8200 H   0  0  0  0  0  0  0  0  0  0  0  0
   36.2900   28.4120   44.2140 H   0  0  0  0  0  0  0  0  0  0  0  0
   37.4910   27.1300   44.4140 H   0  0  0  0  0  0  0  0  0  0  0  0
   38.1710   29.7700   44.0150 H   0  0  0  0  0  0  0  0  0  0  0  0
   39.1280   28.3890   43.3840 H   0  0  0  0  0  0  0  0  0  0  0  0
   36.9490   29.8530   41.8560 H   0  0  0  0  0  0  0  0  0  0  0  0
   38.9050   30.4270   41.6050 N   0  0  0  0  0  0  0  0  0  0  0  0
   40.2310   30.3830   41.8530 C   0  0  0  0  0  0  0  0  0  0  0  0
   40.8380   29.6160   42.3090 H   0  0  0  0  0  0  0  0  0  0  0  0
   40.8460   31.5100   41.4400 N   0  0  0  0  0  0  0  0  0  0  0  0
   39.9180   32.3200   40.9080 C   0  0  0  0  0  0  0  0  0  0  0  0
   39.9530   33.5740   40.3380 C   0  0  0  0  0  0  0  0  0  0  0  0
   40.8860   34.1240   40.2460 H   0  0  0  0  0  0  0  0  0  0  0  0
   38.8240   34.1610   39.8750 N   0  0  0  0  0  0  0  0  0  0  0  0
   37.6800   33.4380   40.0100 C   0  0  0  0  0  0  0  0  0  0  0  0
   36.7240   33.8410   39.6620 H   0  0  0  0  0  0  0  0  0  0  0  0
   37.6080   32.2090   40.5630 N   0  0  0  0  0  0  0  0  0  0  0  0
   38.7270   31.6220   41.0250 C   0  0  0  0  0  0  0  0  0  0  0  0
   37.7250   28.7450   39.6030 C   0  0  0  0  0  0  0  0  0  0  0  0
   36.3600   29.0590   39.4570 C   0  0  0  0  0  0  0  0  0  0  0  0
   35.8730   29.5400   38.2410 C   0  0  0  0  0  0  0  0  0  0  0  0
   36.7960   29.6820   37.2280 N   0  0  0  0  0  0  0  0  0  0  0  0
   38.1070   29.3720   37.3960 C   0  0  0  0  0  0  0  0  0  0  0  0
   38.5660   28.9070   38.5800 N   0  0  0  0  0  0  0  0  0  0  0  0
   35.5730   28.9780   40.1920 H   0  0  0  0  0  0  0  0  0  0  0  0
   34.8520   29.7980   38.0550 H   0  0  0  0  0  0  0  0  0  0  0  0
   38.7310   29.5260   36.5300 H   0  0  0  0  0  0  0  0  0  0  0  0
  1  7  1  6  0  0  0
  1  2  1  0  0  0  0
  1  6  1  0  0  0  0
  2  8  1  0  0  0  0
  2  3  1  0  0  0  0
  3 11  1  0  0  0  0
  3  4  1  0  0  0  0
  4 12  1  0  0  0  0
  4 13  1  0  0  0  0
  5 15  1  0  0  0  0
  5  4  1  0  0  0  0
  5 14  1  0  0  0  0
  6 16  1  6  0  0  0
  6  5  1  0  0  0  0
  9  2  1  0  0  0  0
 10  3  1  0  0  0  0
 17 18  1  0  0  0  0
 17  6  1  0  0  0  0
 18 19  1  0  0  0  0
 20 18  2  0  0  0  0
 21 28  1  0  0  0  0
 21 20  1  0  0  0  0
 22 21  2  0  0  0  0
 23 22  1  0  0  0  0
 24 25  2  0  0  0  0
 24 22  1  0  0  0  0
 25 27  1  0  0  0  0
 26 25  1  0  0  0  0
 27 28  2  0  0  0  0
 28 17  1  0  0  0  0
 29  1  1  0  0  0  0
 30 29  1  0  0  0  0
 30 35  1  0  0  0  0
 31 30  2  0  0  0  0
 32 33  2  0  0  0  0
 32 31  1  0  0  0  0
 33 34  1  0  0  0  0
 34 29  2  0  0  0  0
 36 31  1  0  0  0  0
 37 33  1  0  0  0  0
M  END
>  <minimizedAffinity>
-5.34485292

$$$$

 OpenBabel03242511553D

 37 40  0  0  1  0  0  0  0  0999 V2000
   37.9190   28.2100   40.8260 C   0  0  2  0  0  0  0  0  0  0  0  0
   37.8480   26.8470   41.3940 C   0  0  0  0  0  0  0  0  0  0  0  0
   36.9620   26.7400   42.5950 C   0  0  0  0  0  0  0  0  0  0  0  0
   37.2890   27.7530   43.6780 C   0  0  0  0  0  0  0  0  0  0  0  0
   37.7020   29.1000   43.1500 C   0  0  0  0  0  0  0  0  0  0  0  0
   37.2820   29.2720   41.7130 C   0  0  1  0  0  0  0  0  0  0  0  0
   38.9720   28.5950   40.6740 H   0  0  0  0  0  0  0  0  0  0  0  0
   38.8910   26.5870   41.7430 H   0  0  0  0  0  0  0  0  0  0  0  0
   37.5400   26.0600   40.6950 H   0  0  0  0  0  0  0  0  0  0  0  0
   35.8930   26.6710   42.4180 H   0  0  0  0  0  0  0  0  0  0  0  0
   37.2350   25.7480   43.0660 H   0  0  0  0  0  0  0  0  0  0  0  0
   36.3270   27.9360   44.2330 H   0  0  0  0  0  0  0  0  0  0  0  0
   37.9860   27.3630   44.4420 H   0  0  0  0  0  0  0  0  0  0  0  0
   37.3760   29.9560   43.7390 H   0  0  0  0  0  0  0  0  0  0  0  0
   38.8320   29.0820   43.1560 H   0  0  0  0  0  0  0  0  0  0  0  0
   36.1690   29.2150   41.7010 H   0  0  0  0  0  0  0  0  0  0  0  0
   37.6380   30.5670   41.2220 N   0  0  0  0  0  0  0  0  0  0  0  0
   36.7860   31.4640   40.6810 C   0  0  0  0  0  0  0  0  0  0  0  0
   35.7220   31.4110   40.5100 H   0  0  0  0  0  0  0  0  0  0  0  0
   37.4280   32.5920   40.3140 N   0  0  0  0  0  0  0  0  0  0  0  0
   38.7280   32.4480   40.6140 C   0  0  0  0  0  0  0  0  0  0  0  0
   39.8390   33.2510   40.4720 C   0  0  0  0  0  0  0  0  0  0  0  0
   39.7640   34.2420   40.0320 H   0  0  0  0  0  0  0  0  0  0  0  0
   41.0600   32.8280   40.8760 N   0  0  0  0  0  0  0  0  0  0  0  0
   41.1080   31.5820   41.4200 C   0  0  0  0  0  0  0  0  0  0  0  0
   42.0560   31.1660   41.7720 H   0  0  0  0  0  0  0  0  0  0  0  0
   40.0410   30.7690   41.5740 N   0  0  0  0  0  0  0  0  0  0  0  0
   38.8260   31.1850   41.1740 C   0  0  0  0  0  0  0  0  0  0  0  0
   37.2770   28.3020   39.5010 C   0  0  0  0  0  0  0  0  0  0  0  0
   35.8940   28.0360   39.4650 C   0  0  0  0  0  0  0  0  0  0  0  0
   35.1940   28.1010   38.2590 C   0  0  0  0  0  0  0  0  0  0  0  0
   35.9310   28.4340   37.1440 N   0  0  0  0  0  0  0  0  0  0  0  0
   37.2630   28.6850   37.2060 C   0  0  0  0  0  0  0  0  0  0  0  0
   37.9300   28.6190   38.3810 N   0  0  0  0  0  0  0  0  0  0  0  0
   35.2440   27.7690   40.2850 H   0  0  0  0  0  0  0  0  0  0  0  0
   34.1470   27.9130   38.1540 H   0  0  0  0  0  0  0  0  0  0  0  0
   37.7290   28.9350   36.2660 H   0  0  0  0  0  0  0  0  0  0  0  0
  1  7  1  6  0  0  0
  1  2  1  0  0  0  0
  1  6  1  0  0  0  0
  2  8  1  0  0  0  0
  2  3  1  0  0  0  0
  3 11  1  0  0  0  0
  3  4  1  0  0  0  0
  4 12  1  0  0  0  0
  4 13  1  0  0  0  0
  5 15  1  0  0  0  0
  5  4  1  0  0  0  0
  5 14  1  0  0  0  0
  6 16  1  6  0  0  0
  6  5  1  0  0  0  0
  9  2  1  0  0  0  0
 10  3  1  0  0  0  0
 17  6  1  0  0  0  0
 18 17  1  0  0  0  0
 19 18  1  0  0  0  0
 20 21  1  0  0  0  0
 20 18  2  0  0  0  0
 21 28  1  0  0  0  0
 22 21  2  0  0  0  0
 22 24  1  0  0  0  0
 23 22  1  0  0  0  0
 24 25  2  0  0  0  0
 25 27  1  0  0  0  0
 25 26  1  0  0  0  0
 28 17  1  0  0  0  0
 28 27  2  0  0  0  0
 29  1  1  0  0  0  0
 30 29  1  0  0  0  0
 30 35  1  0  0  0  0
 31 30  2  0  0  0  0
 32 33  2  0  0  0  0
 32 31  1  0  0  0  0
 33 34  1  0  0  0  0
 34 29  2  0  0  0  0
 36 31  1  0  0  0  0
 37 33  1  0  0  0  0
M  END
>  <minimizedAffinity>
-5.32210827

$$$$

 OpenBabel03242511553D

 37 40  0  0  1  0  0  0  0  0999 V2000
   37.0840   31.0490   40.8010 C   0  0  2  0  0  0  0  0  0  0  0  0
   37.3880   32.4160   40.3250 C   0  0  0  0  0  0  0  0  0  0  0  0
   38.8290   32.6280   39.9830 C   0  0  0  0  0  0  0  0  0  0  0  0
   39.7790   32.2290   41.0980 C   0  0  0  0  0  0  0  0  0  0  0  0
   39.3460   31.0060   41.8600 C   0  0  0  0  0  0  0  0  0  0  0  0
   38.3260   30.2140   41.0830 C   0  0  1  0  0  0  0  0  0  0  0  0
   36.5190   31.0150   41.7810 H   0  0  0  0  0  0  0  0  0  0  0  0
   37.1570   33.1160   41.1820 H   0  0  0  0  0  0  0  0  0  0  0  0
   36.7980   32.7570   39.4660 H   0  0  0  0  0  0  0  0  0  0  0  0
   39.1680   32.2670   39.0170 H   0  0  0  0  0  0  0  0  0  0  0  0
   38.9470   33.7520   39.9220 H   0  0  0  0  0  0  0  0  0  0  0  0
   40.7430   31.9370   40.5960 H   0  0  0  0  0  0  0  0  0  0  0  0
   40.0490   33.0700   41.7620 H   0  0  0  0  0  0  0  0  0  0  0  0
   40.1500   30.3510   42.1950 H   0  0  0  0  0  0  0  0  0  0  0  0
   38.8170   31.4030   42.7760 H   0  0  0  0  0  0  0  0  0  0  0  0
   38.8310   29.8840   40.1450 H   0  0  0  0  0  0  0  0  0  0  0  0
   37.9440   29.0300   41.7880 N   0  0  0  0  0  0  0  0  0  0  0  0
   37.5550   28.9760   43.0790 C   0  0  0  0  0  0  0  0  0  0  0  0
   37.4510   29.7550   43.8180 H   0  0  0  0  0  0  0  0  0  0  0  0
   37.2590   27.7130   43.4500 N   0  0  0  0  0  0  0  0  0  0  0  0
   37.4540   26.9110   42.3920 C   0  0  0  0  0  0  0  0  0  0  0  0
   37.3180   25.5570   42.1780 C   0  0  0  0  0  0  0  0  0  0  0  0
   36.9870   24.8920   42.9710 H   0  0  0  0  0  0  0  0  0  0  0  0
   37.5960   25.0110   40.9700 N   0  0  0  0  0  0  0  0  0  0  0  0
   38.0070   25.8780   40.0060 C   0  0  0  0  0  0  0  0  0  0  0  0
   38.2510   25.5180   39.0020 H   0  0  0  0  0  0  0  0  0  0  0  0
   38.1510   27.2090   40.1810 N   0  0  0  0  0  0  0  0  0  0  0  0
   37.8780   27.7550   41.3790 C   0  0  0  0  0  0  0  0  0  0  0  0
   36.2520   30.2930   39.8460 C   0  0  0  0  0  0  0  0  0  0  0  0
   36.7340   30.2290   38.5240 C   0  0  0  0  0  0  0  0  0  0  0  0
   36.0210   29.5320   37.5470 C   0  0  0  0  0  0  0  0  0  0  0  0
   34.8520   28.9320   37.9570 N   0  0  0  0  0  0  0  0  0  0  0  0
   34.4100   29.0090   39.2380 C   0  0  0  0  0  0  0  0  0  0  0  0
   35.1110   29.6870   40.1760 N   0  0  0  0  0  0  0  0  0  0  0  0
   37.6340   30.6670   38.1190 H   0  0  0  0  0  0  0  0  0  0  0  0
   36.3230   29.4410   36.5250 H   0  0  0  0  0  0  0  0  0  0  0  0
   33.4810   28.4980   39.4370 H   0  0  0  0  0  0  0  0  0  0  0  0
  1  6  1  0  0  0  0
  1  7  1  1  0  0  0
  2  1  1  0  0  0  0
  2  8  1  0  0  0  0
  3  2  1  0  0  0  0
  3  4  1  0  0  0  0
  4 13  1  0  0  0  0
  4  5  1  0  0  0  0
  5 14  1  0  0  0  0
  5 15  1  0  0  0  0
  6 16  1  6  0  0  0
  6 17  1  0  0  0  0
  6  5  1  0  0  0  0
  9  2  1  0  0  0  0
 10  3  1  0  0  0  0
 11  3  1  0  0  0  0
 12  4  1  0  0  0  0
 17 18  1  0  0  0  0
 18 20  2  0  0  0  0
 18 19  1  0  0  0  0
 21 20  1  0  0  0  0
 22 21  1  0  0  0  0
 22 23  1  0  0  0  0
 24 22  2  0  0  0  0
 25 27  2  0  0  0  0
 25 24  1  0  0  0  0
 26 25  1  0  0  0  0
 27 28  1  0  0  0  0
 28 17  1  0  0  0  0
 28 21  2  0  0  0  0
 29 34  1  0  0  0  0
 29  1  1  0  0  0  0
 30 29  2  0  0  0  0
 31 32  2  0  0  0  0
 31 30  1  0  0  0  0
 32 33  1  0  0  0  0
 33 37  1  0  0  0  0
 33 34  2  0  0  0  0
 35 30  1  0  0  0  0
 36 31  1  0  0  0  0
M  END
>  <minimizedAffinity>
-5.28972149

$$$$

 OpenBabel03242511553D

 37 40  0  0  1  0  0  0  0  0999 V2000
   37.6130   29.7620   41.8160 C   0  0  2  0  0  0  0  0  0  0  0  0
   38.4660   29.5760   43.0100 C   0  0  0  0  0  0  0  0  0  0  0  0
   39.0940   28.2200   43.0950 C   0  0  0  0  0  0  0  0  0  0  0  0
   38.0960   27.0830   42.9700 C   0  0  0  0  0  0  0  0  0  0  0  0
   36.9850   27.3510   41.9910 C   0  0  0  0  0  0  0  0  0  0  0  0
   37.3470   28.4720   41.0510 C   0  0  1  0  0  0  0  0  0  0  0  0
   36.5740   30.1490   42.0450 H   0  0  0  0  0  0  0  0  0  0  0  0
   37.7880   29.6700   43.9100 H   0  0  0  0  0  0  0  0  0  0  0  0
   39.2680   30.3120   43.1350 H   0  0  0  0  0  0  0  0  0  0  0  0
   39.9800   28.0460   42.4930 H   0  0  0  0  0  0  0  0  0  0  0  0
   39.4580   28.1400   44.1640 H   0  0  0  0  0  0  0  0  0  0  0  0
   38.6660   26.2150   42.5380 H   0  0  0  0  0  0  0  0  0  0  0  0
   37.7250   26.7210   43.9460 H   0  0  0  0  0  0  0  0  0  0  0  0
   36.6390   26.4870   41.4240 H   0  0  0  0  0  0  0  0  0  0  0  0
   36.1240   27.7230   42.6200 H   0  0  0  0  0  0  0  0  0  0  0  0
   38.2440   28.1300   40.4830 H   0  0  0  0  0  0  0  0  0  0  0  0
   36.3100   28.7000   40.0940 N   0  0  0  0  0  0  0  0  0  0  0  0
   35.0220   28.9840   40.3840 C   0  0  0  0  0  0  0  0  0  0  0  0
   34.5210   29.0950   41.3330 H   0  0  0  0  0  0  0  0  0  0  0  0
   34.2900   29.1460   39.2620 N   0  0  0  0  0  0  0  0  0  0  0  0
   35.1000   28.9670   38.2070 C   0  0  0  0  0  0  0  0  0  0  0  0
   34.9180   29.0060   36.8420 C   0  0  0  0  0  0  0  0  0  0  0  0
   33.9440   29.2200   36.4100 H   0  0  0  0  0  0  0  0  0  0  0  0
   35.9500   28.7780   35.9950 N   0  0  0  0  0  0  0  0  0  0  0  0
   37.1510   28.5140   36.5770 C   0  0  0  0  0  0  0  0  0  0  0  0
   38.0340   28.3190   35.9630 H   0  0  0  0  0  0  0  0  0  0  0  0
   37.3640   28.4670   37.9090 N   0  0  0  0  0  0  0  0  0  0  0  0
   36.3430   28.6930   38.7540 C   0  0  0  0  0  0  0  0  0  0  0  0
   38.1860   30.7300   40.8610 C   0  0  0  0  0  0  0  0  0  0  0  0
   37.4400   31.9060   40.6520 C   0  0  0  0  0  0  0  0  0  0  0  0
   37.9010   32.8850   39.7700 C   0  0  0  0  0  0  0  0  0  0  0  0
   39.0980   32.6260   39.1410 N   0  0  0  0  0  0  0  0  0  0  0  0
   39.7970   31.4830   39.3620 C   0  0  0  0  0  0  0  0  0  0  0  0
   39.3410   30.5420   40.2190 N   0  0  0  0  0  0  0  0  0  0  0  0
   36.4990   32.1890   41.0980 H   0  0  0  0  0  0  0  0  0  0  0  0
   37.3900   33.8020   39.5600 H   0  0  0  0  0  0  0  0  0  0  0  0
   40.7210   31.3950   38.8110 H   0  0  0  0  0  0  0  0  0  0  0  0
  1  7  1  1  0  0  0
  1  2  1  0  0  0  0
  2  3  1  0  0  0  0
  2  9  1  0  0  0  0
  2  8  1  0  0  0  0
  3 11  1  0  0  0  0
  4  3  1  0  0  0  0
  4 13  1  0  0  0  0
  5 15  1  0  0  0  0
  5  4  1  0  0  0  0
  6 16  1  6  0  0  0
  6  1  1  0  0  0  0
  6  5  1  0  0  0  0
 10  3  1  0  0  0  0
 12  4  1  0  0  0  0
 14  5  1  0  0  0  0
 17 18  1  0  0  0  0
 17  6  1  0  0  0  0
 18 19  1  0  0  0  0
 20 18  2  0  0  0  0
 21 28  1  0  0  0  0
 21 20  1  0  0  0  0
 22 21  2  0  0  0  0
 23 22  1  0  0  0  0
 24 25  2  0  0  0  0
 24 22  1  0  0  0  0
 25 27  1  0  0  0  0
 26 25  1  0  0  0  0
 27 28  2  0  0  0  0
 28 17  1  0  0  0  0
 29  1  1  0  0  0  0
 30 29  1  0  0  0  0
 30 35  1  0  0  0  0
 31 30  2  0  0  0  0
 32 33  2  0  0  0  0
 32 31  1  0  0  0  0
 33 34  1  0  0  0  0
 34 29  2  0  0  0  0
 36 31  1  0  0  0  0
 37 33  1  0  0  0  0
M  END
>  <minimizedAffinity>
-5.09430027

$$$$

 OpenBabel03242511553D

 37 40  0  0  1  0  0  0  0  0999 V2000
   37.3640   31.4180   40.0370 C   0  0  2  0  0  0  0  0  0  0  0  0
   37.0730   32.8640   39.9170 C   0  0  0  0  0  0  0  0  0  0  0  0
   38.2880   33.7050   39.6800 C   0  0  0  0  0  0  0  0  0  0  0  0
   39.3940   33.4660   40.6930 C   0  0  0  0  0  0  0  0  0  0  0  0
   39.5290   32.0300   41.1220 C   0  0  0  0  0  0  0  0  0  0  0  0
   38.8500   31.1040   40.1450 C   0  0  1  0  0  0  0  0  0  0  0  0
   36.9270   30.9340   40.9620 H   0  0  0  0  0  0  0  0  0  0  0  0
   36.6460   33.1920   40.9110 H   0  0  0  0  0  0  0  0  0  0  0  0
   36.3390   33.1340   39.1490 H   0  0  0  0  0  0  0  0  0  0  0  0
   38.6730   33.7460   38.6660 H   0  0  0  0  0  0  0  0  0  0  0  0
   37.9500   34.7630   39.8980 H   0  0  0  0  0  0  0  0  0  0  0  0
   40.3570   33.7080   40.1640 H   0  0  0  0  0  0  0  0  0  0  0  0
   39.3580   34.1640   41.5490 H   0  0  0  0  0  0  0  0  0  0  0  0
   40.5470   31.6900   41.3110 H   0  0  0  0  0  0  0  0  0  0  0  0
   38.9520   31.9580   42.0900 H   0  0  0  0  0  0  0  0  0  0  0  0
   39.3770   31.2330   39.1700 H   0  0  0  0  0  0  0  0  0  0  0  0
   39.0130   29.7370   40.5290 N   0  0  0  0  0  0  0  0  0  0  0  0
   39.6760   28.7970   39.8220 C   0  0  0  0  0  0  0  0  0  0  0  0
   40.1950   28.8590   38.8790 H   0  0  0  0  0  0  0  0  0  0  0  0
   39.6520   27.6030   40.4510 N   0  0  0  0  0  0  0  0  0  0  0  0
   38.9630   27.7470   41.5940 C   0  0  0  0  0  0  0  0  0  0  0  0
   38.6180   26.8940   42.6190 C   0  0  0  0  0  0  0  0  0  0  0  0
   38.9160   25.8490   42.6060 H   0  0  0  0  0  0  0  0  0  0  0  0
   37.8950   27.3330   43.6760 N   0  0  0  0  0  0  0  0  0  0  0  0
   37.5430   28.6460   43.6530 C   0  0  0  0  0  0  0  0  0  0  0  0
   36.9580   29.0790   44.4690 H   0  0  0  0  0  0  0  0  0  0  0  0
   37.8630   29.5100   42.6650 N   0  0  0  0  0  0  0  0  0  0  0  0
   38.5810   29.0790   41.6130 C   0  0  0  0  0  0  0  0  0  0  0  0
   36.8310   30.6410   38.9020 C   0  0  0  0  0  0  0  0  0  0  0  0
   37.4140   30.9030   37.6470 C   0  0  0  0  0  0  0  0  0  0  0  0
   36.9820   30.2150   36.5120 C   0  0  0  0  0  0  0  0  0  0  0  0
   35.9780   29.2930   36.7030 N   0  0  0  0  0  0  0  0  0  0  0  0
   35.4330   29.0600   37.9240 C   0  0  0  0  0  0  0  0  0  0  0  0
   35.8610   29.7330   39.0170 N   0  0  0  0  0  0  0  0  0  0  0  0
   38.2000   31.6040   37.4080 H   0  0  0  0  0  0  0  0  0  0  0  0
   37.3760   30.3600   35.5280 H   0  0  0  0  0  0  0  0  0  0  0  0
   34.6540   28.3140   37.9460 H   0  0  0  0  0  0  0  0  0  0  0  0
  1  6  1  0  0  0  0
  1  7  1  1  0  0  0
  2  1  1  0  0  0  0
  2  8  1  0  0  0  0
  3 11  1  0  0  0  0
  3  2  1  0  0  0  0
  3  4  1  0  0  0  0
  4  5  1  0  0  0  0
  4 13  1  0  0  0  0
  5 14  1  0  0  0  0
  5 15  1  0  0  0  0
  6 16  1  6  0  0  0
  6 17  1  0  0  0  0
  6  5  1  0  0  0  0
  9  2  1  0  0  0  0
 10  3  1  0  0  0  0
 12  4  1  0  0  0  0
 17 28  1  0  0  0  0
 18 20  2  0  0  0  0
 18 17  1  0  0  0  0
 19 18  1  0  0  0  0
 20 21  1  0  0  0  0
 21 28  2  0  0  0  0
 21 22  1  0  0  0  0
 22 24  2  0  0  0  0
 23 22  1  0  0  0  0
 25 24  1  0  0  0  0
 25 26  1  0  0  0  0
 27 25  2  0  0  0  0
 28 27  1  0  0  0  0
 29 34  1  0  0  0  0
 29  1  1  0  0  0  0
 30 29  2  0  0  0  0
 31 32  2  0  0  0  0
 31 30  1  0  0  0  0
 32 33  1  0  0  0  0
 33 37  1  0  0  0  0
 33 34  2  0  0  0  0
 35 30  1  0  0  0  0
 36 31  1  0  0  0  0
M  END
>  <minimizedAffinity>
-5.06939316

$$$$

 OpenBabel03242511553D

 37 40  0  0  1  0  0  0  0  0999 V2000
   38.5780   30.7240   40.0630 C   0  0  2  0  0  0  0  0  0  0  0  0
   39.6240   31.7090   40.4150 C   0  0  0  0  0  0  0  0  0  0  0  0
   39.0810   33.0060   40.9270 C   0  0  0  0  0  0  0  0  0  0  0  0
   38.0460   33.6320   40.0090 C   0  0  0  0  0  0  0  0  0  0  0  0
   37.1390   32.6340   39.3420 C   0  0  0  0  0  0  0  0  0  0  0  0
   37.1710   31.3070   40.0560 C   0  0  1  0  0  0  0  0  0  0  0  0
   38.6850   30.2870   39.0240 H   0  0  0  0  0  0  0  0  0  0  0  0
   40.1770   31.9500   39.4590 H   0  0  0  0  0  0  0  0  0  0  0  0
   40.3720   31.3640   41.1380 H   0  0  0  0  0  0  0  0  0  0  0  0
   38.7690   33.0370   41.9660 H   0  0  0  0  0  0  0  0  0  0  0  0
   39.9550   33.7230   40.8730 H   0  0  0  0  0  0  0  0  0  0  0  0
   37.3740   34.2450   40.6720 H   0  0  0  0  0  0  0  0  0  0  0  0
   38.4790   34.3580   39.2970 H   0  0  0  0  0  0  0  0  0  0  0  0
   36.1080   32.9570   39.2010 H   0  0  0  0  0  0  0  0  0  0  0  0
   37.5940   32.4630   38.3220 H   0  0  0  0  0  0  0  0  0  0  0  0
   36.7910   31.4950   41.0870 H   0  0  0  0  0  0  0  0  0  0  0  0
   36.2790   30.3700   39.4470 N   0  0  0  0  0  0  0  0  0  0  0  0
   35.2900   29.7030   40.0790 C   0  0  0  0  0  0  0  0  0  0  0  0
   34.9720   29.7230   41.1100 H   0  0  0  0  0  0  0  0  0  0  0  0
   34.6250   28.8930   39.2300 N   0  0  0  0  0  0  0  0  0  0  0  0
   35.1760   29.0200   38.0130 C   0  0  0  0  0  0  0  0  0  0  0  0
   34.9240   28.4550   36.7820 C   0  0  0  0  0  0  0  0  0  0  0  0
   34.1240   27.7310   36.6490 H   0  0  0  0  0  0  0  0  0  0  0  0
   35.6670   28.7840   35.6990 N   0  0  0  0  0  0  0  0  0  0  0  0
   36.6570   29.6920   35.9100 C   0  0  0  0  0  0  0  0  0  0  0  0
   37.3030   30.0120   35.0870 H   0  0  0  0  0  0  0  0  0  0  0  0
   36.9320   30.2650   37.1010 N   0  0  0  0  0  0  0  0  0  0  0  0
   36.1970   29.9420   38.1800 C   0  0  0  0  0  0  0  0  0  0  0  0
   38.5690   29.5640   40.9740 C   0  0  0  0  0  0  0  0  0  0  0  0
   38.2720   29.8410   42.3230 C   0  0  0  0  0  0  0  0  0  0  0  0
   38.2350   28.8090   43.2620 C   0  0  0  0  0  0  0  0  0  0  0  0
   38.4990   27.5430   42.7890 N   0  0  0  0  0  0  0  0  0  0  0  0
   38.7820   27.3040   41.4840 C   0  0  0  0  0  0  0  0  0  0  0  0
   38.8150   28.3120   40.5830 N   0  0  0  0  0  0  0  0  0  0  0  0
   38.0550   30.7960   42.7770 H   0  0  0  0  0  0  0  0  0  0  0  0
   38.0180   28.9420   44.3010 H   0  0  0  0  0  0  0  0  0  0  0  0
   38.9710   26.2720   41.2350 H   0  0  0  0  0  0  0  0  0  0  0  0
  1  7  1  6  0  0  0
  1  2  1  0  0  0  0
  1 29  1  0  0  0  0
  2  3  1  0  0  0  0
  2  9  1  0  0  0  0
  3 10  1  0  0  0  0
  4 12  1  0  0  0  0
  4  3  1  0  0  0  0
  5  4  1  0  0  0  0
  5  6  1  0  0  0  0
  6  1  1  0  0  0  0
  6 16  1  1  0  0  0
  8  2  1  0  0  0  0
 11  3  1  0  0  0  0
 13  4  1  0  0  0  0
 14  5  1  0  0  0  0
 15  5  1  0  0  0  0
 17  6  1  0  0  0  0
 17 18  1  0  0  0  0
 18 19  1  0  0  0  0
 20 18  2  0  0  0  0
 21 28  1  0  0  0  0
 21 20  1  0  0  0  0
 22 21  2  0  0  0  0
 23 22  1  0  0  0  0
 24 25  2  0  0  0  0
 24 22  1  0  0  0  0
 25 27  1  0  0  0  0
 26 25  1  0  0  0  0
 27 28  2  0  0  0  0
 28 17  1  0  0  0  0
 29 30  1  0  0  0  0
 30 35  1  0  0  0  0
 30 31  2  0  0  0  0
 31 36  1  0  0  0  0
 32 31  1  0  0  0  0
 33 32  2  0  0  0  0
 34 29  2  0  0  0  0
 34 33  1  0  0  0  0
 37 33  1  0  0  0  0
M  END
>  <minimizedAffinity>
-5.06562614

$$$$

 OpenBabel03242511553D

 37 40  0  0  1  0  0  0  0  0999 V2000
   36.2630   29.6190   40.5820 C   0  0  2  0  0  0  0  0  0  0  0  0
   35.0840   28.9130   40.0360 C   0  0  0  0  0  0  0  0  0  0  0  0
   35.2320   28.5120   38.6020 C   0  0  0  0  0  0  0  0  0  0  0  0
   35.6340   29.6600   37.6930 C   0  0  0  0  0  0  0  0  0  0  0  0
   36.6010   30.6260   38.3210 C   0  0  0  0  0  0  0  0  0  0  0  0
   37.2800   30.0150   39.5190 C   0  0  1  0  0  0  0  0  0  0  0  0
   36.0200   30.6020   41.0890 H   0  0  0  0  0  0  0  0  0  0  0  0
   34.2210   29.6430   40.0750 H   0  0  0  0  0  0  0  0  0  0  0  0
   34.7720   28.0190   40.5900 H   0  0  0  0  0  0  0  0  0  0  0  0
   35.8070   27.6140   38.3950 H   0  0  0  0  0  0  0  0  0  0  0  0
   34.1820   28.2590   38.2650 H   0  0  0  0  0  0  0  0  0  0  0  0
   36.1960   29.1950   36.8360 H   0  0  0  0  0  0  0  0  0  0  0  0
   34.7700   30.1660   37.2240 H   0  0  0  0  0  0  0  0  0  0  0  0
   37.3450   31.0510   37.6470 H   0  0  0  0  0  0  0  0  0  0  0  0
   35.9590   31.4710   38.7100 H   0  0  0  0  0  0  0  0  0  0  0  0
   37.8540   29.1360   39.1420 H   0  0  0  0  0  0  0  0  0  0  0  0
   38.2290   30.9170   40.0920 N   0  0  0  0  0  0  0  0  0  0  0  0
   37.9510   32.1470   40.5760 C   0  0  0  0  0  0  0  0  0  0  0  0
   37.0200   32.6870   40.6350 H   0  0  0  0  0  0  0  0  0  0  0  0
   39.0610   32.7500   41.0500 N   0  0  0  0  0  0  0  0  0  0  0  0
   40.0960   31.9120   40.8810 C   0  0  0  0  0  0  0  0  0  0  0  0
   41.4420   31.9820   41.1660 C   0  0  0  0  0  0  0  0  0  0  0  0
   41.8740   32.8640   41.6310 H   0  0  0  0  0  0  0  0  0  0  0  0
   42.2700   30.9510   40.8730 N   0  0  0  0  0  0  0  0  0  0  0  0
   41.6890   29.8680   40.2910 C   0  0  0  0  0  0  0  0  0  0  0  0
   42.2880   28.9930   40.0230 H   0  0  0  0  0  0  0  0  0  0  0  0
   40.3750   29.7660   39.9970 N   0  0  0  0  0  0  0  0  0  0  0  0
   39.5490   30.7870   40.2860 C   0  0  0  0  0  0  0  0  0  0  0  0
   36.9750   28.8220   41.5980 C   0  0  0  0  0  0  0  0  0  0  0  0
   37.3170   27.5080   41.2240 C   0  0  0  0  0  0  0  0  0  0  0  0
   37.9980   26.6760   42.1150 C   0  0  0  0  0  0  0  0  0  0  0  0
   38.3000   27.2170   43.3450 N   0  0  0  0  0  0  0  0  0  0  0  0
   37.9580   28.4870   43.6800 C   0  0  0  0  0  0  0  0  0  0  0  0
   37.3000   29.2840   42.8070 N   0  0  0  0  0  0  0  0  0  0  0  0
   37.1200   27.0070   40.2880 H   0  0  0  0  0  0  0  0  0  0  0  0
   38.2900   25.6700   41.9020 H   0  0  0  0  0  0  0  0  0  0  0  0
   38.2500   28.7960   44.6710 H   0  0  0  0  0  0  0  0  0  0  0  0
  1  7  1  1  0  0  0
  1 29  1  0  0  0  0
  2  8  1  0  0  0  0
  2  1  1  0  0  0  0
  2  9  1  0  0  0  0
  3  2  1  0  0  0  0
  4  5  1  0  0  0  0
  4  3  1  0  0  0  0
  5 15  1  0  0  0  0
  5  6  1  0  0  0  0
  6 16  1  6  0  0  0
  6 17  1  0  0  0  0
  6  1  1  0  0  0  0
 10  3  1  0  0  0  0
 11  3  1  0  0  0  0
 12  4  1  0  0  0  0
 13  4  1  0  0  0  0
 14  5  1  0  0  0  0
 17 28  1  0  0  0  0
 17 18  1  0  0  0  0
 18 19  1  0  0  0  0
 18 20  2  0  0  0  0
 21 20  1  0  0  0  0
 21 22  1  0  0  0  0
 22 23  1  0  0  0  0
 24 22  2  0  0  0  0
 25 24  1  0  0  0  0
 26 25  1  0  0  0  0
 27 28  1  0  0  0  0
 27 25  2  0  0  0  0
 28 21  2  0  0  0  0
 29 34  1  0  0  0  0
 30 29  2  0  0  0  0
 30 31  1  0  0  0  0
 31 32  2  0  0  0  0
 32 33  1  0  0  0  0
 33 37  1  0  0  0  0
 34 33  2  0  0  0  0
 35 30  1  0  0  0  0
 36 31  1  0  0  0  0
M  END
>  <minimizedAffinity>
-5.04830551

$$$$

 OpenBabel03242511553D

 37 40  0  0  1  0  0  0  0  0999 V2000
   37.8220   29.7860   38.8900 C   0  0  2  0  0  0  0  0  0  0  0  0
   37.2360   29.7760   37.5310 C   0  0  0  0  0  0  0  0  0  0  0  0
   35.7750   29.4550   37.5070 C   0  0  0  0  0  0  0  0  0  0  0  0
   35.4270   28.1750   38.2470 C   0  0  0  0  0  0  0  0  0  0  0  0
   36.2390   27.9500   39.4940 C   0  0  0  0  0  0  0  0  0  0  0  0
   36.8890   29.2290   39.9570 C   0  0  1  0  0  0  0  0  0  0  0  0
   38.7520   29.1500   38.9980 H   0  0  0  0  0  0  0  0  0  0  0  0
   37.7550   28.9490   36.9610 H   0  0  0  0  0  0  0  0  0  0  0  0
   37.3740   30.6980   36.9520 H   0  0  0  0  0  0  0  0  0  0  0  0
   35.0870   30.2590   37.7470 H   0  0  0  0  0  0  0  0  0  0  0  0
   35.5540   29.2060   36.4250 H   0  0  0  0  0  0  0  0  0  0  0  0
   34.3670   28.3020   38.6050 H   0  0  0  0  0  0  0  0  0  0  0  0
   35.4000   27.2870   37.5900 H   0  0  0  0  0  0  0  0  0  0  0  0
   35.7090   27.4810   40.3220 H   0  0  0  0  0  0  0  0  0  0  0  0
   37.0750   27.2590   39.1770 H   0  0  0  0  0  0  0  0  0  0  0  0
   36.0600   29.9350   40.1990 H   0  0  0  0  0  0  0  0  0  0  0  0
   37.6280   29.0250   41.1640 N   0  0  0  0  0  0  0  0  0  0  0  0
   37.4030   29.6530   42.3380 C   0  0  0  0  0  0  0  0  0  0  0  0
   36.6690   30.3960   42.6110 H   0  0  0  0  0  0  0  0  0  0  0  0
   38.2690   29.2430   43.2880 N   0  0  0  0  0  0  0  0  0  0  0  0
   39.0850   28.3290   42.7410 C   0  0  0  0  0  0  0  0  0  0  0  0
   40.1390   27.5800   43.2160 C   0  0  0  0  0  0  0  0  0  0  0  0
   40.4730   27.6670   44.2460 H   0  0  0  0  0  0  0  0  0  0  0  0
   40.7950   26.7110   42.4100 N   0  0  0  0  0  0  0  0  0  0  0  0
   40.3460   26.6330   41.1290 C   0  0  0  0  0  0  0  0  0  0  0  0
   40.8200   25.9550   40.4140 H   0  0  0  0  0  0  0  0  0  0  0  0
   39.3160   27.3510   40.6300 N   0  0  0  0  0  0  0  0  0  0  0  0
   38.6630   28.2160   41.4270 C   0  0  0  0  0  0  0  0  0  0  0  0
   38.2240   31.1390   39.3190 C   0  0  0  0  0  0  0  0  0  0  0  0
   37.1930   32.0970   39.3840 C   0  0  0  0  0  0  0  0  0  0  0  0
   37.4720   33.4050   39.7840 C   0  0  0  0  0  0  0  0  0  0  0  0
   38.7830   33.6800   40.1010 N   0  0  0  0  0  0  0  0  0  0  0  0
   39.7570   32.7370   40.0300 C   0  0  0  0  0  0  0  0  0  0  0  0
   39.4740   31.4730   39.6410 N   0  0  0  0  0  0  0  0  0  0  0  0
   36.1460   31.9690   39.1550 H   0  0  0  0  0  0  0  0  0  0  0  0
   36.7440   34.1860   39.8570 H   0  0  0  0  0  0  0  0  0  0  0  0
   40.7450   33.0740   40.3030 H   0  0  0  0  0  0  0  0  0  0  0  0
  1  7  1  6  0  0  0
  1 29  1  0  0  0  0
  1  6  1  0  0  0  0
  2  1  1  0  0  0  0
  3  2  1  0  0  0  0
  3 10  1  0  0  0  0
  3  4  1  0  0  0  0
  4 12  1  0  0  0  0
  4  5  1  0  0  0  0
  5  6  1  0  0  0  0
  5 14  1  0  0  0  0
  6 16  1  1  0  0  0
  6 17  1  0  0  0  0
  8  2  1  0  0  0  0
  9  2  1  0  0  0  0
 11  3  1  0  0  0  0
 13  4  1  0  0  0  0
 15  5  1  0  0  0  0
 17 28  1  0  0  0  0
 17 18  1  0  0  0  0
 18 19  1  0  0  0  0
 18 20  2  0  0  0  0
 21 22  1  0  0  0  0
 21 20  1  0  0  0  0
 22 23  1  0  0  0  0
 24 22  2  0  0  0  0
 25 24  1  0  0  0  0
 26 25  1  0  0  0  0
 27 25  2  0  0  0  0
 27 28  1  0  0  0  0
 28 21  2  0  0  0  0
 29 30  2  0  0  0  0
 29 34  1  0  0  0  0
 30 31  1  0  0  0  0
 31 36  1  0  0  0  0
 31 32  2  0  0  0  0
 33 32  1  0  0  0  0
 33 37  1  0  0  0  0
 34 33  2  0  0  0  0
 35 30  1  0  0  0  0
M  END
>  <minimizedAffinity>
-5.02521944

$$$$
