
 OpenBabel03252507313D

 52 56  0  0  1  0  0  0  0  0999 V2000
   46.9670   32.7590   45.5170 C   0  0  0  0  0  0  0  0  0  0  0  0
   45.8740   33.4220   46.0520 C   0  0  0  0  0  0  0  0  0  0  0  0
   45.1880   34.3840   45.2740 C   0  0  0  0  0  0  0  0  0  0  0  0
   45.6790   34.6020   43.9880 N   0  0  0  0  0  0  0  0  0  0  0  0
   46.7400   33.9300   43.5340 C   0  0  0  0  0  0  0  0  0  0  0  0
   47.3740   33.0250   44.2810 N   0  0  0  0  0  0  0  0  0  0  0  0
   45.3630   33.4420   46.9920 H   0  0  0  0  0  0  0  0  0  0  0  0
   44.3450   34.9780   45.5110 H   0  0  0  0  0  0  0  0  0  0  0  0
   47.2190   34.2210   42.1790 C   0  0  0  0  0  0  0  0  0  0  0  0
   48.2540   35.1030   41.9670 C   0  0  0  0  0  0  0  0  0  0  0  0
   48.7740   35.4390   40.7350 C   0  0  0  0  0  0  0  0  0  0  0  0
   48.1670   34.8100   39.6780 C   0  0  0  0  0  0  0  0  0  0  0  0
   47.1150   33.9100   39.8630 C   0  0  0  0  0  0  0  0  0  0  0  0
   46.6500   33.6240   41.1190 N   0  0  0  0  0  0  0  0  0  0  0  0
   48.6850   35.5630   42.8610 H   0  0  0  0  0  0  0  0  0  0  0  0
   49.5820   36.1290   40.5860 H   0  0  0  0  0  0  0  0  0  0  0  0
   48.4750   34.9810   38.6560 H   0  0  0  0  0  0  0  0  0  0  0  0
   46.5220   33.2860   38.7270 N   0  0  0  0  0  0  0  0  0  0  0  0
   46.9790   33.0250   37.4690 C   0  0  0  0  0  0  0  0  0  0  0  0
   47.9800   33.3100   37.1710 H   0  0  0  0  0  0  0  0  0  0  0  0
   46.0030   32.4040   36.7700 N   0  0  0  0  0  0  0  0  0  0  0  0
   44.9180   32.2600   37.5640 C   0  0  0  0  0  0  0  0  0  0  0  0
   43.6700   31.6970   37.3350 C   0  0  0  0  0  0  0  0  0  0  0  0
   43.4260   31.2650   36.3650 H   0  0  0  0  0  0  0  0  0  0  0  0
   42.7410   31.6740   38.3070 N   0  0  0  0  0  0  0  0  0  0  0  0
   43.0970   32.2280   39.5030 C   0  0  0  0  0  0  0  0  0  0  0  0
   42.4180   32.2670   40.3700 H   0  0  0  0  0  0  0  0  0  0  0  0
   44.2940   32.7850   39.7690 N   0  0  0  0  0  0  0  0  0  0  0  0
   45.2430   32.8180   38.8060 C   0  0  0  0  0  0  0  0  0  0  0  0
   47.6190   31.7650   46.3470 C   0  0  2  0  0  0  0  0  0  0  0  0
   47.3850   30.3260   45.8080 C   0  0  0  0  0  0  0  0  0  0  0  0
   48.2040   29.3610   46.5960 C   0  0  0  0  0  0  0  0  0  0  0  0
   48.1900   29.5480   48.0750 C   0  0  0  0  0  0  0  0  0  0  0  0
   48.1820   30.9280   48.5010 C   0  0  0  0  0  0  0  0  0  0  0  0
   47.1780   31.8110   47.7270 C   0  0  2  0  0  0  0  0  0  0  0  0
   48.7160   31.8860   46.2310 H   0  0  0  0  0  0  0  0  0  0  0  0
   46.3350   30.0440   45.8260 H   0  0  0  0  0  0  0  0  0  0  0  0
   47.7140   30.3220   44.7500 H   0  0  0  0  0  0  0  0  0  0  0  0
   49.1970   29.3320   46.1070 H   0  0  0  0  0  0  0  0  0  0  0  0
   47.7820   28.3310   46.4020 H   0  0  0  0  0  0  0  0  0  0  0  0
   47.8200   28.7340   48.6960 H   0  0  0  0  0  0  0  0  0  0  0  0
   49.3040   29.2950   48.2970 H   0  0  0  0  0  0  0  0  0  0  0  0
   49.1350   31.5090   48.4520 H   0  0  0  0  0  0  0  0  0  0  0  0
   47.8710   31.0290   49.5780 H   0  0  0  0  0  0  0  0  0  0  0  0
   47.2920   32.7610   48.2500 H   0  0  0  0  0  0  0  0  0  0  0  0
   45.8450   31.2180   47.8460 N   0  0  0  0  0  0  0  0  0  0  0  0
   45.1580   30.6770   48.9460 C   0  0  0  0  0  0  0  0  0  0  0  0
   44.6070   31.4030   49.8520 O   0  0  0  0  0  0  0  0  0  0  0  0
   45.1120   29.2500   48.9780 N   0  0  0  0  0  0  0  0  0  0  0  0
   45.2080   31.0620   46.9770 H   0  0  0  0  0  0  0  0  0  0  0  0
   44.8090   28.5830   48.2470 H   0  0  0  0  0  0  0  0  0  0  0  0
   45.4170   28.7290   49.8360 H   0  0  0  0  0  0  0  0  0  0  0  0
  1  2  1  0  0  0  0
  1 30  1  0  0  0  0
  2  7  1  0  0  0  0
  3  8  1  0  0  0  0
  3  2  2  0  0  0  0
  4  3  1  0  0  0  0
  5  4  2  0  0  0  0
  5  6  1  0  0  0  0
  6  1  2  0  0  0  0
  9  5  1  0  0  0  0
 10  9  1  0  0  0  0
 10 15  1  0  0  0  0
 11 10  2  0  0  0  0
 12 13  2  0  0  0  0
 12 11  1  0  0  0  0
 13 14  1  0  0  0  0
 14  9  2  0  0  0  0
 16 11  1  0  0  0  0
 17 12  1  0  0  0  0
 18 29  1  0  0  0  0
 18 13  1  0  0  0  0
 19 18  1  0  0  0  0
 20 19  1  0  0  0  0
 21 19  2  0  0  0  0
 21 22  1  0  0  0  0
 22 29  1  0  0  0  0
 23 22  2  0  0  0  0
 23 25  1  0  0  0  0
 24 23  1  0  0  0  0
 25 26  2  0  0  0  0
 26 28  1  0  0  0  0
 26 27  1  0  0  0  0
 29 28  2  0  0  0  0
 30 36  1  6  0  0  0
 30 35  1  0  0  0  0
 31 37  1  0  0  0  0
 31 30  1  0  0  0  0
 31 32  1  0  0  0  0
 32 33  1  0  0  0  0
 33 42  1  0  0  0  0
 33 34  1  0  0  0  0
 33 41  1  0  0  0  0
 34 44  1  0  0  0  0
 35 46  1  0  0  0  0
 35 45  1  1  0  0  0
 35 34  1  0  0  0  0
 38 31  1  0  0  0  0
 39 32  1  0  0  0  0
 40 32  1  0  0  0  0
 43 34  1  0  0  0  0
 46 47  1  0  0  0  0
 47 49  1  0  0  0  0
 47 48  2  0  0  0  0
 49 52  1  0  0  0  0
 50 46  1  0  0  0  0
 51 49  1  0  0  0  0
M  END
>  <minimizedAffinity>
-7.01111269

>  <minimizedRMSD>
0.30293116

$$$$
