
 OpenBabel03252503023D

 36 38  0  0  0  0  0  0  0  0999 V2000
   43.2480   31.6160   39.3030 C   0  0  0  0  0  0  0  0  0  0  0  0
   43.6400   32.8570   39.7780 C   0  0  0  0  0  0  0  0  0  0  0  0
   44.4290   33.7250   39.0070 C   0  0  0  0  0  0  0  0  0  0  0  0
   44.7710   33.2580   37.7830 N   0  0  0  0  0  0  0  0  0  0  0  0
   44.3880   32.0620   37.3400 C   0  0  0  0  0  0  0  0  0  0  0  0
   43.6420   31.2360   38.0610 N   0  0  0  0  0  0  0  0  0  0  0  0
   42.6290   30.9580   39.9310 H   0  0  0  0  0  0  0  0  0  0  0  0
   44.7120   34.6830   39.4150 H   0  0  0  0  0  0  0  0  0  0  0  0
   44.8180   31.6890   36.0240 N   0  0  0  0  0  0  0  0  0  0  0  0
   44.1990   31.0600   35.0090 C   0  0  0  0  0  0  0  0  0  0  0  0
   43.1730   30.7340   35.1140 H   0  0  0  0  0  0  0  0  0  0  0  0
   45.0620   30.9520   33.9690 N   0  0  0  0  0  0  0  0  0  0  0  0
   46.2350   31.5290   34.3590 C   0  0  0  0  0  0  0  0  0  0  0  0
   47.4290   31.6730   33.6500 C   0  0  0  0  0  0  0  0  0  0  0  0
   47.5470   31.3090   32.6390 H   0  0  0  0  0  0  0  0  0  0  0  0
   48.4630   32.2970   34.2820 N   0  0  0  0  0  0  0  0  0  0  0  0
   48.3180   32.7540   35.5510 C   0  0  0  0  0  0  0  0  0  0  0  0
   49.0700   33.2540   36.1260 H   0  0  0  0  0  0  0  0  0  0  0  0
   47.1540   32.6160   36.2470 N   0  0  0  0  0  0  0  0  0  0  0  0
   46.0940   32.0020   35.6650 C   0  0  0  0  0  0  0  0  0  0  0  0
   43.1160   33.3670   41.4350 S   0  0  0  0  0  0  0  0  0  0  0  0
   43.4740   35.1180   41.6580 C   0  0  0  0  0  0  0  0  0  0  0  0
   44.5240   35.3080   41.3430 H   0  0  0  0  0  0  0  0  0  0  0  0
   42.7990   35.6880   41.0130 H   0  0  0  0  0  0  0  0  0  0  0  0
   43.2870   35.3970   43.0690 N   0  0  0  0  0  0  0  0  0  0  0  0
   42.5460   36.0930   43.2720 H   0  0  0  0  0  0  0  0  0  0  0  0
   44.7490   35.7680   43.8810 S   0  0  0  0  0  0  0  0  0  0  0  0
   45.9370   35.2420   43.1420 O   0  0  0  0  0  0  0  0  0  0  0  0
   46.5000   35.8060   42.5380 H   0  0  0  0  0  0  0  0  0  0  0  0
   44.8080   37.2740   43.9690 O   0  0  0  0  0  0  0  0  0  0  0  0
   44.3220   37.7920   44.6490 H   0  0  0  0  0  0  0  0  0  0  0  0
   44.6960   35.1810   45.4490 O   0  0  0  0  0  0  0  0  0  0  0  0
   45.4490   34.0370   45.6140 C   0  0  0  0  0  0  0  0  0  0  0  0
   46.2440   33.9790   44.8260 H   0  0  0  0  0  0  0  0  0  0  0  0
   46.0270   34.1980   46.5710 H   0  0  0  0  0  0  0  0  0  0  0  0
   44.8660   33.1050   45.6810 H   0  0  0  0  0  0  0  0  0  0  0  0
  1  2  1  0  0  0  0
  1  7  1  0  0  0  0
  2 21  1  0  0  0  0
  3  8  1  0  0  0  0
  3  2  2  0  0  0  0
  4  3  1  0  0  0  0
  5  4  2  0  0  0  0
  5  6  1  0  0  0  0
  6  1  2  0  0  0  0
  9  5  1  0  0  0  0
 10 11  1  0  0  0  0
 10  9  1  0  0  0  0
 12 13  1  0  0  0  0
 12 10  2  0  0  0  0
 13 20  1  0  0  0  0
 14 16  1  0  0  0  0
 14 13  2  0  0  0  0
 15 14  1  0  0  0  0
 16 17  2  0  0  0  0
 17 18  1  0  0  0  0
 17 19  1  0  0  0  0
 20  9  1  0  0  0  0
 20 19  2  0  0  0  0
 21 22  1  0  0  0  0
 22 25  1  0  0  0  0
 23 22  1  0  0  0  0
 24 22  1  0  0  0  0
 25 26  1  0  0  0  0
 25 27  1  0  0  0  0
 27 30  1  0  0  0  0
 27 32  1  0  0  0  0
 28 27  1  0  0  0  0
 29 28  1  0  0  0  0
 30 31  1  0  0  0  0
 32 33  1  0  0  0  0
 33 36  1  0  0  0  0
 33 35  1  0  0  0  0
 34 33  1  0  0  0  0
M  END
>  <minimizedAffinity>
-4.92062283

>  <minimizedRMSD>
7.34898901

$$$$
