
 OpenBabel03252507433D

 34 37  0  0  0  0  0  0  0  0999 V2000
   43.9390   33.9050   41.9160 C   0  0  0  0  0  0  0  0  0  0  0  0
   44.4440   34.6080   40.7800 C   0  0  0  0  0  0  0  0  0  0  0  0
   42.9690   34.6750   39.6610 S   0  0  0  0  0  0  0  0  0  0  0  0
   41.9410   33.7440   40.9280 C   0  0  0  0  0  0  0  0  0  0  0  0
   42.6780   33.5720   41.7750 N   0  0  0  0  0  0  0  0  0  0  0  0
   45.4550   34.9860   40.6590 H   0  0  0  0  0  0  0  0  0  0  0  0
   40.5380   33.3550   40.8110 N   0  0  0  0  0  0  0  0  0  0  0  0
   39.6020   34.1510   40.3150 C   0  0  0  0  0  0  0  0  0  0  0  0
   39.6370   35.1490   39.9260 H   0  0  0  0  0  0  0  0  0  0  0  0
   38.4480   33.4610   40.3660 N   0  0  0  0  0  0  0  0  0  0  0  0
   38.6960   32.2550   40.8920 C   0  0  0  0  0  0  0  0  0  0  0  0
   37.9320   31.1320   41.1900 C   0  0  0  0  0  0  0  0  0  0  0  0
   36.8690   31.1800   40.9660 H   0  0  0  0  0  0  0  0  0  0  0  0
   38.4280   30.0130   41.7290 N   0  0  0  0  0  0  0  0  0  0  0  0
   39.7450   29.9730   42.0000 C   0  0  0  0  0  0  0  0  0  0  0  0
   40.1780   29.0690   42.4410 H   0  0  0  0  0  0  0  0  0  0  0  0
   40.5340   31.0470   41.7260 N   0  0  0  0  0  0  0  0  0  0  0  0
   40.0390   32.1620   41.1890 C   0  0  0  0  0  0  0  0  0  0  0  0
   44.8280   33.6280   43.0810 C   0  0  0  0  0  0  0  0  0  0  0  0
   44.3330   34.1130   43.9730 H   0  0  0  0  0  0  0  0  0  0  0  0
   44.8770   32.5490   43.3400 H   0  0  0  0  0  0  0  0  0  0  0  0
   46.1800   34.2710   42.9900 C   0  0  0  0  0  0  0  0  0  0  0  0
   46.3220   34.8050   43.9750 H   0  0  0  0  0  0  0  0  0  0  0  0
   46.2580   35.0440   42.2330 H   0  0  0  0  0  0  0  0  0  0  0  0
   47.2880   33.2990   42.9250 C   0  0  0  0  0  0  0  0  0  0  0  0
   48.4600   33.7110   42.2850 C   0  0  0  0  0  0  0  0  0  0  0  0
   49.5310   32.8450   42.1930 C   0  0  0  0  0  0  0  0  0  0  0  0
   49.3990   31.6040   42.7410 N   0  0  0  0  0  0  0  0  0  0  0  0
   48.2570   31.2350   43.3510 C   0  0  0  0  0  0  0  0  0  0  0  0
   47.2260   32.0750   43.4360 N   0  0  0  0  0  0  0  0  0  0  0  0
   50.4210   33.1970   41.6920 H   0  0  0  0  0  0  0  0  0  0  0  0
   48.2410   30.2150   43.7630 H   0  0  0  0  0  0  0  0  0  0  0  0
   48.5730   35.3650   41.5830 S   0  0  0  0  0  0  0  0  0  0  0  0
   48.9400   35.2380   40.2410 H   0  0  0  0  0  0  0  0  0  0  0  0
  1 19  1  0  0  0  0
  2  1  2  0  0  0  0
  3  2  1  0  0  0  0
  3  4  1  0  0  0  0
  4  5  2  0  0  0  0
  5  1  1  0  0  0  0
  6  2  1  0  0  0  0
  7  4  1  0  0  0  0
  7 18  1  0  0  0  0
  8 10  2  0  0  0  0
  8  7  1  0  0  0  0
  9  8  1  0  0  0  0
 10 11  1  0  0  0  0
 11 18  2  0  0  0  0
 11 12  1  0  0  0  0
 12 14  2  0  0  0  0
 13 12  1  0  0  0  0
 14 15  1  0  0  0  0
 15 16  1  0  0  0  0
 17 15  2  0  0  0  0
 18 17  1  0  0  0  0
 19 21  1  0  0  0  0
 19 20  1  0  0  0  0
 22 19  1  0  0  0  0
 22 23  1  0  0  0  0
 24 22  1  0  0  0  0
 25 22  1  0  0  0  0
 25 30  1  0  0  0  0
 26 25  2  0  0  0  0
 27 26  1  0  0  0  0
 27 28  2  0  0  0  0
 28 29  1  0  0  0  0
 29 30  2  0  0  0  0
 29 32  1  0  0  0  0
 31 27  1  0  0  0  0
 33 26  1  0  0  0  0
 34 33  1  0  0  0  0
M  END
>  <minimizedAffinity>
-4.95468616

>  <minimizedRMSD>
4.59538412

$$$$
