
 OpenBabel03252502003D

 37 41  0  0  0  0  0  0  0  0999 V2000
   47.6860   32.2560   48.2770 C   0  0  0  0  0  0  0  0  0  0  0  0
   47.5050   30.8900   48.2690 C   0  0  0  0  0  0  0  0  0  0  0  0
   46.8020   30.3830   47.2170 C   0  0  0  0  0  0  0  0  0  0  0  0
   46.3260   31.1930   46.2590 N   0  0  0  0  0  0  0  0  0  0  0  0
   46.5050   32.5160   46.2750 C   0  0  0  0  0  0  0  0  0  0  0  0
   47.1900   33.0090   47.2990 N   0  0  0  0  0  0  0  0  0  0  0  0
   48.2530   32.6620   49.1260 H   0  0  0  0  0  0  0  0  0  0  0  0
   46.5530   29.0160   47.0970 N   0  0  0  0  0  0  0  0  0  0  0  0
   47.3310   27.9560   47.3900 C   0  0  0  0  0  0  0  0  0  0  0  0
   48.3350   28.0140   47.7900 H   0  0  0  0  0  0  0  0  0  0  0  0
   46.6760   26.8130   47.1110 N   0  0  0  0  0  0  0  0  0  0  0  0
   45.4570   27.1220   46.6310 C   0  0  0  0  0  0  0  0  0  0  0  0
   44.4040   26.3390   46.2010 C   0  0  0  0  0  0  0  0  0  0  0  0
   44.5100   25.2570   46.2270 H   0  0  0  0  0  0  0  0  0  0  0  0
   43.3050   26.9850   45.7750 N   0  0  0  0  0  0  0  0  0  0  0  0
   43.2140   28.3330   45.7580 C   0  0  0  0  0  0  0  0  0  0  0  0
   42.2910   28.7980   45.3990 H   0  0  0  0  0  0  0  0  0  0  0  0
   44.2460   29.0690   46.1800 N   0  0  0  0  0  0  0  0  0  0  0  0
   45.3890   28.4810   46.6250 C   0  0  0  0  0  0  0  0  0  0  0  0
   46.0800   33.5740   45.3480 C   0  0  0  0  0  0  0  0  0  0  0  0
   45.0650   34.4320   45.6070 N   0  0  0  0  0  0  0  0  0  0  0  0
   44.6490   35.4010   44.7960 C   0  0  0  0  0  0  0  0  0  0  0  0
   45.2610   35.5810   43.6070 N   0  0  0  0  0  0  0  0  0  0  0  0
   46.2870   34.7910   43.2310 C   0  0  0  0  0  0  0  0  0  0  0  0
   46.9110   34.9800   42.0110 C   0  0  0  0  0  0  0  0  0  0  0  0
   47.9550   34.1820   41.6260 C   0  0  0  0  0  0  0  0  0  0  0  0
   48.3530   33.1920   42.4930 C   0  0  0  0  0  0  0  0  0  0  0  0
   47.7100   33.0340   43.6930 C   0  0  0  0  0  0  0  0  0  0  0  0
   46.6630   33.8050   44.1270 C   0  0  0  0  0  0  0  0  0  0  0  0
   43.8250   36.0300   45.1050 H   0  0  0  0  0  0  0  0  0  0  0  0
   46.5760   35.7680   41.3470 H   0  0  0  0  0  0  0  0  0  0  0  0
   48.4750   34.2870   40.6860 H   0  0  0  0  0  0  0  0  0  0  0  0
   49.1710   32.5330   42.2380 H   0  0  0  0  0  0  0  0  0  0  0  0
   48.0650   32.2320   44.3480 H   0  0  0  0  0  0  0  0  0  0  0  0
   48.0290   30.0900   49.3020 N   0  0  0  0  0  0  0  0  0  0  0  0
   47.4650   29.8090   50.1320 H   0  0  0  0  0  0  0  0  0  0  0  0
   48.9980   29.6860   49.3840 H   0  0  0  0  0  0  0  0  0  0  0  0
  1  7  1  0  0  0  0
  2  1  1  0  0  0  0
  2 35  1  0  0  0  0
  3  2  2  0  0  0  0
  4  5  2  0  0  0  0
  4  3  1  0  0  0  0
  5  6  1  0  0  0  0
  6  1  2  0  0  0  0
  8  3  1  0  0  0  0
  8  9  1  0  0  0  0
  9 10  1  0  0  0  0
 11  9  2  0  0  0  0
 12 11  1  0  0  0  0
 13 14  1  0  0  0  0
 13 12  2  0  0  0  0
 15 13  1  0  0  0  0
 16 15  2  0  0  0  0
 16 18  1  0  0  0  0
 17 16  1  0  0  0  0
 18 19  2  0  0  0  0
 19 12  1  0  0  0  0
 19  8  1  0  0  0  0
 20 21  1  0  0  0  0
 20  5  1  0  0  0  0
 22 30  1  0  0  0  0
 22 21  2  0  0  0  0
 23 22  1  0  0  0  0
 24 23  2  0  0  0  0
 24 29  1  0  0  0  0
 25 24  1  0  0  0  0
 26 25  2  0  0  0  0
 26 27  1  0  0  0  0
 27 28  2  0  0  0  0
 28 29  1  0  0  0  0
 28 34  1  0  0  0  0
 29 20  2  0  0  0  0
 31 25  1  0  0  0  0
 32 26  1  0  0  0  0
 33 27  1  0  0  0  0
 35 37  1  0  0  0  0
 35 36  1  0  0  0  0
M  END
>  <minimizedAffinity>
-6.79261065

>  <minimizedRMSD>
0.678658485

$$$$
