
 OpenBabel03252507093D

 27 29  0  0  0  0  0  0  0  0999 V2000
   35.3040   27.7260   37.7480 C   0  0  0  0  0  0  0  0  0  0  0  0
   35.6160   29.1050   37.7890 C   0  0  0  0  0  0  0  0  0  0  0  0
   36.4840   29.5400   38.7800 C   0  0  0  0  0  0  0  0  0  0  0  0
   36.9920   28.6410   39.6570 N   0  0  0  0  0  0  0  0  0  0  0  0
   36.6820   27.3320   39.6000 C   0  0  0  0  0  0  0  0  0  0  0  0
   35.8370   26.8780   38.6430 N   0  0  0  0  0  0  0  0  0  0  0  0
   34.6310   27.3470   36.9900 H   0  0  0  0  0  0  0  0  0  0  0  0
   35.1390   29.7250   37.0240 H   0  0  0  0  0  0  0  0  0  0  0  0
   37.2460   26.4280   40.5490 N   0  0  0  0  0  0  0  0  0  0  0  0
   36.9780   25.1100   40.6300 C   0  0  0  0  0  0  0  0  0  0  0  0
   36.3130   24.5000   40.0200 H   0  0  0  0  0  0  0  0  0  0  0  0
   37.7070   24.6140   41.6520 N   0  0  0  0  0  0  0  0  0  0  0  0
   38.4310   25.6030   42.2190 C   0  0  0  0  0  0  0  0  0  0  0  0
   39.3210   25.5590   43.2960 C   0  0  0  0  0  0  0  0  0  0  0  0
   39.4860   24.6090   43.7830 H   0  0  0  0  0  0  0  0  0  0  0  0
   39.8760   26.7470   43.5980 N   0  0  0  0  0  0  0  0  0  0  0  0
   39.5790   27.8620   42.9060 C   0  0  0  0  0  0  0  0  0  0  0  0
   40.1210   28.7240   43.2930 H   0  0  0  0  0  0  0  0  0  0  0  0
   38.7170   27.9040   41.8610 N   0  0  0  0  0  0  0  0  0  0  0  0
   38.1310   26.7490   41.5120 C   0  0  0  0  0  0  0  0  0  0  0  0
   36.7750   30.8980   38.7990 O   0  0  0  0  0  0  0  0  0  0  0  0
   38.3120   31.3440   40.9050 O   0  0  0  0  0  0  0  0  0  0  0  0
   36.9540   31.6910   40.3150 P   0  0  0  0  0  0  0  0  0  0  0  0
   36.7840   33.3320   40.0740 O   0  0  0  0  0  0  0  0  0  0  0  0
   36.1980   33.7390   40.7640 H   0  0  0  0  0  0  0  0  0  0  0  0
   35.7680   31.0720   41.3490 O   0  0  0  0  0  0  0  0  0  0  0  0
   36.1240   30.3100   41.8920 H   0  0  0  0  0  0  0  0  0  0  0  0
  1  2  2  0  0  0  0
  1  6  1  0  0  0  0
  2  3  1  0  0  0  0
  3 21  1  0  0  0  0
  3  4  2  0  0  0  0
  5  4  1  0  0  0  0
  5  9  1  0  0  0  0
  6  5  2  0  0  0  0
  7  1  1  0  0  0  0
  8  2  1  0  0  0  0
  9 10  1  0  0  0  0
  9 20  1  0  0  0  0
 10 12  2  0  0  0  0
 11 10  1  0  0  0  0
 12 13  1  0  0  0  0
 13 14  1  0  0  0  0
 14 16  2  0  0  0  0
 14 15  1  0  0  0  0
 17 18  1  0  0  0  0
 17 16  1  0  0  0  0
 19 17  2  0  0  0  0
 20 19  1  0  0  0  0
 20 13  2  0  0  0  0
 21 23  1  0  0  0  0
 23 22  2  0  0  0  0
 23 26  1  0  0  0  0
 24 23  1  0  0  0  0
 24 25  1  0  0  0  0
 26 27  1  0  0  0  0
M  END
>  <minimizedAffinity>
-5.64752197

$$$$

 OpenBabel03252507093D

 27 29  0  0  0  0  0  0  0  0999 V2000
   38.8280   27.2700   43.3970 C   0  0  0  0  0  0  0  0  0  0  0  0
   37.5170   27.2820   42.8680 C   0  0  0  0  0  0  0  0  0  0  0  0
   37.1510   28.3630   42.0800 C   0  0  0  0  0  0  0  0  0  0  0  0
   38.0490   29.3510   41.8520 N   0  0  0  0  0  0  0  0  0  0  0  0
   39.2930   29.3210   42.3660 C   0  0  0  0  0  0  0  0  0  0  0  0
   39.6790   28.2770   43.1390 N   0  0  0  0  0  0  0  0  0  0  0  0
   39.1530   26.4440   44.0170 H   0  0  0  0  0  0  0  0  0  0  0  0
   36.8900   26.4230   43.1270 H   0  0  0  0  0  0  0  0  0  0  0  0
   40.1990   30.3890   42.0950 N   0  0  0  0  0  0  0  0  0  0  0  0
   41.4480   30.5000   42.5870 C   0  0  0  0  0  0  0  0  0  0  0  0
   41.9900   29.8330   43.2570 H   0  0  0  0  0  0  0  0  0  0  0  0
   41.9730   31.6430   42.0960 N   0  0  0  0  0  0  0  0  0  0  0  0
   41.0710   32.2540   41.3000 C   0  0  0  0  0  0  0  0  0  0  0  0
   41.1710   33.4500   40.5820 C   0  0  0  0  0  0  0  0  0  0  0  0
   42.0960   34.0060   40.6460 H   0  0  0  0  0  0  0  0  0  0  0  0
   40.0660   33.7650   39.8820 N   0  0  0  0  0  0  0  0  0  0  0  0
   38.9750   32.9790   39.8920 C   0  0  0  0  0  0  0  0  0  0  0  0
   38.1820   33.3930   39.2700 H   0  0  0  0  0  0  0  0  0  0  0  0
   38.8780   31.8190   40.5870 N   0  0  0  0  0  0  0  0  0  0  0  0
   39.9480   31.4510   41.3050 C   0  0  0  0  0  0  0  0  0  0  0  0
   35.8570   28.3520   41.5710 O   0  0  0  0  0  0  0  0  0  0  0  0
   36.2990   29.2350   39.1170 O   0  0  0  0  0  0  0  0  0  0  0  0
   35.4350   29.4800   40.3430 P   0  0  0  0  0  0  0  0  0  0  0  0
   33.8110   29.3040   40.0040 O   0  0  0  0  0  0  0  0  0  0  0  0
   33.3590   30.1860   39.9400 H   0  0  0  0  0  0  0  0  0  0  0  0
   35.8000   31.0230   40.9320 O   0  0  0  0  0  0  0  0  0  0  0  0
   36.7160   31.3100   40.6490 H   0  0  0  0  0  0  0  0  0  0  0  0
  1  7  1  0  0  0  0
  2  8  1  0  0  0  0
  2  1  2  0  0  0  0
  3  2  1  0  0  0  0
  4  3  2  0  0  0  0
  4  5  1  0  0  0  0
  5  6  2  0  0  0  0
  6  1  1  0  0  0  0
  9  5  1  0  0  0  0
  9 10  1  0  0  0  0
 10 11  1  0  0  0  0
 12 10  2  0  0  0  0
 13 20  1  0  0  0  0
 13 12  1  0  0  0  0
 14 15  1  0  0  0  0
 14 13  2  0  0  0  0
 16 17  2  0  0  0  0
 16 14  1  0  0  0  0
 17 19  1  0  0  0  0
 18 17  1  0  0  0  0
 19 20  2  0  0  0  0
 20  9  1  0  0  0  0
 21  3  1  0  0  0  0
 22 23  2  0  0  0  0
 23 26  1  0  0  0  0
 23 21  1  0  0  0  0
 24 23  1  0  0  0  0
 25 24  1  0  0  0  0
 27 26  1  0  0  0  0
M  END
>  <minimizedAffinity>
-5.50504732

$$$$

 OpenBabel03252507093D

 27 29  0  0  0  0  0  0  0  0999 V2000
   39.0900   27.8070   43.3060 C   0  0  0  0  0  0  0  0  0  0  0  0
   39.0130   29.1640   42.9130 C   0  0  0  0  0  0  0  0  0  0  0  0
   38.3230   29.4580   41.7460 C   0  0  0  0  0  0  0  0  0  0  0  0
   37.7590   28.4500   41.0380 N   0  0  0  0  0  0  0  0  0  0  0  0
   37.8440   27.1650   41.4300 C   0  0  0  0  0  0  0  0  0  0  0  0
   38.5110   26.8480   42.5660 N   0  0  0  0  0  0  0  0  0  0  0  0
   39.6190   27.5370   44.2110 H   0  0  0  0  0  0  0  0  0  0  0  0
   39.5110   29.8800   43.5730 H   0  0  0  0  0  0  0  0  0  0  0  0
   37.2310   26.1420   40.6470 N   0  0  0  0  0  0  0  0  0  0  0  0
   37.2860   24.8210   40.9030 C   0  0  0  0  0  0  0  0  0  0  0  0
   37.7830   24.2930   41.7160 H   0  0  0  0  0  0  0  0  0  0  0  0
   36.5840   24.1940   39.9340 N   0  0  0  0  0  0  0  0  0  0  0  0
   36.0870   25.1040   39.0700 C   0  0  0  0  0  0  0  0  0  0  0  0
   35.3060   24.9210   37.9240 C   0  0  0  0  0  0  0  0  0  0  0  0
   35.0340   23.9120   37.6490 H   0  0  0  0  0  0  0  0  0  0  0  0
   34.9830   26.0640   37.2920 N   0  0  0  0  0  0  0  0  0  0  0  0
   35.3920   27.2620   37.7450 C   0  0  0  0  0  0  0  0  0  0  0  0
   35.0360   28.0700   37.1060 H   0  0  0  0  0  0  0  0  0  0  0  0
   36.1490   27.4400   38.8560 N   0  0  0  0  0  0  0  0  0  0  0  0
   36.5030   26.3370   39.5300 C   0  0  0  0  0  0  0  0  0  0  0  0
   38.2610   30.7970   41.3810 O   0  0  0  0  0  0  0  0  0  0  0  0
   37.0240   30.8560   39.0440 O   0  0  0  0  0  0  0  0  0  0  0  0
   36.9080   31.3530   40.4760 P   0  0  0  0  0  0  0  0  0  0  0  0
   35.5180   30.7980   41.2130 O   0  0  0  0  0  0  0  0  0  0  0  0
   34.8340   31.5150   41.2780 H   0  0  0  0  0  0  0  0  0  0  0  0
   36.9830   33.0420   40.4450 O   0  0  0  0  0  0  0  0  0  0  0  0
   37.4560   33.3670   39.6250 H   0  0  0  0  0  0  0  0  0  0  0  0
  1  7  1  0  0  0  0
  2  1  1  0  0  0  0
  2  8  1  0  0  0  0
  3  2  2  0  0  0  0
  4  5  2  0  0  0  0
  4  3  1  0  0  0  0
  5  6  1  0  0  0  0
  6  1  2  0  0  0  0
  9 10  1  0  0  0  0
  9  5  1  0  0  0  0
 10 11  1  0  0  0  0
 12 10  2  0  0  0  0
 13 20  1  0  0  0  0
 13 12  1  0  0  0  0
 14 13  2  0  0  0  0
 15 14  1  0  0  0  0
 16 17  2  0  0  0  0
 16 14  1  0  0  0  0
 17 19  1  0  0  0  0
 18 17  1  0  0  0  0
 19 20  2  0  0  0  0
 20  9  1  0  0  0  0
 21  3  1  0  0  0  0
 22 23  2  0  0  0  0
 23 24  1  0  0  0  0
 23 21  1  0  0  0  0
 24 25  1  0  0  0  0
 26 23  1  0  0  0  0
 27 26  1  0  0  0  0
M  END
>  <minimizedAffinity>
-5.50095892

$$$$

 OpenBabel03252507093D

 27 29  0  0  0  0  0  0  0  0999 V2000
   37.4520   33.4780   39.5580 C   0  0  0  0  0  0  0  0  0  0  0  0
   38.7700   33.8400   39.9240 C   0  0  0  0  0  0  0  0  0  0  0  0
   39.5040   32.9280   40.6680 C   0  0  0  0  0  0  0  0  0  0  0  0
   38.9400   31.7460   41.0120 N   0  0  0  0  0  0  0  0  0  0  0  0
   37.6830   31.4220   40.6540 C   0  0  0  0  0  0  0  0  0  0  0  0
   36.9420   32.2920   39.9260 N   0  0  0  0  0  0  0  0  0  0  0  0
   36.8470   34.1620   38.9770 H   0  0  0  0  0  0  0  0  0  0  0  0
   39.1070   34.8230   39.5830 H   0  0  0  0  0  0  0  0  0  0  0  0
   37.1370   30.1630   41.0440 N   0  0  0  0  0  0  0  0  0  0  0  0
   35.8830   29.7410   40.7920 C   0  0  0  0  0  0  0  0  0  0  0  0
   35.0740   30.2500   40.2680 H   0  0  0  0  0  0  0  0  0  0  0  0
   35.7600   28.5060   41.3210 N   0  0  0  0  0  0  0  0  0  0  0  0
   36.9210   28.1410   41.9040 C   0  0  0  0  0  0  0  0  0  0  0  0
   37.2590   26.9600   42.5710 C   0  0  0  0  0  0  0  0  0  0  0  0
   36.5050   26.1910   42.6590 H   0  0  0  0  0  0  0  0  0  0  0  0
   38.5220   26.9320   43.0330 N   0  0  0  0  0  0  0  0  0  0  0  0
   39.3630   27.9660   42.8550 C   0  0  0  0  0  0  0  0  0  0  0  0
   40.3390   27.7650   43.2950 H   0  0  0  0  0  0  0  0  0  0  0  0
   39.0360   29.1120   42.2070 N   0  0  0  0  0  0  0  0  0  0  0  0
   37.7890   29.1990   41.7230 C   0  0  0  0  0  0  0  0  0  0  0  0
   40.7960   33.3060   41.0150 O   0  0  0  0  0  0  0  0  0  0  0  0
   42.3160   31.1420   40.9490 O   0  0  0  0  0  0  0  0  0  0  0  0
   41.7790   32.2030   41.8960 P   0  0  0  0  0  0  0  0  0  0  0  0
   43.0080   33.0620   42.6260 O   0  0  0  0  0  0  0  0  0  0  0  0
   43.1320   32.7810   43.5710 H   0  0  0  0  0  0  0  0  0  0  0  0
   40.7820   31.4320   43.0240 O   0  0  0  0  0  0  0  0  0  0  0  0
   40.4270   30.5690   42.6620 H   0  0  0  0  0  0  0  0  0  0  0  0
  1  2  2  0  0  0  0
  1  6  1  0  0  0  0
  2  3  1  0  0  0  0
  3  4  2  0  0  0  0
  3 21  1  0  0  0  0
  5  4  1  0  0  0  0
  5  9  1  0  0  0  0
  6  5  2  0  0  0  0
  7  1  1  0  0  0  0
  8  2  1  0  0  0  0
  9 20  1  0  0  0  0
 10  9  1  0  0  0  0
 10 12  2  0  0  0  0
 11 10  1  0  0  0  0
 12 13  1  0  0  0  0
 13 14  1  0  0  0  0
 14 15  1  0  0  0  0
 14 16  2  0  0  0  0
 17 16  1  0  0  0  0
 17 18  1  0  0  0  0
 19 17  2  0  0  0  0
 20 13  2  0  0  0  0
 20 19  1  0  0  0  0
 21 23  1  0  0  0  0
 22 23  2  0  0  0  0
 23 24  1  0  0  0  0
 23 26  1  0  0  0  0
 24 25  1  0  0  0  0
 27 26  1  0  0  0  0
M  END
>  <minimizedAffinity>
-5.21228504

$$$$

 OpenBabel03252507093D

 27 29  0  0  0  0  0  0  0  0999 V2000
   40.7720   25.9040   43.5920 C   0  0  0  0  0  0  0  0  0  0  0  0
   39.9250   24.8060   43.3140 C   0  0  0  0  0  0  0  0  0  0  0  0
   38.7210   25.0670   42.6760 C   0  0  0  0  0  0  0  0  0  0  0  0
   38.4070   26.3430   42.3500 N   0  0  0  0  0  0  0  0  0  0  0  0
   39.2280   27.3750   42.6240 C   0  0  0  0  0  0  0  0  0  0  0  0
   40.4110   27.1500   43.2450 N   0  0  0  0  0  0  0  0  0  0  0  0
   41.7200   25.7420   44.0880 H   0  0  0  0  0  0  0  0  0  0  0  0
   40.2960   23.8260   43.6300 H   0  0  0  0  0  0  0  0  0  0  0  0
   38.8480   28.7000   42.2580 N   0  0  0  0  0  0  0  0  0  0  0  0
   39.5550   29.8180   42.5180 C   0  0  0  0  0  0  0  0  0  0  0  0
   40.5080   29.9290   43.0340 H   0  0  0  0  0  0  0  0  0  0  0  0
   38.8610   30.8590   42.0120 N   0  0  0  0  0  0  0  0  0  0  0  0
   37.7250   30.4130   41.4350 C   0  0  0  0  0  0  0  0  0  0  0  0
   36.7080   31.1220   40.7880 C   0  0  0  0  0  0  0  0  0  0  0  0
   36.8030   32.1960   40.7150 H   0  0  0  0  0  0  0  0  0  0  0  0
   35.7090   30.3500   40.3240 N   0  0  0  0  0  0  0  0  0  0  0  0
   35.7150   29.0140   40.4850 C   0  0  0  0  0  0  0  0  0  0  0  0
   34.8280   28.5580   40.0470 H   0  0  0  0  0  0  0  0  0  0  0  0
   36.7010   28.3260   41.1120 N   0  0  0  0  0  0  0  0  0  0  0  0
   37.7260   29.0420   41.5960 C   0  0  0  0  0  0  0  0  0  0  0  0
   37.9060   23.9720   42.4140 O   0  0  0  0  0  0  0  0  0  0  0  0
   36.2260   23.6080   40.4040 O   0  0  0  0  0  0  0  0  0  0  0  0
   37.6910   23.4640   40.7850 P   0  0  0  0  0  0  0  0  0  0  0  0
   38.6790   24.3900   39.8110 O   0  0  0  0  0  0  0  0  0  0  0  0
   39.1580   23.8290   39.1460 H   0  0  0  0  0  0  0  0  0  0  0  0
   38.0850   21.8210   40.7140 O   0  0  0  0  0  0  0  0  0  0  0  0
   37.2710   21.2490   40.8260 H   0  0  0  0  0  0  0  0  0  0  0  0
  1  7  1  0  0  0  0
  2  1  1  0  0  0  0
  2  8  1  0  0  0  0
  3  2  2  0  0  0  0
  4  5  2  0  0  0  0
  4  3  1  0  0  0  0
  5  6  1  0  0  0  0
  6  1  2  0  0  0  0
  9 10  1  0  0  0  0
  9  5  1  0  0  0  0
 10 11  1  0  0  0  0
 12 10  2  0  0  0  0
 13 20  1  0  0  0  0
 13 12  1  0  0  0  0
 14 13  2  0  0  0  0
 15 14  1  0  0  0  0
 16 17  2  0  0  0  0
 16 14  1  0  0  0  0
 17 19  1  0  0  0  0
 18 17  1  0  0  0  0
 19 20  2  0  0  0  0
 20  9  1  0  0  0  0
 21  3  1  0  0  0  0
 22 23  2  0  0  0  0
 23 21  1  0  0  0  0
 24 23  1  0  0  0  0
 25 24  1  0  0  0  0
 26 23  1  0  0  0  0
 26 27  1  0  0  0  0
M  END
>  <minimizedAffinity>
-5.13318348

$$$$

 OpenBabel03252507093D

 27 29  0  0  0  0  0  0  0  0999 V2000
   36.9760   31.7120   40.2540 C   0  0  0  0  0  0  0  0  0  0  0  0
   37.0710   31.5400   38.8530 C   0  0  0  0  0  0  0  0  0  0  0  0
   37.1330   30.2430   38.3670 C   0  0  0  0  0  0  0  0  0  0  0  0
   37.1020   29.2060   39.2380 N   0  0  0  0  0  0  0  0  0  0  0  0
   37.0110   29.3920   40.5690 C   0  0  0  0  0  0  0  0  0  0  0  0
   36.9480   30.6480   41.0720 N   0  0  0  0  0  0  0  0  0  0  0  0
   36.9250   32.7090   40.6730 H   0  0  0  0  0  0  0  0  0  0  0  0
   37.0870   32.4590   38.2590 H   0  0  0  0  0  0  0  0  0  0  0  0
   36.9820   28.2650   41.4420 N   0  0  0  0  0  0  0  0  0  0  0  0
   36.9430   28.3170   42.7880 C   0  0  0  0  0  0  0  0  0  0  0  0
   36.9280   29.1850   43.4460 H   0  0  0  0  0  0  0  0  0  0  0  0
   36.9260   27.0450   43.2390 N   0  0  0  0  0  0  0  0  0  0  0  0
   36.9540   26.1900   42.1950 C   0  0  0  0  0  0  0  0  0  0  0  0
   36.9500   24.7910   42.1800 C   0  0  0  0  0  0  0  0  0  0  0  0
   36.9210   24.2720   43.1270 H   0  0  0  0  0  0  0  0  0  0  0  0
   36.9830   24.2560   40.9460 N   0  0  0  0  0  0  0  0  0  0  0  0
   37.0190   25.0240   39.8430 C   0  0  0  0  0  0  0  0  0  0  0  0
   37.0430   24.4180   38.9380 H   0  0  0  0  0  0  0  0  0  0  0  0
   37.0220   26.3800   39.8570 N   0  0  0  0  0  0  0  0  0  0  0  0
   36.9900   26.9730   41.0600 C   0  0  0  0  0  0  0  0  0  0  0  0
   37.2260   30.0990   36.9870 O   0  0  0  0  0  0  0  0  0  0  0  0
   38.9890   28.1680   36.5900 O   0  0  0  0  0  0  0  0  0  0  0  0
   37.5380   28.5410   36.3300 P   0  0  0  0  0  0  0  0  0  0  0  0
   36.4840   27.4540   37.0310 O   0  0  0  0  0  0  0  0  0  0  0  0
   36.0860   26.8500   36.3510 H   0  0  0  0  0  0  0  0  0  0  0  0
   37.3240   28.6490   34.6560 O   0  0  0  0  0  0  0  0  0  0  0  0
   38.1920   28.8360   34.1930 H   0  0  0  0  0  0  0  0  0  0  0  0
  1  7  1  0  0  0  0
  1  6  1  0  0  0  0
  2  1  2  0  0  0  0
  3  2  1  0  0  0  0
  3  4  2  0  0  0  0
  4  5  1  0  0  0  0
  5  6  2  0  0  0  0
  5  9  1  0  0  0  0
  8  2  1  0  0  0  0
  9 10  1  0  0  0  0
 10 12  2  0  0  0  0
 10 11  1  0  0  0  0
 13 12  1  0  0  0  0
 14 13  1  0  0  0  0
 14 15  1  0  0  0  0
 16 14  2  0  0  0  0
 17 19  2  0  0  0  0
 17 16  1  0  0  0  0
 18 17  1  0  0  0  0
 19 20  1  0  0  0  0
 20  9  1  0  0  0  0
 20 13  2  0  0  0  0
 21  3  1  0  0  0  0
 23 22  2  0  0  0  0
 23 21  1  0  0  0  0
 23 24  1  0  0  0  0
 25 24  1  0  0  0  0
 26 23  1  0  0  0  0
 27 26  1  0  0  0  0
M  END
>  <minimizedAffinity>
-5.01197815

$$$$

 OpenBabel03252507093D

 27 29  0  0  0  0  0  0  0  0999 V2000
   41.9320   27.8040   36.9120 C   0  0  0  0  0  0  0  0  0  0  0  0
   42.5090   29.0550   36.5880 C   0  0  0  0  0  0  0  0  0  0  0  0
   41.8760   30.1960   37.0580 C   0  0  0  0  0  0  0  0  0  0  0  0
   40.7470   30.0720   37.7950 N   0  0  0  0  0  0  0  0  0  0  0  0
   40.2140   28.8720   38.0920 C   0  0  0  0  0  0  0  0  0  0  0  0
   40.8100   27.7390   37.6480 N   0  0  0  0  0  0  0  0  0  0  0  0
   42.3950   26.8900   36.5650 H   0  0  0  0  0  0  0  0  0  0  0  0
   43.4210   29.0170   35.9860 H   0  0  0  0  0  0  0  0  0  0  0  0
   39.0220   28.7980   38.8730 N   0  0  0  0  0  0  0  0  0  0  0  0
   38.3650   27.6670   39.1950 C   0  0  0  0  0  0  0  0  0  0  0  0
   38.5980   26.6340   38.9380 H   0  0  0  0  0  0  0  0  0  0  0  0
   37.2950   28.0210   39.9380 N   0  0  0  0  0  0  0  0  0  0  0  0
   37.2680   29.3620   40.0890 C   0  0  0  0  0  0  0  0  0  0  0  0
   36.3550   30.1710   40.7740 C   0  0  0  0  0  0  0  0  0  0  0  0
   35.5260   29.6910   41.2740 H   0  0  0  0  0  0  0  0  0  0  0  0
   36.6370   31.4850   40.7190 N   0  0  0  0  0  0  0  0  0  0  0  0
   37.7090   31.9510   40.0550 C   0  0  0  0  0  0  0  0  0  0  0  0
   37.7750   33.0370   40.1190 H   0  0  0  0  0  0  0  0  0  0  0  0
   38.5950   31.1670   39.3910 N   0  0  0  0  0  0  0  0  0  0  0  0
   38.3680   29.8460   39.4100 C   0  0  0  0  0  0  0  0  0  0  0  0
   42.4620   31.4120   36.7270 O   0  0  0  0  0  0  0  0  0  0  0  0
   42.2010   32.8700   38.9180 O   0  0  0  0  0  0  0  0  0  0  0  0
   41.8500   32.8530   37.4390 P   0  0  0  0  0  0  0  0  0  0  0  0
   42.5050   34.1580   36.6320 O   0  0  0  0  0  0  0  0  0  0  0  0
   41.8130   34.8410   36.4310 H   0  0  0  0  0  0  0  0  0  0  0  0
   40.1650   32.8020   37.3090 O   0  0  0  0  0  0  0  0  0  0  0  0
   39.7500   32.4160   38.1330 H   0  0  0  0  0  0  0  0  0  0  0  0
  1  6  1  0  0  0  0
  2  1  2  0  0  0  0
  2  3  1  0  0  0  0
  3  4  2  0  0  0  0
  4  5  1  0  0  0  0
  5  9  1  0  0  0  0
  6  5  2  0  0  0  0
  7  1  1  0  0  0  0
  8  2  1  0  0  0  0
  9 10  1  0  0  0  0
  9 20  1  0  0  0  0
 10 12  2  0  0  0  0
 11 10  1  0  0  0  0
 12 13  1  0  0  0  0
 13 14  1  0  0  0  0
 14 15  1  0  0  0  0
 16 14  2  0  0  0  0
 17 18  1  0  0  0  0
 17 16  1  0  0  0  0
 19 20  1  0  0  0  0
 19 17  2  0  0  0  0
 20 13  2  0  0  0  0
 21  3  1  0  0  0  0
 21 23  1  0  0  0  0
 23 22  2  0  0  0  0
 24 23  1  0  0  0  0
 25 24  1  0  0  0  0
 26 23  1  0  0  0  0
 26 27  1  0  0  0  0
M  END
>  <minimizedAffinity>
-4.96353579

$$$$

 OpenBabel03252507093D

 27 29  0  0  0  0  0  0  0  0999 V2000
   36.8660   29.7980   36.6330 C   0  0  0  0  0  0  0  0  0  0  0  0
   37.5230   31.0020   36.9760 C   0  0  0  0  0  0  0  0  0  0  0  0
   38.1090   31.0810   38.2310 C   0  0  0  0  0  0  0  0  0  0  0  0
   38.0300   30.0180   39.0670 N   0  0  0  0  0  0  0  0  0  0  0  0
   37.3990   28.8810   38.7210 C   0  0  0  0  0  0  0  0  0  0  0  0
   36.8170   28.7750   37.5020 N   0  0  0  0  0  0  0  0  0  0  0  0
   36.3960   29.6960   35.6630 H   0  0  0  0  0  0  0  0  0  0  0  0
   37.5160   31.7840   36.2110 H   0  0  0  0  0  0  0  0  0  0  0  0
   37.3450   27.7920   39.6410 N   0  0  0  0  0  0  0  0  0  0  0  0
   36.7050   26.6240   39.4350 C   0  0  0  0  0  0  0  0  0  0  0  0
   36.1290   26.2930   38.5710 H   0  0  0  0  0  0  0  0  0  0  0  0
   36.8910   25.8640   40.5350 N   0  0  0  0  0  0  0  0  0  0  0  0
   37.6410   26.5380   41.4330 C   0  0  0  0  0  0  0  0  0  0  0  0
   38.0830   26.1530   42.7030 C   0  0  0  0  0  0  0  0  0  0  0  0
   37.8060   25.1730   43.0630 H   0  0  0  0  0  0  0  0  0  0  0  0
   38.8220   27.0840   43.3330 N   0  0  0  0  0  0  0  0  0  0  0  0
   39.0930   28.2730   42.7660 C   0  0  0  0  0  0  0  0  0  0  0  0
   39.7010   28.8960   43.4220 H   0  0  0  0  0  0  0  0  0  0  0  0
   38.6650   28.6470   41.5350 N   0  0  0  0  0  0  0  0  0  0  0  0
   37.9230   27.7600   40.8570 C   0  0  0  0  0  0  0  0  0  0  0  0
   38.7490   32.2740   38.5440 O   0  0  0  0  0  0  0  0  0  0  0  0
   39.4420   34.1610   40.2630 O   0  0  0  0  0  0  0  0  0  0  0  0
   38.5460   32.9410   40.1160 P   0  0  0  0  0  0  0  0  0  0  0  0
   36.9360   33.3260   40.3210 O   0  0  0  0  0  0  0  0  0  0  0  0
   36.6050   33.0280   41.2080 H   0  0  0  0  0  0  0  0  0  0  0  0
   39.0710   31.7780   41.2270 O   0  0  0  0  0  0  0  0  0  0  0  0
   40.0310   31.9200   41.4720 H   0  0  0  0  0  0  0  0  0  0  0  0
  1  2  2  0  0  0  0
  1  6  1  0  0  0  0
  2  3  1  0  0  0  0
  3 21  1  0  0  0  0
  3  4  2  0  0  0  0
  5  4  1  0  0  0  0
  5  9  1  0  0  0  0
  6  5  2  0  0  0  0
  7  1  1  0  0  0  0
  8  2  1  0  0  0  0
  9 20  1  0  0  0  0
 10  9  1  0  0  0  0
 10 12  2  0  0  0  0
 11 10  1  0  0  0  0
 12 13  1  0  0  0  0
 13 14  1  0  0  0  0
 14 15  1  0  0  0  0
 14 16  2  0  0  0  0
 17 16  1  0  0  0  0
 17 18  1  0  0  0  0
 19 17  2  0  0  0  0
 20 13  2  0  0  0  0
 20 19  1  0  0  0  0
 21 23  1  0  0  0  0
 23 22  2  0  0  0  0
 23 24  1  0  0  0  0
 23 26  1  0  0  0  0
 24 25  1  0  0  0  0
 26 27  1  0  0  0  0
M  END
>  <minimizedAffinity>
-4.94330168

$$$$

 OpenBabel03252507093D

 27 29  0  0  0  0  0  0  0  0999 V2000
   35.1510   28.9730   39.4500 C   0  0  0  0  0  0  0  0  0  0  0  0
   35.8070   29.7470   38.4640 C   0  0  0  0  0  0  0  0  0  0  0  0
   37.1710   29.9500   38.6080 C   0  0  0  0  0  0  0  0  0  0  0  0
   37.8140   29.4100   39.6710 N   0  0  0  0  0  0  0  0  0  0  0  0
   37.1700   28.6760   40.5990 C   0  0  0  0  0  0  0  0  0  0  0  0
   35.8380   28.4600   40.4840 N   0  0  0  0  0  0  0  0  0  0  0  0
   34.0870   28.7910   39.3740 H   0  0  0  0  0  0  0  0  0  0  0  0
   35.1740   30.1260   37.6560 H   0  0  0  0  0  0  0  0  0  0  0  0
   37.8950   28.1300   41.6990 N   0  0  0  0  0  0  0  0  0  0  0  0
   37.3620   27.4240   42.7150 C   0  0  0  0  0  0  0  0  0  0  0  0
   36.3250   27.1430   42.8930 H   0  0  0  0  0  0  0  0  0  0  0  0
   38.3720   27.0900   43.5460 N   0  0  0  0  0  0  0  0  0  0  0  0
   39.5370   27.5760   43.0670 C   0  0  0  0  0  0  0  0  0  0  0  0
   40.8320   27.4780   43.5860 C   0  0  0  0  0  0  0  0  0  0  0  0
   40.9700   26.9390   44.5120 H   0  0  0  0  0  0  0  0  0  0  0  0
   41.7700   28.0880   42.8390 N   0  0  0  0  0  0  0  0  0  0  0  0
   41.4590   28.7290   41.6980 C   0  0  0  0  0  0  0  0  0  0  0  0
   42.3440   29.1610   41.2320 H   0  0  0  0  0  0  0  0  0  0  0  0
   40.2030   28.8240   41.1950 N   0  0  0  0  0  0  0  0  0  0  0  0
   39.2240   28.2350   41.8950 C   0  0  0  0  0  0  0  0  0  0  0  0
   37.7930   30.7130   37.6260 O   0  0  0  0  0  0  0  0  0  0  0  0
   38.9380   32.6220   39.0550 O   0  0  0  0  0  0  0  0  0  0  0  0
   39.2420   31.5530   38.0170 P   0  0  0  0  0  0  0  0  0  0  0  0
   40.3580   30.4470   38.5750 O   0  0  0  0  0  0  0  0  0  0  0  0
   41.2510   30.6000   38.1690 H   0  0  0  0  0  0  0  0  0  0  0  0
   39.7660   32.3340   36.6110 O   0  0  0  0  0  0  0  0  0  0  0  0
   39.4260   33.2740   36.5720 H   0  0  0  0  0  0  0  0  0  0  0  0
  1  6  1  0  0  0  0
  2  3  1  0  0  0  0
  2  1  2  0  0  0  0
  3  4  2  0  0  0  0
  4  5  1  0  0  0  0
  5  9  1  0  0  0  0
  6  5  2  0  0  0  0
  7  1  1  0  0  0  0
  8  2  1  0  0  0  0
  9 20  1  0  0  0  0
  9 10  1  0  0  0  0
 10 11  1  0  0  0  0
 10 12  2  0  0  0  0
 13 12  1  0  0  0  0
 13 14  1  0  0  0  0
 14 15  1  0  0  0  0
 16 14  2  0  0  0  0
 17 16  1  0  0  0  0
 18 17  1  0  0  0  0
 19 17  2  0  0  0  0
 19 20  1  0  0  0  0
 20 13  2  0  0  0  0
 21 23  1  0  0  0  0
 21  3  1  0  0  0  0
 23 24  1  0  0  0  0
 23 22  2  0  0  0  0
 25 24  1  0  0  0  0
 26 23  1  0  0  0  0
 27 26  1  0  0  0  0
M  END
>  <minimizedAffinity>
-4.93362427

$$$$
