
 OpenBabel03242511463D

 47 50  0  0  0  0  0  0  0  0999 V2000
   44.6190   35.7650   44.9390 C   0  0  0  0  0  0  0  0  0  0  0  0
   44.1680   36.0630   43.6290 C   0  0  0  0  0  0  0  0  0  0  0  0
   44.3300   35.0740   42.6730 C   0  0  0  0  0  0  0  0  0  0  0  0
   44.8930   33.9010   43.0190 N   0  0  0  0  0  0  0  0  0  0  0  0
   45.3040   33.6760   44.2870 C   0  0  0  0  0  0  0  0  0  0  0  0
   45.1770   34.5750   45.2340 N   0  0  0  0  0  0  0  0  0  0  0  0
   44.4810   36.5540   45.6630 H   0  0  0  0  0  0  0  0  0  0  0  0
   43.7170   37.0260   43.3910 H   0  0  0  0  0  0  0  0  0  0  0  0
   45.9130   32.3620   44.5820 C   0  0  0  0  0  0  0  0  0  0  0  0
   45.1460   31.5640   44.7060 H   0  0  0  0  0  0  0  0  0  0  0  0
   46.5250   32.0790   43.7020 H   0  0  0  0  0  0  0  0  0  0  0  0
   46.7250   32.4740   45.8400 C   0  0  0  0  0  0  0  0  0  0  0  0
   47.7720   32.1320   45.6110 H   0  0  0  0  0  0  0  0  0  0  0  0
   46.8660   33.5450   46.1590 H   0  0  0  0  0  0  0  0  0  0  0  0
   46.1420   31.7540   46.9480 C   0  0  0  0  0  0  0  0  0  0  0  0
   45.4010   32.2440   47.9860 C   0  0  0  0  0  0  0  0  0  0  0  0
   44.8890   31.4850   48.9910 C   0  0  0  0  0  0  0  0  0  0  0  0
   45.1350   30.1260   48.9570 C   0  0  0  0  0  0  0  0  0  0  0  0
   45.8790   29.6180   47.9190 C   0  0  0  0  0  0  0  0  0  0  0  0
   46.3840   30.4190   46.9150 C   0  0  0  0  0  0  0  0  0  0  0  0
   45.2260   33.3280   47.9780 H   0  0  0  0  0  0  0  0  0  0  0  0
   44.3200   31.9830   49.7570 H   0  0  0  0  0  0  0  0  0  0  0  0
   44.7010   29.5640   49.7860 H   0  0  0  0  0  0  0  0  0  0  0  0
   45.9800   28.5300   48.0440 H   0  0  0  0  0  0  0  0  0  0  0  0
   48.4830   29.3380   46.3650 C   0  0  0  0  0  0  0  0  0  0  0  0
   49.3080   29.6480   47.2920 O   0  0  0  0  0  0  0  0  0  0  0  0
   47.1050   29.5710   46.0060 N   0  0  0  0  0  0  0  0  0  0  0  0
   49.1720   28.7380   45.7770 H   0  0  0  0  0  0  0  0  0  0  0  0
   46.8570   29.0780   45.1320 H   0  0  0  0  0  0  0  0  0  0  0  0
   43.8530   35.4020   41.3140 C   0  0  0  0  0  0  0  0  0  0  0  0
   44.2900   34.6260   40.6260 H   0  0  0  0  0  0  0  0  0  0  0  0
   44.2390   36.3580   40.9500 H   0  0  0  0  0  0  0  0  0  0  0  0
   42.3370   35.3170   41.2100 C   0  0  0  0  0  0  0  0  0  0  0  0
   41.9630   34.9530   42.1930 H   0  0  0  0  0  0  0  0  0  0  0  0
   41.9590   36.3570   41.1250 H   0  0  0  0  0  0  0  0  0  0  0  0
   41.9180   34.4980   40.1120 N   0  0  0  0  0  0  0  0  0  0  0  0
   42.7570   33.9850   39.1690 C   0  0  0  0  0  0  0  0  0  0  0  0
   43.8300   34.1020   39.0900 H   0  0  0  0  0  0  0  0  0  0  0  0
   42.0440   33.2540   38.2700 N   0  0  0  0  0  0  0  0  0  0  0  0
   40.7360   33.3050   38.6500 C   0  0  0  0  0  0  0  0  0  0  0  0
   39.5650   32.7730   38.1450 C   0  0  0  0  0  0  0  0  0  0  0  0
   39.6570   32.1690   37.2450 H   0  0  0  0  0  0  0  0  0  0  0  0
   38.4050   33.0130   38.7660 N   0  0  0  0  0  0  0  0  0  0  0  0
   38.3460   33.7690   39.8820 C   0  0  0  0  0  0  0  0  0  0  0  0
   37.3560   33.8780   40.2710 H   0  0  0  0  0  0  0  0  0  0  0  0
   39.5030   34.2900   40.3720 N   0  0  0  0  0  0  0  0  0  0  0  0
   40.6840   34.0740   39.7830 C   0  0  0  0  0  0  0  0  0  0  0  0
  1  6  1  0  0  0  0
  1  7  1  0  0  0  0
  2  1  2  0  0  0  0
  3  4  2  0  0  0  0
  3  2  1  0  0  0  0
  4  5  1  0  0  0  0
  5  9  1  0  0  0  0
  5  6  2  0  0  0  0
  8  2  1  0  0  0  0
  9 10  1  0  0  0  0
  9 12  1  0  0  0  0
 11  9  1  0  0  0  0
 12 14  1  0  0  0  0
 12 15  1  0  0  0  0
 13 12  1  0  0  0  0
 15 16  1  0  0  0  0
 16 17  2  0  0  0  0
 17 22  1  0  0  0  0
 18 17  1  0  0  0  0
 18 23  1  0  0  0  0
 19 24  1  0  0  0  0
 19 18  2  0  0  0  0
 20 15  2  0  0  0  0
 20 19  1  0  0  0  0
 21 16  1  0  0  0  0
 25 26  2  0  0  0  0
 27 25  1  0  0  0  0
 27 20  1  0  0  0  0
 28 25  1  0  0  0  0
 29 27  1  0  0  0  0
 30  3  1  0  0  0  0
 31 30  1  0  0  0  0
 32 30  1  0  0  0  0
 33 30  1  0  0  0  0
 33 34  1  0  0  0  0
 35 33  1  0  0  0  0
 36 33  1  0  0  0  0
 37 36  1  0  0  0  0
 38 37  1  0  0  0  0
 39 40  1  0  0  0  0
 39 37  2  0  0  0  0
 40 47  1  0  0  0  0
 41 40  2  0  0  0  0
 41 43  1  0  0  0  0
 42 41  1  0  0  0  0
 43 44  2  0  0  0  0
 44 45  1  0  0  0  0
 44 46  1  0  0  0  0
 47 36  1  0  0  0  0
 47 46  2  0  0  0  0
M  END
>  <minimizedAffinity>
-6.03725958

>  <minimizedRMSD>
2.4291575

$$$$
