
 OpenBabel03252509003D

 48 51  0  0  1  0  0  0  0  0999 V2000
   46.9860   34.2400   43.1510 N   0  0  0  0  0  0  0  0  0  0  0  0
   46.5350   35.4890   42.6470 C   0  0  0  0  0  0  0  0  0  0  0  0
   45.0610   35.7690   42.8630 C   0  0  0  0  0  0  0  0  0  0  0  0
   44.5020   35.2050   44.1370 C   0  0  0  0  0  0  0  0  0  0  0  0
   45.5650   34.5280   44.9690 C   0  0  0  0  0  0  0  0  0  0  0  0
   46.1860   33.4720   43.9840 C   0  0  2  0  0  0  0  0  0  0  0  0
   47.0800   36.2810   43.2280 H   0  0  0  0  0  0  0  0  0  0  0  0
   46.7550   35.6870   41.5970 H   0  0  0  0  0  0  0  0  0  0  0  0
   44.5170   35.2770   42.0250 H   0  0  0  0  0  0  0  0  0  0  0  0
   44.9110   36.8590   42.7490 H   0  0  0  0  0  0  0  0  0  0  0  0
   43.6520   34.5300   44.0090 H   0  0  0  0  0  0  0  0  0  0  0  0
   44.1260   36.0750   44.7460 H   0  0  0  0  0  0  0  0  0  0  0  0
   46.3450   35.2440   45.2770 H   0  0  0  0  0  0  0  0  0  0  0  0
   45.0760   33.9830   45.7910 H   0  0  0  0  0  0  0  0  0  0  0  0
   45.3190   32.9460   43.5440 H   0  0  0  0  0  0  0  0  0  0  0  0
   47.9440   33.5760   42.3130 C   0  0  0  0  0  0  0  0  0  0  0  0
   48.6200   34.3260   41.8780 H   0  0  0  0  0  0  0  0  0  0  0  0
   48.5650   32.8990   42.9220 H   0  0  0  0  0  0  0  0  0  0  0  0
   47.2010   32.7790   41.2770 C   0  0  0  0  0  0  0  0  0  0  0  0
   46.1590   33.1470   41.1700 H   0  0  0  0  0  0  0  0  0  0  0  0
   47.1500   31.7020   41.4950 H   0  0  0  0  0  0  0  0  0  0  0  0
   49.3110   32.2070   38.2150 C   0  0  0  0  0  0  0  0  0  0  0  0
   48.6910   32.0210   39.4660 C   0  0  0  0  0  0  0  0  0  0  0  0
   47.8490   32.9880   39.9530 C   0  0  0  0  0  0  0  0  0  0  0  0
   47.6530   34.0800   39.1970 N   0  0  0  0  0  0  0  0  0  0  0  0
   48.2440   34.2560   38.0060 C   0  0  0  0  0  0  0  0  0  0  0  0
   49.0790   33.3180   37.5030 N   0  0  0  0  0  0  0  0  0  0  0  0
   49.9710   31.4240   37.8590 H   0  0  0  0  0  0  0  0  0  0  0  0
   48.9120   31.1070   40.0000 H   0  0  0  0  0  0  0  0  0  0  0  0
   47.9690   35.1950   37.5400 H   0  0  0  0  0  0  0  0  0  0  0  0
   46.9450   32.6950   44.8520 O   0  0  0  0  0  0  0  0  0  0  0  0
   45.2410   30.8150   44.0560 O   0  0  0  0  0  0  0  0  0  0  0  0
   46.2640   31.1810   45.1300 P   0  0  2  0  0  0  0  0  0  0  0  0
   45.3530   31.3280   46.5710 O   0  0  0  0  0  0  0  0  0  0  0  0
   46.0090   31.5500   47.2940 H   0  0  0  0  0  0  0  0  0  0  0  0
   47.4010   29.9970   45.3720 O   0  0  0  0  0  0  0  0  0  0  0  0
   48.2130   31.1070   43.0010 H   0  0  0  0  0  0  0  0  0  0  0  0
   48.8400   30.4960   43.5790 N   0  0  0  0  0  0  0  0  0  0  0  0
   48.6310   29.8580   44.7660 C   0  0  0  0  0  0  0  0  0  0  0  0
   49.7660   29.1860   45.1000 N   0  0  0  0  0  0  0  0  0  0  0  0
   50.7070   29.3850   44.1340 C   0  0  0  0  0  0  0  0  0  0  0  0
   52.0050   28.9290   44.0040 C   0  0  0  0  0  0  0  0  0  0  0  0
   52.3650   28.2940   44.8010 H   0  0  0  0  0  0  0  0  0  0  0  0
   52.6830   29.3180   42.9060 N   0  0  0  0  0  0  0  0  0  0  0  0
   52.0900   30.1140   42.0000 C   0  0  0  0  0  0  0  0  0  0  0  0
   52.6400   30.4270   41.1140 H   0  0  0  0  0  0  0  0  0  0  0  0
   50.8160   30.5730   42.1130 N   0  0  0  0  0  0  0  0  0  0  0  0
   50.0980   30.2020   43.2080 C   0  0  0  0  0  0  0  0  0  0  0  0
  1  6  1  0  0  0  0
  2  3  1  0  0  0  0
  2  1  1  0  0  0  0
  2  7  1  0  0  0  0
  3  4  1  0  0  0  0
  4 12  1  0  0  0  0
  4  5  1  0  0  0  0
  5 13  1  0  0  0  0
  5 14  1  0  0  0  0
  6 15  1  6  0  0  0
  6 31  1  0  0  0  0
  6  5  1  0  0  0  0
  8  2  1  0  0  0  0
  9  3  1  0  0  0  0
 10  3  1  0  0  0  0
 11  4  1  0  0  0  0
 16 18  1  0  0  0  0
 16  1  1  0  0  0  0
 17 16  1  0  0  0  0
 19 21  1  0  0  0  0
 19 16  1  0  0  0  0
 20 19  1  0  0  0  0
 22 23  1  0  0  0  0
 23 24  2  0  0  0  0
 23 29  1  0  0  0  0
 24 19  1  0  0  0  0
 25 24  1  0  0  0  0
 26 25  2  0  0  0  0
 27 26  1  0  0  0  0
 27 22  2  0  0  0  0
 28 22  1  0  0  0  0
 30 26  1  0  0  0  0
 31 33  1  0  0  0  0
 33 32  2  6  0  0  0
 33 36  1  0  0  0  0
 33 34  1  0  0  0  0
 34 35  1  0  0  0  0
 37 38  1  0  0  0  0
 38 39  1  0  0  0  0
 39 40  2  0  0  0  0
 39 36  1  0  0  0  0
 41 40  1  0  0  0  0
 42 41  1  0  0  0  0
 42 43  1  0  0  0  0
 44 42  2  0  0  0  0
 45 47  2  0  0  0  0
 45 44  1  0  0  0  0
 46 45  1  0  0  0  0
 47 48  1  0  0  0  0
 48 38  1  0  0  0  0
 48 41  2  0  0  0  0
M  END
>  <minimizedAffinity>
-4.18336105

>  <minimizedRMSD>
0.876017869

$$$$
