
 OpenBabel03242523543D

 48 52  0  0  1  0  0  0  0  0999 V2000
   42.7680   34.4510   38.8570 C   0  0  1  0  0  0  0  0  0  0  0  0
   42.9550   35.2280   40.1510 C   0  0  1  0  0  0  0  0  0  0  0  0
   41.6770   35.5830   40.6380 O   0  0  0  0  0  0  0  0  0  0  0  0
   40.7760   35.8880   39.6120 C   0  0  0  0  0  0  0  0  0  0  0  0
   40.3960   34.6550   38.8110 C   0  0  2  0  0  0  0  0  0  0  0  0
   41.5440   33.6150   39.0460 C   0  0  1  0  0  0  0  0  0  0  0  0
   43.6740   33.8130   38.7050 H   0  0  0  0  0  0  0  0  0  0  0  0
   43.5870   36.1240   40.0230 H   0  0  0  0  0  0  0  0  0  0  0  0
   39.8700   36.2410   40.1150 H   0  0  0  0  0  0  0  0  0  0  0  0
   41.1480   36.7040   38.9650 H   0  0  0  0  0  0  0  0  0  0  0  0
   39.4410   34.2040   39.1190 H   0  0  0  0  0  0  0  0  0  0  0  0
   41.3160   33.4670   40.1540 H   0  0  0  0  0  0  0  0  0  0  0  0
   42.6160   35.3250   37.7690 O   0  0  0  0  0  0  0  0  0  0  0  0
   42.7750   34.7910   36.9410 H   0  0  0  0  0  0  0  0  0  0  0  0
   40.4430   34.9490   37.4570 O   0  0  0  0  0  0  0  0  0  0  0  0
   39.9050   34.2790   36.9930 H   0  0  0  0  0  0  0  0  0  0  0  0
   43.4230   34.2970   41.0810 O   0  0  0  0  0  0  0  0  0  0  0  0
   44.5550   34.4140   41.7860 C   0  0  0  0  0  0  0  0  0  0  0  0
   45.7990   34.4950   41.1440 C   0  0  0  0  0  0  0  0  0  0  0  0
   46.9380   34.6160   41.9230 C   0  0  0  0  0  0  0  0  0  0  0  0
   46.8150   34.6540   43.3020 N   0  0  0  0  0  0  0  0  0  0  0  0
   45.5980   34.5730   43.8830 C   0  0  0  0  0  0  0  0  0  0  0  0
   44.4750   34.4540   43.1310 N   0  0  0  0  0  0  0  0  0  0  0  0
   45.8810   34.4640   40.0650 H   0  0  0  0  0  0  0  0  0  0  0  0
   45.5710   34.6080   44.9690 H   0  0  0  0  0  0  0  0  0  0  0  0
   48.3030   34.6960   41.3010 C   0  0  0  0  0  0  0  0  0  0  0  0
   49.0600   36.0070   41.4980 C   0  0  0  0  0  0  0  0  0  0  0  0
   49.4760   34.6630   42.1210 C   0  0  0  0  0  0  0  0  0  0  0  0
   48.2780   34.4190   40.2180 H   0  0  0  0  0  0  0  0  0  0  0  0
   48.6390   36.7110   42.2690 H   0  0  0  0  0  0  0  0  0  0  0  0
   49.6690   36.4110   40.6930 H   0  0  0  0  0  0  0  0  0  0  0  0
   50.4370   34.2770   41.7130 H   0  0  0  0  0  0  0  0  0  0  0  0
   49.3900   34.5240   43.2010 H   0  0  0  0  0  0  0  0  0  0  0  0
   41.3480   32.5990   38.1920 O   0  0  0  0  0  0  0  0  0  0  0  0
   40.6660   31.4580   38.3060 C   0  0  0  0  0  0  0  0  0  0  0  0
   39.8460   31.0310   37.3500 O   0  0  0  0  0  0  0  0  0  0  0  0
   40.6200   31.5570   41.2500 H   0  0  0  0  0  0  0  0  0  0  0  0
   40.5940   30.7060   40.6790 N   0  0  0  0  0  0  0  0  0  0  0  0
   40.6090   30.4090   39.4000 C   0  0  0  0  0  0  0  0  0  0  0  0
   40.5490   29.0430   39.3140 N   0  0  0  0  0  0  0  0  0  0  0  0
   40.4990   28.5030   40.5280 C   0  0  0  0  0  0  0  0  0  0  0  0
   40.4310   27.1680   40.8640 C   0  0  0  0  0  0  0  0  0  0  0  0
   40.4110   26.3700   40.1520 H   0  0  0  0  0  0  0  0  0  0  0  0
   40.3900   26.9080   42.2000 N   0  0  0  0  0  0  0  0  0  0  0  0
   40.4150   27.9130   43.1000 C   0  0  0  0  0  0  0  0  0  0  0  0
   40.3850   27.7670   44.1720 H   0  0  0  0  0  0  0  0  0  0  0  0
   40.4810   29.1870   42.6860 N   0  0  0  0  0  0  0  0  0  0  0  0
   40.5260   29.5530   41.4120 C   0  0  0  0  0  0  0  0  0  0  0  0
  1  7  1  6  0  0  0
  1  6  1  0  0  0  0
  1  2  1  0  0  0  0
  2  8  1  6  0  0  0
  2  3  1  0  0  0  0
  2 17  1  0  0  0  0
  4  9  1  0  0  0  0
  4  3  1  0  0  0  0
  5  6  1  0  0  0  0
  5 11  1  1  0  0  0
  5  4  1  0  0  0  0
  6 12  1  1  0  0  0
 10  4  1  0  0  0  0
 13  1  1  0  0  0  0
 14 13  1  0  0  0  0
 15  5  1  0  0  0  0
 16 15  1  0  0  0  0
 17 18  1  0  0  0  0
 18 23  1  0  0  0  0
 19 18  2  0  0  0  0
 19 20  1  0  0  0  0
 20 21  2  0  0  0  0
 21 22  1  0  0  0  0
 22 25  1  0  0  0  0
 23 22  2  0  0  0  0
 24 19  1  0  0  0  0
 26 27  1  0  0  0  0
 26 20  1  0  0  0  0
 26 28  1  0  0  0  0
 27 28  1  0  0  0  0
 27 30  1  0  0  0  0
 28 33  1  0  0  0  0
 29 26  1  0  0  0  0
 31 27  1  0  0  0  0
 32 28  1  0  0  0  0
 34 35  1  0  0  0  0
 34  6  1  0  0  0  0
 35 39  1  0  0  0  0
 36 35  2  0  0  0  0
 38 37  1  0  0  0  0
 38 48  1  0  0  0  0
 39 38  1  0  0  0  0
 40 39  2  0  0  0  0
 40 41  1  0  0  0  0
 41 42  2  0  0  0  0
 41 48  1  0  0  0  0
 42 44  1  0  0  0  0
 43 42  1  0  0  0  0
 44 45  2  0  0  0  0
 45 46  1  0  0  0  0
 47 45  1  0  0  0  0
 48 47  2  0  0  0  0
M  END
>  <minimizedAffinity>
-6.13370323

>  <minimizedRMSD>
1.70595372

$$$$
