
 OpenBabel03242515063D

 42 45  0  0  0  0  0  0  0  0999 V2000
   36.5760   29.2380   39.2020 C   0  0  0  0  0  0  0  0  0  0  0  0
   37.7200   30.0120   39.3750 C   0  0  0  0  0  0  0  0  0  0  0  0
   38.3930   30.5000   38.2380 C   0  0  0  0  0  0  0  0  0  0  0  0
   37.8750   30.1790   37.0330 N   0  0  0  0  0  0  0  0  0  0  0  0
   36.7650   29.4270   36.8870 C   0  0  0  0  0  0  0  0  0  0  0  0
   36.1370   28.9710   37.9670 N   0  0  0  0  0  0  0  0  0  0  0  0
   38.1380   30.2720   40.3330 H   0  0  0  0  0  0  0  0  0  0  0  0
   39.5660   31.2950   38.3990 N   0  0  0  0  0  0  0  0  0  0  0  0
   40.8660   31.1310   38.0200 C   0  0  0  0  0  0  0  0  0  0  0  0
   41.1660   30.2420   37.4800 H   0  0  0  0  0  0  0  0  0  0  0  0
   41.5560   32.2290   38.4500 N   0  0  0  0  0  0  0  0  0  0  0  0
   40.6770   33.0540   39.0860 C   0  0  0  0  0  0  0  0  0  0  0  0
   40.9500   34.2730   39.6730 C   0  0  0  0  0  0  0  0  0  0  0  0
   41.9440   34.7070   39.6820 H   0  0  0  0  0  0  0  0  0  0  0  0
   39.8890   34.9090   40.2500 N   0  0  0  0  0  0  0  0  0  0  0  0
   38.6590   34.3670   40.2370 C   0  0  0  0  0  0  0  0  0  0  0  0
   37.8040   34.8810   40.7020 H   0  0  0  0  0  0  0  0  0  0  0  0
   38.4540   33.1760   39.6490 N   0  0  0  0  0  0  0  0  0  0  0  0
   39.4300   32.4660   39.0530 C   0  0  0  0  0  0  0  0  0  0  0  0
   36.3200   29.1590   35.5370 C   0  0  0  0  0  0  0  0  0  0  0  0
   35.0880   29.2640   35.2880 O   0  0  0  0  0  0  0  0  0  0  0  0
   37.3020   28.7900   34.5640 N   0  0  0  0  0  0  0  0  0  0  0  0
   38.1230   28.2050   34.7790 H   0  0  0  0  0  0  0  0  0  0  0  0
   37.0740   29.1910   33.6190 H   0  0  0  0  0  0  0  0  0  0  0  0
   35.7840   28.6590   40.6950 S   0  0  0  0  0  0  0  0  0  0  0  0
   36.8170   28.8670   42.1590 C   0  0  0  0  0  0  0  0  0  0  0  0
   36.4750   29.7770   42.6970 H   0  0  0  0  0  0  0  0  0  0  0  0
   37.8500   29.1270   41.7990 H   0  0  0  0  0  0  0  0  0  0  0  0
   36.8540   27.6830   43.0580 C   0  0  0  0  0  0  0  0  0  0  0  0
   36.5980   28.0580   44.0890 H   0  0  0  0  0  0  0  0  0  0  0  0
   36.1160   26.9200   42.7310 H   0  0  0  0  0  0  0  0  0  0  0  0
   36.9700   24.8400   41.9980 Cl  0  0  0  0  0  0  0  0  0  0  0  0
   38.3620   25.7250   42.5680 C   0  0  0  0  0  0  0  0  0  0  0  0
   38.1890   27.0370   43.0380 C   0  0  0  0  0  0  0  0  0  0  0  0
   39.3320   27.6650   43.4700 C   0  0  0  0  0  0  0  0  0  0  0  0
   40.6150   27.1380   43.4860 C   0  0  0  0  0  0  0  0  0  0  0  0
   40.7500   25.8520   43.0200 C   0  0  0  0  0  0  0  0  0  0  0  0
   42.3300   25.0730   42.9920 Cl  0  0  0  0  0  0  0  0  0  0  0  0
   39.6410   25.1700   42.5740 C   0  0  0  0  0  0  0  0  0  0  0  0
   39.1920   28.6840   43.8330 H   0  0  0  0  0  0  0  0  0  0  0  0
   41.4540   27.7070   43.8430 H   0  0  0  0  0  0  0  0  0  0  0  0
   39.7570   24.1490   42.2060 H   0  0  0  0  0  0  0  0  0  0  0  0
  1  2  1  0  0  0  0
  1 25  1  0  0  0  0
  2  7  1  0  0  0  0
  3  8  1  0  0  0  0
  3  2  2  0  0  0  0
  4  3  1  0  0  0  0
  5  4  2  0  0  0  0
  5  6  1  0  0  0  0
  6  1  2  0  0  0  0
  8 19  1  0  0  0  0
  9  8  1  0  0  0  0
  9 11  2  0  0  0  0
 10  9  1  0  0  0  0
 11 12  1  0  0  0  0
 12 13  1  0  0  0  0
 13 14  1  0  0  0  0
 13 15  2  0  0  0  0
 16 15  1  0  0  0  0
 16 17  1  0  0  0  0
 18 16  2  0  0  0  0
 19 12  2  0  0  0  0
 19 18  1  0  0  0  0
 20  5  1  0  0  0  0
 21 20  2  0  0  0  0
 22 23  1  0  0  0  0
 22 20  1  0  0  0  0
 24 22  1  0  0  0  0
 25 26  1  0  0  0  0
 26 27  1  0  0  0  0
 26 29  1  0  0  0  0
 28 26  1  0  0  0  0
 29 30  1  0  0  0  0
 31 29  1  0  0  0  0
 32 33  1  0  0  0  0
 33 39  2  0  0  0  0
 33 34  1  0  0  0  0
 34 29  1  0  0  0  0
 34 35  2  0  0  0  0
 35 36  1  0  0  0  0
 35 40  1  0  0  0  0
 36 41  1  0  0  0  0
 37 36  2  0  0  0  0
 38 37  1  0  0  0  0
 39 37  1  0  0  0  0
 42 39  1  0  0  0  0
M  END
>  <minimizedAffinity>
-6.65707636

$$$$

 OpenBabel03242515063D

 42 45  0  0  0  0  0  0  0  0999 V2000
   36.6210   29.2710   39.3700 C   0  0  0  0  0  0  0  0  0  0  0  0
   37.7750   30.0330   39.5330 C   0  0  0  0  0  0  0  0  0  0  0  0
   38.4490   30.5040   38.3900 C   0  0  0  0  0  0  0  0  0  0  0  0
   37.9230   30.1800   37.1880 N   0  0  0  0  0  0  0  0  0  0  0  0
   36.8040   29.4390   37.0530 C   0  0  0  0  0  0  0  0  0  0  0  0
   36.1740   29.0000   38.1390 N   0  0  0  0  0  0  0  0  0  0  0  0
   38.1990   30.2960   40.4870 H   0  0  0  0  0  0  0  0  0  0  0  0
   39.6320   31.2860   38.5390 N   0  0  0  0  0  0  0  0  0  0  0  0
   40.9290   31.1030   38.1570 C   0  0  0  0  0  0  0  0  0  0  0  0
   41.2160   30.2060   37.6230 H   0  0  0  0  0  0  0  0  0  0  0  0
   41.6330   32.1960   38.5750 N   0  0  0  0  0  0  0  0  0  0  0  0
   40.7670   33.0370   39.2080 C   0  0  0  0  0  0  0  0  0  0  0  0
   41.0560   34.2570   39.7840 C   0  0  0  0  0  0  0  0  0  0  0  0
   42.0560   34.6800   39.7860 H   0  0  0  0  0  0  0  0  0  0  0  0
   40.0050   34.9110   40.3600 N   0  0  0  0  0  0  0  0  0  0  0  0
   38.7690   34.3830   40.3550 C   0  0  0  0  0  0  0  0  0  0  0  0
   37.9220   34.9110   40.8190 H   0  0  0  0  0  0  0  0  0  0  0  0
   38.5480   33.1900   39.7780 N   0  0  0  0  0  0  0  0  0  0  0  0
   39.5120   32.4640   39.1840 C   0  0  0  0  0  0  0  0  0  0  0  0
   36.3500   29.1660   35.7070 C   0  0  0  0  0  0  0  0  0  0  0  0
   35.1260   29.3260   35.4500 O   0  0  0  0  0  0  0  0  0  0  0  0
   37.3160   28.7300   34.7450 N   0  0  0  0  0  0  0  0  0  0  0  0
   38.1070   28.1100   34.9760 H   0  0  0  0  0  0  0  0  0  0  0  0
   37.1110   29.1220   33.7920 H   0  0  0  0  0  0  0  0  0  0  0  0
   35.8280   28.7140   40.8710 S   0  0  0  0  0  0  0  0  0  0  0  0
   36.8550   27.5790   41.8240 C   0  0  0  0  0  0  0  0  0  0  0  0
   37.6980   27.2510   41.1790 H   0  0  0  0  0  0  0  0  0  0  0  0
   36.2500   26.6460   41.9900 H   0  0  0  0  0  0  0  0  0  0  0  0
   37.3400   28.1290   43.1170 C   0  0  0  0  0  0  0  0  0  0  0  0
   36.6110   28.9340   43.4150 H   0  0  0  0  0  0  0  0  0  0  0  0
   37.3750   27.3350   43.8930 H   0  0  0  0  0  0  0  0  0  0  0  0
   39.6210   26.1590   43.4910 Cl  0  0  0  0  0  0  0  0  0  0  0  0
   39.8440   27.8530   43.1390 C   0  0  0  0  0  0  0  0  0  0  0  0
   38.7140   28.6720   42.9870 C   0  0  0  0  0  0  0  0  0  0  0  0
   38.9750   29.9930   42.7130 C   0  0  0  0  0  0  0  0  0  0  0  0
   40.2220   30.5830   42.5730 C   0  0  0  0  0  0  0  0  0  0  0  0
   41.3080   29.7540   42.7290 C   0  0  0  0  0  0  0  0  0  0  0  0
   42.9450   30.3880   42.5770 Cl  0  0  0  0  0  0  0  0  0  0  0  0
   41.1120   28.4210   43.0050 C   0  0  0  0  0  0  0  0  0  0  0  0
   38.0930   30.6240   42.5940 H   0  0  0  0  0  0  0  0  0  0  0  0
   40.3300   31.6300   42.3570 H   0  0  0  0  0  0  0  0  0  0  0  0
   41.9790   27.7700   43.1270 H   0  0  0  0  0  0  0  0  0  0  0  0
  1  2  1  0  0  0  0
  1 25  1  0  0  0  0
  2  7  1  0  0  0  0
  3  8  1  0  0  0  0
  3  2  2  0  0  0  0
  4  3  1  0  0  0  0
  5  4  2  0  0  0  0
  5  6  1  0  0  0  0
  6  1  2  0  0  0  0
  8 19  1  0  0  0  0
  9  8  1  0  0  0  0
  9 11  2  0  0  0  0
 10  9  1  0  0  0  0
 11 12  1  0  0  0  0
 12 13  1  0  0  0  0
 13 14  1  0  0  0  0
 13 15  2  0  0  0  0
 16 15  1  0  0  0  0
 16 17  1  0  0  0  0
 18 16  2  0  0  0  0
 19 12  2  0  0  0  0
 19 18  1  0  0  0  0
 20  5  1  0  0  0  0
 21 20  2  0  0  0  0
 22 23  1  0  0  0  0
 22 20  1  0  0  0  0
 24 22  1  0  0  0  0
 25 26  1  0  0  0  0
 26 28  1  0  0  0  0
 26 29  1  0  0  0  0
 27 26  1  0  0  0  0
 29 30  1  0  0  0  0
 29 31  1  0  0  0  0
 33 32  1  0  0  0  0
 34 29  1  0  0  0  0
 34 33  2  0  0  0  0
 35 34  1  0  0  0  0
 36 35  2  0  0  0  0
 36 37  1  0  0  0  0
 37 39  2  0  0  0  0
 38 37  1  0  0  0  0
 39 42  1  0  0  0  0
 39 33  1  0  0  0  0
 40 35  1  0  0  0  0
 41 36  1  0  0  0  0
M  END
>  <minimizedAffinity>
-6.38834143

$$$$

 OpenBabel03242515063D

 42 45  0  0  0  0  0  0  0  0999 V2000
   42.3490   29.3210   39.0400 C   0  0  0  0  0  0  0  0  0  0  0  0
   41.7990   30.4980   39.5430 C   0  0  0  0  0  0  0  0  0  0  0  0
   42.0580   31.7110   38.8780 C   0  0  0  0  0  0  0  0  0  0  0  0
   42.8360   31.6550   37.7750 N   0  0  0  0  0  0  0  0  0  0  0  0
   43.3590   30.5040   37.3040 C   0  0  0  0  0  0  0  0  0  0  0  0
   43.1090   29.3620   37.9390 N   0  0  0  0  0  0  0  0  0  0  0  0
   41.1780   30.5500   40.4210 H   0  0  0  0  0  0  0  0  0  0  0  0
   41.5020   32.9250   39.3800 N   0  0  0  0  0  0  0  0  0  0  0  0
   42.0520   34.0780   39.8580 C   0  0  0  0  0  0  0  0  0  0  0  0
   43.1280   34.1890   39.9030 H   0  0  0  0  0  0  0  0  0  0  0  0
   41.0220   34.9070   40.2020 N   0  0  0  0  0  0  0  0  0  0  0  0
   39.8540   34.2580   39.9340 C   0  0  0  0  0  0  0  0  0  0  0  0
   38.5710   34.7290   40.1290 C   0  0  0  0  0  0  0  0  0  0  0  0
   38.3670   35.7140   40.5380 H   0  0  0  0  0  0  0  0  0  0  0  0
   37.5620   33.8800   39.7790 N   0  0  0  0  0  0  0  0  0  0  0  0
   37.8200   32.6610   39.2740 C   0  0  0  0  0  0  0  0  0  0  0  0
   37.0060   31.9770   38.9900 H   0  0  0  0  0  0  0  0  0  0  0  0
   39.0900   32.2570   39.1050 N   0  0  0  0  0  0  0  0  0  0  0  0
   40.1570   33.0150   39.4190 C   0  0  0  0  0  0  0  0  0  0  0  0
   44.1750   30.5870   36.1130 C   0  0  0  0  0  0  0  0  0  0  0  0
   45.2310   31.2740   36.1650 O   0  0  0  0  0  0  0  0  0  0  0  0
   43.7380   29.8840   34.9460 N   0  0  0  0  0  0  0  0  0  0  0  0
   42.7470   29.7880   34.6790 H   0  0  0  0  0  0  0  0  0  0  0  0
   44.5510   29.4880   34.4100 H   0  0  0  0  0  0  0  0  0  0  0  0
   41.9720   27.8270   39.9430 S   0  0  0  0  0  0  0  0  0  0  0  0
   42.5680   27.8700   41.6450 C   0  0  0  0  0  0  0  0  0  0  0  0
   43.6720   27.9910   41.6200 H   0  0  0  0  0  0  0  0  0  0  0  0
   42.4090   26.8430   42.0750 H   0  0  0  0  0  0  0  0  0  0  0  0
   41.9250   28.9040   42.4960 C   0  0  0  0  0  0  0  0  0  0  0  0
   42.5580   28.9930   43.4230 H   0  0  0  0  0  0  0  0  0  0  0  0
   41.8810   29.8790   41.9640 H   0  0  0  0  0  0  0  0  0  0  0  0
   39.8730   31.1430   42.4770 Cl  0  0  0  0  0  0  0  0  0  0  0  0
   39.4990   29.4810   42.8540 C   0  0  0  0  0  0  0  0  0  0  0  0
   40.5300   28.5280   42.8330 C   0  0  0  0  0  0  0  0  0  0  0  0
   40.1540   27.2440   43.1430 C   0  0  0  0  0  0  0  0  0  0  0  0
   38.8790   26.8060   43.4680 C   0  0  0  0  0  0  0  0  0  0  0  0
   37.8920   27.7630   43.4810 C   0  0  0  0  0  0  0  0  0  0  0  0
   36.2320   27.3290   43.8800 Cl  0  0  0  0  0  0  0  0  0  0  0  0
   38.2060   29.0680   43.1790 C   0  0  0  0  0  0  0  0  0  0  0  0
   40.9590   26.5080   43.1240 H   0  0  0  0  0  0  0  0  0  0  0  0
   38.6780   25.7750   43.6970 H   0  0  0  0  0  0  0  0  0  0  0  0
   37.4170   29.8220   43.1920 H   0  0  0  0  0  0  0  0  0  0  0  0
  1  2  1  0  0  0  0
  1 25  1  0  0  0  0
  2  7  1  0  0  0  0
  3  8  1  0  0  0  0
  3  2  2  0  0  0  0
  4  3  1  0  0  0  0
  5  4  2  0  0  0  0
  5  6  1  0  0  0  0
  6  1  2  0  0  0  0
  8 19  1  0  0  0  0
  8  9  1  0  0  0  0
  9 10  1  0  0  0  0
  9 11  2  0  0  0  0
 12 13  1  0  0  0  0
 12 11  1  0  0  0  0
 13 14  1  0  0  0  0
 15 13  2  0  0  0  0
 16 15  1  0  0  0  0
 17 16  1  0  0  0  0
 18 16  2  0  0  0  0
 18 19  1  0  0  0  0
 19 12  2  0  0  0  0
 20 21  2  0  0  0  0
 20  5  1  0  0  0  0
 22 20  1  0  0  0  0
 23 22  1  0  0  0  0
 24 22  1  0  0  0  0
 25 26  1  0  0  0  0
 26 28  1  0  0  0  0
 26 29  1  0  0  0  0
 27 26  1  0  0  0  0
 29 34  1  0  0  0  0
 29 30  1  0  0  0  0
 31 29  1  0  0  0  0
 32 33  1  0  0  0  0
 33 39  1  0  0  0  0
 34 33  2  0  0  0  0
 34 35  1  0  0  0  0
 35 36  2  0  0  0  0
 36 37  1  0  0  0  0
 36 41  1  0  0  0  0
 37 38  1  0  0  0  0
 39 42  1  0  0  0  0
 39 37  2  0  0  0  0
 40 35  1  0  0  0  0
M  END
>  <minimizedAffinity>
-6.27948475

$$$$

 OpenBabel03242515063D

 42 45  0  0  0  0  0  0  0  0999 V2000
   37.5400   30.2650   39.9620 C   0  0  0  0  0  0  0  0  0  0  0  0
   36.9510   29.5850   38.8990 C   0  0  0  0  0  0  0  0  0  0  0  0
   37.3910   29.8540   37.5890 C   0  0  0  0  0  0  0  0  0  0  0  0
   38.3730   30.7700   37.4460 N   0  0  0  0  0  0  0  0  0  0  0  0
   38.9310   31.4180   38.4900 C   0  0  0  0  0  0  0  0  0  0  0  0
   38.5080   31.1570   39.7240 N   0  0  0  0  0  0  0  0  0  0  0  0
   36.1680   28.8540   39.0060 H   0  0  0  0  0  0  0  0  0  0  0  0
   36.7980   29.1660   36.4890 N   0  0  0  0  0  0  0  0  0  0  0  0
   36.0870   29.5800   35.4010 C   0  0  0  0  0  0  0  0  0  0  0  0
   35.8800   30.6320   35.2550 H   0  0  0  0  0  0  0  0  0  0  0  0
   35.7710   28.4660   34.6760 N   0  0  0  0  0  0  0  0  0  0  0  0
   36.2880   27.3840   35.3220 C   0  0  0  0  0  0  0  0  0  0  0  0
   36.2030   26.0610   34.9380 C   0  0  0  0  0  0  0  0  0  0  0  0
   35.6880   25.7460   34.0360 H   0  0  0  0  0  0  0  0  0  0  0  0
   36.8080   25.1580   35.7640 N   0  0  0  0  0  0  0  0  0  0  0  0
   37.4440   25.5520   36.8810 C   0  0  0  0  0  0  0  0  0  0  0  0
   37.9320   24.8230   37.5460 H   0  0  0  0  0  0  0  0  0  0  0  0
   37.4940   26.8550   37.2040 N   0  0  0  0  0  0  0  0  0  0  0  0
   36.9310   27.8250   36.4600 C   0  0  0  0  0  0  0  0  0  0  0  0
   39.9740   32.3740   38.1940 C   0  0  0  0  0  0  0  0  0  0  0  0
   40.4200   33.0770   39.1420 O   0  0  0  0  0  0  0  0  0  0  0  0
   40.4410   32.4680   36.8450 N   0  0  0  0  0  0  0  0  0  0  0  0
   39.8270   32.3620   36.0240 H   0  0  0  0  0  0  0  0  0  0  0  0
   41.4740   32.6570   36.8090 H   0  0  0  0  0  0  0  0  0  0  0  0
   36.9230   29.8650   41.5900 S   0  0  0  0  0  0  0  0  0  0  0  0
   36.3610   28.1560   41.7240 C   0  0  0  0  0  0  0  0  0  0  0  0
   36.8000   27.5810   40.8810 H   0  0  0  0  0  0  0  0  0  0  0  0
   35.2560   28.1560   41.5180 H   0  0  0  0  0  0  0  0  0  0  0  0
   36.6530   27.5140   43.0320 C   0  0  0  0  0  0  0  0  0  0  0  0
   36.5530   28.3210   43.8130 H   0  0  0  0  0  0  0  0  0  0  0  0
   35.9350   26.6910   43.2350 H   0  0  0  0  0  0  0  0  0  0  0  0
   36.8980   24.6550   42.0400 Cl  0  0  0  0  0  0  0  0  0  0  0  0
   38.2440   25.6070   42.6100 C   0  0  0  0  0  0  0  0  0  0  0  0
   38.0130   26.9210   43.0470 C   0  0  0  0  0  0  0  0  0  0  0  0
   39.1240   27.6030   43.4810 C   0  0  0  0  0  0  0  0  0  0  0  0
   40.4250   27.1290   43.5280 C   0  0  0  0  0  0  0  0  0  0  0  0
   40.6180   25.8380   43.0940 C   0  0  0  0  0  0  0  0  0  0  0  0
   42.2280   25.1220   43.1060 Cl  0  0  0  0  0  0  0  0  0  0  0  0
   39.5440   25.1030   42.6470 C   0  0  0  0  0  0  0  0  0  0  0  0
   38.9380   28.6240   43.8190 H   0  0  0  0  0  0  0  0  0  0  0  0
   41.2360   27.7380   43.8840 H   0  0  0  0  0  0  0  0  0  0  0  0
   39.7060   24.0800   42.3040 H   0  0  0  0  0  0  0  0  0  0  0  0
  1 25  1  0  0  0  0
  2  7  1  0  0  0  0
  2  1  2  0  0  0  0
  3  2  1  0  0  0  0
  4  3  2  0  0  0  0
  4  5  1  0  0  0  0
  5  6  2  0  0  0  0
  6  1  1  0  0  0  0
  8  3  1  0  0  0  0
  9  8  1  0  0  0  0
 10  9  1  0  0  0  0
 11 12  1  0  0  0  0
 11  9  2  0  0  0  0
 12 19  1  0  0  0  0
 13 12  2  0  0  0  0
 13 15  1  0  0  0  0
 14 13  1  0  0  0  0
 15 16  2  0  0  0  0
 16 18  1  0  0  0  0
 16 17  1  0  0  0  0
 19  8  1  0  0  0  0
 19 18  2  0  0  0  0
 20  5  1  0  0  0  0
 20 21  2  0  0  0  0
 22 20  1  0  0  0  0
 23 22  1  0  0  0  0
 24 22  1  0  0  0  0
 25 26  1  0  0  0  0
 26 29  1  0  0  0  0
 27 26  1  0  0  0  0
 28 26  1  0  0  0  0
 29 34  1  0  0  0  0
 29 31  1  0  0  0  0
 29 30  1  0  0  0  0
 32 33  1  0  0  0  0
 33 39  2  0  0  0  0
 33 34  1  0  0  0  0
 34 35  2  0  0  0  0
 35 36  1  0  0  0  0
 35 40  1  0  0  0  0
 36 41  1  0  0  0  0
 37 38  1  0  0  0  0
 37 36  2  0  0  0  0
 39 37  1  0  0  0  0
 42 39  1  0  0  0  0
M  END
>  <minimizedAffinity>
-6.19602489

$$$$

 OpenBabel03242515063D

 42 45  0  0  0  0  0  0  0  0999 V2000
   37.2730   29.7070   41.5770 C   0  0  0  0  0  0  0  0  0  0  0  0
   36.4550   28.9340   40.7580 C   0  0  0  0  0  0  0  0  0  0  0  0
   36.0810   29.4360   39.4970 C   0  0  0  0  0  0  0  0  0  0  0  0
   36.5480   30.6570   39.1580 N   0  0  0  0  0  0  0  0  0  0  0  0
   37.3410   31.3900   39.9660 C   0  0  0  0  0  0  0  0  0  0  0  0
   37.6890   30.9070   41.1560 N   0  0  0  0  0  0  0  0  0  0  0  0
   36.0780   27.9600   41.0220 H   0  0  0  0  0  0  0  0  0  0  0  0
   35.2430   28.6560   38.6460 N   0  0  0  0  0  0  0  0  0  0  0  0
   33.9980   28.8530   38.1230 C   0  0  0  0  0  0  0  0  0  0  0  0
   33.4550   29.7630   38.3430 H   0  0  0  0  0  0  0  0  0  0  0  0
   33.6960   27.7550   37.3690 N   0  0  0  0  0  0  0  0  0  0  0  0
   34.7530   26.8960   37.4370 C   0  0  0  0  0  0  0  0  0  0  0  0
   34.8700   25.6650   36.8240 C   0  0  0  0  0  0  0  0  0  0  0  0
   34.0880   25.2460   36.1990 H   0  0  0  0  0  0  0  0  0  0  0  0
   36.0370   24.9930   37.0500 N   0  0  0  0  0  0  0  0  0  0  0  0
   37.0030   25.5150   37.8260 C   0  0  0  0  0  0  0  0  0  0  0  0
   37.9440   24.9740   38.0070 H   0  0  0  0  0  0  0  0  0  0  0  0
   36.8320   26.7200   38.3960 N   0  0  0  0  0  0  0  0  0  0  0  0
   35.7220   27.4630   38.2380 C   0  0  0  0  0  0  0  0  0  0  0  0
   37.7700   32.6820   39.4780 C   0  0  0  0  0  0  0  0  0  0  0  0
   38.8990   32.7590   38.9200 O   0  0  0  0  0  0  0  0  0  0  0  0
   36.8910   33.7970   39.6560 N   0  0  0  0  0  0  0  0  0  0  0  0
   36.2950   33.9230   40.4880 H   0  0  0  0  0  0  0  0  0  0  0  0
   36.9360   34.4550   38.8380 H   0  0  0  0  0  0  0  0  0  0  0  0
   37.7000   28.9960   43.1590 S   0  0  0  0  0  0  0  0  0  0  0  0
   39.2060   28.0050   43.0970 C   0  0  0  0  0  0  0  0  0  0  0  0
   40.0330   28.6050   43.5330 H   0  0  0  0  0  0  0  0  0  0  0  0
   39.4820   27.8950   42.0120 H   0  0  0  0  0  0  0  0  0  0  0  0
   39.0930   26.6750   43.7500 C   0  0  0  0  0  0  0  0  0  0  0  0
   40.1150   26.4330   44.1590 H   0  0  0  0  0  0  0  0  0  0  0  0
   38.3470   26.7040   44.5730 H   0  0  0  0  0  0  0  0  0  0  0  0
   41.2400   24.8620   42.6000 Cl  0  0  0  0  0  0  0  0  0  0  0  0
   39.5470   24.7470   42.1930 C   0  0  0  0  0  0  0  0  0  0  0  0
   38.6420   25.6410   42.7870 C   0  0  0  0  0  0  0  0  0  0  0  0
   37.3280   25.4860   42.4140 C   0  0  0  0  0  0  0  0  0  0  0  0
   36.8210   24.5500   41.5270 C   0  0  0  0  0  0  0  0  0  0  0  0
   37.7330   23.6910   40.9620 C   0  0  0  0  0  0  0  0  0  0  0  0
   37.2100   22.4580   39.8170 Cl  0  0  0  0  0  0  0  0  0  0  0  0
   39.0640   23.7960   41.2950 C   0  0  0  0  0  0  0  0  0  0  0  0
   36.6300   26.1830   42.8800 H   0  0  0  0  0  0  0  0  0  0  0  0
   35.7730   24.5030   41.2950 H   0  0  0  0  0  0  0  0  0  0  0  0
   39.7810   23.1100   40.8420 H   0  0  0  0  0  0  0  0  0  0  0  0
  1 25  1  0  0  0  0
  2  7  1  0  0  0  0
  2  1  2  0  0  0  0
  3  2  1  0  0  0  0
  4  3  2  0  0  0  0
  4  5  1  0  0  0  0
  5  6  2  0  0  0  0
  6  1  1  0  0  0  0
  8  3  1  0  0  0  0
  9 10  1  0  0  0  0
  9  8  1  0  0  0  0
 11 12  1  0  0  0  0
 11  9  2  0  0  0  0
 12 19  1  0  0  0  0
 13 15  1  0  0  0  0
 13 12  2  0  0  0  0
 14 13  1  0  0  0  0
 15 16  2  0  0  0  0
 16 17  1  0  0  0  0
 16 18  1  0  0  0  0
 19 18  2  0  0  0  0
 19  8  1  0  0  0  0
 20 22  1  0  0  0  0
 20  5  1  0  0  0  0
 21 20  2  0  0  0  0
 22 23  1  0  0  0  0
 24 22  1  0  0  0  0
 26 25  1  0  0  0  0
 26 27  1  0  0  0  0
 26 29  1  0  0  0  0
 28 26  1  0  0  0  0
 29 30  1  0  0  0  0
 29 31  1  0  0  0  0
 33 32  1  0  0  0  0
 33 34  1  0  0  0  0
 34 29  1  0  0  0  0
 35 34  2  0  0  0  0
 35 40  1  0  0  0  0
 36 35  1  0  0  0  0
 37 39  1  0  0  0  0
 37 36  2  0  0  0  0
 38 37  1  0  0  0  0
 39 33  2  0  0  0  0
 41 36  1  0  0  0  0
 42 39  1  0  0  0  0
M  END
>  <minimizedAffinity>
-6.1507144

$$$$

 OpenBabel03242515063D

 42 45  0  0  0  0  0  0  0  0999 V2000
   36.8070   29.5510   39.7900 C   0  0  0  0  0  0  0  0  0  0  0  0
   37.5570   30.6830   39.4800 C   0  0  0  0  0  0  0  0  0  0  0  0
   38.4530   31.1920   40.4390 C   0  0  0  0  0  0  0  0  0  0  0  0
   38.5290   30.5370   41.6180 N   0  0  0  0  0  0  0  0  0  0  0  0
   37.7940   29.4420   41.8990 C   0  0  0  0  0  0  0  0  0  0  0  0
   36.9500   28.9690   40.9860 N   0  0  0  0  0  0  0  0  0  0  0  0
   37.5020   31.2090   38.5420 H   0  0  0  0  0  0  0  0  0  0  0  0
   39.2290   32.3500   40.1370 N   0  0  0  0  0  0  0  0  0  0  0  0
   39.3000   33.5970   40.6860 C   0  0  0  0  0  0  0  0  0  0  0  0
   38.6750   33.8550   41.5310 H   0  0  0  0  0  0  0  0  0  0  0  0
   40.2310   34.3010   39.9760 N   0  0  0  0  0  0  0  0  0  0  0  0
   40.7210   33.4830   39.0010 C   0  0  0  0  0  0  0  0  0  0  0  0
   41.6800   33.7890   38.0570 C   0  0  0  0  0  0  0  0  0  0  0  0
   42.1570   34.7620   38.0030 H   0  0  0  0  0  0  0  0  0  0  0  0
   42.0000   32.7890   37.1850 N   0  0  0  0  0  0  0  0  0  0  0  0
   41.4070   31.5850   37.2550 C   0  0  0  0  0  0  0  0  0  0  0  0
   41.6660   30.7790   36.5520 H   0  0  0  0  0  0  0  0  0  0  0  0
   40.4790   31.3450   38.1970 N   0  0  0  0  0  0  0  0  0  0  0  0
   40.0910   32.2600   39.1040 C   0  0  0  0  0  0  0  0  0  0  0  0
   37.9730   28.8390   43.2010 C   0  0  0  0  0  0  0  0  0  0  0  0
   39.0350   28.1920   43.4130 O   0  0  0  0  0  0  0  0  0  0  0  0
   36.9380   29.0130   44.1730 N   0  0  0  0  0  0  0  0  0  0  0  0
   35.9350   29.0310   43.9370 H   0  0  0  0  0  0  0  0  0  0  0  0
   37.3340   29.1160   45.1410 H   0  0  0  0  0  0  0  0  0  0  0  0
   35.6950   28.9710   38.5180 S   0  0  0  0  0  0  0  0  0  0  0  0
   35.4860   27.1800   38.5350 C   0  0  0  0  0  0  0  0  0  0  0  0
   34.6340   26.9250   37.8710 H   0  0  0  0  0  0  0  0  0  0  0  0
   35.1310   26.9000   39.5650 H   0  0  0  0  0  0  0  0  0  0  0  0
   36.7080   26.4160   38.1730 C   0  0  0  0  0  0  0  0  0  0  0  0
   36.3700   25.5700   37.5100 H   0  0  0  0  0  0  0  0  0  0  0  0
   37.4310   27.0640   37.6320 H   0  0  0  0  0  0  0  0  0  0  0  0
   39.5410   27.4070   38.6370 Cl  0  0  0  0  0  0  0  0  0  0  0  0
   38.7110   26.2970   39.6970 C   0  0  0  0  0  0  0  0  0  0  0  0
   37.4000   25.9060   39.3820 C   0  0  0  0  0  0  0  0  0  0  0  0
   36.8170   25.0290   40.2660 C   0  0  0  0  0  0  0  0  0  0  0  0
   37.3870   24.5060   41.4150 C   0  0  0  0  0  0  0  0  0  0  0  0
   38.6720   24.9080   41.6950 C   0  0  0  0  0  0  0  0  0  0  0  0
   39.5040   24.3090   43.1280 Cl  0  0  0  0  0  0  0  0  0  0  0  0
   39.3100   25.7840   40.8480 C   0  0  0  0  0  0  0  0  0  0  0  0
   35.7980   24.7300   40.0160 H   0  0  0  0  0  0  0  0  0  0  0  0
   36.8520   23.8230   42.0500 H   0  0  0  0  0  0  0  0  0  0  0  0
   40.3300   26.0980   41.0770 H   0  0  0  0  0  0  0  0  0  0  0  0
  1  6  1  0  0  0  0
  2  1  2  0  0  0  0
  2  3  1  0  0  0  0
  3  4  2  0  0  0  0
  4  5  1  0  0  0  0
  5 20  1  0  0  0  0
  6  5  2  0  0  0  0
  7  2  1  0  0  0  0
  8  3  1  0  0  0  0
  8  9  1  0  0  0  0
  9 10  1  0  0  0  0
 11  9  2  0  0  0  0
 12 19  1  0  0  0  0
 12 11  1  0  0  0  0
 13 12  2  0  0  0  0
 14 13  1  0  0  0  0
 15 16  2  0  0  0  0
 15 13  1  0  0  0  0
 16 18  1  0  0  0  0
 17 16  1  0  0  0  0
 18 19  2  0  0  0  0
 19  8  1  0  0  0  0
 20 21  2  0  0  0  0
 20 22  1  0  0  0  0
 22 24  1  0  0  0  0
 23 22  1  0  0  0  0
 25 26  1  0  0  0  0
 25  1  1  0  0  0  0
 26 28  1  0  0  0  0
 27 26  1  0  0  0  0
 29 26  1  0  0  0  0
 29 34  1  0  0  0  0
 30 29  1  0  0  0  0
 31 29  1  0  0  0  0
 32 33  1  0  0  0  0
 33 39  1  0  0  0  0
 34 33  2  0  0  0  0
 34 35  1  0  0  0  0
 35 36  2  0  0  0  0
 36 37  1  0  0  0  0
 36 41  1  0  0  0  0
 37 38  1  0  0  0  0
 39 42  1  0  0  0  0
 39 37  2  0  0  0  0
 40 35  1  0  0  0  0
M  END
>  <minimizedAffinity>
-6.12129927

$$$$

 OpenBabel03242515063D

 42 45  0  0  0  0  0  0  0  0999 V2000
   40.1500   30.3490   41.6560 C   0  0  0  0  0  0  0  0  0  0  0  0
   41.0870   30.6120   40.6600 C   0  0  0  0  0  0  0  0  0  0  0  0
   40.6660   31.2550   39.4800 C   0  0  0  0  0  0  0  0  0  0  0  0
   39.3580   31.5810   39.3900 N   0  0  0  0  0  0  0  0  0  0  0  0
   38.4670   31.3170   40.3670 C   0  0  0  0  0  0  0  0  0  0  0  0
   38.8740   30.7090   41.4780 N   0  0  0  0  0  0  0  0  0  0  0  0
   42.1310   30.3550   40.7250 H   0  0  0  0  0  0  0  0  0  0  0  0
   41.6130   31.5320   38.4500 N   0  0  0  0  0  0  0  0  0  0  0  0
   41.7270   31.1290   37.1510 C   0  0  0  0  0  0  0  0  0  0  0  0
   40.9920   30.4580   36.7240 H   0  0  0  0  0  0  0  0  0  0  0  0
   42.8480   31.7190   36.6400 N   0  0  0  0  0  0  0  0  0  0  0  0
   43.4100   32.4760   37.6250 C   0  0  0  0  0  0  0  0  0  0  0  0
   44.5550   33.2420   37.5410 C   0  0  0  0  0  0  0  0  0  0  0  0
   45.1440   33.3130   36.6320 H   0  0  0  0  0  0  0  0  0  0  0  0
   44.9120   33.9110   38.6750 N   0  0  0  0  0  0  0  0  0  0  0  0
   44.1790   33.8180   39.7990 C   0  0  0  0  0  0  0  0  0  0  0  0
   44.4670   34.3590   40.7140 H   0  0  0  0  0  0  0  0  0  0  0  0
   43.0730   33.0570   39.8210 N   0  0  0  0  0  0  0  0  0  0  0  0
   42.6340   32.3570   38.7590 C   0  0  0  0  0  0  0  0  0  0  0  0
   37.0970   31.7200   40.1400 C   0  0  0  0  0  0  0  0  0  0  0  0
   36.8620   32.5090   39.1840 O   0  0  0  0  0  0  0  0  0  0  0  0
   36.0880   31.2020   41.0120 N   0  0  0  0  0  0  0  0  0  0  0  0
   36.2370   31.0380   42.0190 H   0  0  0  0  0  0  0  0  0  0  0  0
   35.1930   31.0160   40.4940 H   0  0  0  0  0  0  0  0  0  0  0  0
   40.7670   29.5310   43.1190 S   0  0  0  0  0  0  0  0  0  0  0  0
   41.0070   27.7590   42.8800 C   0  0  0  0  0  0  0  0  0  0  0  0
   42.0910   27.5410   42.9880 H   0  0  0  0  0  0  0  0  0  0  0  0
   40.7840   27.5390   41.8000 H   0  0  0  0  0  0  0  0  0  0  0  0
   40.1860   26.9020   43.7740 C   0  0  0  0  0  0  0  0  0  0  0  0
   40.9040   26.2100   44.2990 H   0  0  0  0  0  0  0  0  0  0  0  0
   39.6360   27.5210   44.5150 H   0  0  0  0  0  0  0  0  0  0  0  0
   37.4080   28.1170   43.6110 Cl  0  0  0  0  0  0  0  0  0  0  0  0
   37.8570   26.6070   42.8610 C   0  0  0  0  0  0  0  0  0  0  0  0
   39.1730   26.1400   43.0040 C   0  0  0  0  0  0  0  0  0  0  0  0
   39.4460   24.9440   42.3840 C   0  0  0  0  0  0  0  0  0  0  0  0
   38.5640   24.1700   41.6470 C   0  0  0  0  0  0  0  0  0  0  0  0
   37.2830   24.6540   41.5270 C   0  0  0  0  0  0  0  0  0  0  0  0
   36.0700   23.7580   40.6140 Cl  0  0  0  0  0  0  0  0  0  0  0  0
   36.9480   25.8470   42.1250 C   0  0  0  0  0  0  0  0  0  0  0  0
   40.4700   24.5870   42.4980 H   0  0  0  0  0  0  0  0  0  0  0  0
   38.8680   23.2430   41.1960 H   0  0  0  0  0  0  0  0  0  0  0  0
   35.9290   26.2240   42.0250 H   0  0  0  0  0  0  0  0  0  0  0  0
  1 25  1  0  0  0  0
  2  7  1  0  0  0  0
  2  1  2  0  0  0  0
  3  2  1  0  0  0  0
  4  3  2  0  0  0  0
  4  5  1  0  0  0  0
  5  6  2  0  0  0  0
  6  1  1  0  0  0  0
  8 19  1  0  0  0  0
  8  3  1  0  0  0  0
  9  8  1  0  0  0  0
 10  9  1  0  0  0  0
 11  9  2  0  0  0  0
 11 12  1  0  0  0  0
 12 19  1  0  0  0  0
 13 12  2  0  0  0  0
 13 15  1  0  0  0  0
 14 13  1  0  0  0  0
 15 16  2  0  0  0  0
 16 18  1  0  0  0  0
 16 17  1  0  0  0  0
 19 18  2  0  0  0  0
 20  5  1  0  0  0  0
 20 22  1  0  0  0  0
 21 20  2  0  0  0  0
 22 23  1  0  0  0  0
 24 22  1  0  0  0  0
 26 27  1  0  0  0  0
 26 25  1  0  0  0  0
 26 29  1  0  0  0  0
 28 26  1  0  0  0  0
 29 30  1  0  0  0  0
 29 31  1  0  0  0  0
 33 34  1  0  0  0  0
 33 32  1  0  0  0  0
 34 29  1  0  0  0  0
 35 40  1  0  0  0  0
 35 34  2  0  0  0  0
 36 35  1  0  0  0  0
 37 36  2  0  0  0  0
 37 39  1  0  0  0  0
 38 37  1  0  0  0  0
 39 33  2  0  0  0  0
 41 36  1  0  0  0  0
 42 39  1  0  0  0  0
M  END
>  <minimizedAffinity>
-6.06585503

$$$$

 OpenBabel03242515063D

 42 45  0  0  0  0  0  0  0  0999 V2000
   40.4360   30.4880   39.7500 C   0  0  0  0  0  0  0  0  0  0  0  0
   39.1800   29.8990   39.6230 C   0  0  0  0  0  0  0  0  0  0  0  0
   38.0330   30.7040   39.7520 C   0  0  0  0  0  0  0  0  0  0  0  0
   38.2270   32.0190   39.9930 N   0  0  0  0  0  0  0  0  0  0  0  0
   39.4530   32.5690   40.1120 C   0  0  0  0  0  0  0  0  0  0  0  0
   40.5310   31.8010   39.9890 N   0  0  0  0  0  0  0  0  0  0  0  0
   39.0180   28.8520   39.4310 H   0  0  0  0  0  0  0  0  0  0  0  0
   36.7390   30.1160   39.6250 N   0  0  0  0  0  0  0  0  0  0  0  0
   35.6800   29.9920   40.4760 C   0  0  0  0  0  0  0  0  0  0  0  0
   35.7410   30.3930   41.4800 H   0  0  0  0  0  0  0  0  0  0  0  0
   34.6940   29.3280   39.8040 N   0  0  0  0  0  0  0  0  0  0  0  0
   35.1540   29.0510   38.5510 C   0  0  0  0  0  0  0  0  0  0  0  0
   34.4830   28.3920   37.5410 C   0  0  0  0  0  0  0  0  0  0  0  0
   33.4730   28.0140   37.6600 H   0  0  0  0  0  0  0  0  0  0  0  0
   35.1670   28.2390   36.3700 N   0  0  0  0  0  0  0  0  0  0  0  0
   36.4190   28.7080   36.2260 C   0  0  0  0  0  0  0  0  0  0  0  0
   36.9700   28.5850   35.2810 H   0  0  0  0  0  0  0  0  0  0  0  0
   37.0210   29.3420   37.2460 N   0  0  0  0  0  0  0  0  0  0  0  0
   36.4370   29.5460   38.4410 C   0  0  0  0  0  0  0  0  0  0  0  0
   39.5170   33.9910   40.3700 C   0  0  0  0  0  0  0  0  0  0  0  0
   40.2490   34.6960   39.6240 O   0  0  0  0  0  0  0  0  0  0  0  0
   38.7470   34.5150   41.4560 N   0  0  0  0  0  0  0  0  0  0  0  0
   38.5980   34.0090   42.3420 H   0  0  0  0  0  0  0  0  0  0  0  0
   38.3620   35.4660   41.2290 H   0  0  0  0  0  0  0  0  0  0  0  0
   41.8390   29.3960   39.5740 S   0  0  0  0  0  0  0  0  0  0  0  0
   42.2280   28.5080   41.0950 C   0  0  0  0  0  0  0  0  0  0  0  0
   43.2660   28.7710   41.3920 H   0  0  0  0  0  0  0  0  0  0  0  0
   42.2810   27.4160   40.8340 H   0  0  0  0  0  0  0  0  0  0  0  0
   41.2680   28.7400   42.2050 C   0  0  0  0  0  0  0  0  0  0  0  0
   41.8680   28.7120   43.1580 H   0  0  0  0  0  0  0  0  0  0  0  0
   40.7690   29.7270   42.0930 H   0  0  0  0  0  0  0  0  0  0  0  0
   38.5330   29.6280   43.1810 Cl  0  0  0  0  0  0  0  0  0  0  0  0
   38.8970   28.0080   42.6440 C   0  0  0  0  0  0  0  0  0  0  0  0
   40.2000   27.7100   42.2140 C   0  0  0  0  0  0  0  0  0  0  0  0
   40.4060   26.4140   41.8080 C   0  0  0  0  0  0  0  0  0  0  0  0
   39.4700   25.3920   41.7820 C   0  0  0  0  0  0  0  0  0  0  0  0
   38.2040   25.7160   42.2110 C   0  0  0  0  0  0  0  0  0  0  0  0
   36.9270   24.5020   42.2260 Cl  0  0  0  0  0  0  0  0  0  0  0  0
   37.9350   26.9990   42.6300 C   0  0  0  0  0  0  0  0  0  0  0  0
   41.4200   26.1890   41.4740 H   0  0  0  0  0  0  0  0  0  0  0  0
   39.7230   24.4030   41.4460 H   0  0  0  0  0  0  0  0  0  0  0  0
   36.9280   27.2470   42.9680 H   0  0  0  0  0  0  0  0  0  0  0  0
  1  6  1  0  0  0  0
  2  1  2  0  0  0  0
  2  3  1  0  0  0  0
  3  4  2  0  0  0  0
  4  5  1  0  0  0  0
  5 20  1  0  0  0  0
  6  5  2  0  0  0  0
  7  2  1  0  0  0  0
  8  3  1  0  0  0  0
  8  9  1  0  0  0  0
  9 10  1  0  0  0  0
 11  9  2  0  0  0  0
 12 11  1  0  0  0  0
 13 14  1  0  0  0  0
 13 12  2  0  0  0  0
 15 13  1  0  0  0  0
 16 15  2  0  0  0  0
 16 18  1  0  0  0  0
 17 16  1  0  0  0  0
 18 19  2  0  0  0  0
 19 12  1  0  0  0  0
 19  8  1  0  0  0  0
 20 22  1  0  0  0  0
 21 20  2  0  0  0  0
 22 23  1  0  0  0  0
 24 22  1  0  0  0  0
 25  1  1  0  0  0  0
 25 26  1  0  0  0  0
 26 27  1  0  0  0  0
 26 29  1  0  0  0  0
 28 26  1  0  0  0  0
 29 34  1  0  0  0  0
 29 30  1  0  0  0  0
 31 29  1  0  0  0  0
 33 32  1  0  0  0  0
 34 33  2  0  0  0  0
 35 34  1  0  0  0  0
 36 35  2  0  0  0  0
 36 37  1  0  0  0  0
 37 38  1  0  0  0  0
 37 39  2  0  0  0  0
 39 33  1  0  0  0  0
 39 42  1  0  0  0  0
 40 35  1  0  0  0  0
 41 36  1  0  0  0  0
M  END
>  <minimizedAffinity>
-6.02623129

$$$$

 OpenBabel03242515063D

 42 45  0  0  0  0  0  0  0  0999 V2000
   36.4060   25.7610   38.3870 C   0  0  0  0  0  0  0  0  0  0  0  0
   36.6140   26.6510   39.4380 C   0  0  0  0  0  0  0  0  0  0  0  0
   37.0350   26.1510   40.6840 C   0  0  0  0  0  0  0  0  0  0  0  0
   37.2130   24.8150   40.7820 N   0  0  0  0  0  0  0  0  0  0  0  0
   37.0060   23.9700   39.7520 C   0  0  0  0  0  0  0  0  0  0  0  0
   36.6080   24.4520   38.5780 N   0  0  0  0  0  0  0  0  0  0  0  0
   36.4740   27.7170   39.3660 H   0  0  0  0  0  0  0  0  0  0  0  0
   37.2530   27.0500   41.7690 N   0  0  0  0  0  0  0  0  0  0  0  0
   36.6800   27.1860   43.0000 C   0  0  0  0  0  0  0  0  0  0  0  0
   35.8860   26.5170   43.3070 H   0  0  0  0  0  0  0  0  0  0  0  0
   37.2990   28.2330   43.6220 N   0  0  0  0  0  0  0  0  0  0  0  0
   38.2420   28.7290   42.7720 C   0  0  0  0  0  0  0  0  0  0  0  0
   39.0970   29.7880   42.9960 C   0  0  0  0  0  0  0  0  0  0  0  0
   39.0950   30.3540   43.9230 H   0  0  0  0  0  0  0  0  0  0  0  0
   39.9550   30.0910   41.9790 N   0  0  0  0  0  0  0  0  0  0  0  0
   39.9530   29.3880   40.8330 C   0  0  0  0  0  0  0  0  0  0  0  0
   40.6460   29.6320   40.0120 H   0  0  0  0  0  0  0  0  0  0  0  0
   39.0970   28.3650   40.6710 N   0  0  0  0  0  0  0  0  0  0  0  0
   38.2110   27.9850   41.6100 C   0  0  0  0  0  0  0  0  0  0  0  0
   37.2350   22.5620   39.9940 C   0  0  0  0  0  0  0  0  0  0  0  0
   36.5360   21.7290   39.3550 O   0  0  0  0  0  0  0  0  0  0  0  0
   38.2400   22.1960   40.9450 N   0  0  0  0  0  0  0  0  0  0  0  0
   38.4280   22.7300   41.8060 H   0  0  0  0  0  0  0  0  0  0  0  0
   38.7490   21.3270   40.6480 H   0  0  0  0  0  0  0  0  0  0  0  0
   35.8720   26.4790   36.8410 S   0  0  0  0  0  0  0  0  0  0  0  0
   36.3620   28.2060   36.6660 C   0  0  0  0  0  0  0  0  0  0  0  0
   36.4760   28.4240   35.5830 H   0  0  0  0  0  0  0  0  0  0  0  0
   37.4030   28.2960   37.0810 H   0  0  0  0  0  0  0  0  0  0  0  0
   35.4460   29.1740   37.3250 C   0  0  0  0  0  0  0  0  0  0  0  0
   34.9030   29.7130   36.4980 H   0  0  0  0  0  0  0  0  0  0  0  0
   34.7210   28.6440   37.9800 H   0  0  0  0  0  0  0  0  0  0  0  0
   34.6630   29.2660   40.2570 Cl  0  0  0  0  0  0  0  0  0  0  0  0
   35.9200   30.2500   39.5530 C   0  0  0  0  0  0  0  0  0  0  0  0
   36.1960   30.1230   38.1820 C   0  0  0  0  0  0  0  0  0  0  0  0
   37.1980   30.9340   37.7050 C   0  0  0  0  0  0  0  0  0  0  0  0
   37.9480   31.8450   38.4320 C   0  0  0  0  0  0  0  0  0  0  0  0
   37.6520   31.9450   39.7710 C   0  0  0  0  0  0  0  0  0  0  0  0
   38.5370   33.0700   40.8000 Cl  0  0  0  0  0  0  0  0  0  0  0  0
   36.6590   31.1600   40.3090 C   0  0  0  0  0  0  0  0  0  0  0  0
   37.4090   30.8300   36.6390 H   0  0  0  0  0  0  0  0  0  0  0  0
   38.7170   32.4380   37.9710 H   0  0  0  0  0  0  0  0  0  0  0  0
   36.4300   31.2460   41.3720 H   0  0  0  0  0  0  0  0  0  0  0  0
  1  6  2  0  0  0  0
  1  2  1  0  0  0  0
  2  3  2  0  0  0  0
  3  4  1  0  0  0  0
  3  8  1  0  0  0  0
  5 20  1  0  0  0  0
  5  4  2  0  0  0  0
  6  5  1  0  0  0  0
  7  2  1  0  0  0  0
  8  9  1  0  0  0  0
  9 10  1  0  0  0  0
  9 11  2  0  0  0  0
 12 13  1  0  0  0  0
 12 11  1  0  0  0  0
 13 14  1  0  0  0  0
 15 13  2  0  0  0  0
 16 15  1  0  0  0  0
 17 16  1  0  0  0  0
 18 16  2  0  0  0  0
 18 19  1  0  0  0  0
 19  8  1  0  0  0  0
 19 12  2  0  0  0  0
 20 22  1  0  0  0  0
 21 20  2  0  0  0  0
 22 23  1  0  0  0  0
 24 22  1  0  0  0  0
 25  1  1  0  0  0  0
 26 25  1  0  0  0  0
 26 28  1  0  0  0  0
 26 29  1  0  0  0  0
 27 26  1  0  0  0  0
 29 31  1  0  0  0  0
 29 34  1  0  0  0  0
 30 29  1  0  0  0  0
 33 32  1  0  0  0  0
 33 39  1  0  0  0  0
 34 33  2  0  0  0  0
 35 34  1  0  0  0  0
 35 36  2  0  0  0  0
 36 37  1  0  0  0  0
 37 39  2  0  0  0  0
 37 38  1  0  0  0  0
 39 42  1  0  0  0  0
 40 35  1  0  0  0  0
 41 36  1  0  0  0  0
M  END
>  <minimizedAffinity>
-6.01671553

$$$$
