
 OpenBabel03252507313D

 52 56  0  0  1  0  0  0  0  0999 V2000
   47.0650   32.4570   45.3220 C   0  0  0  0  0  0  0  0  0  0  0  0
   46.0100   33.1360   45.9110 C   0  0  0  0  0  0  0  0  0  0  0  0
   45.3730   34.1860   45.2100 C   0  0  0  0  0  0  0  0  0  0  0  0
   45.8700   34.4720   43.9400 N   0  0  0  0  0  0  0  0  0  0  0  0
   46.8930   33.7800   43.4300 C   0  0  0  0  0  0  0  0  0  0  0  0
   47.4810   32.7910   44.1050 N   0  0  0  0  0  0  0  0  0  0  0  0
   45.5040   33.1130   46.8530 H   0  0  0  0  0  0  0  0  0  0  0  0
   44.5630   34.8040   45.4960 H   0  0  0  0  0  0  0  0  0  0  0  0
   47.3820   34.1440   42.0960 C   0  0  0  0  0  0  0  0  0  0  0  0
   48.2650   35.1850   41.9250 C   0  0  0  0  0  0  0  0  0  0  0  0
   48.7810   35.6000   40.7150 C   0  0  0  0  0  0  0  0  0  0  0  0
   48.3380   34.8760   39.6370 C   0  0  0  0  0  0  0  0  0  0  0  0
   47.4420   33.8150   39.7810 C   0  0  0  0  0  0  0  0  0  0  0  0
   46.9720   33.4590   41.0170 N   0  0  0  0  0  0  0  0  0  0  0  0
   48.5700   35.7120   42.8340 H   0  0  0  0  0  0  0  0  0  0  0  0
   49.4690   36.4140   40.5980 H   0  0  0  0  0  0  0  0  0  0  0  0
   48.6630   35.0950   38.6290 H   0  0  0  0  0  0  0  0  0  0  0  0
   47.0170   33.0990   38.6250 N   0  0  0  0  0  0  0  0  0  0  0  0
   45.9180   33.1990   37.8250 C   0  0  0  0  0  0  0  0  0  0  0  0
   45.1540   33.9400   38.0210 H   0  0  0  0  0  0  0  0  0  0  0  0
   46.0010   32.2670   36.8490 N   0  0  0  0  0  0  0  0  0  0  0  0
   47.1450   31.5640   37.0110 C   0  0  0  0  0  0  0  0  0  0  0  0
   47.6960   30.5130   36.2900 C   0  0  0  0  0  0  0  0  0  0  0  0
   47.1840   30.1120   35.4150 H   0  0  0  0  0  0  0  0  0  0  0  0
   48.8700   29.9730   36.6590 N   0  0  0  0  0  0  0  0  0  0  0  0
   49.4700   30.5110   37.7600 C   0  0  0  0  0  0  0  0  0  0  0  0
   50.4330   30.1500   38.1540 H   0  0  0  0  0  0  0  0  0  0  0  0
   48.9720   31.5300   38.4890 N   0  0  0  0  0  0  0  0  0  0  0  0
   47.7930   32.0880   38.1350 C   0  0  0  0  0  0  0  0  0  0  0  0
   47.6670   31.3730   46.0720 C   0  0  2  0  0  0  0  0  0  0  0  0
   47.2690   29.9850   45.4940 C   0  0  0  0  0  0  0  0  0  0  0  0
   48.0370   28.9160   46.1930 C   0  0  0  0  0  0  0  0  0  0  0  0
   48.1240   29.0400   47.6770 C   0  0  0  0  0  0  0  0  0  0  0  0
   48.2700   30.3950   48.1550 C   0  0  0  0  0  0  0  0  0  0  0  0
   47.3110   31.3990   47.4760 C   0  0  2  0  0  0  0  0  0  0  0  0
   48.7620   31.3970   45.8950 H   0  0  0  0  0  0  0  0  0  0  0  0
   46.2000   29.8010   45.5640 H   0  0  0  0  0  0  0  0  0  0  0  0
   47.5360   29.9980   44.4180 H   0  0  0  0  0  0  0  0  0  0  0  0
   48.9940   28.8190   45.6450 H   0  0  0  0  0  0  0  0  0  0  0  0
   47.5100   27.9390   45.9860 H   0  0  0  0  0  0  0  0  0  0  0  0
   47.7160   28.2370   48.2880 H   0  0  0  0  0  0  0  0  0  0  0  0
   49.2210   28.6760   47.8220 H   0  0  0  0  0  0  0  0  0  0  0  0
   49.2690   30.8880   48.0700 H   0  0  0  0  0  0  0  0  0  0  0  0
   48.0310   30.4770   49.2510 H   0  0  0  0  0  0  0  0  0  0  0  0
   47.5430   32.3100   48.0280 H   0  0  0  0  0  0  0  0  0  0  0  0
   45.9370   30.9250   47.6530 N   0  0  0  0  0  0  0  0  0  0  0  0
   45.2100   30.5770   48.8040 C   0  0  0  0  0  0  0  0  0  0  0  0
   44.7130   31.4480   49.6070 O   0  0  0  0  0  0  0  0  0  0  0  0
   45.0570   29.1720   49.0110 N   0  0  0  0  0  0  0  0  0  0  0  0
   45.2920   30.7110   46.8030 H   0  0  0  0  0  0  0  0  0  0  0  0
   44.7060   28.4440   48.3640 H   0  0  0  0  0  0  0  0  0  0  0  0
   45.3200   28.7400   49.9300 H   0  0  0  0  0  0  0  0  0  0  0  0
  1  2  1  0  0  0  0
  1 30  1  0  0  0  0
  2  7  1  0  0  0  0
  3  8  1  0  0  0  0
  3  2  2  0  0  0  0
  4  3  1  0  0  0  0
  5  4  2  0  0  0  0
  5  6  1  0  0  0  0
  6  1  2  0  0  0  0
  9  5  1  0  0  0  0
 10  9  1  0  0  0  0
 10 15  1  0  0  0  0
 11 10  2  0  0  0  0
 12 13  2  0  0  0  0
 12 11  1  0  0  0  0
 13 14  1  0  0  0  0
 14  9  2  0  0  0  0
 16 11  1  0  0  0  0
 17 12  1  0  0  0  0
 18 13  1  0  0  0  0
 19 20  1  0  0  0  0
 19 18  1  0  0  0  0
 21 22  1  0  0  0  0
 21 19  2  0  0  0  0
 22 29  1  0  0  0  0
 23 25  1  0  0  0  0
 23 22  2  0  0  0  0
 24 23  1  0  0  0  0
 25 26  2  0  0  0  0
 26 27  1  0  0  0  0
 26 28  1  0  0  0  0
 29 28  2  0  0  0  0
 29 18  1  0  0  0  0
 30 36  1  6  0  0  0
 30 35  1  0  0  0  0
 31 37  1  0  0  0  0
 31 30  1  0  0  0  0
 31 32  1  0  0  0  0
 32 33  1  0  0  0  0
 33 42  1  0  0  0  0
 33 34  1  0  0  0  0
 33 41  1  0  0  0  0
 34 44  1  0  0  0  0
 35 46  1  0  0  0  0
 35 45  1  1  0  0  0
 35 34  1  0  0  0  0
 38 31  1  0  0  0  0
 39 32  1  0  0  0  0
 40 32  1  0  0  0  0
 43 34  1  0  0  0  0
 46 47  1  0  0  0  0
 47 49  1  0  0  0  0
 47 48  2  0  0  0  0
 49 52  1  0  0  0  0
 50 46  1  0  0  0  0
 51 49  1  0  0  0  0
M  END
>  <minimizedAffinity>
-6.69557858

>  <minimizedRMSD>
0.568080068

$$$$
