
 OpenBabel03242515583D

 40 44  0  0  0  0  0  0  0  0999 V2000
   36.9490   26.5190   39.7650 C   0  0  0  0  0  0  0  0  0  0  0  0
   36.7820   25.1160   39.8760 C   0  0  0  0  0  0  0  0  0  0  0  0
   36.7620   24.4410   41.0730 C   0  0  0  0  0  0  0  0  0  0  0  0
   36.9060   25.1120   42.2360 C   0  0  0  0  0  0  0  0  0  0  0  0
   37.0750   26.4910   42.1930 C   0  0  0  0  0  0  0  0  0  0  0  0
   37.2200   27.1230   43.3900 C   0  0  0  0  0  0  0  0  0  0  0  0
   37.3990   28.4920   43.4160 C   0  0  0  0  0  0  0  0  0  0  0  0
   37.4210   29.1430   42.1870 C   0  0  0  0  0  0  0  0  0  0  0  0
   37.2700   28.4380   41.0490 C   0  0  0  0  0  0  0  0  0  0  0  0
   37.0910   27.1280   40.9740 C   0  0  0  0  0  0  0  0  0  0  0  0
   36.6630   24.5320   38.9740 H   0  0  0  0  0  0  0  0  0  0  0  0
   36.6310   23.3730   41.0750 H   0  0  0  0  0  0  0  0  0  0  0  0
   36.8850   24.5570   43.1520 H   0  0  0  0  0  0  0  0  0  0  0  0
   37.1900   26.5160   44.3240 H   0  0  0  0  0  0  0  0  0  0  0  0
   37.5010   28.8720   44.4480 H   0  0  0  0  0  0  0  0  0  0  0  0
   37.5730   30.1580   42.5220 H   0  0  0  0  0  0  0  0  0  0  0  0
   38.3100   27.6760   36.6430 C   0  0  0  0  0  0  0  0  0  0  0  0
   37.1700   28.2820   36.0210 C   0  0  0  0  0  0  0  0  0  0  0  0
   35.9130   28.3090   36.6950 C   0  0  0  0  0  0  0  0  0  0  0  0
   35.8690   27.7480   37.9060 N   0  0  0  0  0  0  0  0  0  0  0  0
   36.8990   27.1890   38.4860 C   0  0  0  0  0  0  0  0  0  0  0  0
   38.1140   27.1570   37.8510 N   0  0  0  0  0  0  0  0  0  0  0  0
   39.2430   27.6730   36.1070 H   0  0  0  0  0  0  0  0  0  0  0  0
   35.2040   28.7840   36.0810 H   0  0  0  0  0  0  0  0  0  0  0  0
   37.3930   28.8370   34.7250 N   0  0  0  0  0  0  0  0  0  0  0  0
   37.7300   29.8200   34.6420 H   0  0  0  0  0  0  0  0  0  0  0  0
   37.1260   28.0020   34.1430 H   0  0  0  0  0  0  0  0  0  0  0  0
   37.3470   29.3310   40.0250 O   0  0  0  0  0  0  0  0  0  0  0  0
   37.2730   32.1870   40.0770 H   0  0  0  0  0  0  0  0  0  0  0  0
   38.0910   31.5620   39.9000 N   0  0  0  0  0  0  0  0  0  0  0  0
   38.3900   30.2550   39.8150 C   0  0  0  0  0  0  0  0  0  0  0  0
   39.6760   30.2680   39.5360 N   0  0  0  0  0  0  0  0  0  0  0  0
   40.2180   31.4560   39.4360 C   0  0  0  0  0  0  0  0  0  0  0  0
   41.5300   31.7900   39.1550 C   0  0  0  0  0  0  0  0  0  0  0  0
   42.2730   31.0210   38.9810 H   0  0  0  0  0  0  0  0  0  0  0  0
   41.8350   33.1130   39.1080 N   0  0  0  0  0  0  0  0  0  0  0  0
   40.8100   33.9830   39.3450 C   0  0  0  0  0  0  0  0  0  0  0  0
   41.0530   35.0580   39.3080 H   0  0  0  0  0  0  0  0  0  0  0  0
   39.5510   33.6140   39.6130 N   0  0  0  0  0  0  0  0  0  0  0  0
   39.1770   32.3200   39.6760 C   0  0  0  0  0  0  0  0  0  0  0  0
  1  2  2  0  0  0  0
  1 10  1  0  0  0  0
  2  3  1  0  0  0  0
  3 12  1  0  0  0  0
  3  4  2  0  0  0  0
  4 13  1  0  0  0  0
  5  4  1  0  0  0  0
  5  6  1  0  0  0  0
  6  7  2  0  0  0  0
  6 14  1  0  0  0  0
  7 15  1  0  0  0  0
  8 16  1  0  0  0  0
  8  7  1  0  0  0  0
  9  8  2  0  0  0  0
 10  9  1  0  0  0  0
 10  5  2  0  0  0  0
 11  2  1  0  0  0  0
 17 22  1  0  0  0  0
 18 17  2  0  0  0  0
 18 19  1  0  0  0  0
 19 20  2  0  0  0  0
 20 21  1  0  0  0  0
 21  1  1  0  0  0  0
 22 21  2  0  0  0  0
 23 17  1  0  0  0  0
 24 19  1  0  0  0  0
 25 18  1  0  0  0  0
 26 25  1  0  0  0  0
 27 25  1  0  0  0  0
 28  9  1  0  0  0  0
 30 29  1  0  0  0  0
 31 30  1  0  0  0  0
 31 28  1  0  0  0  0
 32 31  2  0  0  0  0
 33 32  1  0  0  0  0
 33 40  1  0  0  0  0
 34 33  2  0  0  0  0
 35 34  1  0  0  0  0
 36 34  1  0  0  0  0
 36 37  2  0  0  0  0
 37 39  1  0  0  0  0
 38 37  1  0  0  0  0
 39 40  2  0  0  0  0
 40 30  1  0  0  0  0
M  END
>  <minimizedAffinity>
-6.50320816

$$$$

 OpenBabel03242515583D

 40 44  0  0  0  0  0  0  0  0999 V2000
   36.8510   26.9990   39.8210 C   0  0  0  0  0  0  0  0  0  0  0  0
   36.8000   25.5850   39.7430 C   0  0  0  0  0  0  0  0  0  0  0  0
   36.9170   24.7550   40.8330 C   0  0  0  0  0  0  0  0  0  0  0  0
   37.0910   25.2730   42.0670 C   0  0  0  0  0  0  0  0  0  0  0  0
   37.1500   26.6550   42.2080 C   0  0  0  0  0  0  0  0  0  0  0  0
   37.3290   27.1290   43.4720 C   0  0  0  0  0  0  0  0  0  0  0  0
   37.4040   28.4920   43.6800 C   0  0  0  0  0  0  0  0  0  0  0  0
   37.2890   29.3030   42.5550 C   0  0  0  0  0  0  0  0  0  0  0  0
   37.1130   28.7470   41.3400 C   0  0  0  0  0  0  0  0  0  0  0  0
   37.0310   27.4490   41.0930 C   0  0  0  0  0  0  0  0  0  0  0  0
   36.6620   25.1200   38.7770 H   0  0  0  0  0  0  0  0  0  0  0  0
   36.8680   23.6900   40.6920 H   0  0  0  0  0  0  0  0  0  0  0  0
   37.1760   24.6000   42.8960 H   0  0  0  0  0  0  0  0  0  0  0  0
   37.4120   26.4010   44.3110 H   0  0  0  0  0  0  0  0  0  0  0  0
   37.5490   28.7360   44.7470 H   0  0  0  0  0  0  0  0  0  0  0  0
   37.3860   30.2720   43.0200 H   0  0  0  0  0  0  0  0  0  0  0  0
   37.9020   28.7020   36.8320 C   0  0  0  0  0  0  0  0  0  0  0  0
   36.6740   29.2700   36.3590 C   0  0  0  0  0  0  0  0  0  0  0  0
   35.4640   29.0780   37.0900 C   0  0  0  0  0  0  0  0  0  0  0  0
   35.5480   28.3550   38.2100 N   0  0  0  0  0  0  0  0  0  0  0  0
   36.6590   27.8290   38.6540 C   0  0  0  0  0  0  0  0  0  0  0  0
   37.8300   28.0070   37.9620 N   0  0  0  0  0  0  0  0  0  0  0  0
   38.7960   28.8660   36.2560 H   0  0  0  0  0  0  0  0  0  0  0  0
   34.6770   29.5590   36.5840 H   0  0  0  0  0  0  0  0  0  0  0  0
   36.7630   30.0160   35.1450 N   0  0  0  0  0  0  0  0  0  0  0  0
   37.0010   31.0300   35.1860 H   0  0  0  0  0  0  0  0  0  0  0  0
   36.5390   29.2460   34.4640 H   0  0  0  0  0  0  0  0  0  0  0  0
   37.0490   29.7740   40.4490 O   0  0  0  0  0  0  0  0  0  0  0  0
   39.6740   29.6160   39.3310 H   0  0  0  0  0  0  0  0  0  0  0  0
   39.1850   30.4510   39.7250 N   0  0  0  0  0  0  0  0  0  0  0  0
   38.0140   30.7880   40.2910 C   0  0  0  0  0  0  0  0  0  0  0  0
   38.1690   32.0710   40.5380 N   0  0  0  0  0  0  0  0  0  0  0  0
   39.3230   32.5780   40.1820 C   0  0  0  0  0  0  0  0  0  0  0  0
   39.7760   33.8780   40.3100 C   0  0  0  0  0  0  0  0  0  0  0  0
   39.1500   34.6430   40.7550 H   0  0  0  0  0  0  0  0  0  0  0  0
   41.0280   34.1440   39.8570 N   0  0  0  0  0  0  0  0  0  0  0  0
   41.7170   33.0950   39.3170 C   0  0  0  0  0  0  0  0  0  0  0  0
   42.7340   33.3060   38.9480 H   0  0  0  0  0  0  0  0  0  0  0  0
   41.2370   31.8490   39.2140 N   0  0  0  0  0  0  0  0  0  0  0  0
   40.0030   31.5130   39.6430 C   0  0  0  0  0  0  0  0  0  0  0  0
  1 10  1  0  0  0  0
  2  1  2  0  0  0  0
  2  3  1  0  0  0  0
  3  4  2  0  0  0  0
  4  5  1  0  0  0  0
  4 13  1  0  0  0  0
  5  6  1  0  0  0  0
  6  7  2  0  0  0  0
  6 14  1  0  0  0  0
  7 15  1  0  0  0  0
  8 16  1  0  0  0  0
  8  7  1  0  0  0  0
  9  8  2  0  0  0  0
 10  9  1  0  0  0  0
 10  5  2  0  0  0  0
 11  2  1  0  0  0  0
 12  3  1  0  0  0  0
 17 22  1  0  0  0  0
 18 17  2  0  0  0  0
 18 19  1  0  0  0  0
 19 20  2  0  0  0  0
 20 21  1  0  0  0  0
 21  1  1  0  0  0  0
 22 21  2  0  0  0  0
 23 17  1  0  0  0  0
 24 19  1  0  0  0  0
 25 26  1  0  0  0  0
 25 18  1  0  0  0  0
 27 25  1  0  0  0  0
 28  9  1  0  0  0  0
 29 30  1  0  0  0  0
 30 31  1  0  0  0  0
 31 28  1  0  0  0  0
 31 32  2  0  0  0  0
 33 34  1  0  0  0  0
 33 32  1  0  0  0  0
 34 35  1  0  0  0  0
 36 34  2  0  0  0  0
 37 36  1  0  0  0  0
 38 37  1  0  0  0  0
 39 37  2  0  0  0  0
 39 40  1  0  0  0  0
 40 30  1  0  0  0  0
 40 33  2  0  0  0  0
M  END
>  <minimizedAffinity>
-6.45747709

$$$$

 OpenBabel03242515583D

 40 44  0  0  0  0  0  0  0  0999 V2000
   37.8200   29.1680   41.1240 C   0  0  0  0  0  0  0  0  0  0  0  0
   38.1480   29.5780   42.4410 C   0  0  0  0  0  0  0  0  0  0  0  0
   38.1060   28.7440   43.5330 C   0  0  0  0  0  0  0  0  0  0  0  0
   37.7390   27.4530   43.3900 C   0  0  0  0  0  0  0  0  0  0  0  0
   37.4040   26.9910   42.1220 C   0  0  0  0  0  0  0  0  0  0  0  0
   37.0370   25.6830   42.0290 C   0  0  0  0  0  0  0  0  0  0  0  0
   36.6850   25.1640   40.7990 C   0  0  0  0  0  0  0  0  0  0  0  0
   36.7310   26.0370   39.7160 C   0  0  0  0  0  0  0  0  0  0  0  0
   37.1070   27.3180   39.8990 C   0  0  0  0  0  0  0  0  0  0  0  0
   37.4570   27.8580   41.0560 C   0  0  0  0  0  0  0  0  0  0  0  0
   38.4480   30.6020   42.6090 H   0  0  0  0  0  0  0  0  0  0  0  0
   38.3690   29.1300   44.5020 H   0  0  0  0  0  0  0  0  0  0  0  0
   37.7180   26.8280   44.2600 H   0  0  0  0  0  0  0  0  0  0  0  0
   37.0290   25.0620   42.9530 H   0  0  0  0  0  0  0  0  0  0  0  0
   36.4120   24.0970   40.8680 H   0  0  0  0  0  0  0  0  0  0  0  0
   36.4140   25.3680   38.9310 H   0  0  0  0  0  0  0  0  0  0  0  0
   39.4670   30.5970   38.2630 C   0  0  0  0  0  0  0  0  0  0  0  0
   38.4910   31.5330   37.7880 C   0  0  0  0  0  0  0  0  0  0  0  0
   37.2500   31.6880   38.4740 C   0  0  0  0  0  0  0  0  0  0  0  0
   37.0620   30.9270   39.5540 N   0  0  0  0  0  0  0  0  0  0  0  0
   37.9410   30.0670   39.9990 C   0  0  0  0  0  0  0  0  0  0  0  0
   39.1380   29.9080   39.3510 N   0  0  0  0  0  0  0  0  0  0  0  0
   40.3920   30.5040   37.7210 H   0  0  0  0  0  0  0  0  0  0  0  0
   36.6690   32.4090   37.9740 H   0  0  0  0  0  0  0  0  0  0  0  0
   38.8550   32.2680   36.6190 N   0  0  0  0  0  0  0  0  0  0  0  0
   39.3890   33.1570   36.7220 H   0  0  0  0  0  0  0  0  0  0  0  0
   38.4360   31.6340   35.8920 H   0  0  0  0  0  0  0  0  0  0  0  0
   37.0430   27.9200   38.6800 O   0  0  0  0  0  0  0  0  0  0  0  0
   36.6420   28.4790   35.9070 H   0  0  0  0  0  0  0  0  0  0  0  0
   35.9410   28.4950   36.6810 N   0  0  0  0  0  0  0  0  0  0  0  0
   35.8630   28.2910   38.0070 C   0  0  0  0  0  0  0  0  0  0  0  0
   34.5950   28.5300   38.2640 N   0  0  0  0  0  0  0  0  0  0  0  0
   33.8640   28.8650   37.2300 C   0  0  0  0  0  0  0  0  0  0  0  0
   32.5170   29.1730   37.1830 C   0  0  0  0  0  0  0  0  0  0  0  0
   31.9130   29.1580   38.0830 H   0  0  0  0  0  0  0  0  0  0  0  0
   31.9970   29.4920   35.9700 N   0  0  0  0  0  0  0  0  0  0  0  0
   32.8620   29.4750   34.9130 C   0  0  0  0  0  0  0  0  0  0  0  0
   32.4440   29.7330   33.9260 H   0  0  0  0  0  0  0  0  0  0  0  0
   34.1630   29.1700   35.0050 N   0  0  0  0  0  0  0  0  0  0  0  0
   34.7460   28.8450   36.1770 C   0  0  0  0  0  0  0  0  0  0  0  0
  1  2  1  0  0  0  0
  2 11  1  0  0  0  0
  2  3  2  0  0  0  0
  3 12  1  0  0  0  0
  4  3  1  0  0  0  0
  4 13  1  0  0  0  0
  5  4  2  0  0  0  0
  6  5  1  0  0  0  0
  6 14  1  0  0  0  0
  7 15  1  0  0  0  0
  7  6  2  0  0  0  0
  8  9  2  0  0  0  0
  8  7  1  0  0  0  0
  9 10  1  0  0  0  0
 10  1  2  0  0  0  0
 10  5  1  0  0  0  0
 16  8  1  0  0  0  0
 17 22  1  0  0  0  0
 18 17  2  0  0  0  0
 18 19  1  0  0  0  0
 19 20  2  0  0  0  0
 20 21  1  0  0  0  0
 21  1  1  0  0  0  0
 22 21  2  0  0  0  0
 23 17  1  0  0  0  0
 24 19  1  0  0  0  0
 25 26  1  0  0  0  0
 25 18  1  0  0  0  0
 27 25  1  0  0  0  0
 28  9  1  0  0  0  0
 29 30  1  0  0  0  0
 30 31  1  0  0  0  0
 31 32  2  0  0  0  0
 31 28  1  0  0  0  0
 33 32  1  0  0  0  0
 34 33  1  0  0  0  0
 34 35  1  0  0  0  0
 36 34  2  0  0  0  0
 37 39  2  0  0  0  0
 37 36  1  0  0  0  0
 38 37  1  0  0  0  0
 39 40  1  0  0  0  0
 40 30  1  0  0  0  0
 40 33  2  0  0  0  0
M  END
>  <minimizedAffinity>
-6.45003843

$$$$

 OpenBabel03242515583D

 40 44  0  0  0  0  0  0  0  0999 V2000
   36.4320   27.4070   39.6040 C   0  0  0  0  0  0  0  0  0  0  0  0
   35.8690   26.9780   38.3760 C   0  0  0  0  0  0  0  0  0  0  0  0
   35.7150   25.6570   38.0280 C   0  0  0  0  0  0  0  0  0  0  0  0
   36.1060   24.6790   38.8720 C   0  0  0  0  0  0  0  0  0  0  0  0
   36.6670   25.0380   40.0930 C   0  0  0  0  0  0  0  0  0  0  0  0
   37.0490   24.0170   40.9090 C   0  0  0  0  0  0  0  0  0  0  0  0
   37.6190   24.3060   42.1320 C   0  0  0  0  0  0  0  0  0  0  0  0
   37.7680   25.6520   42.4510 C   0  0  0  0  0  0  0  0  0  0  0  0
   37.3610   26.5980   41.5820 C   0  0  0  0  0  0  0  0  0  0  0  0
   36.8060   26.3700   40.4020 C   0  0  0  0  0  0  0  0  0  0  0  0
   35.5400   27.7210   37.6640 H   0  0  0  0  0  0  0  0  0  0  0  0
   35.2790   25.4100   37.0760 H   0  0  0  0  0  0  0  0  0  0  0  0
   35.9700   23.6600   38.5720 H   0  0  0  0  0  0  0  0  0  0  0  0
   36.8910   22.9690   40.5670 H   0  0  0  0  0  0  0  0  0  0  0  0
   37.8790   23.3880   42.6900 H   0  0  0  0  0  0  0  0  0  0  0  0
   38.2250   25.5590   43.4240 H   0  0  0  0  0  0  0  0  0  0  0  0
   37.7900   30.7320   39.4080 C   0  0  0  0  0  0  0  0  0  0  0  0
   36.9290   31.4640   40.2880 C   0  0  0  0  0  0  0  0  0  0  0  0
   35.8700   30.7990   40.9750 C   0  0  0  0  0  0  0  0  0  0  0  0
   35.7380   29.4900   40.7510 N   0  0  0  0  0  0  0  0  0  0  0  0
   36.5150   28.8080   39.9500 C   0  0  0  0  0  0  0  0  0  0  0  0
   37.5360   29.4340   39.2830 N   0  0  0  0  0  0  0  0  0  0  0  0
   38.5780   31.2650   38.9040 H   0  0  0  0  0  0  0  0  0  0  0  0
   35.3490   31.4990   41.5630 H   0  0  0  0  0  0  0  0  0  0  0  0
   37.2110   32.8580   40.4150 N   0  0  0  0  0  0  0  0  0  0  0  0
   37.9030   33.1750   41.1270 H   0  0  0  0  0  0  0  0  0  0  0  0
   36.5690   33.2220   39.6660 H   0  0  0  0  0  0  0  0  0  0  0  0
   37.6430   27.8000   42.1560 O   0  0  0  0  0  0  0  0  0  0  0  0
   38.5210   30.5170   42.2710 H   0  0  0  0  0  0  0  0  0  0  0  0
   39.0820   29.6460   42.4080 N   0  0  0  0  0  0  0  0  0  0  0  0
   38.9330   28.3110   42.4030 C   0  0  0  0  0  0  0  0  0  0  0  0
   40.1510   27.8810   42.6490 N   0  0  0  0  0  0  0  0  0  0  0  0
   41.0570   28.8140   42.8100 C   0  0  0  0  0  0  0  0  0  0  0  0
   42.4060   28.6770   43.0770 C   0  0  0  0  0  0  0  0  0  0  0  0
   42.8540   27.6960   43.1820 H   0  0  0  0  0  0  0  0  0  0  0  0
   43.1320   29.8180   43.1970 N   0  0  0  0  0  0  0  0  0  0  0  0
   42.4520   30.9920   43.0430 C   0  0  0  0  0  0  0  0  0  0  0  0
   43.0360   31.9220   43.1410 H   0  0  0  0  0  0  0  0  0  0  0  0
   41.1400   31.0780   42.7850 N   0  0  0  0  0  0  0  0  0  0  0  0
   40.3580   29.9870   42.6520 C   0  0  0  0  0  0  0  0  0  0  0  0
  1 21  1  0  0  0  0
  1 10  1  0  0  0  0
  2  1  2  0  0  0  0
  3  2  1  0  0  0  0
  3  4  2  0  0  0  0
  4  5  1  0  0  0  0
  5 10  2  0  0  0  0
  5  6  1  0  0  0  0
  6  7  2  0  0  0  0
  7  8  1  0  0  0  0
  7 15  1  0  0  0  0
  8 16  1  0  0  0  0
  9 28  1  0  0  0  0
  9  8  2  0  0  0  0
 10  9  1  0  0  0  0
 11  2  1  0  0  0  0
 12  3  1  0  0  0  0
 13  4  1  0  0  0  0
 14  6  1  0  0  0  0
 17 18  1  0  0  0  0
 18 25  1  0  0  0  0
 18 19  2  0  0  0  0
 19 24  1  0  0  0  0
 20 19  1  0  0  0  0
 21 20  2  0  0  0  0
 22 17  2  0  0  0  0
 22 21  1  0  0  0  0
 23 17  1  0  0  0  0
 25 26  1  0  0  0  0
 27 25  1  0  0  0  0
 28 31  1  0  0  0  0
 29 30  1  0  0  0  0
 30 40  1  0  0  0  0
 31 30  1  0  0  0  0
 31 32  2  0  0  0  0
 32 33  1  0  0  0  0
 33 34  1  0  0  0  0
 34 35  1  0  0  0  0
 34 36  2  0  0  0  0
 37 38  1  0  0  0  0
 37 36  1  0  0  0  0
 39 37  2  0  0  0  0
 40 39  1  0  0  0  0
 40 33  2  0  0  0  0
M  END
>  <minimizedAffinity>
-6.40004396

$$$$

 OpenBabel03242515583D

 40 44  0  0  0  0  0  0  0  0999 V2000
   38.4050   27.8250   42.2270 C   0  0  0  0  0  0  0  0  0  0  0  0
   39.4390   27.8170   43.1960 C   0  0  0  0  0  0  0  0  0  0  0  0
   40.0230   26.6710   43.6790 C   0  0  0  0  0  0  0  0  0  0  0  0
   39.6210   25.4610   43.2350 C   0  0  0  0  0  0  0  0  0  0  0  0
   38.6080   25.4040   42.2840 C   0  0  0  0  0  0  0  0  0  0  0  0
   38.2340   24.1620   41.8690 C   0  0  0  0  0  0  0  0  0  0  0  0
   37.2280   24.0350   40.9320 C   0  0  0  0  0  0  0  0  0  0  0  0
   36.6530   25.2140   40.4690 C   0  0  0  0  0  0  0  0  0  0  0  0
   37.0860   26.4020   40.9350 C   0  0  0  0  0  0  0  0  0  0  0  0
   38.0480   26.5740   41.8280 C   0  0  0  0  0  0  0  0  0  0  0  0
   39.7980   28.7600   43.5850 H   0  0  0  0  0  0  0  0  0  0  0  0
   40.8040   26.7470   44.4150 H   0  0  0  0  0  0  0  0  0  0  0  0
   40.0980   24.5870   43.6300 H   0  0  0  0  0  0  0  0  0  0  0  0
   38.7520   23.2740   42.2990 H   0  0  0  0  0  0  0  0  0  0  0  0
   37.0280   22.9770   40.6860 H   0  0  0  0  0  0  0  0  0  0  0  0
   35.9300   24.8050   39.7800 H   0  0  0  0  0  0  0  0  0  0  0  0
   38.4390   30.7760   40.1700 C   0  0  0  0  0  0  0  0  0  0  0  0
   37.1610   31.3600   40.4560 C   0  0  0  0  0  0  0  0  0  0  0  0
   36.2780   30.7360   41.3850 C   0  0  0  0  0  0  0  0  0  0  0  0
   36.7050   29.6060   41.9550 N   0  0  0  0  0  0  0  0  0  0  0  0
   37.8670   29.0600   41.7040 C   0  0  0  0  0  0  0  0  0  0  0  0
   38.7260   29.6490   40.8130 N   0  0  0  0  0  0  0  0  0  0  0  0
   39.0810   31.2720   39.4630 H   0  0  0  0  0  0  0  0  0  0  0  0
   35.3950   31.3040   41.4540 H   0  0  0  0  0  0  0  0  0  0  0  0
   36.8640   32.5700   39.7600 N   0  0  0  0  0  0  0  0  0  0  0  0
   37.1640   33.4800   40.1690 H   0  0  0  0  0  0  0  0  0  0  0  0
   36.3650   32.1610   38.9280 H   0  0  0  0  0  0  0  0  0  0  0  0
   36.3390   27.3580   40.3170 O   0  0  0  0  0  0  0  0  0  0  0  0
   37.8920   28.8510   38.4400 H   0  0  0  0  0  0  0  0  0  0  0  0
   37.0480   28.2620   38.2620 N   0  0  0  0  0  0  0  0  0  0  0  0
   36.1660   27.4960   38.9260 C   0  0  0  0  0  0  0  0  0  0  0  0
   35.3550   27.0920   37.9720 N   0  0  0  0  0  0  0  0  0  0  0  0
   35.6390   27.5280   36.7690 C   0  0  0  0  0  0  0  0  0  0  0  0
   34.9810   27.2800   35.5790 C   0  0  0  0  0  0  0  0  0  0  0  0
   34.1010   26.6490   35.5530 H   0  0  0  0  0  0  0  0  0  0  0  0
   35.4860   27.8620   34.4610 N   0  0  0  0  0  0  0  0  0  0  0  0
   36.5990   28.6350   34.6250 C   0  0  0  0  0  0  0  0  0  0  0  0
   37.0130   29.1090   33.7200 H   0  0  0  0  0  0  0  0  0  0  0  0
   37.2040   28.8480   35.8010 N   0  0  0  0  0  0  0  0  0  0  0  0
   36.7580   28.3040   36.9510 C   0  0  0  0  0  0  0  0  0  0  0  0
  1  2  1  0  0  0  0
  2 11  1  0  0  0  0
  2  3  2  0  0  0  0
  3 12  1  0  0  0  0
  4 13  1  0  0  0  0
  4  3  1  0  0  0  0
  5  4  2  0  0  0  0
  6  5  1  0  0  0  0
  6 14  1  0  0  0  0
  7  6  2  0  0  0  0
  8  7  1  0  0  0  0
  8  9  2  0  0  0  0
  9 10  1  0  0  0  0
 10  1  2  0  0  0  0
 10  5  1  0  0  0  0
 15  7  1  0  0  0  0
 16  8  1  0  0  0  0
 17 18  2  0  0  0  0
 17 22  1  0  0  0  0
 18 19  1  0  0  0  0
 19 24  1  0  0  0  0
 19 20  2  0  0  0  0
 21 20  1  0  0  0  0
 21  1  1  0  0  0  0
 22 21  2  0  0  0  0
 23 17  1  0  0  0  0
 25 26  1  0  0  0  0
 25 18  1  0  0  0  0
 27 25  1  0  0  0  0
 28  9  1  0  0  0  0
 30 29  1  0  0  0  0
 30 31  1  0  0  0  0
 31 28  1  0  0  0  0
 32 31  2  0  0  0  0
 33 40  1  0  0  0  0
 33 32  1  0  0  0  0
 34 33  2  0  0  0  0
 35 34  1  0  0  0  0
 36 37  2  0  0  0  0
 36 34  1  0  0  0  0
 37 39  1  0  0  0  0
 38 37  1  0  0  0  0
 39 40  2  0  0  0  0
 40 30  1  0  0  0  0
M  END
>  <minimizedAffinity>
-6.27608442

$$$$

 OpenBabel03242515583D

 40 44  0  0  0  0  0  0  0  0999 V2000
   36.8940   27.0040   40.8440 C   0  0  0  0  0  0  0  0  0  0  0  0
   37.1600   26.4490   42.1200 C   0  0  0  0  0  0  0  0  0  0  0  0
   37.1120   25.1010   42.3920 C   0  0  0  0  0  0  0  0  0  0  0  0
   36.8000   24.2210   41.4180 C   0  0  0  0  0  0  0  0  0  0  0  0
   36.5270   24.7060   40.1430 C   0  0  0  0  0  0  0  0  0  0  0  0
   36.2130   23.7800   39.1950 C   0  0  0  0  0  0  0  0  0  0  0  0
   35.9240   24.1960   37.9110 C   0  0  0  0  0  0  0  0  0  0  0  0
   35.9740   25.5660   37.6720 C   0  0  0  0  0  0  0  0  0  0  0  0
   36.2940   26.4120   38.6710 C   0  0  0  0  0  0  0  0  0  0  0  0
   36.5830   26.0600   39.9140 C   0  0  0  0  0  0  0  0  0  0  0  0
   37.4150   27.1100   42.9350 H   0  0  0  0  0  0  0  0  0  0  0  0
   37.3270   24.7560   43.3880 H   0  0  0  0  0  0  0  0  0  0  0  0
   36.7730   23.1780   41.6610 H   0  0  0  0  0  0  0  0  0  0  0  0
   36.1970   22.7040   39.4820 H   0  0  0  0  0  0  0  0  0  0  0  0
   35.6890   23.3460   37.2480 H   0  0  0  0  0  0  0  0  0  0  0  0
   35.7100   25.5770   36.6260 H   0  0  0  0  0  0  0  0  0  0  0  0
   35.7570   30.4170   40.8240 C   0  0  0  0  0  0  0  0  0  0  0  0
   36.9080   31.1170   40.3350 C   0  0  0  0  0  0  0  0  0  0  0  0
   38.0920   30.4010   39.9900 C   0  0  0  0  0  0  0  0  0  0  0  0
   38.0600   29.0750   40.1480 N   0  0  0  0  0  0  0  0  0  0  0  0
   37.0190   28.4220   40.5950 C   0  0  0  0  0  0  0  0  0  0  0  0
   35.8740   29.0970   40.9290 N   0  0  0  0  0  0  0  0  0  0  0  0
   34.8810   30.9880   41.0760 H   0  0  0  0  0  0  0  0  0  0  0  0
   38.8230   31.0830   39.6620 H   0  0  0  0  0  0  0  0  0  0  0  0
   36.7710   32.5340   40.2260 N   0  0  0  0  0  0  0  0  0  0  0  0
   36.3800   32.9420   39.3500 H   0  0  0  0  0  0  0  0  0  0  0  0
   37.1460   32.8070   41.1700 H   0  0  0  0  0  0  0  0  0  0  0  0
   36.2500   27.6670   38.1460 O   0  0  0  0  0  0  0  0  0  0  0  0
   33.7140   28.5230   39.1460 H   0  0  0  0  0  0  0  0  0  0  0  0
   34.0690   28.5550   38.1640 N   0  0  0  0  0  0  0  0  0  0  0  0
   35.1620   28.2310   37.4520 C   0  0  0  0  0  0  0  0  0  0  0  0
   34.8230   28.5750   36.2280 N   0  0  0  0  0  0  0  0  0  0  0  0
   33.6240   29.0860   36.0970 C   0  0  0  0  0  0  0  0  0  0  0  0
   32.9920   29.5350   34.9530 C   0  0  0  0  0  0  0  0  0  0  0  0
   33.4900   29.4940   33.9910 H   0  0  0  0  0  0  0  0  0  0  0  0
   31.7320   30.0230   35.0920 N   0  0  0  0  0  0  0  0  0  0  0  0
   31.2150   30.0210   36.3560 C   0  0  0  0  0  0  0  0  0  0  0  0
   30.1920   30.4170   36.4750 H   0  0  0  0  0  0  0  0  0  0  0  0
   31.8650   29.5740   37.4390 N   0  0  0  0  0  0  0  0  0  0  0  0
   33.1160   29.0760   37.3740 C   0  0  0  0  0  0  0  0  0  0  0  0
  1  2  1  0  0  0  0
  2  3  2  0  0  0  0
  2 11  1  0  0  0  0
  3 12  1  0  0  0  0
  4 13  1  0  0  0  0
  4  3  1  0  0  0  0
  5  4  2  0  0  0  0
  6 14  1  0  0  0  0
  6  5  1  0  0  0  0
  7  6  2  0  0  0  0
  8  7  1  0  0  0  0
  8  9  2  0  0  0  0
  9 10  1  0  0  0  0
 10  5  1  0  0  0  0
 10  1  2  0  0  0  0
 15  7  1  0  0  0  0
 16  8  1  0  0  0  0
 17 22  1  0  0  0  0
 17 23  1  0  0  0  0
 18 17  2  0  0  0  0
 19 20  2  0  0  0  0
 19 18  1  0  0  0  0
 20 21  1  0  0  0  0
 21  1  1  0  0  0  0
 21 22  2  0  0  0  0
 24 19  1  0  0  0  0
 25 18  1  0  0  0  0
 25 27  1  0  0  0  0
 26 25  1  0  0  0  0
 28  9  1  0  0  0  0
 30 29  1  0  0  0  0
 31 28  1  0  0  0  0
 31 30  1  0  0  0  0
 32 31  2  0  0  0  0
 33 32  1  0  0  0  0
 33 40  1  0  0  0  0
 34 36  1  0  0  0  0
 34 33  2  0  0  0  0
 35 34  1  0  0  0  0
 36 37  2  0  0  0  0
 37 38  1  0  0  0  0
 37 39  1  0  0  0  0
 40 39  2  0  0  0  0
 40 30  1  0  0  0  0
M  END
>  <minimizedAffinity>
-6.24850702

$$$$

 OpenBabel03242515583D

 40 44  0  0  0  0  0  0  0  0999 V2000
   37.4420   27.4460   40.8040 C   0  0  0  0  0  0  0  0  0  0  0  0
   36.7830   26.5330   39.9440 C   0  0  0  0  0  0  0  0  0  0  0  0
   36.9310   25.1680   40.0220 C   0  0  0  0  0  0  0  0  0  0  0  0
   37.7380   24.6220   40.9560 C   0  0  0  0  0  0  0  0  0  0  0  0
   38.4140   25.4680   41.8290 C   0  0  0  0  0  0  0  0  0  0  0  0
   39.2190   24.8710   42.7510 C   0  0  0  0  0  0  0  0  0  0  0  0
   39.9230   25.6540   43.6430 C   0  0  0  0  0  0  0  0  0  0  0  0
   39.7580   27.0320   43.5320 C   0  0  0  0  0  0  0  0  0  0  0  0
   38.9390   27.5370   42.5890 C   0  0  0  0  0  0  0  0  0  0  0  0
   38.2410   26.8270   41.7160 C   0  0  0  0  0  0  0  0  0  0  0  0
   36.1250   26.9180   39.1780 H   0  0  0  0  0  0  0  0  0  0  0  0
   36.3960   24.5400   39.3320 H   0  0  0  0  0  0  0  0  0  0  0  0
   37.8300   23.5560   40.9920 H   0  0  0  0  0  0  0  0  0  0  0  0
   39.2900   23.7590   42.7620 H   0  0  0  0  0  0  0  0  0  0  0  0
   40.5330   25.0440   44.3320 H   0  0  0  0  0  0  0  0  0  0  0  0
   40.4100   27.3570   44.3280 H   0  0  0  0  0  0  0  0  0  0  0  0
   37.7900   30.7250   39.3660 C   0  0  0  0  0  0  0  0  0  0  0  0
   36.9390   31.5160   40.2060 C   0  0  0  0  0  0  0  0  0  0  0  0
   36.2460   30.9140   41.2970 C   0  0  0  0  0  0  0  0  0  0  0  0
   36.4340   29.6050   41.4800 N   0  0  0  0  0  0  0  0  0  0  0  0
   37.2050   28.8690   40.7220 C   0  0  0  0  0  0  0  0  0  0  0  0
   37.8790   29.4350   39.6700 N   0  0  0  0  0  0  0  0  0  0  0  0
   38.2980   31.2110   38.5510 H   0  0  0  0  0  0  0  0  0  0  0  0
   35.6710   31.6480   41.7860 H   0  0  0  0  0  0  0  0  0  0  0  0
   36.8520   32.9010   39.8710 N   0  0  0  0  0  0  0  0  0  0  0  0
   37.5510   33.5660   40.2670 H   0  0  0  0  0  0  0  0  0  0  0  0
   36.0090   32.8630   39.2430 H   0  0  0  0  0  0  0  0  0  0  0  0
   38.9900   28.8910   42.7150 O   0  0  0  0  0  0  0  0  0  0  0  0
   39.2800   31.3880   41.3550 H   0  0  0  0  0  0  0  0  0  0  0  0
   40.0070   30.8370   41.8640 N   0  0  0  0  0  0  0  0  0  0  0  0
   40.1380   29.6900   42.5520 C   0  0  0  0  0  0  0  0  0  0  0  0
   41.4140   29.6890   42.8740 N   0  0  0  0  0  0  0  0  0  0  0  0
   42.1020   30.7230   42.4570 C   0  0  0  0  0  0  0  0  0  0  0  0
   43.4440   31.0020   42.6360 C   0  0  0  0  0  0  0  0  0  0  0  0
   44.0840   30.3210   43.1850 H   0  0  0  0  0  0  0  0  0  0  0  0
   43.9130   32.1560   42.0950 N   0  0  0  0  0  0  0  0  0  0  0  0
   43.0080   32.9280   41.4260 C   0  0  0  0  0  0  0  0  0  0  0  0
   43.3840   33.8660   40.9850 H   0  0  0  0  0  0  0  0  0  0  0  0
   41.7130   32.6180   41.2770 N   0  0  0  0  0  0  0  0  0  0  0  0
   41.1780   31.4890   41.7870 C   0  0  0  0  0  0  0  0  0  0  0  0
  1 10  1  0  0  0  0
  2  3  1  0  0  0  0
  2  1  2  0  0  0  0
  3  4  2  0  0  0  0
  4 13  1  0  0  0  0
  4  5  1  0  0  0  0
  5  6  1  0  0  0  0
  6 14  1  0  0  0  0
  6  7  2  0  0  0  0
  7 15  1  0  0  0  0
  8  7  1  0  0  0  0
  8 16  1  0  0  0  0
  9 28  1  0  0  0  0
  9  8  2  0  0  0  0
 10  5  2  0  0  0  0
 10  9  1  0  0  0  0
 11  2  1  0  0  0  0
 12  3  1  0  0  0  0
 17 22  2  0  0  0  0
 17 18  1  0  0  0  0
 18 19  2  0  0  0  0
 19 20  1  0  0  0  0
 19 24  1  0  0  0  0
 21  1  1  0  0  0  0
 21 20  2  0  0  0  0
 22 21  1  0  0  0  0
 23 17  1  0  0  0  0
 25 18  1  0  0  0  0
 25 26  1  0  0  0  0
 27 25  1  0  0  0  0
 29 30  1  0  0  0  0
 30 31  1  0  0  0  0
 31 28  1  0  0  0  0
 31 32  2  0  0  0  0
 33 34  1  0  0  0  0
 33 32  1  0  0  0  0
 34 35  1  0  0  0  0
 36 34  2  0  0  0  0
 37 36  1  0  0  0  0
 38 37  1  0  0  0  0
 39 37  2  0  0  0  0
 39 40  1  0  0  0  0
 40 30  1  0  0  0  0
 40 33  2  0  0  0  0
M  END
>  <minimizedAffinity>
-6.18518114

$$$$

 OpenBabel03242515583D

 40 44  0  0  0  0  0  0  0  0999 V2000
   37.3700   29.0280   41.7100 C   0  0  0  0  0  0  0  0  0  0  0  0
   37.0900   28.6990   43.0590 C   0  0  0  0  0  0  0  0  0  0  0  0
   36.8480   27.4180   43.4980 C   0  0  0  0  0  0  0  0  0  0  0  0
   36.8680   26.3850   42.6290 C   0  0  0  0  0  0  0  0  0  0  0  0
   37.1370   26.6460   41.2900 C   0  0  0  0  0  0  0  0  0  0  0  0
   37.1430   25.5730   40.4520 C   0  0  0  0  0  0  0  0  0  0  0  0
   37.3960   25.7640   39.1080 C   0  0  0  0  0  0  0  0  0  0  0  0
   37.6290   27.0730   38.6960 C   0  0  0  0  0  0  0  0  0  0  0  0
   37.6040   28.0760   39.5950 C   0  0  0  0  0  0  0  0  0  0  0  0
   37.3710   27.9400   40.8920 C   0  0  0  0  0  0  0  0  0  0  0  0
   37.0610   29.4890   43.7950 H   0  0  0  0  0  0  0  0  0  0  0  0
   36.6420   27.2480   44.5400 H   0  0  0  0  0  0  0  0  0  0  0  0
   36.6780   25.3990   43.0030 H   0  0  0  0  0  0  0  0  0  0  0  0
   36.9430   24.5610   40.8740 H   0  0  0  0  0  0  0  0  0  0  0  0
   37.3720   24.8130   38.5470 H   0  0  0  0  0  0  0  0  0  0  0  0
   37.7850   26.9050   37.6410 H   0  0  0  0  0  0  0  0  0  0  0  0
   39.4870   31.9170   41.3710 C   0  0  0  0  0  0  0  0  0  0  0  0
   38.6450   32.8280   40.6530 C   0  0  0  0  0  0  0  0  0  0  0  0
   37.3180   32.4480   40.2930 C   0  0  0  0  0  0  0  0  0  0  0  0
   36.9240   31.2250   40.6570 N   0  0  0  0  0  0  0  0  0  0  0  0
   37.6800   30.3820   41.3100 C   0  0  0  0  0  0  0  0  0  0  0  0
   38.9570   30.7340   41.6630 N   0  0  0  0  0  0  0  0  0  0  0  0
   40.4830   32.2350   41.6260 H   0  0  0  0  0  0  0  0  0  0  0  0
   36.8640   33.2400   39.7700 H   0  0  0  0  0  0  0  0  0  0  0  0
   39.2240   34.0960   40.3460 N   0  0  0  0  0  0  0  0  0  0  0  0
   39.1550   34.8690   41.0410 H   0  0  0  0  0  0  0  0  0  0  0  0
   39.6050   33.8720   39.3910 H   0  0  0  0  0  0  0  0  0  0  0  0
   37.8510   29.2230   38.9050 O   0  0  0  0  0  0  0  0  0  0  0  0
   39.6780   27.5640   37.4650 H   0  0  0  0  0  0  0  0  0  0  0  0
   39.7470   28.5870   37.6630 N   0  0  0  0  0  0  0  0  0  0  0  0
   39.0700   29.5650   38.2880 C   0  0  0  0  0  0  0  0  0  0  0  0
   39.8410   30.6160   38.1040 N   0  0  0  0  0  0  0  0  0  0  0  0
   40.9380   30.3980   37.4240 C   0  0  0  0  0  0  0  0  0  0  0  0
   41.9330   31.2910   37.0730 C   0  0  0  0  0  0  0  0  0  0  0  0
   41.8710   32.3330   37.3640 H   0  0  0  0  0  0  0  0  0  0  0  0
   42.9790   30.8020   36.3570 N   0  0  0  0  0  0  0  0  0  0  0  0
   42.9410   29.4720   36.0540 C   0  0  0  0  0  0  0  0  0  0  0  0
   43.7880   29.0700   35.4730 H   0  0  0  0  0  0  0  0  0  0  0  0
   41.9540   28.6410   36.4160 N   0  0  0  0  0  0  0  0  0  0  0  0
   40.8860   29.0570   37.1270 C   0  0  0  0  0  0  0  0  0  0  0  0
  1  2  1  0  0  0  0
  2  3  2  0  0  0  0
  2 11  1  0  0  0  0
  3 12  1  0  0  0  0
  4 13  1  0  0  0  0
  4  3  1  0  0  0  0
  5  4  2  0  0  0  0
  6 14  1  0  0  0  0
  6  5  1  0  0  0  0
  7  6  2  0  0  0  0
  8  7  1  0  0  0  0
  8  9  2  0  0  0  0
  9 10  1  0  0  0  0
 10  5  1  0  0  0  0
 10  1  2  0  0  0  0
 15  7  1  0  0  0  0
 16  8  1  0  0  0  0
 17 23  1  0  0  0  0
 17 22  1  0  0  0  0
 18 17  2  0  0  0  0
 19 18  1  0  0  0  0
 19 20  2  0  0  0  0
 20 21  1  0  0  0  0
 21 22  2  0  0  0  0
 21  1  1  0  0  0  0
 24 19  1  0  0  0  0
 25 18  1  0  0  0  0
 25 26  1  0  0  0  0
 27 25  1  0  0  0  0
 28  9  1  0  0  0  0
 29 30  1  0  0  0  0
 30 31  1  0  0  0  0
 31 28  1  0  0  0  0
 32 31  2  0  0  0  0
 33 32  1  0  0  0  0
 34 35  1  0  0  0  0
 34 33  2  0  0  0  0
 36 34  1  0  0  0  0
 37 36  2  0  0  0  0
 37 39  1  0  0  0  0
 38 37  1  0  0  0  0
 39 40  2  0  0  0  0
 40 33  1  0  0  0  0
 40 30  1  0  0  0  0
M  END
>  <minimizedAffinity>
-6.15885782

$$$$

 OpenBabel03242515583D

 40 44  0  0  0  0  0  0  0  0999 V2000
   37.3950   26.5230   39.7340 C   0  0  0  0  0  0  0  0  0  0  0  0
   37.1850   25.1330   39.9110 C   0  0  0  0  0  0  0  0  0  0  0  0
   36.9700   24.5430   41.1350 C   0  0  0  0  0  0  0  0  0  0  0  0
   36.9490   25.2920   42.2580 C   0  0  0  0  0  0  0  0  0  0  0  0
   37.1500   26.6630   42.1480 C   0  0  0  0  0  0  0  0  0  0  0  0
   37.1240   27.3760   43.3080 C   0  0  0  0  0  0  0  0  0  0  0  0
   37.3240   28.7410   43.2690 C   0  0  0  0  0  0  0  0  0  0  0  0
   37.5460   29.3050   42.0160 C   0  0  0  0  0  0  0  0  0  0  0  0
   37.5550   28.5230   40.9190 C   0  0  0  0  0  0  0  0  0  0  0  0
   37.3640   27.2130   40.9060 C   0  0  0  0  0  0  0  0  0  0  0  0
   37.1920   24.4880   39.0440 H   0  0  0  0  0  0  0  0  0  0  0  0
   36.8190   23.4790   41.1880 H   0  0  0  0  0  0  0  0  0  0  0  0
   36.7780   24.8030   43.1950 H   0  0  0  0  0  0  0  0  0  0  0  0
   36.9410   26.8360   44.2650 H   0  0  0  0  0  0  0  0  0  0  0  0
   37.2760   29.1910   44.2760 H   0  0  0  0  0  0  0  0  0  0  0  0
   37.6650   30.3390   42.3010 H   0  0  0  0  0  0  0  0  0  0  0  0
   36.2310   28.0110   36.6730 C   0  0  0  0  0  0  0  0  0  0  0  0
   37.4580   28.2870   35.9840 C   0  0  0  0  0  0  0  0  0  0  0  0
   38.7080   27.9410   36.5770 C   0  0  0  0  0  0  0  0  0  0  0  0
   38.6630   27.3600   37.7780 N   0  0  0  0  0  0  0  0  0  0  0  0
   37.5530   27.1020   38.4200 C   0  0  0  0  0  0  0  0  0  0  0  0
   36.3440   27.4290   37.8620 N   0  0  0  0  0  0  0  0  0  0  0  0
   35.3060   28.2860   36.1970 H   0  0  0  0  0  0  0  0  0  0  0  0
   39.4860   28.2280   35.9290 H   0  0  0  0  0  0  0  0  0  0  0  0
   37.3240   28.9110   34.7070 N   0  0  0  0  0  0  0  0  0  0  0  0
   37.1990   28.3160   33.8600 H   0  0  0  0  0  0  0  0  0  0  0  0
   37.3980   29.9160   35.0090 H   0  0  0  0  0  0  0  0  0  0  0  0
   37.8050   29.3420   39.8610 O   0  0  0  0  0  0  0  0  0  0  0  0
   40.5830   28.9440   39.3240 H   0  0  0  0  0  0  0  0  0  0  0  0
   40.0790   29.8400   39.5080 N   0  0  0  0  0  0  0  0  0  0  0  0
   38.8430   30.2910   39.7810 C   0  0  0  0  0  0  0  0  0  0  0  0
   39.0260   31.5880   39.8990 N   0  0  0  0  0  0  0  0  0  0  0  0
   40.2570   32.0020   39.7260 C   0  0  0  0  0  0  0  0  0  0  0  0
   40.7570   33.2890   39.7860 C   0  0  0  0  0  0  0  0  0  0  0  0
   40.1050   34.1280   40.0010 H   0  0  0  0  0  0  0  0  0  0  0  0
   42.0880   33.4470   39.5680 N   0  0  0  0  0  0  0  0  0  0  0  0
   42.8010   32.3130   39.3080 C   0  0  0  0  0  0  0  0  0  0  0  0
   43.8830   32.4360   39.1290 H   0  0  0  0  0  0  0  0  0  0  0  0
   42.2740   31.0820   39.2600 N   0  0  0  0  0  0  0  0  0  0  0  0
   40.9620   30.8510   39.4670 C   0  0  0  0  0  0  0  0  0  0  0  0
  1  2  2  0  0  0  0
  1 10  1  0  0  0  0
  2  3  1  0  0  0  0
  3 12  1  0  0  0  0
  3  4  2  0  0  0  0
  4 13  1  0  0  0  0
  5  4  1  0  0  0  0
  5  6  1  0  0  0  0
  6 14  1  0  0  0  0
  7  6  2  0  0  0  0
  7 15  1  0  0  0  0
  8 16  1  0  0  0  0
  8  7  1  0  0  0  0
  9  8  2  0  0  0  0
 10  9  1  0  0  0  0
 10  5  2  0  0  0  0
 11  2  1  0  0  0  0
 17 22  1  0  0  0  0
 18 19  1  0  0  0  0
 18 17  2  0  0  0  0
 19 20  2  0  0  0  0
 20 21  1  0  0  0  0
 21  1  1  0  0  0  0
 22 21  2  0  0  0  0
 23 17  1  0  0  0  0
 24 19  1  0  0  0  0
 25 27  1  0  0  0  0
 25 18  1  0  0  0  0
 26 25  1  0  0  0  0
 28  9  1  0  0  0  0
 29 30  1  0  0  0  0
 30 31  1  0  0  0  0
 31 28  1  0  0  0  0
 31 32  2  0  0  0  0
 33 34  1  0  0  0  0
 33 32  1  0  0  0  0
 34 35  1  0  0  0  0
 36 34  2  0  0  0  0
 37 36  1  0  0  0  0
 38 37  1  0  0  0  0
 39 37  2  0  0  0  0
 39 40  1  0  0  0  0
 40 30  1  0  0  0  0
 40 33  2  0  0  0  0
M  END
>  <minimizedAffinity>
-6.09449434

$$$$
