
 OpenBabel03242515103D

 39 42  0  0  0  0  0  0  0  0999 V2000
   47.1760   32.9830   43.8570 N   0  0  0  0  0  0  0  0  0  0  0  0
   46.9470   32.0520   44.3160 H   0  0  0  0  0  0  0  0  0  0  0  0
   45.6460   34.0240   45.4940 C   0  0  0  0  0  0  0  0  0  0  0  0
   44.7490   35.0490   45.6670 C   0  0  0  0  0  0  0  0  0  0  0  0
   44.4160   35.9700   44.7060 C   0  0  0  0  0  0  0  0  0  0  0  0
   45.0090   35.8800   43.4720 C   0  0  0  0  0  0  0  0  0  0  0  0
   45.9130   34.8710   43.2540 C   0  0  0  0  0  0  0  0  0  0  0  0
   46.2280   33.9550   44.2480 C   0  0  0  0  0  0  0  0  0  0  0  0
   44.2320   35.1920   46.6160 H   0  0  0  0  0  0  0  0  0  0  0  0
   43.7020   36.7720   44.8680 H   0  0  0  0  0  0  0  0  0  0  0  0
   44.7550   36.5980   42.7110 H   0  0  0  0  0  0  0  0  0  0  0  0
   46.3510   34.8480   42.2640 H   0  0  0  0  0  0  0  0  0  0  0  0
   47.4560   31.4930   47.4020 C   0  0  0  0  0  0  0  0  0  0  0  0
   46.6480   31.2580   48.4980 C   0  0  0  0  0  0  0  0  0  0  0  0
   45.4600   31.9780   48.5880 C   0  0  0  0  0  0  0  0  0  0  0  0
   45.1310   32.8790   47.6140 N   0  0  0  0  0  0  0  0  0  0  0  0
   45.9590   33.0820   46.5430 C   0  0  0  0  0  0  0  0  0  0  0  0
   47.0900   32.3760   46.4860 N   0  0  0  0  0  0  0  0  0  0  0  0
   48.3600   30.9010   47.3940 H   0  0  0  0  0  0  0  0  0  0  0  0
   46.8290   30.5760   49.3020 H   0  0  0  0  0  0  0  0  0  0  0  0
   44.7040   31.9280   49.3740 H   0  0  0  0  0  0  0  0  0  0  0  0
   48.5360   33.0400   42.8390 S   0  0  0  0  0  0  0  0  0  0  0  0
   48.0420   33.0700   41.3910 O   0  0  0  0  0  0  0  0  0  0  0  0
   47.6760   32.2920   40.8990 H   0  0  0  0  0  0  0  0  0  0  0  0
   49.4390   34.2130   43.0550 O   0  0  0  0  0  0  0  0  0  0  0  0
   49.2930   34.8260   43.8190 H   0  0  0  0  0  0  0  0  0  0  0  0
   49.3490   31.5760   42.9940 O   0  0  0  0  0  0  0  0  0  0  0  0
   50.1720   32.5900   40.5280 H   0  0  0  0  0  0  0  0  0  0  0  0
   50.7040   31.8540   41.0400 N   0  0  0  0  0  0  0  0  0  0  0  0
   50.4540   31.2620   42.2190 C   0  0  0  0  0  0  0  0  0  0  0  0
   51.4380   30.3790   42.4420 N   0  0  0  0  0  0  0  0  0  0  0  0
   52.3070   30.4090   41.4120 C   0  0  0  0  0  0  0  0  0  0  0  0
   53.4820   29.7410   41.0910 C   0  0  0  0  0  0  0  0  0  0  0  0
   53.8660   29.0000   41.7820 H   0  0  0  0  0  0  0  0  0  0  0  0
   54.1340   30.0080   39.9500 N   0  0  0  0  0  0  0  0  0  0  0  0
   53.6650   30.9370   39.0740 C   0  0  0  0  0  0  0  0  0  0  0  0
   54.2200   31.1320   38.1510 H   0  0  0  0  0  0  0  0  0  0  0  0
   52.5290   31.5830   39.3810 N   0  0  0  0  0  0  0  0  0  0  0  0
   51.8370   31.3530   40.5130 C   0  0  0  0  0  0  0  0  0  0  0  0
  1  8  1  0  0  0  0
  1  2  1  0  0  0  0
  3  4  1  0  0  0  0
  3 17  1  0  0  0  0
  4  9  1  0  0  0  0
  5 10  1  0  0  0  0
  5  4  2  0  0  0  0
  6  5  1  0  0  0  0
  7  6  2  0  0  0  0
  7  8  1  0  0  0  0
  8  3  2  0  0  0  0
 11  6  1  0  0  0  0
 12  7  1  0  0  0  0
 13 14  1  0  0  0  0
 14 15  2  0  0  0  0
 14 20  1  0  0  0  0
 15 21  1  0  0  0  0
 16 15  1  0  0  0  0
 17 16  2  0  0  0  0
 18 17  1  0  0  0  0
 18 13  2  0  0  0  0
 19 13  1  0  0  0  0
 22 27  1  0  0  0  0
 22 25  1  0  0  0  0
 22  1  1  0  0  0  0
 23 22  1  0  0  0  0
 24 23  1  0  0  0  0
 25 26  1  0  0  0  0
 28 29  1  0  0  0  0
 29 30  1  0  0  0  0
 30 31  2  0  0  0  0
 30 27  1  0  0  0  0
 32 31  1  0  0  0  0
 33 32  1  0  0  0  0
 33 34  1  0  0  0  0
 35 33  2  0  0  0  0
 36 38  2  0  0  0  0
 36 35  1  0  0  0  0
 37 36  1  0  0  0  0
 38 39  1  0  0  0  0
 39 29  1  0  0  0  0
 39 32  2  0  0  0  0
M  END
>  <minimizedAffinity>
-5.90740967

>  <minimizedRMSD>
2.46141434

$$$$
