
 OpenBabel03252508083D

 47 51  0  0  0  0  0  0  0  0999 V2000
   45.3040   36.1310   42.7660 C   0  0  0  0  0  0  0  0  0  0  0  0
   45.5000   34.7590   42.7550 C   0  0  0  0  0  0  0  0  0  0  0  0
   45.2420   34.0200   43.8840 C   0  0  0  0  0  0  0  0  0  0  0  0
   44.7880   34.7090   44.9920 N   0  0  0  0  0  0  0  0  0  0  0  0
   44.6030   36.0270   44.9960 C   0  0  0  0  0  0  0  0  0  0  0  0
   44.8660   36.7280   43.8720 N   0  0  0  0  0  0  0  0  0  0  0  0
   45.4820   36.7740   41.9280 H   0  0  0  0  0  0  0  0  0  0  0  0
   44.2450   36.5090   45.9010 H   0  0  0  0  0  0  0  0  0  0  0  0
   45.3900   32.6210   44.0360 C   0  0  0  0  0  0  0  0  0  0  0  0
   44.8760   31.6790   43.1430 C   0  0  0  0  0  0  0  0  0  0  0  0
   44.9580   30.3230   43.3220 C   0  0  0  0  0  0  0  0  0  0  0  0
   45.5820   29.8210   44.4420 C   0  0  0  0  0  0  0  0  0  0  0  0
   46.1140   30.7620   45.3650 C   0  0  0  0  0  0  0  0  0  0  0  0
   46.7350   30.2740   46.4840 C   0  0  0  0  0  0  0  0  0  0  0  0
   47.2760   31.1350   47.4180 C   0  0  0  0  0  0  0  0  0  0  0  0
   47.1860   32.5220   47.2120 C   0  0  0  0  0  0  0  0  0  0  0  0
   46.5380   32.9740   46.0480 C   0  0  0  0  0  0  0  0  0  0  0  0
   46.0090   32.0970   45.1410 C   0  0  0  0  0  0  0  0  0  0  0  0
   44.3840   32.0850   42.2590 H   0  0  0  0  0  0  0  0  0  0  0  0
   44.5210   29.6900   42.5570 H   0  0  0  0  0  0  0  0  0  0  0  0
   45.6510   28.7670   44.5920 H   0  0  0  0  0  0  0  0  0  0  0  0
   46.7980   29.2010   46.6280 H   0  0  0  0  0  0  0  0  0  0  0  0
   47.7430   30.6790   48.2660 H   0  0  0  0  0  0  0  0  0  0  0  0
   47.6350   33.1020   47.9890 H   0  0  0  0  0  0  0  0  0  0  0  0
   46.5920   34.0420   46.0610 H   0  0  0  0  0  0  0  0  0  0  0  0
   45.9470   34.1990   41.5910 O   0  0  0  0  0  0  0  0  0  0  0  0
   47.8290   32.4460   41.0870 O   0  0  0  0  0  0  0  0  0  0  0  0
   47.5760   33.9070   41.2300 P   0  0  1  0  0  0  0  0  0  0  0  0
   48.0080   34.6260   39.7580 O   0  0  0  0  0  0  0  0  0  0  0  0
   45.9280   32.9050   38.9030 H   0  0  0  0  0  0  0  0  0  0  0  0
   46.7470   33.1220   38.2830 N   0  0  0  0  0  0  0  0  0  0  0  0
   47.7890   33.9210   38.5820 C   0  0  0  0  0  0  0  0  0  0  0  0
   48.6100   33.9250   37.5150 N   0  0  0  0  0  0  0  0  0  0  0  0
   48.1150   33.1430   36.5390 C   0  0  0  0  0  0  0  0  0  0  0  0
   48.6020   32.8530   35.2980 C   0  0  0  0  0  0  0  0  0  0  0  0
   49.5280   33.2400   34.8920 H   0  0  0  0  0  0  0  0  0  0  0  0
   47.8580   32.0120   34.5250 N   0  0  0  0  0  0  0  0  0  0  0  0
   46.6940   31.5130   35.0090 C   0  0  0  0  0  0  0  0  0  0  0  0
   46.0770   30.8410   34.4210 H   0  0  0  0  0  0  0  0  0  0  0  0
   46.2110   31.7980   36.2320 N   0  0  0  0  0  0  0  0  0  0  0  0
   46.9300   32.6340   37.0300 C   0  0  0  0  0  0  0  0  0  0  0  0
   48.5150   34.5690   42.4500 O   0  0  0  0  0  0  0  0  0  0  0  0
   49.7130   35.2480   42.3000 C   0  0  0  0  0  0  0  0  0  0  0  0
   49.3880   36.3600   41.8460 O   0  0  0  0  0  0  0  0  0  0  0  0
   50.8240   34.4300   42.7150 N   0  0  0  0  0  0  0  0  0  0  0  0
   50.8730   34.1650   43.7350 H   0  0  0  0  0  0  0  0  0  0  0  0
   51.5850   34.0810   42.0720 H   0  0  0  0  0  0  0  0  0  0  0  0
  1  6  1  0  0  0  0
  2  1  2  0  0  0  0
  2  3  1  0  0  0  0
  3  9  1  0  0  0  0
  3  4  2  0  0  0  0
  4  5  1  0  0  0  0
  5  8  1  0  0  0  0
  6  5  2  0  0  0  0
  7  1  1  0  0  0  0
  9 18  1  0  0  0  0
 10 11  1  0  0  0  0
 10  9  2  0  0  0  0
 11 12  2  0  0  0  0
 12 21  1  0  0  0  0
 12 13  1  0  0  0  0
 13 14  1  0  0  0  0
 14 22  1  0  0  0  0
 14 15  2  0  0  0  0
 15 23  1  0  0  0  0
 16 15  1  0  0  0  0
 16 24  1  0  0  0  0
 17 25  1  0  0  0  0
 17 16  2  0  0  0  0
 18 13  2  0  0  0  0
 18 17  1  0  0  0  0
 19 10  1  0  0  0  0
 20 11  1  0  0  0  0
 26  2  1  0  0  0  0
 28 27  2  6  0  0  0
 28 26  1  0  0  0  0
 28 42  1  0  0  0  0
 29 28  1  0  0  0  0
 31 32  1  0  0  0  0
 31 30  1  0  0  0  0
 32 29  1  0  0  0  0
 33 32  2  0  0  0  0
 34 41  1  0  0  0  0
 34 33  1  0  0  0  0
 35 34  2  0  0  0  0
 36 35  1  0  0  0  0
 37 38  2  0  0  0  0
 37 35  1  0  0  0  0
 38 40  1  0  0  0  0
 39 38  1  0  0  0  0
 40 41  2  0  0  0  0
 41 31  1  0  0  0  0
 43 42  1  0  0  0  0
 43 45  1  0  0  0  0
 44 43  2  0  0  0  0
 45 46  1  0  0  0  0
 47 45  1  0  0  0  0
M  END
>  <minimizedAffinity>
-6.62837553

>  <minimizedRMSD>
0.457414895

$$$$
