
 OpenBabel03252506383D

 47 51  0  0  1  0  0  0  0  0999 V2000
   46.6830   30.0050   46.5080 S   0  0  0  0  0  0  0  0  0  0  0  0
   45.4620   30.6180   43.4640 O   0  0  0  0  0  0  0  0  0  0  0  0
   44.9020   30.0210   44.3950 C   0  0  0  0  0  0  0  0  0  0  0  0
   45.0960   29.7270   45.8370 C   0  0  1  0  0  0  0  0  0  0  0  0
   44.5910   28.3100   45.9410 C   0  0  0  0  0  0  0  0  0  0  0  0
   43.2300   28.5280   45.2740 C   0  0  0  0  0  0  0  0  0  0  0  0
   43.6540   29.3500   44.1470 N   0  0  0  0  0  0  0  0  0  0  0  0
   44.2260   30.3010   46.2600 H   0  0  0  0  0  0  0  0  0  0  0  0
   44.4050   27.9920   46.9710 H   0  0  0  0  0  0  0  0  0  0  0  0
   45.1950   27.5950   45.3590 H   0  0  0  0  0  0  0  0  0  0  0  0
   42.7960   27.5940   44.9200 H   0  0  0  0  0  0  0  0  0  0  0  0
   42.5800   29.0940   45.9680 H   0  0  0  0  0  0  0  0  0  0  0  0
   41.9120   27.4430   43.0160 H   0  0  0  0  0  0  0  0  0  0  0  0
   42.0320   28.3840   42.5570 N   0  0  0  0  0  0  0  0  0  0  0  0
   42.8200   29.4000   42.9690 C   0  0  0  0  0  0  0  0  0  0  0  0
   42.6600   30.4080   42.0830 N   0  0  0  0  0  0  0  0  0  0  0  0
   41.7890   30.0440   41.1270 C   0  0  0  0  0  0  0  0  0  0  0  0
   41.2690   30.6590   40.0050 C   0  0  0  0  0  0  0  0  0  0  0  0
   41.6000   31.6700   39.7900 H   0  0  0  0  0  0  0  0  0  0  0  0
   40.3820   30.0270   39.2040 N   0  0  0  0  0  0  0  0  0  0  0  0
   39.9940   28.7610   39.5080 C   0  0  0  0  0  0  0  0  0  0  0  0
   39.2790   28.2500   38.8640 H   0  0  0  0  0  0  0  0  0  0  0  0
   40.4940   28.1520   40.5990 N   0  0  0  0  0  0  0  0  0  0  0  0
   41.3820   28.7560   41.4190 C   0  0  0  0  0  0  0  0  0  0  0  0
   44.5240   35.4930   45.1630 C   0  0  0  0  0  0  0  0  0  0  0  0
   45.1820   35.5050   43.9090 C   0  0  0  0  0  0  0  0  0  0  0  0
   46.1110   34.5510   43.6370 C   0  0  0  0  0  0  0  0  0  0  0  0
   46.3470   33.6330   44.6050 N   0  0  0  0  0  0  0  0  0  0  0  0
   45.7280   33.6260   45.7760 C   0  0  0  0  0  0  0  0  0  0  0  0
   44.8130   34.5490   46.0700 N   0  0  0  0  0  0  0  0  0  0  0  0
   46.0660   32.6020   46.7280 N   0  0  0  0  0  0  0  0  0  0  0  0
   45.3270   32.3340   47.9090 C   0  0  0  0  0  0  0  0  0  0  0  0
   46.4040   31.9790   48.9190 C   0  0  0  0  0  0  0  0  0  0  0  0
   47.6860   31.8920   48.1470 C   0  0  0  0  0  0  0  0  0  0  0  0
   47.1890   31.6970   46.7170 C   0  0  1  0  0  0  0  0  0  0  0  0
   43.7870   36.2610   45.3630 H   0  0  0  0  0  0  0  0  0  0  0  0
   46.6170   34.5430   42.7000 H   0  0  0  0  0  0  0  0  0  0  0  0
   44.9490   33.3390   48.2810 H   0  0  0  0  0  0  0  0  0  0  0  0
   44.5260   31.6760   47.9940 H   0  0  0  0  0  0  0  0  0  0  0  0
   46.1740   30.9650   49.3540 H   0  0  0  0  0  0  0  0  0  0  0  0
   46.4670   32.6480   49.7760 H   0  0  0  0  0  0  0  0  0  0  0  0
   48.2970   32.7870   48.2800 H   0  0  0  0  0  0  0  0  0  0  0  0
   48.2440   30.9690   48.4600 H   0  0  0  0  0  0  0  0  0  0  0  0
   48.0040   32.0250   46.0520 H   0  0  0  0  0  0  0  0  0  0  0  0
   44.8200   36.5470   42.9890 N   0  0  0  0  0  0  0  0  0  0  0  0
   45.6480   36.9250   42.4520 H   0  0  0  0  0  0  0  0  0  0  0  0
   43.8710   36.9290   42.8230 H   0  0  0  0  0  0  0  0  0  0  0  0
  1 35  1  0  0  0  0
  2  3  2  0  0  0  0
  3  4  1  0  0  0  0
  4  5  1  0  0  0  0
  4  8  1  1  0  0  0
  4  1  1  0  0  0  0
  5  9  1  0  0  0  0
  6  5  1  0  0  0  0
  6 12  1  0  0  0  0
  7  3  1  0  0  0  0
  7  6  1  0  0  0  0
 10  5  1  0  0  0  0
 11  6  1  0  0  0  0
 14 15  1  0  0  0  0
 14 13  1  0  0  0  0
 15  7  1  0  0  0  0
 16 15  2  0  0  0  0
 17 24  1  0  0  0  0
 17 16  1  0  0  0  0
 18 17  2  0  0  0  0
 19 18  1  0  0  0  0
 20 21  2  0  0  0  0
 20 18  1  0  0  0  0
 21 23  1  0  0  0  0
 22 21  1  0  0  0  0
 23 24  2  0  0  0  0
 24 14  1  0  0  0  0
 25 36  1  0  0  0  0
 25 30  1  0  0  0  0
 26 25  2  0  0  0  0
 27 26  1  0  0  0  0
 27 28  2  0  0  0  0
 28 29  1  0  0  0  0
 29 30  2  0  0  0  0
 29 31  1  0  0  0  0
 31 32  1  0  0  0  0
 32 39  1  0  0  0  0
 32 38  1  0  0  0  0
 32 33  1  0  0  0  0
 33 40  1  0  0  0  0
 33 41  1  0  0  0  0
 34 42  1  0  0  0  0
 34 43  1  0  0  0  0
 34 33  1  0  0  0  0
 35 44  1  6  0  0  0
 35 31  1  0  0  0  0
 35 34  1  0  0  0  0
 37 27  1  0  0  0  0
 45 26  1  0  0  0  0
 46 45  1  0  0  0  0
 47 45  1  0  0  0  0
M  END
>  <minimizedAffinity>
-5.80219555

>  <minimizedRMSD>
0.249728605

$$$$
