
 OpenBabel03242513433D

 43 47  0  0  0  0  0  0  0  0999 V2000
   41.1050   32.0480   40.7390 C   0  0  0  0  0  0  0  0  0  0  0  0
   40.9680   31.2630   41.8600 C   0  0  0  0  0  0  0  0  0  0  0  0
   41.9200   31.3660   42.8530 C   0  0  0  0  0  0  0  0  0  0  0  0
   42.9970   32.2200   42.7610 C   0  0  0  0  0  0  0  0  0  0  0  0
   44.0700   32.5610   43.5070 N   0  0  0  0  0  0  0  0  0  0  0  0
   44.8140   33.4950   42.8790 C   0  0  0  0  0  0  0  0  0  0  0  0
   44.1920   33.7420   41.7170 N   0  0  0  0  0  0  0  0  0  0  0  0
   43.0910   32.9850   41.6180 C   0  0  0  0  0  0  0  0  0  0  0  0
   42.1700   32.9200   40.6030 C   0  0  0  0  0  0  0  0  0  0  0  0
   40.3670   31.9790   39.9520 H   0  0  0  0  0  0  0  0  0  0  0  0
   41.8700   30.7740   43.7630 H   0  0  0  0  0  0  0  0  0  0  0  0
   44.2500   32.1320   44.4320 H   0  0  0  0  0  0  0  0  0  0  0  0
   45.7350   33.9650   43.2300 H   0  0  0  0  0  0  0  0  0  0  0  0
   37.6320   29.7780   41.5670 C   0  0  0  0  0  0  0  0  0  0  0  0
   37.7600   28.5900   42.2800 C   0  0  0  0  0  0  0  0  0  0  0  0
   39.0040   28.3290   42.8490 C   0  0  0  0  0  0  0  0  0  0  0  0
   40.0180   29.2150   42.6930 N   0  0  0  0  0  0  0  0  0  0  0  0
   39.8400   30.3450   41.9950 C   0  0  0  0  0  0  0  0  0  0  0  0
   38.6630   30.6410   41.4300 N   0  0  0  0  0  0  0  0  0  0  0  0
   36.6930   30.0560   41.0920 H   0  0  0  0  0  0  0  0  0  0  0  0
   39.1000   27.4040   43.4020 H   0  0  0  0  0  0  0  0  0  0  0  0
   36.5700   27.7010   42.3780 C   0  0  0  0  0  0  0  0  0  0  0  0
   35.5950   28.3330   41.6330 F   0  0  0  0  0  0  0  0  0  0  0  0
   36.1900   27.6360   43.6790 F   0  0  0  0  0  0  0  0  0  0  0  0
   36.9220   26.4510   41.8630 F   0  0  0  0  0  0  0  0  0  0  0  0
   42.3280   33.7200   39.4820 O   0  0  0  0  0  0  0  0  0  0  0  0
   44.4870   33.4590   38.0700 O   0  0  0  0  0  0  0  0  0  0  0  0
   42.9700   33.1990   38.0110 P   0  0  2  0  0  0  0  0  0  0  0  0
   42.3320   34.1610   36.7810 O   0  0  0  0  0  0  0  0  0  0  0  0
   42.9750   34.7930   36.3870 H   0  0  0  0  0  0  0  0  0  0  0  0
   42.7260   31.5670   37.7160 O   0  0  0  0  0  0  0  0  0  0  0  0
   41.4750   29.0620   38.2420 H   0  0  0  0  0  0  0  0  0  0  0  0
   40.9000   29.8830   37.9990 N   0  0  0  0  0  0  0  0  0  0  0  0
   41.3920   31.1100   37.7330 C   0  0  0  0  0  0  0  0  0  0  0  0
   40.3070   31.8920   37.4640 N   0  0  0  0  0  0  0  0  0  0  0  0
   39.1710   31.1560   37.5630 C   0  0  0  0  0  0  0  0  0  0  0  0
   37.8730   31.5800   37.3660 C   0  0  0  0  0  0  0  0  0  0  0  0
   37.6680   32.6200   37.0960 H   0  0  0  0  0  0  0  0  0  0  0  0
   36.9300   30.6420   37.5290 N   0  0  0  0  0  0  0  0  0  0  0  0
   37.2690   29.3630   37.8670 C   0  0  0  0  0  0  0  0  0  0  0  0
   36.4290   28.6910   37.9720 H   0  0  0  0  0  0  0  0  0  0  0  0
   38.5600   29.0180   38.0450 N   0  0  0  0  0  0  0  0  0  0  0  0
   39.5670   29.8970   37.9000 C   0  0  0  0  0  0  0  0  0  0  0  0
  1  2  1  0  0  0  0
  2 18  1  0  0  0  0
  2  3  2  0  0  0  0
  3 11  1  0  0  0  0
  4  3  1  0  0  0  0
  4  5  1  0  0  0  0
  5 12  1  0  0  0  0
  6 13  1  0  0  0  0
  6  5  1  0  0  0  0
  7  6  2  0  0  0  0
  8  7  1  0  0  0  0
  8  4  2  0  0  0  0
  9  1  2  0  0  0  0
  9  8  1  0  0  0  0
 10  1  1  0  0  0  0
 14 15  1  0  0  0  0
 15 22  1  0  0  0  0
 15 16  2  0  0  0  0
 16 21  1  0  0  0  0
 17 16  1  0  0  0  0
 18 17  2  0  0  0  0
 19 14  2  0  0  0  0
 19 18  1  0  0  0  0
 20 14  1  0  0  0  0
 22 24  1  0  0  0  0
 23 22  1  0  0  0  0
 25 22  1  0  0  0  0
 26  9  1  0  0  0  0
 28 27  2  1  0  0  0
 28 26  1  0  0  0  0
 29 28  1  0  0  0  0
 30 29  1  0  0  0  0
 31 34  1  0  0  0  0
 31 28  1  0  0  0  0
 33 32  1  0  0  0  0
 34 33  1  0  0  0  0
 35 36  1  0  0  0  0
 35 34  2  0  0  0  0
 36 43  1  0  0  0  0
 37 39  1  0  0  0  0
 37 36  2  0  0  0  0
 38 37  1  0  0  0  0
 39 40  2  0  0  0  0
 40 41  1  0  0  0  0
 40 42  1  0  0  0  0
 43 33  1  0  0  0  0
 43 42  2  0  0  0  0
M  END
>  <minimizedAffinity>
-6.70309877

$$$$

 OpenBabel03242513433D

 43 47  0  0  0  0  0  0  0  0999 V2000
   42.0960   30.3410   40.1680 C   0  0  0  0  0  0  0  0  0  0  0  0
   41.3620   30.4130   41.3290 C   0  0  0  0  0  0  0  0  0  0  0  0
   41.6280   31.4410   42.2100 C   0  0  0  0  0  0  0  0  0  0  0  0
   42.5980   32.3890   41.9700 C   0  0  0  0  0  0  0  0  0  0  0  0
   43.1040   33.4820   42.5840 N   0  0  0  0  0  0  0  0  0  0  0  0
   44.0840   34.0380   41.8430 C   0  0  0  0  0  0  0  0  0  0  0  0
   44.1930   33.2780   40.7440 N   0  0  0  0  0  0  0  0  0  0  0  0
   43.3070   32.2740   40.7930 C   0  0  0  0  0  0  0  0  0  0  0  0
   43.0800   31.2710   39.8850 C   0  0  0  0  0  0  0  0  0  0  0  0
   41.8990   29.5410   39.4680 H   0  0  0  0  0  0  0  0  0  0  0  0
   41.0850   31.5550   43.1440 H   0  0  0  0  0  0  0  0  0  0  0  0
   42.7480   33.8050   43.5010 H   0  0  0  0  0  0  0  0  0  0  0  0
   44.6770   34.9260   42.0750 H   0  0  0  0  0  0  0  0  0  0  0  0
   38.3120   28.3970   41.1030 C   0  0  0  0  0  0  0  0  0  0  0  0
   38.4120   27.5630   42.2110 C   0  0  0  0  0  0  0  0  0  0  0  0
   39.5380   27.7170   43.0150 C   0  0  0  0  0  0  0  0  0  0  0  0
   40.4710   28.6480   42.7000 N   0  0  0  0  0  0  0  0  0  0  0  0
   40.3250   29.4270   41.6200 C   0  0  0  0  0  0  0  0  0  0  0  0
   39.2600   29.3170   40.8150 N   0  0  0  0  0  0  0  0  0  0  0  0
   37.4630   28.3400   40.4240 H   0  0  0  0  0  0  0  0  0  0  0  0
   39.6120   27.0650   43.8770 H   0  0  0  0  0  0  0  0  0  0  0  0
   37.3190   26.5800   42.4480 C   0  0  0  0  0  0  0  0  0  0  0  0
   37.9670   25.4010   42.7650 F   0  0  0  0  0  0  0  0  0  0  0  0
   36.6220   26.4290   41.2950 F   0  0  0  0  0  0  0  0  0  0  0  0
   36.5250   27.0590   43.4920 F   0  0  0  0  0  0  0  0  0  0  0  0
   43.8310   31.2160   38.7220 O   0  0  0  0  0  0  0  0  0  0  0  0
   42.8300   30.7770   36.3710 O   0  0  0  0  0  0  0  0  0  0  0  0
   43.3820   31.9130   37.2520 P   0  0  2  0  0  0  0  0  0  0  0  0
   44.7680   32.5160   36.5020 O   0  0  0  0  0  0  0  0  0  0  0  0
   45.0600   32.0000   35.7180 H   0  0  0  0  0  0  0  0  0  0  0  0
   42.1960   33.0880   37.4050 O   0  0  0  0  0  0  0  0  0  0  0  0
   40.3120   31.2550   36.3080 H   0  0  0  0  0  0  0  0  0  0  0  0
   40.0890   31.7620   37.1790 N   0  0  0  0  0  0  0  0  0  0  0  0
   40.9100   32.6480   37.7780 C   0  0  0  0  0  0  0  0  0  0  0  0
   40.2400   33.0790   38.8850 N   0  0  0  0  0  0  0  0  0  0  0  0
   39.0310   32.4670   38.9620 C   0  0  0  0  0  0  0  0  0  0  0  0
   38.0620   32.6340   39.9310 C   0  0  0  0  0  0  0  0  0  0  0  0
   38.2280   33.3250   40.7620 H   0  0  0  0  0  0  0  0  0  0  0  0
   36.9520   31.9020   39.7660 N   0  0  0  0  0  0  0  0  0  0  0  0
   36.8240   31.0590   38.6990 C   0  0  0  0  0  0  0  0  0  0  0  0
   35.8870   30.5200   38.6670 H   0  0  0  0  0  0  0  0  0  0  0  0
   37.8110   30.9460   37.7900 N   0  0  0  0  0  0  0  0  0  0  0  0
   38.9570   31.6440   37.8790 C   0  0  0  0  0  0  0  0  0  0  0  0
  1  2  1  0  0  0  0
  2 18  1  0  0  0  0
  2  3  2  0  0  0  0
  3 11  1  0  0  0  0
  4  3  1  0  0  0  0
  4  5  1  0  0  0  0
  5 12  1  0  0  0  0
  6 13  1  0  0  0  0
  6  5  1  0  0  0  0
  7  8  1  0  0  0  0
  7  6  2  0  0  0  0
  8  4  2  0  0  0  0
  9  1  2  0  0  0  0
  9  8  1  0  0  0  0
 10  1  1  0  0  0  0
 14 15  1  0  0  0  0
 15 22  1  0  0  0  0
 15 16  2  0  0  0  0
 16 21  1  0  0  0  0
 17 16  1  0  0  0  0
 18 17  2  0  0  0  0
 19 14  2  0  0  0  0
 19 18  1  0  0  0  0
 20 14  1  0  0  0  0
 22 23  1  0  0  0  0
 22 25  1  0  0  0  0
 24 22  1  0  0  0  0
 26  9  1  0  0  0  0
 28 27  2  6  0  0  0
 28 31  1  0  0  0  0
 28 26  1  0  0  0  0
 29 28  1  0  0  0  0
 30 29  1  0  0  0  0
 31 34  1  0  0  0  0
 32 33  1  0  0  0  0
 33 34  1  0  0  0  0
 33 43  1  0  0  0  0
 34 35  2  0  0  0  0
 35 36  1  0  0  0  0
 36 37  1  0  0  0  0
 37 38  1  0  0  0  0
 39 37  2  0  0  0  0
 40 39  1  0  0  0  0
 41 40  1  0  0  0  0
 42 43  1  0  0  0  0
 42 40  2  0  0  0  0
 43 36  2  0  0  0  0
M  END
>  <minimizedAffinity>
-6.56215763

$$$$

 OpenBabel03242513433D

 43 47  0  0  0  0  0  0  0  0999 V2000
   39.8710   30.0170   39.9440 C   0  0  0  0  0  0  0  0  0  0  0  0
   38.6680   29.6470   40.4960 C   0  0  0  0  0  0  0  0  0  0  0  0
   37.7170   30.6230   40.7120 C   0  0  0  0  0  0  0  0  0  0  0  0
   37.9320   31.9470   40.3960 C   0  0  0  0  0  0  0  0  0  0  0  0
   37.2560   33.1150   40.4680 N   0  0  0  0  0  0  0  0  0  0  0  0
   38.0030   34.1320   39.9900 C   0  0  0  0  0  0  0  0  0  0  0  0
   39.1680   33.5870   39.6110 N   0  0  0  0  0  0  0  0  0  0  0  0
   39.1550   32.2680   39.8450 C   0  0  0  0  0  0  0  0  0  0  0  0
   40.1310   31.3330   39.6110 C   0  0  0  0  0  0  0  0  0  0  0  0
   40.6260   29.2620   39.7690 H   0  0  0  0  0  0  0  0  0  0  0  0
   36.7470   30.3980   41.1450 H   0  0  0  0  0  0  0  0  0  0  0  0
   36.2950   33.1660   40.8490 H   0  0  0  0  0  0  0  0  0  0  0  0
   37.7300   35.1870   39.9170 H   0  0  0  0  0  0  0  0  0  0  0  0
   37.1880   26.6570   42.0110 C   0  0  0  0  0  0  0  0  0  0  0  0
   37.9480   25.6280   41.4650 C   0  0  0  0  0  0  0  0  0  0  0  0
   38.9590   25.9930   40.5800 C   0  0  0  0  0  0  0  0  0  0  0  0
   39.1640   27.3010   40.2900 N   0  0  0  0  0  0  0  0  0  0  0  0
   38.4020   28.2540   40.8450 C   0  0  0  0  0  0  0  0  0  0  0  0
   37.4170   27.9530   41.7010 N   0  0  0  0  0  0  0  0  0  0  0  0
   36.3780   26.4560   42.7100 H   0  0  0  0  0  0  0  0  0  0  0  0
   39.5480   25.1880   40.1570 H   0  0  0  0  0  0  0  0  0  0  0  0
   37.6230   24.2300   41.8640 C   0  0  0  0  0  0  0  0  0  0  0  0
   36.2730   24.2520   42.1570 F   0  0  0  0  0  0  0  0  0  0  0  0
   38.3340   23.9280   42.9780 F   0  0  0  0  0  0  0  0  0  0  0  0
   37.9320   23.3910   40.7910 F   0  0  0  0  0  0  0  0  0  0  0  0
   41.3370   31.7280   39.0540 O   0  0  0  0  0  0  0  0  0  0  0  0
   42.5930   33.0950   37.2440 O   0  0  0  0  0  0  0  0  0  0  0  0
   41.6190   31.9120   37.4000 P   0  0  2  0  0  0  0  0  0  0  0  0
   40.1680   32.3410   36.6560 O   0  0  0  0  0  0  0  0  0  0  0  0
   40.1290   33.2750   36.3530 H   0  0  0  0  0  0  0  0  0  0  0  0
   42.3100   30.5610   36.6870 O   0  0  0  0  0  0  0  0  0  0  0  0
   39.5710   29.8560   36.3530 H   0  0  0  0  0  0  0  0  0  0  0  0
   40.2650   29.1280   36.5860 N   0  0  0  0  0  0  0  0  0  0  0  0
   41.5810   29.3580   36.7640 C   0  0  0  0  0  0  0  0  0  0  0  0
   42.1310   28.1420   37.0520 N   0  0  0  0  0  0  0  0  0  0  0  0
   41.1670   27.1870   37.0510 C   0  0  0  0  0  0  0  0  0  0  0  0
   41.3180   25.8370   37.2960 C   0  0  0  0  0  0  0  0  0  0  0  0
   42.3050   25.4260   37.5240 H   0  0  0  0  0  0  0  0  0  0  0  0
   40.1930   25.1120   37.2300 N   0  0  0  0  0  0  0  0  0  0  0  0
   38.9980   25.7020   36.9380 C   0  0  0  0  0  0  0  0  0  0  0  0
   38.1580   25.0210   36.9120 H   0  0  0  0  0  0  0  0  0  0  0  0
   38.9230   27.0280   36.7090 N   0  0  0  0  0  0  0  0  0  0  0  0
   40.0020   27.8290   36.7550 C   0  0  0  0  0  0  0  0  0  0  0  0
  1  2  1  0  0  0  0
  2  3  2  0  0  0  0
  2 18  1  0  0  0  0
  3 11  1  0  0  0  0
  4  5  1  0  0  0  0
  4  3  1  0  0  0  0
  5 12  1  0  0  0  0
  6  5  1  0  0  0  0
  7  8  1  0  0  0  0
  7  6  2  0  0  0  0
  8  4  2  0  0  0  0
  9  8  1  0  0  0  0
  9  1  2  0  0  0  0
 10  1  1  0  0  0  0
 13  6  1  0  0  0  0
 14 20  1  0  0  0  0
 15 22  1  0  0  0  0
 15 14  2  0  0  0  0
 16 15  1  0  0  0  0
 17 16  2  0  0  0  0
 17 18  1  0  0  0  0
 18 19  2  0  0  0  0
 19 14  1  0  0  0  0
 21 16  1  0  0  0  0
 22 23  1  0  0  0  0
 22 24  1  0  0  0  0
 25 22  1  0  0  0  0
 26  9  1  0  0  0  0
 28 27  2  6  0  0  0
 28 26  1  0  0  0  0
 29 28  1  0  0  0  0
 30 29  1  0  0  0  0
 31 34  1  0  0  0  0
 31 28  1  0  0  0  0
 32 33  1  0  0  0  0
 33 43  1  0  0  0  0
 33 34  1  0  0  0  0
 34 35  2  0  0  0  0
 36 35  1  0  0  0  0
 36 37  1  0  0  0  0
 37 38  1  0  0  0  0
 39 37  2  0  0  0  0
 40 39  1  0  0  0  0
 41 40  1  0  0  0  0
 42 43  1  0  0  0  0
 42 40  2  0  0  0  0
 43 36  2  0  0  0  0
M  END
>  <minimizedAffinity>
-6.47600412

$$$$

 OpenBabel03242513433D

 43 47  0  0  0  0  0  0  0  0999 V2000
   40.0690   30.7750   40.4460 C   0  0  0  0  0  0  0  0  0  0  0  0
   40.2450   29.9770   41.5520 C   0  0  0  0  0  0  0  0  0  0  0  0
   41.1730   30.3620   42.4970 C   0  0  0  0  0  0  0  0  0  0  0  0
   41.9260   31.5090   42.3720 C   0  0  0  0  0  0  0  0  0  0  0  0
   42.8810   32.1600   43.0710 N   0  0  0  0  0  0  0  0  0  0  0  0
   43.2620   33.2840   42.4300 C   0  0  0  0  0  0  0  0  0  0  0  0
   42.5300   33.3360   41.3080 N   0  0  0  0  0  0  0  0  0  0  0  0
   41.7130   32.2760   41.2460 C   0  0  0  0  0  0  0  0  0  0  0  0
   40.8010   31.9360   40.2780 C   0  0  0  0  0  0  0  0  0  0  0  0
   39.3440   30.4870   39.6970 H   0  0  0  0  0  0  0  0  0  0  0  0
   41.3610   29.7760   43.3930 H   0  0  0  0  0  0  0  0  0  0  0  0
   43.2370   31.8000   43.9740 H   0  0  0  0  0  0  0  0  0  0  0  0
   44.0110   34.0140   42.7460 H   0  0  0  0  0  0  0  0  0  0  0  0
   38.0800   27.1040   40.8620 C   0  0  0  0  0  0  0  0  0  0  0  0
   38.0240   26.4580   42.0930 C   0  0  0  0  0  0  0  0  0  0  0  0
   38.7410   27.0340   43.1380 C   0  0  0  0  0  0  0  0  0  0  0  0
   39.4470   28.1710   42.9280 N   0  0  0  0  0  0  0  0  0  0  0  0
   39.4670   28.7530   41.7210 C   0  0  0  0  0  0  0  0  0  0  0  0
   38.7940   28.2380   40.6840 N   0  0  0  0  0  0  0  0  0  0  0  0
   37.5480   26.7180   39.9940 H   0  0  0  0  0  0  0  0  0  0  0  0
   38.6950   26.5270   44.0940 H   0  0  0  0  0  0  0  0  0  0  0  0
   37.2120   25.2140   42.1940 C   0  0  0  0  0  0  0  0  0  0  0  0
   36.7070   25.0180   40.9240 F   0  0  0  0  0  0  0  0  0  0  0  0
   36.1970   25.4360   43.0660 F   0  0  0  0  0  0  0  0  0  0  0  0
   38.0550   24.1800   42.6090 F   0  0  0  0  0  0  0  0  0  0  0  0
   40.6400   32.7550   39.1720 O   0  0  0  0  0  0  0  0  0  0  0  0
   42.0780   33.5650   37.1720 O   0  0  0  0  0  0  0  0  0  0  0  0
   41.1850   32.3910   37.6170 P   0  0  2  0  0  0  0  0  0  0  0  0
   39.8530   32.3390   36.5840 O   0  0  0  0  0  0  0  0  0  0  0  0
   39.7950   33.0970   35.9600 H   0  0  0  0  0  0  0  0  0  0  0  0
   42.0900   30.9820   37.5400 O   0  0  0  0  0  0  0  0  0  0  0  0
   39.3480   30.3160   37.1530 H   0  0  0  0  0  0  0  0  0  0  0  0
   40.0690   29.5810   37.0930 N   0  0  0  0  0  0  0  0  0  0  0  0
   41.3900   29.7910   37.2600 C   0  0  0  0  0  0  0  0  0  0  0  0
   41.9790   28.5710   37.1010 N   0  0  0  0  0  0  0  0  0  0  0  0
   41.0350   27.6310   36.8410 C   0  0  0  0  0  0  0  0  0  0  0  0
   41.2270   26.2820   36.6200 C   0  0  0  0  0  0  0  0  0  0  0  0
   42.2350   25.8580   36.6430 H   0  0  0  0  0  0  0  0  0  0  0  0
   40.1140   25.5740   36.3850 N   0  0  0  0  0  0  0  0  0  0  0  0
   38.8910   26.1800   36.3730 C   0  0  0  0  0  0  0  0  0  0  0  0
   38.0640   25.5130   36.1740 H   0  0  0  0  0  0  0  0  0  0  0  0
   38.7770   27.5040   36.5970 N   0  0  0  0  0  0  0  0  0  0  0  0
   39.8420   28.2880   36.8410 C   0  0  0  0  0  0  0  0  0  0  0  0
  1  2  1  0  0  0  0
  2 18  1  0  0  0  0
  2  3  2  0  0  0  0
  3 11  1  0  0  0  0
  4  3  1  0  0  0  0
  4  5  1  0  0  0  0
  5 12  1  0  0  0  0
  6 13  1  0  0  0  0
  6  5  1  0  0  0  0
  7  6  2  0  0  0  0
  8  7  1  0  0  0  0
  8  4  2  0  0  0  0
  9  1  2  0  0  0  0
  9  8  1  0  0  0  0
 10  1  1  0  0  0  0
 14 15  1  0  0  0  0
 15 22  1  0  0  0  0
 15 16  2  0  0  0  0
 16 21  1  0  0  0  0
 17 16  1  0  0  0  0
 18 17  2  0  0  0  0
 19 14  2  0  0  0  0
 19 18  1  0  0  0  0
 20 14  1  0  0  0  0
 22 25  1  0  0  0  0
 22 24  1  0  0  0  0
 23 22  1  0  0  0  0
 26  9  1  0  0  0  0
 28 27  2  6  0  0  0
 28 26  1  0  0  0  0
 29 28  1  0  0  0  0
 30 29  1  0  0  0  0
 31 28  1  0  0  0  0
 33 32  1  0  0  0  0
 33 34  1  0  0  0  0
 34 31  1  0  0  0  0
 35 34  2  0  0  0  0
 36 35  1  0  0  0  0
 37 38  1  0  0  0  0
 37 36  2  0  0  0  0
 39 37  1  0  0  0  0
 40 39  2  0  0  0  0
 40 42  1  0  0  0  0
 41 40  1  0  0  0  0
 42 43  2  0  0  0  0
 43 36  1  0  0  0  0
 43 33  1  0  0  0  0
M  END
>  <minimizedAffinity>
-6.47444296

$$$$

 OpenBabel03242513433D

 43 47  0  0  0  0  0  0  0  0999 V2000
   41.1760   30.4750   40.3150 C   0  0  0  0  0  0  0  0  0  0  0  0
   40.8700   29.9860   41.5630 C   0  0  0  0  0  0  0  0  0  0  0  0
   41.4680   30.5690   42.6610 C   0  0  0  0  0  0  0  0  0  0  0  0
   42.3550   31.6170   42.5510 C   0  0  0  0  0  0  0  0  0  0  0  0
   43.0940   32.3940   43.3740 N   0  0  0  0  0  0  0  0  0  0  0  0
   43.8050   33.2990   42.6700 C   0  0  0  0  0  0  0  0  0  0  0  0
   43.5030   33.0830   41.3810 N   0  0  0  0  0  0  0  0  0  0  0  0
   42.6290   32.0730   41.2790 C   0  0  0  0  0  0  0  0  0  0  0  0
   42.0610   31.5260   40.1560 C   0  0  0  0  0  0  0  0  0  0  0  0
   40.7150   30.0280   39.4450 H   0  0  0  0  0  0  0  0  0  0  0  0
   41.2700   30.2300   43.6740 H   0  0  0  0  0  0  0  0  0  0  0  0
   43.0790   32.2680   44.4020 H   0  0  0  0  0  0  0  0  0  0  0  0
   44.4890   34.0590   43.0540 H   0  0  0  0  0  0  0  0  0  0  0  0
   38.8560   27.3150   43.0570 C   0  0  0  0  0  0  0  0  0  0  0  0
   38.1720   26.7970   41.9630 C   0  0  0  0  0  0  0  0  0  0  0  0
   38.4240   27.3870   40.7270 C   0  0  0  0  0  0  0  0  0  0  0  0
   39.3010   28.4150   40.6340 N   0  0  0  0  0  0  0  0  0  0  0  0
   39.9350   28.8760   41.7220 C   0  0  0  0  0  0  0  0  0  0  0  0
   39.7260   28.3420   42.9330 N   0  0  0  0  0  0  0  0  0  0  0  0
   38.7150   26.9110   44.0580 H   0  0  0  0  0  0  0  0  0  0  0  0
   37.8880   26.9800   39.8780 H   0  0  0  0  0  0  0  0  0  0  0  0
   37.2330   25.6650   42.1960 C   0  0  0  0  0  0  0  0  0  0  0  0
   36.3750   26.1160   43.1800 F   0  0  0  0  0  0  0  0  0  0  0  0
   37.9460   24.6050   42.6530 F   0  0  0  0  0  0  0  0  0  0  0  0
   36.5800   25.3890   40.9920 F   0  0  0  0  0  0  0  0  0  0  0  0
   42.3830   32.0350   38.9080 O   0  0  0  0  0  0  0  0  0  0  0  0
   42.3330   33.9030   37.1110 O   0  0  0  0  0  0  0  0  0  0  0  0
   41.3990   33.0670   38.0060 P   0  0  2  0  0  0  0  0  0  0  0  0
   40.6210   34.1240   39.0650 O   0  0  0  0  0  0  0  0  0  0  0  0
   40.9520   35.0490   39.0290 H   0  0  0  0  0  0  0  0  0  0  0  0
   40.3090   32.2580   37.0210 O   0  0  0  0  0  0  0  0  0  0  0  0
   38.5910   30.0730   36.3990 H   0  0  0  0  0  0  0  0  0  0  0  0
   38.4480   30.6090   37.2690 N   0  0  0  0  0  0  0  0  0  0  0  0
   39.2030   31.6570   37.6540 C   0  0  0  0  0  0  0  0  0  0  0  0
   38.6820   32.0680   38.8460 N   0  0  0  0  0  0  0  0  0  0  0  0
   37.6260   31.2850   39.1830 C   0  0  0  0  0  0  0  0  0  0  0  0
   36.8340   31.3780   40.3100 C   0  0  0  0  0  0  0  0  0  0  0  0
   37.0290   32.1520   41.0580 H   0  0  0  0  0  0  0  0  0  0  0  0
   35.8500   30.4720   40.3980 N   0  0  0  0  0  0  0  0  0  0  0  0
   35.6740   29.5360   39.4200 C   0  0  0  0  0  0  0  0  0  0  0  0
   34.8510   28.8570   39.5940 H   0  0  0  0  0  0  0  0  0  0  0  0
   36.4860   29.5030   38.3450 N   0  0  0  0  0  0  0  0  0  0  0  0
   37.4970   30.3750   38.1780 C   0  0  0  0  0  0  0  0  0  0  0  0
  1  2  1  0  0  0  0
  2 18  1  0  0  0  0
  2  3  2  0  0  0  0
  3 11  1  0  0  0  0
  4  3  1  0  0  0  0
  4  5  1  0  0  0  0
  5 12  1  0  0  0  0
  6 13  1  0  0  0  0
  6  5  1  0  0  0  0
  7  6  2  0  0  0  0
  8  7  1  0  0  0  0
  8  4  2  0  0  0  0
  9  1  2  0  0  0  0
  9  8  1  0  0  0  0
 10  1  1  0  0  0  0
 14 20  1  0  0  0  0
 15 22  1  0  0  0  0
 15 14  2  0  0  0  0
 16 15  1  0  0  0  0
 17 16  2  0  0  0  0
 17 18  1  0  0  0  0
 18 19  2  0  0  0  0
 19 14  1  0  0  0  0
 21 16  1  0  0  0  0
 22 24  1  0  0  0  0
 22 23  1  0  0  0  0
 25 22  1  0  0  0  0
 26  9  1  0  0  0  0
 28 27  2  6  0  0  0
 28 26  1  0  0  0  0
 28 29  1  0  0  0  0
 30 29  1  0  0  0  0
 31 34  1  0  0  0  0
 31 28  1  0  0  0  0
 32 33  1  0  0  0  0
 33 34  1  0  0  0  0
 33 43  1  0  0  0  0
 34 35  2  0  0  0  0
 35 36  1  0  0  0  0
 36 37  1  0  0  0  0
 37 39  2  0  0  0  0
 37 38  1  0  0  0  0
 40 41  1  0  0  0  0
 40 39  1  0  0  0  0
 42 40  2  0  0  0  0
 43 42  1  0  0  0  0
 43 36  2  0  0  0  0
M  END
>  <minimizedAffinity>
-6.40354109

$$$$

 OpenBabel03242513433D

 43 47  0  0  0  0  0  0  0  0999 V2000
   37.2820   29.2750   38.3950 C   0  0  0  0  0  0  0  0  0  0  0  0
   37.4580   27.9780   37.9740 C   0  0  0  0  0  0  0  0  0  0  0  0
   37.3460   27.7060   36.6260 C   0  0  0  0  0  0  0  0  0  0  0  0
   37.0650   28.6810   35.6950 C   0  0  0  0  0  0  0  0  0  0  0  0
   36.8910   28.7680   34.3570 N   0  0  0  0  0  0  0  0  0  0  0  0
   36.6260   30.0390   33.9890 C   0  0  0  0  0  0  0  0  0  0  0  0
   36.6340   30.7600   35.1200 N   0  0  0  0  0  0  0  0  0  0  0  0
   36.8970   29.9660   36.1670 C   0  0  0  0  0  0  0  0  0  0  0  0
   36.9990   30.2870   37.4970 C   0  0  0  0  0  0  0  0  0  0  0  0
   37.3660   29.5040   39.4490 H   0  0  0  0  0  0  0  0  0  0  0  0
   37.4740   26.7030   36.2270 H   0  0  0  0  0  0  0  0  0  0  0  0
   36.9640   27.9380   33.7430 H   0  0  0  0  0  0  0  0  0  0  0  0
   36.4410   30.4200   32.9830 H   0  0  0  0  0  0  0  0  0  0  0  0
   37.0670   25.1770   40.3010 C   0  0  0  0  0  0  0  0  0  0  0  0
   38.3720   24.9390   40.7190 C   0  0  0  0  0  0  0  0  0  0  0  0
   39.3620   25.7580   40.1830 C   0  0  0  0  0  0  0  0  0  0  0  0
   39.0310   26.7290   39.2990 N   0  0  0  0  0  0  0  0  0  0  0  0
   37.7570   26.9160   38.9300 C   0  0  0  0  0  0  0  0  0  0  0  0
   36.7680   26.1550   39.4170 N   0  0  0  0  0  0  0  0  0  0  0  0
   36.2340   24.5810   40.6720 H   0  0  0  0  0  0  0  0  0  0  0  0
   40.3770   25.5690   40.5110 H   0  0  0  0  0  0  0  0  0  0  0  0
   38.6050   23.8400   41.6960 C   0  0  0  0  0  0  0  0  0  0  0  0
   37.5600   23.9380   42.5940 F   0  0  0  0  0  0  0  0  0  0  0  0
   39.7820   24.0720   42.3290 F   0  0  0  0  0  0  0  0  0  0  0  0
   38.6060   22.6320   40.9950 F   0  0  0  0  0  0  0  0  0  0  0  0
   36.8170   31.6010   37.9000 O   0  0  0  0  0  0  0  0  0  0  0  0
   37.1190   33.7600   39.3020 O   0  0  0  0  0  0  0  0  0  0  0  0
   37.3530   32.2400   39.3680 P   0  0  2  0  0  0  0  0  0  0  0  0
   39.0150   31.9810   39.4870 O   0  0  0  0  0  0  0  0  0  0  0  0
   39.5590   32.7940   39.3860 H   0  0  0  0  0  0  0  0  0  0  0  0
   36.5310   31.6360   40.6980 O   0  0  0  0  0  0  0  0  0  0  0  0
   35.5680   29.2660   41.9500 H   0  0  0  0  0  0  0  0  0  0  0  0
   36.5790   29.4740   41.9500 N   0  0  0  0  0  0  0  0  0  0  0  0
   37.1350   30.5650   41.3870 C   0  0  0  0  0  0  0  0  0  0  0  0
   38.4760   30.4520   41.6100 N   0  0  0  0  0  0  0  0  0  0  0  0
   38.7350   29.3110   42.2980 C   0  0  0  0  0  0  0  0  0  0  0  0
   39.9640   28.8400   42.7150 C   0  0  0  0  0  0  0  0  0  0  0  0
   40.8740   29.4050   42.4960 H   0  0  0  0  0  0  0  0  0  0  0  0
   39.9370   27.6770   43.3820 N   0  0  0  0  0  0  0  0  0  0  0  0
   38.7570   27.0330   43.6140 C   0  0  0  0  0  0  0  0  0  0  0  0
   38.8550   26.1050   44.1600 H   0  0  0  0  0  0  0  0  0  0  0  0
   37.5920   27.5510   43.1770 N   0  0  0  0  0  0  0  0  0  0  0  0
   37.5290   28.7120   42.5010 C   0  0  0  0  0  0  0  0  0  0  0  0
  1 10  1  0  0  0  0
  2  1  1  0  0  0  0
  2 18  1  0  0  0  0
  3  2  2  0  0  0  0
  4  8  2  0  0  0  0
  4  3  1  0  0  0  0
  5  4  1  0  0  0  0
  6  5  1  0  0  0  0
  6  7  2  0  0  0  0
  7  8  1  0  0  0  0
  8  9  1  0  0  0  0
  9 26  1  0  0  0  0
  9  1  2  0  0  0  0
 11  3  1  0  0  0  0
 12  5  1  0  0  0  0
 13  6  1  0  0  0  0
 14 20  1  0  0  0  0
 14 15  1  0  0  0  0
 15 22  1  0  0  0  0
 16 21  1  0  0  0  0
 16 15  2  0  0  0  0
 17 16  1  0  0  0  0
 18 17  2  0  0  0  0
 18 19  1  0  0  0  0
 19 14  2  0  0  0  0
 22 24  1  0  0  0  0
 22 23  1  0  0  0  0
 25 22  1  0  0  0  0
 26 28  1  0  0  0  0
 28 27  2  6  0  0  0
 28 29  1  0  0  0  0
 28 31  1  0  0  0  0
 30 29  1  0  0  0  0
 31 34  1  0  0  0  0
 32 33  1  0  0  0  0
 33 43  1  0  0  0  0
 34 35  2  0  0  0  0
 34 33  1  0  0  0  0
 35 36  1  0  0  0  0
 36 43  2  0  0  0  0
 36 37  1  0  0  0  0
 37 39  2  0  0  0  0
 38 37  1  0  0  0  0
 39 40  1  0  0  0  0
 40 41  1  0  0  0  0
 42 40  2  0  0  0  0
 43 42  1  0  0  0  0
M  END
>  <minimizedAffinity>
-6.32214355

$$$$

 OpenBabel03242513433D

 43 47  0  0  0  0  0  0  0  0999 V2000
   40.0010   31.6370   39.7520 C   0  0  0  0  0  0  0  0  0  0  0  0
   39.4120   31.5980   38.5100 C   0  0  0  0  0  0  0  0  0  0  0  0
   40.0400   32.2450   37.4660 C   0  0  0  0  0  0  0  0  0  0  0  0
   41.2270   32.9240   37.6230 C   0  0  0  0  0  0  0  0  0  0  0  0
   42.0820   33.6380   36.8570 N   0  0  0  0  0  0  0  0  0  0  0  0
   43.1250   34.0830   37.5870 C   0  0  0  0  0  0  0  0  0  0  0  0
   42.9180   33.6380   38.8350 N   0  0  0  0  0  0  0  0  0  0  0  0
   41.7790   32.9340   38.8880 C   0  0  0  0  0  0  0  0  0  0  0  0
   41.1930   32.3060   39.9580 C   0  0  0  0  0  0  0  0  0  0  0  0
   39.5200   31.1340   40.5810 H   0  0  0  0  0  0  0  0  0  0  0  0
   39.6270   32.2520   36.4610 H   0  0  0  0  0  0  0  0  0  0  0  0
   41.9100   33.7910   35.8480 H   0  0  0  0  0  0  0  0  0  0  0  0
   43.9730   34.6820   37.2490 H   0  0  0  0  0  0  0  0  0  0  0  0
   36.2470   29.8630   39.1400 C   0  0  0  0  0  0  0  0  0  0  0  0
   35.8020   29.5600   37.8580 C   0  0  0  0  0  0  0  0  0  0  0  0
   36.6110   29.9650   36.7990 C   0  0  0  0  0  0  0  0  0  0  0  0
   37.7700   30.6210   37.0460 N   0  0  0  0  0  0  0  0  0  0  0  0
   38.1530   30.8880   38.3030 C   0  0  0  0  0  0  0  0  0  0  0  0
   37.4100   30.5200   39.3540 N   0  0  0  0  0  0  0  0  0  0  0  0
   35.6730   29.5820   40.0220 H   0  0  0  0  0  0  0  0  0  0  0  0
   36.2600   29.7270   35.8020 H   0  0  0  0  0  0  0  0  0  0  0  0
   34.5090   28.8350   37.7190 C   0  0  0  0  0  0  0  0  0  0  0  0
   34.8620   27.5060   37.5860 F   0  0  0  0  0  0  0  0  0  0  0  0
   33.8960   29.2660   36.5890 F   0  0  0  0  0  0  0  0  0  0  0  0
   33.7490   29.0820   38.8640 F   0  0  0  0  0  0  0  0  0  0  0  0
   41.8040   32.3580   41.2000 O   0  0  0  0  0  0  0  0  0  0  0  0
   42.6800   31.5410   43.4990 O   0  0  0  0  0  0  0  0  0  0  0  0
   41.7110   31.1450   42.3700 P   0  0  2  0  0  0  0  0  0  0  0  0
   42.2740   29.7070   41.6920 O   0  0  0  0  0  0  0  0  0  0  0  0
   43.1520   29.4170   42.0280 H   0  0  0  0  0  0  0  0  0  0  0  0
   40.1790   30.9670   43.0270 O   0  0  0  0  0  0  0  0  0  0  0  0
   37.6450   30.2740   41.9280 H   0  0  0  0  0  0  0  0  0  0  0  0
   38.2930   29.5320   42.2350 N   0  0  0  0  0  0  0  0  0  0  0  0
   39.5120   29.7540   42.7660 C   0  0  0  0  0  0  0  0  0  0  0  0
   40.0290   28.5190   43.0280 N   0  0  0  0  0  0  0  0  0  0  0  0
   39.1420   27.5590   42.6630 C   0  0  0  0  0  0  0  0  0  0  0  0
   39.2910   26.1900   42.7670 C   0  0  0  0  0  0  0  0  0  0  0  0
   40.2090   25.7660   43.1830 H   0  0  0  0  0  0  0  0  0  0  0  0
   38.2530   25.4640   42.3290 N   0  0  0  0  0  0  0  0  0  0  0  0
   37.1410   26.0720   41.8210 C   0  0  0  0  0  0  0  0  0  0  0  0
   36.3680   25.3890   41.4990 H   0  0  0  0  0  0  0  0  0  0  0  0
   37.0630   27.4150   41.7490 N   0  0  0  0  0  0  0  0  0  0  0  0
   38.0580   28.2180   42.1670 C   0  0  0  0  0  0  0  0  0  0  0  0
  1  9  1  0  0  0  0
  1 10  1  0  0  0  0
  2  1  2  0  0  0  0
  3  4  2  0  0  0  0
  3  2  1  0  0  0  0
  4  8  1  0  0  0  0
  5  6  1  0  0  0  0
  5  4  1  0  0  0  0
  6  7  2  0  0  0  0
  7  8  1  0  0  0  0
  8  9  2  0  0  0  0
  9 26  1  0  0  0  0
 11  3  1  0  0  0  0
 12  5  1  0  0  0  0
 13  6  1  0  0  0  0
 14 19  1  0  0  0  0
 14 20  1  0  0  0  0
 15 14  2  0  0  0  0
 16 17  2  0  0  0  0
 16 15  1  0  0  0  0
 17 18  1  0  0  0  0
 18  2  1  0  0  0  0
 18 19  2  0  0  0  0
 21 16  1  0  0  0  0
 22 15  1  0  0  0  0
 22 25  1  0  0  0  0
 23 22  1  0  0  0  0
 24 22  1  0  0  0  0
 26 28  1  0  0  0  0
 28 31  1  0  0  0  0
 28 27  2  1  0  0  0
 29 30  1  0  0  0  0
 29 28  1  0  0  0  0
 32 33  1  0  0  0  0
 33 34  1  0  0  0  0
 34 31  1  0  0  0  0
 34 35  2  0  0  0  0
 36 37  1  0  0  0  0
 36 35  1  0  0  0  0
 37 38  1  0  0  0  0
 39 37  2  0  0  0  0
 40 39  1  0  0  0  0
 41 40  1  0  0  0  0
 42 40  2  0  0  0  0
 42 43  1  0  0  0  0
 43 33  1  0  0  0  0
 43 36  2  0  0  0  0
M  END
>  <minimizedAffinity>
-6.29209661

$$$$

 OpenBabel03242513433D

 43 47  0  0  0  0  0  0  0  0999 V2000
   36.5220   28.2100   39.0010 C   0  0  0  0  0  0  0  0  0  0  0  0
   36.6210   27.6990   37.7280 C   0  0  0  0  0  0  0  0  0  0  0  0
   36.7830   26.3370   37.5790 C   0  0  0  0  0  0  0  0  0  0  0  0
   36.8510   25.4780   38.6530 C   0  0  0  0  0  0  0  0  0  0  0  0
   36.9990   24.1510   38.8660 N   0  0  0  0  0  0  0  0  0  0  0  0
   36.9910   23.8740   40.1860 C   0  0  0  0  0  0  0  0  0  0  0  0
   36.8350   25.0500   40.8100 N   0  0  0  0  0  0  0  0  0  0  0  0
   36.7470   26.0380   39.9090 C   0  0  0  0  0  0  0  0  0  0  0  0
   36.5840   27.3850   40.1100 C   0  0  0  0  0  0  0  0  0  0  0  0
   36.3940   29.2760   39.1340 H   0  0  0  0  0  0  0  0  0  0  0  0
   36.8680   25.8700   36.6010 H   0  0  0  0  0  0  0  0  0  0  0  0
   37.1010   23.4820   38.0830 H   0  0  0  0  0  0  0  0  0  0  0  0
   37.0900   22.8970   40.6660 H   0  0  0  0  0  0  0  0  0  0  0  0
   36.6760   30.6910   35.6150 C   0  0  0  0  0  0  0  0  0  0  0  0
   36.4170   30.1780   34.3490 C   0  0  0  0  0  0  0  0  0  0  0  0
   36.2280   28.8020   34.2540 C   0  0  0  0  0  0  0  0  0  0  0  0
   36.3010   28.0320   35.3660 N   0  0  0  0  0  0  0  0  0  0  0  0
   36.5540   28.5780   36.5640 C   0  0  0  0  0  0  0  0  0  0  0  0
   36.7430   29.8960   36.7070 N   0  0  0  0  0  0  0  0  0  0  0  0
   36.8360   31.7560   35.7750 H   0  0  0  0  0  0  0  0  0  0  0  0
   36.0270   28.4070   33.2660 H   0  0  0  0  0  0  0  0  0  0  0  0
   36.3630   31.1310   33.2060 C   0  0  0  0  0  0  0  0  0  0  0  0
   37.3820   32.0310   33.4480 F   0  0  0  0  0  0  0  0  0  0  0  0
   35.1660   31.7670   33.2360 F   0  0  0  0  0  0  0  0  0  0  0  0
   36.5500   30.4040   32.0280 F   0  0  0  0  0  0  0  0  0  0  0  0
   36.4870   27.8790   41.4010 O   0  0  0  0  0  0  0  0  0  0  0  0
   38.8600   28.8770   41.7100 O   0  0  0  0  0  0  0  0  0  0  0  0
   37.3790   29.1790   42.0040 P   0  0  2  0  0  0  0  0  0  0  0  0
   37.1880   29.2240   43.6790 O   0  0  0  0  0  0  0  0  0  0  0  0
   37.9860   28.9520   44.1850 H   0  0  0  0  0  0  0  0  0  0  0  0
   36.9870   30.6450   41.2920 O   0  0  0  0  0  0  0  0  0  0  0  0
   38.1920   30.0780   38.7740 H   0  0  0  0  0  0  0  0  0  0  0  0
   38.4920   30.9050   39.3130 N   0  0  0  0  0  0  0  0  0  0  0  0
   37.9860   31.2600   40.5110 C   0  0  0  0  0  0  0  0  0  0  0  0
   38.6500   32.3970   40.8680 N   0  0  0  0  0  0  0  0  0  0  0  0
   39.5460   32.7310   39.9050 C   0  0  0  0  0  0  0  0  0  0  0  0
   40.4070   33.8100   39.8920 C   0  0  0  0  0  0  0  0  0  0  0  0
   40.4160   34.5170   40.7270 H   0  0  0  0  0  0  0  0  0  0  0  0
   41.1930   33.9060   38.8110 N   0  0  0  0  0  0  0  0  0  0  0  0
   41.1180   32.9810   37.8100 C   0  0  0  0  0  0  0  0  0  0  0  0
   41.7980   33.1570   36.9880 H   0  0  0  0  0  0  0  0  0  0  0  0
   40.2530   31.9510   37.8880 N   0  0  0  0  0  0  0  0  0  0  0  0
   39.4300   31.7790   38.9380 C   0  0  0  0  0  0  0  0  0  0  0  0
  1 10  1  0  0  0  0
  1  9  1  0  0  0  0
  2  1  2  0  0  0  0
  3  2  1  0  0  0  0
  3  4  2  0  0  0  0
  4  5  1  0  0  0  0
  4  8  1  0  0  0  0
  5  6  1  0  0  0  0
  6 13  1  0  0  0  0
  6  7  2  0  0  0  0
  8  9  2  0  0  0  0
  8  7  1  0  0  0  0
  9 26  1  0  0  0  0
 11  3  1  0  0  0  0
 12  5  1  0  0  0  0
 14 20  1  0  0  0  0
 14 19  1  0  0  0  0
 15 14  2  0  0  0  0
 16 15  1  0  0  0  0
 16 17  2  0  0  0  0
 17 18  1  0  0  0  0
 18 19  2  0  0  0  0
 18  2  1  0  0  0  0
 21 16  1  0  0  0  0
 22 24  1  0  0  0  0
 22 23  1  0  0  0  0
 22 15  1  0  0  0  0
 25 22  1  0  0  0  0
 26 28  1  0  0  0  0
 28 27  2  6  0  0  0
 28 29  1  0  0  0  0
 29 30  1  0  0  0  0
 31 28  1  0  0  0  0
 32 33  1  0  0  0  0
 33 34  1  0  0  0  0
 34 35  2  0  0  0  0
 34 31  1  0  0  0  0
 36 35  1  0  0  0  0
 37 36  1  0  0  0  0
 37 38  1  0  0  0  0
 39 37  2  0  0  0  0
 40 42  2  0  0  0  0
 40 39  1  0  0  0  0
 41 40  1  0  0  0  0
 42 43  1  0  0  0  0
 43 33  1  0  0  0  0
 43 36  2  0  0  0  0
M  END
>  <minimizedAffinity>
-6.24068356

$$$$

 OpenBabel03242513433D

 43 47  0  0  0  0  0  0  0  0999 V2000
   37.1890   29.8120   38.2760 C   0  0  0  0  0  0  0  0  0  0  0  0
   35.9430   29.3520   38.6280 C   0  0  0  0  0  0  0  0  0  0  0  0
   35.6970   29.0730   39.9570 C   0  0  0  0  0  0  0  0  0  0  0  0
   36.6520   29.2390   40.9360 C   0  0  0  0  0  0  0  0  0  0  0  0
   36.7540   29.0720   42.2740 N   0  0  0  0  0  0  0  0  0  0  0  0
   37.9860   29.4100   42.7070 C   0  0  0  0  0  0  0  0  0  0  0  0
   38.6670   29.7960   41.6180 N   0  0  0  0  0  0  0  0  0  0  0  0
   37.8870   29.7030   40.5330 C   0  0  0  0  0  0  0  0  0  0  0  0
   38.1790   29.9940   39.2250 C   0  0  0  0  0  0  0  0  0  0  0  0
   37.3970   30.0350   37.2380 H   0  0  0  0  0  0  0  0  0  0  0  0
   34.7340   28.7070   40.3010 H   0  0  0  0  0  0  0  0  0  0  0  0
   35.9600   28.7280   42.8410 H   0  0  0  0  0  0  0  0  0  0  0  0
   38.3670   29.3820   43.7300 H   0  0  0  0  0  0  0  0  0  0  0  0
   32.6780   28.8530   37.0420 C   0  0  0  0  0  0  0  0  0  0  0  0
   32.9970   28.8110   35.6890 C   0  0  0  0  0  0  0  0  0  0  0  0
   34.3410   28.9570   35.3540 C   0  0  0  0  0  0  0  0  0  0  0  0
   35.2650   29.1290   36.3290 N   0  0  0  0  0  0  0  0  0  0  0  0
   34.9040   29.1630   37.6200 C   0  0  0  0  0  0  0  0  0  0  0  0
   33.6250   29.0270   37.9920 N   0  0  0  0  0  0  0  0  0  0  0  0
   31.6510   28.7470   37.3870 H   0  0  0  0  0  0  0  0  0  0  0  0
   34.5840   28.9230   34.2990 H   0  0  0  0  0  0  0  0  0  0  0  0
   31.8880   28.6150   34.7140 C   0  0  0  0  0  0  0  0  0  0  0  0
   30.8110   28.2180   35.4810 F   0  0  0  0  0  0  0  0  0  0  0  0
   32.2400   27.6220   33.8600 F   0  0  0  0  0  0  0  0  0  0  0  0
   31.6700   29.8290   34.0590 F   0  0  0  0  0  0  0  0  0  0  0  0
   39.4420   30.4570   38.8920 O   0  0  0  0  0  0  0  0  0  0  0  0
   38.8130   32.9350   39.3220 O   0  0  0  0  0  0  0  0  0  0  0  0
   39.8170   32.0650   38.5430 P   0  0  2  0  0  0  0  0  0  0  0  0
   39.5560   32.3290   36.8980 O   0  0  0  0  0  0  0  0  0  0  0  0
   38.7680   32.8810   36.6970 H   0  0  0  0  0  0  0  0  0  0  0  0
   41.3670   32.5050   39.0070 O   0  0  0  0  0  0  0  0  0  0  0  0
   44.0940   33.2780   38.7300 H   0  0  0  0  0  0  0  0  0  0  0  0
   43.6940   32.5690   38.0960 N   0  0  0  0  0  0  0  0  0  0  0  0
   42.4180   32.1350   38.1440 C   0  0  0  0  0  0  0  0  0  0  0  0
   42.3060   31.2110   37.1470 N   0  0  0  0  0  0  0  0  0  0  0  0
   43.4930   31.0820   36.5010 C   0  0  0  0  0  0  0  0  0  0  0  0
   43.7880   30.2530   35.4380 C   0  0  0  0  0  0  0  0  0  0  0  0
   43.0180   29.5960   35.0210 H   0  0  0  0  0  0  0  0  0  0  0  0
   45.0470   30.3230   34.9850 N   0  0  0  0  0  0  0  0  0  0  0  0
   45.9490   31.1700   35.5620 C   0  0  0  0  0  0  0  0  0  0  0  0
   46.9340   31.1440   35.1160 H   0  0  0  0  0  0  0  0  0  0  0  0
   45.5930   31.9530   36.5990 N   0  0  0  0  0  0  0  0  0  0  0  0
   44.3500   31.9450   37.1140 C   0  0  0  0  0  0  0  0  0  0  0  0
  1  2  2  0  0  0  0
  1  9  1  0  0  0  0
  2  3  1  0  0  0  0
  3 11  1  0  0  0  0
  3  4  2  0  0  0  0
  4  5  1  0  0  0  0
  5  6  1  0  0  0  0
  5 12  1  0  0  0  0
  6 13  1  0  0  0  0
  7  6  2  0  0  0  0
  8  4  1  0  0  0  0
  8  7  1  0  0  0  0
  9  8  2  0  0  0  0
 10  1  1  0  0  0  0
 14 20  1  0  0  0  0
 14 19  1  0  0  0  0
 15 14  2  0  0  0  0
 16 15  1  0  0  0  0
 16 17  2  0  0  0  0
 17 18  1  0  0  0  0
 18 19  2  0  0  0  0
 18  2  1  0  0  0  0
 21 16  1  0  0  0  0
 22 23  1  0  0  0  0
 22 15  1  0  0  0  0
 24 22  1  0  0  0  0
 25 22  1  0  0  0  0
 26  9  1  0  0  0  0
 28 26  1  0  0  0  0
 28 31  1  0  0  0  0
 28 27  2  1  0  0  0
 29 28  1  0  0  0  0
 30 29  1  0  0  0  0
 33 34  1  0  0  0  0
 33 32  1  0  0  0  0
 34 31  1  0  0  0  0
 35 34  2  0  0  0  0
 36 43  1  0  0  0  0
 36 35  1  0  0  0  0
 37 36  2  0  0  0  0
 38 37  1  0  0  0  0
 39 37  1  0  0  0  0
 39 40  2  0  0  0  0
 40 42  1  0  0  0  0
 41 40  1  0  0  0  0
 42 43  2  0  0  0  0
 43 33  1  0  0  0  0
M  END
>  <minimizedAffinity>
-6.24035263

$$$$
