
 OpenBabel03242521283D

 38 41  0  0  1  0  0  0  0  0999 V2000
   47.8510   33.3120   42.5640 C   0  0  1  0  0  0  0  0  0  0  0  0
   46.4300   33.7460   42.2880 C   0  0  2  0  0  0  0  0  0  0  0  0
   46.3720   34.7230   41.3140 O   0  0  0  0  0  0  0  0  0  0  0  0
   46.6920   34.0980   40.1190 C   0  0  0  0  0  0  0  0  0  0  0  0
   48.1730   33.8230   40.1200 C   0  0  2  0  0  0  0  0  0  0  0  0
   48.6760   33.1280   41.3380 C   0  0  2  0  0  0  0  0  0  0  0  0
   47.7460   32.3160   43.0810 H   0  0  0  0  0  0  0  0  0  0  0  0
   45.8670   32.8560   41.9490 H   0  0  0  0  0  0  0  0  0  0  0  0
   46.5060   34.8430   39.3080 H   0  0  0  0  0  0  0  0  0  0  0  0
   46.0690   33.2110   39.9100 H   0  0  0  0  0  0  0  0  0  0  0  0
   48.4070   33.2110   39.2160 H   0  0  0  0  0  0  0  0  0  0  0  0
   49.6860   33.5760   41.5630 H   0  0  0  0  0  0  0  0  0  0  0  0
   44.4840   35.9190   44.7110 C   0  0  0  0  0  0  0  0  0  0  0  0
   45.0620   35.4660   43.5160 C   0  0  0  0  0  0  0  0  0  0  0  0
   45.7970   34.2470   43.5200 C   0  0  0  0  0  0  0  0  0  0  0  0
   45.8990   33.5840   44.6920 N   0  0  0  0  0  0  0  0  0  0  0  0
   45.3320   34.0440   45.8340 C   0  0  0  0  0  0  0  0  0  0  0  0
   44.6250   35.2090   45.8440 N   0  0  0  0  0  0  0  0  0  0  0  0
   43.9560   36.8520   44.5730 H   0  0  0  0  0  0  0  0  0  0  0  0
   44.9860   35.9890   42.5750 H   0  0  0  0  0  0  0  0  0  0  0  0
   45.4420   33.4760   46.7480 H   0  0  0  0  0  0  0  0  0  0  0  0
   48.4730   34.1220   43.5200 O   0  0  0  0  0  0  0  0  0  0  0  0
   48.9620   33.6070   44.2010 H   0  0  0  0  0  0  0  0  0  0  0  0
   48.7930   35.0670   39.9410 O   0  0  0  0  0  0  0  0  0  0  0  0
   49.2430   35.3340   40.7910 H   0  0  0  0  0  0  0  0  0  0  0  0
   48.9600   31.7640   41.1150 O   0  0  0  0  0  0  0  0  0  0  0  0
   50.4090   30.2290   43.0280 H   0  0  0  0  0  0  0  0  0  0  0  0
   50.9180   30.4970   42.1580 N   0  0  0  0  0  0  0  0  0  0  0  0
   50.2300   31.2240   41.2530 C   0  0  0  0  0  0  0  0  0  0  0  0
   51.0550   31.4750   40.1950 N   0  0  0  0  0  0  0  0  0  0  0  0
   52.2440   30.9250   40.4060 C   0  0  0  0  0  0  0  0  0  0  0  0
   53.4790   30.7920   39.7910 C   0  0  0  0  0  0  0  0  0  0  0  0
   53.5750   31.2680   38.8130 H   0  0  0  0  0  0  0  0  0  0  0  0
   54.5070   30.1260   40.3390 N   0  0  0  0  0  0  0  0  0  0  0  0
   54.3440   29.5490   41.5560 C   0  0  0  0  0  0  0  0  0  0  0  0
   55.2050   29.0360   41.9280 H   0  0  0  0  0  0  0  0  0  0  0  0
   53.1510   29.6500   42.2000 N   0  0  0  0  0  0  0  0  0  0  0  0
   52.1350   30.3210   41.6370 C   0  0  0  0  0  0  0  0  0  0  0  0
  1  7  1  1  0  0  0
  1 22  1  0  0  0  0
  2  8  1  6  0  0  0
  2  1  1  0  0  0  0
  2 15  1  0  0  0  0
  3  2  1  0  0  0  0
  4  5  1  0  0  0  0
  4  3  1  0  0  0  0
  5 11  1  6  0  0  0
  5  6  1  0  0  0  0
  6 12  1  1  0  0  0
  6  1  1  0  0  0  0
  9  4  1  0  0  0  0
 10  4  1  0  0  0  0
 13 18  1  0  0  0  0
 14 15  1  0  0  0  0
 14 13  2  0  0  0  0
 15 16  2  0  0  0  0
 16 17  1  0  0  0  0
 17 18  2  0  0  0  0
 17 21  1  0  0  0  0
 19 13  1  0  0  0  0
 20 14  1  0  0  0  0
 22 23  1  0  0  0  0
 24  5  1  0  0  0  0
 24 25  1  0  0  0  0
 26 29  1  0  0  0  0
 26  6  1  0  0  0  0
 28 27  1  0  0  0  0
 29 28  1  0  0  0  0
 30 31  1  0  0  0  0
 30 29  2  0  0  0  0
 31 38  1  0  0  0  0
 32 34  1  0  0  0  0
 32 31  2  0  0  0  0
 33 32  1  0  0  0  0
 34 35  2  0  0  0  0
 35 36  1  0  0  0  0
 35 37  1  0  0  0  0
 38 28  1  0  0  0  0
 38 37  2  0  0  0  0
M  END
>  <minimizedAffinity>
-5.53311634

>  <minimizedRMSD>
0.873526335

$$$$
