
 OpenBabel03252506383D

 47 51  0  0  1  0  0  0  0  0999 V2000
   46.7460   29.9850   46.5280 S   0  0  0  0  0  0  0  0  0  0  0  0
   45.3580   30.5790   43.5530 O   0  0  0  0  0  0  0  0  0  0  0  0
   44.8560   29.9780   44.5140 C   0  0  0  0  0  0  0  0  0  0  0  0
   45.1280   29.6890   45.9430 C   0  0  1  0  0  0  0  0  0  0  0  0
   44.6450   28.2670   46.0770 C   0  0  0  0  0  0  0  0  0  0  0  0
   43.2480   28.4690   45.4830 C   0  0  0  0  0  0  0  0  0  0  0  0
   43.6030   29.2930   44.3330 N   0  0  0  0  0  0  0  0  0  0  0  0
   44.2760   30.2540   46.4110 H   0  0  0  0  0  0  0  0  0  0  0  0
   44.5180   27.9490   47.1160 H   0  0  0  0  0  0  0  0  0  0  0  0
   45.2250   27.5570   45.4640 H   0  0  0  0  0  0  0  0  0  0  0  0
   42.8060   27.5300   45.1540 H   0  0  0  0  0  0  0  0  0  0  0  0
   42.6300   29.0290   46.2100 H   0  0  0  0  0  0  0  0  0  0  0  0
   42.2430   27.2370   42.9640 H   0  0  0  0  0  0  0  0  0  0  0  0
   42.1310   28.2390   42.6570 N   0  0  0  0  0  0  0  0  0  0  0  0
   42.7070   29.3320   43.2010 C   0  0  0  0  0  0  0  0  0  0  0  0
   42.2810   30.3990   42.4900 N   0  0  0  0  0  0  0  0  0  0  0  0
   41.4510   29.9980   41.5130 C   0  0  0  0  0  0  0  0  0  0  0  0
   40.7430   30.6410   40.5170 C   0  0  0  0  0  0  0  0  0  0  0  0
   40.8350   31.7210   40.4550 H   0  0  0  0  0  0  0  0  0  0  0  0
   39.9650   29.9560   39.6510 N   0  0  0  0  0  0  0  0  0  0  0  0
   39.8770   28.6040   39.7620 C   0  0  0  0  0  0  0  0  0  0  0  0
   39.2490   28.0490   39.0660 H   0  0  0  0  0  0  0  0  0  0  0  0
   40.5610   27.9650   40.7290 N   0  0  0  0  0  0  0  0  0  0  0  0
   41.3480   28.6240   41.6100 C   0  0  0  0  0  0  0  0  0  0  0  0
   44.5320   35.4500   45.1780 C   0  0  0  0  0  0  0  0  0  0  0  0
   45.1960   35.4710   43.9270 C   0  0  0  0  0  0  0  0  0  0  0  0
   46.1370   34.5270   43.6590 C   0  0  0  0  0  0  0  0  0  0  0  0
   46.3790   33.6110   44.6270 N   0  0  0  0  0  0  0  0  0  0  0  0
   45.7540   33.5960   45.7950 C   0  0  0  0  0  0  0  0  0  0  0  0
   44.8270   34.5090   46.0860 N   0  0  0  0  0  0  0  0  0  0  0  0
   46.0990   32.5750   46.7480 N   0  0  0  0  0  0  0  0  0  0  0  0
   45.3580   32.2980   47.9250 C   0  0  0  0  0  0  0  0  0  0  0  0
   46.4340   31.9540   48.9390 C   0  0  0  0  0  0  0  0  0  0  0  0
   47.7210   31.8820   48.1730 C   0  0  0  0  0  0  0  0  0  0  0  0
   47.2320   31.6820   46.7410 C   0  0  1  0  0  0  0  0  0  0  0  0
   43.7860   36.2090   45.3750 H   0  0  0  0  0  0  0  0  0  0  0  0
   46.6470   34.5260   42.7240 H   0  0  0  0  0  0  0  0  0  0  0  0
   44.9670   33.2980   48.2960 H   0  0  0  0  0  0  0  0  0  0  0  0
   44.5630   31.6310   48.0060 H   0  0  0  0  0  0  0  0  0  0  0  0
   46.2130   30.9370   49.3730 H   0  0  0  0  0  0  0  0  0  0  0  0
   46.4860   32.6230   49.7970 H   0  0  0  0  0  0  0  0  0  0  0  0
   48.3210   32.7830   48.3110 H   0  0  0  0  0  0  0  0  0  0  0  0
   48.2870   30.9650   48.4890 H   0  0  0  0  0  0  0  0  0  0  0  0
   48.0470   32.0200   46.0800 H   0  0  0  0  0  0  0  0  0  0  0  0
   44.8260   36.5090   43.0060 N   0  0  0  0  0  0  0  0  0  0  0  0
   45.6530   36.8970   42.4740 H   0  0  0  0  0  0  0  0  0  0  0  0
   43.8740   36.8800   42.8360 H   0  0  0  0  0  0  0  0  0  0  0  0
  1 35  1  0  0  0  0
  2  3  2  0  0  0  0
  3  4  1  0  0  0  0
  4  5  1  0  0  0  0
  4  8  1  1  0  0  0
  4  1  1  0  0  0  0
  5  9  1  0  0  0  0
  6  5  1  0  0  0  0
  6 12  1  0  0  0  0
  7  3  1  0  0  0  0
  7  6  1  0  0  0  0
 10  5  1  0  0  0  0
 11  6  1  0  0  0  0
 14 13  1  0  0  0  0
 14 15  1  0  0  0  0
 15  7  1  0  0  0  0
 16 15  2  0  0  0  0
 17 24  1  0  0  0  0
 17 16  1  0  0  0  0
 18 17  2  0  0  0  0
 19 18  1  0  0  0  0
 20 21  2  0  0  0  0
 20 18  1  0  0  0  0
 21 23  1  0  0  0  0
 22 21  1  0  0  0  0
 23 24  2  0  0  0  0
 24 14  1  0  0  0  0
 25 36  1  0  0  0  0
 25 30  1  0  0  0  0
 26 25  2  0  0  0  0
 27 26  1  0  0  0  0
 27 28  2  0  0  0  0
 28 29  1  0  0  0  0
 29 30  2  0  0  0  0
 29 31  1  0  0  0  0
 31 32  1  0  0  0  0
 32 39  1  0  0  0  0
 32 38  1  0  0  0  0
 32 33  1  0  0  0  0
 33 40  1  0  0  0  0
 33 41  1  0  0  0  0
 34 42  1  0  0  0  0
 34 43  1  0  0  0  0
 34 33  1  0  0  0  0
 35 44  1  6  0  0  0
 35 31  1  0  0  0  0
 35 34  1  0  0  0  0
 37 27  1  0  0  0  0
 45 26  1  0  0  0  0
 46 45  1  0  0  0  0
 47 45  1  0  0  0  0
M  END
>  <minimizedAffinity>
-5.86089849

>  <minimizedRMSD>
0.43487826

$$$$
