
 OpenBabel03252508083D

 47 51  0  0  0  0  0  0  0  0999 V2000
   45.3790   35.8760   42.6940 C   0  0  0  0  0  0  0  0  0  0  0  0
   45.5900   34.5070   42.7510 C   0  0  0  0  0  0  0  0  0  0  0  0
   45.3230   33.8200   43.9100 C   0  0  0  0  0  0  0  0  0  0  0  0
   44.8440   34.5550   44.9770 N   0  0  0  0  0  0  0  0  0  0  0  0
   44.6440   35.8700   44.9150 C   0  0  0  0  0  0  0  0  0  0  0  0
   44.9170   36.5190   43.7630 N   0  0  0  0  0  0  0  0  0  0  0  0
   45.5640   36.4800   41.8280 H   0  0  0  0  0  0  0  0  0  0  0  0
   44.2660   36.3890   45.7900 H   0  0  0  0  0  0  0  0  0  0  0  0
   45.4840   32.4320   44.1310 C   0  0  0  0  0  0  0  0  0  0  0  0
   45.0060   31.4420   43.2680 C   0  0  0  0  0  0  0  0  0  0  0  0
   45.1010   30.0970   43.5130 C   0  0  0  0  0  0  0  0  0  0  0  0
   45.6990   29.6550   44.6720 C   0  0  0  0  0  0  0  0  0  0  0  0
   46.1940   30.6460   45.5630 C   0  0  0  0  0  0  0  0  0  0  0  0
   46.7900   30.2180   46.7210 C   0  0  0  0  0  0  0  0  0  0  0  0
   47.2930   31.1290   47.6280 C   0  0  0  0  0  0  0  0  0  0  0  0
   47.1920   32.5030   47.3560 C   0  0  0  0  0  0  0  0  0  0  0  0
   46.5710   32.8920   46.1540 C   0  0  0  0  0  0  0  0  0  0  0  0
   46.0780   31.9670   45.2760 C   0  0  0  0  0  0  0  0  0  0  0  0
   44.5340   31.8000   42.3540 H   0  0  0  0  0  0  0  0  0  0  0  0
   44.6930   29.4230   42.7660 H   0  0  0  0  0  0  0  0  0  0  0  0
   45.7770   28.6110   44.8730 H   0  0  0  0  0  0  0  0  0  0  0  0
   46.8620   29.1540   46.9160 H   0  0  0  0  0  0  0  0  0  0  0  0
   47.7420   30.7190   48.5090 H   0  0  0  0  0  0  0  0  0  0  0  0
   47.6130   33.1240   48.1160 H   0  0  0  0  0  0  0  0  0  0  0  0
   46.6110   33.9600   46.1190 H   0  0  0  0  0  0  0  0  0  0  0  0
   46.0630   33.8970   41.6220 O   0  0  0  0  0  0  0  0  0  0  0  0
   48.0610   32.3540   40.9230 O   0  0  0  0  0  0  0  0  0  0  0  0
   47.7010   33.7700   41.2140 P   0  0  1  0  0  0  0  0  0  0  0  0
   48.0490   34.6610   39.8170 O   0  0  0  0  0  0  0  0  0  0  0  0
   49.8780   34.1620   37.7140 H   0  0  0  0  0  0  0  0  0  0  0  0
   48.8750   33.8600   37.6500 N   0  0  0  0  0  0  0  0  0  0  0  0
   47.9210   34.0420   38.5810 C   0  0  0  0  0  0  0  0  0  0  0  0
   46.7840   33.5060   38.0980 N   0  0  0  0  0  0  0  0  0  0  0  0
   46.9900   32.9850   36.8780 C   0  0  0  0  0  0  0  0  0  0  0  0
   46.1360   32.3500   36.0230 C   0  0  0  0  0  0  0  0  0  0  0  0
   45.0900   32.1610   36.2240 H   0  0  0  0  0  0  0  0  0  0  0  0
   46.6530   31.9280   34.8340 N   0  0  0  0  0  0  0  0  0  0  0  0
   47.9620   32.1510   34.5570 C   0  0  0  0  0  0  0  0  0  0  0  0
   48.4070   31.8290   33.6220 H   0  0  0  0  0  0  0  0  0  0  0  0
   48.8060   32.7770   35.3970 N   0  0  0  0  0  0  0  0  0  0  0  0
   48.3220   33.2100   36.5930 C   0  0  0  0  0  0  0  0  0  0  0  0
   48.6110   34.3780   42.4830 O   0  0  0  0  0  0  0  0  0  0  0  0
   49.7740   35.1260   42.3880 C   0  0  0  0  0  0  0  0  0  0  0  0
   49.3900   36.2580   42.0420 O   0  0  0  0  0  0  0  0  0  0  0  0
   50.9280   34.3270   42.7150 N   0  0  0  0  0  0  0  0  0  0  0  0
   51.0020   33.9720   43.7050 H   0  0  0  0  0  0  0  0  0  0  0  0
   51.6960   34.0770   42.0360 H   0  0  0  0  0  0  0  0  0  0  0  0
  1  2  2  0  0  0  0
  1  6  1  0  0  0  0
  2  3  1  0  0  0  0
  3  9  1  0  0  0  0
  3  4  2  0  0  0  0
  5  4  1  0  0  0  0
  5  8  1  0  0  0  0
  6  5  2  0  0  0  0
  7  1  1  0  0  0  0
  9 18  1  0  0  0  0
 10 11  1  0  0  0  0
 10  9  2  0  0  0  0
 11 12  2  0  0  0  0
 12 21  1  0  0  0  0
 12 13  1  0  0  0  0
 13 14  1  0  0  0  0
 14 22  1  0  0  0  0
 14 15  2  0  0  0  0
 15 23  1  0  0  0  0
 16 15  1  0  0  0  0
 16 24  1  0  0  0  0
 17 16  2  0  0  0  0
 18 13  2  0  0  0  0
 18 17  1  0  0  0  0
 19 10  1  0  0  0  0
 20 11  1  0  0  0  0
 25 17  1  0  0  0  0
 26  2  1  0  0  0  0
 28 27  2  6  0  0  0
 28 26  1  0  0  0  0
 28 42  1  0  0  0  0
 29 28  1  0  0  0  0
 31 30  1  0  0  0  0
 31 32  1  0  0  0  0
 32 29  1  0  0  0  0
 33 32  2  0  0  0  0
 34 33  1  0  0  0  0
 35 36  1  0  0  0  0
 35 34  2  0  0  0  0
 37 35  1  0  0  0  0
 38 37  2  0  0  0  0
 38 40  1  0  0  0  0
 39 38  1  0  0  0  0
 40 41  2  0  0  0  0
 41 34  1  0  0  0  0
 41 31  1  0  0  0  0
 43 42  1  0  0  0  0
 43 45  1  0  0  0  0
 44 43  2  0  0  0  0
 45 46  1  0  0  0  0
 47 45  1  0  0  0  0
M  END
>  <minimizedAffinity>
-6.74993467

>  <minimizedRMSD>
0.589514732

$$$$
