
 OpenBabel03252508073D

 47 51  0  0  0  0  0  0  0  0999 V2000
   45.3670   36.0790   42.6640 C   0  0  0  0  0  0  0  0  0  0  0  0
   45.5510   34.7060   42.6750 C   0  0  0  0  0  0  0  0  0  0  0  0
   45.2590   33.9830   43.8060 C   0  0  0  0  0  0  0  0  0  0  0  0
   44.7860   34.6900   44.8940 N   0  0  0  0  0  0  0  0  0  0  0  0
   44.6130   36.0090   44.8780 C   0  0  0  0  0  0  0  0  0  0  0  0
   44.9090   36.6930   43.7520 N   0  0  0  0  0  0  0  0  0  0  0  0
   45.5720   36.7110   41.8220 H   0  0  0  0  0  0  0  0  0  0  0  0
   44.2380   36.5050   45.7680 H   0  0  0  0  0  0  0  0  0  0  0  0
   45.3910   32.5850   43.9780 C   0  0  0  0  0  0  0  0  0  0  0  0
   44.8700   31.6360   43.0950 C   0  0  0  0  0  0  0  0  0  0  0  0
   44.9360   30.2820   43.2940 C   0  0  0  0  0  0  0  0  0  0  0  0
   45.5490   29.7880   44.4240 C   0  0  0  0  0  0  0  0  0  0  0  0
   46.0880   30.7370   45.3360 C   0  0  0  0  0  0  0  0  0  0  0  0
   46.6980   30.2570   46.4650 C   0  0  0  0  0  0  0  0  0  0  0  0
   47.2440   31.1250   47.3890 C   0  0  0  0  0  0  0  0  0  0  0  0
   47.1710   32.5100   47.1640 C   0  0  0  0  0  0  0  0  0  0  0  0
   46.5330   32.9530   45.9900 C   0  0  0  0  0  0  0  0  0  0  0  0
   45.9980   32.0690   45.0930 C   0  0  0  0  0  0  0  0  0  0  0  0
   44.3870   32.0350   42.2040 H   0  0  0  0  0  0  0  0  0  0  0  0
   44.4950   29.6430   42.5360 H   0  0  0  0  0  0  0  0  0  0  0  0
   45.6050   28.7360   44.5890 H   0  0  0  0  0  0  0  0  0  0  0  0
   46.7480   29.1850   46.6240 H   0  0  0  0  0  0  0  0  0  0  0  0
   47.7020   30.6760   48.2460 H   0  0  0  0  0  0  0  0  0  0  0  0
   47.6230   33.0950   47.9340 H   0  0  0  0  0  0  0  0  0  0  0  0
   46.5990   34.0200   45.9880 H   0  0  0  0  0  0  0  0  0  0  0  0
   46.0210   34.1270   41.5280 O   0  0  0  0  0  0  0  0  0  0  0  0
   47.9560   32.4680   40.9200 O   0  0  0  0  0  0  0  0  0  0  0  0
   47.6610   33.9080   41.1660 P   0  0  1  0  0  0  0  0  0  0  0  0
   48.0870   34.7430   39.7560 O   0  0  0  0  0  0  0  0  0  0  0  0
   49.8580   34.2970   37.5920 H   0  0  0  0  0  0  0  0  0  0  0  0
   48.8660   33.9530   37.5680 N   0  0  0  0  0  0  0  0  0  0  0  0
   47.9400   34.1050   38.5320 C   0  0  0  0  0  0  0  0  0  0  0  0
   46.8090   33.5170   38.0970 N   0  0  0  0  0  0  0  0  0  0  0  0
   46.9930   32.9910   36.8740 C   0  0  0  0  0  0  0  0  0  0  0  0
   46.1360   32.3100   36.0580 C   0  0  0  0  0  0  0  0  0  0  0  0
   45.1060   32.0810   36.3000 H   0  0  0  0  0  0  0  0  0  0  0  0
   46.6270   31.8970   34.8560 N   0  0  0  0  0  0  0  0  0  0  0  0
   47.9130   32.1710   34.5280 C   0  0  0  0  0  0  0  0  0  0  0  0
   48.3370   31.8580   33.5800 H   0  0  0  0  0  0  0  0  0  0  0  0
   48.7610   32.8410   35.3300 N   0  0  0  0  0  0  0  0  0  0  0  0
   48.3040   33.2690   36.5380 C   0  0  0  0  0  0  0  0  0  0  0  0
   48.5680   34.5040   42.4430 O   0  0  0  0  0  0  0  0  0  0  0  0
   49.7560   35.2130   42.3570 C   0  0  0  0  0  0  0  0  0  0  0  0
   49.4150   36.3500   41.9840 O   0  0  0  0  0  0  0  0  0  0  0  0
   50.8770   34.3840   42.7210 N   0  0  0  0  0  0  0  0  0  0  0  0
   50.9200   34.0450   43.7190 H   0  0  0  0  0  0  0  0  0  0  0  0
   51.6500   34.0970   42.0620 H   0  0  0  0  0  0  0  0  0  0  0  0
  1  2  2  0  0  0  0
  1  6  1  0  0  0  0
  2  3  1  0  0  0  0
  3  9  1  0  0  0  0
  3  4  2  0  0  0  0
  5  4  1  0  0  0  0
  5  8  1  0  0  0  0
  6  5  2  0  0  0  0
  7  1  1  0  0  0  0
  9 18  1  0  0  0  0
 10 11  1  0  0  0  0
 10  9  2  0  0  0  0
 11 12  2  0  0  0  0
 12 21  1  0  0  0  0
 12 13  1  0  0  0  0
 13 14  1  0  0  0  0
 14 22  1  0  0  0  0
 14 15  2  0  0  0  0
 15 23  1  0  0  0  0
 16 15  1  0  0  0  0
 16 24  1  0  0  0  0
 17 16  2  0  0  0  0
 18 13  2  0  0  0  0
 18 17  1  0  0  0  0
 19 10  1  0  0  0  0
 20 11  1  0  0  0  0
 25 17  1  0  0  0  0
 26  2  1  0  0  0  0
 28 27  2  6  0  0  0
 28 26  1  0  0  0  0
 28 42  1  0  0  0  0
 29 28  1  0  0  0  0
 31 30  1  0  0  0  0
 31 32  1  0  0  0  0
 32 29  1  0  0  0  0
 33 32  2  0  0  0  0
 34 33  1  0  0  0  0
 35 36  1  0  0  0  0
 35 34  2  0  0  0  0
 37 35  1  0  0  0  0
 38 37  2  0  0  0  0
 38 40  1  0  0  0  0
 39 38  1  0  0  0  0
 40 41  2  0  0  0  0
 41 34  1  0  0  0  0
 41 31  1  0  0  0  0
 43 42  1  0  0  0  0
 43 45  1  0  0  0  0
 44 43  2  0  0  0  0
 45 46  1  0  0  0  0
 47 45  1  0  0  0  0
M  END
>  <minimizedAffinity>
-6.73008394

>  <minimizedRMSD>
0.584703982

$$$$
