
 OpenBabel03252506383D

 47 51  0  0  1  0  0  0  0  0999 V2000
   46.6640   30.0240   46.5480 S   0  0  0  0  0  0  0  0  0  0  0  0
   45.5380   30.5880   43.4580 O   0  0  0  0  0  0  0  0  0  0  0  0
   44.9470   30.0120   44.3840 C   0  0  0  0  0  0  0  0  0  0  0  0
   45.0950   29.7440   45.8360 C   0  0  1  0  0  0  0  0  0  0  0  0
   44.5780   28.3320   45.9510 C   0  0  0  0  0  0  0  0  0  0  0  0
   43.2390   28.5460   45.2400 C   0  0  0  0  0  0  0  0  0  0  0  0
   43.7020   29.3440   44.1110 N   0  0  0  0  0  0  0  0  0  0  0  0
   44.2170   30.3310   46.2220 H   0  0  0  0  0  0  0  0  0  0  0  0
   44.3600   28.0340   46.9810 H   0  0  0  0  0  0  0  0  0  0  0  0
   45.1940   27.6020   45.4000 H   0  0  0  0  0  0  0  0  0  0  0  0
   42.8090   27.6090   44.8910 H   0  0  0  0  0  0  0  0  0  0  0  0
   42.5720   29.1290   45.9050 H   0  0  0  0  0  0  0  0  0  0  0  0
   44.2950   28.5870   41.4610 H   0  0  0  0  0  0  0  0  0  0  0  0
   43.3440   28.9720   41.6980 N   0  0  0  0  0  0  0  0  0  0  0  0
   42.9030   29.3780   42.9080 C   0  0  0  0  0  0  0  0  0  0  0  0
   41.6270   29.7930   42.7450 N   0  0  0  0  0  0  0  0  0  0  0  0
   41.2620   29.6570   41.4610 C   0  0  0  0  0  0  0  0  0  0  0  0
   40.1070   29.9170   40.7490 C   0  0  0  0  0  0  0  0  0  0  0  0
   39.2630   30.3280   41.2960 H   0  0  0  0  0  0  0  0  0  0  0  0
   40.0260   29.6710   39.4230 N   0  0  0  0  0  0  0  0  0  0  0  0
   41.1040   29.1570   38.7750 C   0  0  0  0  0  0  0  0  0  0  0  0
   41.0430   28.9580   37.7050 H   0  0  0  0  0  0  0  0  0  0  0  0
   42.2360   28.8990   39.4570 N   0  0  0  0  0  0  0  0  0  0  0  0
   42.3460   29.1350   40.7840 C   0  0  0  0  0  0  0  0  0  0  0  0
   44.5190   35.5060   45.1560 C   0  0  0  0  0  0  0  0  0  0  0  0
   45.1770   35.5060   43.9020 C   0  0  0  0  0  0  0  0  0  0  0  0
   46.1030   34.5460   43.6380 C   0  0  0  0  0  0  0  0  0  0  0  0
   46.3370   33.6360   44.6140 N   0  0  0  0  0  0  0  0  0  0  0  0
   45.7190   33.6420   45.7850 C   0  0  0  0  0  0  0  0  0  0  0  0
   44.8060   34.5690   46.0710 N   0  0  0  0  0  0  0  0  0  0  0  0
   46.0540   32.6240   46.7460 N   0  0  0  0  0  0  0  0  0  0  0  0
   45.3150   32.3690   47.9290 C   0  0  0  0  0  0  0  0  0  0  0  0
   46.3900   32.0200   48.9420 C   0  0  0  0  0  0  0  0  0  0  0  0
   47.6730   31.9230   48.1700 C   0  0  0  0  0  0  0  0  0  0  0  0
   47.1740   31.7160   46.7420 C   0  0  1  0  0  0  0  0  0  0  0  0
   43.7840   36.2770   45.3500 H   0  0  0  0  0  0  0  0  0  0  0  0
   46.6100   34.5290   42.7010 H   0  0  0  0  0  0  0  0  0  0  0  0
   44.9390   33.3780   48.2930 H   0  0  0  0  0  0  0  0  0  0  0  0
   44.5110   31.7130   48.0200 H   0  0  0  0  0  0  0  0  0  0  0  0
   46.1580   31.0100   49.3860 H   0  0  0  0  0  0  0  0  0  0  0  0
   46.4560   32.6960   49.7930 H   0  0  0  0  0  0  0  0  0  0  0  0
   48.2860   32.8170   48.2960 H   0  0  0  0  0  0  0  0  0  0  0  0
   48.2280   31.0020   48.4920 H   0  0  0  0  0  0  0  0  0  0  0  0
   47.9900   32.0370   46.0740 H   0  0  0  0  0  0  0  0  0  0  0  0
   44.8170   36.5400   42.9730 N   0  0  0  0  0  0  0  0  0  0  0  0
   45.6470   36.9110   42.4330 H   0  0  0  0  0  0  0  0  0  0  0  0
   43.8690   36.9230   42.8030 H   0  0  0  0  0  0  0  0  0  0  0  0
  1 35  1  0  0  0  0
  2  3  2  0  0  0  0
  3  4  1  0  0  0  0
  4  5  1  0  0  0  0
  4  8  1  1  0  0  0
  4  1  1  0  0  0  0
  5  9  1  0  0  0  0
  6 12  1  0  0  0  0
  6  5  1  0  0  0  0
  7  3  1  0  0  0  0
  7  6  1  0  0  0  0
 10  5  1  0  0  0  0
 11  6  1  0  0  0  0
 13 14  1  0  0  0  0
 14 15  1  0  0  0  0
 15  7  1  0  0  0  0
 16 15  2  0  0  0  0
 17 16  1  0  0  0  0
 18 19  1  0  0  0  0
 18 17  2  0  0  0  0
 20 18  1  0  0  0  0
 21 20  2  0  0  0  0
 21 23  1  0  0  0  0
 22 21  1  0  0  0  0
 23 24  2  0  0  0  0
 24 17  1  0  0  0  0
 24 14  1  0  0  0  0
 25 36  1  0  0  0  0
 25 30  1  0  0  0  0
 26 25  2  0  0  0  0
 27 26  1  0  0  0  0
 27 28  2  0  0  0  0
 28 29  1  0  0  0  0
 29 30  2  0  0  0  0
 29 31  1  0  0  0  0
 31 32  1  0  0  0  0
 32 39  1  0  0  0  0
 32 38  1  0  0  0  0
 32 33  1  0  0  0  0
 33 40  1  0  0  0  0
 33 41  1  0  0  0  0
 34 42  1  0  0  0  0
 34 43  1  0  0  0  0
 34 33  1  0  0  0  0
 35 44  1  6  0  0  0
 35 31  1  0  0  0  0
 35 34  1  0  0  0  0
 37 27  1  0  0  0  0
 45 26  1  0  0  0  0
 46 45  1  0  0  0  0
 47 45  1  0  0  0  0
M  END
>  <minimizedAffinity>
-5.77302313

>  <minimizedRMSD>
0.15241538

$$$$
