
 OpenBabel03252506383D

 47 51  0  0  1  0  0  0  0  0999 V2000
   46.6610   30.0310   46.5580 S   0  0  0  0  0  0  0  0  0  0  0  0
   45.5560   30.5680   43.4560 O   0  0  0  0  0  0  0  0  0  0  0  0
   44.9580   30.0030   44.3840 C   0  0  0  0  0  0  0  0  0  0  0  0
   45.0960   29.7490   45.8390 C   0  0  1  0  0  0  0  0  0  0  0  0
   44.5740   28.3390   45.9650 C   0  0  0  0  0  0  0  0  0  0  0  0
   43.2400   28.5510   45.2430 C   0  0  0  0  0  0  0  0  0  0  0  0
   43.7120   29.3370   44.1090 N   0  0  0  0  0  0  0  0  0  0  0  0
   44.2180   30.3420   46.2140 H   0  0  0  0  0  0  0  0  0  0  0  0
   44.3480   28.0530   46.9960 H   0  0  0  0  0  0  0  0  0  0  0  0
   45.1910   27.6020   45.4240 H   0  0  0  0  0  0  0  0  0  0  0  0
   42.8090   27.6110   44.9000 H   0  0  0  0  0  0  0  0  0  0  0  0
   42.5710   29.1420   45.8980 H   0  0  0  0  0  0  0  0  0  0  0  0
   41.0650   30.1830   43.6320 H   0  0  0  0  0  0  0  0  0  0  0  0
   41.6480   29.8040   42.8400 N   0  0  0  0  0  0  0  0  0  0  0  0
   42.9220   29.3610   42.9010 C   0  0  0  0  0  0  0  0  0  0  0  0
   43.2650   28.9690   41.6530 N   0  0  0  0  0  0  0  0  0  0  0  0
   42.2330   29.1600   40.8140 C   0  0  0  0  0  0  0  0  0  0  0  0
   42.0290   28.9430   39.4660 C   0  0  0  0  0  0  0  0  0  0  0  0
   42.8520   28.5250   38.8950 H   0  0  0  0  0  0  0  0  0  0  0  0
   40.8490   29.2390   38.8750 N   0  0  0  0  0  0  0  0  0  0  0  0
   39.8430   29.7600   39.6250 C   0  0  0  0  0  0  0  0  0  0  0  0
   38.8910   30.0000   39.1530 H   0  0  0  0  0  0  0  0  0  0  0  0
   40.0300   29.9760   40.9410 N   0  0  0  0  0  0  0  0  0  0  0  0
   41.1980   29.6900   41.5590 C   0  0  0  0  0  0  0  0  0  0  0  0
   44.5170   35.5090   45.1510 C   0  0  0  0  0  0  0  0  0  0  0  0
   45.1760   35.5060   43.8980 C   0  0  0  0  0  0  0  0  0  0  0  0
   46.1030   34.5460   43.6370 C   0  0  0  0  0  0  0  0  0  0  0  0
   46.3360   33.6380   44.6150 N   0  0  0  0  0  0  0  0  0  0  0  0
   45.7160   33.6460   45.7860 C   0  0  0  0  0  0  0  0  0  0  0  0
   44.8030   34.5750   46.0690 N   0  0  0  0  0  0  0  0  0  0  0  0
   46.0510   32.6310   46.7500 N   0  0  0  0  0  0  0  0  0  0  0  0
   45.3110   32.3780   47.9330 C   0  0  0  0  0  0  0  0  0  0  0  0
   46.3850   32.0320   48.9470 C   0  0  0  0  0  0  0  0  0  0  0  0
   47.6680   31.9330   48.1770 C   0  0  0  0  0  0  0  0  0  0  0  0
   47.1710   31.7230   46.7490 C   0  0  1  0  0  0  0  0  0  0  0  0
   43.7820   36.2810   45.3420 H   0  0  0  0  0  0  0  0  0  0  0  0
   46.6100   34.5270   42.7010 H   0  0  0  0  0  0  0  0  0  0  0  0
   44.9350   33.3880   48.2930 H   0  0  0  0  0  0  0  0  0  0  0  0
   44.5070   31.7230   48.0250 H   0  0  0  0  0  0  0  0  0  0  0  0
   46.1530   31.0230   49.3940 H   0  0  0  0  0  0  0  0  0  0  0  0
   46.4500   32.7100   49.7970 H   0  0  0  0  0  0  0  0  0  0  0  0
   48.2810   32.8280   48.3010 H   0  0  0  0  0  0  0  0  0  0  0  0
   48.2230   31.0130   48.5010 H   0  0  0  0  0  0  0  0  0  0  0  0
   47.9880   32.0430   46.0810 H   0  0  0  0  0  0  0  0  0  0  0  0
   44.8170   36.5380   42.9660 N   0  0  0  0  0  0  0  0  0  0  0  0
   45.6470   36.9080   42.4260 H   0  0  0  0  0  0  0  0  0  0  0  0
   43.8690   36.9200   42.7950 H   0  0  0  0  0  0  0  0  0  0  0  0
  1 35  1  0  0  0  0
  2  3  2  0  0  0  0
  3  4  1  0  0  0  0
  4  5  1  0  0  0  0
  4  8  1  1  0  0  0
  4  1  1  0  0  0  0
  5  9  1  0  0  0  0
  6 12  1  0  0  0  0
  6  5  1  0  0  0  0
  7  3  1  0  0  0  0
  7  6  1  0  0  0  0
 10  5  1  0  0  0  0
 11  6  1  0  0  0  0
 14 15  1  0  0  0  0
 14 13  1  0  0  0  0
 15  7  1  0  0  0  0
 16 15  2  0  0  0  0
 17 24  1  0  0  0  0
 17 16  1  0  0  0  0
 18 17  2  0  0  0  0
 19 18  1  0  0  0  0
 20 18  1  0  0  0  0
 20 21  2  0  0  0  0
 21 23  1  0  0  0  0
 22 21  1  0  0  0  0
 23 24  2  0  0  0  0
 24 14  1  0  0  0  0
 25 36  1  0  0  0  0
 25 30  1  0  0  0  0
 26 25  2  0  0  0  0
 27 26  1  0  0  0  0
 27 28  2  0  0  0  0
 28 29  1  0  0  0  0
 29 30  2  0  0  0  0
 29 31  1  0  0  0  0
 31 32  1  0  0  0  0
 32 39  1  0  0  0  0
 32 38  1  0  0  0  0
 32 33  1  0  0  0  0
 33 40  1  0  0  0  0
 33 41  1  0  0  0  0
 34 42  1  0  0  0  0
 34 43  1  0  0  0  0
 34 33  1  0  0  0  0
 35 44  1  6  0  0  0
 35 31  1  0  0  0  0
 35 34  1  0  0  0  0
 37 27  1  0  0  0  0
 45 26  1  0  0  0  0
 46 45  1  0  0  0  0
 47 45  1  0  0  0  0
M  END
>  <minimizedAffinity>
-5.80909681

>  <minimizedRMSD>
0.121943116

$$$$
