
 OpenBabel03252506383D

 47 51  0  0  1  0  0  0  0  0999 V2000
   46.6660   30.0350   46.5610 S   0  0  0  0  0  0  0  0  0  0  0  0
   45.5630   30.5900   43.4610 O   0  0  0  0  0  0  0  0  0  0  0  0
   44.9660   30.0140   44.3830 C   0  0  0  0  0  0  0  0  0  0  0  0
   45.1040   29.7490   45.8360 C   0  0  1  0  0  0  0  0  0  0  0  0
   44.5890   28.3360   45.9500 C   0  0  0  0  0  0  0  0  0  0  0  0
   43.2550   28.5450   45.2270 C   0  0  0  0  0  0  0  0  0  0  0  0
   43.7250   29.3420   44.1010 N   0  0  0  0  0  0  0  0  0  0  0  0
   44.2210   30.3340   46.2140 H   0  0  0  0  0  0  0  0  0  0  0  0
   44.3640   28.0390   46.9780 H   0  0  0  0  0  0  0  0  0  0  0  0
   45.2120   27.6070   45.4050 H   0  0  0  0  0  0  0  0  0  0  0  0
   42.8310   27.6050   44.8760 H   0  0  0  0  0  0  0  0  0  0  0  0
   42.5820   29.1270   45.8850 H   0  0  0  0  0  0  0  0  0  0  0  0
   42.0400   31.3300   43.0220 H   0  0  0  0  0  0  0  0  0  0  0  0
   42.1710   30.4170   42.5130 N   0  0  0  0  0  0  0  0  0  0  0  0
   42.9370   29.3710   42.8910 C   0  0  0  0  0  0  0  0  0  0  0  0
   42.8040   28.4200   41.9400 N   0  0  0  0  0  0  0  0  0  0  0  0
   41.9740   28.8470   40.9760 C   0  0  0  0  0  0  0  0  0  0  0  0
   41.4920   28.3060   39.8000 C   0  0  0  0  0  0  0  0  0  0  0  0
   41.8240   27.3070   39.5360 H   0  0  0  0  0  0  0  0  0  0  0  0
   40.6410   28.9920   39.0060 N   0  0  0  0  0  0  0  0  0  0  0  0
   40.2500   30.2400   39.3710 C   0  0  0  0  0  0  0  0  0  0  0  0
   39.5620   30.7960   38.7330 H   0  0  0  0  0  0  0  0  0  0  0  0
   40.7120   30.7790   40.5150 N   0  0  0  0  0  0  0  0  0  0  0  0
   41.5630   30.1180   41.3300 C   0  0  0  0  0  0  0  0  0  0  0  0
   44.5140   35.5080   45.1450 C   0  0  0  0  0  0  0  0  0  0  0  0
   45.1760   35.5050   43.8940 C   0  0  0  0  0  0  0  0  0  0  0  0
   46.1050   34.5470   43.6360 C   0  0  0  0  0  0  0  0  0  0  0  0
   46.3380   33.6400   44.6150 N   0  0  0  0  0  0  0  0  0  0  0  0
   45.7150   33.6480   45.7840 C   0  0  0  0  0  0  0  0  0  0  0  0
   44.7990   34.5750   46.0640 N   0  0  0  0  0  0  0  0  0  0  0  0
   46.0490   32.6340   46.7490 N   0  0  0  0  0  0  0  0  0  0  0  0
   45.3070   32.3810   47.9300 C   0  0  0  0  0  0  0  0  0  0  0  0
   46.3800   32.0370   48.9480 C   0  0  0  0  0  0  0  0  0  0  0  0
   47.6650   31.9400   48.1810 C   0  0  0  0  0  0  0  0  0  0  0  0
   47.1720   31.7280   46.7520 C   0  0  1  0  0  0  0  0  0  0  0  0
   43.7760   36.2780   45.3340 H   0  0  0  0  0  0  0  0  0  0  0  0
   46.6140   34.5280   42.7010 H   0  0  0  0  0  0  0  0  0  0  0  0
   44.9280   33.3900   48.2900 H   0  0  0  0  0  0  0  0  0  0  0  0
   44.5040   31.7240   48.0210 H   0  0  0  0  0  0  0  0  0  0  0  0
   46.1480   31.0280   49.3950 H   0  0  0  0  0  0  0  0  0  0  0  0
   46.4410   32.7160   49.7970 H   0  0  0  0  0  0  0  0  0  0  0  0
   48.2760   32.8360   48.3060 H   0  0  0  0  0  0  0  0  0  0  0  0
   48.2200   31.0210   48.5070 H   0  0  0  0  0  0  0  0  0  0  0  0
   47.9890   32.0490   46.0850 H   0  0  0  0  0  0  0  0  0  0  0  0
   44.8170   36.5360   42.9600 N   0  0  0  0  0  0  0  0  0  0  0  0
   45.6480   36.9070   42.4210 H   0  0  0  0  0  0  0  0  0  0  0  0
   43.8690   36.9160   42.7860 H   0  0  0  0  0  0  0  0  0  0  0  0
  1 35  1  0  0  0  0
  2  3  2  0  0  0  0
  3  4  1  0  0  0  0
  4  5  1  0  0  0  0
  4  8  1  1  0  0  0
  4  1  1  0  0  0  0
  5  9  1  0  0  0  0
  6 12  1  0  0  0  0
  6  5  1  0  0  0  0
  7  3  1  0  0  0  0
  7  6  1  0  0  0  0
 10  5  1  0  0  0  0
 11  6  1  0  0  0  0
 14 15  1  0  0  0  0
 14 13  1  0  0  0  0
 15  7  1  0  0  0  0
 16 15  2  0  0  0  0
 17 24  1  0  0  0  0
 17 16  1  0  0  0  0
 18 17  2  0  0  0  0
 19 18  1  0  0  0  0
 20 21  2  0  0  0  0
 20 18  1  0  0  0  0
 21 23  1  0  0  0  0
 22 21  1  0  0  0  0
 23 24  2  0  0  0  0
 24 14  1  0  0  0  0
 25 36  1  0  0  0  0
 25 30  1  0  0  0  0
 26 25  2  0  0  0  0
 27 26  1  0  0  0  0
 27 28  2  0  0  0  0
 28 29  1  0  0  0  0
 29 30  2  0  0  0  0
 29 31  1  0  0  0  0
 31 35  1  0  0  0  0
 31 32  1  0  0  0  0
 32 39  1  0  0  0  0
 32 38  1  0  0  0  0
 32 33  1  0  0  0  0
 33 40  1  0  0  0  0
 33 41  1  0  0  0  0
 34 42  1  0  0  0  0
 34 43  1  0  0  0  0
 34 33  1  0  0  0  0
 35 44  1  6  0  0  0
 35 34  1  0  0  0  0
 37 27  1  0  0  0  0
 45 26  1  0  0  0  0
 46 45  1  0  0  0  0
 47 45  1  0  0  0  0
M  END
>  <minimizedAffinity>
-5.84457731

>  <minimizedRMSD>
0.122730091

$$$$
