
 OpenBabel03242513413D

 43 47  0  0  0  0  0  0  0  0999 V2000
   47.7120   30.9710   46.0020 C   0  0  0  0  0  0  0  0  0  0  0  0
   46.9960   32.0470   45.5340 C   0  0  0  0  0  0  0  0  0  0  0  0
   46.0040   32.5750   46.3350 C   0  0  0  0  0  0  0  0  0  0  0  0
   45.7090   32.0640   47.5800 C   0  0  0  0  0  0  0  0  0  0  0  0
   44.8450   32.3180   48.5870 N   0  0  0  0  0  0  0  0  0  0  0  0
   45.0250   31.4510   49.6040 C   0  0  0  0  0  0  0  0  0  0  0  0
   46.0220   30.6380   49.2250 N   0  0  0  0  0  0  0  0  0  0  0  0
   46.4560   30.9850   48.0050 C   0  0  0  0  0  0  0  0  0  0  0  0
   47.4520   30.4250   47.2460 C   0  0  0  0  0  0  0  0  0  0  0  0
   48.4930   30.5470   45.3850 H   0  0  0  0  0  0  0  0  0  0  0  0
   45.4020   33.4240   46.0240 H   0  0  0  0  0  0  0  0  0  0  0  0
   44.1570   33.0900   48.5330 H   0  0  0  0  0  0  0  0  0  0  0  0
   44.4810   31.4060   50.5500 H   0  0  0  0  0  0  0  0  0  0  0  0
   47.2120   34.3940   42.7290 C   0  0  0  0  0  0  0  0  0  0  0  0
   47.8300   33.6360   41.7400 C   0  0  0  0  0  0  0  0  0  0  0  0
   48.1590   32.3230   42.0680 C   0  0  0  0  0  0  0  0  0  0  0  0
   47.8750   31.8430   43.3020 N   0  0  0  0  0  0  0  0  0  0  0  0
   47.2780   32.6180   44.2190 C   0  0  0  0  0  0  0  0  0  0  0  0
   46.9420   33.8860   43.9530 N   0  0  0  0  0  0  0  0  0  0  0  0
   46.9230   35.4290   42.5540 H   0  0  0  0  0  0  0  0  0  0  0  0
   48.6400   31.7370   41.2950 H   0  0  0  0  0  0  0  0  0  0  0  0
   48.0880   34.2810   40.4230 C   0  0  0  0  0  0  0  0  0  0  0  0
   48.6060   35.5220   40.7340 F   0  0  0  0  0  0  0  0  0  0  0  0
   46.9040   34.4220   39.7770 F   0  0  0  0  0  0  0  0  0  0  0  0
   48.9870   33.4780   39.7180 F   0  0  0  0  0  0  0  0  0  0  0  0
   48.1610   29.3410   47.7370 O   0  0  0  0  0  0  0  0  0  0  0  0
   49.7380   28.0090   49.3050 O   0  0  0  0  0  0  0  0  0  0  0  0
   49.4360   29.4450   48.8380 P   0  0  2  0  0  0  0  0  0  0  0  0
   48.9120   30.3210   50.1800 O   0  0  0  0  0  0  0  0  0  0  0  0
   48.7770   29.7800   50.9900 H   0  0  0  0  0  0  0  0  0  0  0  0
   50.8360   30.0910   48.1790 O   0  0  0  0  0  0  0  0  0  0  0  0
   49.8920   28.0700   46.4080 H   0  0  0  0  0  0  0  0  0  0  0  0
   50.8290   28.4790   46.2690 N   0  0  0  0  0  0  0  0  0  0  0  0
   51.3680   29.4380   47.0490 C   0  0  0  0  0  0  0  0  0  0  0  0
   52.6020   29.6890   46.5250 N   0  0  0  0  0  0  0  0  0  0  0  0
   52.8140   28.8980   45.4430 C   0  0  0  0  0  0  0  0  0  0  0  0
   53.9360   28.8520   44.6400 C   0  0  0  0  0  0  0  0  0  0  0  0
   54.7880   29.5050   44.8470 H   0  0  0  0  0  0  0  0  0  0  0  0
   53.8840   27.9730   43.6300 N   0  0  0  0  0  0  0  0  0  0  0  0
   52.7800   27.1930   43.4390 C   0  0  0  0  0  0  0  0  0  0  0  0
   52.8490   26.5210   42.5950 H   0  0  0  0  0  0  0  0  0  0  0  0
   51.7180   27.2910   44.2630 N   0  0  0  0  0  0  0  0  0  0  0  0
   51.6880   28.1460   45.3000 C   0  0  0  0  0  0  0  0  0  0  0  0
  1  9  1  0  0  0  0
  2  1  2  0  0  0  0
  2  3  1  0  0  0  0
  3  4  2  0  0  0  0
  4  8  1  0  0  0  0
  4  5  1  0  0  0  0
  5  6  1  0  0  0  0
  6 13  1  0  0  0  0
  7  6  2  0  0  0  0
  8  7  1  0  0  0  0
  9 26  1  0  0  0  0
  9  8  2  0  0  0  0
 10  1  1  0  0  0  0
 11  3  1  0  0  0  0
 12  5  1  0  0  0  0
 14 19  1  0  0  0  0
 15 16  1  0  0  0  0
 15 14  2  0  0  0  0
 16 17  2  0  0  0  0
 17 18  1  0  0  0  0
 18  2  1  0  0  0  0
 19 18  2  0  0  0  0
 20 14  1  0  0  0  0
 21 16  1  0  0  0  0
 22 23  1  0  0  0  0
 22 15  1  0  0  0  0
 24 22  1  0  0  0  0
 25 22  1  0  0  0  0
 26 28  1  0  0  0  0
 28 27  2  1  0  0  0
 28 29  1  0  0  0  0
 29 30  1  0  0  0  0
 31 28  1  0  0  0  0
 33 32  1  0  0  0  0
 33 34  1  0  0  0  0
 34 31  1  0  0  0  0
 35 34  2  0  0  0  0
 36 35  1  0  0  0  0
 37 38  1  0  0  0  0
 37 36  2  0  0  0  0
 39 37  1  0  0  0  0
 40 39  2  0  0  0  0
 40 42  1  0  0  0  0
 41 40  1  0  0  0  0
 42 43  2  0  0  0  0
 43 36  1  0  0  0  0
 43 33  1  0  0  0  0
M  END
>  <minimizedAffinity>
-5.56822062

>  <minimizedRMSD>
0.69533658

$$$$
