
 OpenBabel03252508083D

 47 51  0  0  0  0  0  0  0  0999 V2000
   45.3390   36.2760   42.7370 C   0  0  0  0  0  0  0  0  0  0  0  0
   45.4980   34.9010   42.6710 C   0  0  0  0  0  0  0  0  0  0  0  0
   45.1990   34.1220   43.7620 C   0  0  0  0  0  0  0  0  0  0  0  0
   44.7430   34.7760   44.8900 N   0  0  0  0  0  0  0  0  0  0  0  0
   44.5940   36.0980   44.9480 C   0  0  0  0  0  0  0  0  0  0  0  0
   44.8970   36.8370   43.8590 N   0  0  0  0  0  0  0  0  0  0  0  0
   45.5510   36.9490   41.9300 H   0  0  0  0  0  0  0  0  0  0  0  0
   44.2320   36.5500   45.8660 H   0  0  0  0  0  0  0  0  0  0  0  0
   45.3050   32.7150   43.8570 C   0  0  0  0  0  0  0  0  0  0  0  0
   44.7420   31.8240   42.9390 C   0  0  0  0  0  0  0  0  0  0  0  0
   44.7860   30.4610   43.0640 C   0  0  0  0  0  0  0  0  0  0  0  0
   45.4170   29.8950   44.1500 C   0  0  0  0  0  0  0  0  0  0  0  0
   45.9990   30.7840   45.0960 C   0  0  0  0  0  0  0  0  0  0  0  0
   46.6280   30.2320   46.1810 C   0  0  0  0  0  0  0  0  0  0  0  0
   47.2150   31.0390   47.1350 C   0  0  0  0  0  0  0  0  0  0  0  0
   47.1650   32.4350   46.9850 C   0  0  0  0  0  0  0  0  0  0  0  0
   46.5070   32.9520   45.8540 C   0  0  0  0  0  0  0  0  0  0  0  0
   45.9310   32.1280   44.9260 C   0  0  0  0  0  0  0  0  0  0  0  0
   44.2440   32.2800   42.0840 H   0  0  0  0  0  0  0  0  0  0  0  0
   44.3120   29.8720   42.2850 H   0  0  0  0  0  0  0  0  0  0  0  0
   45.4560   28.8350   44.2580 H   0  0  0  0  0  0  0  0  0  0  0  0
   46.6590   29.1530   46.2820 H   0  0  0  0  0  0  0  0  0  0  0  0
   47.6860   30.5360   47.9540 H   0  0  0  0  0  0  0  0  0  0  0  0
   47.6490   32.9700   47.7730 H   0  0  0  0  0  0  0  0  0  0  0  0
   46.5950   34.0170   45.9060 H   0  0  0  0  0  0  0  0  0  0  0  0
   45.9520   34.3780   41.4920 O   0  0  0  0  0  0  0  0  0  0  0  0
   47.7120   32.4940   41.0230 O   0  0  0  0  0  0  0  0  0  0  0  0
   47.5650   33.9680   41.1810 P   0  0  1  0  0  0  0  0  0  0  0  0
   48.1020   34.6710   39.7370 O   0  0  0  0  0  0  0  0  0  0  0  0
   45.6960   33.6130   38.6850 H   0  0  0  0  0  0  0  0  0  0  0  0
   46.5910   33.5810   38.1390 N   0  0  0  0  0  0  0  0  0  0  0  0
   47.7900   34.0500   38.5360 C   0  0  0  0  0  0  0  0  0  0  0  0
   48.6630   33.8080   37.5400 N   0  0  0  0  0  0  0  0  0  0  0  0
   48.0500   33.1940   36.5140 C   0  0  0  0  0  0  0  0  0  0  0  0
   48.5350   32.7650   35.3130 C   0  0  0  0  0  0  0  0  0  0  0  0
   49.5630   32.8680   34.9920 H   0  0  0  0  0  0  0  0  0  0  0  0
   47.6480   32.1670   34.4670 N   0  0  0  0  0  0  0  0  0  0  0  0
   46.3530   32.0270   34.8450 C   0  0  0  0  0  0  0  0  0  0  0  0
   45.6210   31.5570   34.1980 H   0  0  0  0  0  0  0  0  0  0  0  0
   45.8720   32.4490   36.0300 N   0  0  0  0  0  0  0  0  0  0  0  0
   46.7310   33.0500   36.8970 C   0  0  0  0  0  0  0  0  0  0  0  0
   48.5080   34.5390   42.4440 O   0  0  0  0  0  0  0  0  0  0  0  0
   49.6980   35.2430   42.3390 C   0  0  0  0  0  0  0  0  0  0  0  0
   49.3600   36.3710   41.9360 O   0  0  0  0  0  0  0  0  0  0  0  0
   50.8170   34.4210   42.7250 N   0  0  0  0  0  0  0  0  0  0  0  0
   50.8590   34.1070   43.7320 H   0  0  0  0  0  0  0  0  0  0  0  0
   51.5890   34.1140   42.0740 H   0  0  0  0  0  0  0  0  0  0  0  0
  1  6  1  0  0  0  0
  2  1  2  0  0  0  0
  2  3  1  0  0  0  0
  3  9  1  0  0  0  0
  3  4  2  0  0  0  0
  4  5  1  0  0  0  0
  5  8  1  0  0  0  0
  6  5  2  0  0  0  0
  7  1  1  0  0  0  0
  9 18  1  0  0  0  0
 10 11  1  0  0  0  0
 10  9  2  0  0  0  0
 11 12  2  0  0  0  0
 12 21  1  0  0  0  0
 12 13  1  0  0  0  0
 13 14  1  0  0  0  0
 14 22  1  0  0  0  0
 14 15  2  0  0  0  0
 15 23  1  0  0  0  0
 16 15  1  0  0  0  0
 16 24  1  0  0  0  0
 17 25  1  0  0  0  0
 17 16  2  0  0  0  0
 18 13  2  0  0  0  0
 18 17  1  0  0  0  0
 19 10  1  0  0  0  0
 20 11  1  0  0  0  0
 26  2  1  0  0  0  0
 28 27  2  6  0  0  0
 28 26  1  0  0  0  0
 28 42  1  0  0  0  0
 29 28  1  0  0  0  0
 31 32  1  0  0  0  0
 31 30  1  0  0  0  0
 32 29  1  0  0  0  0
 33 32  2  0  0  0  0
 34 41  1  0  0  0  0
 34 33  1  0  0  0  0
 35 34  2  0  0  0  0
 36 35  1  0  0  0  0
 37 38  2  0  0  0  0
 37 35  1  0  0  0  0
 38 40  1  0  0  0  0
 39 38  1  0  0  0  0
 40 41  2  0  0  0  0
 41 31  1  0  0  0  0
 43 42  1  0  0  0  0
 43 45  1  0  0  0  0
 44 43  2  0  0  0  0
 45 46  1  0  0  0  0
 47 45  1  0  0  0  0
M  END
>  <minimizedAffinity>
-6.74834776

>  <minimizedRMSD>
0.492638379

$$$$
