
 OpenBabel03252506383D

 47 51  0  0  1  0  0  0  0  0999 V2000
   46.6660   30.0230   46.5290 S   0  0  0  0  0  0  0  0  0  0  0  0
   45.5150   30.6420   43.4590 O   0  0  0  0  0  0  0  0  0  0  0  0
   44.9350   30.0420   44.3770 C   0  0  0  0  0  0  0  0  0  0  0  0
   45.0950   29.7440   45.8210 C   0  0  1  0  0  0  0  0  0  0  0  0
   44.5900   28.3260   45.9100 C   0  0  0  0  0  0  0  0  0  0  0  0
   43.2450   28.5440   45.2130 C   0  0  0  0  0  0  0  0  0  0  0  0
   43.6930   29.3690   44.0980 N   0  0  0  0  0  0  0  0  0  0  0  0
   44.2150   30.3150   46.2260 H   0  0  0  0  0  0  0  0  0  0  0  0
   44.3820   28.0050   46.9350 H   0  0  0  0  0  0  0  0  0  0  0  0
   45.2090   27.6130   45.3400 H   0  0  0  0  0  0  0  0  0  0  0  0
   42.8200   27.6100   44.8460 H   0  0  0  0  0  0  0  0  0  0  0  0
   42.5780   29.1070   45.8940 H   0  0  0  0  0  0  0  0  0  0  0  0
   42.4240   31.5270   42.7980 H   0  0  0  0  0  0  0  0  0  0  0  0
   42.3440   30.5520   42.4040 N   0  0  0  0  0  0  0  0  0  0  0  0
   42.8870   29.4210   42.9010 C   0  0  0  0  0  0  0  0  0  0  0  0
   42.5260   28.4140   42.0750 N   0  0  0  0  0  0  0  0  0  0  0  0
   41.7690   28.8910   41.0730 C   0  0  0  0  0  0  0  0  0  0  0  0
   41.1440   28.3290   39.9770 C   0  0  0  0  0  0  0  0  0  0  0  0
   41.2520   27.2580   39.8360 H   0  0  0  0  0  0  0  0  0  0  0  0
   40.4280   29.0790   39.1130 N   0  0  0  0  0  0  0  0  0  0  0  0
   40.3200   30.4160   39.3260 C   0  0  0  0  0  0  0  0  0  0  0  0
   39.7430   31.0260   38.6300 H   0  0  0  0  0  0  0  0  0  0  0  0
   40.9230   30.9780   40.3900 N   0  0  0  0  0  0  0  0  0  0  0  0
   41.6470   30.2520   41.2720 C   0  0  0  0  0  0  0  0  0  0  0  0
   44.5180   35.5080   45.1580 C   0  0  0  0  0  0  0  0  0  0  0  0
   45.1760   35.5130   43.9040 C   0  0  0  0  0  0  0  0  0  0  0  0
   46.1030   34.5550   43.6370 C   0  0  0  0  0  0  0  0  0  0  0  0
   46.3370   33.6420   44.6090 N   0  0  0  0  0  0  0  0  0  0  0  0
   45.7190   33.6420   45.7800 C   0  0  0  0  0  0  0  0  0  0  0  0
   44.8050   34.5690   46.0700 N   0  0  0  0  0  0  0  0  0  0  0  0
   46.0540   32.6210   46.7370 N   0  0  0  0  0  0  0  0  0  0  0  0
   45.3160   32.3610   47.9190 C   0  0  0  0  0  0  0  0  0  0  0  0
   46.3910   32.0090   48.9300 C   0  0  0  0  0  0  0  0  0  0  0  0
   47.6740   31.9150   48.1590 C   0  0  0  0  0  0  0  0  0  0  0  0
   47.1760   31.7140   46.7300 C   0  0  1  0  0  0  0  0  0  0  0  0
   43.7830   36.2780   45.3550 H   0  0  0  0  0  0  0  0  0  0  0  0
   46.6090   34.5420   42.7000 H   0  0  0  0  0  0  0  0  0  0  0  0
   44.9400   33.3680   48.2860 H   0  0  0  0  0  0  0  0  0  0  0  0
   44.5130   31.7050   48.0080 H   0  0  0  0  0  0  0  0  0  0  0  0
   46.1600   30.9970   49.3710 H   0  0  0  0  0  0  0  0  0  0  0  0
   46.4570   32.6820   49.7840 H   0  0  0  0  0  0  0  0  0  0  0  0
   48.2870   32.8100   48.2880 H   0  0  0  0  0  0  0  0  0  0  0  0
   48.2290   30.9930   48.4760 H   0  0  0  0  0  0  0  0  0  0  0  0
   47.9910   32.0380   46.0630 H   0  0  0  0  0  0  0  0  0  0  0  0
   44.8160   36.5510   42.9790 N   0  0  0  0  0  0  0  0  0  0  0  0
   45.6450   36.9250   42.4400 H   0  0  0  0  0  0  0  0  0  0  0  0
   43.8670   36.9340   42.8110 H   0  0  0  0  0  0  0  0  0  0  0  0
  1 35  1  0  0  0  0
  2  3  2  0  0  0  0
  3  4  1  0  0  0  0
  4  5  1  0  0  0  0
  4  8  1  1  0  0  0
  4  1  1  0  0  0  0
  5  9  1  0  0  0  0
  6 12  1  0  0  0  0
  6  5  1  0  0  0  0
  7  3  1  0  0  0  0
  7  6  1  0  0  0  0
 10  5  1  0  0  0  0
 11  6  1  0  0  0  0
 14 13  1  0  0  0  0
 14 15  1  0  0  0  0
 15  7  1  0  0  0  0
 16 15  2  0  0  0  0
 17 24  1  0  0  0  0
 17 16  1  0  0  0  0
 18 17  2  0  0  0  0
 19 18  1  0  0  0  0
 20 21  2  0  0  0  0
 20 18  1  0  0  0  0
 21 23  1  0  0  0  0
 22 21  1  0  0  0  0
 23 24  2  0  0  0  0
 24 14  1  0  0  0  0
 25 36  1  0  0  0  0
 25 30  1  0  0  0  0
 26 25  2  0  0  0  0
 27 26  1  0  0  0  0
 27 28  2  0  0  0  0
 28 29  1  0  0  0  0
 29 30  2  0  0  0  0
 29 31  1  0  0  0  0
 31 32  1  0  0  0  0
 32 39  1  0  0  0  0
 32 38  1  0  0  0  0
 32 33  1  0  0  0  0
 33 40  1  0  0  0  0
 33 41  1  0  0  0  0
 34 42  1  0  0  0  0
 34 43  1  0  0  0  0
 34 33  1  0  0  0  0
 35 44  1  6  0  0  0
 35 31  1  0  0  0  0
 35 34  1  0  0  0  0
 37 27  1  0  0  0  0
 45 26  1  0  0  0  0
 46 45  1  0  0  0  0
 47 45  1  0  0  0  0
M  END
>  <minimizedAffinity>
-5.85941792

>  <minimizedRMSD>
0.198027119

$$$$
