
 OpenBabel03252506383D

 47 51  0  0  1  0  0  0  0  0999 V2000
   46.6690   30.0350   46.5630 S   0  0  0  0  0  0  0  0  0  0  0  0
   45.5720   30.5980   43.4630 O   0  0  0  0  0  0  0  0  0  0  0  0
   44.9740   30.0180   44.3810 C   0  0  0  0  0  0  0  0  0  0  0  0
   45.1090   29.7490   45.8340 C   0  0  1  0  0  0  0  0  0  0  0  0
   44.5960   28.3350   45.9430 C   0  0  0  0  0  0  0  0  0  0  0  0
   43.2640   28.5440   45.2180 C   0  0  0  0  0  0  0  0  0  0  0  0
   43.7350   29.3460   44.0950 N   0  0  0  0  0  0  0  0  0  0  0  0
   44.2240   30.3320   46.2120 H   0  0  0  0  0  0  0  0  0  0  0  0
   44.3680   28.0350   46.9690 H   0  0  0  0  0  0  0  0  0  0  0  0
   45.2210   27.6080   45.3970 H   0  0  0  0  0  0  0  0  0  0  0  0
   42.8410   27.6050   44.8620 H   0  0  0  0  0  0  0  0  0  0  0  0
   42.5880   29.1230   45.8760 H   0  0  0  0  0  0  0  0  0  0  0  0
   44.4820   29.1290   41.3850 H   0  0  0  0  0  0  0  0  0  0  0  0
   43.4680   29.2580   41.6430 N   0  0  0  0  0  0  0  0  0  0  0  0
   42.9490   29.3770   42.8830 C   0  0  0  0  0  0  0  0  0  0  0  0
   41.6130   29.5230   42.7400 N   0  0  0  0  0  0  0  0  0  0  0  0
   41.2860   29.4970   41.4380 C   0  0  0  0  0  0  0  0  0  0  0  0
   40.1020   29.5970   40.7330 C   0  0  0  0  0  0  0  0  0  0  0  0
   39.1890   29.7290   41.3050 H   0  0  0  0  0  0  0  0  0  0  0  0
   40.0780   29.5350   39.3830 N   0  0  0  0  0  0  0  0  0  0  0  0
   41.2440   29.3690   38.7050 C   0  0  0  0  0  0  0  0  0  0  0  0
   41.2290   29.3180   37.6160 H   0  0  0  0  0  0  0  0  0  0  0  0
   42.4040   29.2690   39.3800 N   0  0  0  0  0  0  0  0  0  0  0  0
   42.4600   29.3280   40.7290 C   0  0  0  0  0  0  0  0  0  0  0  0
   44.5150   35.5080   45.1500 C   0  0  0  0  0  0  0  0  0  0  0  0
   45.1760   35.5060   43.8980 C   0  0  0  0  0  0  0  0  0  0  0  0
   46.1050   34.5470   43.6390 C   0  0  0  0  0  0  0  0  0  0  0  0
   46.3380   33.6410   44.6180 N   0  0  0  0  0  0  0  0  0  0  0  0
   45.7170   33.6480   45.7880 C   0  0  0  0  0  0  0  0  0  0  0  0
   44.8020   34.5750   46.0700 N   0  0  0  0  0  0  0  0  0  0  0  0
   46.0520   32.6340   46.7530 N   0  0  0  0  0  0  0  0  0  0  0  0
   45.3120   32.3810   47.9350 C   0  0  0  0  0  0  0  0  0  0  0  0
   46.3860   32.0370   48.9510 C   0  0  0  0  0  0  0  0  0  0  0  0
   47.6700   31.9400   48.1820 C   0  0  0  0  0  0  0  0  0  0  0  0
   47.1750   31.7290   46.7540 C   0  0  1  0  0  0  0  0  0  0  0  0
   43.7780   36.2790   45.3410 H   0  0  0  0  0  0  0  0  0  0  0  0
   46.6130   34.5280   42.7040 H   0  0  0  0  0  0  0  0  0  0  0  0
   44.9330   33.3900   48.2940 H   0  0  0  0  0  0  0  0  0  0  0  0
   44.5090   31.7240   48.0260 H   0  0  0  0  0  0  0  0  0  0  0  0
   46.1550   31.0280   49.3980 H   0  0  0  0  0  0  0  0  0  0  0  0
   46.4480   32.7160   49.8000 H   0  0  0  0  0  0  0  0  0  0  0  0
   48.2810   32.8360   48.3070 H   0  0  0  0  0  0  0  0  0  0  0  0
   48.2260   31.0210   48.5080 H   0  0  0  0  0  0  0  0  0  0  0  0
   47.9920   32.0490   46.0860 H   0  0  0  0  0  0  0  0  0  0  0  0
   44.8160   36.5370   42.9650 N   0  0  0  0  0  0  0  0  0  0  0  0
   45.6460   36.9080   42.4260 H   0  0  0  0  0  0  0  0  0  0  0  0
   43.8670   36.9170   42.7930 H   0  0  0  0  0  0  0  0  0  0  0  0
  1 35  1  0  0  0  0
  2  3  2  0  0  0  0
  3  4  1  0  0  0  0
  4  5  1  0  0  0  0
  4  8  1  1  0  0  0
  4  1  1  0  0  0  0
  5  9  1  0  0  0  0
  6 12  1  0  0  0  0
  6  5  1  0  0  0  0
  7  3  1  0  0  0  0
  7  6  1  0  0  0  0
 10  5  1  0  0  0  0
 11  6  1  0  0  0  0
 13 14  1  0  0  0  0
 14 15  1  0  0  0  0
 15  7  1  0  0  0  0
 16 15  2  0  0  0  0
 17 16  1  0  0  0  0
 18 19  1  0  0  0  0
 18 17  1  0  0  0  0
 20 18  2  0  0  0  0
 21 23  2  0  0  0  0
 21 20  1  0  0  0  0
 22 21  1  0  0  0  0
 23 24  1  0  0  0  0
 24 17  2  0  0  0  0
 24 14  1  0  0  0  0
 25 36  1  0  0  0  0
 25 30  1  0  0  0  0
 26 25  2  0  0  0  0
 27 26  1  0  0  0  0
 27 28  2  0  0  0  0
 28 29  1  0  0  0  0
 29 30  2  0  0  0  0
 29 31  1  0  0  0  0
 31 35  1  0  0  0  0
 31 32  1  0  0  0  0
 32 39  1  0  0  0  0
 32 38  1  0  0  0  0
 32 33  1  0  0  0  0
 33 40  1  0  0  0  0
 33 41  1  0  0  0  0
 34 42  1  0  0  0  0
 34 43  1  0  0  0  0
 34 33  1  0  0  0  0
 35 44  1  6  0  0  0
 35 34  1  0  0  0  0
 37 27  1  0  0  0  0
 45 26  1  0  0  0  0
 46 45  1  0  0  0  0
 47 45  1  0  0  0  0
M  END
>  <minimizedAffinity>
-5.73809242

>  <minimizedRMSD>
0.122792885

$$$$
