
 OpenBabel03252506383D

 47 51  0  0  1  0  0  0  0  0999 V2000
   46.7610   30.0160   46.5530 S   0  0  0  0  0  0  0  0  0  0  0  0
   45.4520   30.6020   43.5400 O   0  0  0  0  0  0  0  0  0  0  0  0
   44.9270   29.9960   44.4870 C   0  0  0  0  0  0  0  0  0  0  0  0
   45.1630   29.7080   45.9230 C   0  0  1  0  0  0  0  0  0  0  0  0
   44.6860   28.2820   46.0420 C   0  0  0  0  0  0  0  0  0  0  0  0
   43.3050   28.4750   45.4090 C   0  0  0  0  0  0  0  0  0  0  0  0
   43.6860   29.3020   44.2710 N   0  0  0  0  0  0  0  0  0  0  0  0
   44.2930   30.2660   46.3670 H   0  0  0  0  0  0  0  0  0  0  0  0
   44.5330   27.9620   47.0760 H   0  0  0  0  0  0  0  0  0  0  0  0
   45.2880   27.5770   45.4440 H   0  0  0  0  0  0  0  0  0  0  0  0
   42.8790   27.5330   45.0670 H   0  0  0  0  0  0  0  0  0  0  0  0
   42.6630   29.0290   46.1200 H   0  0  0  0  0  0  0  0  0  0  0  0
   43.6280   27.7120   41.9430 H   0  0  0  0  0  0  0  0  0  0  0  0
   42.9270   28.4900   42.0670 N   0  0  0  0  0  0  0  0  0  0  0  0
   42.8210   29.3360   43.1140 C   0  0  0  0  0  0  0  0  0  0  0  0
   41.7880   30.1660   42.8480 N   0  0  0  0  0  0  0  0  0  0  0  0
   41.2460   29.8560   41.6590 C   0  0  0  0  0  0  0  0  0  0  0  0
   40.1990   30.3580   40.9110 C   0  0  0  0  0  0  0  0  0  0  0  0
   39.6460   31.1960   41.3240 H   0  0  0  0  0  0  0  0  0  0  0  0
   39.8750   29.8300   39.7100 N   0  0  0  0  0  0  0  0  0  0  0  0
   40.5930   28.7810   39.2300 C   0  0  0  0  0  0  0  0  0  0  0  0
   40.3330   28.3520   38.2620 H   0  0  0  0  0  0  0  0  0  0  0  0
   41.6150   28.2840   39.9490 N   0  0  0  0  0  0  0  0  0  0  0  0
   41.9640   28.7910   41.1520 C   0  0  0  0  0  0  0  0  0  0  0  0
   44.5270   35.4610   45.1580 C   0  0  0  0  0  0  0  0  0  0  0  0
   45.1970   35.4780   43.9120 C   0  0  0  0  0  0  0  0  0  0  0  0
   46.1440   34.5370   43.6540 C   0  0  0  0  0  0  0  0  0  0  0  0
   46.3850   33.6280   44.6290 N   0  0  0  0  0  0  0  0  0  0  0  0
   45.7550   33.6170   45.7940 C   0  0  0  0  0  0  0  0  0  0  0  0
   44.8220   34.5260   46.0740 N   0  0  0  0  0  0  0  0  0  0  0  0
   46.0990   32.6030   46.7540 N   0  0  0  0  0  0  0  0  0  0  0  0
   45.3540   32.3290   47.9290 C   0  0  0  0  0  0  0  0  0  0  0  0
   46.4250   31.9960   48.9510 C   0  0  0  0  0  0  0  0  0  0  0  0
   47.7170   31.9260   48.1920 C   0  0  0  0  0  0  0  0  0  0  0  0
   47.2370   31.7160   46.7580 C   0  0  1  0  0  0  0  0  0  0  0  0
   43.7750   36.2170   45.3480 H   0  0  0  0  0  0  0  0  0  0  0  0
   46.6600   34.5330   42.7220 H   0  0  0  0  0  0  0  0  0  0  0  0
   44.9550   33.3290   48.2920 H   0  0  0  0  0  0  0  0  0  0  0  0
   44.5620   31.6580   48.0090 H   0  0  0  0  0  0  0  0  0  0  0  0
   46.2080   30.9810   49.3890 H   0  0  0  0  0  0  0  0  0  0  0  0
   46.4690   32.6700   49.8050 H   0  0  0  0  0  0  0  0  0  0  0  0
   48.3120   32.8320   48.3280 H   0  0  0  0  0  0  0  0  0  0  0  0
   48.2860   31.0150   48.5160 H   0  0  0  0  0  0  0  0  0  0  0  0
   48.0540   32.0550   46.1000 H   0  0  0  0  0  0  0  0  0  0  0  0
   44.8270   36.5090   42.9820 N   0  0  0  0  0  0  0  0  0  0  0  0
   45.6550   36.8980   42.4520 H   0  0  0  0  0  0  0  0  0  0  0  0
   43.8740   36.8740   42.8050 H   0  0  0  0  0  0  0  0  0  0  0  0
  1 35  1  0  0  0  0
  2  3  2  0  0  0  0
  3  4  1  0  0  0  0
  4  5  1  0  0  0  0
  4  8  1  1  0  0  0
  4  1  1  0  0  0  0
  5  9  1  0  0  0  0
  6  5  1  0  0  0  0
  6 12  1  0  0  0  0
  7  3  1  0  0  0  0
  7  6  1  0  0  0  0
 10  5  1  0  0  0  0
 11  6  1  0  0  0  0
 13 14  1  0  0  0  0
 14 15  1  0  0  0  0
 15  7  1  0  0  0  0
 16 15  2  0  0  0  0
 17 16  1  0  0  0  0
 18 19  1  0  0  0  0
 18 17  2  0  0  0  0
 20 18  1  0  0  0  0
 21 20  2  0  0  0  0
 21 23  1  0  0  0  0
 22 21  1  0  0  0  0
 23 24  2  0  0  0  0
 24 17  1  0  0  0  0
 24 14  1  0  0  0  0
 25 36  1  0  0  0  0
 25 30  1  0  0  0  0
 26 25  2  0  0  0  0
 27 26  1  0  0  0  0
 27 28  2  0  0  0  0
 28 29  1  0  0  0  0
 29 30  2  0  0  0  0
 29 31  1  0  0  0  0
 31 35  1  0  0  0  0
 31 32  1  0  0  0  0
 32 39  1  0  0  0  0
 32 38  1  0  0  0  0
 32 33  1  0  0  0  0
 33 40  1  0  0  0  0
 33 41  1  0  0  0  0
 34 42  1  0  0  0  0
 34 43  1  0  0  0  0
 34 33  1  0  0  0  0
 35 44  1  6  0  0  0
 35 34  1  0  0  0  0
 37 27  1  0  0  0  0
 45 26  1  0  0  0  0
 46 45  1  0  0  0  0
 47 45  1  0  0  0  0
M  END
>  <minimizedAffinity>
-5.85891151

>  <minimizedRMSD>
0.318540126

$$$$
