
 OpenBabel03252508073D

 47 51  0  0  0  0  0  0  0  0999 V2000
   45.2200   35.8360   42.9450 C   0  0  0  0  0  0  0  0  0  0  0  0
   45.5020   34.4790   42.9770 C   0  0  0  0  0  0  0  0  0  0  0  0
   45.3320   33.7700   44.1410 C   0  0  0  0  0  0  0  0  0  0  0  0
   44.8750   34.4720   45.2400 N   0  0  0  0  0  0  0  0  0  0  0  0
   44.6070   35.7750   45.2030 C   0  0  0  0  0  0  0  0  0  0  0  0
   44.7850   36.4460   44.0450 N   0  0  0  0  0  0  0  0  0  0  0  0
   45.3270   36.4560   42.0780 H   0  0  0  0  0  0  0  0  0  0  0  0
   44.2510   36.2680   46.1020 H   0  0  0  0  0  0  0  0  0  0  0  0
   45.5740   32.3900   44.3380 C   0  0  0  0  0  0  0  0  0  0  0  0
   45.1510   31.3890   43.4610 C   0  0  0  0  0  0  0  0  0  0  0  0
   45.3240   30.0480   43.6820 C   0  0  0  0  0  0  0  0  0  0  0  0
   45.9520   29.6220   44.8310 C   0  0  0  0  0  0  0  0  0  0  0  0
   46.3920   30.6250   45.7380 C   0  0  0  0  0  0  0  0  0  0  0  0
   47.0170   30.2130   46.8860 C   0  0  0  0  0  0  0  0  0  0  0  0
   47.4710   31.1370   47.8070 C   0  0  0  0  0  0  0  0  0  0  0  0
   47.2890   32.5070   47.5580 C   0  0  0  0  0  0  0  0  0  0  0  0
   46.6410   32.8790   46.3650 C   0  0  0  0  0  0  0  0  0  0  0  0
   46.1990   31.9420   45.4730 C   0  0  0  0  0  0  0  0  0  0  0  0
   44.6550   31.7340   42.5540 H   0  0  0  0  0  0  0  0  0  0  0  0
   44.9520   29.3640   42.9260 H   0  0  0  0  0  0  0  0  0  0  0  0
   46.0910   28.5810   45.0140 H   0  0  0  0  0  0  0  0  0  0  0  0
   47.1510   29.1520   47.0640 H   0  0  0  0  0  0  0  0  0  0  0  0
   47.9460   30.7390   48.6790 H   0  0  0  0  0  0  0  0  0  0  0  0
   47.6760   33.1390   48.3280 H   0  0  0  0  0  0  0  0  0  0  0  0
   46.6200   33.9480   46.3480 H   0  0  0  0  0  0  0  0  0  0  0  0
   45.9430   33.9040   41.8180 O   0  0  0  0  0  0  0  0  0  0  0  0
   48.0000   32.4130   41.1750 O   0  0  0  0  0  0  0  0  0  0  0  0
   47.5660   33.8280   41.3400 P   0  0  1  0  0  0  0  0  0  0  0  0
   47.7920   34.5870   39.8430 O   0  0  0  0  0  0  0  0  0  0  0  0
   50.0470   33.0400   39.1100 H   0  0  0  0  0  0  0  0  0  0  0  0
   49.2030   33.1020   38.4910 N   0  0  0  0  0  0  0  0  0  0  0  0
   48.0790   33.8030   38.7340 C   0  0  0  0  0  0  0  0  0  0  0  0
   47.2530   33.6100   37.6870 N   0  0  0  0  0  0  0  0  0  0  0  0
   47.8250   32.8010   36.7800 C   0  0  0  0  0  0  0  0  0  0  0  0
   47.3630   32.3400   35.5810 C   0  0  0  0  0  0  0  0  0  0  0  0
   46.3960   32.5790   35.1600 H   0  0  0  0  0  0  0  0  0  0  0  0
   48.1920   31.5190   34.8770 N   0  0  0  0  0  0  0  0  0  0  0  0
   49.4100   31.2030   35.3810 C   0  0  0  0  0  0  0  0  0  0  0  0
   50.0950   30.5530   34.8470 H   0  0  0  0  0  0  0  0  0  0  0  0
   49.8690   31.6570   36.5620 N   0  0  0  0  0  0  0  0  0  0  0  0
   49.0660   32.4790   37.2920 C   0  0  0  0  0  0  0  0  0  0  0  0
   48.4930   34.6170   42.4910 O   0  0  0  0  0  0  0  0  0  0  0  0
   49.7020   35.2620   42.2840 C   0  0  0  0  0  0  0  0  0  0  0  0
   49.3910   36.3570   41.7800 O   0  0  0  0  0  0  0  0  0  0  0  0
   50.8040   34.4420   42.7180 N   0  0  0  0  0  0  0  0  0  0  0  0
   50.8680   34.2280   43.7490 H   0  0  0  0  0  0  0  0  0  0  0  0
   51.5440   34.0440   42.0790 H   0  0  0  0  0  0  0  0  0  0  0  0
  1  2  2  0  0  0  0
  1  6  1  0  0  0  0
  2  3  1  0  0  0  0
  3  9  1  0  0  0  0
  3  4  2  0  0  0  0
  5  4  1  0  0  0  0
  5  8  1  0  0  0  0
  6  5  2  0  0  0  0
  7  1  1  0  0  0  0
  9 18  1  0  0  0  0
 10 11  1  0  0  0  0
 10  9  2  0  0  0  0
 11 12  2  0  0  0  0
 12 21  1  0  0  0  0
 12 13  1  0  0  0  0
 13 14  1  0  0  0  0
 14 22  1  0  0  0  0
 14 15  2  0  0  0  0
 15 23  1  0  0  0  0
 16 15  1  0  0  0  0
 16 24  1  0  0  0  0
 17 16  2  0  0  0  0
 18 13  2  0  0  0  0
 18 17  1  0  0  0  0
 19 10  1  0  0  0  0
 20 11  1  0  0  0  0
 25 17  1  0  0  0  0
 26  2  1  0  0  0  0
 28 27  2  6  0  0  0
 28 26  1  0  0  0  0
 28 42  1  0  0  0  0
 29 28  1  0  0  0  0
 31 32  1  0  0  0  0
 31 30  1  0  0  0  0
 32 29  1  0  0  0  0
 33 32  2  0  0  0  0
 34 41  1  0  0  0  0
 34 33  1  0  0  0  0
 35 34  2  0  0  0  0
 36 35  1  0  0  0  0
 37 38  2  0  0  0  0
 37 35  1  0  0  0  0
 38 40  1  0  0  0  0
 39 38  1  0  0  0  0
 40 41  2  0  0  0  0
 41 31  1  0  0  0  0
 43 42  1  0  0  0  0
 43 45  1  0  0  0  0
 44 43  2  0  0  0  0
 45 46  1  0  0  0  0
 47 45  1  0  0  0  0
M  END
>  <minimizedAffinity>
-6.73847151

>  <minimizedRMSD>
1.0286665

$$$$
