
 OpenBabel03252506383D

 47 51  0  0  1  0  0  0  0  0999 V2000
   46.6570   30.0360   46.5730 S   0  0  0  0  0  0  0  0  0  0  0  0
   45.6000   30.5200   43.4450 O   0  0  0  0  0  0  0  0  0  0  0  0
   44.9840   29.9770   44.3750 C   0  0  0  0  0  0  0  0  0  0  0  0
   45.1000   29.7500   45.8370 C   0  0  1  0  0  0  0  0  0  0  0  0
   44.5660   28.3480   45.9830 C   0  0  0  0  0  0  0  0  0  0  0  0
   43.2440   28.5540   45.2390 C   0  0  0  0  0  0  0  0  0  0  0  0
   43.7380   29.3140   44.0970 N   0  0  0  0  0  0  0  0  0  0  0  0
   44.2210   30.3570   46.1880 H   0  0  0  0  0  0  0  0  0  0  0  0
   44.3240   28.0830   47.0160 H   0  0  0  0  0  0  0  0  0  0  0  0
   45.1850   27.5960   45.4660 H   0  0  0  0  0  0  0  0  0  0  0  0
   42.8110   27.6110   44.9080 H   0  0  0  0  0  0  0  0  0  0  0  0
   42.5700   29.1630   45.8720 H   0  0  0  0  0  0  0  0  0  0  0  0
   41.2980   28.0650   43.4320 H   0  0  0  0  0  0  0  0  0  0  0  0
   41.7980   28.6580   42.7190 N   0  0  0  0  0  0  0  0  0  0  0  0
   42.9640   29.3190   42.8770 C   0  0  0  0  0  0  0  0  0  0  0  0
   43.2240   29.9460   41.7080 N   0  0  0  0  0  0  0  0  0  0  0  0
   42.2470   29.6910   40.8230 C   0  0  0  0  0  0  0  0  0  0  0  0
   42.0030   30.0590   39.5150 C   0  0  0  0  0  0  0  0  0  0  0  0
   42.7320   30.7040   39.0320 H   0  0  0  0  0  0  0  0  0  0  0  0
   40.9010   29.6370   38.8580 N   0  0  0  0  0  0  0  0  0  0  0  0
   40.0130   28.8310   39.4980 C   0  0  0  0  0  0  0  0  0  0  0  0
   39.1230   28.4890   38.9710 H   0  0  0  0  0  0  0  0  0  0  0  0
   40.2390   28.4640   40.7730 N   0  0  0  0  0  0  0  0  0  0  0  0
   41.3320   28.8710   41.4560 C   0  0  0  0  0  0  0  0  0  0  0  0
   44.5130   35.5090   45.1440 C   0  0  0  0  0  0  0  0  0  0  0  0
   45.1730   35.5010   43.8920 C   0  0  0  0  0  0  0  0  0  0  0  0
   46.0990   34.5400   43.6350 C   0  0  0  0  0  0  0  0  0  0  0  0
   46.3320   33.6360   44.6160 N   0  0  0  0  0  0  0  0  0  0  0  0
   45.7120   33.6480   45.7870 C   0  0  0  0  0  0  0  0  0  0  0  0
   44.7990   34.5780   46.0660 N   0  0  0  0  0  0  0  0  0  0  0  0
   46.0460   32.6370   46.7540 N   0  0  0  0  0  0  0  0  0  0  0  0
   45.3060   32.3890   47.9380 C   0  0  0  0  0  0  0  0  0  0  0  0
   46.3800   32.0460   48.9540 C   0  0  0  0  0  0  0  0  0  0  0  0
   47.6630   31.9440   48.1850 C   0  0  0  0  0  0  0  0  0  0  0  0
   47.1670   31.7290   46.7570 C   0  0  1  0  0  0  0  0  0  0  0  0
   43.7780   36.2810   45.3330 H   0  0  0  0  0  0  0  0  0  0  0  0
   46.6070   34.5170   42.6990 H   0  0  0  0  0  0  0  0  0  0  0  0
   44.9290   33.4000   48.2950 H   0  0  0  0  0  0  0  0  0  0  0  0
   44.5020   31.7340   48.0320 H   0  0  0  0  0  0  0  0  0  0  0  0
   46.1470   31.0390   49.4040 H   0  0  0  0  0  0  0  0  0  0  0  0
   46.4440   32.7280   49.8010 H   0  0  0  0  0  0  0  0  0  0  0  0
   48.2760   32.8400   48.3060 H   0  0  0  0  0  0  0  0  0  0  0  0
   48.2180   31.0250   48.5130 H   0  0  0  0  0  0  0  0  0  0  0  0
   47.9840   32.0460   46.0880 H   0  0  0  0  0  0  0  0  0  0  0  0
   44.8140   36.5300   42.9550 N   0  0  0  0  0  0  0  0  0  0  0  0
   45.6440   36.8980   42.4140 H   0  0  0  0  0  0  0  0  0  0  0  0
   43.8660   36.9110   42.7820 H   0  0  0  0  0  0  0  0  0  0  0  0
  1 35  1  0  0  0  0
  2  3  2  0  0  0  0
  3  4  1  0  0  0  0
  4  5  1  0  0  0  0
  4  8  1  1  0  0  0
  4  1  1  0  0  0  0
  5  9  1  0  0  0  0
  6 12  1  0  0  0  0
  6  5  1  0  0  0  0
  7  3  1  0  0  0  0
  7  6  1  0  0  0  0
 10  5  1  0  0  0  0
 11  6  1  0  0  0  0
 14 15  1  0  0  0  0
 14 13  1  0  0  0  0
 15  7  1  0  0  0  0
 16 15  2  0  0  0  0
 17 24  1  0  0  0  0
 17 16  1  0  0  0  0
 18 17  2  0  0  0  0
 19 18  1  0  0  0  0
 20 21  2  0  0  0  0
 20 18  1  0  0  0  0
 21 23  1  0  0  0  0
 22 21  1  0  0  0  0
 23 24  2  0  0  0  0
 24 14  1  0  0  0  0
 25 36  1  0  0  0  0
 25 30  1  0  0  0  0
 26 25  2  0  0  0  0
 27 26  1  0  0  0  0
 27 28  2  0  0  0  0
 28 29  1  0  0  0  0
 29 30  2  0  0  0  0
 29 31  1  0  0  0  0
 31 35  1  0  0  0  0
 31 32  1  0  0  0  0
 32 39  1  0  0  0  0
 32 38  1  0  0  0  0
 32 33  1  0  0  0  0
 33 40  1  0  0  0  0
 33 41  1  0  0  0  0
 34 42  1  0  0  0  0
 34 43  1  0  0  0  0
 34 33  1  0  0  0  0
 35 44  1  6  0  0  0
 35 34  1  0  0  0  0
 37 27  1  0  0  0  0
 45 26  1  0  0  0  0
 46 45  1  0  0  0  0
 47 45  1  0  0  0  0
M  END
>  <minimizedAffinity>
-5.72540474

>  <minimizedRMSD>
0.0645853505

$$$$
