
 OpenBabel03252506383D

 47 51  0  0  1  0  0  0  0  0999 V2000
   46.7970   29.9880   46.5250 S   0  0  0  0  0  0  0  0  0  0  0  0
   45.3060   30.6140   43.6070 O   0  0  0  0  0  0  0  0  0  0  0  0
   44.8440   29.9870   44.5710 C   0  0  0  0  0  0  0  0  0  0  0  0
   45.1660   29.6760   45.9860 C   0  0  1  0  0  0  0  0  0  0  0  0
   44.7110   28.2430   46.1060 C   0  0  0  0  0  0  0  0  0  0  0  0
   43.2930   28.4320   45.5600 C   0  0  0  0  0  0  0  0  0  0  0  0
   43.5980   29.2840   44.4170 N   0  0  0  0  0  0  0  0  0  0  0  0
   44.3200   30.2170   46.4910 H   0  0  0  0  0  0  0  0  0  0  0  0
   44.6220   27.9030   47.1420 H   0  0  0  0  0  0  0  0  0  0  0  0
   45.2830   27.5540   45.4620 H   0  0  0  0  0  0  0  0  0  0  0  0
   42.8560   27.4920   45.2270 H   0  0  0  0  0  0  0  0  0  0  0  0
   42.6890   28.9680   46.3170 H   0  0  0  0  0  0  0  0  0  0  0  0
   41.3760   30.9490   43.9210 H   0  0  0  0  0  0  0  0  0  0  0  0
   41.6390   30.2010   43.2270 N   0  0  0  0  0  0  0  0  0  0  0  0
   42.6660   29.3290   43.3140 C   0  0  0  0  0  0  0  0  0  0  0  0
   42.6240   28.5570   42.2050 N   0  0  0  0  0  0  0  0  0  0  0  0
   41.5940   28.9280   41.4270 C   0  0  0  0  0  0  0  0  0  0  0  0
   41.0920   28.5000   40.2140 C   0  0  0  0  0  0  0  0  0  0  0  0
   41.6030   27.6760   39.7230 H   0  0  0  0  0  0  0  0  0  0  0  0
   40.0080   29.0810   39.6560 N   0  0  0  0  0  0  0  0  0  0  0  0
   39.3990   30.1090   40.3010 C   0  0  0  0  0  0  0  0  0  0  0  0
   38.5230   30.5800   39.8530 H   0  0  0  0  0  0  0  0  0  0  0  0
   39.8780   30.5360   41.4840 N   0  0  0  0  0  0  0  0  0  0  0  0
   40.9590   29.9750   42.0670 C   0  0  0  0  0  0  0  0  0  0  0  0
   44.5350   35.4340   45.1790 C   0  0  0  0  0  0  0  0  0  0  0  0
   45.2060   35.4660   43.9330 C   0  0  0  0  0  0  0  0  0  0  0  0
   46.1580   34.5320   43.6670 C   0  0  0  0  0  0  0  0  0  0  0  0
   46.4030   33.6160   44.6330 N   0  0  0  0  0  0  0  0  0  0  0  0
   45.7730   33.5910   45.7980 C   0  0  0  0  0  0  0  0  0  0  0  0
   44.8350   34.4930   46.0860 N   0  0  0  0  0  0  0  0  0  0  0  0
   46.1220   32.5700   46.7500 N   0  0  0  0  0  0  0  0  0  0  0  0
   45.3770   32.2820   47.9210 C   0  0  0  0  0  0  0  0  0  0  0  0
   46.4500   31.9460   48.9410 C   0  0  0  0  0  0  0  0  0  0  0  0
   47.7420   31.8890   48.1820 C   0  0  0  0  0  0  0  0  0  0  0  0
   47.2640   31.6890   46.7460 C   0  0  1  0  0  0  0  0  0  0  0  0
   43.7800   36.1850   45.3750 H   0  0  0  0  0  0  0  0  0  0  0  0
   46.6740   34.5390   42.7350 H   0  0  0  0  0  0  0  0  0  0  0  0
   44.9740   33.2770   48.2930 H   0  0  0  0  0  0  0  0  0  0  0  0
   44.5890   31.6070   47.9960 H   0  0  0  0  0  0  0  0  0  0  0  0
   46.2370   30.9250   49.3700 H   0  0  0  0  0  0  0  0  0  0  0  0
   46.4900   32.6120   49.8010 H   0  0  0  0  0  0  0  0  0  0  0  0
   48.3330   32.7960   48.3260 H   0  0  0  0  0  0  0  0  0  0  0  0
   48.3160   30.9770   48.4980 H   0  0  0  0  0  0  0  0  0  0  0  0
   48.0790   32.0380   46.0910 H   0  0  0  0  0  0  0  0  0  0  0  0
   44.8320   36.5030   43.0120 N   0  0  0  0  0  0  0  0  0  0  0  0
   45.6580   36.9010   42.4860 H   0  0  0  0  0  0  0  0  0  0  0  0
   43.8760   36.8650   42.8380 H   0  0  0  0  0  0  0  0  0  0  0  0
  1 35  1  0  0  0  0
  2  3  2  0  0  0  0
  3  4  1  0  0  0  0
  4  5  1  0  0  0  0
  4  8  1  1  0  0  0
  4  1  1  0  0  0  0
  5  9  1  0  0  0  0
  6  5  1  0  0  0  0
  6 12  1  0  0  0  0
  7  3  1  0  0  0  0
  7  6  1  0  0  0  0
 10  5  1  0  0  0  0
 11  6  1  0  0  0  0
 14 15  1  0  0  0  0
 14 13  1  0  0  0  0
 15  7  1  0  0  0  0
 16 15  2  0  0  0  0
 17 24  1  0  0  0  0
 17 16  1  0  0  0  0
 18 17  2  0  0  0  0
 19 18  1  0  0  0  0
 20 18  1  0  0  0  0
 20 21  2  0  0  0  0
 21 23  1  0  0  0  0
 22 21  1  0  0  0  0
 23 24  2  0  0  0  0
 24 14  1  0  0  0  0
 25 36  1  0  0  0  0
 25 30  1  0  0  0  0
 26 25  2  0  0  0  0
 27 26  1  0  0  0  0
 27 28  2  0  0  0  0
 28 29  1  0  0  0  0
 29 30  2  0  0  0  0
 29 31  1  0  0  0  0
 31 32  1  0  0  0  0
 32 39  1  0  0  0  0
 32 38  1  0  0  0  0
 32 33  1  0  0  0  0
 33 40  1  0  0  0  0
 33 41  1  0  0  0  0
 34 42  1  0  0  0  0
 34 43  1  0  0  0  0
 34 33  1  0  0  0  0
 35 44  1  6  0  0  0
 35 31  1  0  0  0  0
 35 34  1  0  0  0  0
 37 27  1  0  0  0  0
 45 26  1  0  0  0  0
 46 45  1  0  0  0  0
 47 45  1  0  0  0  0
M  END
>  <minimizedAffinity>
-6.11086512

>  <minimizedRMSD>
0.558740199

$$$$
