
 OpenBabel03252508073D

 47 51  0  0  0  0  0  0  0  0999 V2000
   45.3380   36.2760   42.7370 C   0  0  0  0  0  0  0  0  0  0  0  0
   45.4970   34.9010   42.6710 C   0  0  0  0  0  0  0  0  0  0  0  0
   45.1990   34.1220   43.7630 C   0  0  0  0  0  0  0  0  0  0  0  0
   44.7430   34.7760   44.8910 N   0  0  0  0  0  0  0  0  0  0  0  0
   44.5930   36.0970   44.9480 C   0  0  0  0  0  0  0  0  0  0  0  0
   44.8960   36.8370   43.8600 N   0  0  0  0  0  0  0  0  0  0  0  0
   45.5500   36.9490   41.9310 H   0  0  0  0  0  0  0  0  0  0  0  0
   44.2310   36.5500   45.8660 H   0  0  0  0  0  0  0  0  0  0  0  0
   45.3060   32.7150   43.8580 C   0  0  0  0  0  0  0  0  0  0  0  0
   44.7440   31.8240   42.9400 C   0  0  0  0  0  0  0  0  0  0  0  0
   44.7880   30.4610   43.0650 C   0  0  0  0  0  0  0  0  0  0  0  0
   45.4190   29.8960   44.1510 C   0  0  0  0  0  0  0  0  0  0  0  0
   46.0000   30.7840   45.0970 C   0  0  0  0  0  0  0  0  0  0  0  0
   46.6290   30.2330   46.1820 C   0  0  0  0  0  0  0  0  0  0  0  0
   47.2160   31.0410   47.1370 C   0  0  0  0  0  0  0  0  0  0  0  0
   47.1650   32.4360   46.9860 C   0  0  0  0  0  0  0  0  0  0  0  0
   46.5070   32.9530   45.8550 C   0  0  0  0  0  0  0  0  0  0  0  0
   45.9320   32.1290   44.9280 C   0  0  0  0  0  0  0  0  0  0  0  0
   44.2460   32.2790   42.0840 H   0  0  0  0  0  0  0  0  0  0  0  0
   44.3150   29.8710   42.2860 H   0  0  0  0  0  0  0  0  0  0  0  0
   45.4580   28.8350   44.2590 H   0  0  0  0  0  0  0  0  0  0  0  0
   46.6610   29.1540   46.2840 H   0  0  0  0  0  0  0  0  0  0  0  0
   47.6860   30.5370   47.9560 H   0  0  0  0  0  0  0  0  0  0  0  0
   47.6490   32.9710   47.7750 H   0  0  0  0  0  0  0  0  0  0  0  0
   46.5950   34.0170   45.9080 H   0  0  0  0  0  0  0  0  0  0  0  0
   45.9520   34.3780   41.4920 O   0  0  0  0  0  0  0  0  0  0  0  0
   47.7130   32.4950   41.0250 O   0  0  0  0  0  0  0  0  0  0  0  0
   47.5660   33.9690   41.1820 P   0  0  1  0  0  0  0  0  0  0  0  0
   48.1020   34.6720   39.7380 O   0  0  0  0  0  0  0  0  0  0  0  0
   45.6950   33.6140   38.6860 H   0  0  0  0  0  0  0  0  0  0  0  0
   46.5900   33.5820   38.1410 N   0  0  0  0  0  0  0  0  0  0  0  0
   47.7890   34.0500   38.5370 C   0  0  0  0  0  0  0  0  0  0  0  0
   48.6630   33.8090   37.5410 N   0  0  0  0  0  0  0  0  0  0  0  0
   48.0480   33.1940   36.5150 C   0  0  0  0  0  0  0  0  0  0  0  0
   48.5340   32.7650   35.3140 C   0  0  0  0  0  0  0  0  0  0  0  0
   49.5620   32.8670   34.9930 H   0  0  0  0  0  0  0  0  0  0  0  0
   47.6460   32.1670   34.4700 N   0  0  0  0  0  0  0  0  0  0  0  0
   46.3520   32.0270   34.8470 C   0  0  0  0  0  0  0  0  0  0  0  0
   45.6200   31.5570   34.1990 H   0  0  0  0  0  0  0  0  0  0  0  0
   45.8700   32.4490   36.0310 N   0  0  0  0  0  0  0  0  0  0  0  0
   46.7300   33.0500   36.8980 C   0  0  0  0  0  0  0  0  0  0  0  0
   48.5080   34.5410   42.4440 O   0  0  0  0  0  0  0  0  0  0  0  0
   49.6990   35.2430   42.3400 C   0  0  0  0  0  0  0  0  0  0  0  0
   49.3620   36.3720   41.9370 O   0  0  0  0  0  0  0  0  0  0  0  0
   50.8170   34.4200   42.7250 N   0  0  0  0  0  0  0  0  0  0  0  0
   50.8590   34.1060   43.7320 H   0  0  0  0  0  0  0  0  0  0  0  0
   51.5880   34.1130   42.0740 H   0  0  0  0  0  0  0  0  0  0  0  0
  1  6  1  0  0  0  0
  2  1  2  0  0  0  0
  2  3  1  0  0  0  0
  3  9  1  0  0  0  0
  3  4  2  0  0  0  0
  4  5  1  0  0  0  0
  5  8  1  0  0  0  0
  6  5  2  0  0  0  0
  7  1  1  0  0  0  0
  9 18  1  0  0  0  0
 10 11  1  0  0  0  0
 10  9  2  0  0  0  0
 11 12  2  0  0  0  0
 12 21  1  0  0  0  0
 12 13  1  0  0  0  0
 13 14  1  0  0  0  0
 14 22  1  0  0  0  0
 14 15  2  0  0  0  0
 15 23  1  0  0  0  0
 16 15  1  0  0  0  0
 16 24  1  0  0  0  0
 17 25  1  0  0  0  0
 17 16  2  0  0  0  0
 18 13  2  0  0  0  0
 18 17  1  0  0  0  0
 19 10  1  0  0  0  0
 20 11  1  0  0  0  0
 26  2  1  0  0  0  0
 28 27  2  6  0  0  0
 28 26  1  0  0  0  0
 28 42  1  0  0  0  0
 29 28  1  0  0  0  0
 31 32  1  0  0  0  0
 31 30  1  0  0  0  0
 32 29  1  0  0  0  0
 33 32  2  0  0  0  0
 34 41  1  0  0  0  0
 34 33  1  0  0  0  0
 35 34  2  0  0  0  0
 36 35  1  0  0  0  0
 37 38  2  0  0  0  0
 37 35  1  0  0  0  0
 38 40  1  0  0  0  0
 39 38  1  0  0  0  0
 40 41  2  0  0  0  0
 41 31  1  0  0  0  0
 43 42  1  0  0  0  0
 43 45  1  0  0  0  0
 44 43  2  0  0  0  0
 45 46  1  0  0  0  0
 47 45  1  0  0  0  0
M  END
>  <minimizedAffinity>
-6.75072479

>  <minimizedRMSD>
0.462804407

$$$$
