
 OpenBabel03252506383D

 47 51  0  0  1  0  0  0  0  0999 V2000
   46.6590   30.0290   46.5440 S   0  0  0  0  0  0  0  0  0  0  0  0
   45.5550   30.5910   43.4460 O   0  0  0  0  0  0  0  0  0  0  0  0
   44.9580   30.0160   44.3680 C   0  0  0  0  0  0  0  0  0  0  0  0
   45.0960   29.7490   45.8210 C   0  0  1  0  0  0  0  0  0  0  0  0
   44.5770   28.3370   45.9340 C   0  0  0  0  0  0  0  0  0  0  0  0
   43.2430   28.5510   45.2120 C   0  0  0  0  0  0  0  0  0  0  0  0
   43.7140   29.3480   44.0870 N   0  0  0  0  0  0  0  0  0  0  0  0
   44.2150   30.3360   46.2000 H   0  0  0  0  0  0  0  0  0  0  0  0
   44.3510   28.0400   46.9620 H   0  0  0  0  0  0  0  0  0  0  0  0
   45.1970   27.6060   45.3870 H   0  0  0  0  0  0  0  0  0  0  0  0
   42.8150   27.6130   44.8600 H   0  0  0  0  0  0  0  0  0  0  0  0
   42.5720   29.1340   45.8720 H   0  0  0  0  0  0  0  0  0  0  0  0
   44.3400   30.2100   41.4760 H   0  0  0  0  0  0  0  0  0  0  0  0
   43.3800   29.8310   41.6890 N   0  0  0  0  0  0  0  0  0  0  0  0
   42.9250   29.3810   42.8780 C   0  0  0  0  0  0  0  0  0  0  0  0
   41.6430   28.9930   42.6880 N   0  0  0  0  0  0  0  0  0  0  0  0
   41.2890   29.1910   41.4080 C   0  0  0  0  0  0  0  0  0  0  0  0
   40.1370   28.9810   40.6770 C   0  0  0  0  0  0  0  0  0  0  0  0
   39.2820   28.5610   41.2000 H   0  0  0  0  0  0  0  0  0  0  0  0
   40.0700   29.2850   39.3630 N   0  0  0  0  0  0  0  0  0  0  0  0
   41.1610   29.8080   38.7460 C   0  0  0  0  0  0  0  0  0  0  0  0
   41.1110   30.0540   37.6860 H   0  0  0  0  0  0  0  0  0  0  0  0
   42.2910   30.0180   39.4460 N   0  0  0  0  0  0  0  0  0  0  0  0
   42.3880   29.7240   40.7620 C   0  0  0  0  0  0  0  0  0  0  0  0
   44.5160   35.5110   45.1510 C   0  0  0  0  0  0  0  0  0  0  0  0
   45.1750   35.5110   43.8980 C   0  0  0  0  0  0  0  0  0  0  0  0
   46.1010   34.5510   43.6350 C   0  0  0  0  0  0  0  0  0  0  0  0
   46.3340   33.6410   44.6110 N   0  0  0  0  0  0  0  0  0  0  0  0
   45.7150   33.6460   45.7810 C   0  0  0  0  0  0  0  0  0  0  0  0
   44.8020   34.5740   46.0670 N   0  0  0  0  0  0  0  0  0  0  0  0
   46.0490   32.6290   46.7420 N   0  0  0  0  0  0  0  0  0  0  0  0
   45.3100   32.3730   47.9250 C   0  0  0  0  0  0  0  0  0  0  0  0
   46.3840   32.0240   48.9380 C   0  0  0  0  0  0  0  0  0  0  0  0
   47.6670   31.9260   48.1680 C   0  0  0  0  0  0  0  0  0  0  0  0
   47.1700   31.7210   46.7390 C   0  0  1  0  0  0  0  0  0  0  0  0
   43.7810   36.2820   45.3450 H   0  0  0  0  0  0  0  0  0  0  0  0
   46.6080   34.5340   42.6980 H   0  0  0  0  0  0  0  0  0  0  0  0
   44.9340   33.3820   48.2880 H   0  0  0  0  0  0  0  0  0  0  0  0
   44.5060   31.7180   48.0150 H   0  0  0  0  0  0  0  0  0  0  0  0
   46.1520   31.0140   49.3820 H   0  0  0  0  0  0  0  0  0  0  0  0
   46.4490   32.7000   49.7890 H   0  0  0  0  0  0  0  0  0  0  0  0
   48.2810   32.8210   48.2940 H   0  0  0  0  0  0  0  0  0  0  0  0
   48.2220   31.0050   48.4890 H   0  0  0  0  0  0  0  0  0  0  0  0
   47.9860   32.0410   46.0720 H   0  0  0  0  0  0  0  0  0  0  0  0
   44.8160   36.5450   42.9690 N   0  0  0  0  0  0  0  0  0  0  0  0
   45.6460   36.9160   42.4290 H   0  0  0  0  0  0  0  0  0  0  0  0
   43.8680   36.9280   42.7990 H   0  0  0  0  0  0  0  0  0  0  0  0
  1 35  1  0  0  0  0
  2  3  2  0  0  0  0
  3  4  1  0  0  0  0
  4  5  1  0  0  0  0
  4  8  1  1  0  0  0
  4  1  1  0  0  0  0
  5  9  1  0  0  0  0
  6 12  1  0  0  0  0
  6  5  1  0  0  0  0
  7  3  1  0  0  0  0
  7  6  1  0  0  0  0
 10  5  1  0  0  0  0
 11  6  1  0  0  0  0
 13 14  1  0  0  0  0
 14 15  1  0  0  0  0
 15  7  1  0  0  0  0
 16 15  2  0  0  0  0
 17 16  1  0  0  0  0
 18 19  1  0  0  0  0
 18 17  2  0  0  0  0
 20 18  1  0  0  0  0
 21 20  2  0  0  0  0
 21 23  1  0  0  0  0
 22 21  1  0  0  0  0
 23 24  2  0  0  0  0
 24 17  1  0  0  0  0
 24 14  1  0  0  0  0
 25 36  1  0  0  0  0
 25 30  1  0  0  0  0
 26 25  2  0  0  0  0
 27 26  1  0  0  0  0
 27 28  2  0  0  0  0
 28 29  1  0  0  0  0
 29 30  2  0  0  0  0
 29 31  1  0  0  0  0
 31 32  1  0  0  0  0
 32 39  1  0  0  0  0
 32 38  1  0  0  0  0
 32 33  1  0  0  0  0
 33 40  1  0  0  0  0
 33 41  1  0  0  0  0
 34 42  1  0  0  0  0
 34 43  1  0  0  0  0
 34 33  1  0  0  0  0
 35 44  1  6  0  0  0
 35 31  1  0  0  0  0
 35 34  1  0  0  0  0
 37 27  1  0  0  0  0
 45 26  1  0  0  0  0
 46 45  1  0  0  0  0
 47 45  1  0  0  0  0
M  END
>  <minimizedAffinity>
-5.72781563

>  <minimizedRMSD>
0.135764837

$$$$
