
 OpenBabel03252506383D

 47 51  0  0  1  0  0  0  0  0999 V2000
   46.6680   30.0300   46.5750 S   0  0  0  0  0  0  0  0  0  0  0  0
   45.5720   30.5460   43.4660 O   0  0  0  0  0  0  0  0  0  0  0  0
   44.9710   29.9870   44.3950 C   0  0  0  0  0  0  0  0  0  0  0  0
   45.1050   29.7430   45.8520 C   0  0  1  0  0  0  0  0  0  0  0  0
   44.5830   28.3340   45.9860 C   0  0  0  0  0  0  0  0  0  0  0  0
   43.2510   28.5410   45.2590 C   0  0  0  0  0  0  0  0  0  0  0  0
   43.7270   29.3190   44.1210 N   0  0  0  0  0  0  0  0  0  0  0  0
   44.2250   30.3380   46.2200 H   0  0  0  0  0  0  0  0  0  0  0  0
   44.3540   28.0540   47.0180 H   0  0  0  0  0  0  0  0  0  0  0  0
   45.2020   27.5940   45.4530 H   0  0  0  0  0  0  0  0  0  0  0  0
   42.8210   27.5990   44.9210 H   0  0  0  0  0  0  0  0  0  0  0  0
   42.5800   29.1360   45.9070 H   0  0  0  0  0  0  0  0  0  0  0  0
   44.4740   29.6020   41.4170 H   0  0  0  0  0  0  0  0  0  0  0  0
   43.4590   29.4820   41.6740 N   0  0  0  0  0  0  0  0  0  0  0  0
   42.9400   29.3340   42.9100 C   0  0  0  0  0  0  0  0  0  0  0  0
   41.6010   29.2120   42.7640 N   0  0  0  0  0  0  0  0  0  0  0  0
   41.2740   29.2810   41.4640 C   0  0  0  0  0  0  0  0  0  0  0  0
   40.0890   29.2170   40.7580 C   0  0  0  0  0  0  0  0  0  0  0  0
   39.1740   29.0820   41.3270 H   0  0  0  0  0  0  0  0  0  0  0  0
   40.0650   29.3180   39.4110 N   0  0  0  0  0  0  0  0  0  0  0  0
   41.2320   29.4870   38.7360 C   0  0  0  0  0  0  0  0  0  0  0  0
   41.2160   29.5680   37.6490 H   0  0  0  0  0  0  0  0  0  0  0  0
   42.3940   29.5500   39.4120 N   0  0  0  0  0  0  0  0  0  0  0  0
   42.4490   29.4510   40.7590 C   0  0  0  0  0  0  0  0  0  0  0  0
   44.5170   35.5000   45.1450 C   0  0  0  0  0  0  0  0  0  0  0  0
   45.1770   35.4930   43.8920 C   0  0  0  0  0  0  0  0  0  0  0  0
   46.1050   34.5330   43.6360 C   0  0  0  0  0  0  0  0  0  0  0  0
   46.3390   33.6300   44.6180 N   0  0  0  0  0  0  0  0  0  0  0  0
   45.7180   33.6410   45.7880 C   0  0  0  0  0  0  0  0  0  0  0  0
   44.8030   34.5690   46.0670 N   0  0  0  0  0  0  0  0  0  0  0  0
   46.0530   32.6300   46.7560 N   0  0  0  0  0  0  0  0  0  0  0  0
   45.3130   32.3810   47.9390 C   0  0  0  0  0  0  0  0  0  0  0  0
   46.3870   32.0400   48.9550 C   0  0  0  0  0  0  0  0  0  0  0  0
   47.6710   31.9400   48.1870 C   0  0  0  0  0  0  0  0  0  0  0  0
   47.1750   31.7240   46.7590 C   0  0  1  0  0  0  0  0  0  0  0  0
   43.7800   36.2710   45.3320 H   0  0  0  0  0  0  0  0  0  0  0  0
   46.6130   34.5110   42.7000 H   0  0  0  0  0  0  0  0  0  0  0  0
   44.9350   33.3920   48.2950 H   0  0  0  0  0  0  0  0  0  0  0  0
   44.5100   31.7250   48.0330 H   0  0  0  0  0  0  0  0  0  0  0  0
   46.1550   31.0330   49.4060 H   0  0  0  0  0  0  0  0  0  0  0  0
   46.4490   32.7220   49.8020 H   0  0  0  0  0  0  0  0  0  0  0  0
   48.2820   32.8360   48.3080 H   0  0  0  0  0  0  0  0  0  0  0  0
   48.2260   31.0220   48.5150 H   0  0  0  0  0  0  0  0  0  0  0  0
   47.9920   32.0420   46.0910 H   0  0  0  0  0  0  0  0  0  0  0  0
   44.8170   36.5210   42.9560 N   0  0  0  0  0  0  0  0  0  0  0  0
   45.6470   36.8900   42.4150 H   0  0  0  0  0  0  0  0  0  0  0  0
   43.8680   36.9010   42.7820 H   0  0  0  0  0  0  0  0  0  0  0  0
  1 35  1  0  0  0  0
  2  3  2  0  0  0  0
  3  4  1  0  0  0  0
  4  5  1  0  0  0  0
  4  8  1  1  0  0  0
  4  1  1  0  0  0  0
  5  9  1  0  0  0  0
  6 12  1  0  0  0  0
  6  5  1  0  0  0  0
  7  3  1  0  0  0  0
  7  6  1  0  0  0  0
 10  5  1  0  0  0  0
 11  6  1  0  0  0  0
 13 14  1  0  0  0  0
 14 15  1  0  0  0  0
 15  7  1  0  0  0  0
 16 15  2  0  0  0  0
 17 16  1  0  0  0  0
 18 19  1  0  0  0  0
 18 17  2  0  0  0  0
 20 18  1  0  0  0  0
 21 20  2  0  0  0  0
 21 23  1  0  0  0  0
 22 21  1  0  0  0  0
 23 24  2  0  0  0  0
 24 17  1  0  0  0  0
 24 14  1  0  0  0  0
 25 36  1  0  0  0  0
 25 30  1  0  0  0  0
 26 25  2  0  0  0  0
 27 26  1  0  0  0  0
 27 28  2  0  0  0  0
 28 29  1  0  0  0  0
 29 30  2  0  0  0  0
 29 31  1  0  0  0  0
 31 35  1  0  0  0  0
 31 32  1  0  0  0  0
 32 39  1  0  0  0  0
 32 38  1  0  0  0  0
 32 33  1  0  0  0  0
 33 40  1  0  0  0  0
 33 41  1  0  0  0  0
 34 42  1  0  0  0  0
 34 43  1  0  0  0  0
 34 33  1  0  0  0  0
 35 44  1  6  0  0  0
 35 34  1  0  0  0  0
 37 27  1  0  0  0  0
 45 26  1  0  0  0  0
 46 45  1  0  0  0  0
 47 45  1  0  0  0  0
M  END
>  <minimizedAffinity>
-5.72275114

>  <minimizedRMSD>
0.10044878

$$$$
