
 OpenBabel03252506383D

 47 51  0  0  1  0  0  0  0  0999 V2000
   46.6600   30.0340   46.5880 S   0  0  0  0  0  0  0  0  0  0  0  0
   45.5910   30.5100   43.4630 O   0  0  0  0  0  0  0  0  0  0  0  0
   44.9790   29.9690   44.3960 C   0  0  0  0  0  0  0  0  0  0  0  0
   45.1010   29.7460   45.8580 C   0  0  1  0  0  0  0  0  0  0  0  0
   44.5670   28.3440   46.0100 C   0  0  0  0  0  0  0  0  0  0  0  0
   43.2420   28.5480   45.2690 C   0  0  0  0  0  0  0  0  0  0  0  0
   43.7320   29.3050   44.1240 N   0  0  0  0  0  0  0  0  0  0  0  0
   44.2220   30.3540   46.2110 H   0  0  0  0  0  0  0  0  0  0  0  0
   44.3290   28.0810   47.0440 H   0  0  0  0  0  0  0  0  0  0  0  0
   45.1840   27.5910   45.4920 H   0  0  0  0  0  0  0  0  0  0  0  0
   42.8080   27.6040   44.9430 H   0  0  0  0  0  0  0  0  0  0  0  0
   42.5710   29.1580   45.9040 H   0  0  0  0  0  0  0  0  0  0  0  0
   40.9550   29.0760   43.6870 H   0  0  0  0  0  0  0  0  0  0  0  0
   41.6110   29.1860   42.8680 N   0  0  0  0  0  0  0  0  0  0  0  0
   42.9540   29.3080   42.9070 C   0  0  0  0  0  0  0  0  0  0  0  0
   43.3770   29.4250   41.6280 N   0  0  0  0  0  0  0  0  0  0  0  0
   42.3260   29.3790   40.7920 C   0  0  0  0  0  0  0  0  0  0  0  0
   42.1750   29.4490   39.4210 C   0  0  0  0  0  0  0  0  0  0  0  0
   43.0730   29.5680   38.8240 H   0  0  0  0  0  0  0  0  0  0  0  0
   40.9560   29.3710   38.8430 N   0  0  0  0  0  0  0  0  0  0  0  0
   39.8570   29.2210   39.6270 C   0  0  0  0  0  0  0  0  0  0  0  0
   38.8720   29.1580   39.1630 H   0  0  0  0  0  0  0  0  0  0  0  0
   39.9900   29.1520   40.9630 N   0  0  0  0  0  0  0  0  0  0  0  0
   41.1960   29.2270   41.5710 C   0  0  0  0  0  0  0  0  0  0  0  0
   44.5160   35.5030   45.1450 C   0  0  0  0  0  0  0  0  0  0  0  0
   45.1770   35.4930   43.8940 C   0  0  0  0  0  0  0  0  0  0  0  0
   46.1050   34.5320   43.6400 C   0  0  0  0  0  0  0  0  0  0  0  0
   46.3370   33.6300   44.6240 N   0  0  0  0  0  0  0  0  0  0  0  0
   45.7150   33.6440   45.7930 C   0  0  0  0  0  0  0  0  0  0  0  0
   44.8010   34.5740   46.0700 N   0  0  0  0  0  0  0  0  0  0  0  0
   46.0480   32.6350   46.7630 N   0  0  0  0  0  0  0  0  0  0  0  0
   45.3060   32.3880   47.9460 C   0  0  0  0  0  0  0  0  0  0  0  0
   46.3790   32.0480   48.9640 C   0  0  0  0  0  0  0  0  0  0  0  0
   47.6630   31.9450   48.1970 C   0  0  0  0  0  0  0  0  0  0  0  0
   47.1690   31.7270   46.7700 C   0  0  1  0  0  0  0  0  0  0  0  0
   43.7800   36.2750   45.3310 H   0  0  0  0  0  0  0  0  0  0  0  0
   46.6140   34.5070   42.7050 H   0  0  0  0  0  0  0  0  0  0  0  0
   44.9290   33.4000   48.3010 H   0  0  0  0  0  0  0  0  0  0  0  0
   44.5030   31.7330   48.0410 H   0  0  0  0  0  0  0  0  0  0  0  0
   46.1460   31.0420   49.4170 H   0  0  0  0  0  0  0  0  0  0  0  0
   46.4420   32.7310   49.8100 H   0  0  0  0  0  0  0  0  0  0  0  0
   48.2760   32.8410   48.3180 H   0  0  0  0  0  0  0  0  0  0  0  0
   48.2180   31.0270   48.5280 H   0  0  0  0  0  0  0  0  0  0  0  0
   47.9860   32.0430   46.1010 H   0  0  0  0  0  0  0  0  0  0  0  0
   44.8190   36.5190   42.9550 N   0  0  0  0  0  0  0  0  0  0  0  0
   45.6500   36.8870   42.4140 H   0  0  0  0  0  0  0  0  0  0  0  0
   43.8710   36.9000   42.7800 H   0  0  0  0  0  0  0  0  0  0  0  0
  1 35  1  0  0  0  0
  2  3  2  0  0  0  0
  3  4  1  0  0  0  0
  4  5  1  0  0  0  0
  4  8  1  1  0  0  0
  4  1  1  0  0  0  0
  5  9  1  0  0  0  0
  6 12  1  0  0  0  0
  6  5  1  0  0  0  0
  7  3  1  0  0  0  0
  7  6  1  0  0  0  0
 10  5  1  0  0  0  0
 11  6  1  0  0  0  0
 14 15  1  0  0  0  0
 14 13  1  0  0  0  0
 15  7  1  0  0  0  0
 16 15  2  0  0  0  0
 17 24  1  0  0  0  0
 17 16  1  0  0  0  0
 18 17  2  0  0  0  0
 19 18  1  0  0  0  0
 20 18  1  0  0  0  0
 20 21  2  0  0  0  0
 21 23  1  0  0  0  0
 22 21  1  0  0  0  0
 23 24  2  0  0  0  0
 24 14  1  0  0  0  0
 25 36  1  0  0  0  0
 25 30  1  0  0  0  0
 26 25  2  0  0  0  0
 27 26  1  0  0  0  0
 27 28  2  0  0  0  0
 28 29  1  0  0  0  0
 29 30  2  0  0  0  0
 29 31  1  0  0  0  0
 31 35  1  0  0  0  0
 31 32  1  0  0  0  0
 32 39  1  0  0  0  0
 32 38  1  0  0  0  0
 32 33  1  0  0  0  0
 33 40  1  0  0  0  0
 33 41  1  0  0  0  0
 34 42  1  0  0  0  0
 34 43  1  0  0  0  0
 34 33  1  0  0  0  0
 35 44  1  6  0  0  0
 35 34  1  0  0  0  0
 37 27  1  0  0  0  0
 45 26  1  0  0  0  0
 46 45  1  0  0  0  0
 47 45  1  0  0  0  0
M  END
>  <minimizedAffinity>
-5.76338243

>  <minimizedRMSD>
0.0703481287

$$$$
