
 OpenBabel03242512003D

 50 54  0  0  1  0  0  0  0  0999 V2000
   47.1470   34.1230   42.4520 C   0  0  2  0  0  0  0  0  0  0  0  0
   48.5450   34.6340   42.6260 C   0  0  0  0  0  0  0  0  0  0  0  0
   48.9140   35.6380   41.6050 C   0  0  0  0  0  0  0  0  0  0  0  0
   48.7190   35.1470   40.1870 C   0  0  0  0  0  0  0  0  0  0  0  0
   47.4850   34.3160   40.0020 C   0  0  0  0  0  0  0  0  0  0  0  0
   46.5090   34.4450   41.1500 C   0  0  1  0  0  0  0  0  0  0  0  0
   47.2200   32.9940   42.5290 H   0  0  0  0  0  0  0  0  0  0  0  0
   49.2920   33.8170   42.5840 H   0  0  0  0  0  0  0  0  0  0  0  0
   48.6220   35.1000   43.6200 H   0  0  0  0  0  0  0  0  0  0  0  0
   50.0020   35.8530   41.7000 H   0  0  0  0  0  0  0  0  0  0  0  0
   48.3520   36.5830   41.7930 H   0  0  0  0  0  0  0  0  0  0  0  0
   48.6550   36.0470   39.5400 H   0  0  0  0  0  0  0  0  0  0  0  0
   49.6440   34.6050   39.8420 H   0  0  0  0  0  0  0  0  0  0  0  0
   46.9930   34.5710   39.0610 H   0  0  0  0  0  0  0  0  0  0  0  0
   47.8210   33.2430   39.9800 H   0  0  0  0  0  0  0  0  0  0  0  0
   46.0680   35.4470   41.0450 H   0  0  0  0  0  0  0  0  0  0  0  0
   46.2560   34.5020   43.5670 C   0  0  0  0  0  0  0  0  0  0  0  0
   45.5730   35.6840   43.3440 C   0  0  0  0  0  0  0  0  0  0  0  0
   44.6810   36.1700   44.3150 C   0  0  0  0  0  0  0  0  0  0  0  0
   44.5610   35.3830   45.4680 N   0  0  0  0  0  0  0  0  0  0  0  0
   45.2520   34.2370   45.6380 C   0  0  0  0  0  0  0  0  0  0  0  0
   46.0920   33.8140   44.6780 N   0  0  0  0  0  0  0  0  0  0  0  0
   45.5300   36.4220   42.5560 H   0  0  0  0  0  0  0  0  0  0  0  0
   44.0740   37.0370   44.3330 H   0  0  0  0  0  0  0  0  0  0  0  0
   45.0850   33.7130   46.5570 H   0  0  0  0  0  0  0  0  0  0  0  0
   45.3980   33.4610   40.9200 C   0  0  2  0  0  0  0  0  0  0  0  0
   44.8640   33.3210   39.5050 C   0  0  0  0  0  0  0  0  0  0  0  0
   44.0330   33.9280   40.5570 C   0  0  1  0  0  0  0  0  0  0  0  0
   45.5450   32.4760   41.4100 H   0  0  0  0  0  0  0  0  0  0  0  0
   45.2150   33.9650   38.6970 H   0  0  0  0  0  0  0  0  0  0  0  0
   44.5090   32.3190   39.1550 H   0  0  0  0  0  0  0  0  0  0  0  0
   43.8960   35.0380   40.5490 H   0  0  0  0  0  0  0  0  0  0  0  0
   42.9580   33.1970   41.3020 C   0  0  0  0  0  0  0  0  0  0  0  0
   42.8680   32.1800   40.8950 H   0  0  0  0  0  0  0  0  0  0  0  0
   43.2860   33.1110   42.3500 H   0  0  0  0  0  0  0  0  0  0  0  0
   41.6250   33.8960   41.2860 C   0  0  0  0  0  0  0  0  0  0  0  0
   41.5050   34.5250   40.4020 H   0  0  0  0  0  0  0  0  0  0  0  0
   41.4200   34.4300   42.2240 H   0  0  0  0  0  0  0  0  0  0  0  0
   40.6140   32.8310   41.1870 N   0  0  0  0  0  0  0  0  0  0  0  0
   40.1250   31.9880   42.1070 C   0  0  0  0  0  0  0  0  0  0  0  0
   40.4580   32.0040   43.1300 H   0  0  0  0  0  0  0  0  0  0  0  0
   39.2070   31.1830   41.5440 N   0  0  0  0  0  0  0  0  0  0  0  0
   39.0710   31.4720   40.2550 C   0  0  0  0  0  0  0  0  0  0  0  0
   38.3000   30.9850   39.2180 C   0  0  0  0  0  0  0  0  0  0  0  0
   37.6020   30.1740   39.3760 H   0  0  0  0  0  0  0  0  0  0  0  0
   38.4200   31.5380   37.9750 N   0  0  0  0  0  0  0  0  0  0  0  0
   39.3060   32.5590   37.8030 C   0  0  0  0  0  0  0  0  0  0  0  0
   39.4860   33.0720   36.8660 H   0  0  0  0  0  0  0  0  0  0  0  0
   40.0630   33.0390   38.8080 N   0  0  0  0  0  0  0  0  0  0  0  0
   39.9550   32.5030   40.0460 C   0  0  0  0  0  0  0  0  0  0  0  0
  1  7  1  1  0  0  0
  1  2  1  0  0  0  0
  1 17  1  0  0  0  0
  2  9  1  0  0  0  0
  3 10  1  0  0  0  0
  3 11  1  0  0  0  0
  3  2  1  0  0  0  0
  4  3  1  0  0  0  0
  5  4  1  0  0  0  0
  5  6  1  0  0  0  0
  6 16  1  1  0  0  0
  6  1  1  0  0  0  0
  8  2  1  0  0  0  0
 12  4  1  0  0  0  0
 13  4  1  0  0  0  0
 14  5  1  0  0  0  0
 15  5  1  0  0  0  0
 17 22  1  0  0  0  0
 18 17  2  0  0  0  0
 18 19  1  0  0  0  0
 19 24  1  0  0  0  0
 19 20  2  0  0  0  0
 20 21  1  0  0  0  0
 21 25  1  0  0  0  0
 22 21  2  0  0  0  0
 23 18  1  0  0  0  0
 26  6  1  0  0  0  0
 26 29  1  1  0  0  0
 27 28  1  0  0  0  0
 27 26  1  0  0  0  0
 28 32  1  6  0  0  0
 28 26  1  0  0  0  0
 28 33  1  0  0  0  0
 30 27  1  0  0  0  0
 31 27  1  0  0  0  0
 33 35  1  0  0  0  0
 34 33  1  0  0  0  0
 36 33  1  0  0  0  0
 36 38  1  0  0  0  0
 37 36  1  0  0  0  0
 39 36  1  0  0  0  0
 39 40  1  0  0  0  0
 40 41  1  0  0  0  0
 42 40  2  0  0  0  0
 43 42  1  0  0  0  0
 44 45  1  0  0  0  0
 44 43  2  0  0  0  0
 46 44  1  0  0  0  0
 47 46  2  0  0  0  0
 47 49  1  0  0  0  0
 48 47  1  0  0  0  0
 49 50  2  0  0  0  0
 50 43  1  0  0  0  0
 50 39  1  0  0  0  0
M  END
>  <minimizedAffinity>
-6.48915052

>  <minimizedRMSD>
2.09645295

$$$$
