
 OpenBabel03242512003D

 50 54  0  0  1  0  0  0  0  0999 V2000
   47.1310   34.1220   42.4370 C   0  0  2  0  0  0  0  0  0  0  0  0
   48.5300   34.6360   42.6030 C   0  0  0  0  0  0  0  0  0  0  0  0
   48.8950   35.6320   41.5740 C   0  0  0  0  0  0  0  0  0  0  0  0
   48.6980   35.1300   40.1600 C   0  0  0  0  0  0  0  0  0  0  0  0
   47.4640   34.2970   39.9840 C   0  0  0  0  0  0  0  0  0  0  0  0
   46.4910   34.4340   41.1340 C   0  0  1  0  0  0  0  0  0  0  0  0
   47.2050   32.9940   42.5220 H   0  0  0  0  0  0  0  0  0  0  0  0
   49.2770   33.8190   42.5660 H   0  0  0  0  0  0  0  0  0  0  0  0
   48.6090   35.1080   43.5930 H   0  0  0  0  0  0  0  0  0  0  0  0
   49.9840   35.8480   41.6640 H   0  0  0  0  0  0  0  0  0  0  0  0
   48.3330   36.5780   41.7570 H   0  0  0  0  0  0  0  0  0  0  0  0
   48.6310   36.0250   39.5070 H   0  0  0  0  0  0  0  0  0  0  0  0
   49.6220   34.5860   39.8180 H   0  0  0  0  0  0  0  0  0  0  0  0
   46.9690   34.5450   39.0420 H   0  0  0  0  0  0  0  0  0  0  0  0
   47.8010   33.2230   39.9690 H   0  0  0  0  0  0  0  0  0  0  0  0
   46.0480   35.4340   41.0220 H   0  0  0  0  0  0  0  0  0  0  0  0
   46.2430   34.5090   43.5510 C   0  0  0  0  0  0  0  0  0  0  0  0
   45.5670   35.6950   43.3250 C   0  0  0  0  0  0  0  0  0  0  0  0
   44.6780   36.1890   44.2960 C   0  0  0  0  0  0  0  0  0  0  0  0
   44.5530   35.4040   45.4500 N   0  0  0  0  0  0  0  0  0  0  0  0
   45.2370   34.2540   45.6220 C   0  0  0  0  0  0  0  0  0  0  0  0
   46.0740   33.8240   44.6630 N   0  0  0  0  0  0  0  0  0  0  0  0
   45.5290   36.4310   42.5360 H   0  0  0  0  0  0  0  0  0  0  0  0
   44.0770   37.0590   44.3120 H   0  0  0  0  0  0  0  0  0  0  0  0
   45.0660   33.7330   46.5420 H   0  0  0  0  0  0  0  0  0  0  0  0
   45.3790   33.4480   40.9140 C   0  0  2  0  0  0  0  0  0  0  0  0
   44.8360   33.3020   39.5020 C   0  0  0  0  0  0  0  0  0  0  0  0
   44.0110   33.9110   40.5580 C   0  0  1  0  0  0  0  0  0  0  0  0
   45.5320   32.4640   41.4050 H   0  0  0  0  0  0  0  0  0  0  0  0
   45.1810   33.9440   38.6910 H   0  0  0  0  0  0  0  0  0  0  0  0
   44.4810   32.2990   39.1580 H   0  0  0  0  0  0  0  0  0  0  0  0
   43.8720   35.0210   40.5470 H   0  0  0  0  0  0  0  0  0  0  0  0
   42.9430   33.1800   41.3120 C   0  0  0  0  0  0  0  0  0  0  0  0
   42.8800   32.1500   40.9360 H   0  0  0  0  0  0  0  0  0  0  0  0
   43.2590   33.1340   42.3660 H   0  0  0  0  0  0  0  0  0  0  0  0
   41.5950   33.8490   41.2580 C   0  0  0  0  0  0  0  0  0  0  0  0
   41.4690   34.4390   40.3470 H   0  0  0  0  0  0  0  0  0  0  0  0
   41.3720   34.4170   42.1720 H   0  0  0  0  0  0  0  0  0  0  0  0
   40.6080   32.7600   41.1950 N   0  0  0  0  0  0  0  0  0  0  0  0
   40.1420   31.9340   42.1410 C   0  0  0  0  0  0  0  0  0  0  0  0
   40.4800   31.9870   43.1620 H   0  0  0  0  0  0  0  0  0  0  0  0
   39.2390   31.0920   41.6080 N   0  0  0  0  0  0  0  0  0  0  0  0
   39.0910   31.3410   40.3110 C   0  0  0  0  0  0  0  0  0  0  0  0
   38.3260   30.8090   39.2920 C   0  0  0  0  0  0  0  0  0  0  0  0
   37.6470   29.9870   39.4770 H   0  0  0  0  0  0  0  0  0  0  0  0
   38.4280   31.3270   38.0330 N   0  0  0  0  0  0  0  0  0  0  0  0
   39.2900   32.3620   37.8270 C   0  0  0  0  0  0  0  0  0  0  0  0
   39.4550   32.8510   36.8750 H   0  0  0  0  0  0  0  0  0  0  0  0
   40.0400   32.8880   38.8140 N   0  0  0  0  0  0  0  0  0  0  0  0
   39.9500   32.3840   40.0670 C   0  0  0  0  0  0  0  0  0  0  0  0
  1  7  1  1  0  0  0
  1  2  1  0  0  0  0
  1 17  1  0  0  0  0
  2  9  1  0  0  0  0
  3 10  1  0  0  0  0
  3 11  1  0  0  0  0
  3  2  1  0  0  0  0
  4  3  1  0  0  0  0
  5  4  1  0  0  0  0
  5  6  1  0  0  0  0
  6 16  1  1  0  0  0
  6  1  1  0  0  0  0
  8  2  1  0  0  0  0
 12  4  1  0  0  0  0
 13  4  1  0  0  0  0
 14  5  1  0  0  0  0
 15  5  1  0  0  0  0
 17 22  1  0  0  0  0
 18 17  2  0  0  0  0
 18 19  1  0  0  0  0
 19 24  1  0  0  0  0
 19 20  2  0  0  0  0
 20 21  1  0  0  0  0
 21 25  1  0  0  0  0
 22 21  2  0  0  0  0
 23 18  1  0  0  0  0
 26  6  1  0  0  0  0
 26 29  1  1  0  0  0
 27 28  1  0  0  0  0
 27 26  1  0  0  0  0
 28 32  1  6  0  0  0
 28 26  1  0  0  0  0
 28 33  1  0  0  0  0
 30 27  1  0  0  0  0
 31 27  1  0  0  0  0
 33 35  1  0  0  0  0
 34 33  1  0  0  0  0
 36 33  1  0  0  0  0
 36 38  1  0  0  0  0
 37 36  1  0  0  0  0
 39 36  1  0  0  0  0
 39 40  1  0  0  0  0
 40 41  1  0  0  0  0
 42 40  2  0  0  0  0
 43 42  1  0  0  0  0
 44 45  1  0  0  0  0
 44 43  2  0  0  0  0
 46 44  1  0  0  0  0
 47 46  2  0  0  0  0
 47 49  1  0  0  0  0
 48 47  1  0  0  0  0
 49 50  2  0  0  0  0
 50 43  1  0  0  0  0
 50 39  1  0  0  0  0
M  END
>  <minimizedAffinity>
-6.47369099

>  <minimizedRMSD>
2.43258166

$$$$
