
 OpenBabel03242512003D

 50 54  0  0  1  0  0  0  0  0999 V2000
   47.1400   34.1150   42.4620 C   0  0  2  0  0  0  0  0  0  0  0  0
   48.5380   34.6310   42.6270 C   0  0  0  0  0  0  0  0  0  0  0  0
   48.8980   35.6330   41.6000 C   0  0  0  0  0  0  0  0  0  0  0  0
   48.6980   35.1370   40.1850 C   0  0  0  0  0  0  0  0  0  0  0  0
   47.4650   34.3010   40.0090 C   0  0  0  0  0  0  0  0  0  0  0  0
   46.4950   34.4310   41.1620 C   0  0  1  0  0  0  0  0  0  0  0  0
   47.2170   32.9870   42.5420 H   0  0  0  0  0  0  0  0  0  0  0  0
   49.2870   33.8160   42.5830 H   0  0  0  0  0  0  0  0  0  0  0  0
   48.6190   35.1000   43.6180 H   0  0  0  0  0  0  0  0  0  0  0  0
   49.9860   35.8510   41.6890 H   0  0  0  0  0  0  0  0  0  0  0  0
   48.3340   36.5760   41.7890 H   0  0  0  0  0  0  0  0  0  0  0  0
   48.6270   36.0340   39.5360 H   0  0  0  0  0  0  0  0  0  0  0  0
   49.6220   34.5960   39.8370 H   0  0  0  0  0  0  0  0  0  0  0  0
   46.9670   34.5520   39.0700 H   0  0  0  0  0  0  0  0  0  0  0  0
   47.8040   33.2290   39.9890 H   0  0  0  0  0  0  0  0  0  0  0  0
   46.0500   35.4300   41.0570 H   0  0  0  0  0  0  0  0  0  0  0  0
   46.2540   34.4950   43.5810 C   0  0  0  0  0  0  0  0  0  0  0  0
   45.5720   35.6780   43.3600 C   0  0  0  0  0  0  0  0  0  0  0  0
   44.6840   36.1650   44.3350 C   0  0  0  0  0  0  0  0  0  0  0  0
   44.5670   35.3770   45.4880 N   0  0  0  0  0  0  0  0  0  0  0  0
   45.2570   34.2300   45.6550 C   0  0  0  0  0  0  0  0  0  0  0  0
   46.0930   33.8060   44.6910 N   0  0  0  0  0  0  0  0  0  0  0  0
   45.5270   36.4160   42.5730 H   0  0  0  0  0  0  0  0  0  0  0  0
   44.0790   37.0320   44.3560 H   0  0  0  0  0  0  0  0  0  0  0  0
   45.0930   33.7060   46.5750 H   0  0  0  0  0  0  0  0  0  0  0  0
   45.3850   33.4430   40.9410 C   0  0  2  0  0  0  0  0  0  0  0  0
   44.7920   33.3510   39.5460 C   0  0  0  0  0  0  0  0  0  0  0  0
   44.0010   33.9060   40.6550 C   0  0  1  0  0  0  0  0  0  0  0  0
   45.5650   32.4410   41.3850 H   0  0  0  0  0  0  0  0  0  0  0  0
   45.1010   34.0300   38.7500 H   0  0  0  0  0  0  0  0  0  0  0  0
   44.4330   32.3590   39.1720 H   0  0  0  0  0  0  0  0  0  0  0  0
   43.8510   35.0140   40.6970 H   0  0  0  0  0  0  0  0  0  0  0  0
   42.9670   33.1330   41.4160 C   0  0  0  0  0  0  0  0  0  0  0  0
   43.2000   33.1820   42.4880 H   0  0  0  0  0  0  0  0  0  0  0  0
   42.0000   33.6360   41.2600 H   0  0  0  0  0  0  0  0  0  0  0  0
   42.8270   31.7020   40.9670 C   0  0  0  0  0  0  0  0  0  0  0  0
   43.6700   31.0890   41.2910 H   0  0  0  0  0  0  0  0  0  0  0  0
   42.6230   31.6190   39.8910 H   0  0  0  0  0  0  0  0  0  0  0  0
   41.6360   31.1800   41.6560 N   0  0  0  0  0  0  0  0  0  0  0  0
   40.3320   31.4360   41.4830 C   0  0  0  0  0  0  0  0  0  0  0  0
   39.9800   32.1300   40.7390 H   0  0  0  0  0  0  0  0  0  0  0  0
   39.6050   30.7130   42.3540 N   0  0  0  0  0  0  0  0  0  0  0  0
   40.4060   29.9720   43.1130 C   0  0  0  0  0  0  0  0  0  0  0  0
   40.2200   29.0680   44.1400 C   0  0  0  0  0  0  0  0  0  0  0  0
   39.2290   28.8260   44.4970 H   0  0  0  0  0  0  0  0  0  0  0  0
   41.3060   28.4690   44.7120 N   0  0  0  0  0  0  0  0  0  0  0  0
   42.5450   28.7910   44.2440 C   0  0  0  0  0  0  0  0  0  0  0  0
   43.4750   28.3820   44.6200 H   0  0  0  0  0  0  0  0  0  0  0  0
   42.7350   29.6720   43.2430 N   0  0  0  0  0  0  0  0  0  0  0  0
   41.6700   30.2740   42.6650 C   0  0  0  0  0  0  0  0  0  0  0  0
  1  7  1  1  0  0  0
  1  2  1  0  0  0  0
  1 17  1  0  0  0  0
  2  9  1  0  0  0  0
  3 10  1  0  0  0  0
  3 11  1  0  0  0  0
  3  2  1  0  0  0  0
  4  3  1  0  0  0  0
  5  4  1  0  0  0  0
  5  6  1  0  0  0  0
  6 16  1  1  0  0  0
  6  1  1  0  0  0  0
  8  2  1  0  0  0  0
 12  4  1  0  0  0  0
 13  4  1  0  0  0  0
 14  5  1  0  0  0  0
 15  5  1  0  0  0  0
 17 22  1  0  0  0  0
 18 17  2  0  0  0  0
 18 19  1  0  0  0  0
 19 24  1  0  0  0  0
 19 20  2  0  0  0  0
 20 21  1  0  0  0  0
 21 25  1  0  0  0  0
 22 21  2  0  0  0  0
 23 18  1  0  0  0  0
 26  6  1  0  0  0  0
 26 29  1  1  0  0  0
 27 28  1  0  0  0  0
 27 26  1  0  0  0  0
 28 32  1  6  0  0  0
 28 26  1  0  0  0  0
 28 33  1  0  0  0  0
 30 27  1  0  0  0  0
 31 27  1  0  0  0  0
 33 34  1  0  0  0  0
 35 33  1  0  0  0  0
 36 37  1  0  0  0  0
 36 33  1  0  0  0  0
 36 39  1  0  0  0  0
 38 36  1  0  0  0  0
 39 50  1  0  0  0  0
 40 39  1  0  0  0  0
 40 42  2  0  0  0  0
 41 40  1  0  0  0  0
 42 43  1  0  0  0  0
 43 44  1  0  0  0  0
 44 45  1  0  0  0  0
 44 46  2  0  0  0  0
 47 48  1  0  0  0  0
 47 46  1  0  0  0  0
 49 47  2  0  0  0  0
 50 43  2  0  0  0  0
 50 49  1  0  0  0  0
M  END
>  <minimizedAffinity>
-6.11785316

>  <minimizedRMSD>
0.726575732

$$$$
