
 OpenBabel03242512003D

 50 54  0  0  1  0  0  0  0  0999 V2000
   47.1880   34.1110   42.4230 C   0  0  2  0  0  0  0  0  0  0  0  0
   48.5560   34.7080   42.5590 C   0  0  0  0  0  0  0  0  0  0  0  0
   48.8560   35.6890   41.4940 C   0  0  0  0  0  0  0  0  0  0  0  0
   48.6760   35.1300   40.1000 C   0  0  0  0  0  0  0  0  0  0  0  0
   47.4900   34.2230   39.9630 C   0  0  0  0  0  0  0  0  0  0  0  0
   46.5200   34.3430   41.1180 C   0  0  1  0  0  0  0  0  0  0  0  0
   47.3270   32.9930   42.5450 H   0  0  0  0  0  0  0  0  0  0  0  0
   49.3490   33.9340   42.5410 H   0  0  0  0  0  0  0  0  0  0  0  0
   48.6170   35.2170   43.5320 H   0  0  0  0  0  0  0  0  0  0  0  0
   49.9310   35.9700   41.5670 H   0  0  0  0  0  0  0  0  0  0  0  0
   48.2430   36.6070   41.6520 H   0  0  0  0  0  0  0  0  0  0  0  0
   48.5530   35.9980   39.4180 H   0  0  0  0  0  0  0  0  0  0  0  0
   49.6270   34.6290   39.7660 H   0  0  0  0  0  0  0  0  0  0  0  0
   46.9740   34.4110   39.0190 H   0  0  0  0  0  0  0  0  0  0  0  0
   47.8870   33.1710   39.9800 H   0  0  0  0  0  0  0  0  0  0  0  0
   46.0200   35.3120   40.9780 H   0  0  0  0  0  0  0  0  0  0  0  0
   46.2880   34.4840   43.5340 C   0  0  0  0  0  0  0  0  0  0  0  0
   45.6100   35.6700   43.3130 C   0  0  0  0  0  0  0  0  0  0  0  0
   44.7110   36.1510   44.2810 C   0  0  0  0  0  0  0  0  0  0  0  0
   44.5780   35.3540   45.4260 N   0  0  0  0  0  0  0  0  0  0  0  0
   45.2640   34.2050   45.5920 C   0  0  0  0  0  0  0  0  0  0  0  0
   46.1120   33.7870   44.6370 N   0  0  0  0  0  0  0  0  0  0  0  0
   45.5770   36.4140   42.5310 H   0  0  0  0  0  0  0  0  0  0  0  0
   44.1070   37.0190   44.3000 H   0  0  0  0  0  0  0  0  0  0  0  0
   45.0880   33.6730   46.5060 H   0  0  0  0  0  0  0  0  0  0  0  0
   45.4650   33.2890   40.9410 C   0  0  2  0  0  0  0  0  0  0  0  0
   44.6350   33.3290   39.6690 C   0  0  0  0  0  0  0  0  0  0  0  0
   44.0210   33.6460   40.9690 C   0  0  1  0  0  0  0  0  0  0  0  0
   45.7960   32.2590   41.1900 H   0  0  0  0  0  0  0  0  0  0  0  0
   44.7420   34.1380   38.9460 H   0  0  0  0  0  0  0  0  0  0  0  0
   44.2880   32.3670   39.2160 H   0  0  0  0  0  0  0  0  0  0  0  0
   43.8000   34.7170   41.2040 H   0  0  0  0  0  0  0  0  0  0  0  0
   43.2050   32.6760   41.7680 C   0  0  0  0  0  0  0  0  0  0  0  0
   43.6270   31.6690   41.6510 H   0  0  0  0  0  0  0  0  0  0  0  0
   43.3030   32.9600   42.8280 H   0  0  0  0  0  0  0  0  0  0  0  0
   41.7400   32.6830   41.4180 C   0  0  0  0  0  0  0  0  0  0  0  0
   41.5790   32.6590   40.3380 H   0  0  0  0  0  0  0  0  0  0  0  0
   41.1940   33.4950   41.9160 H   0  0  0  0  0  0  0  0  0  0  0  0
   41.1930   31.4260   41.9540 N   0  0  0  0  0  0  0  0  0  0  0  0
   41.7600   30.4550   42.6820 C   0  0  0  0  0  0  0  0  0  0  0  0
   42.7930   30.4980   42.9850 H   0  0  0  0  0  0  0  0  0  0  0  0
   40.8590   29.4920   42.9400 N   0  0  0  0  0  0  0  0  0  0  0  0
   39.6880   29.8020   42.3930 C   0  0  0  0  0  0  0  0  0  0  0  0
   38.4440   29.2060   42.3370 C   0  0  0  0  0  0  0  0  0  0  0  0
   38.2610   28.2520   42.8170 H   0  0  0  0  0  0  0  0  0  0  0  0
   37.4310   29.8250   41.6650 N   0  0  0  0  0  0  0  0  0  0  0  0
   37.6870   31.0240   41.0700 C   0  0  0  0  0  0  0  0  0  0  0  0
   36.9640   31.6080   40.5120 H   0  0  0  0  0  0  0  0  0  0  0  0
   38.8970   31.6150   41.1200 N   0  0  0  0  0  0  0  0  0  0  0  0
   39.9110   31.0120   41.7810 C   0  0  0  0  0  0  0  0  0  0  0  0
  1  7  1  1  0  0  0
  1  2  1  0  0  0  0
  1 17  1  0  0  0  0
  2  9  1  0  0  0  0
  3 10  1  0  0  0  0
  3 11  1  0  0  0  0
  3  2  1  0  0  0  0
  4  3  1  0  0  0  0
  5 15  1  0  0  0  0
  5  4  1  0  0  0  0
  5  6  1  0  0  0  0
  6 16  1  6  0  0  0
  6  1  1  0  0  0  0
  8  2  1  0  0  0  0
 12  4  1  0  0  0  0
 13  4  1  0  0  0  0
 14  5  1  0  0  0  0
 17 22  1  0  0  0  0
 18 17  2  0  0  0  0
 18 19  1  0  0  0  0
 19 24  1  0  0  0  0
 19 20  2  0  0  0  0
 20 21  1  0  0  0  0
 21 25  1  0  0  0  0
 22 21  2  0  0  0  0
 23 18  1  0  0  0  0
 26 28  1  0  0  0  0
 26  6  1  0  0  0  0
 26 29  1  1  0  0  0
 27 26  1  0  0  0  0
 27 28  1  0  0  0  0
 28 32  1  1  0  0  0
 28 33  1  0  0  0  0
 30 27  1  0  0  0  0
 31 27  1  0  0  0  0
 33 35  1  0  0  0  0
 34 33  1  0  0  0  0
 36 33  1  0  0  0  0
 36 38  1  0  0  0  0
 36 39  1  0  0  0  0
 37 36  1  0  0  0  0
 39 40  1  0  0  0  0
 40 42  2  0  0  0  0
 40 41  1  0  0  0  0
 43 42  1  0  0  0  0
 44 43  1  0  0  0  0
 44 45  1  0  0  0  0
 46 44  2  0  0  0  0
 47 49  2  0  0  0  0
 47 46  1  0  0  0  0
 48 47  1  0  0  0  0
 49 50  1  0  0  0  0
 50 39  1  0  0  0  0
 50 43  2  0  0  0  0
M  END
>  <minimizedAffinity>
-6.54068136

>  <minimizedRMSD>
0.720274091

$$$$
