
 OpenBabel03242512003D

 50 54  0  0  1  0  0  0  0  0999 V2000
   46.2580   33.4870   41.1310 C   0  0  2  0  0  0  0  0  0  0  0  0
   46.8740   34.1750   42.3130 C   0  0  0  0  0  0  0  0  0  0  0  0
   47.5520   35.4360   41.9450 C   0  0  0  0  0  0  0  0  0  0  0  0
   48.5870   35.2630   40.8550 C   0  0  0  0  0  0  0  0  0  0  0  0
   48.1750   34.2990   39.7820 C   0  0  0  0  0  0  0  0  0  0  0  0
   46.6950   33.9900   39.8040 C   0  0  1  0  0  0  0  0  0  0  0  0
   46.5730   32.4010   41.2090 H   0  0  0  0  0  0  0  0  0  0  0  0
   47.6120   33.5300   42.8270 H   0  0  0  0  0  0  0  0  0  0  0  0
   46.0760   34.4020   43.0350 H   0  0  0  0  0  0  0  0  0  0  0  0
   48.1130   35.8060   42.8330 H   0  0  0  0  0  0  0  0  0  0  0  0
   46.7890   36.2010   41.6690 H   0  0  0  0  0  0  0  0  0  0  0  0
   48.7510   36.2640   40.4040 H   0  0  0  0  0  0  0  0  0  0  0  0
   49.5760   34.9820   41.3120 H   0  0  0  0  0  0  0  0  0  0  0  0
   48.4640   34.6790   38.8000 H   0  0  0  0  0  0  0  0  0  0  0  0
   48.7120   33.3340   39.9940 H   0  0  0  0  0  0  0  0  0  0  0  0
   46.2020   34.8980   39.4280 H   0  0  0  0  0  0  0  0  0  0  0  0
   44.7830   33.4390   41.2020 C   0  0  0  0  0  0  0  0  0  0  0  0
   44.1860   34.6690   40.9930 C   0  0  0  0  0  0  0  0  0  0  0  0
   42.7850   34.7790   41.0240 C   0  0  0  0  0  0  0  0  0  0  0  0
   42.0940   33.5860   41.2740 N   0  0  0  0  0  0  0  0  0  0  0  0
   42.7250   32.4110   41.4720 C   0  0  0  0  0  0  0  0  0  0  0  0
   44.0670   32.3580   41.4320 N   0  0  0  0  0  0  0  0  0  0  0  0
   44.5240   35.6770   40.8000 H   0  0  0  0  0  0  0  0  0  0  0  0
   42.1480   35.6130   40.8900 H   0  0  0  0  0  0  0  0  0  0  0  0
   42.1000   31.5600   41.6560 H   0  0  0  0  0  0  0  0  0  0  0  0
   46.4370   32.9120   38.7900 C   0  0  2  0  0  0  0  0  0  0  0  0
   46.5340   33.2880   37.3220 C   0  0  0  0  0  0  0  0  0  0  0  0
   45.2310   32.9590   37.9210 C   0  0  1  0  0  0  0  0  0  0  0  0
   46.9390   31.9460   39.0070 H   0  0  0  0  0  0  0  0  0  0  0  0
   46.7050   34.3190   37.0090 H   0  0  0  0  0  0  0  0  0  0  0  0
   46.9120   32.5310   36.5910 H   0  0  0  0  0  0  0  0  0  0  0  0
   44.5200   33.7950   38.1370 H   0  0  0  0  0  0  0  0  0  0  0  0
   44.5630   31.6240   37.7920 C   0  0  0  0  0  0  0  0  0  0  0  0
   45.2540   30.9230   37.3030 H   0  0  0  0  0  0  0  0  0  0  0  0
   44.3740   31.2510   38.8110 H   0  0  0  0  0  0  0  0  0  0  0  0
   43.2480   31.6710   37.0600 C   0  0  0  0  0  0  0  0  0  0  0  0
   43.2690   32.3770   36.2280 H   0  0  0  0  0  0  0  0  0  0  0  0
   42.3970   31.8290   37.7370 H   0  0  0  0  0  0  0  0  0  0  0  0
   43.0660   30.3330   36.4740 N   0  0  0  0  0  0  0  0  0  0  0  0
   41.9720   29.5750   36.3260 C   0  0  0  0  0  0  0  0  0  0  0  0
   41.0020   29.9000   36.6600 H   0  0  0  0  0  0  0  0  0  0  0  0
   42.2970   28.4160   35.7270 N   0  0  0  0  0  0  0  0  0  0  0  0
   43.6000   28.3840   35.4680 C   0  0  0  0  0  0  0  0  0  0  0  0
   44.4610   27.4760   34.8850 C   0  0  0  0  0  0  0  0  0  0  0  0
   44.1010   26.5260   34.5110 H   0  0  0  0  0  0  0  0  0  0  0  0
   45.7870   27.7810   34.7770 N   0  0  0  0  0  0  0  0  0  0  0  0
   46.2170   28.9830   35.2550 C   0  0  0  0  0  0  0  0  0  0  0  0
   47.2420   29.3330   35.2250 H   0  0  0  0  0  0  0  0  0  0  0  0
   45.3850   29.8750   35.8260 N   0  0  0  0  0  0  0  0  0  0  0  0
   44.0670   29.5880   35.9400 C   0  0  0  0  0  0  0  0  0  0  0  0
  1 17  1  0  0  0  0
  1  7  1  1  0  0  0
  1  2  1  0  0  0  0
  2  8  1  0  0  0  0
  2  9  1  0  0  0  0
  3  2  1  0  0  0  0
  3 10  1  0  0  0  0
  4 13  1  0  0  0  0
  4  3  1  0  0  0  0
  5  6  1  0  0  0  0
  5 15  1  0  0  0  0
  5  4  1  0  0  0  0
  6 16  1  6  0  0  0
  6  1  1  0  0  0  0
 11  3  1  0  0  0  0
 12  4  1  0  0  0  0
 14  5  1  0  0  0  0
 17 22  1  0  0  0  0
 18 19  1  0  0  0  0
 18 17  2  0  0  0  0
 19 20  2  0  0  0  0
 20 21  1  0  0  0  0
 21 25  1  0  0  0  0
 22 21  2  0  0  0  0
 23 18  1  0  0  0  0
 24 19  1  0  0  0  0
 26 29  1  1  0  0  0
 26  6  1  0  0  0  0
 27 28  1  0  0  0  0
 27 26  1  0  0  0  0
 28 32  1  1  0  0  0
 28 26  1  0  0  0  0
 30 27  1  0  0  0  0
 31 27  1  0  0  0  0
 33 28  1  0  0  0  0
 33 35  1  0  0  0  0
 34 33  1  0  0  0  0
 36 38  1  0  0  0  0
 36 33  1  0  0  0  0
 37 36  1  0  0  0  0
 39 36  1  0  0  0  0
 40 39  1  0  0  0  0
 40 41  1  0  0  0  0
 42 40  2  0  0  0  0
 43 42  1  0  0  0  0
 43 50  1  0  0  0  0
 44 43  2  0  0  0  0
 45 44  1  0  0  0  0
 46 44  1  0  0  0  0
 46 47  2  0  0  0  0
 47 49  1  0  0  0  0
 48 47  1  0  0  0  0
 49 50  2  0  0  0  0
 50 39  1  0  0  0  0
M  END
>  <minimizedAffinity>
-4.06525469

>  <minimizedRMSD>
5.88748026

$$$$
