
 OpenBabel03252507193D

 42 44  0  0  1  0  0  0  0  0999 V2000
   46.8180   32.9680   43.3530 C   0  0  0  0  0  0  0  0  0  0  0  0
   48.0620   32.9190   43.6320 O   0  0  0  0  0  0  0  0  0  0  0  0
   46.1860   32.0720   42.4060 N   0  0  0  0  0  0  0  0  0  0  0  0
   44.9300   31.3410   42.4820 C   0  0  0  0  0  0  0  0  0  0  0  0
   44.1160   31.6470   41.2250 C   0  0  0  0  0  0  0  0  0  0  0  0
   44.8360   31.1270   40.0060 C   0  0  0  0  0  0  0  0  0  0  0  0
   46.2630   30.8090   40.3580 C   0  0  0  0  0  0  0  0  0  0  0  0
   46.9380   31.8660   41.1630 C   0  0  1  0  0  0  0  0  0  0  0  0
   44.3450   31.8350   43.3100 H   0  0  0  0  0  0  0  0  0  0  0  0
   45.0590   30.2680   42.6240 H   0  0  0  0  0  0  0  0  0  0  0  0
   44.0850   32.7740   41.1760 H   0  0  0  0  0  0  0  0  0  0  0  0
   43.0880   31.2670   41.3150 H   0  0  0  0  0  0  0  0  0  0  0  0
   44.3520   30.1440   39.7690 H   0  0  0  0  0  0  0  0  0  0  0  0
   44.7230   31.7500   39.1210 H   0  0  0  0  0  0  0  0  0  0  0  0
   46.8180   30.6250   39.4310 H   0  0  0  0  0  0  0  0  0  0  0  0
   46.3080   29.8660   40.9620 H   0  0  0  0  0  0  0  0  0  0  0  0
   47.8990   31.4460   41.5260 H   0  0  0  0  0  0  0  0  0  0  0  0
   45.5720   35.0570   43.2650 C   0  0  0  0  0  0  0  0  0  0  0  0
   46.0080   33.9520   44.0010 C   0  0  0  0  0  0  0  0  0  0  0  0
   45.6480   33.8350   45.3310 C   0  0  0  0  0  0  0  0  0  0  0  0
   44.8790   34.8060   45.8700 N   0  0  0  0  0  0  0  0  0  0  0  0
   44.4520   35.8830   45.1580 C   0  0  0  0  0  0  0  0  0  0  0  0
   44.8080   35.9900   43.8630 N   0  0  0  0  0  0  0  0  0  0  0  0
   45.8020   35.2240   42.2400 H   0  0  0  0  0  0  0  0  0  0  0  0
   43.8370   36.6330   45.6410 H   0  0  0  0  0  0  0  0  0  0  0  0
   46.1090   32.6890   46.0870 C   0  0  0  0  0  0  0  0  0  0  0  0
   45.5390   31.4670   45.8940 C   0  0  0  0  0  0  0  0  0  0  0  0
   45.9890   30.3880   46.6210 C   0  0  0  0  0  0  0  0  0  0  0  0
   47.0170   30.4910   47.5560 C   0  0  0  0  0  0  0  0  0  0  0  0
   47.5570   31.7560   47.7080 C   0  0  0  0  0  0  0  0  0  0  0  0
   47.0930   32.7850   46.9840 N   0  0  0  0  0  0  0  0  0  0  0  0
   44.7390   31.2270   45.2160 H   0  0  0  0  0  0  0  0  0  0  0  0
   45.5760   29.3890   46.5130 H   0  0  0  0  0  0  0  0  0  0  0  0
   47.3520   29.6290   48.1130 H   0  0  0  0  0  0  0  0  0  0  0  0
   48.3480   31.8770   48.4180 H   0  0  0  0  0  0  0  0  0  0  0  0
   47.2260   33.1480   40.4660 C   0  0  0  0  0  2  0  0  0  0  0  0
   48.0180   32.9050   39.2880 N   0  0  0  0  0  4  0  0  0  0  0  0
   47.5430   32.1980   38.6910 H   0  0  0  0  0  0  0  0  0  0  0  0
   49.3410   32.4390   39.5850 C   0  0  0  0  0  2  0  0  0  0  0  0
   49.8320   32.2740   38.5850 H   0  0  0  0  0  0  0  0  0  0  0  0
   48.1700   34.1130   38.4840 C   0  0  0  0  0  2  0  0  0  0  0  0
   49.0510   33.9420   37.8300 H   0  0  0  0  0  0  0  0  0  0  0  0
  1  2  2  0  0  0  0
  1 19  1  0  0  0  0
  3  4  1  0  0  0  0
  3  1  1  0  0  0  0
  4 10  1  0  0  0  0
  4  9  1  0  0  0  0
  5 12  1  0  0  0  0
  5  4  1  0  0  0  0
  6  7  1  0  0  0  0
  6  5  1  0  0  0  0
  7 16  1  0  0  0  0
  7  8  1  0  0  0  0
  8 17  1  1  0  0  0
  8  3  1  0  0  0  0
 11  5  1  0  0  0  0
 13  6  1  0  0  0  0
 14  6  1  0  0  0  0
 15  7  1  0  0  0  0
 18 23  2  0  0  0  0
 18 19  1  0  0  0  0
 19 20  2  0  0  0  0
 20 21  1  0  0  0  0
 20 26  1  0  0  0  0
 22 25  1  0  0  0  0
 22 21  2  0  0  0  0
 23 22  1  0  0  0  0
 24 18  1  0  0  0  0
 26 31  1  0  0  0  0
 27 26  2  0  0  0  0
 27 28  1  0  0  0  0
 28 29  2  0  0  0  0
 29 30  1  0  0  0  0
 29 34  1  0  0  0  0
 30 35  1  0  0  0  0
 31 30  2  0  0  0  0
 32 27  1  0  0  0  0
 33 28  1  0  0  0  0
 36  8  1  0  0  0  0
 37 39  1  0  0  0  0
 37 36  1  0  0  0  0
 38 37  1  0  0  0  0
 40 39  1  0  0  0  0
 41 37  1  0  0  0  0
 42 41  1  0  0  0  0
M  END
>  <minimizedAffinity>
-4.486866

>  <minimizedRMSD>
1.74086857

$$$$
