
 OpenBabel03242523203D

 35 37  0  0  0  0  0  0  0  0999 V2000
   46.4420   33.4570   44.7190 C   0  0  0  0  0  0  0  0  0  0  0  0
   45.8810   33.8010   45.7310 O   0  0  0  0  0  0  0  0  0  0  0  0
   44.6490   31.7010   42.9300 Cl  0  0  0  0  0  0  0  0  0  0  0  0
   44.6460   33.4660   42.8540 C   0  0  0  0  0  0  0  0  0  0  0  0
   45.5300   34.1110   43.7450 C   0  0  0  0  0  0  0  0  0  0  0  0
   45.4520   35.4840   43.5860 C   0  0  0  0  0  0  0  0  0  0  0  0
   44.7010   36.2180   42.7540 C   0  0  0  0  0  0  0  0  0  0  0  0
   43.8750   35.5170   41.9280 C   0  0  0  0  0  0  0  0  0  0  0  0
   43.8290   34.1650   41.9600 C   0  0  0  0  0  0  0  0  0  0  0  0
   46.0610   36.1470   44.2400 H   0  0  0  0  0  0  0  0  0  0  0  0
   44.6860   37.2940   42.6750 H   0  0  0  0  0  0  0  0  0  0  0  0
   43.2070   35.9730   41.2000 H   0  0  0  0  0  0  0  0  0  0  0  0
   42.9100   33.3790   41.0810 C   0  0  0  0  0  2  0  0  0  0  0  0
   43.4010   33.2430   39.7450 N   0  0  0  0  0  4  0  0  0  0  0  0
   43.0530   32.2930   39.4060 H   0  0  0  0  0  0  0  0  0  0  0  0
   44.8160   33.2830   39.5760 C   0  0  0  0  0  2  0  0  0  0  0  0
   45.1360   34.2460   39.0780 H   0  0  0  0  0  0  0  0  0  0  0  0
   42.7840   34.2120   38.8620 C   0  0  0  0  0  2  0  0  0  0  0  0
   41.9330   33.7660   38.2840 H   0  0  0  0  0  0  0  0  0  0  0  0
   47.5010   32.7610   43.9800 C   0  0  0  0  0  0  0  0  0  0  0  0
   48.3220   33.3050   43.0680 C   0  0  0  0  0  0  0  0  0  0  0  0
   49.1680   32.4080   42.4490 C   0  0  0  0  0  0  0  0  0  0  0  0
   49.1010   31.0500   42.8180 N   0  0  0  0  0  0  0  0  0  0  0  0
   48.2690   30.5950   43.7260 C   0  0  0  0  0  0  0  0  0  0  0  0
   47.4070   31.4630   44.3630 N   0  0  0  0  0  0  0  0  0  0  0  0
   49.8870   32.6810   41.6880 H   0  0  0  0  0  0  0  0  0  0  0  0
   48.3350   29.5260   43.9060 H   0  0  0  0  0  0  0  0  0  0  0  0
   48.4690   34.6880   42.7790 C   0  0  0  0  0  0  0  0  0  0  0  0
   49.4690   35.3170   42.1080 C   0  0  0  0  0  0  0  0  0  0  0  0
   48.2310   35.1310   41.2740 C   0  0  0  0  0  0  0  0  0  0  0  0
   47.9990   35.3480   43.5320 H   0  0  0  0  0  0  0  0  0  0  0  0
   50.3390   34.7350   41.7150 H   0  0  0  0  0  0  0  0  0  0  0  0
   49.7820   36.3940   42.1590 H   0  0  0  0  0  0  0  0  0  0  0  0
   48.1780   34.2910   40.5690 H   0  0  0  0  0  0  0  0  0  0  0  0
   47.5330   35.9740   41.1800 H   0  0  0  0  0  0  0  0  0  0  0  0
  1  2  2  0  0  0  0
  4  3  1  0  0  0  0
  4  5  1  0  0  0  0
  5  1  1  0  0  0  0
  6  5  2  0  0  0  0
  6 10  1  0  0  0  0
  7  6  1  0  0  0  0
  8  9  1  0  0  0  0
  8  7  2  0  0  0  0
  9  4  2  0  0  0  0
 11  7  1  0  0  0  0
 12  8  1  0  0  0  0
 13  9  1  0  0  0  0
 14 13  1  0  0  0  0
 15 14  1  0  0  0  0
 16 14  1  0  0  0  0
 17 16  1  0  0  0  0
 18 14  1  0  0  0  0
 19 18  1  0  0  0  0
 20 25  1  0  0  0  0
 20  1  1  0  0  0  0
 21 20  2  0  0  0  0
 22 23  2  0  0  0  0
 22 21  1  0  0  0  0
 23 24  1  0  0  0  0
 24 27  1  0  0  0  0
 24 25  2  0  0  0  0
 26 22  1  0  0  0  0
 28 21  1  0  0  0  0
 28 31  1  0  0  0  0
 29 33  1  0  0  0  0
 29 28  1  0  0  0  0
 30 29  1  0  0  0  0
 30 28  1  0  0  0  0
 32 29  1  0  0  0  0
 34 30  1  0  0  0  0
 35 30  1  0  0  0  0
M  END
>  <minimizedAffinity>
-5.01356411

>  <minimizedRMSD>
0.301710993

$$$$
