
 OpenBabel03242520243D

 22 22  0  0  0  0  0  0  0  0999 V2000
   45.1470   34.4770   44.7850 C   0  0  0  0  0  0  0  0  0  0  0  0
   45.7190   34.4230   43.5030 C   0  0  0  0  0  0  0  0  0  0  0  0
   46.8670   33.6540   43.3570 C   0  0  0  0  0  0  0  0  0  0  0  0
   47.3570   33.0120   44.4430 N   0  0  0  0  0  0  0  0  0  0  0  0
   46.7890   33.0790   45.6630 C   0  0  0  0  0  0  0  0  0  0  0  0
   45.6820   33.8120   45.8390 N   0  0  0  0  0  0  0  0  0  0  0  0
   44.2530   35.0710   44.9200 H   0  0  0  0  0  0  0  0  0  0  0  0
   47.3430   32.4910   46.3830 H   0  0  0  0  0  0  0  0  0  0  0  0
   47.4650   33.5770   42.0990 O   0  0  0  0  0  0  0  0  0  0  0  0
   49.9550   33.0590   41.4310 O   0  0  0  0  0  0  0  0  0  0  0  0
   49.0380   34.2030   41.8710 P   0  0  0  0  0  0  0  0  0  0  0  0
   48.9850   35.4300   40.7320 O   0  0  0  0  0  0  0  0  0  0  0  0
   49.5120   36.1970   41.0840 H   0  0  0  0  0  0  0  0  0  0  0  0
   49.5920   34.7540   43.3670 O   0  0  0  0  0  0  0  0  0  0  0  0
   48.8110   35.0390   43.9090 H   0  0  0  0  0  0  0  0  0  0  0  0
   45.1890   35.1160   42.3390 C   0  0  0  0  0  0  0  0  0  0  0  0
   44.0260   34.5400   41.7270 N   0  0  0  0  0  0  0  0  0  0  0  0
   43.6170   33.7560   42.2360 H   0  0  0  0  0  0  0  0  0  0  0  0
   43.0930   35.6070   41.3900 C   0  0  0  0  0  0  0  0  0  0  0  0
   43.5930   36.2230   40.5870 H   0  0  0  0  0  0  0  0  0  0  0  0
   44.4350   33.9950   40.4220 C   0  0  0  0  0  0  0  0  0  0  0  0
   44.9410   34.7910   39.8350 H   0  0  0  0  0  0  0  0  0  0  0  0
  1  7  1  0  0  0  0
  1  6  1  0  0  0  0
  2  1  2  0  0  0  0
  3  2  1  0  0  0  0
  3  4  2  0  0  0  0
  4  5  1  0  0  0  0
  5  6  2  0  0  0  0
  5  8  1  0  0  0  0
  9  3  1  0  0  0  0
 10 11  2  0  0  0  0
 11  9  1  0  0  0  0
 11 14  1  0  0  0  0
 12 13  1  0  0  0  0
 12 11  1  0  0  0  0
 14 15  1  0  0  0  0
 16  2  1  0  0  0  0
 17 18  1  0  0  0  0
 17 16  1  0  0  0  0
 19 17  1  0  0  0  0
 20 19  1  0  0  0  0
 21 17  1  0  0  0  0
 22 21  1  0  0  0  0
M  END
>  <minimizedAffinity>
-4.18207169

>  <minimizedRMSD>
2.12983131

$$$$
