
 OpenBabel03242513253D

 43 45  0  0  1  0  0  0  0  0999 V2000
   35.8320   29.9380   39.5050 C   0  0  2  0  0  0  0  0  0  0  0  0
   35.9180   29.0780   38.2680 C   0  0  0  0  0  0  0  0  0  0  0  0
   36.6730   30.0670   37.3860 C   0  0  0  0  0  0  0  0  0  0  0  0
   37.6030   30.6320   38.2090 O   0  0  0  0  0  0  0  0  0  0  0  0
   37.2070   30.5130   39.5150 C   0  0  1  0  0  0  0  0  0  0  0  0
   35.0310   30.6650   39.3230 H   0  0  0  0  0  0  0  0  0  0  0  0
   36.5580   28.2130   38.5150 H   0  0  0  0  0  0  0  0  0  0  0  0
   34.9440   28.8090   37.8390 H   0  0  0  0  0  0  0  0  0  0  0  0
   37.1370   29.4930   36.5620 H   0  0  0  0  0  0  0  0  0  0  0  0
   35.9400   30.7680   36.9470 H   0  0  0  0  0  0  0  0  0  0  0  0
   37.9050   29.8710   40.0790 H   0  0  0  0  0  0  0  0  0  0  0  0
   37.2230   31.8690   40.1590 C   0  0  1  0  0  0  0  0  0  0  0  0
   38.5400   32.1270   40.8840 C   0  0  0  0  0  0  0  0  0  0  0  0
   38.8270   33.5550   40.5070 C   0  0  0  0  0  0  0  0  0  0  0  0
   37.6560   34.0550   39.9360 O   0  0  0  0  0  0  0  0  0  0  0  0
   37.2640   32.9830   39.1180 C   0  0  0  0  0  0  0  0  0  0  0  0
   36.3700   32.0620   40.8060 H   0  0  0  0  0  0  0  0  0  0  0  0
   39.3480   31.4750   40.5250 H   0  0  0  0  0  0  0  0  0  0  0  0
   38.4160   32.0370   41.9880 H   0  0  0  0  0  0  0  0  0  0  0  0
   39.6060   33.5760   39.6960 H   0  0  0  0  0  0  0  0  0  0  0  0
   39.2190   34.1770   41.3180 H   0  0  0  0  0  0  0  0  0  0  0  0
   38.1440   32.8470   38.4260 H   0  0  0  0  0  0  0  0  0  0  0  0
   36.3170   33.1510   38.6100 H   0  0  0  0  0  0  0  0  0  0  0  0
   35.4860   29.1550   40.7220 C   0  0  0  0  0  0  0  0  0  0  0  0
   34.4520   28.7250   40.6530 H   0  0  0  0  0  0  0  0  0  0  0  0
   35.4460   29.8340   41.6010 H   0  0  0  0  0  0  0  0  0  0  0  0
   36.7170   27.6230   42.1830 C   0  0  0  0  0  3  0  0  0  0  0  0
   36.3840   28.0070   40.9750 C   0  0  0  0  0  3  0  0  0  0  0  0
   38.0160   24.2030   42.2880 C   0  0  0  0  0  0  0  0  0  0  0  0
   39.3160   24.3970   42.8180 C   0  0  0  0  0  0  0  0  0  0  0  0
   39.7070   25.7160   43.1250 C   0  0  0  0  0  0  0  0  0  0  0  0
   38.8260   26.7280   42.9000 N   0  0  0  0  0  0  0  0  0  0  0  0
   37.5950   26.4990   42.3930 C   0  0  0  0  0  0  0  0  0  0  0  0
   37.1740   25.2630   42.0840 N   0  0  0  0  0  0  0  0  0  0  0  0
   37.6170   23.2360   42.0180 H   0  0  0  0  0  0  0  0  0  0  0  0
   39.9340   23.5430   42.9570 H   0  0  0  0  0  0  0  0  0  0  0  0
   41.0570   25.9420   43.6780 C   0  0  0  0  0  2  0  0  0  0  0  0
   42.1340   25.5230   42.8430 N   0  0  0  0  0  4  0  0  0  0  0  0
   41.9700   24.5340   42.5520 H   0  0  0  0  0  0  0  0  0  0  0  0
   42.2950   26.2810   41.6270 C   0  0  0  0  0  2  0  0  0  0  0  0
   43.1780   25.8160   41.1040 H   0  0  0  0  0  0  0  0  0  0  0  0
   43.4150   25.5260   43.5180 C   0  0  0  0  0  2  0  0  0  0  0  0
   43.2940   25.2900   44.5970 H   0  0  0  0  0  0  0  0  0  0  0  0
  1  6  1  6  0  0  0
  1  5  1  0  0  0  0
  1 24  1  0  0  0  0
  2  7  1  0  0  0  0
  2  1  1  0  0  0  0
  3  4  1  0  0  0  0
  3  2  1  0  0  0  0
  4  5  1  0  0  0  0
  5 11  1  1  0  0  0
  5 12  1  0  0  0  0
  8  2  1  0  0  0  0
  9  3  1  0  0  0  0
 10  3  1  0  0  0  0
 12 17  1  1  0  0  0
 12 13  1  0  0  0  0
 13 19  1  0  0  0  0
 14 13  1  0  0  0  0
 14 21  1  0  0  0  0
 15 14  1  0  0  0  0
 16 15  1  0  0  0  0
 16 12  1  0  0  0  0
 18 13  1  0  0  0  0
 20 14  1  0  0  0  0
 22 16  1  0  0  0  0
 23 16  1  0  0  0  0
 24 28  1  0  0  0  0
 24 26  1  0  0  0  0
 25 24  1  0  0  0  0
 27 33  1  0  0  0  0
 28 27  2  0  0  0  0
 29 30  1  0  0  0  0
 30 36  1  0  0  0  0
 30 31  2  0  0  0  0
 31 37  1  0  0  0  0
 32 31  1  0  0  0  0
 33 32  2  0  0  0  0
 34 29  2  0  0  0  0
 34 33  1  0  0  0  0
 35 29  1  0  0  0  0
 38 42  1  0  0  0  0
 38 37  1  0  0  0  0
 39 38  1  0  0  0  0
 40 38  1  0  0  0  0
 41 40  1  0  0  0  0
 42 43  1  0  0  0  0
M  END
>  <minimizedAffinity>
-5.31187534

$$$$

 OpenBabel03242513253D

 43 45  0  0  1  0  0  0  0  0999 V2000
   35.8250   30.0220   39.4700 C   0  0  2  0  0  0  0  0  0  0  0  0
   35.9240   29.1680   38.2300 C   0  0  0  0  0  0  0  0  0  0  0  0
   36.6970   30.1560   37.3640 C   0  0  0  0  0  0  0  0  0  0  0  0
   37.6200   30.7110   38.2020 O   0  0  0  0  0  0  0  0  0  0  0  0
   37.2040   30.5880   39.5030 C   0  0  1  0  0  0  0  0  0  0  0  0
   35.0310   30.7560   39.2800 H   0  0  0  0  0  0  0  0  0  0  0  0
   36.5540   28.2980   38.4820 H   0  0  0  0  0  0  0  0  0  0  0  0
   34.9540   28.9070   37.7850 H   0  0  0  0  0  0  0  0  0  0  0  0
   37.1700   29.5830   36.5440 H   0  0  0  0  0  0  0  0  0  0  0  0
   35.9760   30.8640   36.9170 H   0  0  0  0  0  0  0  0  0  0  0  0
   37.8890   29.9390   40.0730 H   0  0  0  0  0  0  0  0  0  0  0  0
   37.2200   31.9410   40.1530 C   0  0  1  0  0  0  0  0  0  0  0  0
   38.5220   32.1820   40.9080 C   0  0  0  0  0  0  0  0  0  0  0  0
   38.8330   33.6090   40.5450 C   0  0  0  0  0  0  0  0  0  0  0  0
   37.6800   34.1230   39.9500 O   0  0  0  0  0  0  0  0  0  0  0  0
   37.2950   33.0600   39.1190 C   0  0  0  0  0  0  0  0  0  0  0  0
   36.3540   32.1400   40.7820 H   0  0  0  0  0  0  0  0  0  0  0  0
   39.3310   31.5240   40.5650 H   0  0  0  0  0  0  0  0  0  0  0  0
   38.3730   32.0880   42.0090 H   0  0  0  0  0  0  0  0  0  0  0  0
   39.6290   33.6250   39.7510 H   0  0  0  0  0  0  0  0  0  0  0  0
   39.2130   34.2230   41.3670 H   0  0  0  0  0  0  0  0  0  0  0  0
   38.1880   32.9180   38.4450 H   0  0  0  0  0  0  0  0  0  0  0  0
   36.3610   33.2390   38.5910 H   0  0  0  0  0  0  0  0  0  0  0  0
   35.4570   29.2360   40.6780 C   0  0  0  0  0  0  0  0  0  0  0  0
   34.4580   28.7390   40.5550 H   0  0  0  0  0  0  0  0  0  0  0  0
   35.3210   29.9230   41.5400 H   0  0  0  0  0  0  0  0  0  0  0  0
   36.9630   28.0300   42.1850 C   0  0  0  0  0  3  0  0  0  0  0  0
   36.4080   28.1520   41.0040 C   0  0  0  0  0  3  0  0  0  0  0  0
   39.6990   26.1060   43.6730 C   0  0  0  0  0  0  0  0  0  0  0  0
   39.6190   24.8830   42.9620 C   0  0  0  0  0  0  0  0  0  0  0  0
   38.6130   24.7590   41.9820 C   0  0  0  0  0  0  0  0  0  0  0  0
   37.7770   25.8100   41.7680 N   0  0  0  0  0  0  0  0  0  0  0  0
   37.8870   26.9600   42.4680 C   0  0  0  0  0  0  0  0  0  0  0  0
   38.8270   27.1280   43.4120 N   0  0  0  0  0  0  0  0  0  0  0  0
   40.4290   26.3060   44.4430 H   0  0  0  0  0  0  0  0  0  0  0  0
   40.3180   24.1170   43.2010 H   0  0  0  0  0  0  0  0  0  0  0  0
   38.5110   23.4930   41.2300 C   0  0  0  0  0  2  0  0  0  0  0  0
   38.1090   23.6250   39.8690 N   0  0  0  0  0  4  0  0  0  0  0  0
   37.8450   24.6190   39.6890 H   0  0  0  0  0  0  0  0  0  0  0  0
   39.1230   23.2950   38.8980 C   0  0  0  0  0  2  0  0  0  0  0  0
   38.6350   23.4560   37.8950 H   0  0  0  0  0  0  0  0  0  0  0  0
   36.9360   22.8420   39.5400 C   0  0  0  0  0  2  0  0  0  0  0  0
   36.2590   22.7580   40.4160 H   0  0  0  0  0  0  0  0  0  0  0  0
  1  6  1  6  0  0  0
  1  5  1  0  0  0  0
  1 24  1  0  0  0  0
  2  7  1  0  0  0  0
  2  1  1  0  0  0  0
  3  4  1  0  0  0  0
  3  2  1  0  0  0  0
  4  5  1  0  0  0  0
  5 11  1  1  0  0  0
  5 12  1  0  0  0  0
  8  2  1  0  0  0  0
  9  3  1  0  0  0  0
 10  3  1  0  0  0  0
 12 17  1  1  0  0  0
 12 13  1  0  0  0  0
 13 19  1  0  0  0  0
 14 13  1  0  0  0  0
 14 21  1  0  0  0  0
 15 14  1  0  0  0  0
 16 15  1  0  0  0  0
 16 12  1  0  0  0  0
 18 13  1  0  0  0  0
 20 14  1  0  0  0  0
 22 16  1  0  0  0  0
 23 16  1  0  0  0  0
 24 28  1  0  0  0  0
 24 26  1  0  0  0  0
 25 24  1  0  0  0  0
 27 33  1  0  0  0  0
 28 27  2  0  0  0  0
 29 35  1  0  0  0  0
 30 36  1  0  0  0  0
 30 29  2  0  0  0  0
 31 30  1  0  0  0  0
 32 31  2  0  0  0  0
 32 33  1  0  0  0  0
 33 34  2  0  0  0  0
 34 29  1  0  0  0  0
 37 31  1  0  0  0  0
 38 37  1  0  0  0  0
 39 38  1  0  0  0  0
 40 38  1  0  0  0  0
 41 40  1  0  0  0  0
 42 38  1  0  0  0  0
 42 43  1  0  0  0  0
M  END
>  <minimizedAffinity>
-5.14543867

$$$$

 OpenBabel03242513253D

 43 45  0  0  1  0  0  0  0  0999 V2000
   37.8770   26.6940   43.1570 C   0  0  2  0  0  0  0  0  0  0  0  0
   39.2730   26.9310   43.6800 C   0  0  0  0  0  0  0  0  0  0  0  0
   39.9200   25.6750   43.1060 C   0  0  0  0  0  0  0  0  0  0  0  0
   39.3900   25.5480   41.8550 O   0  0  0  0  0  0  0  0  0  0  0  0
   38.1950   26.2140   41.7820 C   0  0  1  0  0  0  0  0  0  0  0  0
   37.4230   25.9420   43.8140 H   0  0  0  0  0  0  0  0  0  0  0  0
   39.6620   27.8320   43.1760 H   0  0  0  0  0  0  0  0  0  0  0  0
   39.3430   26.9630   44.7750 H   0  0  0  0  0  0  0  0  0  0  0  0
   41.0130   25.8440   43.0820 H   0  0  0  0  0  0  0  0  0  0  0  0
   39.7160   24.8360   43.7950 H   0  0  0  0  0  0  0  0  0  0  0  0
   38.2580   27.0540   41.0700 H   0  0  0  0  0  0  0  0  0  0  0  0
   37.1390   25.2750   41.2780 C   0  0  1  0  0  0  0  0  0  0  0  0
   36.5790   25.7330   39.9350 C   0  0  0  0  0  0  0  0  0  0  0  0
   36.4860   24.4360   39.1780 C   0  0  0  0  0  0  0  0  0  0  0  0
   36.6670   23.4190   40.1170 O   0  0  0  0  0  0  0  0  0  0  0  0
   37.7310   23.9270   40.8790 C   0  0  0  0  0  0  0  0  0  0  0  0
   36.3420   25.0790   41.9930 H   0  0  0  0  0  0  0  0  0  0  0  0
   37.2570   26.4220   39.4150 H   0  0  0  0  0  0  0  0  0  0  0  0
   35.5660   26.1840   40.0530 H   0  0  0  0  0  0  0  0  0  0  0  0
   37.3510   24.3600   38.4630 H   0  0  0  0  0  0  0  0  0  0  0  0
   35.5820   24.3180   38.5740 H   0  0  0  0  0  0  0  0  0  0  0  0
   38.5540   24.0640   40.1210 H   0  0  0  0  0  0  0  0  0  0  0  0
   38.0000   23.2940   41.7220 H   0  0  0  0  0  0  0  0  0  0  0  0
   37.0350   27.9210   43.1980 C   0  0  0  0  0  0  0  0  0  0  0  0
   36.7960   28.2180   44.2540 H   0  0  0  0  0  0  0  0  0  0  0  0
   36.0470   27.7080   42.7390 H   0  0  0  0  0  0  0  0  0  0  0  0
   37.0990   29.7870   41.6150 C   0  0  0  0  0  3  0  0  0  0  0  0
   37.6680   29.1060   42.5800 C   0  0  0  0  0  3  0  0  0  0  0  0
   37.6200   33.0070   39.9550 C   0  0  0  0  0  0  0  0  0  0  0  0
   39.0330   33.1070   39.9420 C   0  0  0  0  0  0  0  0  0  0  0  0
   39.7690   32.0490   40.5130 C   0  0  0  0  0  0  0  0  0  0  0  0
   39.0940   30.9940   41.0430 N   0  0  0  0  0  0  0  0  0  0  0  0
   37.7440   30.9380   41.0340 C   0  0  0  0  0  0  0  0  0  0  0  0
   36.9970   31.9190   40.5030 N   0  0  0  0  0  0  0  0  0  0  0  0
   36.9620   33.7600   39.5460 H   0  0  0  0  0  0  0  0  0  0  0  0
   39.4720   33.9720   39.5050 H   0  0  0  0  0  0  0  0  0  0  0  0
   41.2430   32.1320   40.5110 C   0  0  0  0  0  2  0  0  0  0  0  0
   41.8080   32.9430   41.5380 N   0  0  0  0  0  4  0  0  0  0  0  0
   41.0470   33.2520   42.1820 H   0  0  0  0  0  0  0  0  0  0  0  0
   42.7930   32.2860   42.3620 C   0  0  0  0  0  2  0  0  0  0  0  0
   43.1230   33.0650   43.1060 H   0  0  0  0  0  0  0  0  0  0  0  0
   42.4160   34.1580   41.0380 C   0  0  0  0  0  2  0  0  0  0  0  0
   41.8830   34.5250   40.1360 H   0  0  0  0  0  0  0  0  0  0  0  0
  1 24  1  0  0  0  0
  1  2  1  0  0  0  0
  1  6  1  1  0  0  0
  2  8  1  0  0  0  0
  3  2  1  0  0  0  0
  3 10  1  0  0  0  0
  4  3  1  0  0  0  0
  5 11  1  6  0  0  0
  5  4  1  0  0  0  0
  5  1  1  0  0  0  0
  7  2  1  0  0  0  0
  9  3  1  0  0  0  0
 12  5  1  0  0  0  0
 12 17  1  1  0  0  0
 13 19  1  0  0  0  0
 13 12  1  0  0  0  0
 14 13  1  0  0  0  0
 14 15  1  0  0  0  0
 15 16  1  0  0  0  0
 16 12  1  0  0  0  0
 16 23  1  0  0  0  0
 18 13  1  0  0  0  0
 20 14  1  0  0  0  0
 21 14  1  0  0  0  0
 22 16  1  0  0  0  0
 24 25  1  0  0  0  0
 26 24  1  0  0  0  0
 27 28  2  0  0  0  0
 28 24  1  0  0  0  0
 29 34  1  0  0  0  0
 30 29  2  0  0  0  0
 30 31  1  0  0  0  0
 31 32  2  0  0  0  0
 33 32  1  0  0  0  0
 33 27  1  0  0  0  0
 34 33  2  0  0  0  0
 35 29  1  0  0  0  0
 36 30  1  0  0  0  0
 37 31  1  0  0  0  0
 37 38  1  0  0  0  0
 38 39  1  0  0  0  0
 38 40  1  0  0  0  0
 40 41  1  0  0  0  0
 42 38  1  0  0  0  0
 43 42  1  0  0  0  0
M  END
>  <minimizedAffinity>
-5.1332202

$$$$

 OpenBabel03242513253D

 43 45  0  0  1  0  0  0  0  0999 V2000
   37.6620   26.6930   43.1410 C   0  0  2  0  0  0  0  0  0  0  0  0
   38.9190   27.3500   43.6570 C   0  0  0  0  0  0  0  0  0  0  0  0
   39.8810   26.2020   43.3660 C   0  0  0  0  0  0  0  0  0  0  0  0
   39.4990   25.7250   42.1470 O   0  0  0  0  0  0  0  0  0  0  0  0
   38.1930   26.0600   41.9010 C   0  0  1  0  0  0  0  0  0  0  0  0
   37.3400   25.9870   43.9160 H   0  0  0  0  0  0  0  0  0  0  0  0
   39.1320   28.2100   42.9990 H   0  0  0  0  0  0  0  0  0  0  0  0
   38.8900   27.5980   44.7270 H   0  0  0  0  0  0  0  0  0  0  0  0
   40.9050   26.6220   43.3490 H   0  0  0  0  0  0  0  0  0  0  0  0
   39.8190   25.4800   44.2000 H   0  0  0  0  0  0  0  0  0  0  0  0
   38.1200   26.7450   41.0400 H   0  0  0  0  0  0  0  0  0  0  0  0
   37.4250   24.8180   41.5530 C   0  0  1  0  0  0  0  0  0  0  0  0
   36.6660   24.9800   40.2410 C   0  0  0  0  0  0  0  0  0  0  0  0
   36.9030   23.6500   39.5790 C   0  0  0  0  0  0  0  0  0  0  0  0
   37.4360   22.8120   40.5590 O   0  0  0  0  0  0  0  0  0  0  0  0
   38.3550   23.6660   41.1890 C   0  0  0  0  0  0  0  0  0  0  0  0
   36.7700   24.4660   42.3490 H   0  0  0  0  0  0  0  0  0  0  0  0
   37.0760   25.7870   39.6190 H   0  0  0  0  0  0  0  0  0  0  0  0
   35.5760   25.1320   40.4210 H   0  0  0  0  0  0  0  0  0  0  0  0
   37.7010   23.7630   38.7940 H   0  0  0  0  0  0  0  0  0  0  0  0
   36.0340   23.2270   39.0660 H   0  0  0  0  0  0  0  0  0  0  0  0
   39.0490   23.9670   40.3510 H   0  0  0  0  0  0  0  0  0  0  0  0
   38.8540   23.2120   42.0410 H   0  0  0  0  0  0  0  0  0  0  0  0
   36.5620   27.6670   42.9090 C   0  0  0  0  0  0  0  0  0  0  0  0
   36.4630   28.3850   43.7670 H   0  0  0  0  0  0  0  0  0  0  0  0
   35.5900   27.1300   42.8830 H   0  0  0  0  0  0  0  0  0  0  0  0
   36.9230   29.8000   41.7630 C   0  0  0  0  0  3  0  0  0  0  0  0
   36.7430   28.5040   41.7030 C   0  0  0  0  0  3  0  0  0  0  0  0
   37.3130   32.6590   39.5110 C   0  0  0  0  0  0  0  0  0  0  0  0
   37.4280   32.0260   38.2480 C   0  0  0  0  0  0  0  0  0  0  0  0
   37.3660   30.6190   38.2140 C   0  0  0  0  0  0  0  0  0  0  0  0
   37.2010   29.9420   39.3820 N   0  0  0  0  0  0  0  0  0  0  0  0
   37.0960   30.5860   40.5660 C   0  0  0  0  0  0  0  0  0  0  0  0
   37.1490   31.9240   40.6530 N   0  0  0  0  0  0  0  0  0  0  0  0
   37.3490   33.7290   39.6500 H   0  0  0  0  0  0  0  0  0  0  0  0
   37.5550   32.6400   37.3880 H   0  0  0  0  0  0  0  0  0  0  0  0
   37.4820   29.9380   36.9090 C   0  0  0  0  0  2  0  0  0  0  0  0
   37.0750   28.5720   36.8970 N   0  0  0  0  0  4  0  0  0  0  0  0
   37.1550   28.1870   37.8640 H   0  0  0  0  0  0  0  0  0  0  0  0
   35.7110   28.3460   36.4840 C   0  0  0  0  0  2  0  0  0  0  0  0
   35.5690   27.2290   36.5350 H   0  0  0  0  0  0  0  0  0  0  0  0
   37.9140   27.7320   36.0690 C   0  0  0  0  0  2  0  0  0  0  0  0
   38.9610   28.1010   36.0650 H   0  0  0  0  0  0  0  0  0  0  0  0
  1  2  1  0  0  0  0
  1  6  1  1  0  0  0
  2  8  1  0  0  0  0
  3  2  1  0  0  0  0
  3 10  1  0  0  0  0
  4  3  1  0  0  0  0
  5 11  1  6  0  0  0
  5  4  1  0  0  0  0
  5  1  1  0  0  0  0
  7  2  1  0  0  0  0
  9  3  1  0  0  0  0
 12  5  1  0  0  0  0
 12 17  1  1  0  0  0
 13 19  1  0  0  0  0
 13 12  1  0  0  0  0
 14 13  1  0  0  0  0
 14 15  1  0  0  0  0
 15 16  1  0  0  0  0
 16 12  1  0  0  0  0
 16 23  1  0  0  0  0
 18 13  1  0  0  0  0
 20 14  1  0  0  0  0
 21 14  1  0  0  0  0
 22 16  1  0  0  0  0
 24  1  1  0  0  0  0
 24 25  1  0  0  0  0
 26 24  1  0  0  0  0
 28 27  2  0  0  0  0
 28 24  1  0  0  0  0
 29 35  1  0  0  0  0
 29 34  1  0  0  0  0
 30 29  2  0  0  0  0
 31 30  1  0  0  0  0
 31 32  2  0  0  0  0
 32 33  1  0  0  0  0
 33 34  2  0  0  0  0
 33 27  1  0  0  0  0
 36 30  1  0  0  0  0
 37 31  1  0  0  0  0
 38 37  1  0  0  0  0
 38 39  1  0  0  0  0
 40 41  1  0  0  0  0
 40 38  1  0  0  0  0
 42 38  1  0  0  0  0
 43 42  1  0  0  0  0
M  END
>  <minimizedAffinity>
-5.03388882

$$$$

 OpenBabel03242513253D

 43 45  0  0  1  0  0  0  0  0999 V2000
   37.5080   26.7610   43.0060 C   0  0  2  0  0  0  0  0  0  0  0  0
   38.7090   27.3960   43.6620 C   0  0  0  0  0  0  0  0  0  0  0  0
   39.6320   26.1820   43.6130 C   0  0  0  0  0  0  0  0  0  0  0  0
   39.4120   25.6230   42.3880 O   0  0  0  0  0  0  0  0  0  0  0  0
   38.1820   26.0000   41.9160 C   0  0  1  0  0  0  0  0  0  0  0  0
   37.0280   26.1390   43.7720 H   0  0  0  0  0  0  0  0  0  0  0  0
   39.0730   28.1860   42.9830 H   0  0  0  0  0  0  0  0  0  0  0  0
   38.5330   27.7340   44.6920 H   0  0  0  0  0  0  0  0  0  0  0  0
   40.6700   26.5480   43.7250 H   0  0  0  0  0  0  0  0  0  0  0  0
   39.3990   25.5360   44.4790 H   0  0  0  0  0  0  0  0  0  0  0  0
   38.2830   26.6130   41.0050 H   0  0  0  0  0  0  0  0  0  0  0  0
   37.4000   24.7730   41.5470 C   0  0  1  0  0  0  0  0  0  0  0  0
   36.6780   24.9500   40.2150 C   0  0  0  0  0  0  0  0  0  0  0  0
   36.9080   23.6170   39.5570 C   0  0  0  0  0  0  0  0  0  0  0  0
   37.4010   22.7680   40.5490 O   0  0  0  0  0  0  0  0  0  0  0  0
   38.3190   23.6050   41.2030 C   0  0  0  0  0  0  0  0  0  0  0  0
   36.7200   24.4310   42.3250 H   0  0  0  0  0  0  0  0  0  0  0  0
   37.1180   25.7500   39.6060 H   0  0  0  0  0  0  0  0  0  0  0  0
   35.5860   25.1210   40.3690 H   0  0  0  0  0  0  0  0  0  0  0  0
   37.7280   23.7170   38.7930 H   0  0  0  0  0  0  0  0  0  0  0  0
   36.0440   23.2110   39.0220 H   0  0  0  0  0  0  0  0  0  0  0  0
   39.0390   23.8940   40.3840 H   0  0  0  0  0  0  0  0  0  0  0  0
   38.7880   23.1400   42.0670 H   0  0  0  0  0  0  0  0  0  0  0  0
   36.5180   27.7650   42.5310 C   0  0  0  0  0  0  0  0  0  0  0  0
   36.2490   28.4910   43.3440 H   0  0  0  0  0  0  0  0  0  0  0  0
   35.5610   27.2560   42.2860 H   0  0  0  0  0  0  0  0  0  0  0  0
   36.2850   28.7600   40.3070 C   0  0  0  0  0  3  0  0  0  0  0  0
   36.9910   28.5870   41.3970 C   0  0  0  0  0  3  0  0  0  0  0  0
   36.7500   30.1710   36.9610 C   0  0  0  0  0  0  0  0  0  0  0  0
   37.7570   31.1410   37.1880 C   0  0  0  0  0  0  0  0  0  0  0  0
   38.2490   31.2790   38.5010 C   0  0  0  0  0  0  0  0  0  0  0  0
   37.7380   30.4820   39.4780 N   0  0  0  0  0  0  0  0  0  0  0  0
   36.7770   29.5690   39.2190 C   0  0  0  0  0  0  0  0  0  0  0  0
   36.2750   29.3980   37.9860 N   0  0  0  0  0  0  0  0  0  0  0  0
   36.3040   29.9840   35.9960 H   0  0  0  0  0  0  0  0  0  0  0  0
   38.0940   31.7180   36.3600 H   0  0  0  0  0  0  0  0  0  0  0  0
   39.2990   32.2840   38.7610 C   0  0  0  0  0  2  0  0  0  0  0  0
   39.3140   32.8210   40.0810 N   0  0  0  0  0  4  0  0  0  0  0  0
   38.8880   32.1260   40.7340 H   0  0  0  0  0  0  0  0  0  0  0  0
   40.6250   33.1160   40.6050 C   0  0  0  0  0  2  0  0  0  0  0  0
   40.4450   33.5240   41.6400 H   0  0  0  0  0  0  0  0  0  0  0  0
   38.5220   34.0250   40.2190 C   0  0  0  0  0  2  0  0  0  0  0  0
   37.6490   34.0040   39.5320 H   0  0  0  0  0  0  0  0  0  0  0  0
  1  2  1  0  0  0  0
  1  6  1  1  0  0  0
  2  8  1  0  0  0  0
  3  2  1  0  0  0  0
  3  9  1  0  0  0  0
  3 10  1  0  0  0  0
  4  3  1  0  0  0  0
  5 11  1  6  0  0  0
  5  4  1  0  0  0  0
  5  1  1  0  0  0  0
  7  2  1  0  0  0  0
 12  5  1  0  0  0  0
 12 17  1  1  0  0  0
 13 19  1  0  0  0  0
 13 12  1  0  0  0  0
 14 13  1  0  0  0  0
 14 15  1  0  0  0  0
 15 16  1  0  0  0  0
 16 12  1  0  0  0  0
 16 23  1  0  0  0  0
 18 13  1  0  0  0  0
 20 14  1  0  0  0  0
 21 14  1  0  0  0  0
 22 16  1  0  0  0  0
 24  1  1  0  0  0  0
 24 25  1  0  0  0  0
 26 24  1  0  0  0  0
 27 28  2  0  0  0  0
 28 24  1  0  0  0  0
 29 30  2  0  0  0  0
 29 34  1  0  0  0  0
 30 31  1  0  0  0  0
 31 37  1  0  0  0  0
 31 32  2  0  0  0  0
 33 32  1  0  0  0  0
 33 27  1  0  0  0  0
 34 33  2  0  0  0  0
 35 29  1  0  0  0  0
 36 30  1  0  0  0  0
 37 38  1  0  0  0  0
 38 42  1  0  0  0  0
 38 40  1  0  0  0  0
 38 39  1  0  0  0  0
 40 41  1  0  0  0  0
 43 42  1  0  0  0  0
M  END
>  <minimizedAffinity>
-4.99156475

$$$$

 OpenBabel03242513253D

 43 45  0  0  1  0  0  0  0  0999 V2000
   37.2520   27.4550   42.3640 C   0  0  2  0  0  0  0  0  0  0  0  0
   38.0750   28.0700   43.4690 C   0  0  0  0  0  0  0  0  0  0  0  0
   39.0350   26.9030   43.6800 C   0  0  0  0  0  0  0  0  0  0  0  0
   39.3260   26.4580   42.4230 O   0  0  0  0  0  0  0  0  0  0  0  0
   38.3360   26.8310   41.5520 C   0  0  1  0  0  0  0  0  0  0  0  0
   36.5690   26.7430   42.8440 H   0  0  0  0  0  0  0  0  0  0  0  0
   38.6060   28.9350   43.0380 H   0  0  0  0  0  0  0  0  0  0  0  0
   37.5050   28.2990   44.3790 H   0  0  0  0  0  0  0  0  0  0  0  0
   39.9290   27.2970   44.2010 H   0  0  0  0  0  0  0  0  0  0  0  0
   38.5450   26.1670   44.3430 H   0  0  0  0  0  0  0  0  0  0  0  0
   38.7240   27.5330   40.7960 H   0  0  0  0  0  0  0  0  0  0  0  0
   37.8380   25.6160   40.8250 C   0  0  1  0  0  0  0  0  0  0  0  0
   38.9690   24.6340   40.5390 C   0  0  0  0  0  0  0  0  0  0  0  0
   38.3210   23.3130   40.8530 C   0  0  0  0  0  0  0  0  0  0  0  0
   36.9530   23.5640   40.9710 O   0  0  0  0  0  0  0  0  0  0  0  0
   36.9490   24.7540   41.7160 C   0  0  0  0  0  0  0  0  0  0  0  0
   37.2710   25.8410   39.9230 H   0  0  0  0  0  0  0  0  0  0  0  0
   39.8340   24.7920   41.1960 H   0  0  0  0  0  0  0  0  0  0  0  0
   39.2720   24.6690   39.4670 H   0  0  0  0  0  0  0  0  0  0  0  0
   38.6640   22.9630   41.8660 H   0  0  0  0  0  0  0  0  0  0  0  0
   38.5600   22.5040   40.1570 H   0  0  0  0  0  0  0  0  0  0  0  0
   37.4920   24.4710   42.6630 H   0  0  0  0  0  0  0  0  0  0  0  0
   35.9530   25.1610   41.8760 H   0  0  0  0  0  0  0  0  0  0  0  0
   36.4390   28.4610   41.6290 C   0  0  0  0  0  0  0  0  0  0  0  0
   35.4780   28.6810   42.1640 H   0  0  0  0  0  0  0  0  0  0  0  0
   36.1220   28.0400   40.6510 H   0  0  0  0  0  0  0  0  0  0  0  0
   37.4450   30.2390   40.2790 C   0  0  0  0  0  3  0  0  0  0  0  0
   37.1110   29.7670   41.4550 C   0  0  0  0  0  3  0  0  0  0  0  0
   38.0030   33.8510   40.0690 C   0  0  0  0  0  0  0  0  0  0  0  0
   39.4060   33.9220   39.8850 C   0  0  0  0  0  0  0  0  0  0  0  0
   40.1220   32.7090   39.8390 C   0  0  0  0  0  0  0  0  0  0  0  0
   39.4390   31.5400   39.9720 N   0  0  0  0  0  0  0  0  0  0  0  0
   38.0990   31.5170   40.1460 C   0  0  0  0  0  0  0  0  0  0  0  0
   37.3710   32.6430   40.1970 N   0  0  0  0  0  0  0  0  0  0  0  0
   37.3600   34.7170   40.1200 H   0  0  0  0  0  0  0  0  0  0  0  0
   39.8520   34.8830   39.7920 H   0  0  0  0  0  0  0  0  0  0  0  0
   41.5860   32.7590   39.6490 C   0  0  0  0  0  2  0  0  0  0  0  0
   42.0850   31.9830   38.5630 N   0  0  0  0  0  4  0  0  0  0  0  0
   41.5540   31.0840   38.5180 H   0  0  0  0  0  0  0  0  0  0  0  0
   41.9540   32.5950   37.2640 C   0  0  0  0  0  2  0  0  0  0  0  0
   42.3930   31.8500   36.5410 H   0  0  0  0  0  0  0  0  0  0  0  0
   43.4750   31.6090   38.7180 C   0  0  0  0  0  2  0  0  0  0  0  0
   43.7310   31.4740   39.7900 H   0  0  0  0  0  0  0  0  0  0  0  0
  1  6  1  1  0  0  0
  1  2  1  0  0  0  0
  2  3  1  0  0  0  0
  2  8  1  0  0  0  0
  3  9  1  0  0  0  0
  3 10  1  0  0  0  0
  4  3  1  0  0  0  0
  5 11  1  6  0  0  0
  5  1  1  0  0  0  0
  5  4  1  0  0  0  0
  7  2  1  0  0  0  0
 12 17  1  6  0  0  0
 12  5  1  0  0  0  0
 12 16  1  0  0  0  0
 13 12  1  0  0  0  0
 13 14  1  0  0  0  0
 13 18  1  0  0  0  0
 14 15  1  0  0  0  0
 14 20  1  0  0  0  0
 15 16  1  0  0  0  0
 16 23  1  0  0  0  0
 16 22  1  0  0  0  0
 19 13  1  0  0  0  0
 21 14  1  0  0  0  0
 24 25  1  0  0  0  0
 24  1  1  0  0  0  0
 26 24  1  0  0  0  0
 27 28  2  0  0  0  0
 28 24  1  0  0  0  0
 29 35  1  0  0  0  0
 29 34  1  0  0  0  0
 30 29  2  0  0  0  0
 31 30  1  0  0  0  0
 31 32  2  0  0  0  0
 32 33  1  0  0  0  0
 33 34  2  0  0  0  0
 33 27  1  0  0  0  0
 36 30  1  0  0  0  0
 37 31  1  0  0  0  0
 38 42  1  0  0  0  0
 38 37  1  0  0  0  0
 39 38  1  0  0  0  0
 40 38  1  0  0  0  0
 41 40  1  0  0  0  0
 42 43  1  0  0  0  0
M  END
>  <minimizedAffinity>
-4.83226347

$$$$

 OpenBabel03242513253D

 43 45  0  0  1  0  0  0  0  0999 V2000
   37.1180   28.7540   40.6370 C   0  0  2  0  0  0  0  0  0  0  0  0
   37.7450   27.6190   41.4080 C   0  0  0  0  0  0  0  0  0  0  0  0
   39.2040   27.9970   41.1740 C   0  0  0  0  0  0  0  0  0  0  0  0
   39.2390   29.3550   41.3000 O   0  0  0  0  0  0  0  0  0  0  0  0
   37.9920   29.8780   41.0770 C   0  0  1  0  0  0  0  0  0  0  0  0
   37.2040   28.4940   39.5740 H   0  0  0  0  0  0  0  0  0  0  0  0
   37.4750   27.7560   42.4690 H   0  0  0  0  0  0  0  0  0  0  0  0
   37.5120   26.6220   41.0090 H   0  0  0  0  0  0  0  0  0  0  0  0
   39.8080   27.4890   41.9500 H   0  0  0  0  0  0  0  0  0  0  0  0
   39.5090   27.6030   40.1880 H   0  0  0  0  0  0  0  0  0  0  0  0
   37.6000   30.3570   41.9900 H   0  0  0  0  0  0  0  0  0  0  0  0
   38.0870   30.9390   40.0190 C   0  0  1  0  0  0  0  0  0  0  0  0
   37.2410   32.1570   40.3720 C   0  0  0  0  0  0  0  0  0  0  0  0
   38.1510   33.2910   39.9840 C   0  0  0  0  0  0  0  0  0  0  0  0
   39.1860   32.7260   39.2360 O   0  0  0  0  0  0  0  0  0  0  0  0
   39.4740   31.5730   39.9830 C   0  0  0  0  0  0  0  0  0  0  0  0
   37.8690   30.5820   39.0140 H   0  0  0  0  0  0  0  0  0  0  0  0
   37.0140   32.2100   41.4450 H   0  0  0  0  0  0  0  0  0  0  0  0
   36.3060   32.1880   39.7650 H   0  0  0  0  0  0  0  0  0  0  0  0
   38.6290   33.7170   40.9090 H   0  0  0  0  0  0  0  0  0  0  0  0
   37.6580   34.1290   39.4840 H   0  0  0  0  0  0  0  0  0  0  0  0
   39.7500   31.9800   40.9980 H   0  0  0  0  0  0  0  0  0  0  0  0
   40.2380   30.9440   39.5310 H   0  0  0  0  0  0  0  0  0  0  0  0
   35.6770   28.9370   40.9590 C   0  0  0  0  0  0  0  0  0  0  0  0
   35.5110   29.8480   41.5930 H   0  0  0  0  0  0  0  0  0  0  0  0
   35.3270   28.0920   41.5890 H   0  0  0  0  0  0  0  0  0  0  0  0
   35.2200   28.8420   38.5550 C   0  0  0  0  0  3  0  0  0  0  0  0
   34.8120   29.1110   39.7710 C   0  0  0  0  0  3  0  0  0  0  0  0
   34.0290   29.1690   35.1090 C   0  0  0  0  0  0  0  0  0  0  0  0
   32.6390   29.3730   35.2960 C   0  0  0  0  0  0  0  0  0  0  0  0
   32.1530   29.3920   36.6190 C   0  0  0  0  0  0  0  0  0  0  0  0
   33.0310   29.2150   37.6420 N   0  0  0  0  0  0  0  0  0  0  0  0
   34.3500   29.0230   37.4200 C   0  0  0  0  0  0  0  0  0  0  0  0
   34.8640   28.9960   36.1800 N   0  0  0  0  0  0  0  0  0  0  0  0
   34.5050   29.1360   34.1410 H   0  0  0  0  0  0  0  0  0  0  0  0
   32.0300   29.5020   34.4330 H   0  0  0  0  0  0  0  0  0  0  0  0
   30.7080   29.6030   36.8370 C   0  0  0  0  0  2  0  0  0  0  0  0
   30.3770   30.4860   37.9060 N   0  0  0  0  0  4  0  0  0  0  0  0
   31.2230   30.6290   38.5010 H   0  0  0  0  0  0  0  0  0  0  0  0
   29.9420   31.8000   37.5010 C   0  0  0  0  0  2  0  0  0  0  0  0
   29.7270   32.3490   38.4610 H   0  0  0  0  0  0  0  0  0  0  0  0
   29.3600   29.9570   38.7910 C   0  0  0  0  0  2  0  0  0  0  0  0
   29.4290   28.8500   38.8550 H   0  0  0  0  0  0  0  0  0  0  0  0
  1  6  1  6  0  0  0
  1 24  1  0  0  0  0
  1  5  1  0  0  0  0
  1  2  1  0  0  0  0
  2  7  1  0  0  0  0
  3  4  1  0  0  0  0
  3  2  1  0  0  0  0
  3  9  1  0  0  0  0
  5  4  1  0  0  0  0
  5 11  1  1  0  0  0
  8  2  1  0  0  0  0
 10  3  1  0  0  0  0
 12 17  1  6  0  0  0
 12 13  1  0  0  0  0
 12  5  1  0  0  0  0
 13 18  1  0  0  0  0
 14 13  1  0  0  0  0
 14 20  1  0  0  0  0
 15 16  1  0  0  0  0
 15 14  1  0  0  0  0
 16 12  1  0  0  0  0
 16 22  1  0  0  0  0
 19 13  1  0  0  0  0
 21 14  1  0  0  0  0
 23 16  1  0  0  0  0
 24 26  1  0  0  0  0
 24 25  1  0  0  0  0
 27 28  2  0  0  0  0
 28 24  1  0  0  0  0
 29 30  2  0  0  0  0
 29 34  1  0  0  0  0
 30 31  1  0  0  0  0
 31 37  1  0  0  0  0
 31 32  2  0  0  0  0
 33 32  1  0  0  0  0
 33 27  1  0  0  0  0
 34 33  2  0  0  0  0
 35 29  1  0  0  0  0
 36 30  1  0  0  0  0
 37 38  1  0  0  0  0
 38 39  1  0  0  0  0
 38 42  1  0  0  0  0
 40 38  1  0  0  0  0
 40 41  1  0  0  0  0
 42 43  1  0  0  0  0
M  END
>  <minimizedAffinity>
-4.73675728

$$$$

 OpenBabel03242513253D

 43 45  0  0  1  0  0  0  0  0999 V2000
   37.4890   27.0470   41.3790 C   0  0  2  0  0  0  0  0  0  0  0  0
   36.7110   26.3590   40.2850 C   0  0  0  0  0  0  0  0  0  0  0  0
   37.5930   25.1210   40.1570 C   0  0  0  0  0  0  0  0  0  0  0  0
   37.9140   24.7850   41.4400 O   0  0  0  0  0  0  0  0  0  0  0  0
   37.7890   25.8790   42.2560 C   0  0  1  0  0  0  0  0  0  0  0  0
   38.3670   27.5000   40.9000 H   0  0  0  0  0  0  0  0  0  0  0  0
   35.7260   26.0910   40.7030 H   0  0  0  0  0  0  0  0  0  0  0  0
   36.6620   26.9250   39.3450 H   0  0  0  0  0  0  0  0  0  0  0  0
   36.9950   24.3360   39.6570 H   0  0  0  0  0  0  0  0  0  0  0  0
   38.4480   25.3720   39.5030 H   0  0  0  0  0  0  0  0  0  0  0  0
   36.9900   25.7230   43.0000 H   0  0  0  0  0  0  0  0  0  0  0  0
   39.0720   26.0800   43.0080 C   0  0  1  0  0  0  0  0  0  0  0  0
   39.8110   24.7620   43.2140 C   0  0  0  0  0  0  0  0  0  0  0  0
   41.2350   25.1580   42.9370 C   0  0  0  0  0  0  0  0  0  0  0  0
   41.2580   26.5540   42.9110 O   0  0  0  0  0  0  0  0  0  0  0  0
   40.0980   26.8400   42.1740 C   0  0  0  0  0  0  0  0  0  0  0  0
   38.9550   26.6200   43.9470 H   0  0  0  0  0  0  0  0  0  0  0  0
   39.4910   23.9900   42.5020 H   0  0  0  0  0  0  0  0  0  0  0  0
   39.7080   24.4030   44.2650 H   0  0  0  0  0  0  0  0  0  0  0  0
   41.5200   24.8210   41.9020 H   0  0  0  0  0  0  0  0  0  0  0  0
   41.9760   24.7200   43.6120 H   0  0  0  0  0  0  0  0  0  0  0  0
   40.2770   26.3150   41.1920 H   0  0  0  0  0  0  0  0  0  0  0  0
   39.8960   27.9040   42.0820 H   0  0  0  0  0  0  0  0  0  0  0  0
   36.7100   28.1270   42.0430 C   0  0  0  0  0  0  0  0  0  0  0  0
   36.6900   27.9930   43.1570 H   0  0  0  0  0  0  0  0  0  0  0  0
   35.6450   28.0590   41.7350 H   0  0  0  0  0  0  0  0  0  0  0  0
   37.4020   29.9890   40.6110 C   0  0  0  0  0  3  0  0  0  0  0  0
   37.2460   29.4860   41.8110 C   0  0  0  0  0  3  0  0  0  0  0  0
   37.6230   33.5580   39.8290 C   0  0  0  0  0  0  0  0  0  0  0  0
   38.9910   33.8300   40.0780 C   0  0  0  0  0  0  0  0  0  0  0  0
   39.8020   32.7630   40.5130 C   0  0  0  0  0  0  0  0  0  0  0  0
   39.2380   31.5350   40.6710 N   0  0  0  0  0  0  0  0  0  0  0  0
   37.9280   31.3180   40.4220 C   0  0  0  0  0  0  0  0  0  0  0  0
   37.1130   32.3000   40.0060 N   0  0  0  0  0  0  0  0  0  0  0  0
   36.9150   34.3010   39.4940 H   0  0  0  0  0  0  0  0  0  0  0  0
   39.3410   34.8230   39.9280 H   0  0  0  0  0  0  0  0  0  0  0  0
   41.2300   33.0230   40.7800 C   0  0  0  0  0  2  0  0  0  0  0  0
   41.9940   33.4390   39.6500 N   0  0  0  0  0  4  0  0  0  0  0  0
   41.4590   34.1700   39.1310 H   0  0  0  0  0  0  0  0  0  0  0  0
   43.2760   34.0220   39.9610 C   0  0  0  0  0  2  0  0  0  0  0  0
   43.7290   34.2870   38.9640 H   0  0  0  0  0  0  0  0  0  0  0  0
   42.2310   32.3750   38.6970 C   0  0  0  0  0  2  0  0  0  0  0  0
   41.3830   31.6590   38.6840 H   0  0  0  0  0  0  0  0  0  0  0  0
  1  6  1  6  0  0  0
  1 24  1  0  0  0  0
  1  5  1  0  0  0  0
  2  7  1  0  0  0  0
  2  1  1  0  0  0  0
  3  2  1  0  0  0  0
  3  4  1  0  0  0  0
  4  5  1  0  0  0  0
  5 11  1  1  0  0  0
  5 12  1  0  0  0  0
  8  2  1  0  0  0  0
  9  3  1  0  0  0  0
 10  3  1  0  0  0  0
 12 13  1  0  0  0  0
 12 17  1  1  0  0  0
 13 19  1  0  0  0  0
 14 13  1  0  0  0  0
 14 21  1  0  0  0  0
 15 14  1  0  0  0  0
 16 15  1  0  0  0  0
 16 12  1  0  0  0  0
 18 13  1  0  0  0  0
 20 14  1  0  0  0  0
 22 16  1  0  0  0  0
 23 16  1  0  0  0  0
 24 25  1  0  0  0  0
 26 24  1  0  0  0  0
 27 28  2  0  0  0  0
 28 24  1  0  0  0  0
 29 34  2  0  0  0  0
 29 30  1  0  0  0  0
 30 31  2  0  0  0  0
 31 32  1  0  0  0  0
 31 37  1  0  0  0  0
 33 27  1  0  0  0  0
 33 32  2  0  0  0  0
 34 33  1  0  0  0  0
 35 29  1  0  0  0  0
 36 30  1  0  0  0  0
 38 40  1  0  0  0  0
 38 37  1  0  0  0  0
 39 38  1  0  0  0  0
 41 40  1  0  0  0  0
 42 38  1  0  0  0  0
 43 42  1  0  0  0  0
M  END
>  <minimizedAffinity>
-4.73393345

$$$$

 OpenBabel03242513253D

 43 45  0  0  1  0  0  0  0  0999 V2000
   33.6130   28.3070   37.3640 C   0  0  2  0  0  0  0  0  0  0  0  0
   34.0970   26.9730   36.8540 C   0  0  0  0  0  0  0  0  0  0  0  0
   32.7880   26.5090   36.2230 C   0  0  0  0  0  0  0  0  0  0  0  0
   32.2770   27.6210   35.6190 O   0  0  0  0  0  0  0  0  0  0  0  0
   32.7990   28.7490   36.1960 C   0  0  1  0  0  0  0  0  0  0  0  0
   33.0370   28.1020   38.2750 H   0  0  0  0  0  0  0  0  0  0  0  0
   34.8520   27.1750   36.0750 H   0  0  0  0  0  0  0  0  0  0  0  0
   34.4370   26.2870   37.6420 H   0  0  0  0  0  0  0  0  0  0  0  0
   33.0330   25.7120   35.4950 H   0  0  0  0  0  0  0  0  0  0  0  0
   32.1590   26.0680   37.0170 H   0  0  0  0  0  0  0  0  0  0  0  0
   33.4110   29.3120   35.4720 H   0  0  0  0  0  0  0  0  0  0  0  0
   31.6730   29.6440   36.6270 C   0  0  1  0  0  0  0  0  0  0  0  0
   31.4320   30.7620   35.6170 C   0  0  0  0  0  0  0  0  0  0  0  0
   29.9290   30.8030   35.5520 C   0  0  0  0  0  0  0  0  0  0  0  0
   29.4680   30.0340   36.6220 O   0  0  0  0  0  0  0  0  0  0  0  0
   30.3290   28.9260   36.5630 C   0  0  0  0  0  0  0  0  0  0  0  0
   31.7820   30.0380   37.6360 H   0  0  0  0  0  0  0  0  0  0  0  0
   31.8440   30.5250   34.6270 H   0  0  0  0  0  0  0  0  0  0  0  0
   31.8280   31.7350   35.9910 H   0  0  0  0  0  0  0  0  0  0  0  0
   29.5840   30.2800   34.6180 H   0  0  0  0  0  0  0  0  0  0  0  0
   29.4950   31.8060   35.5150 H   0  0  0  0  0  0  0  0  0  0  0  0
   30.1500   28.5110   35.5300 H   0  0  0  0  0  0  0  0  0  0  0  0
   30.1700   28.2110   37.3670 H   0  0  0  0  0  0  0  0  0  0  0  0
   34.7300   29.2250   37.7150 C   0  0  0  0  0  0  0  0  0  0  0  0
   34.3480   30.2280   38.0460 H   0  0  0  0  0  0  0  0  0  0  0  0
   35.3300   29.4430   36.8060 H   0  0  0  0  0  0  0  0  0  0  0  0
   35.5260   29.2280   40.0300 C   0  0  0  0  0  3  0  0  0  0  0  0
   35.5870   28.7370   38.8160 C   0  0  0  0  0  3  0  0  0  0  0  0
   37.7470   29.1030   42.9370 C   0  0  0  0  0  0  0  0  0  0  0  0
   37.9900   27.7120   43.0620 C   0  0  0  0  0  0  0  0  0  0  0  0
   37.3740   26.8540   42.1300 C   0  0  0  0  0  0  0  0  0  0  0  0
   36.5830   27.3950   41.1650 N   0  0  0  0  0  0  0  0  0  0  0  0
   36.3770   28.7280   41.0810 C   0  0  0  0  0  0  0  0  0  0  0  0
   36.9400   29.5890   41.9430 N   0  0  0  0  0  0  0  0  0  0  0  0
   38.1670   29.8470   43.5970 H   0  0  0  0  0  0  0  0  0  0  0  0
   38.6230   27.3820   43.8510 H   0  0  0  0  0  0  0  0  0  0  0  0
   37.6130   25.4010   42.2410 C   0  0  0  0  0  2  0  0  0  0  0  0
   38.9400   24.9780   41.9370 N   0  0  0  0  0  4  0  0  0  0  0  0
   39.5010   25.8090   41.6440 H   0  0  0  0  0  0  0  0  0  0  0  0
   39.6550   24.3740   43.0340 C   0  0  0  0  0  2  0  0  0  0  0  0
   40.6670   24.1070   42.6160 H   0  0  0  0  0  0  0  0  0  0  0  0
   39.0040   24.0510   40.8270 C   0  0  0  0  0  2  0  0  0  0  0  0
   38.2000   24.2600   40.0900 H   0  0  0  0  0  0  0  0  0  0  0  0
  1 24  1  0  0  0  0
  1  6  1  1  0  0  0
  2  1  1  0  0  0  0
  2  8  1  0  0  0  0
  3  2  1  0  0  0  0
  3 10  1  0  0  0  0
  4  5  1  0  0  0  0
  4  3  1  0  0  0  0
  5 11  1  6  0  0  0
  5 12  1  0  0  0  0
  5  1  1  0  0  0  0
  7  2  1  0  0  0  0
  9  3  1  0  0  0  0
 12 17  1  1  0  0  0
 13 19  1  0  0  0  0
 13 12  1  0  0  0  0
 14 13  1  0  0  0  0
 14 15  1  0  0  0  0
 16 15  1  0  0  0  0
 16 12  1  0  0  0  0
 16 23  1  0  0  0  0
 18 13  1  0  0  0  0
 20 14  1  0  0  0  0
 21 14  1  0  0  0  0
 22 16  1  0  0  0  0
 24 25  1  0  0  0  0
 24 28  1  0  0  0  0
 26 24  1  0  0  0  0
 27 33  1  0  0  0  0
 28 27  2  0  0  0  0
 29 30  1  0  0  0  0
 29 35  1  0  0  0  0
 30 36  1  0  0  0  0
 31 37  1  0  0  0  0
 31 30  2  0  0  0  0
 32 31  1  0  0  0  0
 33 32  2  0  0  0  0
 33 34  1  0  0  0  0
 34 29  2  0  0  0  0
 38 37  1  0  0  0  0
 38 40  1  0  0  0  0
 39 38  1  0  0  0  0
 41 40  1  0  0  0  0
 42 38  1  0  0  0  0
 43 42  1  0  0  0  0
M  END
>  <minimizedAffinity>
-4.64361858

$$$$
