
 OpenBabel03252507073D

 22 22  0  0  0  0  0  0  0  0999 V2000
   44.6460   35.6880   44.8480 C   0  0  0  0  0  0  0  0  0  0  0  0
   45.2310   35.8860   43.5860 C   0  0  0  0  0  0  0  0  0  0  0  0
   46.1390   34.9170   43.1600 C   0  0  0  0  0  0  0  0  0  0  0  0
   46.4140   33.8560   43.9520 N   0  0  0  0  0  0  0  0  0  0  0  0
   45.8300   33.6970   45.1650 C   0  0  0  0  0  0  0  0  0  0  0  0
   44.9420   34.6230   45.6080 N   0  0  0  0  0  0  0  0  0  0  0  0
   43.9430   36.4570   45.1540 H   0  0  0  0  0  0  0  0  0  0  0  0
   44.9870   36.7440   42.9830 H   0  0  0  0  0  0  0  0  0  0  0  0
   46.7210   35.1150   41.9040 O   0  0  0  0  0  0  0  0  0  0  0  0
   48.4620   33.3300   41.0280 O   0  0  0  0  0  0  0  0  0  0  0  0
   48.3660   34.7110   41.6760 P   0  0  0  0  0  0  0  0  0  0  0  0
   49.1010   35.8830   40.7500 O   0  0  0  0  0  0  0  0  0  0  0  0
   49.9510   36.1460   41.1870 H   0  0  0  0  0  0  0  0  0  0  0  0
   49.0830   34.5970   43.2090 O   0  0  0  0  0  0  0  0  0  0  0  0
   49.0700   33.6720   43.5570 H   0  0  0  0  0  0  0  0  0  0  0  0
   46.1820   32.5210   45.9610 C   0  0  0  0  0  2  0  0  0  0  0  0
   46.1970   32.8410   47.3660 N   0  0  0  0  0  4  0  0  0  0  0  0
   46.1080   33.8890   47.4200 H   0  0  0  0  0  0  0  0  0  0  0  0
   47.4940   32.5370   47.9500 C   0  0  0  0  0  2  0  0  0  0  0  0
   47.4950   31.5530   48.4610 H   0  0  0  0  0  0  0  0  0  0  0  0
   45.1150   32.2960   48.1230 C   0  0  0  0  0  2  0  0  0  0  0  0
   45.4760   31.7760   49.0550 H   0  0  0  0  0  0  0  0  0  0  0  0
  1  7  1  0  0  0  0
  1  6  1  0  0  0  0
  2  1  2  0  0  0  0
  3  2  1  0  0  0  0
  3  4  2  0  0  0  0
  4  5  1  0  0  0  0
  5  6  2  0  0  0  0
  5 16  1  0  0  0  0
  8  2  1  0  0  0  0
  9  3  1  0  0  0  0
 10 11  2  0  0  0  0
 11  9  1  0  0  0  0
 11 14  1  0  0  0  0
 12 13  1  0  0  0  0
 12 11  1  0  0  0  0
 14 15  1  0  0  0  0
 16 17  1  0  0  0  0
 17 18  1  0  0  0  0
 17 19  1  0  0  0  0
 17 21  1  0  0  0  0
 19 20  1  0  0  0  0
 21 22  1  0  0  0  0
M  END
>  <minimizedAffinity>
-5.00558376

>  <minimizedRMSD>
0.938912511

$$$$
