
 OpenBabel03242523203D

 35 37  0  0  0  0  0  0  0  0999 V2000
   46.3450   33.5260   44.6770 C   0  0  0  0  0  0  0  0  0  0  0  0
   45.7850   33.9040   45.6770 O   0  0  0  0  0  0  0  0  0  0  0  0
   44.4640   31.7640   42.9870 Cl  0  0  0  0  0  0  0  0  0  0  0  0
   44.5320   33.5220   42.8290 C   0  0  0  0  0  0  0  0  0  0  0  0
   45.4510   34.1710   43.6820 C   0  0  0  0  0  0  0  0  0  0  0  0
   45.4270   35.5380   43.4600 C   0  0  0  0  0  0  0  0  0  0  0  0
   44.6980   36.2630   42.6000 C   0  0  0  0  0  0  0  0  0  0  0  0
   43.8350   35.5590   41.8150 C   0  0  0  0  0  0  0  0  0  0  0  0
   43.7350   34.2130   41.9100 C   0  0  0  0  0  0  0  0  0  0  0  0
   46.0690   36.2040   44.0770 H   0  0  0  0  0  0  0  0  0  0  0  0
   44.7260   37.3340   42.4710 H   0  0  0  0  0  0  0  0  0  0  0  0
   43.1790   36.0080   41.0730 H   0  0  0  0  0  0  0  0  0  0  0  0
   42.7750   33.4250   41.0760 C   0  0  0  0  0  0  0  0  0  0  0  0
   41.5170   33.2210   41.7230 N   0  0  0  0  0  0  0  0  0  0  0  0
   41.6660   33.5160   42.7390 H   0  0  0  0  0  0  0  0  0  0  0  0
   41.0010   31.8910   41.7180 C   0  0  0  0  0  0  0  0  0  0  0  0
   40.1100   31.8070   41.0280 H   0  0  0  0  0  0  0  0  0  0  0  0
   40.5120   34.1280   41.2080 C   0  0  0  0  0  0  0  0  0  0  0  0
   40.3780   35.0220   41.8710 H   0  0  0  0  0  0  0  0  0  0  0  0
   47.3970   32.7940   43.9620 C   0  0  0  0  0  0  0  0  0  0  0  0
   48.2660   33.3130   43.0810 C   0  0  0  0  0  0  0  0  0  0  0  0
   49.0930   32.3880   42.4770 C   0  0  0  0  0  0  0  0  0  0  0  0
   48.9600   31.0310   42.8290 N   0  0  0  0  0  0  0  0  0  0  0  0
   48.0840   30.6020   43.7060 C   0  0  0  0  0  0  0  0  0  0  0  0
   47.2390   31.4970   44.3280 N   0  0  0  0  0  0  0  0  0  0  0  0
   49.8460   32.6390   41.7410 H   0  0  0  0  0  0  0  0  0  0  0  0
   48.1010   29.5290   43.8760 H   0  0  0  0  0  0  0  0  0  0  0  0
   48.4780   34.6920   42.8120 C   0  0  0  0  0  0  0  0  0  0  0  0
   49.5260   35.2860   42.1840 C   0  0  0  0  0  0  0  0  0  0  0  0
   48.3120   35.1570   41.3040 C   0  0  0  0  0  0  0  0  0  0  0  0
   48.0070   35.3630   43.5540 H   0  0  0  0  0  0  0  0  0  0  0  0
   50.3860   34.6740   41.8150 H   0  0  0  0  0  0  0  0  0  0  0  0
   49.8790   36.3490   42.2560 H   0  0  0  0  0  0  0  0  0  0  0  0
   48.2520   34.3260   40.5890 H   0  0  0  0  0  0  0  0  0  0  0  0
   47.6520   36.0290   41.1930 H   0  0  0  0  0  0  0  0  0  0  0  0
  1  2  2  0  0  0  0
  4  3  1  0  0  0  0
  4  5  1  0  0  0  0
  5  1  1  0  0  0  0
  6  5  2  0  0  0  0
  6 10  1  0  0  0  0
  7  6  1  0  0  0  0
  8  9  1  0  0  0  0
  8  7  2  0  0  0  0
  9  4  2  0  0  0  0
 11  7  1  0  0  0  0
 12  8  1  0  0  0  0
 13 14  1  0  0  0  0
 13  9  1  0  0  0  0
 14 15  1  0  0  0  0
 16 14  1  0  0  0  0
 17 16  1  0  0  0  0
 18 14  1  0  0  0  0
 18 19  1  0  0  0  0
 20 25  1  0  0  0  0
 20  1  1  0  0  0  0
 21 20  2  0  0  0  0
 22 23  2  0  0  0  0
 22 21  1  0  0  0  0
 23 24  1  0  0  0  0
 24 27  1  0  0  0  0
 24 25  2  0  0  0  0
 26 22  1  0  0  0  0
 28 21  1  0  0  0  0
 28 31  1  0  0  0  0
 29 33  1  0  0  0  0
 29 28  1  0  0  0  0
 30 29  1  0  0  0  0
 30 28  1  0  0  0  0
 32 29  1  0  0  0  0
 34 30  1  0  0  0  0
 35 30  1  0  0  0  0
M  END
>  <minimizedAffinity>
-5.34983206

>  <minimizedRMSD>
0.774699271

$$$$
