
 OpenBabel03252501063D

 38 40  0  0  1  0  0  0  0  0999 V2000
   48.5160   32.3720   38.1050 O   0  0  0  0  0  0  0  0  0  0  0  0
   48.0670   33.8240   38.2630 P   0  0  2  0  0  0  0  0  0  0  0  0
   49.3110   34.7520   37.5790 O   0  0  0  0  0  0  0  0  0  0  0  0
   48.9910   35.6930   37.5680 H   0  0  0  0  0  0  0  0  0  0  0  0
   47.7060   34.1970   39.8140 O   0  0  0  0  0  0  0  0  0  0  0  0
   48.1380   35.4600   41.8330 C   0  0  1  0  0  0  0  0  0  0  0  0
   49.3330   34.6230   41.6660 C   0  0  0  0  0  0  0  0  0  0  0  0
   48.4850   35.0830   40.4660 C   0  0  1  0  0  0  0  0  0  0  0  0
   48.2630   36.4990   42.1730 H   0  0  0  0  0  0  0  0  0  0  0  0
   49.3190   33.5100   41.8180 H   0  0  0  0  0  0  0  0  0  0  0  0
   50.3560   35.0300   41.7600 H   0  0  0  0  0  0  0  0  0  0  0  0
   49.0510   35.7850   39.8250 H   0  0  0  0  0  0  0  0  0  0  0  0
   46.0410   32.9740   43.7770 C   0  0  0  0  0  0  0  0  0  0  0  0
   47.1500   33.6190   43.2390 C   0  0  0  0  0  0  0  0  0  0  0  0
   46.9540   34.7580   42.4350 C   0  0  0  0  0  0  0  0  0  0  0  0
   45.6880   35.1910   42.2090 N   0  0  0  0  0  0  0  0  0  0  0  0
   44.6220   34.5470   42.7420 C   0  0  0  0  0  0  0  0  0  0  0  0
   44.7950   33.4440   43.5230 N   0  0  0  0  0  0  0  0  0  0  0  0
   46.2010   32.1000   44.3930 H   0  0  0  0  0  0  0  0  0  0  0  0
   48.1260   33.2360   43.4490 H   0  0  0  0  0  0  0  0  0  0  0  0
   43.6460   34.9690   42.5060 H   0  0  0  0  0  0  0  0  0  0  0  0
   46.7220   33.9760   37.2710 O   0  0  0  0  0  0  0  0  0  0  0  0
   45.7490   32.9980   37.1330 C   0  0  0  0  0  0  0  0  0  0  0  0
   45.7410   31.9150   36.2730 C   0  0  0  0  0  0  0  0  0  0  0  0
   44.6990   31.0420   36.2620 C   0  0  0  0  0  0  0  0  0  0  0  0
   43.6200   31.2030   37.1040 C   0  0  0  0  0  0  0  0  0  0  0  0
   43.6630   32.3100   37.9590 C   0  0  0  0  0  0  0  0  0  0  0  0
   44.7140   33.1790   37.9600 N   0  0  0  0  0  0  0  0  0  0  0  0
   46.6180   31.8490   35.6400 H   0  0  0  0  0  0  0  0  0  0  0  0
   44.7570   30.2170   35.5640 H   0  0  0  0  0  0  0  0  0  0  0  0
   42.8010   30.5240   37.1010 H   0  0  0  0  0  0  0  0  0  0  0  0
   42.5020   32.4880   38.8690 C   0  0  0  0  0  2  0  0  0  0  0  0
   42.8370   32.6820   40.2440 N   0  0  0  0  0  4  0  0  0  0  0  0
   43.5500   33.4290   40.4050 H   0  0  0  0  0  0  0  0  0  0  0  0
   41.6420   33.1550   40.9280 C   0  0  0  0  0  2  0  0  0  0  0  0
   40.7300   32.9250   40.3150 H   0  0  0  0  0  0  0  0  0  0  0  0
   43.2020   31.4340   40.8910 C   0  0  0  0  0  2  0  0  0  0  0  0
   42.2460   30.8860   41.1190 H   0  0  0  0  0  0  0  0  0  0  0  0
  2  1  2  6  0  0  0
  2  5  1  0  0  0  0
  3  2  1  0  0  0  0
  4  3  1  0  0  0  0
  5  8  1  0  0  0  0
  6  9  1  1  0  0  0
  6 15  1  0  0  0  0
  7 11  1  0  0  0  0
  7 10  1  0  0  0  0
  7  6  1  0  0  0  0
  8 12  1  6  0  0  0
  8  7  1  0  0  0  0
  8  6  1  0  0  0  0
 13 19  1  0  0  0  0
 14 20  1  0  0  0  0
 14 13  2  0  0  0  0
 15 14  1  0  0  0  0
 16 15  2  0  0  0  0
 16 17  1  0  0  0  0
 17 18  2  0  0  0  0
 18 13  1  0  0  0  0
 21 17  1  0  0  0  0
 22  2  1  0  0  0  0
 23 22  1  0  0  0  0
 23 28  1  0  0  0  0
 24 23  2  0  0  0  0
 25 24  1  0  0  0  0
 25 26  2  0  0  0  0
 26 27  1  0  0  0  0
 27 28  2  0  0  0  0
 27 32  1  0  0  0  0
 29 24  1  0  0  0  0
 30 25  1  0  0  0  0
 31 26  1  0  0  0  0
 32 33  1  0  0  0  0
 33 34  1  0  0  0  0
 33 37  1  0  0  0  0
 33 35  1  0  0  0  0
 36 35  1  0  0  0  0
 37 38  1  0  0  0  0
M  END
>  <minimizedAffinity>
-4.38089418

>  <minimizedRMSD>
0.626308143

$$$$
