
 OpenBabel03252501283D

 40 43  0  0  0  0  0  0  0  0999 V2000
   48.3380   31.8570   40.7240 C   0  0  0  0  0  0  0  0  0  0  0  0
   48.9570   32.9500   40.1140 C   0  0  0  0  0  0  0  0  0  0  0  0
   48.1720   34.0470   40.3040 C   0  0  0  0  0  0  0  0  0  0  0  0
   47.1000   33.6410   41.0090 N   0  0  0  0  0  0  0  0  0  0  0  0
   47.2240   32.3420   41.2430 N   0  0  0  0  0  0  0  0  0  0  0  0
   49.9080   32.9460   39.5740 H   0  0  0  0  0  0  0  0  0  0  0  0
   48.3800   35.0460   39.9510 H   0  0  0  0  0  0  0  0  0  0  0  0
   44.5790   33.7020   39.7490 F   0  0  0  0  0  0  0  0  0  0  0  0
   44.7880   34.4330   40.8510 C   0  0  0  0  0  0  0  0  0  0  0  0
   46.0080   34.3980   41.4530 C   0  0  0  0  0  0  0  0  0  0  0  0
   46.2580   35.1590   42.6150 C   0  0  0  0  0  0  0  0  0  0  0  0
   45.2860   35.9470   43.1630 C   0  0  0  0  0  0  0  0  0  0  0  0
   44.0560   35.9650   42.5320 C   0  0  0  0  0  0  0  0  0  0  0  0
   43.8020   35.2220   41.3930 C   0  0  0  0  0  0  0  0  0  0  0  0
   47.2200   35.1470   43.1100 H   0  0  0  0  0  0  0  0  0  0  0  0
   45.4910   36.5260   44.0550 H   0  0  0  0  0  0  0  0  0  0  0  0
   43.2980   36.5990   42.9850 H   0  0  0  0  0  0  0  0  0  0  0  0
   42.4680   35.3150   40.8070 C   0  0  0  0  0  0  0  0  0  0  0  0
   42.0340   35.2330   39.5140 C   0  0  0  0  0  0  0  0  0  0  0  0
   40.6990   35.3800   39.4540 N   0  0  0  0  0  0  0  0  0  0  0  0
   40.2820   35.5560   40.7090 C   0  0  0  0  0  0  0  0  0  0  0  0
   41.3460   35.5170   41.5270 N   0  0  0  0  0  0  0  0  0  0  0  0
   42.7290   35.0690   38.6790 H   0  0  0  0  0  0  0  0  0  0  0  0
   40.1270   35.3570   38.5830 H   0  0  0  0  0  0  0  0  0  0  0  0
   39.2490   35.7100   41.0580 H   0  0  0  0  0  0  0  0  0  0  0  0
   49.8470   28.7440   41.8900 C   0  0  0  0  0  0  0  0  0  0  0  0
   49.8490   27.9490   40.7270 C   0  0  0  0  0  0  0  0  0  0  0  0
   49.3290   28.4960   39.5480 C   0  0  0  0  0  0  0  0  0  0  0  0
   48.8720   29.7510   39.6520 N   0  0  0  0  0  0  0  0  0  0  0  0
   48.8640   30.5080   40.7410 C   0  0  0  0  0  0  0  0  0  0  0  0
   49.3650   29.9970   41.8970 N   0  0  0  0  0  0  0  0  0  0  0  0
   50.2600   28.2910   42.7970 H   0  0  0  0  0  0  0  0  0  0  0  0
   50.2240   26.9450   40.6740 H   0  0  0  0  0  0  0  0  0  0  0  0
   49.2590   27.7960   38.2470 C   0  0  0  0  0  2  0  0  0  0  0  0
   50.3650   26.9080   38.0240 N   0  0  0  0  0  4  0  0  0  0  0  0
   50.8050   26.6620   38.9540 H   0  0  0  0  0  0  0  0  0  0  0  0
   51.4190   27.5550   37.2330 C   0  0  0  0  0  2  0  0  0  0  0  0
   52.2120   26.8270   37.0270 H   0  0  0  0  0  0  0  0  0  0  0  0
   49.9470   25.6820   37.4090 C   0  0  0  0  0  2  0  0  0  0  0  0
   50.7670   25.2440   36.8000 H   0  0  0  0  0  0  0  0  0  0  0  0
  1 30  1  0  0  0  0
  1  5  2  0  0  0  0
  2  3  2  0  0  0  0
  2  1  1  0  0  0  0
  3  4  1  0  0  0  0
  4  5  1  0  0  0  0
  4 10  1  0  0  0  0
  6  2  1  0  0  0  0
  7  3  1  0  0  0  0
  8  9  1  0  0  0  0
  9 14  2  0  0  0  0
  9 10  1  0  0  0  0
 10 11  2  0  0  0  0
 11 15  1  0  0  0  0
 11 12  1  0  0  0  0
 12 16  1  0  0  0  0
 13 17  1  0  0  0  0
 13 12  2  0  0  0  0
 14 13  1  0  0  0  0
 18 14  1  0  0  0  0
 18 22  1  0  0  0  0
 19 18  2  0  0  0  0
 20 19  1  0  0  0  0
 20 21  1  0  0  0  0
 21 25  1  0  0  0  0
 21 22  2  0  0  0  0
 23 19  1  0  0  0  0
 24 20  1  0  0  0  0
 26 31  1  0  0  0  0
 26 32  1  0  0  0  0
 27 26  2  0  0  0  0
 28 29  2  0  0  0  0
 28 27  1  0  0  0  0
 29 30  1  0  0  0  0
 30 31  2  0  0  0  0
 33 27  1  0  0  0  0
 34 28  1  0  0  0  0
 35 34  1  0  0  0  0
 35 36  1  0  0  0  0
 37 35  1  0  0  0  0
 38 37  1  0  0  0  0
 39 35  1  0  0  0  0
 40 39  1  0  0  0  0
M  END
>  <minimizedAffinity>
-4.25228405

>  <minimizedRMSD>
7.35392857

$$$$
