
 OpenBabel03252500243D

 35 36  0  0  1  0  0  0  0  0999 V2000
   46.8920   30.2670   48.2040 C   0  0  2  0  0  0  0  0  0  0  0  0
   45.4320   30.5090   48.2740 C   0  0  2  0  0  0  0  0  0  0  0  0
   44.8720   29.6220   47.2230 C   0  0  0  0  0  0  0  0  0  0  0  0
   45.7110   28.5310   47.1040 O   0  0  0  0  0  0  0  0  0  0  0  0
   46.8330   28.7610   47.8300 C   0  0  0  0  0  0  0  0  0  0  0  0
   47.5490   30.6330   47.4710 H   0  0  0  0  0  0  0  0  0  0  0  0
   45.1330   30.1250   49.2880 H   0  0  0  0  0  0  0  0  0  0  0  0
   43.9230   29.1660   47.6450 H   0  0  0  0  0  0  0  0  0  0  0  0
   44.5130   30.0720   46.2990 H   0  0  0  0  0  0  0  0  0  0  0  0
   46.7650   28.2670   48.8400 H   0  0  0  0  0  0  0  0  0  0  0  0
   47.7480   28.4110   47.3610 H   0  0  0  0  0  0  0  0  0  0  0  0
   45.0890   31.8300   48.0960 O   0  0  0  0  0  0  0  0  0  0  0  0
   47.2820   32.8890   47.2730 O   0  0  0  0  0  0  0  0  0  0  0  0
   45.9150   32.4720   46.8060 P   0  0  1  0  0  0  0  0  0  0  0  0
   46.0930   31.2890   45.6050 O   0  0  0  0  0  0  0  0  0  0  0  0
   45.5770   31.5090   44.8100 H   0  0  0  0  0  0  0  0  0  0  0  0
   45.1650   33.8780   46.1850 O   0  0  0  0  0  0  0  0  0  0  0  0
   45.2470   36.1620   43.4350 C   0  0  0  0  0  0  0  0  0  0  0  0
   46.0240   35.4910   42.4490 C   0  0  0  0  0  0  0  0  0  0  0  0
   46.5130   34.2180   42.7860 C   0  0  0  0  0  0  0  0  0  0  0  0
   46.2220   33.7160   44.0030 N   0  0  0  0  0  0  0  0  0  0  0  0
   45.4800   34.3830   44.9120 C   0  0  0  0  0  0  0  0  0  0  0  0
   44.9970   35.6060   44.6200 N   0  0  0  0  0  0  0  0  0  0  0  0
   46.2380   35.9210   41.4850 H   0  0  0  0  0  0  0  0  0  0  0  0
   47.1140   33.6390   42.0920 H   0  0  0  0  0  0  0  0  0  0  0  0
   44.7720   37.4040   43.1040 O   0  0  0  0  0  0  0  0  0  0  0  0
   45.4060   38.1660   42.9580 H   0  0  0  0  0  0  0  0  0  0  0  0
   47.5730   30.4550   49.3690 O   0  0  0  0  0  0  0  0  0  0  0  0
   48.8650   30.6660   49.4790 C   0  0  0  0  0  2  0  0  0  0  0  0
   49.5920   29.4860   49.9940 N   0  0  0  0  0  4  0  0  0  0  0  0
   48.9680   28.6920   50.1660 H   0  0  0  0  0  0  0  0  0  0  0  0
   50.5660   29.0490   48.9800 C   0  0  0  0  0  2  0  0  0  0  0  0
   50.1160   29.3730   47.9980 H   0  0  0  0  0  0  0  0  0  0  0  0
   50.3680   29.7940   51.1670 C   0  0  0  0  0  2  0  0  0  0  0  0
   49.8360   29.7140   52.1140 H   0  0  0  0  0  0  0  0  0  0  0  0
  1  6  1  6  0  0  0
  1  2  1  0  0  0  0
  1 28  1  0  0  0  0
  2  7  1  1  0  0  0
  3  8  1  0  0  0  0
  3  2  1  0  0  0  0
  4  3  1  0  0  0  0
  4  5  1  0  0  0  0
  5  1  1  0  0  0  0
  5 10  1  0  0  0  0
  9  3  1  0  0  0  0
 11  5  1  0  0  0  0
 12  2  1  0  0  0  0
 14 13  2  1  0  0  0
 14 12  1  0  0  0  0
 15 14  1  0  0  0  0
 16 15  1  0  0  0  0
 17 14  1  0  0  0  0
 18 23  1  0  0  0  0
 19 20  1  0  0  0  0
 19 18  2  0  0  0  0
 20 21  2  0  0  0  0
 21 22  1  0  0  0  0
 22 17  1  0  0  0  0
 23 22  2  0  0  0  0
 24 19  1  0  0  0  0
 25 20  1  0  0  0  0
 26 18  1  0  0  0  0
 27 26  1  0  0  0  0
 28 29  1  0  0  0  0
 29 30  1  0  0  0  0
 30 31  1  0  0  0  0
 30 34  1  0  0  0  0
 32 30  1  0  0  0  0
 33 32  1  0  0  0  0
 34 35  1  0  0  0  0
M  END
>  <minimizedAffinity>
-4.68796825

>  <minimizedRMSD>
0.855144739

$$$$
