
 OpenBabel03252502073D

 46 49  0  0  0  0  0  0  0  0999 V2000
   47.4280   32.0750   47.8740 C   0  0  0  0  0  0  0  0  0  0  0  0
   46.8910   30.7820   47.8960 C   0  0  0  0  0  0  0  0  0  0  0  0
   45.9260   30.5050   46.9880 C   0  0  0  0  0  0  0  0  0  0  0  0
   45.5280   31.4470   46.1180 N   0  0  0  0  0  0  0  0  0  0  0  0
   46.0190   32.6660   46.0760 C   0  0  0  0  0  0  0  0  0  0  0  0
   46.9830   32.9680   46.9770 N   0  0  0  0  0  0  0  0  0  0  0  0
   45.3330   29.2640   46.9610 N   0  0  0  0  0  0  0  0  0  0  0  0
   44.1450   28.9100   46.1310 C   0  0  0  0  0  0  0  0  0  0  0  0
   44.0340   27.4150   46.1910 C   0  0  0  0  0  0  0  0  0  0  0  0
   44.6550   27.0850   47.5040 C   0  0  0  0  0  0  0  0  0  0  0  0
   45.7220   28.1060   47.7110 C   0  0  0  0  0  0  0  0  0  0  0  0
   48.2120   32.3510   48.5920 H   0  0  0  0  0  0  0  0  0  0  0  0
   44.2580   29.2270   45.0970 H   0  0  0  0  0  0  0  0  0  0  0  0
   43.2850   29.4200   46.6460 H   0  0  0  0  0  0  0  0  0  0  0  0
   42.9590   27.0800   46.2200 H   0  0  0  0  0  0  0  0  0  0  0  0
   44.5970   26.9410   45.3850 H   0  0  0  0  0  0  0  0  0  0  0  0
   43.8730   27.0710   48.3110 H   0  0  0  0  0  0  0  0  0  0  0  0
   45.0900   26.0600   47.5100 H   0  0  0  0  0  0  0  0  0  0  0  0
   45.6670   28.3290   48.7970 H   0  0  0  0  0  0  0  0  0  0  0  0
   46.6680   27.6700   47.3700 H   0  0  0  0  0  0  0  0  0  0  0  0
   45.7430   33.8210   45.1880 C   0  0  0  0  0  0  0  0  0  0  0  0
   44.8440   34.7760   45.4620 N   0  0  0  0  0  0  0  0  0  0  0  0
   44.5870   35.8230   44.6820 C   0  0  0  0  0  0  0  0  0  0  0  0
   45.2540   35.9830   43.5160 N   0  0  0  0  0  0  0  0  0  0  0  0
   46.1690   35.1040   43.1340 C   0  0  0  0  0  0  0  0  0  0  0  0
   46.8660   35.2600   41.9430 C   0  0  0  0  0  0  0  0  0  0  0  0
   47.8110   34.3700   41.5460 C   0  0  0  0  0  0  0  0  0  0  0  0
   48.0620   33.2950   42.3640 C   0  0  0  0  0  0  0  0  0  0  0  0
   47.3530   33.1610   43.5470 C   0  0  0  0  0  0  0  0  0  0  0  0
   46.3990   34.0330   43.9790 C   0  0  0  0  0  0  0  0  0  0  0  0
   43.8290   36.5430   45.0080 H   0  0  0  0  0  0  0  0  0  0  0  0
   46.6490   36.1140   41.3170 H   0  0  0  0  0  0  0  0  0  0  0  0
   48.3390   34.5160   40.6130 H   0  0  0  0  0  0  0  0  0  0  0  0
   47.7340   31.9900   44.2630 N   0  0  0  0  0  0  0  0  0  0  0  0
   47.1110   31.2600   43.8460 H   0  0  0  0  0  0  0  0  0  0  0  0
   48.4300   31.7810   45.0080 H   0  0  0  0  0  0  0  0  0  0  0  0
   49.1050   32.3400   41.9070 C   0  0  0  0  0  2  0  0  0  0  0  0
   48.9380   31.9480   40.5330 N   0  0  0  0  0  4  0  0  0  0  0  0
   48.5260   32.7380   40.0070 H   0  0  0  0  0  0  0  0  0  0  0  0
   48.1670   30.7410   40.3720 C   0  0  0  0  0  2  0  0  0  0  0  0
   47.9410   30.6380   39.2890 H   0  0  0  0  0  0  0  0  0  0  0  0
   50.2330   31.6650   39.9210 C   0  0  0  0  0  2  0  0  0  0  0  0
   50.5480   30.6360   40.2490 H   0  0  0  0  0  0  0  0  0  0  0  0
   47.4100   29.8960   48.7990 N   0  0  0  0  0  0  0  0  0  0  0  0
   48.1150   29.2100   48.4500 H   0  0  0  0  0  0  0  0  0  0  0  0
   47.1550   29.8540   49.8320 H   0  0  0  0  0  0  0  0  0  0  0  0
  1  2  1  0  0  0  0
  1 12  1  0  0  0  0
  2 44  1  0  0  0  0
  3  2  2  0  0  0  0
  4  3  1  0  0  0  0
  5  4  2  0  0  0  0
  5  6  1  0  0  0  0
  6  1  2  0  0  0  0
  7  3  1  0  0  0  0
  7 11  1  0  0  0  0
  8  9  1  0  0  0  0
  8 14  1  0  0  0  0
  8  7  1  0  0  0  0
  9 15  1  0  0  0  0
  9 10  1  0  0  0  0
 10 18  1  0  0  0  0
 10 11  1  0  0  0  0
 10 17  1  0  0  0  0
 11 19  1  0  0  0  0
 13  8  1  0  0  0  0
 16  9  1  0  0  0  0
 20 11  1  0  0  0  0
 21 22  1  0  0  0  0
 21  5  1  0  0  0  0
 23 31  1  0  0  0  0
 23 22  2  0  0  0  0
 24 23  1  0  0  0  0
 25 24  2  0  0  0  0
 25 30  1  0  0  0  0
 26 25  1  0  0  0  0
 27 26  2  0  0  0  0
 27 28  1  0  0  0  0
 28 29  2  0  0  0  0
 29 30  1  0  0  0  0
 29 34  1  0  0  0  0
 30 21  2  0  0  0  0
 32 26  1  0  0  0  0
 33 27  1  0  0  0  0
 34 36  1  0  0  0  0
 35 34  1  0  0  0  0
 37 28  1  0  0  0  0
 38 37  1  0  0  0  0
 39 38  1  0  0  0  0
 40 38  1  0  0  0  0
 41 40  1  0  0  0  0
 42 43  1  0  0  0  0
 42 38  1  0  0  0  0
 44 46  1  0  0  0  0
 45 44  1  0  0  0  0
M  END
>  <minimizedAffinity>
-6.35283852

>  <minimizedRMSD>
0.873377204

$$$$
