
 OpenBabel03252501063D

 38 40  0  0  1  0  0  0  0  0999 V2000
   48.5350   32.4230   38.1320 O   0  0  0  0  0  0  0  0  0  0  0  0
   48.0630   33.8710   38.2540 P   0  0  2  0  0  0  0  0  0  0  0  0
   49.3090   34.8050   37.5830 O   0  0  0  0  0  0  0  0  0  0  0  0
   48.9760   35.7410   37.5480 H   0  0  0  0  0  0  0  0  0  0  0  0
   47.6590   34.2660   39.7890 O   0  0  0  0  0  0  0  0  0  0  0  0
   48.1620   35.3700   41.8830 C   0  0  1  0  0  0  0  0  0  0  0  0
   49.2880   34.4500   41.6780 C   0  0  0  0  0  0  0  0  0  0  0  0
   48.4970   35.0460   40.4990 C   0  0  1  0  0  0  0  0  0  0  0  0
   48.3650   36.3740   42.2850 H   0  0  0  0  0  0  0  0  0  0  0  0
   49.1830   33.3350   41.7630 H   0  0  0  0  0  0  0  0  0  0  0  0
   50.3390   34.7670   41.8050 H   0  0  0  0  0  0  0  0  0  0  0  0
   49.1260   35.7360   39.9070 H   0  0  0  0  0  0  0  0  0  0  0  0
   45.8140   32.8600   43.4790 C   0  0  0  0  0  0  0  0  0  0  0  0
   46.9800   33.4400   42.9890 C   0  0  0  0  0  0  0  0  0  0  0  0
   46.9170   34.7320   42.4310 C   0  0  0  0  0  0  0  0  0  0  0  0
   45.7210   35.3700   42.3890 N   0  0  0  0  0  0  0  0  0  0  0  0
   44.5970   34.7860   42.8720 C   0  0  0  0  0  0  0  0  0  0  0  0
   44.6420   33.5370   43.4150 N   0  0  0  0  0  0  0  0  0  0  0  0
   45.8720   31.8680   43.9060 H   0  0  0  0  0  0  0  0  0  0  0  0
   47.8960   32.8930   43.0460 H   0  0  0  0  0  0  0  0  0  0  0  0
   43.6850   35.3760   42.7950 H   0  0  0  0  0  0  0  0  0  0  0  0
   46.7400   33.9860   37.2270 O   0  0  0  0  0  0  0  0  0  0  0  0
   45.7480   33.0210   37.1330 C   0  0  0  0  0  0  0  0  0  0  0  0
   45.6480   31.9830   36.2260 C   0  0  0  0  0  0  0  0  0  0  0  0
   44.6010   31.1160   36.2710 C   0  0  0  0  0  0  0  0  0  0  0  0
   43.6070   31.2410   37.2170 C   0  0  0  0  0  0  0  0  0  0  0  0
   43.7420   32.3030   38.1180 C   0  0  0  0  0  0  0  0  0  0  0  0
   44.7970   33.1650   38.0630 N   0  0  0  0  0  0  0  0  0  0  0  0
   46.4610   31.9430   35.5100 H   0  0  0  0  0  0  0  0  0  0  0  0
   44.5850   30.3270   35.5300 H   0  0  0  0  0  0  0  0  0  0  0  0
   42.7850   30.5680   37.2580 H   0  0  0  0  0  0  0  0  0  0  0  0
   42.6740   32.4420   39.1410 C   0  0  0  0  0  2  0  0  0  0  0  0
   43.1290   32.4180   40.4960 N   0  0  0  0  0  4  0  0  0  0  0  0
   43.7470   33.2220   40.7480 H   0  0  0  0  0  0  0  0  0  0  0  0
   41.9620   32.5610   41.3560 C   0  0  0  0  0  2  0  0  0  0  0  0
   41.0280   32.3140   40.7850 H   0  0  0  0  0  0  0  0  0  0  0  0
   43.7280   31.1410   40.8400 C   0  0  0  0  0  2  0  0  0  0  0  0
   42.8870   30.4190   41.0280 H   0  0  0  0  0  0  0  0  0  0  0  0
  2  1  2  1  0  0  0
  2  5  1  0  0  0  0
  3  2  1  0  0  0  0
  4  3  1  0  0  0  0
  5  8  1  0  0  0  0
  6  9  1  1  0  0  0
  6 15  1  0  0  0  0
  7 10  1  0  0  0  0
  7 11  1  0  0  0  0
  7  6  1  0  0  0  0
  8 12  1  6  0  0  0
  8  7  1  0  0  0  0
  8  6  1  0  0  0  0
 13 19  1  0  0  0  0
 14 20  1  0  0  0  0
 14 13  2  0  0  0  0
 15 14  1  0  0  0  0
 16 15  2  0  0  0  0
 16 17  1  0  0  0  0
 17 18  2  0  0  0  0
 18 13  1  0  0  0  0
 21 17  1  0  0  0  0
 22  2  1  0  0  0  0
 23 22  1  0  0  0  0
 23 28  1  0  0  0  0
 24 25  1  0  0  0  0
 24 23  2  0  0  0  0
 25 26  2  0  0  0  0
 26 31  1  0  0  0  0
 26 27  1  0  0  0  0
 27 32  1  0  0  0  0
 28 27  2  0  0  0  0
 29 24  1  0  0  0  0
 30 25  1  0  0  0  0
 32 33  1  0  0  0  0
 33 34  1  0  0  0  0
 33 37  1  0  0  0  0
 33 35  1  0  0  0  0
 36 35  1  0  0  0  0
 37 38  1  0  0  0  0
M  END
>  <minimizedAffinity>
-4.27564573

>  <minimizedRMSD>
0.758629799

$$$$
