
 OpenBabel03252501063D

 38 40  0  0  1  0  0  0  0  0999 V2000
   48.5380   32.4210   38.1310 O   0  0  0  0  0  0  0  0  0  0  0  0
   48.0690   33.8710   38.2430 P   0  0  2  0  0  0  0  0  0  0  0  0
   49.3220   34.7980   37.5760 O   0  0  0  0  0  0  0  0  0  0  0  0
   48.9920   35.7350   37.5340 H   0  0  0  0  0  0  0  0  0  0  0  0
   47.6570   34.2740   39.7740 O   0  0  0  0  0  0  0  0  0  0  0  0
   48.1650   35.3610   41.8760 C   0  0  1  0  0  0  0  0  0  0  0  0
   49.2850   34.4350   41.6660 C   0  0  0  0  0  0  0  0  0  0  0  0
   48.4990   35.0440   40.4900 C   0  0  1  0  0  0  0  0  0  0  0  0
   48.3740   36.3610   42.2850 H   0  0  0  0  0  0  0  0  0  0  0  0
   49.1720   33.3200   41.7440 H   0  0  0  0  0  0  0  0  0  0  0  0
   50.3380   34.7430   41.7970 H   0  0  0  0  0  0  0  0  0  0  0  0
   49.1340   35.7340   39.9030 H   0  0  0  0  0  0  0  0  0  0  0  0
   45.7930   32.8490   43.4320 C   0  0  0  0  0  0  0  0  0  0  0  0
   46.9630   33.4240   42.9470 C   0  0  0  0  0  0  0  0  0  0  0  0
   46.9140   34.7280   42.4190 C   0  0  0  0  0  0  0  0  0  0  0  0
   45.7270   35.3840   42.3980 N   0  0  0  0  0  0  0  0  0  0  0  0
   44.5990   34.8040   42.8760 C   0  0  0  0  0  0  0  0  0  0  0  0
   44.6300   33.5430   43.3910 N   0  0  0  0  0  0  0  0  0  0  0  0
   45.8390   31.8470   43.8360 H   0  0  0  0  0  0  0  0  0  0  0  0
   47.8720   32.8630   42.9870 H   0  0  0  0  0  0  0  0  0  0  0  0
   43.6940   35.4080   42.8180 H   0  0  0  0  0  0  0  0  0  0  0  0
   46.7520   33.9850   37.2080 O   0  0  0  0  0  0  0  0  0  0  0  0
   45.7560   33.0250   37.1160 C   0  0  0  0  0  0  0  0  0  0  0  0
   45.6630   31.9710   36.2260 C   0  0  0  0  0  0  0  0  0  0  0  0
   44.6090   31.1130   36.2700 C   0  0  0  0  0  0  0  0  0  0  0  0
   43.6020   31.2610   37.1980 C   0  0  0  0  0  0  0  0  0  0  0  0
   43.7300   32.3380   38.0830 C   0  0  0  0  0  0  0  0  0  0  0  0
   44.7920   33.1920   38.0280 N   0  0  0  0  0  0  0  0  0  0  0  0
   46.4870   31.9140   35.5240 H   0  0  0  0  0  0  0  0  0  0  0  0
   44.5990   30.3100   35.5440 H   0  0  0  0  0  0  0  0  0  0  0  0
   42.7750   30.5930   37.2390 H   0  0  0  0  0  0  0  0  0  0  0  0
   42.6470   32.5020   39.0860 C   0  0  0  0  0  2  0  0  0  0  0  0
   43.0800   32.5020   40.4470 N   0  0  0  0  0  4  0  0  0  0  0  0
   43.7550   33.2670   40.6750 H   0  0  0  0  0  0  0  0  0  0  0  0
   41.9180   32.7700   41.2830 C   0  0  0  0  0  2  0  0  0  0  0  0
   40.9750   32.5690   40.7070 H   0  0  0  0  0  0  0  0  0  0  0  0
   43.5770   31.2000   40.8550 C   0  0  0  0  0  2  0  0  0  0  0  0
   42.6800   30.5520   41.0590 H   0  0  0  0  0  0  0  0  0  0  0  0
  2  1  2  1  0  0  0
  2  5  1  0  0  0  0
  3  2  1  0  0  0  0
  4  3  1  0  0  0  0
  5  8  1  0  0  0  0
  6  9  1  1  0  0  0
  6 15  1  0  0  0  0
  7 10  1  0  0  0  0
  7 11  1  0  0  0  0
  7  6  1  0  0  0  0
  8 12  1  6  0  0  0
  8  7  1  0  0  0  0
  8  6  1  0  0  0  0
 13 19  1  0  0  0  0
 14 20  1  0  0  0  0
 14 13  2  0  0  0  0
 15 14  1  0  0  0  0
 16 15  2  0  0  0  0
 16 17  1  0  0  0  0
 17 18  2  0  0  0  0
 18 13  1  0  0  0  0
 21 17  1  0  0  0  0
 22  2  1  0  0  0  0
 23 22  1  0  0  0  0
 23 28  1  0  0  0  0
 24 25  1  0  0  0  0
 24 23  2  0  0  0  0
 25 26  2  0  0  0  0
 26 31  1  0  0  0  0
 26 27  1  0  0  0  0
 27 32  1  0  0  0  0
 28 27  2  0  0  0  0
 29 24  1  0  0  0  0
 30 25  1  0  0  0  0
 32 33  1  0  0  0  0
 33 34  1  0  0  0  0
 33 37  1  0  0  0  0
 33 35  1  0  0  0  0
 36 35  1  0  0  0  0
 37 38  1  0  0  0  0
M  END
>  <minimizedAffinity>
-4.29344225

>  <minimizedRMSD>
0.88421613

$$$$
