
 OpenBabel03242518123D

 29 30  0  0  0  0  0  0  0  0999 V2000
   49.2270   34.4410   42.3120 C   0  0  0  0  0  0  0  0  0  0  0  0
   50.1500   35.0450   42.4390 H   0  0  0  0  0  0  0  0  0  0  0  0
   48.8810   34.1930   43.3420 H   0  0  0  0  0  0  0  0  0  0  0  0
   49.5380   33.2760   41.5470 C   0  0  0  0  0  0  0  0  0  0  0  0
   49.1220   32.6890   40.3050 C   0  0  0  0  0  0  0  0  0  0  0  0
   49.6950   31.5170   39.9030 C   0  0  0  0  0  0  0  0  0  0  0  0
   50.7030   30.9220   40.7650 C   0  0  0  0  0  0  0  0  0  0  0  0
   50.8340   32.0560   42.1690 S   0  0  0  0  0  0  0  0  0  0  0  0
   48.3700   33.2450   39.7840 H   0  0  0  0  0  0  0  0  0  0  0  0
   49.4120   31.0450   38.9790 H   0  0  0  0  0  0  0  0  0  0  0  0
   51.4020   29.7280   40.5270 C   0  0  0  0  0  2  0  0  0  0  0  0
   52.5510   29.9250   39.7080 N   0  0  0  0  0  4  0  0  0  0  0  0
   53.2950   29.2370   39.9660 H   0  0  0  0  0  0  0  0  0  0  0  0
   53.0810   31.2680   39.7270 C   0  0  0  0  0  2  0  0  0  0  0  0
   53.7720   31.3820   40.5840 H   0  0  0  0  0  0  0  0  0  0  0  0
   52.2260   29.6050   38.3150 C   0  0  0  0  0  2  0  0  0  0  0  0
   51.8260   28.5550   38.2890 H   0  0  0  0  0  0  0  0  0  0  0  0
   48.1920   35.3600   41.7050 C   0  0  0  0  0  0  0  0  0  0  0  0
   48.3100   36.3900   42.1300 H   0  0  0  0  0  0  0  0  0  0  0  0
   48.3650   35.4210   40.6360 H   0  0  0  0  0  0  0  0  0  0  0  0
   46.8670   34.8520   42.0290 C   0  0  0  0  0  0  0  0  0  0  0  0
   46.4210   34.7160   43.3310 C   0  0  0  0  0  0  0  0  0  0  0  0
   45.1380   34.2190   43.5540 C   0  0  0  0  0  0  0  0  0  0  0  0
   44.3920   33.8950   42.4740 N   0  0  0  0  0  0  0  0  0  0  0  0
   44.8310   34.0290   41.2220 C   0  0  0  0  0  0  0  0  0  0  0  0
   46.0440   34.4990   41.0320 N   0  0  0  0  0  0  0  0  0  0  0  0
   47.0610   34.9930   44.1650 H   0  0  0  0  0  0  0  0  0  0  0  0
   44.7630   34.1040   44.5780 H   0  0  0  0  0  0  0  0  0  0  0  0
   44.2050   33.7580   40.3820 H   0  0  0  0  0  0  0  0  0  0  0  0
  1  2  1  0  0  0  0
  1  3  1  0  0  0  0
  4  8  1  0  0  0  0
  4  1  1  0  0  0  0
  5  4  2  0  0  0  0
  6  5  1  0  0  0  0
  6  7  2  0  0  0  0
  7  8  1  0  0  0  0
  9  5  1  0  0  0  0
 10  6  1  0  0  0  0
 11  7  1  0  0  0  0
 12 14  1  0  0  0  0
 12 13  1  0  0  0  0
 12 11  1  0  0  0  0
 14 15  1  0  0  0  0
 16 12  1  0  0  0  0
 17 16  1  0  0  0  0
 18 21  1  0  0  0  0
 18 19  1  0  0  0  0
 18  1  1  0  0  0  0
 20 18  1  0  0  0  0
 21 22  1  0  0  0  0
 22 23  2  0  0  0  0
 22 27  1  0  0  0  0
 23 28  1  0  0  0  0
 24 23  1  0  0  0  0
 25 24  2  0  0  0  0
 26 25  1  0  0  0  0
 26 21  2  0  0  0  0
 29 25  1  0  0  0  0
M  END
>  <minimizedAffinity>
-3.37646604

>  <minimizedRMSD>
0.762829125

$$$$
