
 OpenBabel03252500263D

 35 36  0  0  1  0  0  0  0  0999 V2000
   40.3830   28.8600   41.7260 C   0  0  2  0  0  0  0  0  0  0  0  0
   39.4920   28.1720   42.6890 C   0  0  2  0  0  0  0  0  0  0  0  0
   40.4050   27.2720   43.4390 C   0  0  0  0  0  0  0  0  0  0  0  0
   41.6520   27.8630   43.4620 O   0  0  0  0  0  0  0  0  0  0  0  0
   41.6450   28.9330   42.6290 C   0  0  0  0  0  0  0  0  0  0  0  0
   40.7860   28.4500   40.8470 H   0  0  0  0  0  0  0  0  0  0  0  0
   39.1300   28.9900   43.3700 H   0  0  0  0  0  0  0  0  0  0  0  0
   40.0870   27.3090   44.5270 H   0  0  0  0  0  0  0  0  0  0  0  0
   40.3670   26.2030   43.2310 H   0  0  0  0  0  0  0  0  0  0  0  0
   41.4720   29.8860   43.2040 H   0  0  0  0  0  0  0  0  0  0  0  0
   42.5600   29.0620   42.0590 H   0  0  0  0  0  0  0  0  0  0  0  0
   38.4540   27.4990   42.0860 O   0  0  0  0  0  0  0  0  0  0  0  0
   36.2900   26.9960   43.3800 O   0  0  0  0  0  0  0  0  0  0  0  0
   36.9960   28.0870   42.6230 P   0  0  1  0  0  0  0  0  0  0  0  0
   37.2660   29.3870   43.6770 O   0  0  0  0  0  0  0  0  0  0  0  0
   36.9550   30.2250   43.2940 H   0  0  0  0  0  0  0  0  0  0  0  0
   35.9600   28.5340   41.3380 O   0  0  0  0  0  0  0  0  0  0  0  0
   36.8600   31.7560   40.0760 C   0  0  0  0  0  0  0  0  0  0  0  0
   37.0390   31.5450   38.6800 C   0  0  0  0  0  0  0  0  0  0  0  0
   36.8350   30.2400   38.2060 C   0  0  0  0  0  0  0  0  0  0  0  0
   36.4860   29.2800   39.0860 N   0  0  0  0  0  0  0  0  0  0  0  0
   36.3240   29.5190   40.4040 C   0  0  0  0  0  0  0  0  0  0  0  0
   36.5120   30.7600   40.8920 N   0  0  0  0  0  0  0  0  0  0  0  0
   37.3190   32.3350   38.0040 H   0  0  0  0  0  0  0  0  0  0  0  0
   36.9520   29.9930   37.1550 H   0  0  0  0  0  0  0  0  0  0  0  0
   37.0600   33.0320   40.5380 O   0  0  0  0  0  0  0  0  0  0  0  0
   37.9730   33.4440   40.5030 H   0  0  0  0  0  0  0  0  0  0  0  0
   39.9820   30.1050   41.3450 O   0  0  0  0  0  0  0  0  0  0  0  0
   40.0290   31.1890   42.0860 C   0  0  0  0  0  2  0  0  0  0  0  0
   40.5980   32.3470   41.3640 N   0  0  0  0  0  4  0  0  0  0  0  0
   40.1740   33.2310   41.6570 H   0  0  0  0  0  0  0  0  0  0  0  0
   42.0350   32.4400   41.6770 C   0  0  0  0  0  2  0  0  0  0  0  0
   42.1300   31.9840   42.7040 H   0  0  0  0  0  0  0  0  0  0  0  0
   40.5270   32.1880   39.9360 C   0  0  0  0  0  2  0  0  0  0  0  0
   39.5990   32.5250   39.4750 H   0  0  0  0  0  0  0  0  0  0  0  0
  1  6  1  6  0  0  0
  1  5  1  0  0  0  0
  1  2  1  0  0  0  0
  2  7  1  1  0  0  0
  2  3  1  0  0  0  0
  3  4  1  0  0  0  0
  3  8  1  0  0  0  0
  5 10  1  0  0  0  0
  5  4  1  0  0  0  0
  9  3  1  0  0  0  0
 11  5  1  0  0  0  0
 12 14  1  0  0  0  0
 12  2  1  0  0  0  0
 14 13  2  1  0  0  0
 14 15  1  0  0  0  0
 16 15  1  0  0  0  0
 17 14  1  0  0  0  0
 18 26  1  0  0  0  0
 18 23  1  0  0  0  0
 19 18  2  0  0  0  0
 20 19  1  0  0  0  0
 20 21  2  0  0  0  0
 21 22  1  0  0  0  0
 22 23  2  0  0  0  0
 22 17  1  0  0  0  0
 24 19  1  0  0  0  0
 25 20  1  0  0  0  0
 27 26  1  0  0  0  0
 28  1  1  0  0  0  0
 28 29  1  0  0  0  0
 30 31  1  0  0  0  0
 30 32  1  0  0  0  0
 30 29  1  0  0  0  0
 32 33  1  0  0  0  0
 34 30  1  0  0  0  0
 35 34  1  0  0  0  0
M  END
>  <minimizedAffinity>
-4.99005222

$$$$

 OpenBabel03252500263D

 35 36  0  0  1  0  0  0  0  0999 V2000
   37.3650   26.4400   42.1620 C   0  0  2  0  0  0  0  0  0  0  0  0
   37.2640   27.9090   42.0030 C   0  0  2  0  0  0  0  0  0  0  0  0
   37.9490   28.4460   43.2060 C   0  0  0  0  0  0  0  0  0  0  0  0
   38.9160   27.5340   43.5800 O   0  0  0  0  0  0  0  0  0  0  0  0
   38.7560   26.4020   42.8520 C   0  0  0  0  0  0  0  0  0  0  0  0
   36.7980   25.8430   42.8150 H   0  0  0  0  0  0  0  0  0  0  0  0
   37.8800   28.1340   41.0890 H   0  0  0  0  0  0  0  0  0  0  0  0
   38.5610   29.3390   42.8680 H   0  0  0  0  0  0  0  0  0  0  0  0
   37.3420   28.8770   44.0000 H   0  0  0  0  0  0  0  0  0  0  0  0
   39.4580   26.3890   41.9710 H   0  0  0  0  0  0  0  0  0  0  0  0
   38.9210   25.4840   43.4090 H   0  0  0  0  0  0  0  0  0  0  0  0
   35.9690   28.3570   41.8810 O   0  0  0  0  0  0  0  0  0  0  0  0
   34.6390   29.1560   39.8310 O   0  0  0  0  0  0  0  0  0  0  0  0
   35.8570   29.4720   40.6550 P   0  0  1  0  0  0  0  0  0  0  0  0
   35.6730   31.0210   41.3170 O   0  0  0  0  0  0  0  0  0  0  0  0
   36.4530   31.5760   41.1450 H   0  0  0  0  0  0  0  0  0  0  0  0
   37.1930   29.4070   39.5880 O   0  0  0  0  0  0  0  0  0  0  0  0
   39.2230   31.8720   37.9790 C   0  0  0  0  0  0  0  0  0  0  0  0
   39.8230   32.5840   39.0550 C   0  0  0  0  0  0  0  0  0  0  0  0
   39.4890   32.1690   40.3540 C   0  0  0  0  0  0  0  0  0  0  0  0
   38.6340   31.1380   40.5020 N   0  0  0  0  0  0  0  0  0  0  0  0
   38.0850   30.4850   39.4560 C   0  0  0  0  0  0  0  0  0  0  0  0
   38.3850   30.8580   38.1970 N   0  0  0  0  0  0  0  0  0  0  0  0
   40.5030   33.4050   38.9010 H   0  0  0  0  0  0  0  0  0  0  0  0
   39.9030   32.6590   41.2300 H   0  0  0  0  0  0  0  0  0  0  0  0
   39.5500   32.2790   36.7110 O   0  0  0  0  0  0  0  0  0  0  0  0
   39.2720   33.1840   36.3840 H   0  0  0  0  0  0  0  0  0  0  0  0
   37.3750   25.7240   41.0020 O   0  0  0  0  0  0  0  0  0  0  0  0
   38.1800   25.9230   39.9830 C   0  0  0  0  0  2  0  0  0  0  0  0
   37.4840   26.5000   38.8130 N   0  0  0  0  0  4  0  0  0  0  0  0
   37.4630   27.5220   38.8420 H   0  0  0  0  0  0  0  0  0  0  0  0
   38.2180   26.1230   37.5920 C   0  0  0  0  0  2  0  0  0  0  0  0
   39.2850   25.9950   37.9330 H   0  0  0  0  0  0  0  0  0  0  0  0
   36.1600   25.9600   38.6460 C   0  0  0  0  0  2  0  0  0  0  0  0
   35.3740   26.4730   39.1990 H   0  0  0  0  0  0  0  0  0  0  0  0
  1  6  1  1  0  0  0
  1  5  1  0  0  0  0
  2  7  1  6  0  0  0
  2  1  1  0  0  0  0
  2  3  1  0  0  0  0
  3  4  1  0  0  0  0
  3  9  1  0  0  0  0
  5 11  1  0  0  0  0
  5  4  1  0  0  0  0
  8  3  1  0  0  0  0
 10  5  1  0  0  0  0
 12  2  1  0  0  0  0
 14 13  2  6  0  0  0
 14 15  1  0  0  0  0
 14 12  1  0  0  0  0
 16 15  1  0  0  0  0
 17 14  1  0  0  0  0
 18 23  2  0  0  0  0
 18 19  1  0  0  0  0
 19 20  2  0  0  0  0
 20 21  1  0  0  0  0
 20 25  1  0  0  0  0
 22 17  1  0  0  0  0
 22 21  2  0  0  0  0
 23 22  1  0  0  0  0
 24 19  1  0  0  0  0
 26 18  1  0  0  0  0
 27 26  1  0  0  0  0
 28  1  1  0  0  0  0
 29 28  1  0  0  0  0
 30 31  1  0  0  0  0
 30 29  1  0  0  0  0
 32 33  1  0  0  0  0
 32 30  1  0  0  0  0
 34 30  1  0  0  0  0
 34 35  1  0  0  0  0
M  END
>  <minimizedAffinity>
-4.97805023

$$$$

 OpenBabel03252500263D

 35 36  0  0  1  0  0  0  0  0999 V2000
   38.4660   28.0870   42.7330 C   0  0  2  0  0  0  0  0  0  0  0  0
   38.4260   29.3670   41.9890 C   0  0  2  0  0  0  0  0  0  0  0  0
   39.5780   30.1310   42.5300 C   0  0  0  0  0  0  0  0  0  0  0  0
   40.5390   29.2210   42.9220 O   0  0  0  0  0  0  0  0  0  0  0  0
   40.0100   27.9730   42.8630 C   0  0  0  0  0  0  0  0  0  0  0  0
   38.1660   27.9350   43.7280 H   0  0  0  0  0  0  0  0  0  0  0  0
   38.6350   29.0770   40.9230 H   0  0  0  0  0  0  0  0  0  0  0  0
   40.0690   30.6560   41.6530 H   0  0  0  0  0  0  0  0  0  0  0  0
   39.3790   30.9620   43.2060 H   0  0  0  0  0  0  0  0  0  0  0  0
   40.2930   27.4630   41.9010 H   0  0  0  0  0  0  0  0  0  0  0  0
   40.3140   27.3210   43.6770 H   0  0  0  0  0  0  0  0  0  0  0  0
   37.2310   30.0370   42.1200 O   0  0  0  0  0  0  0  0  0  0  0  0
   37.1630   29.3010   39.6580 O   0  0  0  0  0  0  0  0  0  0  0  0
   36.5200   30.2480   40.6340 P   0  0  1  0  0  0  0  0  0  0  0  0
   34.8700   29.8750   40.7400 O   0  0  0  0  0  0  0  0  0  0  0  0
   34.3180   30.6670   40.6180 H   0  0  0  0  0  0  0  0  0  0  0  0
   36.7620   31.8230   40.0120 O   0  0  0  0  0  0  0  0  0  0  0  0
   39.6950   32.5220   38.0900 C   0  0  0  0  0  0  0  0  0  0  0  0
   40.5480   33.2120   38.9960 C   0  0  0  0  0  0  0  0  0  0  0  0
   40.0560   33.4210   40.2940 C   0  0  0  0  0  0  0  0  0  0  0  0
   38.8260   32.9620   40.6000 N   0  0  0  0  0  0  0  0  0  0  0  0
   38.0460   32.3100   39.7130 C   0  0  0  0  0  0  0  0  0  0  0  0
   38.4880   32.0940   38.4600 N   0  0  0  0  0  0  0  0  0  0  0  0
   41.5260   33.5670   38.7180 H   0  0  0  0  0  0  0  0  0  0  0  0
   40.6430   33.9390   41.0460 H   0  0  0  0  0  0  0  0  0  0  0  0
   40.1760   32.3200   36.8220 O   0  0  0  0  0  0  0  0  0  0  0  0
   40.3390   33.0990   36.2130 H   0  0  0  0  0  0  0  0  0  0  0  0
   37.9510   27.0110   42.0750 O   0  0  0  0  0  0  0  0  0  0  0  0
   38.6380   25.9940   41.6060 C   0  0  0  0  0  2  0  0  0  0  0  0
   38.3940   24.7460   42.3590 N   0  0  0  0  0  4  0  0  0  0  0  0
   37.6470   24.8530   43.0510 H   0  0  0  0  0  0  0  0  0  0  0  0
   37.9540   23.7020   41.4160 C   0  0  0  0  0  2  0  0  0  0  0  0
   37.4530   24.2710   40.5810 H   0  0  0  0  0  0  0  0  0  0  0  0
   39.5920   24.2330   42.9670 C   0  0  0  0  0  2  0  0  0  0  0  0
   39.8200   24.6280   43.9570 H   0  0  0  0  0  0  0  0  0  0  0  0
  1  5  1  0  0  0  0
  1  6  1  1  0  0  0
  2  7  1  6  0  0  0
  2 12  1  0  0  0  0
  2  3  1  0  0  0  0
  2  1  1  0  0  0  0
  3  4  1  0  0  0  0
  3  9  1  0  0  0  0
  5  4  1  0  0  0  0
  5 11  1  0  0  0  0
  8  3  1  0  0  0  0
 10  5  1  0  0  0  0
 14 13  2  6  0  0  0
 14 15  1  0  0  0  0
 14 12  1  0  0  0  0
 16 15  1  0  0  0  0
 17 14  1  0  0  0  0
 18 23  2  0  0  0  0
 18 19  1  0  0  0  0
 19 20  2  0  0  0  0
 20 21  1  0  0  0  0
 20 25  1  0  0  0  0
 22 17  1  0  0  0  0
 22 21  2  0  0  0  0
 23 22  1  0  0  0  0
 24 19  1  0  0  0  0
 26 18  1  0  0  0  0
 27 26  1  0  0  0  0
 28  1  1  0  0  0  0
 29 28  1  0  0  0  0
 29 30  1  0  0  0  0
 30 34  1  0  0  0  0
 30 31  1  0  0  0  0
 32 30  1  0  0  0  0
 33 32  1  0  0  0  0
 34 35  1  0  0  0  0
M  END
>  <minimizedAffinity>
-4.88714695

$$$$

 OpenBabel03252500263D

 35 36  0  0  1  0  0  0  0  0999 V2000
   37.4800   32.1030   40.4790 C   0  0  2  0  0  0  0  0  0  0  0  0
   37.2620   30.6410   40.5770 C   0  0  2  0  0  0  0  0  0  0  0  0
   36.4070   30.3290   39.4040 C   0  0  0  0  0  0  0  0  0  0  0  0
   36.7050   31.2420   38.4120 O   0  0  0  0  0  0  0  0  0  0  0  0
   37.5080   32.2040   38.9300 C   0  0  0  0  0  0  0  0  0  0  0  0
   36.7860   32.8540   40.7200 H   0  0  0  0  0  0  0  0  0  0  0  0
   38.2830   30.1950   40.4260 H   0  0  0  0  0  0  0  0  0  0  0  0
   36.7830   29.3510   38.9700 H   0  0  0  0  0  0  0  0  0  0  0  0
   35.3530   30.1090   39.5730 H   0  0  0  0  0  0  0  0  0  0  0  0
   38.5900   31.9920   38.6970 H   0  0  0  0  0  0  0  0  0  0  0  0
   37.2920   33.2070   38.5730 H   0  0  0  0  0  0  0  0  0  0  0  0
   36.6950   30.2530   41.7690 O   0  0  0  0  0  0  0  0  0  0  0  0
   38.7210   29.5010   43.1630 O   0  0  0  0  0  0  0  0  0  0  0  0
   37.5300   28.9690   42.4140 P   0  0  1  0  0  0  0  0  0  0  0  0
   36.5330   28.1400   43.5050 O   0  0  0  0  0  0  0  0  0  0  0  0
   36.3080   27.2520   43.1780 H   0  0  0  0  0  0  0  0  0  0  0  0
   38.1430   27.9190   41.2120 O   0  0  0  0  0  0  0  0  0  0  0  0
   38.5680   24.5490   42.3300 C   0  0  0  0  0  0  0  0  0  0  0  0
   37.6760   23.7970   41.5160 C   0  0  0  0  0  0  0  0  0  0  0  0
   36.9260   24.5140   40.5690 C   0  0  0  0  0  0  0  0  0  0  0  0
   37.0940   25.8490   40.4890 N   0  0  0  0  0  0  0  0  0  0  0  0
   37.9520   26.5280   41.2790 C   0  0  0  0  0  0  0  0  0  0  0  0
   38.6850   25.8700   42.1970 N   0  0  0  0  0  0  0  0  0  0  0  0
   37.5650   22.7300   41.6060 H   0  0  0  0  0  0  0  0  0  0  0  0
   36.2220   24.0170   39.9080 H   0  0  0  0  0  0  0  0  0  0  0  0
   39.2980   23.8480   43.2550 O   0  0  0  0  0  0  0  0  0  0  0  0
   38.8400   23.3930   44.0210 H   0  0  0  0  0  0  0  0  0  0  0  0
   38.6450   32.5580   41.0200 O   0  0  0  0  0  0  0  0  0  0  0  0
   39.8020   31.9370   40.9880 C   0  0  0  0  0  2  0  0  0  0  0  0
   40.8720   32.7570   40.3800 N   0  0  0  0  0  4  0  0  0  0  0  0
   41.0760   32.4730   39.4190 H   0  0  0  0  0  0  0  0  0  0  0  0
   40.4200   34.1580   40.3240 C   0  0  0  0  0  2  0  0  0  0  0  0
   39.2960   34.0890   40.2540 H   0  0  0  0  0  0  0  0  0  0  0  0
   42.0680   32.7720   41.1800 C   0  0  0  0  0  2  0  0  0  0  0  0
   42.7670   31.9580   40.9900 H   0  0  0  0  0  0  0  0  0  0  0  0
  1  2  1  0  0  0  0
  1  6  1  1  0  0  0
  1 28  1  0  0  0  0
  2  7  1  6  0  0  0
  2 12  1  0  0  0  0
  3  9  1  0  0  0  0
  3  2  1  0  0  0  0
  4  5  1  0  0  0  0
  4  3  1  0  0  0  0
  5  1  1  0  0  0  0
  8  3  1  0  0  0  0
 10  5  1  0  0  0  0
 11  5  1  0  0  0  0
 12 14  1  0  0  0  0
 14 13  2  1  0  0  0
 14 15  1  0  0  0  0
 16 15  1  0  0  0  0
 17 22  1  0  0  0  0
 17 14  1  0  0  0  0
 18 26  1  0  0  0  0
 19 24  1  0  0  0  0
 19 18  2  0  0  0  0
 20 19  1  0  0  0  0
 21 20  2  0  0  0  0
 21 22  1  0  0  0  0
 22 23  2  0  0  0  0
 23 18  1  0  0  0  0
 25 20  1  0  0  0  0
 26 27  1  0  0  0  0
 29 28  1  0  0  0  0
 30 29  1  0  0  0  0
 30 34  1  0  0  0  0
 31 30  1  0  0  0  0
 32 30  1  0  0  0  0
 33 32  1  0  0  0  0
 35 34  1  0  0  0  0
M  END
>  <minimizedAffinity>
-4.87816954

$$$$

 OpenBabel03252500263D

 35 36  0  0  1  0  0  0  0  0999 V2000
   36.7360   31.2600   40.1440 C   0  0  2  0  0  0  0  0  0  0  0  0
   36.8280   29.7820   40.1190 C   0  0  2  0  0  0  0  0  0  0  0  0
   36.3120   29.4150   38.7760 C   0  0  0  0  0  0  0  0  0  0  0  0
   36.5960   30.4590   37.9180 O   0  0  0  0  0  0  0  0  0  0  0  0
   37.0490   31.5110   38.6430 C   0  0  0  0  0  0  0  0  0  0  0  0
   35.8610   31.8280   40.2670 H   0  0  0  0  0  0  0  0  0  0  0  0
   37.9310   29.5690   40.1690 H   0  0  0  0  0  0  0  0  0  0  0  0
   36.9720   28.5800   38.3840 H   0  0  0  0  0  0  0  0  0  0  0  0
   35.3210   28.9710   38.7030 H   0  0  0  0  0  0  0  0  0  0  0  0
   38.1750   31.5460   38.6370 H   0  0  0  0  0  0  0  0  0  0  0  0
   36.6950   32.4780   38.2990 H   0  0  0  0  0  0  0  0  0  0  0  0
   36.1340   29.1760   41.1410 O   0  0  0  0  0  0  0  0  0  0  0  0
   38.5640   28.4670   41.5900 O   0  0  0  0  0  0  0  0  0  0  0  0
   37.1860   28.4310   42.1900 P   0  0  1  0  0  0  0  0  0  0  0  0
   37.2140   29.2780   43.6570 O   0  0  0  0  0  0  0  0  0  0  0  0
   36.8270   28.7530   44.3790 H   0  0  0  0  0  0  0  0  0  0  0  0
   36.8060   26.7810   42.4330 O   0  0  0  0  0  0  0  0  0  0  0  0
   37.7030   23.6790   40.8970 C   0  0  0  0  0  0  0  0  0  0  0  0
   37.3740   23.8630   39.5240 C   0  0  0  0  0  0  0  0  0  0  0  0
   36.8290   25.1060   39.1650 C   0  0  0  0  0  0  0  0  0  0  0  0
   36.6540   26.0360   40.1240 N   0  0  0  0  0  0  0  0  0  0  0  0
   36.9790   25.8250   41.4170 C   0  0  0  0  0  0  0  0  0  0  0  0
   37.5030   24.6430   41.7950 N   0  0  0  0  0  0  0  0  0  0  0  0
   37.5260   23.0970   38.7820 H   0  0  0  0  0  0  0  0  0  0  0  0
   36.5500   25.3280   38.1390 H   0  0  0  0  0  0  0  0  0  0  0  0
   38.2330   22.4640   41.2460 O   0  0  0  0  0  0  0  0  0  0  0  0
   37.6800   21.6310   41.1760 H   0  0  0  0  0  0  0  0  0  0  0  0
   37.6420   31.8900   40.9440 O   0  0  0  0  0  0  0  0  0  0  0  0
   38.3400   32.9560   40.6250 C   0  0  0  0  0  2  0  0  0  0  0  0
   39.6930   32.9490   41.2220 N   0  0  0  0  0  4  0  0  0  0  0  0
   39.7850   33.6330   41.9780 H   0  0  0  0  0  0  0  0  0  0  0  0
   39.9420   31.6240   41.8150 C   0  0  0  0  0  2  0  0  0  0  0  0
   38.9180   31.2430   42.0940 H   0  0  0  0  0  0  0  0  0  0  0  0
   40.7240   33.1280   40.2350 C   0  0  0  0  0  2  0  0  0  0  0  0
   40.9760   34.1630   40.0050 H   0  0  0  0  0  0  0  0  0  0  0  0
  1  6  1  1  0  0  0
  1 28  1  0  0  0  0
  2  1  1  0  0  0  0
  2  7  1  1  0  0  0
  2 12  1  0  0  0  0
  3  2  1  0  0  0  0
  4  5  1  0  0  0  0
  4  3  1  0  0  0  0
  5  1  1  0  0  0  0
  8  3  1  0  0  0  0
  9  3  1  0  0  0  0
 10  5  1  0  0  0  0
 11  5  1  0  0  0  0
 12 14  1  0  0  0  0
 14 13  2  6  0  0  0
 14 17  1  0  0  0  0
 14 15  1  0  0  0  0
 15 16  1  0  0  0  0
 18 26  1  0  0  0  0
 18 23  1  0  0  0  0
 19 18  2  0  0  0  0
 20 19  1  0  0  0  0
 20 21  2  0  0  0  0
 21 22  1  0  0  0  0
 22 23  2  0  0  0  0
 22 17  1  0  0  0  0
 24 19  1  0  0  0  0
 25 20  1  0  0  0  0
 27 26  1  0  0  0  0
 29 28  1  0  0  0  0
 29 30  1  0  0  0  0
 30 32  1  0  0  0  0
 30 31  1  0  0  0  0
 32 33  1  0  0  0  0
 34 30  1  0  0  0  0
 35 34  1  0  0  0  0
M  END
>  <minimizedAffinity>
-4.77532864

$$$$

 OpenBabel03252500263D

 35 36  0  0  1  0  0  0  0  0999 V2000
   37.4760   26.5800   41.6400 C   0  0  2  0  0  0  0  0  0  0  0  0
   36.6470   27.2140   40.5900 C   0  0  2  0  0  0  0  0  0  0  0  0
   36.5150   26.1590   39.5540 C   0  0  0  0  0  0  0  0  0  0  0  0
   36.5760   24.9350   40.1910 O   0  0  0  0  0  0  0  0  0  0  0  0
   36.9360   25.1320   41.4840 C   0  0  0  0  0  0  0  0  0  0  0  0
   38.5130   26.4150   41.6010 H   0  0  0  0  0  0  0  0  0  0  0  0
   35.6510   27.3820   41.0830 H   0  0  0  0  0  0  0  0  0  0  0  0
   35.4450   26.1950   39.1780 H   0  0  0  0  0  0  0  0  0  0  0  0
   37.0810   26.2630   38.6290 H   0  0  0  0  0  0  0  0  0  0  0  0
   36.0320   25.1420   42.1540 H   0  0  0  0  0  0  0  0  0  0  0  0
   37.6210   24.3860   41.8760 H   0  0  0  0  0  0  0  0  0  0  0  0
   37.1880   28.3800   40.0980 O   0  0  0  0  0  0  0  0  0  0  0  0
   34.7320   29.0310   39.7040 O   0  0  0  0  0  0  0  0  0  0  0  0
   36.0590   29.5980   40.1290 P   0  0  1  0  0  0  0  0  0  0  0  0
   35.9100   30.1890   41.7110 O   0  0  0  0  0  0  0  0  0  0  0  0
   36.2400   31.1010   41.7820 H   0  0  0  0  0  0  0  0  0  0  0  0
   36.4230   30.8560   39.0290 O   0  0  0  0  0  0  0  0  0  0  0  0
   39.5060   32.2950   37.9260 C   0  0  0  0  0  0  0  0  0  0  0  0
   40.0270   32.9320   39.0870 C   0  0  0  0  0  0  0  0  0  0  0  0
   39.2590   32.8380   40.2590 C   0  0  0  0  0  0  0  0  0  0  0  0
   38.0950   32.1610   40.2160 N   0  0  0  0  0  0  0  0  0  0  0  0
   37.6330   31.5670   39.0950 C   0  0  0  0  0  0  0  0  0  0  0  0
   38.3450   31.6390   37.9540 N   0  0  0  0  0  0  0  0  0  0  0  0
   40.9620   33.4670   39.0870 H   0  0  0  0  0  0  0  0  0  0  0  0
   39.5840   33.2970   41.1880 H   0  0  0  0  0  0  0  0  0  0  0  0
   40.2560   32.3880   36.7820 O   0  0  0  0  0  0  0  0  0  0  0  0
   40.3940   33.2770   36.3400 H   0  0  0  0  0  0  0  0  0  0  0  0
   37.2730   27.0430   42.9060 O   0  0  0  0  0  0  0  0  0  0  0  0
   38.0250   27.9170   43.5350 C   0  0  0  0  0  2  0  0  0  0  0  0
   39.1580   28.3900   42.7120 N   0  0  0  0  0  4  0  0  0  0  0  0
   39.0500   28.1380   41.7250 H   0  0  0  0  0  0  0  0  0  0  0  0
   39.2080   29.8610   42.7730 C   0  0  0  0  0  2  0  0  0  0  0  0
   38.1390   30.1710   42.9570 H   0  0  0  0  0  0  0  0  0  0  0  0
   40.4260   27.9420   43.2230 C   0  0  0  0  0  2  0  0  0  0  0  0
   40.7520   26.9630   42.8710 H   0  0  0  0  0  0  0  0  0  0  0  0
  1  6  1  6  0  0  0
  1 28  1  0  0  0  0
  2  7  1  1  0  0  0
  2  1  1  0  0  0  0
  3  4  1  0  0  0  0
  3  2  1  0  0  0  0
  4  5  1  0  0  0  0
  5  1  1  0  0  0  0
  5 11  1  0  0  0  0
  5 10  1  0  0  0  0
  8  3  1  0  0  0  0
  9  3  1  0  0  0  0
 12 14  1  0  0  0  0
 12  2  1  0  0  0  0
 14 13  2  6  0  0  0
 14 15  1  0  0  0  0
 15 16  1  0  0  0  0
 17 22  1  0  0  0  0
 17 14  1  0  0  0  0
 18 23  2  0  0  0  0
 18 19  1  0  0  0  0
 19 20  2  0  0  0  0
 20 25  1  0  0  0  0
 21 20  1  0  0  0  0
 22 21  2  0  0  0  0
 23 22  1  0  0  0  0
 24 19  1  0  0  0  0
 26 18  1  0  0  0  0
 27 26  1  0  0  0  0
 28 29  1  0  0  0  0
 30 32  1  0  0  0  0
 30 34  1  0  0  0  0
 30 29  1  0  0  0  0
 31 30  1  0  0  0  0
 32 33  1  0  0  0  0
 35 34  1  0  0  0  0
M  END
>  <minimizedAffinity>
-4.77237368

$$$$

 OpenBabel03252500263D

 35 36  0  0  1  0  0  0  0  0999 V2000
   38.5610   27.9560   41.3950 C   0  0  2  0  0  0  0  0  0  0  0  0
   37.1960   28.4490   41.6930 C   0  0  2  0  0  0  0  0  0  0  0  0
   36.8570   27.8020   42.9850 C   0  0  0  0  0  0  0  0  0  0  0  0
   38.0350   27.6080   43.6790 O   0  0  0  0  0  0  0  0  0  0  0  0
   39.0780   27.8840   42.8580 C   0  0  0  0  0  0  0  0  0  0  0  0
   38.8150   26.9990   41.0420 H   0  0  0  0  0  0  0  0  0  0  0  0
   37.3260   29.5540   41.8500 H   0  0  0  0  0  0  0  0  0  0  0  0
   36.3180   28.5770   43.6130 H   0  0  0  0  0  0  0  0  0  0  0  0
   36.1430   26.9790   42.9840 H   0  0  0  0  0  0  0  0  0  0  0  0
   39.4560   28.9310   43.0280 H   0  0  0  0  0  0  0  0  0  0  0  0
   39.9250   27.2130   42.9690 H   0  0  0  0  0  0  0  0  0  0  0  0
   36.2860   28.1670   40.7000 O   0  0  0  0  0  0  0  0  0  0  0  0
   34.1840   29.2570   39.6980 O   0  0  0  0  0  0  0  0  0  0  0  0
   35.5860   29.5680   40.1450 P   0  0  1  0  0  0  0  0  0  0  0  0
   35.5120   30.6990   41.4050 O   0  0  0  0  0  0  0  0  0  0  0  0
   36.1000   31.4560   41.2390 H   0  0  0  0  0  0  0  0  0  0  0  0
   36.3980   30.2090   38.7830 O   0  0  0  0  0  0  0  0  0  0  0  0
   39.2880   32.1030   37.8620 C   0  0  0  0  0  0  0  0  0  0  0  0
   39.6260   32.8190   39.0450 C   0  0  0  0  0  0  0  0  0  0  0  0
   38.8060   32.6120   40.1660 C   0  0  0  0  0  0  0  0  0  0  0  0
   37.7650   31.7630   40.0570 N   0  0  0  0  0  0  0  0  0  0  0  0
   37.4760   31.1000   38.9180 C   0  0  0  0  0  0  0  0  0  0  0  0
   38.2430   31.2760   37.8240 N   0  0  0  0  0  0  0  0  0  0  0  0
   40.4650   33.4920   39.0980 H   0  0  0  0  0  0  0  0  0  0  0  0
   38.9940   33.1200   41.1080 H   0  0  0  0  0  0  0  0  0  0  0  0
   40.0890   32.3070   36.7680 O   0  0  0  0  0  0  0  0  0  0  0  0
   40.1180   33.2040   36.3230 H   0  0  0  0  0  0  0  0  0  0  0  0
   39.3340   28.7900   40.6440 O   0  0  0  0  0  0  0  0  0  0  0  0
   40.6380   28.7130   40.5040 C   0  0  0  0  0  2  0  0  0  0  0  0
   41.2910   30.0390   40.5230 N   0  0  0  0  0  4  0  0  0  0  0  0
   40.6120   30.8040   40.4930 H   0  0  0  0  0  0  0  0  0  0  0  0
   42.0380   30.1810   41.7840 C   0  0  0  0  0  2  0  0  0  0  0  0
   41.4820   29.5280   42.5160 H   0  0  0  0  0  0  0  0  0  0  0  0
   42.2710   30.1780   39.4790 C   0  0  0  0  0  2  0  0  0  0  0  0
   41.8870   30.5290   38.5210 H   0  0  0  0  0  0  0  0  0  0  0  0
  1  6  1  6  0  0  0
  1  2  1  0  0  0  0
  1  5  1  0  0  0  0
  2  7  1  1  0  0  0
  2  3  1  0  0  0  0
  3  8  1  0  0  0  0
  3  4  1  0  0  0  0
  5 11  1  0  0  0  0
  5 10  1  0  0  0  0
  5  4  1  0  0  0  0
  9  3  1  0  0  0  0
 12  2  1  0  0  0  0
 14 13  2  6  0  0  0
 14 12  1  0  0  0  0
 14 15  1  0  0  0  0
 16 15  1  0  0  0  0
 17 22  1  0  0  0  0
 17 14  1  0  0  0  0
 18 19  1  0  0  0  0
 19 24  1  0  0  0  0
 19 20  2  0  0  0  0
 20 25  1  0  0  0  0
 21 20  1  0  0  0  0
 22 21  2  0  0  0  0
 23 18  2  0  0  0  0
 23 22  1  0  0  0  0
 26 18  1  0  0  0  0
 27 26  1  0  0  0  0
 28  1  1  0  0  0  0
 29 30  1  0  0  0  0
 29 28  1  0  0  0  0
 30 32  1  0  0  0  0
 31 30  1  0  0  0  0
 32 33  1  0  0  0  0
 34 30  1  0  0  0  0
 35 34  1  0  0  0  0
M  END
>  <minimizedAffinity>
-4.67966938

$$$$

 OpenBabel03252500263D

 35 36  0  0  1  0  0  0  0  0999 V2000
   37.8140   27.5960   42.9260 C   0  0  2  0  0  0  0  0  0  0  0  0
   38.1190   28.8350   42.1740 C   0  0  2  0  0  0  0  0  0  0  0  0
   39.4050   29.2970   42.7540 C   0  0  0  0  0  0  0  0  0  0  0  0
   40.0950   28.1820   43.1860 O   0  0  0  0  0  0  0  0  0  0  0  0
   39.2750   27.1040   43.1150 C   0  0  0  0  0  0  0  0  0  0  0  0
   37.4510   27.5380   43.9100 H   0  0  0  0  0  0  0  0  0  0  0  0
   38.2870   28.4870   41.1180 H   0  0  0  0  0  0  0  0  0  0  0  0
   40.0420   29.6710   41.8930 H   0  0  0  0  0  0  0  0  0  0  0  0
   39.3960   30.1610   43.4170 H   0  0  0  0  0  0  0  0  0  0  0  0
   39.4560   26.5250   42.1660 H   0  0  0  0  0  0  0  0  0  0  0  0
   39.3780   26.4080   43.9420 H   0  0  0  0  0  0  0  0  0  0  0  0
   37.1240   29.7820   42.2570 O   0  0  0  0  0  0  0  0  0  0  0  0
   35.4950   29.5480   40.2820 O   0  0  0  0  0  0  0  0  0  0  0  0
   36.7050   30.3140   40.7400 P   0  0  1  0  0  0  0  0  0  0  0  0
   36.3070   31.9600   40.8100 O   0  0  0  0  0  0  0  0  0  0  0  0
   36.9570   32.5050   40.3330 H   0  0  0  0  0  0  0  0  0  0  0  0
   37.9310   30.0220   39.5830 O   0  0  0  0  0  0  0  0  0  0  0  0
   40.0710   32.8600   39.9710 C   0  0  0  0  0  0  0  0  0  0  0  0
   40.7110   32.9880   38.7070 C   0  0  0  0  0  0  0  0  0  0  0  0
   40.3650   32.0460   37.7240 C   0  0  0  0  0  0  0  0  0  0  0  0
   39.4630   31.0940   38.0310 N   0  0  0  0  0  0  0  0  0  0  0  0
   38.8750   31.0050   39.2430 C   0  0  0  0  0  0  0  0  0  0  0  0
   39.1840   31.8920   40.2080 N   0  0  0  0  0  0  0  0  0  0  0  0
   41.4300   33.7610   38.4940 H   0  0  0  0  0  0  0  0  0  0  0  0
   40.8080   32.0730   36.7330 H   0  0  0  0  0  0  0  0  0  0  0  0
   40.4100   33.7790   40.9300 O   0  0  0  0  0  0  0  0  0  0  0  0
   41.3400   33.8000   41.3030 H   0  0  0  0  0  0  0  0  0  0  0  0
   37.0700   26.6720   42.2550 O   0  0  0  0  0  0  0  0  0  0  0  0
   37.0980   26.4550   40.9590 C   0  0  0  0  0  2  0  0  0  0  0  0
   37.3550   25.0390   40.6250 N   0  0  0  0  0  4  0  0  0  0  0  0
   36.7430   24.7010   39.8770 H   0  0  0  0  0  0  0  0  0  0  0  0
   38.7380   24.9110   40.1320 C   0  0  0  0  0  2  0  0  0  0  0  0
   38.9690   25.9180   39.6800 H   0  0  0  0  0  0  0  0  0  0  0  0
   37.2800   24.1840   41.7800 C   0  0  0  0  0  2  0  0  0  0  0  0
   36.2850   23.8090   42.0190 H   0  0  0  0  0  0  0  0  0  0  0  0
  1  5  1  0  0  0  0
  1  6  1  1  0  0  0
  2  7  1  6  0  0  0
  2 12  1  0  0  0  0
  2  3  1  0  0  0  0
  2  1  1  0  0  0  0
  3  4  1  0  0  0  0
  3  9  1  0  0  0  0
  5  4  1  0  0  0  0
  5 11  1  0  0  0  0
  8  3  1  0  0  0  0
 10  5  1  0  0  0  0
 14 13  2  6  0  0  0
 14 15  1  0  0  0  0
 14 12  1  0  0  0  0
 16 15  1  0  0  0  0
 17 14  1  0  0  0  0
 18 23  1  0  0  0  0
 18 26  1  0  0  0  0
 19 18  2  0  0  0  0
 20 21  2  0  0  0  0
 20 19  1  0  0  0  0
 21 22  1  0  0  0  0
 22 17  1  0  0  0  0
 22 23  2  0  0  0  0
 24 19  1  0  0  0  0
 25 20  1  0  0  0  0
 26 27  1  0  0  0  0
 28  1  1  0  0  0  0
 29 28  1  0  0  0  0
 30 29  1  0  0  0  0
 30 34  1  0  0  0  0
 31 30  1  0  0  0  0
 32 30  1  0  0  0  0
 33 32  1  0  0  0  0
 34 35  1  0  0  0  0
M  END
>  <minimizedAffinity>
-4.66580009

$$$$

 OpenBabel03252500263D

 35 36  0  0  1  0  0  0  0  0999 V2000
   39.0180   29.7560   38.5470 C   0  0  2  0  0  0  0  0  0  0  0  0
   38.8040   28.9960   39.8010 C   0  0  2  0  0  0  0  0  0  0  0  0
   39.7520   27.8580   39.6940 C   0  0  0  0  0  0  0  0  0  0  0  0
   40.8280   28.2770   38.9390 O   0  0  0  0  0  0  0  0  0  0  0  0
   40.5410   29.4890   38.4020 C   0  0  0  0  0  0  0  0  0  0  0  0
   38.6730   29.4900   37.5910 H   0  0  0  0  0  0  0  0  0  0  0  0
   39.1470   29.6940   40.6130 H   0  0  0  0  0  0  0  0  0  0  0  0
   40.2070   27.7080   40.7220 H   0  0  0  0  0  0  0  0  0  0  0  0
   39.3520   26.8680   39.4800 H   0  0  0  0  0  0  0  0  0  0  0  0
   40.9880   30.3170   39.0210 H   0  0  0  0  0  0  0  0  0  0  0  0
   40.8930   29.6220   37.3830 H   0  0  0  0  0  0  0  0  0  0  0  0
   37.5010   28.5920   39.9780 O   0  0  0  0  0  0  0  0  0  0  0  0
   37.9150   30.1150   42.0070 O   0  0  0  0  0  0  0  0  0  0  0  0
   36.9120   29.1570   41.4250 P   0  0  1  0  0  0  0  0  0  0  0  0
   35.4620   29.9920   41.1560 O   0  0  0  0  0  0  0  0  0  0  0  0
   34.7040   29.5220   41.5430 H   0  0  0  0  0  0  0  0  0  0  0  0
   36.7060   27.9110   42.5780 O   0  0  0  0  0  0  0  0  0  0  0  0
   38.3060   24.7210   42.3630 C   0  0  0  0  0  0  0  0  0  0  0  0
   39.5150   24.8880   43.0940 C   0  0  0  0  0  0  0  0  0  0  0  0
   39.7440   26.1530   43.6590 C   0  0  0  0  0  0  0  0  0  0  0  0
   38.8200   27.1170   43.4780 N   0  0  0  0  0  0  0  0  0  0  0  0
   37.6830   26.9210   42.7780 C   0  0  0  0  0  0  0  0  0  0  0  0
   37.4330   25.7190   42.2230 N   0  0  0  0  0  0  0  0  0  0  0  0
   40.2330   24.0950   43.2190 H   0  0  0  0  0  0  0  0  0  0  0  0
   40.6410   26.3650   44.2320 H   0  0  0  0  0  0  0  0  0  0  0  0
   38.0850   23.4850   41.8110 O   0  0  0  0  0  0  0  0  0  0  0  0
   38.6790   23.1440   41.0800 H   0  0  0  0  0  0  0  0  0  0  0  0
   38.7610   31.0920   38.6210 O   0  0  0  0  0  0  0  0  0  0  0  0
   39.3990   31.9580   39.3760 C   0  0  0  0  0  2  0  0  0  0  0  0
   38.5100   32.6300   40.3470 N   0  0  0  0  0  4  0  0  0  0  0  0
   38.4530   32.1230   41.2340 H   0  0  0  0  0  0  0  0  0  0  0  0
   39.0620   33.9610   40.6520 C   0  0  0  0  0  2  0  0  0  0  0  0
   40.1730   33.8480   40.4960 H   0  0  0  0  0  0  0  0  0  0  0  0
   37.1990   32.8740   39.8060 C   0  0  0  0  0  2  0  0  0  0  0  0
   36.4870   32.0560   39.9220 H   0  0  0  0  0  0  0  0  0  0  0  0
  1  6  1  6  0  0  0
  1 28  1  0  0  0  0
  1  2  1  0  0  0  0
  2 12  1  0  0  0  0
  2  7  1  1  0  0  0
  3  2  1  0  0  0  0
  3  8  1  0  0  0  0
  4  3  1  0  0  0  0
  5  1  1  0  0  0  0
  5  4  1  0  0  0  0
  5 10  1  0  0  0  0
  9  3  1  0  0  0  0
 11  5  1  0  0  0  0
 12 14  1  0  0  0  0
 14 13  2  1  0  0  0
 14 17  1  0  0  0  0
 15 14  1  0  0  0  0
 15 16  1  0  0  0  0
 17 22  1  0  0  0  0
 18 19  1  0  0  0  0
 19 24  1  0  0  0  0
 19 20  2  0  0  0  0
 20 25  1  0  0  0  0
 21 20  1  0  0  0  0
 22 21  2  0  0  0  0
 23 18  2  0  0  0  0
 23 22  1  0  0  0  0
 26 18  1  0  0  0  0
 27 26  1  0  0  0  0
 28 29  1  0  0  0  0
 29 30  1  0  0  0  0
 30 32  1  0  0  0  0
 30 31  1  0  0  0  0
 33 32  1  0  0  0  0
 34 35  1  0  0  0  0
 34 30  1  0  0  0  0
M  END
>  <minimizedAffinity>
-4.60268068

$$$$
