
 OpenBabel03252502073D

 46 49  0  0  0  0  0  0  0  0999 V2000
   47.4720   32.0380   47.8510 C   0  0  0  0  0  0  0  0  0  0  0  0
   46.9300   30.7470   47.8810 C   0  0  0  0  0  0  0  0  0  0  0  0
   45.9420   30.4780   46.9950 C   0  0  0  0  0  0  0  0  0  0  0  0
   45.5280   31.4240   46.1380 N   0  0  0  0  0  0  0  0  0  0  0  0
   46.0230   32.6420   46.0890 C   0  0  0  0  0  0  0  0  0  0  0  0
   47.0090   32.9360   46.9670 N   0  0  0  0  0  0  0  0  0  0  0  0
   45.3430   29.2390   46.9780 N   0  0  0  0  0  0  0  0  0  0  0  0
   44.1340   28.8930   46.1760 C   0  0  0  0  0  0  0  0  0  0  0  0
   44.0180   27.3980   46.2330 C   0  0  0  0  0  0  0  0  0  0  0  0
   44.6690   27.0610   47.5300 C   0  0  0  0  0  0  0  0  0  0  0  0
   45.7450   28.0760   47.7140 C   0  0  0  0  0  0  0  0  0  0  0  0
   48.2740   32.3080   48.5510 H   0  0  0  0  0  0  0  0  0  0  0  0
   44.2240   29.2130   45.1400 H   0  0  0  0  0  0  0  0  0  0  0  0
   43.2890   29.4050   46.7130 H   0  0  0  0  0  0  0  0  0  0  0  0
   42.9420   27.0680   46.2870 H   0  0  0  0  0  0  0  0  0  0  0  0
   44.5600   26.9240   45.4120 H   0  0  0  0  0  0  0  0  0  0  0  0
   43.9060   27.0480   48.3550 H   0  0  0  0  0  0  0  0  0  0  0  0
   45.0990   26.0340   47.5220 H   0  0  0  0  0  0  0  0  0  0  0  0
   45.7170   28.2960   48.8020 H   0  0  0  0  0  0  0  0  0  0  0  0
   46.6810   27.6370   47.3490 H   0  0  0  0  0  0  0  0  0  0  0  0
   45.7310   33.8000   45.2110 C   0  0  0  0  0  0  0  0  0  0  0  0
   44.8680   34.7760   45.5250 N   0  0  0  0  0  0  0  0  0  0  0  0
   44.5980   35.8270   44.7550 C   0  0  0  0  0  0  0  0  0  0  0  0
   45.2120   35.9700   43.5580 N   0  0  0  0  0  0  0  0  0  0  0  0
   46.0880   35.0700   43.1350 C   0  0  0  0  0  0  0  0  0  0  0  0
   46.7300   35.2070   41.9130 C   0  0  0  0  0  0  0  0  0  0  0  0
   47.6360   34.2950   41.4730 C   0  0  0  0  0  0  0  0  0  0  0  0
   47.9010   33.2170   42.2820 C   0  0  0  0  0  0  0  0  0  0  0  0
   47.2460   33.1020   43.4970 C   0  0  0  0  0  0  0  0  0  0  0  0
   46.3340   33.9950   43.9720 C   0  0  0  0  0  0  0  0  0  0  0  0
   43.8730   36.5650   45.1150 H   0  0  0  0  0  0  0  0  0  0  0  0
   46.5030   36.0650   41.2950 H   0  0  0  0  0  0  0  0  0  0  0  0
   48.1220   34.4280   40.5160 H   0  0  0  0  0  0  0  0  0  0  0  0
   47.6340   31.9240   44.1980 N   0  0  0  0  0  0  0  0  0  0  0  0
   46.9760   31.2070   43.8140 H   0  0  0  0  0  0  0  0  0  0  0  0
   48.3600   31.7000   44.9090 H   0  0  0  0  0  0  0  0  0  0  0  0
   48.9000   32.2380   41.7780 C   0  0  0  0  0  2  0  0  0  0  0  0
   50.2220   32.4760   42.2920 N   0  0  0  0  0  4  0  0  0  0  0  0
   50.3270   31.9730   43.1910 H   0  0  0  0  0  0  0  0  0  0  0  0
   50.5390   33.8760   42.4290 C   0  0  0  0  0  2  0  0  0  0  0  0
   51.4890   33.9430   43.0020 H   0  0  0  0  0  0  0  0  0  0  0  0
   51.2290   31.9360   41.3840 C   0  0  0  0  0  2  0  0  0  0  0  0
   51.3520   32.6670   40.5380 H   0  0  0  0  0  0  0  0  0  0  0  0
   47.4670   29.8550   48.7690 N   0  0  0  0  0  0  0  0  0  0  0  0
   48.1600   29.1680   48.4000 H   0  0  0  0  0  0  0  0  0  0  0  0
   47.2360   29.8110   49.8070 H   0  0  0  0  0  0  0  0  0  0  0  0
  1  2  1  0  0  0  0
  1 12  1  0  0  0  0
  2 44  1  0  0  0  0
  3  2  2  0  0  0  0
  4  3  1  0  0  0  0
  5  4  2  0  0  0  0
  5  6  1  0  0  0  0
  6  1  2  0  0  0  0
  7  3  1  0  0  0  0
  7 11  1  0  0  0  0
  8  9  1  0  0  0  0
  8 14  1  0  0  0  0
  8  7  1  0  0  0  0
  9 15  1  0  0  0  0
  9 10  1  0  0  0  0
 10 11  1  0  0  0  0
 10 17  1  0  0  0  0
 11 19  1  0  0  0  0
 13  8  1  0  0  0  0
 16  9  1  0  0  0  0
 18 10  1  0  0  0  0
 20 11  1  0  0  0  0
 21 22  1  0  0  0  0
 21  5  1  0  0  0  0
 23 31  1  0  0  0  0
 23 22  2  0  0  0  0
 24 23  1  0  0  0  0
 25 24  2  0  0  0  0
 25 30  1  0  0  0  0
 26 25  1  0  0  0  0
 27 26  2  0  0  0  0
 27 28  1  0  0  0  0
 28 29  2  0  0  0  0
 29 30  1  0  0  0  0
 29 34  1  0  0  0  0
 30 21  2  0  0  0  0
 32 26  1  0  0  0  0
 33 27  1  0  0  0  0
 34 36  1  0  0  0  0
 35 34  1  0  0  0  0
 37 28  1  0  0  0  0
 37 38  1  0  0  0  0
 38 40  1  0  0  0  0
 38 39  1  0  0  0  0
 40 41  1  0  0  0  0
 42 38  1  0  0  0  0
 43 42  1  0  0  0  0
 44 46  1  0  0  0  0
 45 44  1  0  0  0  0
M  END
>  <minimizedAffinity>
-6.67372179

>  <minimizedRMSD>
0.295601666

$$$$
