
 OpenBabel03252507523D

 29 30  0  0  1  0  0  0  0  0999 V2000
   47.0010   34.8070   41.9800 C   0  0  2  0  0  0  0  0  0  0  0  0
   46.3280   34.2050   40.7940 C   0  0  0  0  0  0  0  0  0  0  0  0
   47.5280   34.0060   39.8780 C   0  0  0  0  0  0  0  0  0  0  0  0
   48.6980   33.7190   40.8090 C   0  0  1  0  0  0  0  0  0  0  0  0
   48.1280   33.7890   42.2090 C   0  0  0  0  0  0  0  0  0  0  0  0
   47.4730   35.7690   41.7080 H   0  0  0  0  0  0  0  0  0  0  0  0
   45.8220   33.2670   41.0170 H   0  0  0  0  0  0  0  0  0  0  0  0
   45.6870   34.9770   40.3270 H   0  0  0  0  0  0  0  0  0  0  0  0
   47.2740   33.1270   39.2480 H   0  0  0  0  0  0  0  0  0  0  0  0
   47.7050   34.8810   39.2240 H   0  0  0  0  0  0  0  0  0  0  0  0
   49.4110   34.5300   40.6940 H   0  0  0  0  0  0  0  0  0  0  0  0
   48.8490   34.2850   42.8870 H   0  0  0  0  0  0  0  0  0  0  0  0
   47.7010   32.8520   42.5770 H   0  0  0  0  0  0  0  0  0  0  0  0
   44.5070   36.0160   44.5410 C   0  0  0  0  0  0  0  0  0  0  0  0
   45.2380   35.9920   43.3600 C   0  0  0  0  0  0  0  0  0  0  0  0
   46.1600   34.9660   43.1840 C   0  0  0  0  0  0  0  0  0  0  0  0
   46.2920   34.0420   44.1830 N   0  0  0  0  0  0  0  0  0  0  0  0
   45.5730   34.0840   45.3210 C   0  0  0  0  0  0  0  0  0  0  0  0
   44.6800   35.0690   45.5040 N   0  0  0  0  0  0  0  0  0  0  0  0
   43.7740   36.8060   44.7140 H   0  0  0  0  0  0  0  0  0  0  0  0
   45.1260   36.7170   42.5890 H   0  0  0  0  0  0  0  0  0  0  0  0
   45.7140   33.3330   46.0810 H   0  0  0  0  0  0  0  0  0  0  0  0
   49.1880   32.3470   40.5060 C   0  0  0  0  0  2  0  0  0  0  0  0
   50.5330   32.2450   40.0440 N   0  0  0  0  0  4  0  0  0  0  0  0
   50.8100   33.2290   39.7430 H   0  0  0  0  0  0  0  0  0  0  0  0
   51.4830   31.8610   41.0480 C   0  0  0  0  0  2  0  0  0  0  0  0
   51.9820   30.9090   40.7180 H   0  0  0  0  0  0  0  0  0  0  0  0
   50.6660   31.4620   38.8160 C   0  0  0  0  0  2  0  0  0  0  0  0
   51.5670   31.8420   38.2540 H   0  0  0  0  0  0  0  0  0  0  0  0
  1  6  1  6  0  0  0
  1  5  1  0  0  0  0
  1 16  1  0  0  0  0
  2  7  1  0  0  0  0
  2  1  1  0  0  0  0
  3  2  1  0  0  0  0
  3  4  1  0  0  0  0
  4 11  1  6  0  0  0
  4  5  1  0  0  0  0
  5 13  1  0  0  0  0
  5 12  1  0  0  0  0
  8  2  1  0  0  0  0
  9  3  1  0  0  0  0
 10  3  1  0  0  0  0
 14 20  1  0  0  0  0
 14 19  1  0  0  0  0
 15 14  2  0  0  0  0
 16 15  1  0  0  0  0
 16 17  2  0  0  0  0
 17 18  1  0  0  0  0
 18 19  2  0  0  0  0
 18 22  1  0  0  0  0
 21 15  1  0  0  0  0
 23  4  1  0  0  0  0
 24 23  1  0  0  0  0
 24 26  1  0  0  0  0
 25 24  1  0  0  0  0
 27 26  1  0  0  0  0
 28 24  1  0  0  0  0
 29 28  1  0  0  0  0
M  END
>  <minimizedAffinity>
-4.65957355

>  <minimizedRMSD>
1.80252028

$$$$
