
 OpenBabel03242523203D

 35 37  0  0  0  0  0  0  0  0999 V2000
   46.3640   32.9810   43.8940 C   0  0  0  0  0  0  0  0  0  0  0  0
   45.8570   33.0690   44.9860 O   0  0  0  0  0  0  0  0  0  0  0  0
   44.0720   31.7170   42.2660 Cl  0  0  0  0  0  0  0  0  0  0  0  0
   44.3270   33.4620   42.3700 C   0  0  0  0  0  0  0  0  0  0  0  0
   45.4250   33.8680   43.1590 C   0  0  0  0  0  0  0  0  0  0  0  0
   45.5330   35.2480   43.1540 C   0  0  0  0  0  0  0  0  0  0  0  0
   44.7850   36.1730   42.5390 C   0  0  0  0  0  0  0  0  0  0  0  0
   43.7450   35.6980   41.7980 C   0  0  0  0  0  0  0  0  0  0  0  0
   43.4990   34.3700   41.7020 C   0  0  0  0  0  0  0  0  0  0  0  0
   46.3290   35.7370   43.7590 H   0  0  0  0  0  0  0  0  0  0  0  0
   44.9220   37.2430   42.5720 H   0  0  0  0  0  0  0  0  0  0  0  0
   43.0520   36.3250   41.2430 H   0  0  0  0  0  0  0  0  0  0  0  0
   42.3470   33.8290   40.9160 C   0  0  0  0  0  2  0  0  0  0  0  0
   41.1960   34.6750   40.9660 N   0  0  0  0  0  4  0  0  0  0  0  0
   41.5150   35.5620   41.4690 H   0  0  0  0  0  0  0  0  0  0  0  0
   40.0530   34.1630   41.6500 C   0  0  0  0  0  2  0  0  0  0  0  0
   39.2300   33.9050   40.9210 H   0  0  0  0  0  0  0  0  0  0  0  0
   40.8080   35.1080   39.6400 C   0  0  0  0  0  2  0  0  0  0  0  0
   41.1930   36.1350   39.4070 H   0  0  0  0  0  0  0  0  0  0  0  0
   47.3720   32.4800   42.9530 C   0  0  0  0  0  0  0  0  0  0  0  0
   48.3550   33.1960   42.3860 C   0  0  0  0  0  0  0  0  0  0  0  0
   49.1100   32.5040   41.4620 C   0  0  0  0  0  0  0  0  0  0  0  0
   48.7980   31.1540   41.2080 N   0  0  0  0  0  0  0  0  0  0  0  0
   47.8190   30.5210   41.8100 C   0  0  0  0  0  0  0  0  0  0  0  0
   47.0410   31.1820   42.7370 N   0  0  0  0  0  0  0  0  0  0  0  0
   49.9370   32.9350   40.9120 H   0  0  0  0  0  0  0  0  0  0  0  0
   47.7010   29.4830   41.5130 H   0  0  0  0  0  0  0  0  0  0  0  0
   48.7420   34.5200   42.7250 C   0  0  0  0  0  0  0  0  0  0  0  0
   49.8980   35.1710   42.4350 C   0  0  0  0  0  0  0  0  0  0  0  0
   48.7570   35.5830   41.5470 C   0  0  0  0  0  0  0  0  0  0  0  0
   48.2880   34.8840   43.6660 H   0  0  0  0  0  0  0  0  0  0  0  0
   50.7130   34.6520   41.8710 H   0  0  0  0  0  0  0  0  0  0  0  0
   50.3610   36.0510   42.9570 H   0  0  0  0  0  0  0  0  0  0  0  0
   48.6640   35.1360   40.5480 H   0  0  0  0  0  0  0  0  0  0  0  0
   48.2100   36.5040   41.7910 H   0  0  0  0  0  0  0  0  0  0  0  0
  1  2  2  0  0  0  0
  3  4  1  0  0  0  0
  4  5  1  0  0  0  0
  5  1  1  0  0  0  0
  6  5  2  0  0  0  0
  6 10  1  0  0  0  0
  7 11  1  0  0  0  0
  7  6  1  0  0  0  0
  8  7  2  0  0  0  0
  9  8  1  0  0  0  0
  9  4  2  0  0  0  0
 12  8  1  0  0  0  0
 13 14  1  0  0  0  0
 13  9  1  0  0  0  0
 14 15  1  0  0  0  0
 14 16  1  0  0  0  0
 17 16  1  0  0  0  0
 18 14  1  0  0  0  0
 19 18  1  0  0  0  0
 20  1  1  0  0  0  0
 21 28  1  0  0  0  0
 21 20  2  0  0  0  0
 22 21  1  0  0  0  0
 23 22  2  0  0  0  0
 23 24  1  0  0  0  0
 24 25  2  0  0  0  0
 25 20  1  0  0  0  0
 26 22  1  0  0  0  0
 27 24  1  0  0  0  0
 28 31  1  0  0  0  0
 29 28  1  0  0  0  0
 29 33  1  0  0  0  0
 30 35  1  0  0  0  0
 30 29  1  0  0  0  0
 30 28  1  0  0  0  0
 32 29  1  0  0  0  0
 34 30  1  0  0  0  0
M  END
>  <minimizedAffinity>
-4.99684048

>  <minimizedRMSD>
1.53288829

$$$$
