
 OpenBabel03252501053D

 38 40  0  0  1  0  0  0  0  0999 V2000
   48.6080   32.3410   37.9580 O   0  0  0  0  0  0  0  0  0  0  0  0
   48.1130   33.7670   38.1990 P   0  0  2  0  0  0  0  0  0  0  0  0
   49.3200   34.7730   37.5620 O   0  0  0  0  0  0  0  0  0  0  0  0
   48.9690   35.7020   37.6050 H   0  0  0  0  0  0  0  0  0  0  0  0
   47.7500   34.0410   39.7700 O   0  0  0  0  0  0  0  0  0  0  0  0
   47.9600   35.4040   41.7590 C   0  0  1  0  0  0  0  0  0  0  0  0
   49.2220   34.6550   41.6980 C   0  0  0  0  0  0  0  0  0  0  0  0
   48.4190   35.0060   40.4310 C   0  0  1  0  0  0  0  0  0  0  0  0
   47.9870   36.4610   42.0640 H   0  0  0  0  0  0  0  0  0  0  0  0
   49.2800   33.5500   41.8930 H   0  0  0  0  0  0  0  0  0  0  0  0
   50.2040   35.1410   41.8360 H   0  0  0  0  0  0  0  0  0  0  0  0
   48.9710   35.7260   39.7980 H   0  0  0  0  0  0  0  0  0  0  0  0
   45.9240   32.9460   43.8000 C   0  0  0  0  0  0  0  0  0  0  0  0
   47.0120   33.6570   43.3050 C   0  0  0  0  0  0  0  0  0  0  0  0
   46.7960   34.6360   42.3170 C   0  0  0  0  0  0  0  0  0  0  0  0
   45.5310   34.8550   41.8770 N   0  0  0  0  0  0  0  0  0  0  0  0
   44.4850   34.1500   42.3730 C   0  0  0  0  0  0  0  0  0  0  0  0
   44.6780   33.2000   43.3290 N   0  0  0  0  0  0  0  0  0  0  0  0
   46.0990   32.1960   44.5590 H   0  0  0  0  0  0  0  0  0  0  0  0
   47.9880   33.4440   43.6860 H   0  0  0  0  0  0  0  0  0  0  0  0
   43.5080   34.3970   41.9590 H   0  0  0  0  0  0  0  0  0  0  0  0
   46.7570   33.9280   37.2240 O   0  0  0  0  0  0  0  0  0  0  0  0
   45.7030   33.0280   37.2090 C   0  0  0  0  0  0  0  0  0  0  0  0
   45.5020   31.9600   36.3540 C   0  0  0  0  0  0  0  0  0  0  0  0
   44.4040   31.1670   36.4760 C   0  0  0  0  0  0  0  0  0  0  0  0
   43.4580   31.3960   37.4510 C   0  0  0  0  0  0  0  0  0  0  0  0
   43.6960   32.4850   38.2980 C   0  0  0  0  0  0  0  0  0  0  0  0
   44.8000   33.2730   38.1650 N   0  0  0  0  0  0  0  0  0  0  0  0
   46.2820   31.8370   35.6120 H   0  0  0  0  0  0  0  0  0  0  0  0
   44.3090   30.3490   35.7730 H   0  0  0  0  0  0  0  0  0  0  0  0
   42.5970   30.7800   37.5530 H   0  0  0  0  0  0  0  0  0  0  0  0
   42.6790   32.7370   39.3510 C   0  0  0  0  0  2  0  0  0  0  0  0
   41.3270   32.7760   38.8880 N   0  0  0  0  0  4  0  0  0  0  0  0
   41.0800   31.9910   38.2430 H   0  0  0  0  0  0  0  0  0  0  0  0
   40.4580   32.5950   40.0420 C   0  0  0  0  0  2  0  0  0  0  0  0
   41.0230   32.8130   40.9870 H   0  0  0  0  0  0  0  0  0  0  0  0
   40.9870   34.0710   38.3260 C   0  0  0  0  0  2  0  0  0  0  0  0
   40.7930   34.7660   39.1880 H   0  0  0  0  0  0  0  0  0  0  0  0
  2  1  2  6  0  0  0
  2  5  1  0  0  0  0
  3  4  1  0  0  0  0
  3  2  1  0  0  0  0
  5  8  1  0  0  0  0
  6  9  1  1  0  0  0
  6 15  1  0  0  0  0
  7  6  1  0  0  0  0
  7 11  1  0  0  0  0
  7 10  1  0  0  0  0
  8 12  1  6  0  0  0
  8  7  1  0  0  0  0
  8  6  1  0  0  0  0
 13 19  1  0  0  0  0
 14 20  1  0  0  0  0
 14 13  2  0  0  0  0
 15 14  1  0  0  0  0
 16 15  2  0  0  0  0
 16 17  1  0  0  0  0
 17 18  2  0  0  0  0
 18 13  1  0  0  0  0
 21 17  1  0  0  0  0
 22  2  1  0  0  0  0
 23 22  1  0  0  0  0
 23 28  1  0  0  0  0
 24 25  1  0  0  0  0
 24 23  2  0  0  0  0
 25 26  2  0  0  0  0
 26 31  1  0  0  0  0
 26 27  1  0  0  0  0
 27 32  1  0  0  0  0
 28 27  2  0  0  0  0
 29 24  1  0  0  0  0
 30 25  1  0  0  0  0
 33 32  1  0  0  0  0
 33 35  1  0  0  0  0
 34 33  1  0  0  0  0
 35 36  1  0  0  0  0
 37 33  1  0  0  0  0
 37 38  1  0  0  0  0
M  END
>  <minimizedAffinity>
-4.54616213

>  <minimizedRMSD>
0.947037518

$$$$
