
 OpenBabel03252507023D

 36 37  0  0  0  0  0  0  0  0999 V2000
   45.0360   32.8990   40.2010 C   0  0  0  0  0  0  0  0  0  0  0  0
   44.2540   33.0370   39.3840 H   0  0  0  0  0  0  0  0  0  0  0  0
   45.9110   33.4240   39.7320 H   0  0  0  0  0  0  0  0  0  0  0  0
   44.7960   33.3900   41.4120 N   0  0  0  0  0  0  0  0  0  0  0  0
   45.6800   33.4980   42.5170 C   0  0  0  0  0  0  0  0  0  0  0  0
   45.9910   35.0120   42.4200 C   0  0  0  0  0  0  0  0  0  0  0  0
   44.8040   35.8550   42.5770 C   0  0  0  0  0  0  0  0  0  0  0  0
   43.4890   35.2830   42.2790 C   0  0  0  0  0  0  0  0  0  0  0  0
   43.4510   33.9350   41.6210 C   0  0  0  0  0  0  0  0  0  0  0  0
   45.3640   33.1880   43.4960 H   0  0  0  0  0  0  0  0  0  0  0  0
   46.6460   33.0000   42.2190 H   0  0  0  0  0  0  0  0  0  0  0  0
   46.7570   35.2280   43.2090 H   0  0  0  0  0  0  0  0  0  0  0  0
   46.4510   35.1370   41.4130 H   0  0  0  0  0  0  0  0  0  0  0  0
   44.9280   36.7560   41.9130 H   0  0  0  0  0  0  0  0  0  0  0  0
   44.7280   36.2880   43.6130 H   0  0  0  0  0  0  0  0  0  0  0  0
   42.5420   35.7250   42.4570 H   0  0  0  0  0  0  0  0  0  0  0  0
   41.9260   33.1850   41.1420 S   0  0  0  0  0  0  0  0  0  0  0  0
   41.5900   32.1380   42.0210 H   0  0  0  0  0  0  0  0  0  0  0  0
   45.3440   31.4320   40.2110 C   0  0  0  0  0  0  0  0  0  0  0  0
   45.1850   30.9360   41.1910 H   0  0  0  0  0  0  0  0  0  0  0  0
   46.4170   31.3130   39.9560 H   0  0  0  0  0  0  0  0  0  0  0  0
   44.5370   30.8080   39.1310 C   0  0  0  0  0  0  0  0  0  0  0  0
   45.1440   30.2570   38.0200 C   0  0  0  0  0  0  0  0  0  0  0  0
   44.3100   29.6980   37.0370 C   0  0  0  0  0  0  0  0  0  0  0  0
   42.9540   29.7290   37.2310 N   0  0  0  0  0  0  0  0  0  0  0  0
   42.4340   30.2780   38.3330 C   0  0  0  0  0  0  0  0  0  0  0  0
   43.2180   30.8030   39.2550 N   0  0  0  0  0  0  0  0  0  0  0  0
   46.2080   30.2550   37.9100 H   0  0  0  0  0  0  0  0  0  0  0  0
   44.7330   29.2540   36.1480 H   0  0  0  0  0  0  0  0  0  0  0  0
   40.9600   30.3090   38.5400 C   0  0  0  0  0  2  0  0  0  0  0  0
   40.2140   29.6760   37.4850 N   0  0  0  0  0  4  0  0  0  0  0  0
   39.2660   30.1120   37.4540 H   0  0  0  0  0  0  0  0  0  0  0  0
   40.7840   29.8450   36.1710 C   0  0  0  0  0  2  0  0  0  0  0  0
   40.5210   30.8220   35.7200 H   0  0  0  0  0  0  0  0  0  0  0  0
   39.9800   28.2690   37.7870 C   0  0  0  0  0  2  0  0  0  0  0  0
   40.5620   28.0220   38.7190 H   0  0  0  0  0  0  0  0  0  0  0  0
  1 19  1  0  0  0  0
  1  4  1  0  0  0  0
  2  1  1  0  0  0  0
  3  1  1  0  0  0  0
  4  9  1  0  0  0  0
  4  5  1  0  0  0  0
  5 10  1  0  0  0  0
  6  5  1  0  0  0  0
  6  7  1  0  0  0  0
  6 12  1  0  0  0  0
  7 15  1  0  0  0  0
  8 16  1  0  0  0  0
  8  7  1  0  0  0  0
  9  8  2  0  0  0  0
 11  5  1  0  0  0  0
 13  6  1  0  0  0  0
 14  7  1  0  0  0  0
 17  9  1  0  0  0  0
 17 18  1  0  0  0  0
 19 20  1  0  0  0  0
 21 19  1  0  0  0  0
 22 27  1  0  0  0  0
 22 19  1  0  0  0  0
 23 22  2  0  0  0  0
 24 25  2  0  0  0  0
 24 23  1  0  0  0  0
 25 26  1  0  0  0  0
 26 30  1  0  0  0  0
 26 27  2  0  0  0  0
 28 23  1  0  0  0  0
 29 24  1  0  0  0  0
 31 35  1  0  0  0  0
 31 30  1  0  0  0  0
 32 31  1  0  0  0  0
 33 31  1  0  0  0  0
 34 33  1  0  0  0  0
 35 36  1  0  0  0  0
M  END
>  <minimizedAffinity>
-2.32407522

>  <minimizedRMSD>
5.90608025

$$$$
