
 OpenBabel03242520563D

 39 40  0  0  0  0  0  0  0  0999 V2000
   48.5200   31.3630   48.5880 C   0  0  0  0  0  3  0  0  0  0  0  0
   47.4870   32.1750   48.6900 C   0  0  0  0  0  3  0  0  0  0  0  0
   51.1900   32.2200   50.9320 C   0  0  0  0  0  0  0  0  0  0  0  0
   51.3400   31.0080   51.6630 C   0  0  0  0  0  0  0  0  0  0  0  0
   50.5470   29.9320   51.3360 C   0  0  0  0  0  0  0  0  0  0  0  0
   49.6770   30.1050   50.3420 N   0  0  0  0  0  0  0  0  0  0  0  0
   49.5250   31.2430   49.6480 C   0  0  0  0  0  0  0  0  0  0  0  0
   50.2840   32.3110   49.9380 N   0  0  0  0  0  0  0  0  0  0  0  0
   51.7570   33.1290   51.0950 H   0  0  0  0  0  0  0  0  0  0  0  0
   50.6440   28.7560   51.9850 O   0  0  0  0  0  0  0  0  0  0  0  0
   51.2880   27.6690   51.3040 C   0  0  0  0  0  0  0  0  0  0  0  0
   52.1850   28.1850   50.3520 F   0  0  0  0  0  0  0  0  0  0  0  0
   52.0450   27.0020   52.2640 F   0  0  0  0  0  0  0  0  0  0  0  0
   50.4070   26.7610   50.7320 F   0  0  0  0  0  0  0  0  0  0  0  0
   52.3230   31.1710   52.7530 C   0  0  0  0  0  2  0  0  0  0  0  0
   53.4150   30.1810   52.5970 N   0  0  0  0  0  4  0  0  0  0  0  0
   53.0050   29.2230   52.3750 H   0  0  0  0  0  0  0  0  0  0  0  0
   54.2700   30.5080   51.4730 C   0  0  0  0  0  2  0  0  0  0  0  0
   55.3470   30.3200   51.7370 H   0  0  0  0  0  0  0  0  0  0  0  0
   54.2140   30.1060   53.7990 C   0  0  0  0  0  2  0  0  0  0  0  0
   55.3050   30.2280   53.5410 H   0  0  0  0  0  0  0  0  0  0  0  0
   46.4950   32.2600   47.5860 C   0  0  0  0  0  0  0  0  0  0  0  0
   46.3650   31.2250   47.2480 H   0  0  0  0  0  0  0  0  0  0  0  0
   45.4970   32.5750   48.0230 H   0  0  0  0  0  0  0  0  0  0  0  0
   46.6210   32.7740   45.3050 C   0  0  0  0  0  0  0  0  0  0  0  0
   46.1450   31.7300   44.8140 O   0  0  0  0  0  0  0  0  0  0  0  0
   46.8470   33.2070   46.6080 N   0  0  0  0  0  0  0  0  0  0  0  0
   47.2400   34.1450   46.7570 H   0  0  0  0  0  0  0  0  0  0  0  0
   44.8760   35.1050   44.3910 Cl  0  0  0  0  0  0  0  0  0  0  0  0
   46.2780   34.5850   43.4970 C   0  0  0  0  0  0  0  0  0  0  0  0
   46.9220   33.5250   44.0790 C   0  0  0  0  0  0  0  0  0  0  0  0
   48.0700   32.9820   43.4930 C   0  0  0  0  0  0  0  0  0  0  0  0
   48.5660   33.5230   42.3080 C   0  0  0  0  0  0  0  0  0  0  0  0
   47.8930   34.6000   41.7400 C   0  0  0  0  0  0  0  0  0  0  0  0
   48.4770   35.3190   40.2550 Cl  0  0  0  0  0  0  0  0  0  0  0  0
   46.7710   35.1140   42.3320 C   0  0  0  0  0  0  0  0  0  0  0  0
   48.6560   32.1720   43.8330 H   0  0  0  0  0  0  0  0  0  0  0  0
   49.4450   33.1630   41.7920 H   0  0  0  0  0  0  0  0  0  0  0  0
   46.2050   35.9500   41.9370 H   0  0  0  0  0  0  0  0  0  0  0  0
  1  2  2  0  0  0  0
  1  7  1  0  0  0  0
  3  9  1  0  0  0  0
  3  4  1  0  0  0  0
  4 15  1  0  0  0  0
  5  4  2  0  0  0  0
  5 10  1  0  0  0  0
  6  5  1  0  0  0  0
  7  8  1  0  0  0  0
  7  6  2  0  0  0  0
  8  3  2  0  0  0  0
 11 10  1  0  0  0  0
 11 13  1  0  0  0  0
 12 11  1  0  0  0  0
 14 11  1  0  0  0  0
 16 15  1  0  0  0  0
 16 20  1  0  0  0  0
 17 16  1  0  0  0  0
 18 19  1  0  0  0  0
 18 16  1  0  0  0  0
 21 20  1  0  0  0  0
 22 24  1  0  0  0  0
 22  2  1  0  0  0  0
 23 22  1  0  0  0  0
 25 27  1  0  0  0  0
 26 25  2  0  0  0  0
 27 28  1  0  0  0  0
 27 22  1  0  0  0  0
 30 31  1  0  0  0  0
 30 29  1  0  0  0  0
 31 25  1  0  0  0  0
 32 37  1  0  0  0  0
 32 31  2  0  0  0  0
 33 32  1  0  0  0  0
 34 33  2  0  0  0  0
 34 36  1  0  0  0  0
 35 34  1  0  0  0  0
 36 30  2  0  0  0  0
 38 33  1  0  0  0  0
 39 36  1  0  0  0  0
M  END
>  <minimizedAffinity>
-6.18655872

>  <minimizedRMSD>
0.582155645

$$$$
