
 OpenBabel03242520563D

 39 40  0  0  0  0  0  0  0  0999 V2000
   48.5620   31.2500   48.6760 C   0  0  0  0  0  3  0  0  0  0  0  0
   47.5310   32.0660   48.7660 C   0  0  0  0  0  3  0  0  0  0  0  0
   51.1640   32.0390   51.1180 C   0  0  0  0  0  0  0  0  0  0  0  0
   51.2860   30.8100   51.8260 C   0  0  0  0  0  0  0  0  0  0  0  0
   50.4990   29.7460   51.4490 C   0  0  0  0  0  0  0  0  0  0  0  0
   49.6600   29.9460   50.4340 N   0  0  0  0  0  0  0  0  0  0  0  0
   49.5340   31.1010   49.7630 C   0  0  0  0  0  0  0  0  0  0  0  0
   50.2880   32.1580   50.1000 N   0  0  0  0  0  0  0  0  0  0  0  0
   51.7300   32.9410   51.3190 H   0  0  0  0  0  0  0  0  0  0  0  0
   50.5710   28.5540   52.0740 O   0  0  0  0  0  0  0  0  0  0  0  0
   51.4430   27.5610   51.5150 C   0  0  0  0  0  0  0  0  0  0  0  0
   52.1290   28.1090   50.4170 F   0  0  0  0  0  0  0  0  0  0  0  0
   52.3920   27.2800   52.4950 F   0  0  0  0  0  0  0  0  0  0  0  0
   50.8030   26.3770   51.1750 F   0  0  0  0  0  0  0  0  0  0  0  0
   52.2370   30.9420   52.9480 C   0  0  0  0  0  2  0  0  0  0  0  0
   53.5930   31.2340   52.4250 N   0  0  0  0  0  4  0  0  0  0  0  0
   53.5190   31.7870   51.5180 H   0  0  0  0  0  0  0  0  0  0  0  0
   54.3420   32.0760   53.3360 C   0  0  0  0  0  2  0  0  0  0  0  0
   55.4130   31.7330   53.3930 H   0  0  0  0  0  0  0  0  0  0  0  0
   54.3280   30.0110   52.1940 C   0  0  0  0  0  2  0  0  0  0  0  0
   55.3320   30.0640   52.7040 H   0  0  0  0  0  0  0  0  0  0  0  0
   46.5730   32.1820   47.6350 C   0  0  0  0  0  0  0  0  0  0  0  0
   46.4090   31.1510   47.3030 H   0  0  0  0  0  0  0  0  0  0  0  0
   45.5780   32.5430   48.0420 H   0  0  0  0  0  0  0  0  0  0  0  0
   46.5710   32.7820   45.3710 C   0  0  0  0  0  0  0  0  0  0  0  0
   45.8760   31.8600   44.8970 O   0  0  0  0  0  0  0  0  0  0  0  0
   46.9900   33.1040   46.6580 N   0  0  0  0  0  0  0  0  0  0  0  0
   47.5520   33.9530   46.7980 H   0  0  0  0  0  0  0  0  0  0  0  0
   44.8580   35.1400   44.4670 Cl  0  0  0  0  0  0  0  0  0  0  0  0
   46.2510   34.6030   43.5690 C   0  0  0  0  0  0  0  0  0  0  0  0
   46.8800   33.5320   44.1470 C   0  0  0  0  0  0  0  0  0  0  0  0
   48.0190   32.9740   43.5570 C   0  0  0  0  0  0  0  0  0  0  0  0
   48.5220   33.5110   42.3730 C   0  0  0  0  0  0  0  0  0  0  0  0
   47.8630   34.5990   41.8090 C   0  0  0  0  0  0  0  0  0  0  0  0
   48.4550   35.3140   40.3260 Cl  0  0  0  0  0  0  0  0  0  0  0  0
   46.7500   35.1280   42.4050 C   0  0  0  0  0  0  0  0  0  0  0  0
   48.5940   32.1550   43.8940 H   0  0  0  0  0  0  0  0  0  0  0  0
   49.3940   33.1400   41.8550 H   0  0  0  0  0  0  0  0  0  0  0  0
   46.1950   35.9730   42.0130 H   0  0  0  0  0  0  0  0  0  0  0  0
  1  2  2  0  0  0  0
  1  7  1  0  0  0  0
  3  9  1  0  0  0  0
  3  4  1  0  0  0  0
  4 15  1  0  0  0  0
  5  4  2  0  0  0  0
  5 10  1  0  0  0  0
  6  5  1  0  0  0  0
  7  8  1  0  0  0  0
  7  6  2  0  0  0  0
  8  3  2  0  0  0  0
 11 10  1  0  0  0  0
 11 13  1  0  0  0  0
 12 11  1  0  0  0  0
 14 11  1  0  0  0  0
 16 15  1  0  0  0  0
 16 18  1  0  0  0  0
 17 16  1  0  0  0  0
 18 19  1  0  0  0  0
 20 16  1  0  0  0  0
 20 21  1  0  0  0  0
 22 24  1  0  0  0  0
 22  2  1  0  0  0  0
 23 22  1  0  0  0  0
 25 27  1  0  0  0  0
 26 25  2  0  0  0  0
 27 28  1  0  0  0  0
 27 22  1  0  0  0  0
 30 31  1  0  0  0  0
 30 29  1  0  0  0  0
 31 25  1  0  0  0  0
 32 37  1  0  0  0  0
 32 31  2  0  0  0  0
 33 32  1  0  0  0  0
 34 33  2  0  0  0  0
 34 36  1  0  0  0  0
 35 34  1  0  0  0  0
 36 30  2  0  0  0  0
 38 33  1  0  0  0  0
 39 36  1  0  0  0  0
M  END
>  <minimizedAffinity>
-6.28986454

>  <minimizedRMSD>
0.320376098

$$$$
