
 OpenBabel03242513243D

 43 45  0  0  1  0  0  0  0  0999 V2000
   46.3050   30.1780   47.5720 C   0  0  2  0  0  0  0  0  0  0  0  0
   44.9800   30.6490   48.1200 C   0  0  0  0  0  0  0  0  0  0  0  0
   45.4820   31.1280   49.4790 C   0  0  0  0  0  0  0  0  0  0  0  0
   46.6680   31.7490   49.2160 O   0  0  0  0  0  0  0  0  0  0  0  0
   47.1840   31.2910   48.0310 C   0  0  1  0  0  0  0  0  0  0  0  0
   46.5080   29.2070   48.0410 H   0  0  0  0  0  0  0  0  0  0  0  0
   44.6570   31.5040   47.5030 H   0  0  0  0  0  0  0  0  0  0  0  0
   44.2270   29.8550   48.2190 H   0  0  0  0  0  0  0  0  0  0  0  0
   44.7260   31.8260   49.8860 H   0  0  0  0  0  0  0  0  0  0  0  0
   45.5430   30.2540   50.1520 H   0  0  0  0  0  0  0  0  0  0  0  0
   47.2270   32.1010   47.2840 H   0  0  0  0  0  0  0  0  0  0  0  0
   48.5890   30.8140   48.2590 C   0  0  1  0  0  0  0  0  0  0  0  0
   49.1750   31.3970   49.5410 C   0  0  0  0  0  0  0  0  0  0  0  0
   49.8850   30.2070   50.1270 C   0  0  0  0  0  0  0  0  0  0  0  0
   49.9270   29.2400   49.1210 O   0  0  0  0  0  0  0  0  0  0  0  0
   48.6290   29.3270   48.5940 C   0  0  0  0  0  0  0  0  0  0  0  0
   49.2530   30.9730   47.4110 H   0  0  0  0  0  0  0  0  0  0  0  0
   48.3980   31.7470   50.2330 H   0  0  0  0  0  0  0  0  0  0  0  0
   49.9050   32.2100   49.3170 H   0  0  0  0  0  0  0  0  0  0  0  0
   49.2610   29.7720   50.9550 H   0  0  0  0  0  0  0  0  0  0  0  0
   50.8630   30.4230   50.5670 H   0  0  0  0  0  0  0  0  0  0  0  0
   47.9700   29.1020   49.4820 H   0  0  0  0  0  0  0  0  0  0  0  0
   48.4640   28.6750   47.7400 H   0  0  0  0  0  0  0  0  0  0  0  0
   46.2780   29.9880   46.0970 C   0  0  0  0  0  0  0  0  0  0  0  0
   45.4810   29.2580   45.7920 H   0  0  0  0  0  0  0  0  0  0  0  0
   47.2280   29.5160   45.7660 H   0  0  0  0  0  0  0  0  0  0  0  0
   46.9540   31.9550   44.8060 C   0  0  0  0  0  0  0  0  0  0  0  0
   46.0030   31.2250   45.3350 C   0  0  0  0  0  0  0  0  0  0  0  0
   45.1670   34.8700   43.4990 C   0  0  0  0  0  0  0  0  0  0  0  0
   46.1340   35.4460   42.6360 C   0  0  0  0  0  0  0  0  0  0  0  0
   47.3840   34.8030   42.5330 C   0  0  0  0  0  0  0  0  0  0  0  0
   47.6000   33.6720   43.2570 N   0  0  0  0  0  0  0  0  0  0  0  0
   46.6510   33.1560   44.0690 C   0  0  0  0  0  0  0  0  0  0  0  0
   45.4450   33.7300   44.2030 N   0  0  0  0  0  0  0  0  0  0  0  0
   44.1810   35.2800   43.6520 H   0  0  0  0  0  0  0  0  0  0  0  0
   45.8720   36.3320   42.1100 H   0  0  0  0  0  0  0  0  0  0  0  0
   48.4060   35.3850   41.6400 C   0  0  0  0  0  0  0  0  0  0  0  0
   48.8570   34.5300   40.5930 N   0  0  0  0  0  0  0  0  0  0  0  0
   49.6090   35.0180   40.0580 H   0  0  0  0  0  0  0  0  0  0  0  0
   49.4180   33.2750   41.0280 C   0  0  0  0  0  0  0  0  0  0  0  0
   49.7160   32.7400   40.0810 H   0  0  0  0  0  0  0  0  0  0  0  0
   47.8260   34.2200   39.6230 C   0  0  0  0  0  0  0  0  0  0  0  0
   47.1170   35.0680   39.5150 H   0  0  0  0  0  0  0  0  0  0  0  0
  1  5  1  0  0  0  0
  1  6  1  1  0  0  0
  1  2  1  0  0  0  0
  2  8  1  0  0  0  0
  2  3  1  0  0  0  0
  3  9  1  0  0  0  0
  3 10  1  0  0  0  0
  4  3  1  0  0  0  0
  5 11  1  6  0  0  0
  5 12  1  0  0  0  0
  5  4  1  0  0  0  0
  7  2  1  0  0  0  0
 12 17  1  6  0  0  0
 12 16  1  0  0  0  0
 12 13  1  0  0  0  0
 13 14  1  0  0  0  0
 13 18  1  0  0  0  0
 14 21  1  0  0  0  0
 14 20  1  0  0  0  0
 15 14  1  0  0  0  0
 16 15  1  0  0  0  0
 16 22  1  0  0  0  0
 19 13  1  0  0  0  0
 23 16  1  0  0  0  0
 24  1  1  0  0  0  0
 25 24  1  0  0  0  0
 26 24  1  0  0  0  0
 27 28  2  0  0  0  0
 28 24  1  0  0  0  0
 29 35  1  0  0  0  0
 29 34  1  0  0  0  0
 30 29  2  0  0  0  0
 31 30  1  0  0  0  0
 31 32  2  0  0  0  0
 32 33  1  0  0  0  0
 33 34  2  0  0  0  0
 33 27  1  0  0  0  0
 36 30  1  0  0  0  0
 37 31  1  0  0  0  0
 38 40  1  0  0  0  0
 38 37  1  0  0  0  0
 39 38  1  0  0  0  0
 41 40  1  0  0  0  0
 42 38  1  0  0  0  0
 43 42  1  0  0  0  0
M  END
>  <minimizedAffinity>
-5.04301786

>  <minimizedRMSD>
1.59785521

$$$$
