
 OpenBabel03252501283D

 40 43  0  0  0  0  0  0  0  0999 V2000
   47.1720   32.1700   44.0860 C   0  0  0  0  0  0  0  0  0  0  0  0
   48.0790   33.0000   43.4220 C   0  0  0  0  0  0  0  0  0  0  0  0
   47.3790   33.8190   42.5890 C   0  0  0  0  0  0  0  0  0  0  0  0
   46.0790   33.5030   42.7350 N   0  0  0  0  0  0  0  0  0  0  0  0
   45.9860   32.5250   43.6260 N   0  0  0  0  0  0  0  0  0  0  0  0
   49.1670   33.0050   43.5390 H   0  0  0  0  0  0  0  0  0  0  0  0
   47.7980   34.5740   41.9420 H   0  0  0  0  0  0  0  0  0  0  0  0
   44.5620   32.2100   40.7430 F   0  0  0  0  0  0  0  0  0  0  0  0
   44.2290   33.4460   41.1320 C   0  0  0  0  0  0  0  0  0  0  0  0
   44.9670   34.0640   42.0950 C   0  0  0  0  0  0  0  0  0  0  0  0
   44.6390   35.3680   42.5250 C   0  0  0  0  0  0  0  0  0  0  0  0
   43.5790   36.0410   41.9880 C   0  0  0  0  0  0  0  0  0  0  0  0
   42.8460   35.3920   41.0120 C   0  0  0  0  0  0  0  0  0  0  0  0
   43.1590   34.1140   40.5840 C   0  0  0  0  0  0  0  0  0  0  0  0
   45.2120   35.8780   43.2890 H   0  0  0  0  0  0  0  0  0  0  0  0
   43.3390   37.0410   42.3270 H   0  0  0  0  0  0  0  0  0  0  0  0
   42.0070   35.9460   40.5990 H   0  0  0  0  0  0  0  0  0  0  0  0
   42.3190   33.5220   39.5470 C   0  0  0  0  0  0  0  0  0  0  0  0
   42.6260   32.9370   38.3520 C   0  0  0  0  0  0  0  0  0  0  0  0
   41.5080   32.5320   37.7230 N   0  0  0  0  0  0  0  0  0  0  0  0
   40.4880   32.8590   38.5200 C   0  0  0  0  0  0  0  0  0  0  0  0
   40.9740   33.4550   39.6200 N   0  0  0  0  0  0  0  0  0  0  0  0
   43.6630   32.8410   38.0030 H   0  0  0  0  0  0  0  0  0  0  0  0
   41.4740   32.0580   36.7960 H   0  0  0  0  0  0  0  0  0  0  0  0
   39.4160   32.6860   38.3430 H   0  0  0  0  0  0  0  0  0  0  0  0
   48.4350   29.0770   45.5570 C   0  0  0  0  0  0  0  0  0  0  0  0
   48.1930   29.2700   46.9330 C   0  0  0  0  0  0  0  0  0  0  0  0
   47.5940   30.4680   47.3400 C   0  0  0  0  0  0  0  0  0  0  0  0
   47.3080   31.3290   46.3540 N   0  0  0  0  0  0  0  0  0  0  0  0
   47.5300   31.1590   45.0580 C   0  0  0  0  0  0  0  0  0  0  0  0
   48.1100   30.0020   44.6400 N   0  0  0  0  0  0  0  0  0  0  0  0
   48.9030   28.1310   45.2680 H   0  0  0  0  0  0  0  0  0  0  0  0
   48.4340   28.5610   47.7000 H   0  0  0  0  0  0  0  0  0  0  0  0
   47.2750   30.8230   48.7390 C   0  0  0  0  0  2  0  0  0  0  0  0
   45.9670   30.3930   49.1460 N   0  0  0  0  0  4  0  0  0  0  0  0
   46.0580   29.7540   49.9860 H   0  0  0  0  0  0  0  0  0  0  0  0
   45.3160   29.5960   48.0990 C   0  0  0  0  0  2  0  0  0  0  0  0
   44.2990   29.3440   48.4200 H   0  0  0  0  0  0  0  0  0  0  0  0
   45.1400   31.4970   49.5340 C   0  0  0  0  0  2  0  0  0  0  0  0
   44.0660   31.2680   49.3620 H   0  0  0  0  0  0  0  0  0  0  0  0
  1 30  1  0  0  0  0
  2  6  1  0  0  0  0
  2  1  1  0  0  0  0
  3  4  1  0  0  0  0
  3  2  2  0  0  0  0
  4  5  1  0  0  0  0
  5  1  2  0  0  0  0
  7  3  1  0  0  0  0
  8  9  1  0  0  0  0
  9 10  1  0  0  0  0
 10 11  2  0  0  0  0
 10  4  1  0  0  0  0
 11 15  1  0  0  0  0
 12 16  1  0  0  0  0
 12 11  1  0  0  0  0
 13 12  2  0  0  0  0
 14 13  1  0  0  0  0
 14  9  2  0  0  0  0
 17 13  1  0  0  0  0
 18 22  1  0  0  0  0
 18 14  1  0  0  0  0
 19 18  2  0  0  0  0
 20 19  1  0  0  0  0
 20 21  1  0  0  0  0
 21 22  2  0  0  0  0
 23 19  1  0  0  0  0
 24 20  1  0  0  0  0
 25 21  1  0  0  0  0
 26 27  1  0  0  0  0
 27 28  2  0  0  0  0
 27 33  1  0  0  0  0
 28 34  1  0  0  0  0
 29 28  1  0  0  0  0
 30 29  2  0  0  0  0
 31 30  1  0  0  0  0
 31 26  2  0  0  0  0
 32 26  1  0  0  0  0
 34 35  1  0  0  0  0
 35 39  1  0  0  0  0
 35 36  1  0  0  0  0
 37 38  1  0  0  0  0
 37 35  1  0  0  0  0
 40 39  1  0  0  0  0
M  END
>  <minimizedAffinity>
-5.09171009

>  <minimizedRMSD>
1.88447165

$$$$
