
 OpenBabel03252508533D

 41 43  0  0  1  0  0  0  0  0999 V2000
   43.4190   34.4270   40.5490 C   0  0  0  0  0  0  0  0  0  0  0  0
   42.9360   35.5860   40.7960 O   0  0  0  0  0  0  0  0  0  0  0  0
   42.5170   34.0330   39.4800 N   0  0  0  0  0  0  0  0  0  0  0  0
   42.5240   34.9020   38.3200 C   0  0  0  0  0  0  0  0  0  0  0  0
   41.2810   35.7720   38.4700 C   0  0  0  0  0  0  0  0  0  0  0  0
   40.2020   34.9070   39.1150 C   0  0  0  0  0  0  0  0  0  0  0  0
   40.3790   33.4380   38.7250 C   0  0  0  0  0  0  0  0  0  0  0  0
   41.6110   32.8820   39.4240 C   0  0  2  0  0  0  0  0  0  0  0  0
   43.4060   35.5670   38.2750 H   0  0  0  0  0  0  0  0  0  0  0  0
   42.3940   34.3230   37.3730 H   0  0  0  0  0  0  0  0  0  0  0  0
   41.5230   36.5630   39.2100 H   0  0  0  0  0  0  0  0  0  0  0  0
   40.9410   36.1950   37.5070 H   0  0  0  0  0  0  0  0  0  0  0  0
   39.1950   35.2300   38.8350 H   0  0  0  0  0  0  0  0  0  0  0  0
   40.3160   34.9440   40.2230 H   0  0  0  0  0  0  0  0  0  0  0  0
   40.5410   33.4210   37.6140 H   0  0  0  0  0  0  0  0  0  0  0  0
   39.4580   32.9190   39.0140 H   0  0  0  0  0  0  0  0  0  0  0  0
   42.0590   32.1350   38.7590 H   0  0  0  0  0  0  0  0  0  0  0  0
   44.4770   33.7930   41.1480 O   0  0  0  0  0  0  0  0  0  0  0  0
   45.8070   34.1440   41.0120 C   0  0  0  0  0  0  0  0  0  0  0  0
   46.4390   34.7680   42.0850 C   0  0  0  0  0  0  0  0  0  0  0  0
   47.7820   35.1110   41.9180 C   0  0  0  0  0  0  0  0  0  0  0  0
   48.3940   34.8180   40.7280 N   0  0  0  0  0  0  0  0  0  0  0  0
   47.7510   34.2250   39.7420 C   0  0  0  0  0  0  0  0  0  0  0  0
   46.4490   33.8820   39.8750 N   0  0  0  0  0  0  0  0  0  0  0  0
   48.2930   35.5930   42.7310 H   0  0  0  0  0  0  0  0  0  0  0  0
   48.2150   33.9840   38.7920 H   0  0  0  0  0  0  0  0  0  0  0  0
   45.6990   35.0340   43.3060 C   0  0  0  0  0  0  0  0  0  0  0  0
   45.0390   36.2250   43.5500 C   0  0  0  0  0  0  0  0  0  0  0  0
   44.4860   36.0540   44.7890 C   0  0  0  0  0  0  0  0  0  0  0  0
   44.7880   34.8280   45.2820 N   0  0  0  0  0  0  0  0  0  0  0  0
   45.5170   34.2450   44.3640 N   0  0  0  0  0  0  0  0  0  0  0  0
   44.9820   37.0840   42.8970 H   0  0  0  0  0  0  0  0  0  0  0  0
   43.8770   36.7710   45.3510 H   0  0  0  0  0  0  0  0  0  0  0  0
   44.5150   34.3870   46.2100 H   0  0  0  0  0  0  0  0  0  0  0  0
   41.2900   32.3590   40.7940 C   0  0  0  0  0  2  0  0  0  0  0  0
   40.4040   31.2150   40.7190 N   0  0  0  0  0  4  0  0  0  0  0  0
   39.6050   31.3790   40.0820 H   0  0  0  0  0  0  0  0  0  0  0  0
   39.8310   30.9480   42.0470 C   0  0  0  0  0  2  0  0  0  0  0  0
   39.3490   29.9620   42.0730 H   0  0  0  0  0  0  0  0  0  0  0  0
   41.0850   30.0240   40.2590 C   0  0  0  0  0  2  0  0  0  0  0  0
   42.1390   29.9670   40.6240 H   0  0  0  0  0  0  0  0  0  0  0  0
  1  2  2  0  0  0  0
  1 18  1  0  0  0  0
  3  1  1  0  0  0  0
  4  5  1  0  0  0  0
  4  3  1  0  0  0  0
  5  6  1  0  0  0  0
  5 11  1  0  0  0  0
  6 14  1  0  0  0  0
  7 16  1  0  0  0  0
  7  6  1  0  0  0  0
  7  8  1  0  0  0  0
  8 17  1  6  0  0  0
  8  3  1  0  0  0  0
  8 35  1  0  0  0  0
  9  4  1  0  0  0  0
 10  4  1  0  0  0  0
 12  5  1  0  0  0  0
 13  6  1  0  0  0  0
 15  7  1  0  0  0  0
 19 18  1  0  0  0  0
 19 20  1  0  0  0  0
 20 27  1  0  0  0  0
 21 20  2  0  0  0  0
 21 25  1  0  0  0  0
 22 21  1  0  0  0  0
 23 24  1  0  0  0  0
 23 22  2  0  0  0  0
 24 19  2  0  0  0  0
 26 23  1  0  0  0  0
 27 28  1  0  0  0  0
 27 31  2  0  0  0  0
 28 29  2  0  0  0  0
 29 30  1  0  0  0  0
 29 33  1  0  0  0  0
 30 34  1  0  0  0  0
 31 30  1  0  0  0  0
 32 28  1  0  0  0  0
 36 35  1  0  0  0  0
 36 38  1  0  0  0  0
 37 36  1  0  0  0  0
 38 39  1  0  0  0  0
 40 41  1  0  0  0  0
 40 36  1  0  0  0  0
M  END
>  <minimizedAffinity>
-5.86485195

>  <minimizedRMSD>
1.80343759

$$$$
