
 OpenBabel03252506183D

 21 21  0  0  0  0  0  0  0  0999 V2000
   44.6930   35.5830   43.5930 C   0  0  0  0  0  0  0  0  0  0  0  0
   43.9330   35.4810   42.4100 C   0  0  0  0  0  0  0  0  0  0  0  0
   43.7900   34.2120   41.8420 C   0  0  0  0  0  0  0  0  0  0  0  0
   44.3800   33.1560   42.4490 N   0  0  0  0  0  0  0  0  0  0  0  0
   45.1030   33.2870   43.5820 C   0  0  0  0  0  0  0  0  0  0  0  0
   45.2460   34.4920   44.1320 N   0  0  0  0  0  0  0  0  0  0  0  0
   43.5150   36.3760   42.0220 H   0  0  0  0  0  0  0  0  0  0  0  0
   43.2080   34.1270   40.9350 H   0  0  0  0  0  0  0  0  0  0  0  0
   44.8550   36.9020   44.2040 C   0  0  0  0  0  3  0  0  0  0  0  0
   45.2560   37.9080   43.4480 C   0  0  0  0  0  3  0  0  0  0  0  0
   45.4460   39.2760   43.9860 C   0  0  0  0  0  0  0  0  0  0  0  0
   46.4410   39.3940   44.4450 H   0  0  0  0  0  0  0  0  0  0  0  0
   44.6510   39.5210   44.7240 H   0  0  0  0  0  0  0  0  0  0  0  0
   45.3660   40.0170   43.1610 H   0  0  0  0  0  0  0  0  0  0  0  0
   45.6660   32.0310   44.0900 C   0  0  0  0  0  2  0  0  0  0  0  0
   47.0350   32.1420   44.5560 N   0  0  0  0  0  4  0  0  0  0  0  0
   47.4050   33.1160   44.4020 H   0  0  0  0  0  0  0  0  0  0  0  0
   46.9990   31.8280   45.9730 C   0  0  0  0  0  2  0  0  0  0  0  0
   46.3330   30.9290   46.0770 H   0  0  0  0  0  0  0  0  0  0  0  0
   47.9200   31.2230   43.9090 C   0  0  0  0  0  2  0  0  0  0  0  0
   47.4050   30.3450   43.4880 H   0  0  0  0  0  0  0  0  0  0  0  0
  1  6  1  0  0  0  0
  1  9  1  0  0  0  0
  2  1  2  0  0  0  0
  3  2  1  0  0  0  0
  3  4  2  0  0  0  0
  4  5  1  0  0  0  0
  5 15  1  0  0  0  0
  5  6  2  0  0  0  0
  7  2  1  0  0  0  0
  8  3  1  0  0  0  0
 10 11  1  0  0  0  0
 10  9  2  0  0  0  0
 11 12  1  0  0  0  0
 11 13  1  0  0  0  0
 14 11  1  0  0  0  0
 15 16  1  0  0  0  0
 16 18  1  0  0  0  0
 17 16  1  0  0  0  0
 18 19  1  0  0  0  0
 20 16  1  0  0  0  0
 21 20  1  0  0  0  0
M  END
>  <minimizedAffinity>
-2.84689093

>  <minimizedRMSD>
0.98774153

$$$$
