
 OpenBabel03252506183D

 21 21  0  0  0  0  0  0  0  0999 V2000
   44.7050   35.5710   43.6150 C   0  0  0  0  0  0  0  0  0  0  0  0
   43.9410   35.4520   42.4360 C   0  0  0  0  0  0  0  0  0  0  0  0
   43.8080   34.1770   41.8790 C   0  0  0  0  0  0  0  0  0  0  0  0
   44.4090   33.1310   42.4930 N   0  0  0  0  0  0  0  0  0  0  0  0
   45.1350   33.2780   43.6220 C   0  0  0  0  0  0  0  0  0  0  0  0
   45.2690   34.4900   44.1610 N   0  0  0  0  0  0  0  0  0  0  0  0
   43.5140   36.3400   42.0410 H   0  0  0  0  0  0  0  0  0  0  0  0
   43.2230   34.0790   40.9750 H   0  0  0  0  0  0  0  0  0  0  0  0
   44.8570   36.8970   44.2140 C   0  0  0  0  0  3  0  0  0  0  0  0
   45.2610   37.8970   43.4520 C   0  0  0  0  0  3  0  0  0  0  0  0
   45.4420   39.2700   43.9780 C   0  0  0  0  0  0  0  0  0  0  0  0
   46.4330   39.3960   44.4440 H   0  0  0  0  0  0  0  0  0  0  0  0
   44.6390   39.5200   44.7060 H   0  0  0  0  0  0  0  0  0  0  0  0
   45.3660   40.0020   43.1450 H   0  0  0  0  0  0  0  0  0  0  0  0
   45.7100   32.0320   44.1390 C   0  0  0  0  0  2  0  0  0  0  0  0
   45.5050   30.8830   43.2780 N   0  0  0  0  0  4  0  0  0  0  0  0
   44.9160   31.1410   42.4430 H   0  0  0  0  0  0  0  0  0  0  0  0
   46.8280   30.4610   42.8570 C   0  0  0  0  0  2  0  0  0  0  0  0
   47.4740   30.4940   43.7760 H   0  0  0  0  0  0  0  0  0  0  0  0
   44.8700   29.7900   43.9490 C   0  0  0  0  0  2  0  0  0  0  0  0
   44.9990   29.8160   45.0420 H   0  0  0  0  0  0  0  0  0  0  0  0
  1  6  1  0  0  0  0
  1  9  1  0  0  0  0
  2  1  2  0  0  0  0
  3  2  1  0  0  0  0
  3  4  2  0  0  0  0
  4  5  1  0  0  0  0
  5 15  1  0  0  0  0
  5  6  2  0  0  0  0
  7  2  1  0  0  0  0
  8  3  1  0  0  0  0
 10 11  1  0  0  0  0
 10  9  2  0  0  0  0
 11 12  1  0  0  0  0
 11 13  1  0  0  0  0
 14 11  1  0  0  0  0
 16 20  1  0  0  0  0
 16 15  1  0  0  0  0
 17 16  1  0  0  0  0
 18 16  1  0  0  0  0
 18 19  1  0  0  0  0
 20 21  1  0  0  0  0
M  END
>  <minimizedAffinity>
-2.57940769

>  <minimizedRMSD>
0.481932044

$$$$
