
 OpenBabel03252500253D

 35 36  0  0  1  0  0  0  0  0999 V2000
   47.0180   30.1990   48.2040 C   0  0  2  0  0  0  0  0  0  0  0  0
   45.5600   30.4480   48.2750 C   0  0  2  0  0  0  0  0  0  0  0  0
   44.9960   29.5720   47.2180 C   0  0  0  0  0  0  0  0  0  0  0  0
   45.8290   28.4780   47.0910 O   0  0  0  0  0  0  0  0  0  0  0  0
   46.9520   28.6960   47.8190 C   0  0  0  0  0  0  0  0  0  0  0  0
   47.6780   30.5670   47.4740 H   0  0  0  0  0  0  0  0  0  0  0  0
   45.2590   30.0580   49.2860 H   0  0  0  0  0  0  0  0  0  0  0  0
   44.0440   29.1180   47.6360 H   0  0  0  0  0  0  0  0  0  0  0  0
   44.6390   30.0320   46.2970 H   0  0  0  0  0  0  0  0  0  0  0  0
   46.8810   28.1950   48.8250 H   0  0  0  0  0  0  0  0  0  0  0  0
   47.8650   28.3450   47.3470 H   0  0  0  0  0  0  0  0  0  0  0  0
   45.2240   31.7720   48.1070 O   0  0  0  0  0  0  0  0  0  0  0  0
   47.3910   32.9230   47.3400 O   0  0  0  0  0  0  0  0  0  0  0  0
   46.0660   32.4250   46.8330 P   0  0  1  0  0  0  0  0  0  0  0  0
   46.3510   31.2230   45.6710 O   0  0  0  0  0  0  0  0  0  0  0  0
   45.8560   31.3970   44.8510 H   0  0  0  0  0  0  0  0  0  0  0  0
   45.2710   33.7750   46.1470 O   0  0  0  0  0  0  0  0  0  0  0  0
   45.2280   35.9150   43.2830 C   0  0  0  0  0  0  0  0  0  0  0  0
   46.2600   35.4010   42.4490 C   0  0  0  0  0  0  0  0  0  0  0  0
   46.9640   34.2850   42.9280 C   0  0  0  0  0  0  0  0  0  0  0  0
   46.6270   33.7760   44.1300 N   0  0  0  0  0  0  0  0  0  0  0  0
   45.6400   34.2910   44.8930 C   0  0  0  0  0  0  0  0  0  0  0  0
   44.9450   35.3610   44.4620 N   0  0  0  0  0  0  0  0  0  0  0  0
   46.5040   35.8330   41.4930 H   0  0  0  0  0  0  0  0  0  0  0  0
   47.7670   33.8310   42.3550 H   0  0  0  0  0  0  0  0  0  0  0  0
   44.5410   37.0050   42.8130 O   0  0  0  0  0  0  0  0  0  0  0  0
   45.0070   37.8840   42.6970 H   0  0  0  0  0  0  0  0  0  0  0  0
   47.7000   30.3750   49.3700 O   0  0  0  0  0  0  0  0  0  0  0  0
   48.8490   30.9980   49.5040 C   0  0  0  0  0  2  0  0  0  0  0  0
   50.0030   30.1490   49.1370 N   0  0  0  0  0  4  0  0  0  0  0  0
   49.9440   29.8120   48.1730 H   0  0  0  0  0  0  0  0  0  0  0  0
   51.2320   30.9520   49.2340 C   0  0  0  0  0  2  0  0  0  0  0  0
   50.8950   32.0100   49.0340 H   0  0  0  0  0  0  0  0  0  0  0  0
   50.1860   29.0550   50.0560 C   0  0  0  0  0  2  0  0  0  0  0  0
   49.6190   28.1530   49.8260 H   0  0  0  0  0  0  0  0  0  0  0  0
  1  6  1  6  0  0  0
  1  2  1  0  0  0  0
  1 28  1  0  0  0  0
  2  7  1  1  0  0  0
  3  8  1  0  0  0  0
  3  2  1  0  0  0  0
  4  3  1  0  0  0  0
  4  5  1  0  0  0  0
  5  1  1  0  0  0  0
  5 10  1  0  0  0  0
  9  3  1  0  0  0  0
 11  5  1  0  0  0  0
 12  2  1  0  0  0  0
 14 13  2  1  0  0  0
 14 12  1  0  0  0  0
 15 14  1  0  0  0  0
 16 15  1  0  0  0  0
 17 14  1  0  0  0  0
 18 23  1  0  0  0  0
 19 20  1  0  0  0  0
 19 18  2  0  0  0  0
 20 21  2  0  0  0  0
 21 22  1  0  0  0  0
 22 17  1  0  0  0  0
 23 22  2  0  0  0  0
 24 19  1  0  0  0  0
 25 20  1  0  0  0  0
 26 18  1  0  0  0  0
 27 26  1  0  0  0  0
 28 29  1  0  0  0  0
 30 32  1  0  0  0  0
 30 29  1  0  0  0  0
 30 34  1  0  0  0  0
 31 30  1  0  0  0  0
 33 32  1  0  0  0  0
 35 34  1  0  0  0  0
M  END
>  <minimizedAffinity>
-4.46127224

>  <minimizedRMSD>
0.392577857

$$$$
