
 OpenBabel03252507023D

 36 37  0  0  0  0  0  0  0  0999 V2000
   45.5810   34.3830   40.9150 C   0  0  0  0  0  0  0  0  0  0  0  0
   45.8210   35.4210   41.3190 H   0  0  0  0  0  0  0  0  0  0  0  0
   44.7060   34.6220   40.2530 H   0  0  0  0  0  0  0  0  0  0  0  0
   46.5120   33.7260   40.2330 N   0  0  0  0  0  0  0  0  0  0  0  0
   46.4180   32.4640   39.5900 C   0  0  0  0  0  0  0  0  0  0  0  0
   46.2860   32.9570   38.1280 C   0  0  0  0  0  0  0  0  0  0  0  0
   47.4460   33.7240   37.6710 C   0  0  0  0  0  0  0  0  0  0  0  0
   48.2910   34.3840   38.6690 C   0  0  0  0  0  0  0  0  0  0  0  0
   47.7970   34.4180   40.0850 C   0  0  0  0  0  0  0  0  0  0  0  0
   47.1890   31.7280   39.7250 H   0  0  0  0  0  0  0  0  0  0  0  0
   45.4000   32.0450   39.8310 H   0  0  0  0  0  0  0  0  0  0  0  0
   46.1230   32.0430   37.5010 H   0  0  0  0  0  0  0  0  0  0  0  0
   45.3590   33.5760   38.1260 H   0  0  0  0  0  0  0  0  0  0  0  0
   47.0780   34.5270   36.9720 H   0  0  0  0  0  0  0  0  0  0  0  0
   48.1390   33.1040   37.0370 H   0  0  0  0  0  0  0  0  0  0  0  0
   49.2200   34.8680   38.5040 H   0  0  0  0  0  0  0  0  0  0  0  0
   48.6930   35.2560   41.3550 S   0  0  0  0  0  0  0  0  0  0  0  0
   49.3380   34.3320   42.2000 H   0  0  0  0  0  0  0  0  0  0  0  0
   45.0580   33.6120   42.0910 C   0  0  0  0  0  0  0  0  0  0  0  0
   45.2330   34.0990   43.0730 H   0  0  0  0  0  0  0  0  0  0  0  0
   45.5860   32.6360   42.1130 H   0  0  0  0  0  0  0  0  0  0  0  0
   43.6170   33.3570   41.8410 C   0  0  0  0  0  0  0  0  0  0  0  0
   43.1150   32.0700   41.8390 C   0  0  0  0  0  0  0  0  0  0  0  0
   41.7430   31.9120   41.5810 C   0  0  0  0  0  0  0  0  0  0  0  0
   40.9840   33.0290   41.3480 N   0  0  0  0  0  0  0  0  0  0  0  0
   41.5380   34.2460   41.3660 C   0  0  0  0  0  0  0  0  0  0  0  0
   42.8260   34.3940   41.6090 N   0  0  0  0  0  0  0  0  0  0  0  0
   43.7440   31.2260   42.0250 H   0  0  0  0  0  0  0  0  0  0  0  0
   41.2980   30.9270   41.5670 H   0  0  0  0  0  0  0  0  0  0  0  0
   40.7100   35.4580   41.1130 C   0  0  0  0  0  2  0  0  0  0  0  0
   40.2720   35.5840   39.7490 N   0  0  0  0  0  4  0  0  0  0  0  0
   39.9200   36.5580   39.6120 H   0  0  0  0  0  0  0  0  0  0  0  0
   41.3120   35.3830   38.7710 C   0  0  0  0  0  2  0  0  0  0  0  0
   41.9260   36.2920   38.6170 H   0  0  0  0  0  0  0  0  0  0  0  0
   39.1230   34.7220   39.4910 C   0  0  0  0  0  2  0  0  0  0  0  0
   38.9650   34.0860   40.4070 H   0  0  0  0  0  0  0  0  0  0  0  0
  1  2  1  0  0  0  0
  1 19  1  0  0  0  0
  3  1  1  0  0  0  0
  4  1  1  0  0  0  0
  5 10  1  0  0  0  0
  5 11  1  0  0  0  0
  5  4  1  0  0  0  0
  6  5  1  0  0  0  0
  7  6  1  0  0  0  0
  7  8  1  0  0  0  0
  8  9  2  0  0  0  0
  9  4  1  0  0  0  0
  9 17  1  0  0  0  0
 12  6  1  0  0  0  0
 13  6  1  0  0  0  0
 14  7  1  0  0  0  0
 15  7  1  0  0  0  0
 16  8  1  0  0  0  0
 17 18  1  0  0  0  0
 19 21  1  0  0  0  0
 19 20  1  0  0  0  0
 22 19  1  0  0  0  0
 23 22  1  0  0  0  0
 23 28  1  0  0  0  0
 24 23  2  0  0  0  0
 25 26  2  0  0  0  0
 25 24  1  0  0  0  0
 26 27  1  0  0  0  0
 27 22  2  0  0  0  0
 29 24  1  0  0  0  0
 30 26  1  0  0  0  0
 31 30  1  0  0  0  0
 32 31  1  0  0  0  0
 33 31  1  0  0  0  0
 34 33  1  0  0  0  0
 35 31  1  0  0  0  0
 35 36  1  0  0  0  0
M  END
>  <minimizedAffinity>
-4.17625666

>  <minimizedRMSD>
2.86774254

$$$$
