
 OpenBabel03252502073D

 46 49  0  0  0  0  0  0  0  0999 V2000
   47.3230   32.1370   47.8670 C   0  0  0  0  0  0  0  0  0  0  0  0
   46.7940   30.8400   47.8780 C   0  0  0  0  0  0  0  0  0  0  0  0
   45.8820   30.5440   46.9230 C   0  0  0  0  0  0  0  0  0  0  0  0
   45.5260   31.4700   46.0190 N   0  0  0  0  0  0  0  0  0  0  0  0
   46.0110   32.6920   45.9860 C   0  0  0  0  0  0  0  0  0  0  0  0
   46.9220   33.0140   46.9330 N   0  0  0  0  0  0  0  0  0  0  0  0
   45.2990   29.2980   46.8820 N   0  0  0  0  0  0  0  0  0  0  0  0
   44.1600   28.9240   45.9940 C   0  0  0  0  0  0  0  0  0  0  0  0
   44.0550   27.4290   46.0700 C   0  0  0  0  0  0  0  0  0  0  0  0
   44.6050   27.1220   47.4190 C   0  0  0  0  0  0  0  0  0  0  0  0
   45.6540   28.1530   47.6680 C   0  0  0  0  0  0  0  0  0  0  0  0
   48.0650   32.4290   48.6220 H   0  0  0  0  0  0  0  0  0  0  0  0
   44.3270   29.2270   44.9630 H   0  0  0  0  0  0  0  0  0  0  0  0
   43.2700   29.4360   46.4530 H   0  0  0  0  0  0  0  0  0  0  0  0
   42.9820   27.0870   46.0450 H   0  0  0  0  0  0  0  0  0  0  0  0
   44.6650   26.9470   45.3020 H   0  0  0  0  0  0  0  0  0  0  0  0
   43.7800   27.1150   48.1820 H   0  0  0  0  0  0  0  0  0  0  0  0
   45.0460   26.1010   47.4640 H   0  0  0  0  0  0  0  0  0  0  0  0
   45.5380   28.3920   48.7470 H   0  0  0  0  0  0  0  0  0  0  0  0
   46.6200   27.7190   47.3860 H   0  0  0  0  0  0  0  0  0  0  0  0
   45.7770   33.8320   45.0670 C   0  0  0  0  0  0  0  0  0  0  0  0
   44.8610   34.7870   45.2790 N   0  0  0  0  0  0  0  0  0  0  0  0
   44.6400   35.8200   44.4710 C   0  0  0  0  0  0  0  0  0  0  0  0
   45.3670   35.9660   43.3390 N   0  0  0  0  0  0  0  0  0  0  0  0
   46.3050   35.0860   43.0190 C   0  0  0  0  0  0  0  0  0  0  0  0
   47.0620   35.2280   41.8640 C   0  0  0  0  0  0  0  0  0  0  0  0
   48.0310   34.3360   41.5300 C   0  0  0  0  0  0  0  0  0  0  0  0
   48.2430   33.2760   42.3760 C   0  0  0  0  0  0  0  0  0  0  0  0
   47.4730   33.1560   43.5220 C   0  0  0  0  0  0  0  0  0  0  0  0
   46.4940   34.0290   43.8910 C   0  0  0  0  0  0  0  0  0  0  0  0
   43.8640   36.5420   44.7460 H   0  0  0  0  0  0  0  0  0  0  0  0
   46.8740   36.0710   41.2140 H   0  0  0  0  0  0  0  0  0  0  0  0
   48.6060   34.4710   40.6240 H   0  0  0  0  0  0  0  0  0  0  0  0
   47.8220   31.9980   44.2750 N   0  0  0  0  0  0  0  0  0  0  0  0
   47.2240   31.2580   43.8380 H   0  0  0  0  0  0  0  0  0  0  0  0
   48.4780   31.8030   45.0580 H   0  0  0  0  0  0  0  0  0  0  0  0
   49.3130   32.3200   41.9890 C   0  0  0  0  0  2  0  0  0  0  0  0
   49.2850   31.9890   40.5880 N   0  0  0  0  0  4  0  0  0  0  0  0
   49.0120   32.8310   40.0510 H   0  0  0  0  0  0  0  0  0  0  0  0
   48.4360   30.8660   40.2820 C   0  0  0  0  0  2  0  0  0  0  0  0
   48.3390   30.8190   39.1760 H   0  0  0  0  0  0  0  0  0  0  0  0
   50.6160   31.6060   40.1280 C   0  0  0  0  0  2  0  0  0  0  0  0
   50.7950   30.5430   40.4450 H   0  0  0  0  0  0  0  0  0  0  0  0
   47.2690   29.9710   48.8210 N   0  0  0  0  0  0  0  0  0  0  0  0
   47.9960   29.2860   48.5210 H   0  0  0  0  0  0  0  0  0  0  0  0
   46.9570   29.9420   49.8390 H   0  0  0  0  0  0  0  0  0  0  0  0
  1  2  1  0  0  0  0
  1 12  1  0  0  0  0
  2 44  1  0  0  0  0
  3  2  2  0  0  0  0
  4  3  1  0  0  0  0
  5  4  2  0  0  0  0
  5  6  1  0  0  0  0
  6  1  2  0  0  0  0
  7  3  1  0  0  0  0
  7 11  1  0  0  0  0
  8  9  1  0  0  0  0
  8 14  1  0  0  0  0
  8  7  1  0  0  0  0
  9 10  1  0  0  0  0
 10 18  1  0  0  0  0
 10 11  1  0  0  0  0
 10 17  1  0  0  0  0
 11 19  1  0  0  0  0
 13  8  1  0  0  0  0
 15  9  1  0  0  0  0
 16  9  1  0  0  0  0
 20 11  1  0  0  0  0
 21 22  1  0  0  0  0
 21  5  1  0  0  0  0
 23 31  1  0  0  0  0
 23 22  2  0  0  0  0
 24 23  1  0  0  0  0
 25 24  2  0  0  0  0
 25 30  1  0  0  0  0
 26 25  1  0  0  0  0
 27 26  2  0  0  0  0
 27 28  1  0  0  0  0
 28 29  2  0  0  0  0
 29 30  1  0  0  0  0
 29 34  1  0  0  0  0
 30 21  2  0  0  0  0
 32 26  1  0  0  0  0
 33 27  1  0  0  0  0
 34 36  1  0  0  0  0
 35 34  1  0  0  0  0
 37 28  1  0  0  0  0
 38 37  1  0  0  0  0
 39 38  1  0  0  0  0
 40 38  1  0  0  0  0
 41 40  1  0  0  0  0
 42 43  1  0  0  0  0
 42 38  1  0  0  0  0
 44 46  1  0  0  0  0
 45 44  1  0  0  0  0
M  END
>  <minimizedAffinity>
-6.35999632

>  <minimizedRMSD>
0.70974791

$$$$
