
 OpenBabel03252503113D

 32 34  0  0  0  0  0  0  0  0999 V2000
   45.3810   36.2020   43.2590 C   0  0  0  0  0  0  0  0  0  0  0  0
   46.0180   34.9810   42.9890 C   0  0  0  0  0  0  0  0  0  0  0  0
   45.8890   34.0100   43.9720 C   0  0  0  0  0  0  0  0  0  0  0  0
   45.2010   34.2310   45.1010 N   0  0  0  0  0  0  0  0  0  0  0  0
   44.5990   35.4320   45.3200 C   0  0  0  0  0  0  0  0  0  0  0  0
   44.6920   36.4050   44.4030 N   0  0  0  0  0  0  0  0  0  0  0  0
   45.4430   37.0110   42.5260 H   0  0  0  0  0  0  0  0  0  0  0  0
   44.0500   35.6220   46.2100 H   0  0  0  0  0  0  0  0  0  0  0  0
   46.5010   32.7630   43.7730 C   0  0  0  0  0  0  0  0  0  0  0  0
   47.7660   32.2790   43.9560 C   0  0  0  0  0  0  0  0  0  0  0  0
   48.0930   31.0210   43.6820 C   0  0  0  0  0  0  0  0  0  0  0  0
   47.1050   30.2150   43.2030 C   0  0  0  0  0  0  0  0  0  0  0  0
   45.6350   31.3390   43.1510 S   0  0  0  0  0  0  0  0  0  0  0  0
   48.4930   33.0200   44.3500 H   0  0  0  0  0  0  0  0  0  0  0  0
   49.0710   30.5730   43.8010 H   0  0  0  0  0  0  0  0  0  0  0  0
   47.0930   29.1700   42.9030 H   0  0  0  0  0  0  0  0  0  0  0  0
   46.7320   34.8110   41.7690 C   0  0  0  0  0  0  0  0  0  0  0  0
   47.9150   35.2580   41.7500 O   0  0  0  0  0  0  0  0  0  0  0  0
   46.0770   34.1320   40.5980 C   0  0  0  0  0  0  0  0  0  0  0  0
   44.7290   34.1550   40.2880 C   0  0  0  0  0  0  0  0  0  0  0  0
   44.6090   33.4190   39.1680 N   0  0  0  0  0  0  0  0  0  0  0  0
   45.8470   32.9630   38.8100 C   0  0  0  0  0  0  0  0  0  0  0  0
   46.7550   33.4060   39.6970 N   0  0  0  0  0  0  0  0  0  0  0  0
   43.9380   34.6670   40.8420 H   0  0  0  0  0  0  0  0  0  0  0  0
   43.7000   33.2510   38.6880 H   0  0  0  0  0  0  0  0  0  0  0  0
   46.0130   32.1080   37.5870 C   0  0  0  0  0  2  0  0  0  0  0  0
   46.3280   32.8870   36.4220 N   0  0  0  0  0  4  0  0  0  0  0  0
   46.0210   33.8800   36.5940 H   0  0  0  0  0  0  0  0  0  0  0  0
   47.7690   32.9450   36.2400 C   0  0  0  0  0  2  0  0  0  0  0  0
   48.1500   33.6720   37.0020 H   0  0  0  0  0  0  0  0  0  0  0  0
   45.6460   32.4680   35.2210 C   0  0  0  0  0  2  0  0  0  0  0  0
   44.5560   32.5460   35.4400 H   0  0  0  0  0  0  0  0  0  0  0  0
  1  6  1  0  0  0  0
  2  1  2  0  0  0  0
  2  3  1  0  0  0  0
  3  4  2  0  0  0  0
  4  5  1  0  0  0  0
  5  8  1  0  0  0  0
  6  5  2  0  0  0  0
  7  1  1  0  0  0  0
  9 10  2  0  0  0  0
  9  3  1  0  0  0  0
 10 14  1  0  0  0  0
 11 15  1  0  0  0  0
 11 10  1  0  0  0  0
 12 11  2  0  0  0  0
 13 12  1  0  0  0  0
 13  9  1  0  0  0  0
 16 12  1  0  0  0  0
 17  2  1  0  0  0  0
 18 17  2  0  0  0  0
 19 17  1  0  0  0  0
 20 19  2  0  0  0  0
 20 24  1  0  0  0  0
 21 20  1  0  0  0  0
 22 21  1  0  0  0  0
 22 23  2  0  0  0  0
 23 19  1  0  0  0  0
 25 21  1  0  0  0  0
 26 22  1  0  0  0  0
 27 28  1  0  0  0  0
 27 26  1  0  0  0  0
 29 27  1  0  0  0  0
 29 30  1  0  0  0  0
 31 32  1  0  0  0  0
 31 27  1  0  0  0  0
M  END
>  <minimizedAffinity>
-4.50848866

>  <minimizedRMSD>
0.647557199

$$$$
