
 OpenBabel03252507523D

 29 30  0  0  1  0  0  0  0  0999 V2000
   45.7280   34.5150   41.5190 C   0  0  2  0  0  0  0  0  0  0  0  0
   45.3530   33.1750   40.9820 C   0  0  0  0  0  0  0  0  0  0  0  0
   46.0300   33.2340   39.6190 C   0  0  0  0  0  0  0  0  0  0  0  0
   47.2750   34.0850   39.8290 C   0  0  1  0  0  0  0  0  0  0  0  0
   47.2460   34.4950   41.2850 C   0  0  0  0  0  0  0  0  0  0  0  0
   45.3050   35.3160   40.8860 H   0  0  0  0  0  0  0  0  0  0  0  0
   45.7220   32.3500   41.5890 H   0  0  0  0  0  0  0  0  0  0  0  0
   44.2600   33.1650   40.8020 H   0  0  0  0  0  0  0  0  0  0  0  0
   46.2830   32.1820   39.3720 H   0  0  0  0  0  0  0  0  0  0  0  0
   45.3600   33.6390   38.8370 H   0  0  0  0  0  0  0  0  0  0  0  0
   47.1620   34.9800   39.2240 H   0  0  0  0  0  0  0  0  0  0  0  0
   47.5810   35.5440   41.3900 H   0  0  0  0  0  0  0  0  0  0  0  0
   47.7090   33.7800   41.9710 H   0  0  0  0  0  0  0  0  0  0  0  0
   44.5090   35.9830   44.7750 C   0  0  0  0  0  0  0  0  0  0  0  0
   44.7620   35.8930   43.4110 C   0  0  0  0  0  0  0  0  0  0  0  0
   45.4010   34.7520   42.9400 C   0  0  0  0  0  0  0  0  0  0  0  0
   45.7410   33.7850   43.8450 N   0  0  0  0  0  0  0  0  0  0  0  0
   45.4860   33.8920   45.1620 C   0  0  0  0  0  0  0  0  0  0  0  0
   44.8700   34.9880   45.6320 N   0  0  0  0  0  0  0  0  0  0  0  0
   44.0090   36.8640   45.1800 H   0  0  0  0  0  0  0  0  0  0  0  0
   44.4920   36.6530   42.7170 H   0  0  0  0  0  0  0  0  0  0  0  0
   45.7740   33.1020   45.8380 H   0  0  0  0  0  0  0  0  0  0  0  0
   48.4580   33.2290   39.5440 C   0  0  0  0  0  2  0  0  0  0  0  0
   49.1410   33.4840   38.3190 N   0  0  0  0  0  4  0  0  0  0  0  0
   50.0720   33.9240   38.5930 H   0  0  0  0  0  0  0  0  0  0  0  0
   49.4720   32.3100   37.5620 C   0  0  0  0  0  2  0  0  0  0  0  0
   48.9820   32.3880   36.5530 H   0  0  0  0  0  0  0  0  0  0  0  0
   48.5030   34.5170   37.5020 C   0  0  0  0  0  2  0  0  0  0  0  0
   49.3020   35.0160   36.8820 H   0  0  0  0  0  0  0  0  0  0  0  0
  1  6  1  6  0  0  0
  1 16  1  0  0  0  0
  2  1  1  0  0  0  0
  2  7  1  0  0  0  0
  3  4  1  0  0  0  0
  3  2  1  0  0  0  0
  4 11  1  6  0  0  0
  4  5  1  0  0  0  0
  5 12  1  0  0  0  0
  5  1  1  0  0  0  0
  5 13  1  0  0  0  0
  8  2  1  0  0  0  0
  9  3  1  0  0  0  0
 10  3  1  0  0  0  0
 14 20  1  0  0  0  0
 14 19  1  0  0  0  0
 15 14  2  0  0  0  0
 16 15  1  0  0  0  0
 16 17  2  0  0  0  0
 17 18  1  0  0  0  0
 18 19  2  0  0  0  0
 18 22  1  0  0  0  0
 21 15  1  0  0  0  0
 23  4  1  0  0  0  0
 24 25  1  0  0  0  0
 24 23  1  0  0  0  0
 26 24  1  0  0  0  0
 27 26  1  0  0  0  0
 28 24  1  0  0  0  0
 29 28  1  0  0  0  0
M  END
>  <minimizedAffinity>
-4.46341944

>  <minimizedRMSD>
1.53966308

$$$$
