
 OpenBabel03242520563D

 39 40  0  0  0  0  0  0  0  0999 V2000
   48.5170   31.4090   48.5530 C   0  0  0  0  0  3  0  0  0  0  0  0
   47.4330   32.1440   48.7040 C   0  0  0  0  0  3  0  0  0  0  0  0
   51.1810   32.1800   50.9330 C   0  0  0  0  0  0  0  0  0  0  0  0
   51.2990   30.9560   51.6490 C   0  0  0  0  0  0  0  0  0  0  0  0
   50.4880   29.9010   51.2990 C   0  0  0  0  0  0  0  0  0  0  0  0
   49.6310   30.1050   50.3000 N   0  0  0  0  0  0  0  0  0  0  0  0
   49.5090   31.2550   49.6200 C   0  0  0  0  0  0  0  0  0  0  0  0
   50.2860   32.3040   49.9320 N   0  0  0  0  0  0  0  0  0  0  0  0
   51.7650   33.0750   51.1130 H   0  0  0  0  0  0  0  0  0  0  0  0
   50.5550   28.7140   51.9330 O   0  0  0  0  0  0  0  0  0  0  0  0
   51.2820   27.6560   51.2910 C   0  0  0  0  0  0  0  0  0  0  0  0
   52.2420   28.2090   50.4270 F   0  0  0  0  0  0  0  0  0  0  0  0
   51.9710   26.9890   52.3010 F   0  0  0  0  0  0  0  0  0  0  0  0
   50.4740   26.7380   50.6330 F   0  0  0  0  0  0  0  0  0  0  0  0
   52.2750   31.0840   52.7490 C   0  0  0  0  0  2  0  0  0  0  0  0
   53.6210   30.6770   52.2770 N   0  0  0  0  0  4  0  0  0  0  0  0
   53.5890   30.4680   51.2330 H   0  0  0  0  0  0  0  0  0  0  0  0
   54.5830   31.7500   52.4300 C   0  0  0  0  0  2  0  0  0  0  0  0
   55.5680   31.3410   52.7890 H   0  0  0  0  0  0  0  0  0  0  0  0
   54.0860   29.5140   52.9970 C   0  0  0  0  0  2  0  0  0  0  0  0
   55.1160   29.7050   53.4130 H   0  0  0  0  0  0  0  0  0  0  0  0
   46.4560   32.2700   47.5910 C   0  0  0  0  0  0  0  0  0  0  0  0
   46.2870   31.2400   47.2530 H   0  0  0  0  0  0  0  0  0  0  0  0
   45.4680   32.6260   48.0170 H   0  0  0  0  0  0  0  0  0  0  0  0
   46.5480   32.8130   45.3150 C   0  0  0  0  0  0  0  0  0  0  0  0
   45.9630   31.8250   44.8250 O   0  0  0  0  0  0  0  0  0  0  0  0
   46.8570   33.1990   46.6150 N   0  0  0  0  0  0  0  0  0  0  0  0
   47.3380   34.0960   46.7640 H   0  0  0  0  0  0  0  0  0  0  0  0
   44.8360   35.1560   44.3700 Cl  0  0  0  0  0  0  0  0  0  0  0  0
   46.2460   34.6210   43.4970 C   0  0  0  0  0  0  0  0  0  0  0  0
   46.8710   33.5570   44.0900 C   0  0  0  0  0  0  0  0  0  0  0  0
   48.0220   33.0010   43.5210 C   0  0  0  0  0  0  0  0  0  0  0  0
   48.5390   33.5340   42.3400 C   0  0  0  0  0  0  0  0  0  0  0  0
   47.8840   34.6140   41.7600 C   0  0  0  0  0  0  0  0  0  0  0  0
   48.4930   35.3230   40.2810 Cl  0  0  0  0  0  0  0  0  0  0  0  0
   46.7580   35.1410   42.3360 C   0  0  0  0  0  0  0  0  0  0  0  0
   48.5960   32.1870   43.8720 H   0  0  0  0  0  0  0  0  0  0  0  0
   49.4210   33.1630   41.8380 H   0  0  0  0  0  0  0  0  0  0  0  0
   46.2050   35.9810   41.9310 H   0  0  0  0  0  0  0  0  0  0  0  0
  1  2  2  0  0  0  0
  1  7  1  0  0  0  0
  3  9  1  0  0  0  0
  3  4  1  0  0  0  0
  4 15  1  0  0  0  0
  5  4  2  0  0  0  0
  5 10  1  0  0  0  0
  6  5  1  0  0  0  0
  7  8  1  0  0  0  0
  7  6  2  0  0  0  0
  8  3  2  0  0  0  0
 11 10  1  0  0  0  0
 11 13  1  0  0  0  0
 12 11  1  0  0  0  0
 14 11  1  0  0  0  0
 16 18  1  0  0  0  0
 16 15  1  0  0  0  0
 16 20  1  0  0  0  0
 17 16  1  0  0  0  0
 18 19  1  0  0  0  0
 20 21  1  0  0  0  0
 22 24  1  0  0  0  0
 22  2  1  0  0  0  0
 23 22  1  0  0  0  0
 25 27  1  0  0  0  0
 26 25  2  0  0  0  0
 27 28  1  0  0  0  0
 27 22  1  0  0  0  0
 30 31  1  0  0  0  0
 30 29  1  0  0  0  0
 31 25  1  0  0  0  0
 32 37  1  0  0  0  0
 32 31  2  0  0  0  0
 33 32  1  0  0  0  0
 34 36  1  0  0  0  0
 34 33  2  0  0  0  0
 35 34  1  0  0  0  0
 36 30  2  0  0  0  0
 38 33  1  0  0  0  0
 39 36  1  0  0  0  0
M  END
>  <minimizedAffinity>
-6.22866774

>  <minimizedRMSD>
0.357187063

$$$$
