
 OpenBabel03252506183D

 21 21  0  0  0  0  0  0  0  0999 V2000
   44.8170   35.7280   43.5400 C   0  0  0  0  0  0  0  0  0  0  0  0
   44.2660   35.6720   42.2430 C   0  0  0  0  0  0  0  0  0  0  0  0
   44.2120   34.4240   41.6190 C   0  0  0  0  0  0  0  0  0  0  0  0
   44.6850   33.3420   42.2810 N   0  0  0  0  0  0  0  0  0  0  0  0
   45.2080   33.4290   43.5230 C   0  0  0  0  0  0  0  0  0  0  0  0
   45.2640   34.6150   44.1280 N   0  0  0  0  0  0  0  0  0  0  0  0
   43.9250   36.5830   41.8190 H   0  0  0  0  0  0  0  0  0  0  0  0
   43.7900   34.3730   40.6240 H   0  0  0  0  0  0  0  0  0  0  0  0
   44.8820   37.0260   44.2110 C   0  0  0  0  0  3  0  0  0  0  0  0
   45.3240   38.0710   43.5350 C   0  0  0  0  0  3  0  0  0  0  0  0
   45.4230   39.4210   44.1390 C   0  0  0  0  0  0  0  0  0  0  0  0
   46.3670   39.5460   44.6950 H   0  0  0  0  0  0  0  0  0  0  0  0
   44.5550   39.6160   44.8060 H   0  0  0  0  0  0  0  0  0  0  0  0
   45.4000   40.1910   43.3380 H   0  0  0  0  0  0  0  0  0  0  0  0
   45.6690   32.1510   44.0780 C   0  0  0  0  0  2  0  0  0  0  0  0
   47.0380   32.1750   44.5560 N   0  0  0  0  0  4  0  0  0  0  0  0
   47.4740   33.1210   44.4020 H   0  0  0  0  0  0  0  0  0  0  0  0
   46.9680   31.8710   45.9740 C   0  0  0  0  0  2  0  0  0  0  0  0
   46.2430   31.0170   46.0750 H   0  0  0  0  0  0  0  0  0  0  0  0
   47.8670   31.1950   43.9230 C   0  0  0  0  0  2  0  0  0  0  0  0
   47.2980   30.3510   43.5000 H   0  0  0  0  0  0  0  0  0  0  0  0
  1  6  1  0  0  0  0
  1  9  1  0  0  0  0
  2  1  2  0  0  0  0
  3  2  1  0  0  0  0
  3  4  2  0  0  0  0
  4  5  1  0  0  0  0
  5 15  1  0  0  0  0
  5  6  2  0  0  0  0
  7  2  1  0  0  0  0
  8  3  1  0  0  0  0
 10 11  1  0  0  0  0
 10  9  2  0  0  0  0
 11 12  1  0  0  0  0
 11 13  1  0  0  0  0
 14 11  1  0  0  0  0
 15 16  1  0  0  0  0
 16 18  1  0  0  0  0
 17 16  1  0  0  0  0
 18 19  1  0  0  0  0
 20 16  1  0  0  0  0
 21 20  1  0  0  0  0
M  END
>  <minimizedAffinity>
-2.83253884

>  <minimizedRMSD>
1.17823875

$$$$
