
 OpenBabel03242518123D

 29 30  0  0  0  0  0  0  0  0999 V2000
   49.0630   34.5500   42.4500 C   0  0  0  0  0  0  0  0  0  0  0  0
   49.9100   35.2190   42.7150 H   0  0  0  0  0  0  0  0  0  0  0  0
   48.6180   34.2250   43.4180 H   0  0  0  0  0  0  0  0  0  0  0  0
   49.5640   33.4530   41.6850 C   0  0  0  0  0  0  0  0  0  0  0  0
   49.1590   32.7030   40.5300 C   0  0  0  0  0  0  0  0  0  0  0  0
   49.9570   31.6870   40.0890 C   0  0  0  0  0  0  0  0  0  0  0  0
   51.1820   31.4180   40.8230 C   0  0  0  0  0  0  0  0  0  0  0  0
   51.1940   32.6360   42.1600 S   0  0  0  0  0  0  0  0  0  0  0  0
   48.2310   33.0200   40.1010 H   0  0  0  0  0  0  0  0  0  0  0  0
   49.6900   31.1010   39.2270 H   0  0  0  0  0  0  0  0  0  0  0  0
   52.1270   30.4220   40.5260 C   0  0  0  0  0  2  0  0  0  0  0  0
   52.0030   29.2860   41.3770 N   0  0  0  0  0  4  0  0  0  0  0  0
   52.3210   28.4260   40.8720 H   0  0  0  0  0  0  0  0  0  0  0  0
   50.6820   29.0850   41.9250 C   0  0  0  0  0  2  0  0  0  0  0  0
   50.0640   28.5140   41.2060 H   0  0  0  0  0  0  0  0  0  0  0  0
   52.9290   29.4090   42.5060 C   0  0  0  0  0  2  0  0  0  0  0  0
   53.9620   29.5500   42.0880 H   0  0  0  0  0  0  0  0  0  0  0  0
   48.0350   35.4130   41.7560 C   0  0  0  0  0  0  0  0  0  0  0  0
   48.0970   36.4600   42.1490 H   0  0  0  0  0  0  0  0  0  0  0  0
   48.2650   35.4430   40.6960 H   0  0  0  0  0  0  0  0  0  0  0  0
   46.7110   34.8720   42.0250 C   0  0  0  0  0  0  0  0  0  0  0  0
   46.1900   34.7830   43.3030 C   0  0  0  0  0  0  0  0  0  0  0  0
   44.9140   34.2510   43.4750 C   0  0  0  0  0  0  0  0  0  0  0  0
   44.2480   33.8450   42.3710 N   0  0  0  0  0  0  0  0  0  0  0  0
   44.7590   33.9340   41.1420 C   0  0  0  0  0  0  0  0  0  0  0  0
   45.9640   34.4390   41.0000 N   0  0  0  0  0  0  0  0  0  0  0  0
   46.7680   35.1250   44.1590 H   0  0  0  0  0  0  0  0  0  0  0  0
   44.4810   34.1720   44.4800 H   0  0  0  0  0  0  0  0  0  0  0  0
   44.1950   33.5980   40.2810 H   0  0  0  0  0  0  0  0  0  0  0  0
  1  2  1  0  0  0  0
  1  3  1  0  0  0  0
  4  8  1  0  0  0  0
  4  1  1  0  0  0  0
  5  4  2  0  0  0  0
  6  5  1  0  0  0  0
  6  7  2  0  0  0  0
  7  8  1  0  0  0  0
  9  5  1  0  0  0  0
 10  6  1  0  0  0  0
 11  7  1  0  0  0  0
 11 12  1  0  0  0  0
 12 14  1  0  0  0  0
 12 16  1  0  0  0  0
 13 12  1  0  0  0  0
 15 14  1  0  0  0  0
 17 16  1  0  0  0  0
 18 21  1  0  0  0  0
 18 19  1  0  0  0  0
 18  1  1  0  0  0  0
 20 18  1  0  0  0  0
 21 22  1  0  0  0  0
 22 23  2  0  0  0  0
 22 27  1  0  0  0  0
 23 28  1  0  0  0  0
 24 23  1  0  0  0  0
 25 24  2  0  0  0  0
 26 25  1  0  0  0  0
 26 21  2  0  0  0  0
 29 25  1  0  0  0  0
M  END
>  <minimizedAffinity>
-3.25252008

>  <minimizedRMSD>
0.449427694

$$$$
