
 OpenBabel03252507073D

 22 22  0  0  0  0  0  0  0  0999 V2000
   44.5740   35.6160   44.7280 C   0  0  0  0  0  0  0  0  0  0  0  0
   45.1360   35.7300   43.4450 C   0  0  0  0  0  0  0  0  0  0  0  0
   46.1820   34.8580   43.1420 C   0  0  0  0  0  0  0  0  0  0  0  0
   46.6040   33.9640   44.0650 N   0  0  0  0  0  0  0  0  0  0  0  0
   46.0370   33.8820   45.2940 C   0  0  0  0  0  0  0  0  0  0  0  0
   45.0170   34.7160   45.6190 N   0  0  0  0  0  0  0  0  0  0  0  0
   43.7620   36.3050   44.9360 H   0  0  0  0  0  0  0  0  0  0  0  0
   44.7740   36.4540   42.7360 H   0  0  0  0  0  0  0  0  0  0  0  0
   46.7410   34.9730   41.8650 O   0  0  0  0  0  0  0  0  0  0  0  0
   48.6140   33.2450   41.1620 O   0  0  0  0  0  0  0  0  0  0  0  0
   48.4120   34.6770   41.6590 P   0  0  0  0  0  0  0  0  0  0  0  0
   49.0460   35.7960   40.6030 O   0  0  0  0  0  0  0  0  0  0  0  0
   49.8750   36.1700   40.9980 H   0  0  0  0  0  0  0  0  0  0  0  0
   49.1440   34.7850   43.1860 O   0  0  0  0  0  0  0  0  0  0  0  0
   49.2070   33.9050   43.6310 H   0  0  0  0  0  0  0  0  0  0  0  0
   46.5510   32.8870   46.2360 C   0  0  0  0  0  2  0  0  0  0  0  0
   45.5220   31.9450   46.5970 N   0  0  0  0  0  4  0  0  0  0  0  0
   44.6490   32.2740   46.1050 H   0  0  0  0  0  0  0  0  0  0  0  0
   45.2170   32.0330   48.0160 C   0  0  0  0  0  2  0  0  0  0  0  0
   45.7440   31.2530   48.6000 H   0  0  0  0  0  0  0  0  0  0  0  0
   45.7530   30.6010   46.1690 C   0  0  0  0  0  2  0  0  0  0  0  0
   45.6060   29.8640   47.0090 H   0  0  0  0  0  0  0  0  0  0  0  0
  1  7  1  0  0  0  0
  1  6  1  0  0  0  0
  2  1  2  0  0  0  0
  3  2  1  0  0  0  0
  3  4  2  0  0  0  0
  4  5  1  0  0  0  0
  5  6  2  0  0  0  0
  5 16  1  0  0  0  0
  8  2  1  0  0  0  0
  9  3  1  0  0  0  0
 10 11  2  0  0  0  0
 11  9  1  0  0  0  0
 11 14  1  0  0  0  0
 12 13  1  0  0  0  0
 12 11  1  0  0  0  0
 14 15  1  0  0  0  0
 16 17  1  0  0  0  0
 17 19  1  0  0  0  0
 18 17  1  0  0  0  0
 19 20  1  0  0  0  0
 21 17  1  0  0  0  0
 21 22  1  0  0  0  0
M  END
>  <minimizedAffinity>
-4.96952152

>  <minimizedRMSD>
0.996590078

$$$$
