
 OpenBabel03242514513D

 42 44  0  0  1  0  0  0  0  0999 V2000
   38.3650   29.4970   42.4160 C   0  0  0  0  0  0  0  0  0  0  0  0
   38.0840   29.8110   41.0950 C   0  0  0  0  0  0  0  0  0  0  0  0
   38.8510   30.8390   40.5170 C   0  0  0  0  0  0  0  0  0  0  0  0
   39.8050   31.4580   41.2620 N   0  0  0  0  0  0  0  0  0  0  0  0
   40.0310   31.1120   42.5340 C   0  0  0  0  0  0  0  0  0  0  0  0
   39.3200   30.1500   43.0910 N   0  0  0  0  0  0  0  0  0  0  0  0
   38.7090   31.1520   39.5030 H   0  0  0  0  0  0  0  0  0  0  0  0
   40.7730   31.5670   43.1780 H   0  0  0  0  0  0  0  0  0  0  0  0
   35.6460   29.6010   40.6090 C   0  0  2  0  0  0  0  0  0  0  0  0
   37.0770   29.0920   40.2670 C   0  0  1  0  0  0  0  0  0  0  0  0
   37.2520   29.1490   38.9410 O   0  0  0  0  0  0  0  0  0  0  0  0
   36.2650   29.8940   38.3510 C   0  0  0  0  0  0  0  0  0  0  0  0
   35.0520   29.5970   39.1810 C   0  0  1  0  0  0  0  0  0  0  0  0
   35.0160   28.9200   41.1580 H   0  0  0  0  0  0  0  0  0  0  0  0
   36.8280   28.1030   40.5170 H   0  0  0  0  0  0  0  0  0  0  0  0
   36.1490   29.5590   37.2980 H   0  0  0  0  0  0  0  0  0  0  0  0
   36.4460   30.9760   38.3800 H   0  0  0  0  0  0  0  0  0  0  0  0
   34.2730   30.3650   39.1150 H   0  0  0  0  0  0  0  0  0  0  0  0
   35.5870   30.8230   41.1430 O   0  0  0  0  0  0  0  0  0  0  0  0
   36.4510   31.1860   41.4520 H   0  0  0  0  0  0  0  0  0  0  0  0
   34.6080   28.3300   38.8310 O   0  0  0  0  0  0  0  0  0  0  0  0
   33.9990   28.4200   38.0570 H   0  0  0  0  0  0  0  0  0  0  0  0
   37.5550   28.4200   43.0480 C   0  0  0  0  0  0  0  0  0  0  0  0
   37.5400   28.7340   44.1390 H   0  0  0  0  0  0  0  0  0  0  0  0
   36.5190   28.3780   42.7710 H   0  0  0  0  0  0  0  0  0  0  0  0
   36.5320   26.1960   41.5490 F   0  0  0  0  0  0  0  0  0  0  0  0
   37.6470   26.0750   42.2540 C   0  0  0  0  0  0  0  0  0  0  0  0
   38.1950   27.0960   42.9810 C   0  0  0  0  0  0  0  0  0  0  0  0
   39.3760   26.9000   43.6700 C   0  0  0  0  0  0  0  0  0  0  0  0
   39.9600   25.6520   43.5910 C   0  0  0  0  0  0  0  0  0  0  0  0
   39.4550   24.5800   42.8750 C   0  0  0  0  0  0  0  0  0  0  0  0
   38.2550   24.8030   42.1830 C   0  0  0  0  0  0  0  0  0  0  0  0
   39.8170   27.7000   44.2460 H   0  0  0  0  0  0  0  0  0  0  0  0
   40.8840   25.5480   44.1460 H   0  0  0  0  0  0  0  0  0  0  0  0
   39.9770   23.6550   42.8730 H   0  0  0  0  0  0  0  0  0  0  0  0
   37.6720   23.6750   41.4070 C   0  0  0  0  0  2  0  0  0  0  0  0
   38.4680   23.2920   40.2850 N   0  0  0  0  0  4  0  0  0  0  0  0
   39.4950   23.4580   40.5300 H   0  0  0  0  0  0  0  0  0  0  0  0
   38.3820   21.9260   39.8850 C   0  0  0  0  0  2  0  0  0  0  0  0
   38.3230   21.2360   40.7480 H   0  0  0  0  0  0  0  0  0  0  0  0
   38.2350   24.1570   39.1420 C   0  0  0  0  0  2  0  0  0  0  0  0
   38.8710   23.8010   38.2840 H   0  0  0  0  0  0  0  0  0  0  0  0
  1 23  1  0  0  0  0
  1  6  1  0  0  0  0
  2  1  2  0  0  0  0
  3  2  1  0  0  0  0
  3  4  2  0  0  0  0
  4  5  1  0  0  0  0
  5  6  2  0  0  0  0
  5  8  1  0  0  0  0
  7  3  1  0  0  0  0
  9 19  1  0  0  0  0
  9 14  1  1  0  0  0
 10 15  1  1  0  0  0
 10  9  1  0  0  0  0
 10  2  1  0  0  0  0
 11 10  1  0  0  0  0
 12 17  1  0  0  0  0
 12 11  1  0  0  0  0
 12 13  1  0  0  0  0
 13 18  1  6  0  0  0
 13  9  1  0  0  0  0
 16 12  1  0  0  0  0
 19 20  1  0  0  0  0
 21 13  1  0  0  0  0
 22 21  1  0  0  0  0
 23 24  1  0  0  0  0
 25 23  1  0  0  0  0
 26 27  1  0  0  0  0
 27 28  1  0  0  0  0
 28 23  1  0  0  0  0
 28 29  2  0  0  0  0
 29 33  1  0  0  0  0
 30 29  1  0  0  0  0
 30 34  1  0  0  0  0
 31 30  2  0  0  0  0
 32 27  2  0  0  0  0
 32 31  1  0  0  0  0
 35 31  1  0  0  0  0
 36 32  1  0  0  0  0
 37 38  1  0  0  0  0
 37 36  1  0  0  0  0
 39 37  1  0  0  0  0
 39 40  1  0  0  0  0
 41 37  1  0  0  0  0
 42 41  1  0  0  0  0
M  END
>  <minimizedAffinity>
-5.98374891

$$$$

 OpenBabel03242514513D

 42 44  0  0  1  0  0  0  0  0999 V2000
   36.3260   30.0170   39.2750 C   0  0  0  0  0  0  0  0  0  0  0  0
   37.0700   31.1570   39.0110 C   0  0  0  0  0  0  0  0  0  0  0  0
   37.5330   31.3130   37.6920 C   0  0  0  0  0  0  0  0  0  0  0  0
   37.2380   30.3640   36.7660 N   0  0  0  0  0  0  0  0  0  0  0  0
   36.5150   29.2830   37.0790 C   0  0  0  0  0  0  0  0  0  0  0  0
   36.0730   29.1210   38.3120 N   0  0  0  0  0  0  0  0  0  0  0  0
   38.1150   32.1600   37.3910 H   0  0  0  0  0  0  0  0  0  0  0  0
   36.2490   28.4920   36.3880 H   0  0  0  0  0  0  0  0  0  0  0  0
   38.8020   32.0910   40.5440 C   0  0  2  0  0  0  0  0  0  0  0  0
   37.3430   32.2210   40.0160 C   0  0  1  0  0  0  0  0  0  0  0  0
   37.1380   33.4810   39.6140 O   0  0  0  0  0  0  0  0  0  0  0  0
   38.3230   34.1600   39.5150 C   0  0  0  0  0  0  0  0  0  0  0  0
   39.1510   33.5960   40.6320 C   0  0  1  0  0  0  0  0  0  0  0  0
   38.9130   31.7360   41.5560 H   0  0  0  0  0  0  0  0  0  0  0  0
   36.9430   32.1210   40.9820 H   0  0  0  0  0  0  0  0  0  0  0  0
   38.1220   35.2450   39.6440 H   0  0  0  0  0  0  0  0  0  0  0  0
   38.8560   33.9890   38.5720 H   0  0  0  0  0  0  0  0  0  0  0  0
   40.2300   33.7230   40.4890 H   0  0  0  0  0  0  0  0  0  0  0  0
   39.6490   31.4560   39.7310 O   0  0  0  0  0  0  0  0  0  0  0  0
   39.2250   30.9620   38.9900 H   0  0  0  0  0  0  0  0  0  0  0  0
   38.6810   34.1460   41.8160 O   0  0  0  0  0  0  0  0  0  0  0  0
   39.1520   35.0040   41.9640 H   0  0  0  0  0  0  0  0  0  0  0  0
   35.8370   29.8290   40.6690 C   0  0  0  0  0  0  0  0  0  0  0  0
   35.8450   30.8880   41.0760 H   0  0  0  0  0  0  0  0  0  0  0  0
   34.8180   29.5100   40.7780 H   0  0  0  0  0  0  0  0  0  0  0  0
   36.2100   26.9940   40.4160 F   0  0  0  0  0  0  0  0  0  0  0  0
   36.8740   27.6790   41.3350 C   0  0  0  0  0  0  0  0  0  0  0  0
   36.7530   29.0310   41.5020 C   0  0  0  0  0  0  0  0  0  0  0  0
   37.4990   29.6800   42.4660 C   0  0  0  0  0  0  0  0  0  0  0  0
   38.3530   28.9140   43.2340 C   0  0  0  0  0  0  0  0  0  0  0  0
   38.5190   27.5440   43.1130 C   0  0  0  0  0  0  0  0  0  0  0  0
   37.7500   26.9070   42.1270 C   0  0  0  0  0  0  0  0  0  0  0  0
   37.4110   30.7480   42.6050 H   0  0  0  0  0  0  0  0  0  0  0  0
   38.9170   29.4670   43.9730 H   0  0  0  0  0  0  0  0  0  0  0  0
   39.2010   27.0390   43.7500 H   0  0  0  0  0  0  0  0  0  0  0  0
   37.8910   25.4350   41.9700 C   0  0  0  0  0  2  0  0  0  0  0  0
   39.2490   25.0060   41.8640 N   0  0  0  0  0  4  0  0  0  0  0  0
   39.8770   25.8720   41.8880 H   0  0  0  0  0  0  0  0  0  0  0  0
   39.7270   24.1550   42.9020 C   0  0  0  0  0  2  0  0  0  0  0  0
   39.3450   24.4470   43.8990 H   0  0  0  0  0  0  0  0  0  0  0  0
   39.5230   24.4090   40.5690 C   0  0  0  0  0  2  0  0  0  0  0  0
   40.5970   24.0740   40.5460 H   0  0  0  0  0  0  0  0  0  0  0  0
  1 23  1  0  0  0  0
  2  1  1  0  0  0  0
  2 10  1  0  0  0  0
  3  2  2  0  0  0  0
  4  5  2  0  0  0  0
  4  3  1  0  0  0  0
  5  6  1  0  0  0  0
  6  1  2  0  0  0  0
  7  3  1  0  0  0  0
  8  5  1  0  0  0  0
  9 13  1  0  0  0  0
  9 14  1  1  0  0  0
 10  9  1  0  0  0  0
 10 15  1  1  0  0  0
 11 10  1  0  0  0  0
 12 11  1  0  0  0  0
 12 16  1  0  0  0  0
 12 13  1  0  0  0  0
 13 18  1  6  0  0  0
 13 21  1  0  0  0  0
 17 12  1  0  0  0  0
 19  9  1  0  0  0  0
 20 19  1  0  0  0  0
 21 22  1  0  0  0  0
 23 25  1  0  0  0  0
 23 24  1  0  0  0  0
 23 28  1  0  0  0  0
 26 27  1  0  0  0  0
 27 28  2  0  0  0  0
 27 32  1  0  0  0  0
 28 29  1  0  0  0  0
 29 33  1  0  0  0  0
 29 30  2  0  0  0  0
 30 34  1  0  0  0  0
 31 30  1  0  0  0  0
 31 35  1  0  0  0  0
 32 31  2  0  0  0  0
 36 32  1  0  0  0  0
 37 38  1  0  0  0  0
 37 36  1  0  0  0  0
 37 39  1  0  0  0  0
 39 40  1  0  0  0  0
 41 37  1  0  0  0  0
 42 41  1  0  0  0  0
M  END
>  <minimizedAffinity>
-5.96182728

$$$$

 OpenBabel03242514513D

 42 44  0  0  1  0  0  0  0  0999 V2000
   36.1390   27.3410   39.2830 C   0  0  0  0  0  0  0  0  0  0  0  0
   37.1650   27.1380   40.1940 C   0  0  0  0  0  0  0  0  0  0  0  0
   37.8330   25.9020   40.1210 C   0  0  0  0  0  0  0  0  0  0  0  0
   37.4500   24.9920   39.1880 N   0  0  0  0  0  0  0  0  0  0  0  0
   36.4510   25.2430   38.3350 C   0  0  0  0  0  0  0  0  0  0  0  0
   35.8130   26.3980   38.3900 N   0  0  0  0  0  0  0  0  0  0  0  0
   38.6390   25.6530   40.7800 H   0  0  0  0  0  0  0  0  0  0  0  0
   36.0980   24.5600   37.5720 H   0  0  0  0  0  0  0  0  0  0  0  0
   36.8800   27.9570   42.5330 C   0  0  2  0  0  0  0  0  0  0  0  0
   37.6170   28.1600   41.1770 C   0  0  1  0  0  0  0  0  0  0  0  0
   38.9350   28.2210   41.4040 O   0  0  0  0  0  0  0  0  0  0  0  0
   39.2300   27.7960   42.6730 C   0  0  0  0  0  0  0  0  0  0  0  0
   38.0600   28.2640   43.4860 C   0  0  1  0  0  0  0  0  0  0  0  0
   36.1370   28.6960   42.7870 H   0  0  0  0  0  0  0  0  0  0  0  0
   37.2610   29.1450   41.0860 H   0  0  0  0  0  0  0  0  0  0  0  0
   40.1830   28.2700   42.9930 H   0  0  0  0  0  0  0  0  0  0  0  0
   39.3040   26.7060   42.7720 H   0  0  0  0  0  0  0  0  0  0  0  0
   37.9200   27.7080   44.4200 H   0  0  0  0  0  0  0  0  0  0  0  0
   36.4070   26.7270   42.7470 O   0  0  0  0  0  0  0  0  0  0  0  0
   36.3900   26.1420   41.9530 H   0  0  0  0  0  0  0  0  0  0  0  0
   38.2030   29.6320   43.6730 O   0  0  0  0  0  0  0  0  0  0  0  0
   38.7600   29.7750   44.4780 H   0  0  0  0  0  0  0  0  0  0  0  0
   35.4120   28.6390   39.3540 C   0  0  0  0  0  0  0  0  0  0  0  0
   34.5370   28.4670   38.6520 H   0  0  0  0  0  0  0  0  0  0  0  0
   34.9540   28.8780   40.2940 H   0  0  0  0  0  0  0  0  0  0  0  0
   35.9850   31.0470   40.8060 F   0  0  0  0  0  0  0  0  0  0  0  0
   36.4160   30.8940   39.5630 C   0  0  0  0  0  0  0  0  0  0  0  0
   36.1890   29.7690   38.8190 C   0  0  0  0  0  0  0  0  0  0  0  0
   36.6940   29.6730   37.5370 C   0  0  0  0  0  0  0  0  0  0  0  0
   37.4220   30.7420   37.0560 C   0  0  0  0  0  0  0  0  0  0  0  0
   37.6850   31.9060   37.7580 C   0  0  0  0  0  0  0  0  0  0  0  0
   37.1610   31.9810   39.0580 C   0  0  0  0  0  0  0  0  0  0  0  0
   36.5200   28.7880   36.9410 H   0  0  0  0  0  0  0  0  0  0  0  0
   37.7980   30.6190   36.0480 H   0  0  0  0  0  0  0  0  0  0  0  0
   38.2560   32.6770   37.3050 H   0  0  0  0  0  0  0  0  0  0  0  0
   37.4130   33.2180   39.8450 C   0  0  0  0  0  2  0  0  0  0  0  0
   38.6410   33.1840   40.5740 N   0  0  0  0  0  4  0  0  0  0  0  0
   38.5040   33.7210   41.4880 H   0  0  0  0  0  0  0  0  0  0  0  0
   39.1170   31.8950   40.9500 C   0  0  0  0  0  2  0  0  0  0  0  0
   38.3010   31.2170   41.2660 H   0  0  0  0  0  0  0  0  0  0  0  0
   39.6900   33.9180   39.8880 C   0  0  0  0  0  2  0  0  0  0  0  0
   40.6370   33.8440   40.4930 H   0  0  0  0  0  0  0  0  0  0  0  0
  1 23  1  0  0  0  0
  1  2  1  0  0  0  0
  2 10  1  0  0  0  0
  3  2  2  0  0  0  0
  3  7  1  0  0  0  0
  4  3  1  0  0  0  0
  5  6  1  0  0  0  0
  5  4  2  0  0  0  0
  6  1  2  0  0  0  0
  8  5  1  0  0  0  0
  9 19  1  0  0  0  0
  9 14  1  1  0  0  0
  9 13  1  0  0  0  0
 10 15  1  6  0  0  0
 10 11  1  0  0  0  0
 10  9  1  0  0  0  0
 11 12  1  0  0  0  0
 12 17  1  0  0  0  0
 12 16  1  0  0  0  0
 12 13  1  0  0  0  0
 13 21  1  0  0  0  0
 13 18  1  1  0  0  0
 20 19  1  0  0  0  0
 21 22  1  0  0  0  0
 23 25  1  0  0  0  0
 24 23  1  0  0  0  0
 27 26  1  0  0  0  0
 28 23  1  0  0  0  0
 28 27  2  0  0  0  0
 29 28  1  0  0  0  0
 30 29  2  0  0  0  0
 30 31  1  0  0  0  0
 31 32  2  0  0  0  0
 32 27  1  0  0  0  0
 32 36  1  0  0  0  0
 33 29  1  0  0  0  0
 34 30  1  0  0  0  0
 35 31  1  0  0  0  0
 36 37  1  0  0  0  0
 37 39  1  0  0  0  0
 37 38  1  0  0  0  0
 39 40  1  0  0  0  0
 41 42  1  0  0  0  0
 41 37  1  0  0  0  0
M  END
>  <minimizedAffinity>
-5.76359797

$$$$

 OpenBabel03242514513D

 42 44  0  0  1  0  0  0  0  0999 V2000
   38.4900   29.3960   38.9680 C   0  0  0  0  0  0  0  0  0  0  0  0
   38.0310   30.6970   38.8250 C   0  0  0  0  0  0  0  0  0  0  0  0
   37.3920   31.0080   37.6110 C   0  0  0  0  0  0  0  0  0  0  0  0
   37.2600   30.0440   36.6620 N   0  0  0  0  0  0  0  0  0  0  0  0
   37.7230   28.8040   36.8560 C   0  0  0  0  0  0  0  0  0  0  0  0
   38.3260   28.4960   37.9900 N   0  0  0  0  0  0  0  0  0  0  0  0
   37.0030   31.9840   37.4080 H   0  0  0  0  0  0  0  0  0  0  0  0
   37.6510   27.9950   36.1400 H   0  0  0  0  0  0  0  0  0  0  0  0
   39.3860   32.6220   39.6540 C   0  0  2  0  0  0  0  0  0  0  0  0
   38.1290   31.7330   39.8900 C   0  0  1  0  0  0  0  0  0  0  0  0
   37.0610   32.5250   40.0450 O   0  0  0  0  0  0  0  0  0  0  0  0
   37.3460   33.8080   39.6580 C   0  0  0  0  0  0  0  0  0  0  0  0
   38.7810   33.9880   40.0550 C   0  0  1  0  0  0  0  0  0  0  0  0
   40.2030   32.4830   40.3420 H   0  0  0  0  0  0  0  0  0  0  0  0
   38.4610   31.4490   40.8450 H   0  0  0  0  0  0  0  0  0  0  0  0
   36.6670   34.5010   40.2020 H   0  0  0  0  0  0  0  0  0  0  0  0
   37.2630   33.9770   38.5780 H   0  0  0  0  0  0  0  0  0  0  0  0
   39.2960   34.7830   39.5030 H   0  0  0  0  0  0  0  0  0  0  0  0
   39.8340   32.6530   38.3960 O   0  0  0  0  0  0  0  0  0  0  0  0
   39.4580   31.9620   37.8010 H   0  0  0  0  0  0  0  0  0  0  0  0
   38.8150   34.1600   41.4310 O   0  0  0  0  0  0  0  0  0  0  0  0
   38.6910   35.1230   41.6240 H   0  0  0  0  0  0  0  0  0  0  0  0
   39.1800   29.0520   40.2420 C   0  0  0  0  0  0  0  0  0  0  0  0
   40.0770   28.4580   39.8810 H   0  0  0  0  0  0  0  0  0  0  0  0
   39.6070   29.8710   40.7880 H   0  0  0  0  0  0  0  0  0  0  0  0
   39.4470   26.1960   40.3250 F   0  0  0  0  0  0  0  0  0  0  0  0
   38.5580   26.8090   41.0920 C   0  0  0  0  0  0  0  0  0  0  0  0
   38.3870   28.1670   41.1100 C   0  0  0  0  0  0  0  0  0  0  0  0
   37.4570   28.7360   41.9580 C   0  0  0  0  0  0  0  0  0  0  0  0
   36.7270   27.8880   42.7650 C   0  0  0  0  0  0  0  0  0  0  0  0
   36.8530   26.5090   42.7920 C   0  0  0  0  0  0  0  0  0  0  0  0
   37.8040   25.9540   41.9220 C   0  0  0  0  0  0  0  0  0  0  0  0
   37.3150   29.8070   41.9800 H   0  0  0  0  0  0  0  0  0  0  0  0
   36.0130   28.3810   43.4130 H   0  0  0  0  0  0  0  0  0  0  0  0
   36.2460   25.9370   43.4490 H   0  0  0  0  0  0  0  0  0  0  0  0
   37.9650   24.4750   41.9120 C   0  0  0  0  0  2  0  0  0  0  0  0
   37.6370   23.8800   40.6550 N   0  0  0  0  0  4  0  0  0  0  0  0
   37.9780   24.5310   39.8780 H   0  0  0  0  0  0  0  0  0  0  0  0
   38.2250   22.6110   40.3820 C   0  0  0  0  0  2  0  0  0  0  0  0
   39.2710   22.5440   40.7380 H   0  0  0  0  0  0  0  0  0  0  0  0
   36.2010   23.8140   40.4530 C   0  0  0  0  0  2  0  0  0  0  0  0
   35.9980   23.3230   39.4600 H   0  0  0  0  0  0  0  0  0  0  0  0
  1 23  1  0  0  0  0
  2  1  1  0  0  0  0
  2 10  1  0  0  0  0
  3  2  2  0  0  0  0
  4  5  2  0  0  0  0
  4  3  1  0  0  0  0
  5  6  1  0  0  0  0
  6  1  2  0  0  0  0
  7  3  1  0  0  0  0
  8  5  1  0  0  0  0
  9 10  1  0  0  0  0
  9 13  1  0  0  0  0
  9 14  1  1  0  0  0
 10 11  1  0  0  0  0
 10 15  1  1  0  0  0
 12 11  1  0  0  0  0
 12 13  1  0  0  0  0
 12 16  1  0  0  0  0
 13 18  1  6  0  0  0
 13 21  1  0  0  0  0
 17 12  1  0  0  0  0
 19  9  1  0  0  0  0
 20 19  1  0  0  0  0
 21 22  1  0  0  0  0
 23 25  1  0  0  0  0
 23 28  1  0  0  0  0
 24 23  1  0  0  0  0
 26 27  1  0  0  0  0
 27 28  2  0  0  0  0
 27 32  1  0  0  0  0
 28 29  1  0  0  0  0
 29 33  1  0  0  0  0
 29 30  2  0  0  0  0
 30 31  1  0  0  0  0
 30 34  1  0  0  0  0
 31 35  1  0  0  0  0
 32 31  2  0  0  0  0
 36 32  1  0  0  0  0
 37 36  1  0  0  0  0
 38 37  1  0  0  0  0
 39 37  1  0  0  0  0
 39 40  1  0  0  0  0
 41 37  1  0  0  0  0
 42 41  1  0  0  0  0
M  END
>  <minimizedAffinity>
-5.68232775

$$$$

 OpenBabel03242514513D

 42 44  0  0  1  0  0  0  0  0999 V2000
   37.1520   29.6890   41.5950 C   0  0  0  0  0  0  0  0  0  0  0  0
   37.8190   30.7180   40.9490 C   0  0  0  0  0  0  0  0  0  0  0  0
   37.2870   31.1340   39.7150 C   0  0  0  0  0  0  0  0  0  0  0  0
   36.1760   30.5220   39.2290 N   0  0  0  0  0  0  0  0  0  0  0  0
   35.5740   29.5320   39.8980 C   0  0  0  0  0  0  0  0  0  0  0  0
   36.0610   29.1300   41.0570 N   0  0  0  0  0  0  0  0  0  0  0  0
   37.7310   31.9220   39.1420 H   0  0  0  0  0  0  0  0  0  0  0  0
   34.6890   29.0050   39.5630 H   0  0  0  0  0  0  0  0  0  0  0  0
   40.3130   30.8080   40.9350 C   0  0  2  0  0  0  0  0  0  0  0  0
   39.0040   31.4220   41.5120 C   0  0  1  0  0  0  0  0  0  0  0  0
   39.0380   32.7510   41.3450 O   0  0  0  0  0  0  0  0  0  0  0  0
   40.0370   33.1060   40.4780 C   0  0  0  0  0  0  0  0  0  0  0  0
   41.1250   32.1130   40.7620 C   0  0  1  0  0  0  0  0  0  0  0  0
   40.9040   30.2180   41.6170 H   0  0  0  0  0  0  0  0  0  0  0  0
   39.2950   31.2150   42.5000 H   0  0  0  0  0  0  0  0  0  0  0  0
   40.3480   34.1490   40.7050 H   0  0  0  0  0  0  0  0  0  0  0  0
   39.7610   33.0210   39.4200 H   0  0  0  0  0  0  0  0  0  0  0  0
   41.8340   31.9870   39.9370 H   0  0  0  0  0  0  0  0  0  0  0  0
   40.1790   30.1750   39.7670 O   0  0  0  0  0  0  0  0  0  0  0  0
   39.2490   29.9860   39.4980 H   0  0  0  0  0  0  0  0  0  0  0  0
   41.7260   32.4850   41.9560 O   0  0  0  0  0  0  0  0  0  0  0  0
   42.4410   33.1370   41.7500 H   0  0  0  0  0  0  0  0  0  0  0  0
   37.7080   29.2270   42.8970 C   0  0  0  0  0  0  0  0  0  0  0  0
   38.4390   30.0550   43.1580 H   0  0  0  0  0  0  0  0  0  0  0  0
   37.0270   29.2040   43.7250 H   0  0  0  0  0  0  0  0  0  0  0  0
   36.5510   26.6320   42.4860 F   0  0  0  0  0  0  0  0  0  0  0  0
   37.8630   26.7710   42.6020 C   0  0  0  0  0  0  0  0  0  0  0  0
   38.4810   27.9780   42.7870 C   0  0  0  0  0  0  0  0  0  0  0  0
   39.8580   28.0460   42.8740 C   0  0  0  0  0  0  0  0  0  0  0  0
   40.5620   26.8640   42.7660 C   0  0  0  0  0  0  0  0  0  0  0  0
   39.9960   25.6140   42.5790 C   0  0  0  0  0  0  0  0  0  0  0  0
   38.5960   25.5700   42.4950 C   0  0  0  0  0  0  0  0  0  0  0  0
   40.3550   28.9940   43.0190 H   0  0  0  0  0  0  0  0  0  0  0  0
   41.6370   26.9690   42.8380 H   0  0  0  0  0  0  0  0  0  0  0  0
   40.6210   24.7580   42.5070 H   0  0  0  0  0  0  0  0  0  0  0  0
   37.9460   24.2460   42.3030 C   0  0  0  0  0  2  0  0  0  0  0  0
   37.7240   23.9200   40.9300 N   0  0  0  0  0  4  0  0  0  0  0  0
   38.1120   24.7150   40.3300 H   0  0  0  0  0  0  0  0  0  0  0  0
   38.3510   22.7340   40.4510 C   0  0  0  0  0  2  0  0  0  0  0  0
   39.3680   22.5960   40.8660 H   0  0  0  0  0  0  0  0  0  0  0  0
   36.3080   23.8950   40.6080 C   0  0  0  0  0  2  0  0  0  0  0  0
   36.1890   23.6180   39.5230 H   0  0  0  0  0  0  0  0  0  0  0  0
  1 23  1  0  0  0  0
  2 10  1  0  0  0  0
  2  1  2  0  0  0  0
  3  2  1  0  0  0  0
  4  3  2  0  0  0  0
  4  5  1  0  0  0  0
  5  6  2  0  0  0  0
  6  1  1  0  0  0  0
  7  3  1  0  0  0  0
  8  5  1  0  0  0  0
  9 10  1  0  0  0  0
  9 14  1  1  0  0  0
 10 15  1  1  0  0  0
 11 10  1  0  0  0  0
 12 16  1  0  0  0  0
 12 13  1  0  0  0  0
 12 11  1  0  0  0  0
 13 18  1  6  0  0  0
 13  9  1  0  0  0  0
 13 21  1  0  0  0  0
 17 12  1  0  0  0  0
 19  9  1  0  0  0  0
 20 19  1  0  0  0  0
 22 21  1  0  0  0  0
 23 24  1  0  0  0  0
 23 25  1  0  0  0  0
 26 27  1  0  0  0  0
 27 28  1  0  0  0  0
 28 29  2  0  0  0  0
 28 23  1  0  0  0  0
 29 33  1  0  0  0  0
 30 34  1  0  0  0  0
 30 29  1  0  0  0  0
 31 30  2  0  0  0  0
 32 31  1  0  0  0  0
 32 27  2  0  0  0  0
 35 31  1  0  0  0  0
 36 32  1  0  0  0  0
 37 36  1  0  0  0  0
 38 37  1  0  0  0  0
 39 40  1  0  0  0  0
 39 37  1  0  0  0  0
 41 37  1  0  0  0  0
 42 41  1  0  0  0  0
M  END
>  <minimizedAffinity>
-5.59162903

$$$$

 OpenBabel03242514513D

 42 44  0  0  1  0  0  0  0  0999 V2000
   37.4550   30.6780   40.8200 C   0  0  0  0  0  0  0  0  0  0  0  0
   38.7960   31.0060   40.9470 C   0  0  0  0  0  0  0  0  0  0  0  0
   39.4840   30.4270   42.0280 C   0  0  0  0  0  0  0  0  0  0  0  0
   38.8190   29.5980   42.8750 N   0  0  0  0  0  0  0  0  0  0  0  0
   37.5220   29.3180   42.7030 C   0  0  0  0  0  0  0  0  0  0  0  0
   36.8610   29.8530   41.6930 N   0  0  0  0  0  0  0  0  0  0  0  0
   40.5220   30.6190   42.2090 H   0  0  0  0  0  0  0  0  0  0  0  0
   36.9370   28.6680   43.3420 H   0  0  0  0  0  0  0  0  0  0  0  0
   39.2530   33.3710   40.2950 C   0  0  2  0  0  0  0  0  0  0  0  0
   39.5340   31.8710   39.9850 C   0  0  1  0  0  0  0  0  0  0  0  0
   40.8570   31.6830   39.9150 O   0  0  0  0  0  0  0  0  0  0  0  0
   41.5300   32.7640   40.4200 C   0  0  0  0  0  0  0  0  0  0  0  0
   40.6700   33.9300   40.0310 C   0  0  1  0  0  0  0  0  0  0  0  0
   38.6270   33.8940   39.5900 H   0  0  0  0  0  0  0  0  0  0  0  0
   39.1690   31.9640   39.0040 H   0  0  0  0  0  0  0  0  0  0  0  0
   42.5370   32.8060   39.9510 H   0  0  0  0  0  0  0  0  0  0  0  0
   41.6280   32.7580   41.5120 H   0  0  0  0  0  0  0  0  0  0  0  0
   40.8260   34.8200   40.6520 H   0  0  0  0  0  0  0  0  0  0  0  0
   38.8660   33.6320   41.5460 O   0  0  0  0  0  0  0  0  0  0  0  0
   38.6020   32.8430   42.0750 H   0  0  0  0  0  0  0  0  0  0  0  0
   40.8690   34.1600   38.6770 O   0  0  0  0  0  0  0  0  0  0  0  0
   41.6480   34.7620   38.5780 H   0  0  0  0  0  0  0  0  0  0  0  0
   36.7060   31.2910   39.6880 C   0  0  0  0  0  0  0  0  0  0  0  0
   35.6930   31.5060   40.1530 H   0  0  0  0  0  0  0  0  0  0  0  0
   37.0520   32.2490   39.3520 H   0  0  0  0  0  0  0  0  0  0  0  0
   34.5060   29.4570   39.5050 F   0  0  0  0  0  0  0  0  0  0  0  0
   35.4210   29.5050   38.5480 C   0  0  0  0  0  0  0  0  0  0  0  0
   36.4870   30.3630   38.5670 C   0  0  0  0  0  0  0  0  0  0  0  0
   37.3860   30.3720   37.5180 C   0  0  0  0  0  0  0  0  0  0  0  0
   37.1610   29.4960   36.4770 C   0  0  0  0  0  0  0  0  0  0  0  0
   36.1030   28.6050   36.4000 C   0  0  0  0  0  0  0  0  0  0  0  0
   35.2030   28.6130   37.4770 C   0  0  0  0  0  0  0  0  0  0  0  0
   38.2310   31.0460   37.5230 H   0  0  0  0  0  0  0  0  0  0  0  0
   37.8910   29.5430   35.6790 H   0  0  0  0  0  0  0  0  0  0  0  0
   36.0110   27.9680   35.5570 H   0  0  0  0  0  0  0  0  0  0  0  0
   34.0570   27.6660   37.4400 C   0  0  0  0  0  2  0  0  0  0  0  0
   33.1390   27.9320   36.3780 N   0  0  0  0  0  4  0  0  0  0  0  0
   33.6950   28.2800   35.5340 H   0  0  0  0  0  0  0  0  0  0  0  0
   32.3760   26.8240   35.9090 C   0  0  0  0  0  2  0  0  0  0  0  0
   32.9670   25.8890   35.8700 H   0  0  0  0  0  0  0  0  0  0  0  0
   32.2560   29.0400   36.6990 C   0  0  0  0  0  2  0  0  0  0  0  0
   31.5450   29.1950   35.8410 H   0  0  0  0  0  0  0  0  0  0  0  0
  1  2  2  0  0  0  0
  1  6  1  0  0  0  0
  2  3  1  0  0  0  0
  3  7  1  0  0  0  0
  3  4  2  0  0  0  0
  5  4  1  0  0  0  0
  5  8  1  0  0  0  0
  6  5  2  0  0  0  0
  9 14  1  6  0  0  0
  9 19  1  0  0  0  0
 10 15  1  6  0  0  0
 10  9  1  0  0  0  0
 10  2  1  0  0  0  0
 11 10  1  0  0  0  0
 11 12  1  0  0  0  0
 12 17  1  0  0  0  0
 13  9  1  0  0  0  0
 13 12  1  0  0  0  0
 13 18  1  1  0  0  0
 16 12  1  0  0  0  0
 19 20  1  0  0  0  0
 21 13  1  0  0  0  0
 22 21  1  0  0  0  0
 23 24  1  0  0  0  0
 23  1  1  0  0  0  0
 25 23  1  0  0  0  0
 27 28  1  0  0  0  0
 27 26  1  0  0  0  0
 28 23  1  0  0  0  0
 29 33  1  0  0  0  0
 29 28  2  0  0  0  0
 30 29  1  0  0  0  0
 31 30  2  0  0  0  0
 31 32  1  0  0  0  0
 32 27  2  0  0  0  0
 34 30  1  0  0  0  0
 35 31  1  0  0  0  0
 36 32  1  0  0  0  0
 37 41  1  0  0  0  0
 37 36  1  0  0  0  0
 38 37  1  0  0  0  0
 39 37  1  0  0  0  0
 40 39  1  0  0  0  0
 42 41  1  0  0  0  0
M  END
>  <minimizedAffinity>
-5.48402643

$$$$

 OpenBabel03242514513D

 42 44  0  0  1  0  0  0  0  0999 V2000
   36.8880   28.0660   41.0430 C   0  0  0  0  0  0  0  0  0  0  0  0
   37.6570   29.2100   41.1950 C   0  0  0  0  0  0  0  0  0  0  0  0
   38.4590   29.2790   42.3490 C   0  0  0  0  0  0  0  0  0  0  0  0
   38.4400   28.2500   43.2360 N   0  0  0  0  0  0  0  0  0  0  0  0
   37.6760   27.1700   43.0360 C   0  0  0  0  0  0  0  0  0  0  0  0
   36.9180   27.0890   41.9580 N   0  0  0  0  0  0  0  0  0  0  0  0
   39.0870   30.1210   42.5540 H   0  0  0  0  0  0  0  0  0  0  0  0
   37.6160   26.3200   43.7050 H   0  0  0  0  0  0  0  0  0  0  0  0
   36.4420   31.1990   40.3030 C   0  0  2  0  0  0  0  0  0  0  0  0
   37.7160   30.3100   40.1930 C   0  0  1  0  0  0  0  0  0  0  0  0
   38.7990   31.0960   40.2410 O   0  0  0  0  0  0  0  0  0  0  0  0
   38.4670   32.3570   40.6610 C   0  0  0  0  0  0  0  0  0  0  0  0
   37.1030   32.5790   40.0760 C   0  0  1  0  0  0  0  0  0  0  0  0
   35.7300   31.1130   39.4980 H   0  0  0  0  0  0  0  0  0  0  0  0
   37.5230   30.0880   39.1850 H   0  0  0  0  0  0  0  0  0  0  0  0
   39.2190   33.0730   40.2630 H   0  0  0  0  0  0  0  0  0  0  0  0
   38.3950   32.4590   41.7500 H   0  0  0  0  0  0  0  0  0  0  0  0
   36.5190   33.3460   40.5970 H   0  0  0  0  0  0  0  0  0  0  0  0
   35.8190   31.1600   41.4830 O   0  0  0  0  0  0  0  0  0  0  0  0
   36.1040   30.4300   42.0820 H   0  0  0  0  0  0  0  0  0  0  0  0
   37.2670   32.8340   38.7220 O   0  0  0  0  0  0  0  0  0  0  0  0
   37.4220   33.8050   38.6090 H   0  0  0  0  0  0  0  0  0  0  0  0
   36.0240   27.9810   39.8340 C   0  0  0  0  0  0  0  0  0  0  0  0
   35.4870   26.9930   39.9860 H   0  0  0  0  0  0  0  0  0  0  0  0
   35.2340   28.7040   39.7600 H   0  0  0  0  0  0  0  0  0  0  0  0
   35.5750   29.6140   37.5160 F   0  0  0  0  0  0  0  0  0  0  0  0
   36.5150   28.6810   37.5080 C   0  0  0  0  0  0  0  0  0  0  0  0
   36.7890   27.8770   38.5800 C   0  0  0  0  0  0  0  0  0  0  0  0
   37.8040   26.9420   38.5040 C   0  0  0  0  0  0  0  0  0  0  0  0
   38.5090   26.8630   37.3200 C   0  0  0  0  0  0  0  0  0  0  0  0
   38.2800   27.6470   36.2020 C   0  0  0  0  0  0  0  0  0  0  0  0
   37.2450   28.5880   36.3030 C   0  0  0  0  0  0  0  0  0  0  0  0
   38.0280   26.3030   39.3450 H   0  0  0  0  0  0  0  0  0  0  0  0
   39.2950   26.1180   37.3100 H   0  0  0  0  0  0  0  0  0  0  0  0
   38.8760   27.5130   35.3340 H   0  0  0  0  0  0  0  0  0  0  0  0
   36.9580   29.4450   35.1210 C   0  0  0  0  0  2  0  0  0  0  0  0
   36.6400   28.6970   33.9460 N   0  0  0  0  0  4  0  0  0  0  0  0
   37.4370   28.0090   33.7620 H   0  0  0  0  0  0  0  0  0  0  0  0
   35.4540   27.9090   33.9990 C   0  0  0  0  0  2  0  0  0  0  0  0
   35.3100   27.4260   34.9840 H   0  0  0  0  0  0  0  0  0  0  0  0
   36.6220   29.5400   32.7640 C   0  0  0  0  0  2  0  0  0  0  0  0
   36.3510   28.9070   31.8730 H   0  0  0  0  0  0  0  0  0  0  0  0
  1  2  2  0  0  0  0
  1  6  1  0  0  0  0
  2  3  1  0  0  0  0
  3  7  1  0  0  0  0
  3  4  2  0  0  0  0
  5  4  1  0  0  0  0
  5  8  1  0  0  0  0
  6  5  2  0  0  0  0
  9 14  1  6  0  0  0
  9 19  1  0  0  0  0
 10 15  1  6  0  0  0
 10 11  1  0  0  0  0
 10  9  1  0  0  0  0
 10  2  1  0  0  0  0
 11 12  1  0  0  0  0
 12 17  1  0  0  0  0
 13  9  1  0  0  0  0
 13 18  1  1  0  0  0
 13 12  1  0  0  0  0
 16 12  1  0  0  0  0
 19 20  1  0  0  0  0
 21 13  1  0  0  0  0
 22 21  1  0  0  0  0
 23 24  1  0  0  0  0
 23  1  1  0  0  0  0
 25 23  1  0  0  0  0
 27 26  1  0  0  0  0
 27 28  1  0  0  0  0
 28 23  1  0  0  0  0
 29 28  2  0  0  0  0
 29 33  1  0  0  0  0
 30 29  1  0  0  0  0
 31 32  1  0  0  0  0
 31 30  2  0  0  0  0
 32 27  2  0  0  0  0
 34 30  1  0  0  0  0
 35 31  1  0  0  0  0
 36 32  1  0  0  0  0
 37 39  1  0  0  0  0
 37 36  1  0  0  0  0
 38 37  1  0  0  0  0
 39 40  1  0  0  0  0
 41 37  1  0  0  0  0
 42 41  1  0  0  0  0
M  END
>  <minimizedAffinity>
-5.44812584

$$$$

 OpenBabel03242514513D

 42 44  0  0  1  0  0  0  0  0999 V2000
   38.9400   30.8590   39.8910 C   0  0  0  0  0  0  0  0  0  0  0  0
   39.5470   32.0370   39.4830 C   0  0  0  0  0  0  0  0  0  0  0  0
   38.7710   33.2070   39.5720 C   0  0  0  0  0  0  0  0  0  0  0  0
   37.4970   33.1280   40.0380 N   0  0  0  0  0  0  0  0  0  0  0  0
   36.9630   31.9610   40.4170 C   0  0  0  0  0  0  0  0  0  0  0  0
   37.6780   30.8540   40.3400 N   0  0  0  0  0  0  0  0  0  0  0  0
   39.1520   34.1650   39.2820 H   0  0  0  0  0  0  0  0  0  0  0  0
   35.9570   31.8320   40.7950 H   0  0  0  0  0  0  0  0  0  0  0  0
   41.0250   32.0290   37.4730 C   0  0  2  0  0  0  0  0  0  0  0  0
   40.9610   32.1270   39.0250 C   0  0  1  0  0  0  0  0  0  0  0  0
   41.6440   33.2090   39.4200 O   0  0  0  0  0  0  0  0  0  0  0  0
   41.9160   34.0280   38.3560 C   0  0  0  0  0  0  0  0  0  0  0  0
   42.1380   33.0730   37.2210 C   0  0  1  0  0  0  0  0  0  0  0  0
   41.4250   31.1140   37.0690 H   0  0  0  0  0  0  0  0  0  0  0  0
   41.5870   31.2910   39.1430 H   0  0  0  0  0  0  0  0  0  0  0  0
   42.8240   34.6240   38.5910 H   0  0  0  0  0  0  0  0  0  0  0  0
   41.0900   34.6970   38.0860 H   0  0  0  0  0  0  0  0  0  0  0  0
   41.9920   33.5210   36.2320 H   0  0  0  0  0  0  0  0  0  0  0  0
   39.9030   32.3700   36.8330 O   0  0  0  0  0  0  0  0  0  0  0  0
   39.1030   32.4460   37.4050 H   0  0  0  0  0  0  0  0  0  0  0  0
   43.3950   32.5090   37.3910 O   0  0  0  0  0  0  0  0  0  0  0  0
   44.0590   33.1020   36.9600 H   0  0  0  0  0  0  0  0  0  0  0  0
   39.7420   29.6090   39.7920 C   0  0  0  0  0  0  0  0  0  0  0  0
   39.3110   29.1140   38.8670 H   0  0  0  0  0  0  0  0  0  0  0  0
   40.7850   29.7280   39.5680 H   0  0  0  0  0  0  0  0  0  0  0  0
   37.8500   27.4510   39.7920 F   0  0  0  0  0  0  0  0  0  0  0  0
   38.5970   27.6870   40.8590 C   0  0  0  0  0  0  0  0  0  0  0  0
   39.5260   28.6900   40.9230 C   0  0  0  0  0  0  0  0  0  0  0  0
   40.2880   28.8580   42.0630 C   0  0  0  0  0  0  0  0  0  0  0  0
   40.0700   27.9850   43.1090 C   0  0  0  0  0  0  0  0  0  0  0  0
   39.1470   26.9530   43.1060 C   0  0  0  0  0  0  0  0  0  0  0  0
   38.3850   26.8020   41.9370 C   0  0  0  0  0  0  0  0  0  0  0  0
   41.0240   29.6470   42.1220 H   0  0  0  0  0  0  0  0  0  0  0  0
   40.6920   28.1550   43.9780 H   0  0  0  0  0  0  0  0  0  0  0  0
   39.0500   26.3300   43.9600 H   0  0  0  0  0  0  0  0  0  0  0  0
   37.3740   25.7110   41.8950 C   0  0  0  0  0  2  0  0  0  0  0  0
   37.6540   24.7220   40.9030 N   0  0  0  0  0  4  0  0  0  0  0  0
   38.1240   25.2030   40.0720 H   0  0  0  0  0  0  0  0  0  0  0  0
   38.5340   23.6700   41.2890 C   0  0  0  0  0  2  0  0  0  0  0  0
   39.3670   24.0270   41.9240 H   0  0  0  0  0  0  0  0  0  0  0  0
   36.4350   24.1660   40.3420 C   0  0  0  0  0  2  0  0  0  0  0  0
   36.7110   23.3830   39.5820 H   0  0  0  0  0  0  0  0  0  0  0  0
  1  6  1  0  0  0  0
  2  3  1  0  0  0  0
  2  1  2  0  0  0  0
  3  4  2  0  0  0  0
  4  5  1  0  0  0  0
  5  8  1  0  0  0  0
  6  5  2  0  0  0  0
  7  3  1  0  0  0  0
  9 14  1  6  0  0  0
  9 10  1  0  0  0  0
 10 15  1  1  0  0  0
 10 11  1  0  0  0  0
 10  2  1  0  0  0  0
 12 16  1  0  0  0  0
 12 11  1  0  0  0  0
 13 18  1  6  0  0  0
 13 21  1  0  0  0  0
 13  9  1  0  0  0  0
 13 12  1  0  0  0  0
 17 12  1  0  0  0  0
 19 20  1  0  0  0  0
 19  9  1  0  0  0  0
 22 21  1  0  0  0  0
 23  1  1  0  0  0  0
 23 28  1  0  0  0  0
 24 23  1  0  0  0  0
 25 23  1  0  0  0  0
 26 27  1  0  0  0  0
 27 28  2  0  0  0  0
 27 32  1  0  0  0  0
 28 29  1  0  0  0  0
 29 33  1  0  0  0  0
 29 30  2  0  0  0  0
 30 34  1  0  0  0  0
 31 30  1  0  0  0  0
 31 35  1  0  0  0  0
 32 31  2  0  0  0  0
 36 32  1  0  0  0  0
 37 39  1  0  0  0  0
 37 36  1  0  0  0  0
 38 37  1  0  0  0  0
 39 40  1  0  0  0  0
 41 37  1  0  0  0  0
 42 41  1  0  0  0  0
M  END
>  <minimizedAffinity>
-5.43962765

$$$$

 OpenBabel03242514513D

 42 44  0  0  1  0  0  0  0  0999 V2000
   36.0360   29.7570   40.6330 C   0  0  0  0  0  0  0  0  0  0  0  0
   36.9700   29.0410   41.3650 C   0  0  0  0  0  0  0  0  0  0  0  0
   38.1710   29.7070   41.6720 C   0  0  0  0  0  0  0  0  0  0  0  0
   38.3520   30.9850   41.2460 N   0  0  0  0  0  0  0  0  0  0  0  0
   37.4130   31.6250   40.5410 C   0  0  0  0  0  0  0  0  0  0  0  0
   36.2800   31.0150   40.2450 N   0  0  0  0  0  0  0  0  0  0  0  0
   38.9530   29.2380   42.2340 H   0  0  0  0  0  0  0  0  0  0  0  0
   37.4970   32.6400   40.1730 H   0  0  0  0  0  0  0  0  0  0  0  0
   37.1620   26.6190   40.7980 C   0  0  2  0  0  0  0  0  0  0  0  0
   36.7450   27.6610   41.8770 C   0  0  1  0  0  0  0  0  0  0  0  0
   37.3460   27.3530   43.0330 O   0  0  0  0  0  0  0  0  0  0  0  0
   38.3400   26.4310   42.8340 C   0  0  0  0  0  0  0  0  0  0  0  0
   37.8070   25.5660   41.7300 C   0  0  1  0  0  0  0  0  0  0  0  0
   36.3590   26.0860   40.3150 H   0  0  0  0  0  0  0  0  0  0  0  0
   35.7630   27.2880   41.9140 H   0  0  0  0  0  0  0  0  0  0  0  0
   38.4920   25.8650   43.7780 H   0  0  0  0  0  0  0  0  0  0  0  0
   39.2910   26.8650   42.5020 H   0  0  0  0  0  0  0  0  0  0  0  0
   38.5840   25.0260   41.1780 H   0  0  0  0  0  0  0  0  0  0  0  0
   38.0430   27.0540   39.8940 O   0  0  0  0  0  0  0  0  0  0  0  0
   38.1780   28.0310   39.8790 H   0  0  0  0  0  0  0  0  0  0  0  0
   36.8420   24.7350   42.2810 O   0  0  0  0  0  0  0  0  0  0  0  0
   37.2960   23.9280   42.6310 H   0  0  0  0  0  0  0  0  0  0  0  0
   34.7640   29.0640   40.2880 C   0  0  0  0  0  0  0  0  0  0  0  0
   34.9520   28.0080   40.6590 H   0  0  0  0  0  0  0  0  0  0  0  0
   33.8880   29.3800   40.8220 H   0  0  0  0  0  0  0  0  0  0  0  0
   32.2220   29.5280   39.0370 F   0  0  0  0  0  0  0  0  0  0  0  0
   33.2800   29.2060   38.3080 C   0  0  0  0  0  0  0  0  0  0  0  0
   34.5220   28.9830   38.8380 C   0  0  0  0  0  0  0  0  0  0  0  0
   35.5830   28.6770   38.0090 C   0  0  0  0  0  0  0  0  0  0  0  0
   35.3340   28.6080   36.6530 C   0  0  0  0  0  0  0  0  0  0  0  0
   34.1030   28.8230   36.0580 C   0  0  0  0  0  0  0  0  0  0  0  0
   33.0400   29.1320   36.9200 C   0  0  0  0  0  0  0  0  0  0  0  0
   36.5680   28.4990   38.4170 H   0  0  0  0  0  0  0  0  0  0  0  0
   36.1970   28.3670   36.0460 H   0  0  0  0  0  0  0  0  0  0  0  0
   34.0080   28.7490   35.0030 H   0  0  0  0  0  0  0  0  0  0  0  0
   31.6960   29.3610   36.3230 C   0  0  0  0  0  2  0  0  0  0  0  0
   31.4810   30.7150   35.9220 N   0  0  0  0  0  4  0  0  0  0  0  0
   32.3560   31.2800   36.1650 H   0  0  0  0  0  0  0  0  0  0  0  0
   31.2540   30.9350   34.5320 C   0  0  0  0  0  2  0  0  0  0  0  0
   31.8880   30.2920   33.8930 H   0  0  0  0  0  0  0  0  0  0  0  0
   30.4290   31.3440   36.7000 C   0  0  0  0  0  2  0  0  0  0  0  0
   30.2890   32.3990   36.3330 H   0  0  0  0  0  0  0  0  0  0  0  0
  1  2  1  0  0  0  0
  2  3  2  0  0  0  0
  2 10  1  0  0  0  0
  3  7  1  0  0  0  0
  4  3  1  0  0  0  0
  5  4  2  0  0  0  0
  6  5  1  0  0  0  0
  6  1  2  0  0  0  0
  8  5  1  0  0  0  0
  9 14  1  6  0  0  0
  9 13  1  0  0  0  0
  9 10  1  0  0  0  0
 10 15  1  1  0  0  0
 10 11  1  0  0  0  0
 12 11  1  0  0  0  0
 12 16  1  0  0  0  0
 13 18  1  6  0  0  0
 13 21  1  0  0  0  0
 13 12  1  0  0  0  0
 17 12  1  0  0  0  0
 19  9  1  0  0  0  0
 20 19  1  0  0  0  0
 21 22  1  0  0  0  0
 23  1  1  0  0  0  0
 23 24  1  0  0  0  0
 23 25  1  0  0  0  0
 27 28  1  0  0  0  0
 27 26  1  0  0  0  0
 28 23  1  0  0  0  0
 29 33  1  0  0  0  0
 29 28  2  0  0  0  0
 30 29  1  0  0  0  0
 31 30  2  0  0  0  0
 31 32  1  0  0  0  0
 32 27  2  0  0  0  0
 34 30  1  0  0  0  0
 35 31  1  0  0  0  0
 36 32  1  0  0  0  0
 37 38  1  0  0  0  0
 37 36  1  0  0  0  0
 37 41  1  0  0  0  0
 39 37  1  0  0  0  0
 40 39  1  0  0  0  0
 42 41  1  0  0  0  0
M  END
>  <minimizedAffinity>
-5.43034267

$$$$
