
 OpenBabel03242518273D

 43 46  0  0  1  0  0  0  0  0999 V2000
   35.8720   29.9270   39.0280 C   0  0  0  0  0  0  0  0  0  0  0  0
   36.0030   29.5880   37.6950 C   0  0  0  0  0  0  0  0  0  0  0  0
   36.9630   30.2900   36.9500 C   0  0  0  0  0  0  0  0  0  0  0  0
   37.7080   31.2520   37.5460 N   0  0  0  0  0  0  0  0  0  0  0  0
   37.5370   31.5470   38.8650 C   0  0  0  0  0  0  0  0  0  0  0  0
   36.6300   30.8930   39.5970 N   0  0  0  0  0  0  0  0  0  0  0  0
   35.1620   29.4500   39.7000 H   0  0  0  0  0  0  0  0  0  0  0  0
   37.0460   30.0100   35.9180 H   0  0  0  0  0  0  0  0  0  0  0  0
   35.1680   28.5690   37.1970 N   0  0  0  0  0  0  0  0  0  0  0  0
   35.1730   27.3090   37.8690 C   0  0  0  0  0  0  0  0  0  0  0  0
   34.3280   26.2730   37.2250 C   0  0  0  0  0  0  0  0  0  0  0  0
   33.0250   26.7490   36.8650 N   0  0  0  0  0  0  0  0  0  0  0  0
   32.9180   28.0750   36.3910 C   0  0  0  0  0  0  0  0  0  0  0  0
   34.2850   28.6470   36.0640 C   0  0  0  0  0  0  0  0  0  0  0  0
   36.2260   26.9040   37.9310 H   0  0  0  0  0  0  0  0  0  0  0  0
   34.8660   27.4250   38.9280 H   0  0  0  0  0  0  0  0  0  0  0  0
   34.8590   25.9220   36.3060 H   0  0  0  0  0  0  0  0  0  0  0  0
   34.2280   25.4140   37.9220 H   0  0  0  0  0  0  0  0  0  0  0  0
   32.2940   26.5600   37.5700 H   0  0  0  0  0  0  0  0  0  0  0  0
   32.2330   28.2140   35.5540 H   0  0  0  0  0  0  0  0  0  0  0  0
   32.5260   28.7100   37.2370 H   0  0  0  0  0  0  0  0  0  0  0  0
   34.1440   29.7380   35.8380 H   0  0  0  0  0  0  0  0  0  0  0  0
   34.7240   28.2020   35.1480 H   0  0  0  0  0  0  0  0  0  0  0  0
   37.9010   33.8270   39.7400 C   0  0  0  0  0  0  0  0  0  0  0  0
   38.3880   32.6060   39.4380 C   0  0  0  0  0  0  0  0  0  0  0  0
   39.7350   32.3430   39.6740 C   0  0  0  0  0  0  0  0  0  0  0  0
   40.5320   33.3360   40.2080 C   0  0  0  0  0  0  0  0  0  0  0  0
   40.0150   34.5910   40.5150 C   0  0  0  0  0  0  0  0  0  0  0  0
   38.6710   34.8470   40.2780 C   0  0  0  0  0  0  0  0  0  0  0  0
   41.0580   35.3590   41.0320 O   0  0  0  0  0  0  0  0  0  0  0  0
   42.2810   34.7180   40.6700 C   0  0  2  0  0  0  0  0  0  0  0  0
   41.8910   33.3560   40.5450 O   0  0  0  0  0  0  0  0  0  0  0  0
   36.8590   34.0660   39.5700 H   0  0  0  0  0  0  0  0  0  0  0  0
   40.1950   31.3900   39.4570 H   0  0  0  0  0  0  0  0  0  0  0  0
   38.2380   35.8180   40.5070 H   0  0  0  0  0  0  0  0  0  0  0  0
   42.6550   35.1560   39.7250 H   0  0  0  0  0  0  0  0  0  0  0  0
   43.2200   34.9330   41.8160 C   0  0  0  0  0  2  0  0  0  0  0  0
   44.5420   35.3480   41.4280 N   0  0  0  0  0  4  0  0  0  0  0  0
   44.4150   36.1250   40.7450 H   0  0  0  0  0  0  0  0  0  0  0  0
   45.2920   34.2980   40.7950 C   0  0  0  0  0  2  0  0  0  0  0  0
   44.7730   33.3300   40.7780 H   0  0  0  0  0  0  0  0  0  0  0  0
   45.2620   35.9310   42.5470 C   0  0  0  0  0  2  0  0  0  0  0  0
   45.9780   36.6820   42.1590 H   0  0  0  0  0  0  0  0  0  0  0  0
  1  6  1  0  0  0  0
  1  7  1  0  0  0  0
  2  1  2  0  0  0  0
  3  4  2  0  0  0  0
  3  2  1  0  0  0  0
  4  5  1  0  0  0  0
  5 25  1  0  0  0  0
  5  6  2  0  0  0  0
  8  3  1  0  0  0  0
  9  2  1  0  0  0  0
  9 10  1  0  0  0  0
 10 15  1  0  0  0  0
 10 16  1  0  0  0  0
 11 10  1  0  0  0  0
 11 18  1  0  0  0  0
 12 11  1  0  0  0  0
 12 19  1  0  0  0  0
 13 12  1  0  0  0  0
 13 21  1  0  0  0  0
 14 13  1  0  0  0  0
 14  9  1  0  0  0  0
 17 11  1  0  0  0  0
 20 13  1  0  0  0  0
 22 14  1  0  0  0  0
 23 14  1  0  0  0  0
 24 29  1  0  0  0  0
 25 26  1  0  0  0  0
 25 24  2  0  0  0  0
 26 27  2  0  0  0  0
 27 28  1  0  0  0  0
 27 32  1  0  0  0  0
 28 30  1  0  0  0  0
 29 35  1  0  0  0  0
 29 28  2  0  0  0  0
 31 36  1  6  0  0  0
 31 30  1  0  0  0  0
 31 37  1  0  0  0  0
 32 31  1  0  0  0  0
 33 24  1  0  0  0  0
 34 26  1  0  0  0  0
 38 37  1  0  0  0  0
 38 42  1  0  0  0  0
 39 38  1  0  0  0  0
 40 38  1  0  0  0  0
 41 40  1  0  0  0  0
 43 42  1  0  0  0  0
M  END
>  <minimizedAffinity>
-5.66073704

$$$$

 OpenBabel03242518273D

 43 46  0  0  1  0  0  0  0  0999 V2000
   40.1960   31.1830   40.4730 C   0  0  0  0  0  0  0  0  0  0  0  0
   39.2590   32.1930   40.3740 C   0  0  0  0  0  0  0  0  0  0  0  0
   37.9190   31.8450   40.6030 C   0  0  0  0  0  0  0  0  0  0  0  0
   37.5970   30.5640   40.9050 N   0  0  0  0  0  0  0  0  0  0  0  0
   38.5630   29.6060   40.9900 C   0  0  0  0  0  0  0  0  0  0  0  0
   39.8460   29.9120   40.7760 N   0  0  0  0  0  0  0  0  0  0  0  0
   41.2610   31.3370   40.3160 H   0  0  0  0  0  0  0  0  0  0  0  0
   37.2100   32.6460   40.5210 H   0  0  0  0  0  0  0  0  0  0  0  0
   39.7240   33.4840   40.0530 N   0  0  0  0  0  0  0  0  0  0  0  0
   39.0070   34.6030   40.5750 C   0  0  0  0  0  0  0  0  0  0  0  0
   39.5170   35.9190   40.1170 C   0  0  0  0  0  0  0  0  0  0  0  0
   40.9430   36.0350   40.2030 N   0  0  0  0  0  0  0  0  0  0  0  0
   41.7130   34.8890   39.9040 C   0  0  0  0  0  0  0  0  0  0  0  0
   40.8630   33.8190   39.2430 C   0  0  0  0  0  0  0  0  0  0  0  0
   37.9170   34.5380   40.2870 H   0  0  0  0  0  0  0  0  0  0  0  0
   38.9940   34.5810   41.6840 H   0  0  0  0  0  0  0  0  0  0  0  0
   39.1990   36.0570   39.0550 H   0  0  0  0  0  0  0  0  0  0  0  0
   39.0440   36.7150   40.7310 H   0  0  0  0  0  0  0  0  0  0  0  0
   41.2810   36.4790   41.0710 H   0  0  0  0  0  0  0  0  0  0  0  0
   42.6160   35.0770   39.3230 H   0  0  0  0  0  0  0  0  0  0  0  0
   42.0470   34.4380   40.8830 H   0  0  0  0  0  0  0  0  0  0  0  0
   41.4930   32.8930   39.1690 H   0  0  0  0  0  0  0  0  0  0  0  0
   40.5860   34.0820   38.2020 H   0  0  0  0  0  0  0  0  0  0  0  0
   37.3740   27.9740   42.4100 C   0  0  0  0  0  0  0  0  0  0  0  0
   38.1290   28.2360   41.3240 C   0  0  0  0  0  0  0  0  0  0  0  0
   38.5080   27.1820   40.4980 C   0  0  0  0  0  0  0  0  0  0  0  0
   38.1040   25.9000   40.8120 C   0  0  0  0  0  0  0  0  0  0  0  0
   37.3250   25.6440   41.9370 C   0  0  0  0  0  0  0  0  0  0  0  0
   36.9490   26.7000   42.7570 C   0  0  0  0  0  0  0  0  0  0  0  0
   37.0860   24.2710   41.9770 O   0  0  0  0  0  0  0  0  0  0  0  0
   38.0400   23.6450   41.1190 C   0  0  2  0  0  0  0  0  0  0  0  0
   38.3300   24.6720   40.1790 O   0  0  0  0  0  0  0  0  0  0  0  0
   37.0610   28.7690   43.0730 H   0  0  0  0  0  0  0  0  0  0  0  0
   39.1120   27.3170   39.6120 H   0  0  0  0  0  0  0  0  0  0  0  0
   36.3400   26.5310   43.6420 H   0  0  0  0  0  0  0  0  0  0  0  0
   38.9190   23.3370   41.7170 H   0  0  0  0  0  0  0  0  0  0  0  0
   37.3360   22.4840   40.4880 C   0  0  0  0  0  2  0  0  0  0  0  0
   36.7150   22.7850   39.2250 N   0  0  0  0  0  4  0  0  0  0  0  0
   37.1400   23.6790   38.8970 H   0  0  0  0  0  0  0  0  0  0  0  0
   35.2930   22.9640   39.3310 C   0  0  0  0  0  2  0  0  0  0  0  0
   34.8950   22.7670   40.3360 H   0  0  0  0  0  0  0  0  0  0  0  0
   37.0650   21.7990   38.2170 C   0  0  0  0  0  2  0  0  0  0  0  0
   37.0550   22.2860   37.2220 H   0  0  0  0  0  0  0  0  0  0  0  0
  1  6  1  0  0  0  0
  2  1  2  0  0  0  0
  2  3  1  0  0  0  0
  3  4  2  0  0  0  0
  4  5  1  0  0  0  0
  5 25  1  0  0  0  0
  6  5  2  0  0  0  0
  7  1  1  0  0  0  0
  8  3  1  0  0  0  0
  9  2  1  0  0  0  0
  9 10  1  0  0  0  0
 10 16  1  0  0  0  0
 11 12  1  0  0  0  0
 11 10  1  0  0  0  0
 11 18  1  0  0  0  0
 12 19  1  0  0  0  0
 13 12  1  0  0  0  0
 13 21  1  0  0  0  0
 14 13  1  0  0  0  0
 14  9  1  0  0  0  0
 15 10  1  0  0  0  0
 17 11  1  0  0  0  0
 20 13  1  0  0  0  0
 22 14  1  0  0  0  0
 23 14  1  0  0  0  0
 24 29  1  0  0  0  0
 24 33  1  0  0  0  0
 25 24  2  0  0  0  0
 26 27  2  0  0  0  0
 26 25  1  0  0  0  0
 27 28  1  0  0  0  0
 28 30  1  0  0  0  0
 28 29  2  0  0  0  0
 29 35  1  0  0  0  0
 31 36  1  1  0  0  0
 31 30  1  0  0  0  0
 32 27  1  0  0  0  0
 32 31  1  0  0  0  0
 34 26  1  0  0  0  0
 37 31  1  0  0  0  0
 38 40  1  0  0  0  0
 38 37  1  0  0  0  0
 39 38  1  0  0  0  0
 40 41  1  0  0  0  0
 42 38  1  0  0  0  0
 43 42  1  0  0  0  0
M  END
>  <minimizedAffinity>
-5.39716434

$$$$

 OpenBabel03242518273D

 43 46  0  0  1  0  0  0  0  0999 V2000
   37.1560   27.1110   41.2370 C   0  0  0  0  0  0  0  0  0  0  0  0
   37.0540   26.4140   40.0490 C   0  0  0  0  0  0  0  0  0  0  0  0
   37.2890   27.1330   38.8670 C   0  0  0  0  0  0  0  0  0  0  0  0
   37.5990   28.4500   38.9290 N   0  0  0  0  0  0  0  0  0  0  0  0
   37.6860   29.0890   40.1300 C   0  0  0  0  0  0  0  0  0  0  0  0
   37.4670   28.4260   41.2700 N   0  0  0  0  0  0  0  0  0  0  0  0
   36.9960   26.6570   42.2130 H   0  0  0  0  0  0  0  0  0  0  0  0
   37.2040   26.5720   37.9570 H   0  0  0  0  0  0  0  0  0  0  0  0
   36.7250   25.0470   40.1210 N   0  0  0  0  0  0  0  0  0  0  0  0
   35.9080   24.4990   39.0850 C   0  0  0  0  0  0  0  0  0  0  0  0
   35.5430   23.0750   39.2870 C   0  0  0  0  0  0  0  0  0  0  0  0
   36.6550   22.2540   39.6640 N   0  0  0  0  0  0  0  0  0  0  0  0
   37.6240   22.8150   40.5260 C   0  0  0  0  0  0  0  0  0  0  0  0
   37.1220   24.1100   41.1370 C   0  0  0  0  0  0  0  0  0  0  0  0
   34.9500   25.0890   38.9900 H   0  0  0  0  0  0  0  0  0  0  0  0
   36.3950   24.6150   38.0960 H   0  0  0  0  0  0  0  0  0  0  0  0
   34.7650   23.0330   40.0890 H   0  0  0  0  0  0  0  0  0  0  0  0
   35.0980   22.6860   38.3470 H   0  0  0  0  0  0  0  0  0  0  0  0
   37.1140   21.7710   38.8740 H   0  0  0  0  0  0  0  0  0  0  0  0
   37.9990   22.1440   41.2990 H   0  0  0  0  0  0  0  0  0  0  0  0
   38.5120   23.1090   39.8950 H   0  0  0  0  0  0  0  0  0  0  0  0
   37.9850   24.5740   41.6860 H   0  0  0  0  0  0  0  0  0  0  0  0
   36.3330   23.9430   41.8970 H   0  0  0  0  0  0  0  0  0  0  0  0
   37.1020   31.4750   39.8800 C   0  0  0  0  0  0  0  0  0  0  0  0
   38.0300   30.5230   40.1100 C   0  0  0  0  0  0  0  0  0  0  0  0
   39.3470   30.9100   40.3360 C   0  0  0  0  0  0  0  0  0  0  0  0
   39.6690   32.2530   40.3160 C   0  0  0  0  0  0  0  0  0  0  0  0
   38.7010   33.2230   40.0770 C   0  0  0  0  0  0  0  0  0  0  0  0
   37.3880   32.8310   39.8530 C   0  0  0  0  0  0  0  0  0  0  0  0
   39.3330   34.4650   40.1210 O   0  0  0  0  0  0  0  0  0  0  0  0
   40.7360   34.2360   39.9870 C   0  0  2  0  0  0  0  0  0  0  0  0
   40.8850   32.9200   40.5050 O   0  0  0  0  0  0  0  0  0  0  0  0
   36.0680   31.2100   39.7020 H   0  0  0  0  0  0  0  0  0  0  0  0
   40.1440   30.2040   40.5270 H   0  0  0  0  0  0  0  0  0  0  0  0
   36.6090   33.5670   39.6630 H   0  0  0  0  0  0  0  0  0  0  0  0
   41.0180   34.3230   38.9200 H   0  0  0  0  0  0  0  0  0  0  0  0
   41.4100   35.2610   40.8460 C   0  0  0  0  0  2  0  0  0  0  0  0
   42.8470   35.1970   40.8240 N   0  0  0  0  0  4  0  0  0  0  0  0
   43.1800   36.1740   40.6720 H   0  0  0  0  0  0  0  0  0  0  0  0
   43.3530   34.3680   39.7650 C   0  0  0  0  0  2  0  0  0  0  0  0
   42.5690   33.8540   39.1910 H   0  0  0  0  0  0  0  0  0  0  0  0
   43.3780   34.8060   42.1200 C   0  0  0  0  0  2  0  0  0  0  0  0
   44.3800   35.2610   42.2470 H   0  0  0  0  0  0  0  0  0  0  0  0
  1  6  1  0  0  0  0
  1  7  1  0  0  0  0
  2  9  1  0  0  0  0
  2  1  2  0  0  0  0
  3  4  2  0  0  0  0
  3  2  1  0  0  0  0
  4  5  1  0  0  0  0
  5  6  2  0  0  0  0
  8  3  1  0  0  0  0
  9 14  1  0  0  0  0
 10 11  1  0  0  0  0
 10  9  1  0  0  0  0
 11 12  1  0  0  0  0
 11 17  1  0  0  0  0
 12 13  1  0  0  0  0
 13 14  1  0  0  0  0
 13 20  1  0  0  0  0
 14 22  1  0  0  0  0
 14 23  1  0  0  0  0
 15 10  1  0  0  0  0
 16 10  1  0  0  0  0
 18 11  1  0  0  0  0
 19 12  1  0  0  0  0
 21 13  1  0  0  0  0
 24 25  1  0  0  0  0
 25  5  1  0  0  0  0
 25 26  2  0  0  0  0
 26 34  1  0  0  0  0
 27 26  1  0  0  0  0
 27 32  1  0  0  0  0
 28 30  1  0  0  0  0
 28 27  2  0  0  0  0
 29 24  2  0  0  0  0
 29 28  1  0  0  0  0
 31 36  1  6  0  0  0
 31 30  1  0  0  0  0
 31 32  1  0  0  0  0
 31 37  1  0  0  0  0
 33 24  1  0  0  0  0
 35 29  1  0  0  0  0
 38 37  1  0  0  0  0
 38 42  1  0  0  0  0
 39 38  1  0  0  0  0
 40 38  1  0  0  0  0
 41 40  1  0  0  0  0
 42 43  1  0  0  0  0
M  END
>  <minimizedAffinity>
-5.26678276

$$$$

 OpenBabel03242518273D

 43 46  0  0  1  0  0  0  0  0999 V2000
   36.1660   25.1570   39.1520 C   0  0  0  0  0  0  0  0  0  0  0  0
   36.1810   24.0610   39.9920 C   0  0  0  0  0  0  0  0  0  0  0  0
   36.7570   24.2370   41.2600 C   0  0  0  0  0  0  0  0  0  0  0  0
   37.2650   25.4440   41.6070 N   0  0  0  0  0  0  0  0  0  0  0  0
   37.2240   26.4920   40.7380 C   0  0  0  0  0  0  0  0  0  0  0  0
   36.6820   26.3500   39.5250 N   0  0  0  0  0  0  0  0  0  0  0  0
   35.7460   25.1370   38.1480 H   0  0  0  0  0  0  0  0  0  0  0  0
   36.7580   23.3730   41.8940 H   0  0  0  0  0  0  0  0  0  0  0  0
   35.6200   22.8620   39.5100 N   0  0  0  0  0  0  0  0  0  0  0  0
   34.1960   22.7590   39.4660 C   0  0  0  0  0  0  0  0  0  0  0  0
   33.6960   21.4330   39.0240 C   0  0  0  0  0  0  0  0  0  0  0  0
   34.3650   20.9350   37.8590 N   0  0  0  0  0  0  0  0  0  0  0  0
   35.7480   21.1930   37.7350 C   0  0  0  0  0  0  0  0  0  0  0  0
   36.3260   21.6990   39.0440 C   0  0  0  0  0  0  0  0  0  0  0  0
   33.7580   22.9710   40.4840 H   0  0  0  0  0  0  0  0  0  0  0  0
   33.7640   23.5470   38.8170 H   0  0  0  0  0  0  0  0  0  0  0  0
   33.8430   20.7150   39.8680 H   0  0  0  0  0  0  0  0  0  0  0  0
   32.6080   21.5160   38.8190 H   0  0  0  0  0  0  0  0  0  0  0  0
   33.8800   21.1420   36.9710 H   0  0  0  0  0  0  0  0  0  0  0  0
   36.3400   20.3620   37.3500 H   0  0  0  0  0  0  0  0  0  0  0  0
   35.8740   22.0450   37.0070 H   0  0  0  0  0  0  0  0  0  0  0  0
   37.3820   22.0210   38.8390 H   0  0  0  0  0  0  0  0  0  0  0  0
   36.3950   20.9030   39.8130 H   0  0  0  0  0  0  0  0  0  0  0  0
   37.9810   28.0450   42.5030 C   0  0  0  0  0  0  0  0  0  0  0  0
   37.7990   27.7720   41.1940 C   0  0  0  0  0  0  0  0  0  0  0  0
   38.1640   28.7290   40.2510 C   0  0  0  0  0  0  0  0  0  0  0  0
   38.7000   29.9270   40.6780 C   0  0  0  0  0  0  0  0  0  0  0  0
   38.8820   30.1950   42.0320 C   0  0  0  0  0  0  0  0  0  0  0  0
   38.5160   29.2360   42.9680 C   0  0  0  0  0  0  0  0  0  0  0  0
   39.4350   31.4710   42.1360 O   0  0  0  0  0  0  0  0  0  0  0  0
   39.2190   32.1340   40.8900 C   0  0  2  0  0  0  0  0  0  0  0  0
   39.1470   31.0500   39.9720 O   0  0  0  0  0  0  0  0  0  0  0  0
   37.7090   27.3250   43.2620 H   0  0  0  0  0  0  0  0  0  0  0  0
   38.0470   28.5800   39.1870 H   0  0  0  0  0  0  0  0  0  0  0  0
   38.6460   29.4170   44.0330 H   0  0  0  0  0  0  0  0  0  0  0  0
   38.2820   32.7210   40.9490 H   0  0  0  0  0  0  0  0  0  0  0  0
   40.4240   32.9910   40.6590 C   0  0  0  0  0  2  0  0  0  0  0  0
   40.2270   34.3830   40.9670 N   0  0  0  0  0  4  0  0  0  0  0  0
   40.3170   34.4670   42.0030 H   0  0  0  0  0  0  0  0  0  0  0  0
   38.9300   34.8620   40.5770 C   0  0  0  0  0  2  0  0  0  0  0  0
   38.3260   34.1200   40.0380 H   0  0  0  0  0  0  0  0  0  0  0  0
   41.2960   35.2010   40.4190 C   0  0  0  0  0  2  0  0  0  0  0  0
   41.4340   36.0890   41.0660 H   0  0  0  0  0  0  0  0  0  0  0  0
  1  6  2  0  0  0  0
  1  2  1  0  0  0  0
  2  3  2  0  0  0  0
  3  4  1  0  0  0  0
  3  8  1  0  0  0  0
  5 25  1  0  0  0  0
  5  4  2  0  0  0  0
  6  5  1  0  0  0  0
  7  1  1  0  0  0  0
  9  2  1  0  0  0  0
 10  9  1  0  0  0  0
 10 15  1  0  0  0  0
 11 10  1  0  0  0  0
 11 17  1  0  0  0  0
 12 11  1  0  0  0  0
 13 12  1  0  0  0  0
 13 14  1  0  0  0  0
 14  9  1  0  0  0  0
 14 23  1  0  0  0  0
 16 10  1  0  0  0  0
 18 11  1  0  0  0  0
 19 12  1  0  0  0  0
 20 13  1  0  0  0  0
 21 13  1  0  0  0  0
 22 14  1  0  0  0  0
 24 29  1  0  0  0  0
 24 33  1  0  0  0  0
 25 24  2  0  0  0  0
 26 27  2  0  0  0  0
 26 25  1  0  0  0  0
 27 28  1  0  0  0  0
 28 30  1  0  0  0  0
 28 29  2  0  0  0  0
 29 35  1  0  0  0  0
 31 36  1  1  0  0  0
 31 30  1  0  0  0  0
 32 27  1  0  0  0  0
 32 31  1  0  0  0  0
 34 26  1  0  0  0  0
 37 31  1  0  0  0  0
 37 38  1  0  0  0  0
 38 39  1  0  0  0  0
 40 38  1  0  0  0  0
 41 40  1  0  0  0  0
 42 38  1  0  0  0  0
 42 43  1  0  0  0  0
M  END
>  <minimizedAffinity>
-5.17011786

$$$$

 OpenBabel03242518273D

 43 46  0  0  1  0  0  0  0  0999 V2000
   38.6830   31.2420   39.6460 C   0  0  0  0  0  0  0  0  0  0  0  0
   39.2430   31.8710   40.7410 C   0  0  0  0  0  0  0  0  0  0  0  0
   39.3220   31.1300   41.9300 C   0  0  0  0  0  0  0  0  0  0  0  0
   38.8590   29.8580   41.9640 N   0  0  0  0  0  0  0  0  0  0  0  0
   38.3160   29.2850   40.8530 C   0  0  0  0  0  0  0  0  0  0  0  0
   38.2280   29.9700   39.7090 N   0  0  0  0  0  0  0  0  0  0  0  0
   38.5700   31.7180   38.6740 H   0  0  0  0  0  0  0  0  0  0  0  0
   39.7600   31.6400   42.7670 H   0  0  0  0  0  0  0  0  0  0  0  0
   39.6850   33.1980   40.5750 N   0  0  0  0  0  0  0  0  0  0  0  0
   40.8600   33.4190   39.7930 C   0  0  0  0  0  0  0  0  0  0  0  0
   41.2990   34.8360   39.7420 C   0  0  0  0  0  0  0  0  0  0  0  0
   40.2280   35.7510   39.4780 N   0  0  0  0  0  0  0  0  0  0  0  0
   38.9680   35.4710   40.0520 C   0  0  0  0  0  0  0  0  0  0  0  0
   39.0810   34.3880   41.1090 C   0  0  0  0  0  0  0  0  0  0  0  0
   41.7190   32.8070   40.1980 H   0  0  0  0  0  0  0  0  0  0  0  0
   40.7230   33.0410   38.7600 H   0  0  0  0  0  0  0  0  0  0  0  0
   41.7610   35.0850   40.7290 H   0  0  0  0  0  0  0  0  0  0  0  0
   42.0760   34.9380   38.9550 H   0  0  0  0  0  0  0  0  0  0  0  0
   40.1210   36.0020   38.4820 H   0  0  0  0  0  0  0  0  0  0  0  0
   38.4360   36.3370   40.4440 H   0  0  0  0  0  0  0  0  0  0  0  0
   38.3160   35.0290   39.2440 H   0  0  0  0  0  0  0  0  0  0  0  0
   38.0370   34.1130   41.4160 H   0  0  0  0  0  0  0  0  0  0  0  0
   39.5830   34.7460   42.0310 H   0  0  0  0  0  0  0  0  0  0  0  0
   38.0390   27.1660   42.0900 C   0  0  0  0  0  0  0  0  0  0  0  0
   37.8360   27.8960   40.9740 C   0  0  0  0  0  0  0  0  0  0  0  0
   37.1550   27.3160   39.9070 C   0  0  0  0  0  0  0  0  0  0  0  0
   36.7080   26.0140   40.0190 C   0  0  0  0  0  0  0  0  0  0  0  0
   36.9250   25.2740   41.1780 C   0  0  0  0  0  0  0  0  0  0  0  0
   37.6050   25.8580   42.2390 C   0  0  0  0  0  0  0  0  0  0  0  0
   36.3610   24.0140   40.9810 O   0  0  0  0  0  0  0  0  0  0  0  0
   36.1590   23.8500   39.5770 C   0  0  2  0  0  0  0  0  0  0  0  0
   36.0100   25.1910   39.1280 O   0  0  0  0  0  0  0  0  0  0  0  0
   38.5640   27.5850   42.9380 H   0  0  0  0  0  0  0  0  0  0  0  0
   36.9560   27.8390   38.9820 H   0  0  0  0  0  0  0  0  0  0  0  0
   37.7890   25.3050   43.1570 H   0  0  0  0  0  0  0  0  0  0  0  0
   37.0370   23.3360   39.1420 H   0  0  0  0  0  0  0  0  0  0  0  0
   34.8950   23.0610   39.4270 C   0  0  0  0  0  2  0  0  0  0  0  0
   35.0100   21.9230   38.5540 N   0  0  0  0  0  4  0  0  0  0  0  0
   34.7150   22.2490   37.6090 H   0  0  0  0  0  0  0  0  0  0  0  0
   34.1630   20.8310   38.9480 C   0  0  0  0  0  2  0  0  0  0  0  0
   33.6240   21.0040   39.8900 H   0  0  0  0  0  0  0  0  0  0  0  0
   36.3950   21.5100   38.4060 C   0  0  0  0  0  2  0  0  0  0  0  0
   36.5260   21.0520   37.4050 H   0  0  0  0  0  0  0  0  0  0  0  0
  1  6  2  0  0  0  0
  1  2  1  0  0  0  0
  2  3  2  0  0  0  0
  3  4  1  0  0  0  0
  3  8  1  0  0  0  0
  5 25  1  0  0  0  0
  5  4  2  0  0  0  0
  6  5  1  0  0  0  0
  7  1  1  0  0  0  0
  9  2  1  0  0  0  0
  9 14  1  0  0  0  0
 10 15  1  0  0  0  0
 10  9  1  0  0  0  0
 11 10  1  0  0  0  0
 11 17  1  0  0  0  0
 12 11  1  0  0  0  0
 12 13  1  0  0  0  0
 13 20  1  0  0  0  0
 13 14  1  0  0  0  0
 14 22  1  0  0  0  0
 14 23  1  0  0  0  0
 16 10  1  0  0  0  0
 18 11  1  0  0  0  0
 19 12  1  0  0  0  0
 21 13  1  0  0  0  0
 24 29  1  0  0  0  0
 24 33  1  0  0  0  0
 25 24  2  0  0  0  0
 26 27  2  0  0  0  0
 26 25  1  0  0  0  0
 27 28  1  0  0  0  0
 28 29  2  0  0  0  0
 29 35  1  0  0  0  0
 30 28  1  0  0  0  0
 31 36  1  6  0  0  0
 31 30  1  0  0  0  0
 32 31  1  0  0  0  0
 32 27  1  0  0  0  0
 34 26  1  0  0  0  0
 37 31  1  0  0  0  0
 38 40  1  0  0  0  0
 38 37  1  0  0  0  0
 39 38  1  0  0  0  0
 40 41  1  0  0  0  0
 42 38  1  0  0  0  0
 43 42  1  0  0  0  0
M  END
>  <minimizedAffinity>
-5.09025145

$$$$

 OpenBabel03242518273D

 43 46  0  0  1  0  0  0  0  0999 V2000
   35.2860   29.1950   38.0360 C   0  0  0  0  0  0  0  0  0  0  0  0
   35.4480   28.9080   36.6950 C   0  0  0  0  0  0  0  0  0  0  0  0
   36.4460   29.6160   36.0080 C   0  0  0  0  0  0  0  0  0  0  0  0
   37.1980   30.5310   36.6650 N   0  0  0  0  0  0  0  0  0  0  0  0
   36.9950   30.7750   37.9900 C   0  0  0  0  0  0  0  0  0  0  0  0
   36.0500   30.1150   38.6670 N   0  0  0  0  0  0  0  0  0  0  0  0
   34.5450   28.7090   38.6670 H   0  0  0  0  0  0  0  0  0  0  0  0
   36.5530   29.3770   34.9680 H   0  0  0  0  0  0  0  0  0  0  0  0
   34.6020   27.9350   36.1300 N   0  0  0  0  0  0  0  0  0  0  0  0
   34.8580   27.5220   34.7870 C   0  0  0  0  0  0  0  0  0  0  0  0
   33.8680   26.5570   34.2470 C   0  0  0  0  0  0  0  0  0  0  0  0
   33.5700   25.4860   35.1510 N   0  0  0  0  0  0  0  0  0  0  0  0
   33.5140   25.7880   36.5300 C   0  0  0  0  0  0  0  0  0  0  0  0
   33.4820   27.2880   36.7570 C   0  0  0  0  0  0  0  0  0  0  0  0
   34.8760   28.4170   34.0990 H   0  0  0  0  0  0  0  0  0  0  0  0
   35.8760   27.0910   34.6940 H   0  0  0  0  0  0  0  0  0  0  0  0
   32.9300   27.1210   34.0220 H   0  0  0  0  0  0  0  0  0  0  0  0
   34.2620   26.1390   33.2960 H   0  0  0  0  0  0  0  0  0  0  0  0
   34.1270   24.6300   34.9940 H   0  0  0  0  0  0  0  0  0  0  0  0
   32.7080   25.2990   37.0780 H   0  0  0  0  0  0  0  0  0  0  0  0
   34.4790   25.4380   36.9970 H   0  0  0  0  0  0  0  0  0  0  0  0
   33.5860   27.4590   37.8630 H   0  0  0  0  0  0  0  0  0  0  0  0
   32.5100   27.7400   36.4710 H   0  0  0  0  0  0  0  0  0  0  0  0
   37.3560   32.7260   39.4600 C   0  0  0  0  0  0  0  0  0  0  0  0
   37.8560   31.7870   38.6320 C   0  0  0  0  0  0  0  0  0  0  0  0
   39.2240   31.7750   38.3770 C   0  0  0  0  0  0  0  0  0  0  0  0
   40.0300   32.7230   38.9760 C   0  0  0  0  0  0  0  0  0  0  0  0
   39.5000   33.6870   39.8290 C   0  0  0  0  0  0  0  0  0  0  0  0
   38.1340   33.6930   40.0790 C   0  0  0  0  0  0  0  0  0  0  0  0
   40.5550   34.4860   40.2660 O   0  0  0  0  0  0  0  0  0  0  0  0
   41.6530   34.2680   39.3790 C   0  0  2  0  0  0  0  0  0  0  0  0
   41.4100   32.9490   38.9060 O   0  0  0  0  0  0  0  0  0  0  0  0
   36.2970   32.7640   39.6810 H   0  0  0  0  0  0  0  0  0  0  0  0
   39.6960   31.0530   37.7250 H   0  0  0  0  0  0  0  0  0  0  0  0
   37.6900   34.4340   40.7410 H   0  0  0  0  0  0  0  0  0  0  0  0
   41.6310   35.0320   38.5790 H   0  0  0  0  0  0  0  0  0  0  0  0
   42.8900   34.3470   40.2190 C   0  0  0  0  0  2  0  0  0  0  0  0
   42.6500   34.2540   41.6350 N   0  0  0  0  0  4  0  0  0  0  0  0
   41.6180   34.3280   41.7610 H   0  0  0  0  0  0  0  0  0  0  0  0
   43.2800   35.3100   42.3770 C   0  0  0  0  0  2  0  0  0  0  0  0
   43.9060   35.9730   41.7640 H   0  0  0  0  0  0  0  0  0  0  0  0
   43.0100   32.9420   42.1450 C   0  0  0  0  0  2  0  0  0  0  0  0
   42.3660   32.7090   43.0160 H   0  0  0  0  0  0  0  0  0  0  0  0
  1  6  1  0  0  0  0
  1  7  1  0  0  0  0
  2  1  2  0  0  0  0
  3  4  2  0  0  0  0
  3  2  1  0  0  0  0
  4  5  1  0  0  0  0
  5 25  1  0  0  0  0
  5  6  2  0  0  0  0
  8  3  1  0  0  0  0
  9  2  1  0  0  0  0
  9 14  1  0  0  0  0
 10  9  1  0  0  0  0
 11 10  1  0  0  0  0
 11 12  1  0  0  0  0
 12 13  1  0  0  0  0
 13 14  1  0  0  0  0
 13 21  1  0  0  0  0
 13 20  1  0  0  0  0
 14 22  1  0  0  0  0
 15 10  1  0  0  0  0
 16 10  1  0  0  0  0
 17 11  1  0  0  0  0
 18 11  1  0  0  0  0
 19 12  1  0  0  0  0
 23 14  1  0  0  0  0
 24 33  1  0  0  0  0
 24 29  1  0  0  0  0
 25 24  2  0  0  0  0
 26 25  1  0  0  0  0
 26 27  2  0  0  0  0
 27 28  1  0  0  0  0
 28 29  2  0  0  0  0
 28 30  1  0  0  0  0
 29 35  1  0  0  0  0
 31 36  1  6  0  0  0
 31 37  1  0  0  0  0
 31 30  1  0  0  0  0
 32 27  1  0  0  0  0
 32 31  1  0  0  0  0
 34 26  1  0  0  0  0
 37 38  1  0  0  0  0
 38 39  1  0  0  0  0
 38 42  1  0  0  0  0
 38 40  1  0  0  0  0
 41 40  1  0  0  0  0
 42 43  1  0  0  0  0
M  END
>  <minimizedAffinity>
-5.07569075

$$$$

 OpenBabel03242518273D

 43 46  0  0  1  0  0  0  0  0999 V2000
   39.8300   30.9980   39.8880 C   0  0  0  0  0  0  0  0  0  0  0  0
   40.1240   31.7260   41.0240 C   0  0  0  0  0  0  0  0  0  0  0  0
   39.7750   31.1540   42.2560 C   0  0  0  0  0  0  0  0  0  0  0  0
   39.1770   29.9390   42.2900 N   0  0  0  0  0  0  0  0  0  0  0  0
   38.9090   29.2630   41.1370 C   0  0  0  0  0  0  0  0  0  0  0  0
   39.2310   29.7870   39.9510 N   0  0  0  0  0  0  0  0  0  0  0  0
   40.0550   31.3420   38.8800 H   0  0  0  0  0  0  0  0  0  0  0  0
   40.0130   31.7370   43.1240 H   0  0  0  0  0  0  0  0  0  0  0  0
   40.7480   32.9780   40.8520 N   0  0  0  0  0  0  0  0  0  0  0  0
   42.1530   33.0650   41.0940 C   0  0  0  0  0  0  0  0  0  0  0  0
   42.7070   34.4360   40.9710 C   0  0  0  0  0  0  0  0  0  0  0  0
   42.2630   35.1230   39.7940 N   0  0  0  0  0  0  0  0  0  0  0  0
   40.9310   34.9090   39.3730 C   0  0  0  0  0  0  0  0  0  0  0  0
   40.1250   34.2100   40.4520 C   0  0  0  0  0  0  0  0  0  0  0  0
   42.3950   32.6880   42.1300 H   0  0  0  0  0  0  0  0  0  0  0  0
   42.7110   32.3830   40.4210 H   0  0  0  0  0  0  0  0  0  0  0  0
   42.3930   35.0130   41.8750 H   0  0  0  0  0  0  0  0  0  0  0  0
   43.8160   34.3710   40.9640 H   0  0  0  0  0  0  0  0  0  0  0  0
   42.9090   35.0520   38.9920 H   0  0  0  0  0  0  0  0  0  0  0  0
   40.4100   35.7990   39.0190 H   0  0  0  0  0  0  0  0  0  0  0  0
   40.9580   34.1860   38.5080 H   0  0  0  0  0  0  0  0  0  0  0  0
   39.1320   33.9410   40.0030 H   0  0  0  0  0  0  0  0  0  0  0  0
   39.9000   34.8750   41.3110 H   0  0  0  0  0  0  0  0  0  0  0  0
   37.6090   27.5750   42.3840 C   0  0  0  0  0  0  0  0  0  0  0  0
   38.2560   27.9460   41.2610 C   0  0  0  0  0  0  0  0  0  0  0  0
   38.3080   27.0580   40.1900 C   0  0  0  0  0  0  0  0  0  0  0  0
   37.6980   25.8250   40.3070 C   0  0  0  0  0  0  0  0  0  0  0  0
   37.0340   25.4550   41.4720 C   0  0  0  0  0  0  0  0  0  0  0  0
   36.9850   26.3460   42.5370 C   0  0  0  0  0  0  0  0  0  0  0  0
   36.5330   24.1690   41.2790 O   0  0  0  0  0  0  0  0  0  0  0  0
   37.2250   23.6030   40.1650 C   0  0  2  0  0  0  0  0  0  0  0  0
   37.5910   24.7520   39.4130 O   0  0  0  0  0  0  0  0  0  0  0  0
   37.5480   28.2400   43.2350 H   0  0  0  0  0  0  0  0  0  0  0  0
   38.8080   27.2870   39.2600 H   0  0  0  0  0  0  0  0  0  0  0  0
   36.4740   26.0850   43.4610 H   0  0  0  0  0  0  0  0  0  0  0  0
   38.0930   23.0240   40.5340 H   0  0  0  0  0  0  0  0  0  0  0  0
   36.2280   22.7500   39.4440 C   0  0  0  0  0  2  0  0  0  0  0  0
   34.9720   23.4030   39.1820 N   0  0  0  0  0  4  0  0  0  0  0  0
   34.9720   24.2750   39.7530 H   0  0  0  0  0  0  0  0  0  0  0  0
   33.8390   22.6040   39.5600 C   0  0  0  0  0  2  0  0  0  0  0  0
   34.1030   21.5980   39.9140 H   0  0  0  0  0  0  0  0  0  0  0  0
   34.8870   23.8460   37.8000 C   0  0  0  0  0  2  0  0  0  0  0  0
   34.2420   24.7450   37.7530 H   0  0  0  0  0  0  0  0  0  0  0  0
  1  6  2  0  0  0  0
  1  2  1  0  0  0  0
  2  3  2  0  0  0  0
  3  4  1  0  0  0  0
  3  8  1  0  0  0  0
  5 25  1  0  0  0  0
  5  4  2  0  0  0  0
  6  5  1  0  0  0  0
  7  1  1  0  0  0  0
  9  2  1  0  0  0  0
  9 10  1  0  0  0  0
 10 15  1  0  0  0  0
 11 10  1  0  0  0  0
 11 17  1  0  0  0  0
 12 11  1  0  0  0  0
 13 12  1  0  0  0  0
 13 14  1  0  0  0  0
 14  9  1  0  0  0  0
 14 23  1  0  0  0  0
 16 10  1  0  0  0  0
 18 11  1  0  0  0  0
 19 12  1  0  0  0  0
 20 13  1  0  0  0  0
 21 13  1  0  0  0  0
 22 14  1  0  0  0  0
 24 29  1  0  0  0  0
 24 33  1  0  0  0  0
 25 24  2  0  0  0  0
 26 27  2  0  0  0  0
 26 25  1  0  0  0  0
 27 28  1  0  0  0  0
 28 29  2  0  0  0  0
 29 35  1  0  0  0  0
 30 28  1  0  0  0  0
 31 36  1  1  0  0  0
 31 30  1  0  0  0  0
 32 31  1  0  0  0  0
 32 27  1  0  0  0  0
 34 26  1  0  0  0  0
 37 31  1  0  0  0  0
 38 37  1  0  0  0  0
 38 40  1  0  0  0  0
 38 39  1  0  0  0  0
 40 41  1  0  0  0  0
 42 38  1  0  0  0  0
 43 42  1  0  0  0  0
M  END
>  <minimizedAffinity>
-5.06271315

$$$$

 OpenBabel03242518273D

 43 46  0  0  1  0  0  0  0  0999 V2000
   39.5180   31.5660   39.1440 C   0  0  0  0  0  0  0  0  0  0  0  0
   38.8900   32.7390   39.5120 C   0  0  0  0  0  0  0  0  0  0  0  0
   37.4860   32.7370   39.5150 C   0  0  0  0  0  0  0  0  0  0  0  0
   36.8130   31.6150   39.1660 N   0  0  0  0  0  0  0  0  0  0  0  0
   37.4840   30.4830   38.8110 C   0  0  0  0  0  0  0  0  0  0  0  0
   38.8200   30.4600   38.8000 N   0  0  0  0  0  0  0  0  0  0  0  0
   40.6000   31.4520   39.1060 H   0  0  0  0  0  0  0  0  0  0  0  0
   37.0210   33.6590   39.8040 H   0  0  0  0  0  0  0  0  0  0  0  0
   39.7050   33.8360   39.8530 N   0  0  0  0  0  0  0  0  0  0  0  0
   39.1270   34.8850   40.6310 C   0  0  0  0  0  0  0  0  0  0  0  0
   40.0330   36.0360   40.8700 C   0  0  0  0  0  0  0  0  0  0  0  0
   41.3480   35.6440   41.2840 N   0  0  0  0  0  0  0  0  0  0  0  0
   41.8990   34.4800   40.7040 C   0  0  0  0  0  0  0  0  0  0  0  0
   41.0860   34.0330   39.5040 C   0  0  0  0  0  0  0  0  0  0  0  0
   38.1970   35.2790   40.1260 H   0  0  0  0  0  0  0  0  0  0  0  0
   38.7620   34.4980   41.6040 H   0  0  0  0  0  0  0  0  0  0  0  0
   40.1040   36.6170   39.9180 H   0  0  0  0  0  0  0  0  0  0  0  0
   39.5800   36.6880   41.6470 H   0  0  0  0  0  0  0  0  0  0  0  0
   41.4860   35.6360   42.3070 H   0  0  0  0  0  0  0  0  0  0  0  0
   42.9570   34.5470   40.4490 H   0  0  0  0  0  0  0  0  0  0  0  0
   41.8010   33.6450   41.4560 H   0  0  0  0  0  0  0  0  0  0  0  0
   41.4860   33.0340   39.1850 H   0  0  0  0  0  0  0  0  0  0  0  0
   41.2150   34.7040   38.6300 H   0  0  0  0  0  0  0  0  0  0  0  0
   35.4470   29.4230   37.9030 C   0  0  0  0  0  0  0  0  0  0  0  0
   36.6770   29.3040   38.4450 C   0  0  0  0  0  0  0  0  0  0  0  0
   37.1940   28.0310   38.6640 C   0  0  0  0  0  0  0  0  0  0  0  0
   36.4370   26.9270   38.3240 C   0  0  0  0  0  0  0  0  0  0  0  0
   35.1700   27.0650   37.7650 C   0  0  0  0  0  0  0  0  0  0  0  0
   34.6600   28.3390   37.5480 C   0  0  0  0  0  0  0  0  0  0  0  0
   34.6710   25.7840   37.5370 O   0  0  0  0  0  0  0  0  0  0  0  0
   35.4510   24.8760   38.3160 C   0  0  2  0  0  0  0  0  0  0  0  0
   36.6950   25.5550   38.4280 O   0  0  0  0  0  0  0  0  0  0  0  0
   35.0150   30.3970   37.7180 H   0  0  0  0  0  0  0  0  0  0  0  0
   38.1710   27.8590   39.0950 H   0  0  0  0  0  0  0  0  0  0  0  0
   33.6730   28.4780   37.1130 H   0  0  0  0  0  0  0  0  0  0  0  0
   34.9510   24.7120   39.2900 H   0  0  0  0  0  0  0  0  0  0  0  0
   35.5630   23.6210   37.5070 C   0  0  0  0  0  2  0  0  0  0  0  0
   35.2730   22.4180   38.2390 N   0  0  0  0  0  4  0  0  0  0  0  0
   34.9090   21.7330   37.5420 H   0  0  0  0  0  0  0  0  0  0  0  0
   34.2770   22.6110   39.2570 C   0  0  0  0  0  2  0  0  0  0  0  0
   33.9530   23.6550   39.3690 H   0  0  0  0  0  0  0  0  0  0  0  0
   36.4860   21.8190   38.7720 C   0  0  0  0  0  2  0  0  0  0  0  0
   36.3440   20.7230   38.8370 H   0  0  0  0  0  0  0  0  0  0  0  0
  1  2  1  0  0  0  0
  2  3  2  0  0  0  0
  2  9  1  0  0  0  0
  3  8  1  0  0  0  0
  4  3  1  0  0  0  0
  5  4  2  0  0  0  0
  6  5  1  0  0  0  0
  6  1  2  0  0  0  0
  7  1  1  0  0  0  0
  9 10  1  0  0  0  0
 10 11  1  0  0  0  0
 10 16  1  0  0  0  0
 11 12  1  0  0  0  0
 11 18  1  0  0  0  0
 12 19  1  0  0  0  0
 13 12  1  0  0  0  0
 13 21  1  0  0  0  0
 14  9  1  0  0  0  0
 14 13  1  0  0  0  0
 15 10  1  0  0  0  0
 17 11  1  0  0  0  0
 20 13  1  0  0  0  0
 22 14  1  0  0  0  0
 23 14  1  0  0  0  0
 24 25  1  0  0  0  0
 25 26  2  0  0  0  0
 25  5  1  0  0  0  0
 26 34  1  0  0  0  0
 27 32  1  0  0  0  0
 27 26  1  0  0  0  0
 28 27  2  0  0  0  0
 29 28  1  0  0  0  0
 29 24  2  0  0  0  0
 30 28  1  0  0  0  0
 30 31  1  0  0  0  0
 31 32  1  0  0  0  0
 31 36  1  1  0  0  0
 33 24  1  0  0  0  0
 35 29  1  0  0  0  0
 37 38  1  0  0  0  0
 37 31  1  0  0  0  0
 38 42  1  0  0  0  0
 38 40  1  0  0  0  0
 39 38  1  0  0  0  0
 40 41  1  0  0  0  0
 42 43  1  0  0  0  0
M  END
>  <minimizedAffinity>
-4.98387957

$$$$

 OpenBabel03242518273D

 43 46  0  0  1  0  0  0  0  0999 V2000
   39.4330   32.1020   38.4200 C   0  0  0  0  0  0  0  0  0  0  0  0
   39.0390   32.9800   39.4110 C   0  0  0  0  0  0  0  0  0  0  0  0
   37.7260   32.8520   39.8910 C   0  0  0  0  0  0  0  0  0  0  0  0
   36.9120   31.8970   39.3820 N   0  0  0  0  0  0  0  0  0  0  0  0
   37.3530   31.0560   38.4040 C   0  0  0  0  0  0  0  0  0  0  0  0
   38.5980   31.1580   37.9300 N   0  0  0  0  0  0  0  0  0  0  0  0
   40.4250   32.1080   37.9740 H   0  0  0  0  0  0  0  0  0  0  0  0
   37.4430   33.5450   40.6590 H   0  0  0  0  0  0  0  0  0  0  0  0
   39.9820   33.9280   39.8550 N   0  0  0  0  0  0  0  0  0  0  0  0
   39.5050   35.0490   40.6000 C   0  0  0  0  0  0  0  0  0  0  0  0
   40.5560   36.0360   40.9530 C   0  0  0  0  0  0  0  0  0  0  0  0
   41.7440   35.4330   41.4810 N   0  0  0  0  0  0  0  0  0  0  0  0
   42.1560   34.2000   40.9270 C   0  0  0  0  0  0  0  0  0  0  0  0
   41.4030   33.9020   39.6440 C   0  0  0  0  0  0  0  0  0  0  0  0
   38.7040   35.5920   40.0190 H   0  0  0  0  0  0  0  0  0  0  0  0
   38.9900   34.7170   41.5250 H   0  0  0  0  0  0  0  0  0  0  0  0
   40.8120   36.6070   40.0270 H   0  0  0  0  0  0  0  0  0  0  0  0
   40.1390   36.7450   41.6990 H   0  0  0  0  0  0  0  0  0  0  0  0
   41.7780   35.3930   42.5120 H   0  0  0  0  0  0  0  0  0  0  0  0
   43.2310   34.0980   40.7760 H   0  0  0  0  0  0  0  0  0  0  0  0
   41.8520   33.3850   41.6450 H   0  0  0  0  0  0  0  0  0  0  0  0
   41.6680   32.8540   39.3400 H   0  0  0  0  0  0  0  0  0  0  0  0
   41.7240   34.5510   38.8040 H   0  0  0  0  0  0  0  0  0  0  0  0
   35.5070   29.4460   38.7150 C   0  0  0  0  0  0  0  0  0  0  0  0
   36.4040   30.0440   37.9040 C   0  0  0  0  0  0  0  0  0  0  0  0
   36.4310   29.6920   36.5570 C   0  0  0  0  0  0  0  0  0  0  0  0
   35.5440   28.7430   36.0900 C   0  0  0  0  0  0  0  0  0  0  0  0
   34.6240   28.1350   36.9380 C   0  0  0  0  0  0  0  0  0  0  0  0
   34.6010   28.4900   38.2810 C   0  0  0  0  0  0  0  0  0  0  0  0
   33.8810   27.2350   36.1750 O   0  0  0  0  0  0  0  0  0  0  0  0
   34.6040   27.0010   34.9660 C   0  0  2  0  0  0  0  0  0  0  0  0
   35.3470   28.2040   34.8130 O   0  0  0  0  0  0  0  0  0  0  0  0
   35.4570   29.6960   39.7660 H   0  0  0  0  0  0  0  0  0  0  0  0
   37.1220   30.1290   35.8490 H   0  0  0  0  0  0  0  0  0  0  0  0
   33.8940   28.0320   38.9680 H   0  0  0  0  0  0  0  0  0  0  0  0
   35.2410   26.1050   35.0910 H   0  0  0  0  0  0  0  0  0  0  0  0
   33.5750   26.8330   33.8910 C   0  0  0  0  0  2  0  0  0  0  0  0
   33.8300   25.7360   32.9960 N   0  0  0  0  0  4  0  0  0  0  0  0
   32.9540   25.5970   32.4480 H   0  0  0  0  0  0  0  0  0  0  0  0
   34.1390   24.5140   33.6860 C   0  0  0  0  0  2  0  0  0  0  0  0
   34.2090   24.6250   34.7770 H   0  0  0  0  0  0  0  0  0  0  0  0
   34.8480   26.0790   32.0170 C   0  0  0  0  0  2  0  0  0  0  0  0
   34.6560   25.5090   31.0870 H   0  0  0  0  0  0  0  0  0  0  0  0
  1  2  1  0  0  0  0
  2  9  1  0  0  0  0
  2  3  2  0  0  0  0
  3  8  1  0  0  0  0
  4  3  1  0  0  0  0
  5  4  2  0  0  0  0
  6  5  1  0  0  0  0
  6  1  2  0  0  0  0
  7  1  1  0  0  0  0
  9 10  1  0  0  0  0
 10 11  1  0  0  0  0
 10 16  1  0  0  0  0
 11 12  1  0  0  0  0
 11 18  1  0  0  0  0
 12 19  1  0  0  0  0
 13 12  1  0  0  0  0
 13 21  1  0  0  0  0
 14  9  1  0  0  0  0
 14 13  1  0  0  0  0
 15 10  1  0  0  0  0
 17 11  1  0  0  0  0
 20 13  1  0  0  0  0
 22 14  1  0  0  0  0
 23 14  1  0  0  0  0
 24 33  1  0  0  0  0
 25  5  1  0  0  0  0
 25 24  2  0  0  0  0
 26 25  1  0  0  0  0
 27 26  2  0  0  0  0
 27 28  1  0  0  0  0
 28 29  2  0  0  0  0
 29 24  1  0  0  0  0
 29 35  1  0  0  0  0
 30 28  1  0  0  0  0
 31 36  1  1  0  0  0
 31 30  1  0  0  0  0
 32 31  1  0  0  0  0
 32 27  1  0  0  0  0
 34 26  1  0  0  0  0
 37 31  1  0  0  0  0
 38 40  1  0  0  0  0
 38 37  1  0  0  0  0
 39 38  1  0  0  0  0
 40 41  1  0  0  0  0
 42 38  1  0  0  0  0
 43 42  1  0  0  0  0
M  END
>  <minimizedAffinity>
-4.97498369

$$$$
