
 OpenBabel03252501093D

 38 40  0  0  1  0  0  0  0  0999 V2000
   35.1000   28.7600   40.4780 O   0  0  0  0  0  0  0  0  0  0  0  0
   36.2980   29.5650   40.9810 P   0  0  2  0  0  0  0  0  0  0  0  0
   35.6980   31.1230   41.2730 O   0  0  0  0  0  0  0  0  0  0  0  0
   36.4320   31.6350   41.7080 H   0  0  0  0  0  0  0  0  0  0  0  0
   37.5670   29.4990   39.9520 O   0  0  0  0  0  0  0  0  0  0  0  0
   37.5130   30.6910   37.8460 C   0  0  1  0  0  0  0  0  0  0  0  0
   38.4900   29.6170   37.6290 C   0  0  0  0  0  0  0  0  0  0  0  0
   37.3250   29.4710   38.6260 C   0  0  1  0  0  0  0  0  0  0  0  0
   36.8160   30.9460   37.0330 H   0  0  0  0  0  0  0  0  0  0  0  0
   39.4990   29.6070   38.1230 H   0  0  0  0  0  0  0  0  0  0  0  0
   38.4770   28.9810   36.7260 H   0  0  0  0  0  0  0  0  0  0  0  0
   36.6050   28.7040   38.2870 H   0  0  0  0  0  0  0  0  0  0  0  0
   39.8990   33.1760   39.4240 C   0  0  0  0  0  0  0  0  0  0  0  0
   39.4300   32.0750   38.7160 C   0  0  0  0  0  0  0  0  0  0  0  0
   38.0400   31.8830   38.5950 C   0  0  0  0  0  0  0  0  0  0  0  0
   37.2020   32.7790   39.1740 N   0  0  0  0  0  0  0  0  0  0  0  0
   37.6810   33.8450   39.8590 C   0  0  0  0  0  0  0  0  0  0  0  0
   39.0230   34.0440   39.9850 N   0  0  0  0  0  0  0  0  0  0  0  0
   40.9680   33.3160   39.5120 H   0  0  0  0  0  0  0  0  0  0  0  0
   40.1340   31.4000   38.2790 H   0  0  0  0  0  0  0  0  0  0  0  0
   36.9310   34.5090   40.2880 H   0  0  0  0  0  0  0  0  0  0  0  0
   36.6840   28.8880   42.4680 O   0  0  0  0  0  0  0  0  0  0  0  0
   37.6560   27.9150   42.6460 C   0  0  0  0  0  0  0  0  0  0  0  0
   38.9510   28.0730   43.1030 C   0  0  0  0  0  0  0  0  0  0  0  0
   39.7850   27.0050   43.2190 C   0  0  0  0  0  0  0  0  0  0  0  0
   39.3710   25.7340   42.8880 C   0  0  0  0  0  0  0  0  0  0  0  0
   38.0540   25.6120   42.4290 C   0  0  0  0  0  0  0  0  0  0  0  0
   37.2280   26.6920   42.3170 N   0  0  0  0  0  0  0  0  0  0  0  0
   39.2110   29.0980   43.3450 H   0  0  0  0  0  0  0  0  0  0  0  0
   40.7850   27.2010   43.5830 H   0  0  0  0  0  0  0  0  0  0  0  0
   40.0170   24.8930   42.9760 H   0  0  0  0  0  0  0  0  0  0  0  0
   37.6030   24.2430   42.0700 C   0  0  0  0  0  2  0  0  0  0  0  0
   37.5050   23.9880   40.6670 N   0  0  0  0  0  4  0  0  0  0  0  0
   37.9930   24.6960   40.0730 H   0  0  0  0  0  0  0  0  0  0  0  0
   38.1950   22.7350   40.3960 C   0  0  0  0  0  2  0  0  0  0  0  0
   38.3150   22.1480   41.3450 H   0  0  0  0  0  0  0  0  0  0  0  0
   36.1280   23.7870   40.2500 C   0  0  0  0  0  2  0  0  0  0  0  0
   35.8440   22.7380   40.5400 H   0  0  0  0  0  0  0  0  0  0  0  0
  2  1  2  6  0  0  0
  2  3  1  0  0  0  0
  2 22  1  0  0  0  0
  3  4  1  0  0  0  0
  5  2  1  0  0  0  0
  6  9  1  6  0  0  0
  6 15  1  0  0  0  0
  6  8  1  0  0  0  0
  7  6  1  0  0  0  0
  7 10  1  0  0  0  0
  7  8  1  0  0  0  0
  8 12  1  6  0  0  0
  8  5  1  0  0  0  0
 11  7  1  0  0  0  0
 13 19  1  0  0  0  0
 13 18  1  0  0  0  0
 14 13  2  0  0  0  0
 15 14  1  0  0  0  0
 15 16  2  0  0  0  0
 16 17  1  0  0  0  0
 17 18  2  0  0  0  0
 17 21  1  0  0  0  0
 20 14  1  0  0  0  0
 22 23  1  0  0  0  0
 23 24  1  0  0  0  0
 24 25  2  0  0  0  0
 24 29  1  0  0  0  0
 25 30  1  0  0  0  0
 26 31  1  0  0  0  0
 26 25  1  0  0  0  0
 27 26  2  0  0  0  0
 28 27  1  0  0  0  0
 28 23  2  0  0  0  0
 32 27  1  0  0  0  0
 33 32  1  0  0  0  0
 34 33  1  0  0  0  0
 35 33  1  0  0  0  0
 35 36  1  0  0  0  0
 37 38  1  0  0  0  0
 37 33  1  0  0  0  0
M  END
>  <minimizedAffinity>
-5.53156471

$$$$

 OpenBabel03252501093D

 38 40  0  0  1  0  0  0  0  0999 V2000
   36.0310   28.3750   41.3010 O   0  0  0  0  0  0  0  0  0  0  0  0
   36.7580   29.7180   41.2400 P   0  0  2  0  0  0  0  0  0  0  0  0
   35.5400   30.8900   41.3640 O   0  0  0  0  0  0  0  0  0  0  0  0
   35.9970   31.7700   41.4410 H   0  0  0  0  0  0  0  0  0  0  0  0
   37.7070   29.8510   39.9150 O   0  0  0  0  0  0  0  0  0  0  0  0
   37.4180   31.5700   38.2360 C   0  0  1  0  0  0  0  0  0  0  0  0
   38.0250   30.4490   37.5060 C   0  0  0  0  0  0  0  0  0  0  0  0
   37.1440   30.2320   38.7510 C   0  0  1  0  0  0  0  0  0  0  0  0
   36.6230   32.1520   37.7450 H   0  0  0  0  0  0  0  0  0  0  0  0
   39.0920   30.1340   37.6590 H   0  0  0  0  0  0  0  0  0  0  0  0
   37.6360   30.0990   36.5330 H   0  0  0  0  0  0  0  0  0  0  0  0
   36.2000   29.7200   38.4850 H   0  0  0  0  0  0  0  0  0  0  0  0
   38.8060   34.0870   40.7040 C   0  0  0  0  0  0  0  0  0  0  0  0
   37.8980   33.3150   39.9870 C   0  0  0  0  0  0  0  0  0  0  0  0
   38.3840   32.4030   39.0310 C   0  0  0  0  0  0  0  0  0  0  0  0
   39.7230   32.3060   38.8380 N   0  0  0  0  0  0  0  0  0  0  0  0
   40.5900   33.0690   39.5470 C   0  0  0  0  0  0  0  0  0  0  0  0
   40.1350   33.9560   40.4760 N   0  0  0  0  0  0  0  0  0  0  0  0
   38.4240   34.7850   41.4370 H   0  0  0  0  0  0  0  0  0  0  0  0
   36.8530   33.4310   40.1790 H   0  0  0  0  0  0  0  0  0  0  0  0
   41.6450   32.9210   39.3230 H   0  0  0  0  0  0  0  0  0  0  0  0
   37.6670   29.7860   42.6490 O   0  0  0  0  0  0  0  0  0  0  0  0
   39.0530   29.7930   42.6760 C   0  0  0  0  0  0  0  0  0  0  0  0
   39.9060   30.8750   42.5520 C   0  0  0  0  0  0  0  0  0  0  0  0
   41.2550   30.7080   42.6000 C   0  0  0  0  0  0  0  0  0  0  0  0
   41.8170   29.4620   42.7710 C   0  0  0  0  0  0  0  0  0  0  0  0
   40.9240   28.3920   42.8920 C   0  0  0  0  0  0  0  0  0  0  0  0
   39.5730   28.5720   42.8430 N   0  0  0  0  0  0  0  0  0  0  0  0
   39.3980   31.8230   42.4200 H   0  0  0  0  0  0  0  0  0  0  0  0
   41.8630   31.5970   42.4960 H   0  0  0  0  0  0  0  0  0  0  0  0
   42.8710   29.3240   42.8090 H   0  0  0  0  0  0  0  0  0  0  0  0
   41.5260   27.0460   43.0780 C   0  0  0  0  0  2  0  0  0  0  0  0
   41.0130   26.0310   42.2120 N   0  0  0  0  0  4  0  0  0  0  0  0
   40.3490   26.3890   41.4880 H   0  0  0  0  0  0  0  0  0  0  0  0
   42.1330   25.4900   41.4540 C   0  0  0  0  0  2  0  0  0  0  0  0
   43.1010   25.7430   41.9620 H   0  0  0  0  0  0  0  0  0  0  0  0
   40.4560   24.9160   42.9580 C   0  0  0  0  0  2  0  0  0  0  0  0
   41.3210   24.2890   43.3110 H   0  0  0  0  0  0  0  0  0  0  0  0
  2  1  2  6  0  0  0
  2  3  1  0  0  0  0
  2 22  1  0  0  0  0
  3  4  1  0  0  0  0
  5  2  1  0  0  0  0
  6  9  1  6  0  0  0
  6  8  1  0  0  0  0
  6 15  1  0  0  0  0
  7 10  1  0  0  0  0
  7  6  1  0  0  0  0
  7  8  1  0  0  0  0
  8 12  1  6  0  0  0
  8  5  1  0  0  0  0
 11  7  1  0  0  0  0
 13 19  1  0  0  0  0
 14 20  1  0  0  0  0
 14 13  2  0  0  0  0
 15 14  1  0  0  0  0
 16 15  2  0  0  0  0
 16 17  1  0  0  0  0
 17 18  2  0  0  0  0
 18 13  1  0  0  0  0
 21 17  1  0  0  0  0
 22 23  1  0  0  0  0
 23 28  1  0  0  0  0
 24 25  1  0  0  0  0
 24 23  2  0  0  0  0
 25 26  2  0  0  0  0
 26 31  1  0  0  0  0
 26 27  1  0  0  0  0
 27 32  1  0  0  0  0
 28 27  2  0  0  0  0
 29 24  1  0  0  0  0
 30 25  1  0  0  0  0
 33 37  1  0  0  0  0
 33 32  1  0  0  0  0
 34 33  1  0  0  0  0
 35 36  1  0  0  0  0
 35 33  1  0  0  0  0
 37 38  1  0  0  0  0
M  END
>  <minimizedAffinity>
-5.37033463

$$$$

 OpenBabel03252501093D

 38 40  0  0  1  0  0  0  0  0999 V2000
   35.7800   28.5850   41.3450 O   0  0  0  0  0  0  0  0  0  0  0  0
   36.7260   29.7830   41.2720 P   0  0  2  0  0  0  0  0  0  0  0  0
   35.7250   31.1490   41.3580 O   0  0  0  0  0  0  0  0  0  0  0  0
   36.3250   31.9390   41.4260 H   0  0  0  0  0  0  0  0  0  0  0  0
   37.6990   29.7270   39.9580 O   0  0  0  0  0  0  0  0  0  0  0  0
   37.2760   31.1650   38.0570 C   0  0  1  0  0  0  0  0  0  0  0  0
   38.0510   30.0480   37.5020 C   0  0  0  0  0  0  0  0  0  0  0  0
   37.1480   29.8790   38.7370 C   0  0  1  0  0  0  0  0  0  0  0  0
   36.4380   31.5710   37.4700 H   0  0  0  0  0  0  0  0  0  0  0  0
   39.1410   29.8960   37.7260 H   0  0  0  0  0  0  0  0  0  0  0  0
   37.7550   29.5290   36.5720 H   0  0  0  0  0  0  0  0  0  0  0  0
   36.2880   29.2200   38.5140 H   0  0  0  0  0  0  0  0  0  0  0  0
   40.2280   33.2210   39.2490 C   0  0  0  0  0  0  0  0  0  0  0  0
   39.4870   32.2540   38.5760 C   0  0  0  0  0  0  0  0  0  0  0  0
   38.0920   32.2110   38.7630 C   0  0  0  0  0  0  0  0  0  0  0  0
   37.5140   33.1130   39.5950 N   0  0  0  0  0  0  0  0  0  0  0  0
   38.2550   34.0460   40.2400 C   0  0  0  0  0  0  0  0  0  0  0  0
   39.6050   34.1010   40.0700 N   0  0  0  0  0  0  0  0  0  0  0  0
   41.2980   33.2470   39.0990 H   0  0  0  0  0  0  0  0  0  0  0  0
   39.9930   31.5670   37.9330 H   0  0  0  0  0  0  0  0  0  0  0  0
   37.7020   34.7270   40.8860 H   0  0  0  0  0  0  0  0  0  0  0  0
   37.6180   29.7220   42.6920 O   0  0  0  0  0  0  0  0  0  0  0  0
   38.5810   28.7610   42.9600 C   0  0  0  0  0  0  0  0  0  0  0  0
   38.4010   27.4900   43.4730 C   0  0  0  0  0  0  0  0  0  0  0  0
   39.4620   26.6650   43.6780 C   0  0  0  0  0  0  0  0  0  0  0  0
   40.7480   27.0630   43.3840 C   0  0  0  0  0  0  0  0  0  0  0  0
   40.8910   28.3560   42.8660 C   0  0  0  0  0  0  0  0  0  0  0  0
   39.8190   29.1740   42.6650 N   0  0  0  0  0  0  0  0  0  0  0  0
   37.3670   27.2420   43.6830 H   0  0  0  0  0  0  0  0  0  0  0  0
   39.2500   25.6840   44.0830 H   0  0  0  0  0  0  0  0  0  0  0  0
   41.5830   26.4230   43.5410 H   0  0  0  0  0  0  0  0  0  0  0  0
   42.2750   28.7900   42.5460 C   0  0  0  0  0  2  0  0  0  0  0  0
   43.1230   27.7660   42.0210 N   0  0  0  0  0  4  0  0  0  0  0  0
   42.8150   26.7970   42.2650 H   0  0  0  0  0  0  0  0  0  0  0  0
   43.0440   27.8280   40.5690 C   0  0  0  0  0  2  0  0  0  0  0  0
   42.6410   28.8250   40.2460 H   0  0  0  0  0  0  0  0  0  0  0  0
   44.5170   27.9940   42.3590 C   0  0  0  0  0  2  0  0  0  0  0  0
   44.9030   28.7830   41.6560 H   0  0  0  0  0  0  0  0  0  0  0  0
  2  1  2  6  0  0  0
  2  3  1  0  0  0  0
  2 22  1  0  0  0  0
  3  4  1  0  0  0  0
  5  2  1  0  0  0  0
  6  9  1  6  0  0  0
  6  8  1  0  0  0  0
  6 15  1  0  0  0  0
  7 10  1  0  0  0  0
  7  6  1  0  0  0  0
  7  8  1  0  0  0  0
  8 12  1  6  0  0  0
  8  5  1  0  0  0  0
 11  7  1  0  0  0  0
 13 18  1  0  0  0  0
 14 15  1  0  0  0  0
 14 13  2  0  0  0  0
 15 16  2  0  0  0  0
 16 17  1  0  0  0  0
 17 21  1  0  0  0  0
 18 17  2  0  0  0  0
 19 13  1  0  0  0  0
 20 14  1  0  0  0  0
 22 23  1  0  0  0  0
 23 24  1  0  0  0  0
 24 25  2  0  0  0  0
 24 29  1  0  0  0  0
 25 30  1  0  0  0  0
 26 31  1  0  0  0  0
 26 25  1  0  0  0  0
 27 26  2  0  0  0  0
 28 27  1  0  0  0  0
 28 23  2  0  0  0  0
 32 27  1  0  0  0  0
 33 34  1  0  0  0  0
 33 37  1  0  0  0  0
 33 32  1  0  0  0  0
 35 33  1  0  0  0  0
 36 35  1  0  0  0  0
 38 37  1  0  0  0  0
M  END
>  <minimizedAffinity>
-5.29146338

$$$$

 OpenBabel03252501093D

 38 40  0  0  1  0  0  0  0  0999 V2000
   37.1440   32.8080   40.0440 O   0  0  0  0  0  0  0  0  0  0  0  0
   37.0490   31.2930   40.2190 P   0  0  2  0  0  0  0  0  0  0  0  0
   35.8370   31.0530   41.3810 O   0  0  0  0  0  0  0  0  0  0  0  0
   35.6780   30.0720   41.4290 H   0  0  0  0  0  0  0  0  0  0  0  0
   38.4930   30.6180   40.5850 O   0  0  0  0  0  0  0  0  0  0  0  0
   39.1800   30.2060   42.8690 C   0  0  1  0  0  0  0  0  0  0  0  0
   40.4420   30.3400   42.1290 C   0  0  0  0  0  0  0  0  0  0  0  0
   39.1520   31.0510   41.6780 C   0  0  1  0  0  0  0  0  0  0  0  0
   39.1040   30.6540   43.8710 H   0  0  0  0  0  0  0  0  0  0  0  0
   40.8000   29.5670   41.3980 H   0  0  0  0  0  0  0  0  0  0  0  0
   41.2750   30.9670   42.4940 H   0  0  0  0  0  0  0  0  0  0  0  0
   39.2480   32.1480   41.7770 H   0  0  0  0  0  0  0  0  0  0  0  0
   38.6290   26.5150   42.2110 C   0  0  0  0  0  0  0  0  0  0  0  0
   39.2650   27.7470   42.3320 C   0  0  0  0  0  0  0  0  0  0  0  0
   38.5150   28.8640   42.7460 C   0  0  0  0  0  0  0  0  0  0  0  0
   37.1940   28.7050   43.0130 N   0  0  0  0  0  0  0  0  0  0  0  0
   36.5950   27.4960   42.8880 C   0  0  0  0  0  0  0  0  0  0  0  0
   37.3070   26.4050   42.4890 N   0  0  0  0  0  0  0  0  0  0  0  0
   39.2130   25.6620   41.8930 H   0  0  0  0  0  0  0  0  0  0  0  0
   40.3080   27.8170   42.1090 H   0  0  0  0  0  0  0  0  0  0  0  0
   35.5320   27.4660   43.1260 H   0  0  0  0  0  0  0  0  0  0  0  0
   36.4630   30.7210   38.7540 O   0  0  0  0  0  0  0  0  0  0  0  0
   36.0900   29.4030   38.5330 C   0  0  0  0  0  0  0  0  0  0  0  0
   36.5370   28.2670   39.1810 C   0  0  0  0  0  0  0  0  0  0  0  0
   36.0660   27.0380   38.8390 C   0  0  0  0  0  0  0  0  0  0  0  0
   35.1320   26.8820   37.8390 C   0  0  0  0  0  0  0  0  0  0  0  0
   34.7030   28.0540   37.2050 C   0  0  0  0  0  0  0  0  0  0  0  0
   35.1830   29.2800   37.5580 N   0  0  0  0  0  0  0  0  0  0  0  0
   37.2710   28.4620   39.9560 H   0  0  0  0  0  0  0  0  0  0  0  0
   36.4590   26.1920   39.3870 H   0  0  0  0  0  0  0  0  0  0  0  0
   34.7590   25.9240   37.5650 H   0  0  0  0  0  0  0  0  0  0  0  0
   33.6940   27.8910   36.1260 C   0  0  0  0  0  2  0  0  0  0  0  0
   32.3470   27.7340   36.5780 N   0  0  0  0  0  4  0  0  0  0  0  0
   32.2680   27.4400   37.5780 H   0  0  0  0  0  0  0  0  0  0  0  0
   31.7070   29.0410   36.5220 C   0  0  0  0  0  2  0  0  0  0  0  0
   32.2880   29.7270   35.8490 H   0  0  0  0  0  0  0  0  0  0  0  0
   31.5790   26.8730   35.6960 C   0  0  0  0  0  2  0  0  0  0  0  0
   31.2910   27.4890   34.7990 H   0  0  0  0  0  0  0  0  0  0  0  0
  2  1  2  6  0  0  0
  2  5  1  0  0  0  0
  2  3  1  0  0  0  0
  3  4  1  0  0  0  0
  5  8  1  0  0  0  0
  6  9  1  1  0  0  0
  7 11  1  0  0  0  0
  7  6  1  0  0  0  0
  8 12  1  1  0  0  0
  8  7  1  0  0  0  0
  8  6  1  0  0  0  0
 10  7  1  0  0  0  0
 13 14  2  0  0  0  0
 13 18  1  0  0  0  0
 14 15  1  0  0  0  0
 15  6  1  0  0  0  0
 15 16  2  0  0  0  0
 17 16  1  0  0  0  0
 17 21  1  0  0  0  0
 18 17  2  0  0  0  0
 19 13  1  0  0  0  0
 20 14  1  0  0  0  0
 22  2  1  0  0  0  0
 23 22  1  0  0  0  0
 23 24  1  0  0  0  0
 24 29  1  0  0  0  0
 25 24  2  0  0  0  0
 25 30  1  0  0  0  0
 26 25  1  0  0  0  0
 27 28  1  0  0  0  0
 27 26  2  0  0  0  0
 28 23  2  0  0  0  0
 31 26  1  0  0  0  0
 32 33  1  0  0  0  0
 32 27  1  0  0  0  0
 33 34  1  0  0  0  0
 35 33  1  0  0  0  0
 36 35  1  0  0  0  0
 37 33  1  0  0  0  0
 38 37  1  0  0  0  0
M  END
>  <minimizedAffinity>
-5.03581905

$$$$

 OpenBabel03252501093D

 38 40  0  0  1  0  0  0  0  0999 V2000
   36.9530   28.2890   38.5280 O   0  0  0  0  0  0  0  0  0  0  0  0
   37.8880   29.1130   39.4120 P   0  0  2  0  0  0  0  0  0  0  0  0
   39.2780   29.3670   38.4750 O   0  0  0  0  0  0  0  0  0  0  0  0
   39.8550   29.9960   38.9860 H   0  0  0  0  0  0  0  0  0  0  0  0
   38.1570   28.4050   40.8620 O   0  0  0  0  0  0  0  0  0  0  0  0
   37.2990   27.8420   43.0540 C   0  0  1  0  0  0  0  0  0  0  0  0
   37.9900   29.1220   43.2530 C   0  0  0  0  0  0  0  0  0  0  0  0
   37.3640   28.7350   41.9000 C   0  0  1  0  0  0  0  0  0  0  0  0
   36.3430   27.6690   43.5720 H   0  0  0  0  0  0  0  0  0  0  0  0
   39.1070   29.2200   43.2110 H   0  0  0  0  0  0  0  0  0  0  0  0
   37.5320   29.9580   43.8120 H   0  0  0  0  0  0  0  0  0  0  0  0
   36.5050   29.3880   41.6590 H   0  0  0  0  0  0  0  0  0  0  0  0
   40.2620   25.5490   43.6180 C   0  0  0  0  0  0  0  0  0  0  0  0
   39.4370   26.6680   43.6790 C   0  0  0  0  0  0  0  0  0  0  0  0
   38.1980   26.6380   43.0120 C   0  0  0  0  0  0  0  0  0  0  0  0
   37.8460   25.5190   42.3300 N   0  0  0  0  0  0  0  0  0  0  0  0
   38.6650   24.4410   42.2840 C   0  0  0  0  0  0  0  0  0  0  0  0
   39.8680   24.4540   42.9240 N   0  0  0  0  0  0  0  0  0  0  0  0
   41.2120   25.5800   44.1340 H   0  0  0  0  0  0  0  0  0  0  0  0
   39.7630   27.5230   44.2300 H   0  0  0  0  0  0  0  0  0  0  0  0
   38.2970   23.5890   41.7130 H   0  0  0  0  0  0  0  0  0  0  0  0
   37.1240   30.5970   39.5910 O   0  0  0  0  0  0  0  0  0  0  0  0
   37.7940   31.7870   39.8320 C   0  0  0  0  0  0  0  0  0  0  0  0
   37.3240   33.0790   39.6810 C   0  0  0  0  0  0  0  0  0  0  0  0
   38.1170   34.1460   39.9640 C   0  0  0  0  0  0  0  0  0  0  0  0
   39.4100   33.9800   40.4090 C   0  0  0  0  0  0  0  0  0  0  0  0
   39.8510   32.6590   40.5500 C   0  0  0  0  0  0  0  0  0  0  0  0
   39.0450   31.5970   40.2630 N   0  0  0  0  0  0  0  0  0  0  0  0
   36.3000   33.1370   39.3280 H   0  0  0  0  0  0  0  0  0  0  0  0
   37.6860   35.1290   39.8230 H   0  0  0  0  0  0  0  0  0  0  0  0
   40.0370   34.8100   40.6330 H   0  0  0  0  0  0  0  0  0  0  0  0
   41.2440   32.4750   41.0310 C   0  0  0  0  0  2  0  0  0  0  0  0
   42.1960   33.3930   40.4880 N   0  0  0  0  0  4  0  0  0  0  0  0
   41.7650   34.2320   40.0380 H   0  0  0  0  0  0  0  0  0  0  0  0
   42.9790   33.9250   41.5950 C   0  0  0  0  0  2  0  0  0  0  0  0
   42.8790   33.2590   42.4930 H   0  0  0  0  0  0  0  0  0  0  0  0
   43.1430   32.7310   39.6080 C   0  0  0  0  0  2  0  0  0  0  0  0
   43.8980   32.2140   40.2620 H   0  0  0  0  0  0  0  0  0  0  0  0
  2  1  2  6  0  0  0
  2 22  1  0  0  0  0
  2  5  1  0  0  0  0
  3  4  1  0  0  0  0
  3  2  1  0  0  0  0
  5  8  1  0  0  0  0
  6  7  1  0  0  0  0
  6  9  1  1  0  0  0
  7 11  1  0  0  0  0
  8 12  1  6  0  0  0
  8  6  1  0  0  0  0
  8  7  1  0  0  0  0
 10  7  1  0  0  0  0
 13 14  1  0  0  0  0
 13 19  1  0  0  0  0
 14 20  1  0  0  0  0
 15  6  1  0  0  0  0
 15 14  2  0  0  0  0
 16 15  1  0  0  0  0
 17 16  2  0  0  0  0
 17 18  1  0  0  0  0
 18 13  2  0  0  0  0
 21 17  1  0  0  0  0
 22 23  1  0  0  0  0
 23 28  1  0  0  0  0
 24 23  2  0  0  0  0
 24 25  1  0  0  0  0
 25 26  2  0  0  0  0
 26 27  1  0  0  0  0
 26 31  1  0  0  0  0
 27 32  1  0  0  0  0
 28 27  2  0  0  0  0
 29 24  1  0  0  0  0
 30 25  1  0  0  0  0
 33 32  1  0  0  0  0
 33 35  1  0  0  0  0
 34 33  1  0  0  0  0
 35 36  1  0  0  0  0
 37 38  1  0  0  0  0
 37 33  1  0  0  0  0
M  END
>  <minimizedAffinity>
-5.02415657

$$$$

 OpenBabel03252501093D

 38 40  0  0  1  0  0  0  0  0999 V2000
   36.3220   29.8430   39.2100 O   0  0  0  0  0  0  0  0  0  0  0  0
   36.9180   30.6940   40.3300 P   0  0  2  0  0  0  0  0  0  0  0  0
   35.6240   31.0270   41.3740 O   0  0  0  0  0  0  0  0  0  0  0  0
   36.0090   31.4840   42.1690 H   0  0  0  0  0  0  0  0  0  0  0  0
   37.6980   32.0140   39.7600 O   0  0  0  0  0  0  0  0  0  0  0  0
   39.7620   32.9770   40.5780 C   0  0  1  0  0  0  0  0  0  0  0  0
   38.9690   34.1340   40.1410 C   0  0  0  0  0  0  0  0  0  0  0  0
   38.3100   32.8340   40.6360 C   0  0  1  0  0  0  0  0  0  0  0  0
   40.3510   33.0590   41.5040 H   0  0  0  0  0  0  0  0  0  0  0  0
   38.7610   34.3510   39.0590 H   0  0  0  0  0  0  0  0  0  0  0  0
   38.8550   35.0390   40.7640 H   0  0  0  0  0  0  0  0  0  0  0  0
   37.7760   32.9980   41.5910 H   0  0  0  0  0  0  0  0  0  0  0  0
   41.3740   32.1820   37.2430 C   0  0  0  0  0  0  0  0  0  0  0  0
   40.7410   32.8900   38.2600 C   0  0  0  0  0  0  0  0  0  0  0  0
   40.4580   32.2340   39.4730 C   0  0  0  0  0  0  0  0  0  0  0  0
   40.8100   30.9310   39.6120 N   0  0  0  0  0  0  0  0  0  0  0  0
   41.4250   30.2610   38.6080 C   0  0  0  0  0  0  0  0  0  0  0  0
   41.7070   30.8810   37.4280 N   0  0  0  0  0  0  0  0  0  0  0  0
   41.5890   32.6940   36.3140 H   0  0  0  0  0  0  0  0  0  0  0  0
   40.4860   33.9150   38.0970 H   0  0  0  0  0  0  0  0  0  0  0  0
   41.6700   29.2190   38.8130 H   0  0  0  0  0  0  0  0  0  0  0  0
   37.9700   29.6700   41.1440 O   0  0  0  0  0  0  0  0  0  0  0  0
   37.5970   28.4470   41.6810 C   0  0  0  0  0  0  0  0  0  0  0  0
   36.9810   28.1980   42.8940 C   0  0  0  0  0  0  0  0  0  0  0  0
   36.6810   26.9270   43.2750 C   0  0  0  0  0  0  0  0  0  0  0  0
   36.9780   25.8490   42.4710 C   0  0  0  0  0  0  0  0  0  0  0  0
   37.6000   26.1400   41.2520 C   0  0  0  0  0  0  0  0  0  0  0  0
   37.8960   27.4180   40.8810 N   0  0  0  0  0  0  0  0  0  0  0  0
   36.7770   29.0890   43.4760 H   0  0  0  0  0  0  0  0  0  0  0  0
   36.2010   26.8040   44.2370 H   0  0  0  0  0  0  0  0  0  0  0  0
   36.7460   24.8520   42.7620 H   0  0  0  0  0  0  0  0  0  0  0  0
   37.9220   24.9800   40.3800 C   0  0  0  0  0  2  0  0  0  0  0  0
   37.3880   25.0540   39.0560 N   0  0  0  0  0  4  0  0  0  0  0  0
   37.3110   26.0280   38.6850 H   0  0  0  0  0  0  0  0  0  0  0  0
   38.3270   24.3890   38.1640 C   0  0  0  0  0  2  0  0  0  0  0  0
   39.0130   23.7220   38.7520 H   0  0  0  0  0  0  0  0  0  0  0  0
   36.1370   24.3260   38.9380 C   0  0  0  0  0  2  0  0  0  0  0  0
   36.3950   23.2340   38.8570 H   0  0  0  0  0  0  0  0  0  0  0  0
  2  1  2  6  0  0  0
  2 22  1  0  0  0  0
  2  3  1  0  0  0  0
  3  4  1  0  0  0  0
  5  2  1  0  0  0  0
  5  8  1  0  0  0  0
  6  8  1  0  0  0  0
  6  9  1  1  0  0  0
  7  6  1  0  0  0  0
  7  8  1  0  0  0  0
  7 11  1  0  0  0  0
  8 12  1  1  0  0  0
 10  7  1  0  0  0  0
 13 18  2  0  0  0  0
 13 14  1  0  0  0  0
 14 15  2  0  0  0  0
 15 16  1  0  0  0  0
 15  6  1  0  0  0  0
 17 21  1  0  0  0  0
 17 16  2  0  0  0  0
 18 17  1  0  0  0  0
 19 13  1  0  0  0  0
 20 14  1  0  0  0  0
 22 23  1  0  0  0  0
 23 24  1  0  0  0  0
 24 25  2  0  0  0  0
 24 29  1  0  0  0  0
 25 30  1  0  0  0  0
 26 31  1  0  0  0  0
 26 25  1  0  0  0  0
 27 26  2  0  0  0  0
 28 27  1  0  0  0  0
 28 23  2  0  0  0  0
 32 27  1  0  0  0  0
 33 32  1  0  0  0  0
 34 33  1  0  0  0  0
 35 36  1  0  0  0  0
 35 33  1  0  0  0  0
 37 33  1  0  0  0  0
 38 37  1  0  0  0  0
M  END
>  <minimizedAffinity>
-4.99599171

$$$$

 OpenBabel03252501093D

 38 40  0  0  1  0  0  0  0  0999 V2000
   37.1050   32.9880   40.0410 O   0  0  0  0  0  0  0  0  0  0  0  0
   37.1100   31.4620   40.1120 P   0  0  2  0  0  0  0  0  0  0  0  0
   35.8630   31.0610   41.1880 O   0  0  0  0  0  0  0  0  0  0  0  0
   35.7730   30.0710   41.1640 H   0  0  0  0  0  0  0  0  0  0  0  0
   38.5800   30.8640   40.5100 O   0  0  0  0  0  0  0  0  0  0  0  0
   39.5620   30.8800   42.7220 C   0  0  1  0  0  0  0  0  0  0  0  0
   40.7110   30.9880   41.8150 C   0  0  0  0  0  0  0  0  0  0  0  0
   39.3160   31.5170   41.4310 C   0  0  1  0  0  0  0  0  0  0  0  0
   39.5600   31.4770   43.6470 H   0  0  0  0  0  0  0  0  0  0  0  0
   41.0540   30.1370   41.1690 H   0  0  0  0  0  0  0  0  0  0  0  0
   41.5170   31.7280   41.9690 H   0  0  0  0  0  0  0  0  0  0  0  0
   39.3180   32.6200   41.3500 H   0  0  0  0  0  0  0  0  0  0  0  0
   39.3360   27.1000   42.8330 C   0  0  0  0  0  0  0  0  0  0  0  0
   39.8600   28.3800   42.6860 C   0  0  0  0  0  0  0  0  0  0  0  0
   39.0180   29.4890   42.8910 C   0  0  0  0  0  0  0  0  0  0  0  0
   37.7210   29.2760   43.2260 N   0  0  0  0  0  0  0  0  0  0  0  0
   37.2310   28.0200   43.3640 C   0  0  0  0  0  0  0  0  0  0  0  0
   38.0330   26.9360   43.1690 N   0  0  0  0  0  0  0  0  0  0  0  0
   39.9890   26.2530   42.6740 H   0  0  0  0  0  0  0  0  0  0  0  0
   40.8890   28.4920   42.4210 H   0  0  0  0  0  0  0  0  0  0  0  0
   36.1780   27.9490   43.6350 H   0  0  0  0  0  0  0  0  0  0  0  0
   36.6390   30.9520   38.5840 O   0  0  0  0  0  0  0  0  0  0  0  0
   36.1620   29.6800   38.3060 C   0  0  0  0  0  0  0  0  0  0  0  0
   35.3730   29.2750   37.2440 C   0  0  0  0  0  0  0  0  0  0  0  0
   34.9870   27.9770   37.1180 C   0  0  0  0  0  0  0  0  0  0  0  0
   35.3660   27.0240   38.0380 C   0  0  0  0  0  0  0  0  0  0  0  0
   36.1630   27.4710   39.0980 C   0  0  0  0  0  0  0  0  0  0  0  0
   36.5430   28.7750   39.2140 N   0  0  0  0  0  0  0  0  0  0  0  0
   35.1120   30.0740   36.5600 H   0  0  0  0  0  0  0  0  0  0  0  0
   34.3710   27.7300   36.2640 H   0  0  0  0  0  0  0  0  0  0  0  0
   35.0680   26.0070   37.9460 H   0  0  0  0  0  0  0  0  0  0  0  0
   36.5740   26.4470   40.0930 C   0  0  0  0  0  2  0  0  0  0  0  0
   37.1880   25.2810   39.5400 N   0  0  0  0  0  4  0  0  0  0  0  0
   36.8870   25.0680   38.5620 H   0  0  0  0  0  0  0  0  0  0  0  0
   38.6180   25.5380   39.4410 C   0  0  0  0  0  2  0  0  0  0  0  0
   38.9030   26.3950   40.1080 H   0  0  0  0  0  0  0  0  0  0  0  0
   37.0470   24.1300   40.4150 C   0  0  0  0  0  2  0  0  0  0  0  0
   37.8110   24.2400   41.2330 H   0  0  0  0  0  0  0  0  0  0  0  0
  2  1  2  6  0  0  0
  2  5  1  0  0  0  0
  2  3  1  0  0  0  0
  4  3  1  0  0  0  0
  5  8  1  0  0  0  0
  6 15  1  0  0  0  0
  6  9  1  1  0  0  0
  7 11  1  0  0  0  0
  7  6  1  0  0  0  0
  8 12  1  1  0  0  0
  8  7  1  0  0  0  0
  8  6  1  0  0  0  0
 10  7  1  0  0  0  0
 13 18  1  0  0  0  0
 14 13  2  0  0  0  0
 14 15  1  0  0  0  0
 15 16  2  0  0  0  0
 16 17  1  0  0  0  0
 17 21  1  0  0  0  0
 18 17  2  0  0  0  0
 19 13  1  0  0  0  0
 20 14  1  0  0  0  0
 22  2  1  0  0  0  0
 23 22  1  0  0  0  0
 23 28  1  0  0  0  0
 24 23  2  0  0  0  0
 25 24  1  0  0  0  0
 25 26  2  0  0  0  0
 26 27  1  0  0  0  0
 27 28  2  0  0  0  0
 27 32  1  0  0  0  0
 29 24  1  0  0  0  0
 30 25  1  0  0  0  0
 31 26  1  0  0  0  0
 33 32  1  0  0  0  0
 33 37  1  0  0  0  0
 34 33  1  0  0  0  0
 35 33  1  0  0  0  0
 35 36  1  0  0  0  0
 37 38  1  0  0  0  0
M  END
>  <minimizedAffinity>
-4.97394514

$$$$

 OpenBabel03252501093D

 38 40  0  0  1  0  0  0  0  0999 V2000
   35.1140   29.2200   40.6680 O   0  0  0  0  0  0  0  0  0  0  0  0
   36.5580   28.8180   40.9620 P   0  0  2  0  0  0  0  0  0  0  0  0
   36.8610   29.3620   42.5390 O   0  0  0  0  0  0  0  0  0  0  0  0
   37.7560   29.0130   42.7950 H   0  0  0  0  0  0  0  0  0  0  0  0
   37.6000   29.3740   39.8320 O   0  0  0  0  0  0  0  0  0  0  0  0
   37.3230   30.7210   37.8400 C   0  0  1  0  0  0  0  0  0  0  0  0
   38.2150   29.6330   37.4200 C   0  0  0  0  0  0  0  0  0  0  0  0
   37.1860   29.4540   38.5520 C   0  0  1  0  0  0  0  0  0  0  0  0
   36.5380   31.0590   37.1470 H   0  0  0  0  0  0  0  0  0  0  0  0
   39.2780   29.5520   37.7720 H   0  0  0  0  0  0  0  0  0  0  0  0
   38.0560   29.0670   36.4840 H   0  0  0  0  0  0  0  0  0  0  0  0
   36.3940   28.7390   38.2590 H   0  0  0  0  0  0  0  0  0  0  0  0
   37.8560   33.8150   39.9630 C   0  0  0  0  0  0  0  0  0  0  0  0
   37.2160   32.7820   39.2840 C   0  0  0  0  0  0  0  0  0  0  0  0
   37.9960   31.8350   38.5920 C   0  0  0  0  0  0  0  0  0  0  0  0
   39.3460   31.9590   38.6080 N   0  0  0  0  0  0  0  0  0  0  0  0
   39.9490   32.9730   39.2760 C   0  0  0  0  0  0  0  0  0  0  0  0
   39.2090   33.8980   39.9500 N   0  0  0  0  0  0  0  0  0  0  0  0
   37.2500   34.5380   40.4910 H   0  0  0  0  0  0  0  0  0  0  0  0
   36.1490   32.7310   39.3030 H   0  0  0  0  0  0  0  0  0  0  0  0
   41.0370   32.9900   39.2320 H   0  0  0  0  0  0  0  0  0  0  0  0
   36.5430   27.1400   41.0040 O   0  0  0  0  0  0  0  0  0  0  0  0
   37.5010   26.3740   41.6520 C   0  0  0  0  0  0  0  0  0  0  0  0
   37.5340   25.0010   41.8120 C   0  0  0  0  0  0  0  0  0  0  0  0
   38.5540   24.4010   42.4810 C   0  0  0  0  0  0  0  0  0  0  0  0
   39.5870   25.1360   43.0210 C   0  0  0  0  0  0  0  0  0  0  0  0
   39.5200   26.5220   42.8390 C   0  0  0  0  0  0  0  0  0  0  0  0
   38.4910   27.1120   42.1660 N   0  0  0  0  0  0  0  0  0  0  0  0
   36.6920   24.4850   41.3630 H   0  0  0  0  0  0  0  0  0  0  0  0
   38.5160   23.3230   42.5690 H   0  0  0  0  0  0  0  0  0  0  0  0
   40.3880   24.6740   43.5460 H   0  0  0  0  0  0  0  0  0  0  0  0
   40.6310   27.3190   43.4200 C   0  0  0  0  0  2  0  0  0  0  0  0
   41.3150   28.1650   42.4930 N   0  0  0  0  0  4  0  0  0  0  0  0
   40.7040   28.8870   42.0490 H   0  0  0  0  0  0  0  0  0  0  0  0
   42.3090   28.9260   43.2370 C   0  0  0  0  0  2  0  0  0  0  0  0
   42.5130   28.4310   44.2240 H   0  0  0  0  0  0  0  0  0  0  0  0
   42.0540   27.3970   41.5050 C   0  0  0  0  0  2  0  0  0  0  0  0
   43.0000   27.0430   42.0010 H   0  0  0  0  0  0  0  0  0  0  0  0
  2  1  2  6  0  0  0
  2 22  1  0  0  0  0
  2  3  1  0  0  0  0
  3  4  1  0  0  0  0
  5  2  1  0  0  0  0
  6  9  1  6  0  0  0
  6  8  1  0  0  0  0
  6 15  1  0  0  0  0
  7 10  1  0  0  0  0
  7  6  1  0  0  0  0
  7  8  1  0  0  0  0
  8 12  1  6  0  0  0
  8  5  1  0  0  0  0
 11  7  1  0  0  0  0
 13 19  1  0  0  0  0
 14 20  1  0  0  0  0
 14 13  2  0  0  0  0
 15 16  2  0  0  0  0
 15 14  1  0  0  0  0
 16 17  1  0  0  0  0
 17 18  2  0  0  0  0
 18 13  1  0  0  0  0
 21 17  1  0  0  0  0
 22 23  1  0  0  0  0
 23 24  2  0  0  0  0
 23 28  1  0  0  0  0
 24 25  1  0  0  0  0
 25 30  1  0  0  0  0
 25 26  2  0  0  0  0
 26 31  1  0  0  0  0
 27 26  1  0  0  0  0
 27 32  1  0  0  0  0
 28 27  2  0  0  0  0
 29 24  1  0  0  0  0
 33 35  1  0  0  0  0
 33 32  1  0  0  0  0
 34 33  1  0  0  0  0
 35 36  1  0  0  0  0
 37 38  1  0  0  0  0
 37 33  1  0  0  0  0
M  END
>  <minimizedAffinity>
-4.96490622

$$$$

 OpenBabel03252501093D

 38 40  0  0  1  0  0  0  0  0999 V2000
   34.4870   29.2910   39.8390 O   0  0  0  0  0  0  0  0  0  0  0  0
   35.8910   29.5730   40.3710 P   0  0  2  0  0  0  0  0  0  0  0  0
   35.7060   30.8630   41.4570 O   0  0  0  0  0  0  0  0  0  0  0  0
   36.5870   30.9910   41.9010 H   0  0  0  0  0  0  0  0  0  0  0  0
   36.9700   29.8360   39.1700 O   0  0  0  0  0  0  0  0  0  0  0  0
   37.2670   31.9330   38.0000 C   0  0  1  0  0  0  0  0  0  0  0  0
   37.6130   30.9100   37.0050 C   0  0  0  0  0  0  0  0  0  0  0  0
   36.6150   30.6350   38.1450 C   0  0  1  0  0  0  0  0  0  0  0  0
   36.6910   32.8130   37.6760 H   0  0  0  0  0  0  0  0  0  0  0  0
   38.5460   30.2900   37.0740 H   0  0  0  0  0  0  0  0  0  0  0  0
   37.2210   30.9350   35.9720 H   0  0  0  0  0  0  0  0  0  0  0  0
   35.5930   30.4820   37.7500 H   0  0  0  0  0  0  0  0  0  0  0  0
   40.6910   32.2960   39.5820 C   0  0  0  0  0  0  0  0  0  0  0  0
   39.7000   32.0150   38.6470 C   0  0  0  0  0  0  0  0  0  0  0  0
   38.3540   32.2450   38.9900 C   0  0  0  0  0  0  0  0  0  0  0  0
   38.0650   32.7340   40.2220 N   0  0  0  0  0  0  0  0  0  0  0  0
   39.0470   33.0010   41.1170 C   0  0  0  0  0  0  0  0  0  0  0  0
   40.3540   32.7830   40.8010 N   0  0  0  0  0  0  0  0  0  0  0  0
   41.7220   32.1160   39.3100 H   0  0  0  0  0  0  0  0  0  0  0  0
   39.9820   31.6310   37.6910 H   0  0  0  0  0  0  0  0  0  0  0  0
   38.7180   33.3910   42.0800 H   0  0  0  0  0  0  0  0  0  0  0  0
   36.2990   28.2150   41.2700 O   0  0  0  0  0  0  0  0  0  0  0  0
   36.9550   27.1110   40.7470 C   0  0  0  0  0  0  0  0  0  0  0  0
   36.4960   26.2090   39.8050 C   0  0  0  0  0  0  0  0  0  0  0  0
   37.2730   25.1710   39.3970 C   0  0  0  0  0  0  0  0  0  0  0  0
   38.5400   24.9810   39.9040 C   0  0  0  0  0  0  0  0  0  0  0  0
   38.9710   25.9130   40.8550 C   0  0  0  0  0  0  0  0  0  0  0  0
   38.1810   26.9500   41.2560 N   0  0  0  0  0  0  0  0  0  0  0  0
   35.4930   26.4170   39.4480 H   0  0  0  0  0  0  0  0  0  0  0  0
   36.8510   24.5030   38.6570 H   0  0  0  0  0  0  0  0  0  0  0  0
   39.1540   24.1710   39.5900 H   0  0  0  0  0  0  0  0  0  0  0  0
   40.3360   25.7130   41.4050 C   0  0  0  0  0  2  0  0  0  0  0  0
   40.4060   25.6290   42.8310 N   0  0  0  0  0  4  0  0  0  0  0  0
   39.8570   26.3680   43.3250 H   0  0  0  0  0  0  0  0  0  0  0  0
   39.7860   24.3740   43.2310 C   0  0  0  0  0  2  0  0  0  0  0  0
   39.7320   23.6740   42.3550 H   0  0  0  0  0  0  0  0  0  0  0  0
   41.7790   25.5670   43.3000 C   0  0  0  0  0  2  0  0  0  0  0  0
   42.1360   24.5120   43.1420 H   0  0  0  0  0  0  0  0  0  0  0  0
  2  1  2  6  0  0  0
  2 22  1  0  0  0  0
  2  3  1  0  0  0  0
  3  4  1  0  0  0  0
  5  2  1  0  0  0  0
  6  9  1  6  0  0  0
  6  8  1  0  0  0  0
  6 15  1  0  0  0  0
  7 10  1  0  0  0  0
  7  6  1  0  0  0  0
  7  8  1  0  0  0  0
  8 12  1  6  0  0  0
  8  5  1  0  0  0  0
 11  7  1  0  0  0  0
 13 18  1  0  0  0  0
 14 15  1  0  0  0  0
 14 13  2  0  0  0  0
 15 16  2  0  0  0  0
 16 17  1  0  0  0  0
 17 21  1  0  0  0  0
 18 17  2  0  0  0  0
 19 13  1  0  0  0  0
 20 14  1  0  0  0  0
 23 28  1  0  0  0  0
 23 22  1  0  0  0  0
 24 23  2  0  0  0  0
 25 24  1  0  0  0  0
 25 26  2  0  0  0  0
 26 27  1  0  0  0  0
 27 28  2  0  0  0  0
 27 32  1  0  0  0  0
 29 24  1  0  0  0  0
 30 25  1  0  0  0  0
 31 26  1  0  0  0  0
 32 33  1  0  0  0  0
 33 35  1  0  0  0  0
 33 37  1  0  0  0  0
 33 34  1  0  0  0  0
 36 35  1  0  0  0  0
 38 37  1  0  0  0  0
M  END
>  <minimizedAffinity>
-4.95272923

$$$$
