
 OpenBabel03252500243D

 35 36  0  0  1  0  0  0  0  0999 V2000
   47.8860   30.1380   48.3480 C   0  0  2  0  0  0  0  0  0  0  0  0
   46.4390   29.9170   48.1210 C   0  0  2  0  0  0  0  0  0  0  0  0
   46.3960   29.0350   46.9270 C   0  0  0  0  0  0  0  0  0  0  0  0
   47.5460   28.2720   46.9260 O   0  0  0  0  0  0  0  0  0  0  0  0
   48.3830   28.7410   47.8860 C   0  0  0  0  0  0  0  0  0  0  0  0
   48.5140   30.7710   47.7930 H   0  0  0  0  0  0  0  0  0  0  0  0
   46.0990   29.3410   49.0250 H   0  0  0  0  0  0  0  0  0  0  0  0
   45.5820   28.2670   47.1110 H   0  0  0  0  0  0  0  0  0  0  0  0
   46.0870   29.4650   45.9750 H   0  0  0  0  0  0  0  0  0  0  0  0
   48.2920   28.1320   48.8290 H   0  0  0  0  0  0  0  0  0  0  0  0
   49.4320   28.7430   47.6020 H   0  0  0  0  0  0  0  0  0  0  0  0
   45.7300   31.0830   47.9500 O   0  0  0  0  0  0  0  0  0  0  0  0
   47.6330   32.8030   47.7800 O   0  0  0  0  0  0  0  0  0  0  0  0
   46.5650   32.1280   46.9650 P   0  0  1  0  0  0  0  0  0  0  0  0
   47.3100   31.2530   45.7180 O   0  0  0  0  0  0  0  0  0  0  0  0
   46.9160   31.4620   44.8530 H   0  0  0  0  0  0  0  0  0  0  0  0
   45.5710   33.3730   46.3410 O   0  0  0  0  0  0  0  0  0  0  0  0
   45.1580   35.5730   43.5530 C   0  0  0  0  0  0  0  0  0  0  0  0
   46.2440   35.2510   42.6920 C   0  0  0  0  0  0  0  0  0  0  0  0
   47.1190   34.2420   43.1260 C   0  0  0  0  0  0  0  0  0  0  0  0
   46.8810   33.6480   44.3120 N   0  0  0  0  0  0  0  0  0  0  0  0
   45.8380   33.9800   45.1020 C   0  0  0  0  0  0  0  0  0  0  0  0
   44.9810   34.9440   44.7150 N   0  0  0  0  0  0  0  0  0  0  0  0
   46.4060   35.7470   41.7490 H   0  0  0  0  0  0  0  0  0  0  0  0
   47.9730   33.9360   42.5290 H   0  0  0  0  0  0  0  0  0  0  0  0
   44.3050   36.5590   43.1280 O   0  0  0  0  0  0  0  0  0  0  0  0
   44.6290   37.5030   43.0380 H   0  0  0  0  0  0  0  0  0  0  0  0
   48.2450   30.3810   49.6400 O   0  0  0  0  0  0  0  0  0  0  0  0
   49.4750   30.4750   50.0920 C   0  0  0  0  0  2  0  0  0  0  0  0
   50.3200   31.3600   49.2600 N   0  0  0  0  0  4  0  0  0  0  0  0
   49.8140   31.7290   48.4510 H   0  0  0  0  0  0  0  0  0  0  0  0
   50.7330   32.5190   50.0700 C   0  0  0  0  0  2  0  0  0  0  0  0
   49.9040   32.6450   50.8240 H   0  0  0  0  0  0  0  0  0  0  0  0
   51.5440   30.7200   48.8550 C   0  0  0  0  0  2  0  0  0  0  0  0
   51.4830   30.1360   47.9370 H   0  0  0  0  0  0  0  0  0  0  0  0
  1  6  1  6  0  0  0
  1 28  1  0  0  0  0
  2  1  1  0  0  0  0
  2  7  1  1  0  0  0
  3  8  1  0  0  0  0
  3  2  1  0  0  0  0
  4  3  1  0  0  0  0
  4  5  1  0  0  0  0
  5  1  1  0  0  0  0
  5 10  1  0  0  0  0
  9  3  1  0  0  0  0
 11  5  1  0  0  0  0
 12  2  1  0  0  0  0
 14 13  2  1  0  0  0
 14 12  1  0  0  0  0
 15 14  1  0  0  0  0
 16 15  1  0  0  0  0
 17 14  1  0  0  0  0
 18 23  1  0  0  0  0
 19 20  1  0  0  0  0
 19 18  2  0  0  0  0
 20 21  2  0  0  0  0
 21 22  1  0  0  0  0
 22 17  1  0  0  0  0
 23 22  2  0  0  0  0
 24 19  1  0  0  0  0
 25 20  1  0  0  0  0
 26 18  1  0  0  0  0
 27 26  1  0  0  0  0
 28 29  1  0  0  0  0
 30 32  1  0  0  0  0
 30 29  1  0  0  0  0
 31 30  1  0  0  0  0
 32 33  1  0  0  0  0
 34 30  1  0  0  0  0
 35 34  1  0  0  0  0
M  END
>  <minimizedAffinity>
-4.58398342

>  <minimizedRMSD>
1.19928336

$$$$
