
 OpenBabel03242523203D

 35 37  0  0  0  0  0  0  0  0999 V2000
   46.3280   33.5380   44.7000 C   0  0  0  0  0  0  0  0  0  0  0  0
   45.7530   33.9240   45.6890 O   0  0  0  0  0  0  0  0  0  0  0  0
   44.5240   31.7510   42.9530 Cl  0  0  0  0  0  0  0  0  0  0  0  0
   44.5590   33.5110   42.8090 C   0  0  0  0  0  0  0  0  0  0  0  0
   45.4440   34.1730   43.6880 C   0  0  0  0  0  0  0  0  0  0  0  0
   45.3980   35.5400   43.4740 C   0  0  0  0  0  0  0  0  0  0  0  0
   44.6750   36.2560   42.6030 C   0  0  0  0  0  0  0  0  0  0  0  0
   43.8450   35.5410   41.7920 C   0  0  0  0  0  0  0  0  0  0  0  0
   43.7710   34.1920   41.8760 C   0  0  0  0  0  0  0  0  0  0  0  0
   46.0110   36.2150   44.1120 H   0  0  0  0  0  0  0  0  0  0  0  0
   44.6830   37.3290   42.4820 H   0  0  0  0  0  0  0  0  0  0  0  0
   43.1990   35.9810   41.0370 H   0  0  0  0  0  0  0  0  0  0  0  0
   42.8480   33.3910   41.0140 C   0  0  0  0  0  2  0  0  0  0  0  0
   41.6980   34.1310   40.5960 N   0  0  0  0  0  4  0  0  0  0  0  0
   41.9550   35.1580   40.7250 H   0  0  0  0  0  0  0  0  0  0  0  0
   40.4860   33.8840   41.3050 C   0  0  0  0  0  2  0  0  0  0  0  0
   39.7510   33.3150   40.6620 H   0  0  0  0  0  0  0  0  0  0  0  0
   41.4640   33.9720   39.1760 C   0  0  0  0  0  2  0  0  0  0  0  0
   41.8720   34.8350   38.5870 H   0  0  0  0  0  0  0  0  0  0  0  0
   47.3900   32.8040   44.0040 C   0  0  0  0  0  0  0  0  0  0  0  0
   48.2490   33.3100   43.1060 C   0  0  0  0  0  0  0  0  0  0  0  0
   49.0900   32.3810   42.5290 C   0  0  0  0  0  0  0  0  0  0  0  0
   48.9810   31.0330   42.9210 N   0  0  0  0  0  0  0  0  0  0  0  0
   48.1130   30.6160   43.8140 C   0  0  0  0  0  0  0  0  0  0  0  0
   47.2540   31.5150   44.4100 N   0  0  0  0  0  0  0  0  0  0  0  0
   49.8370   32.6220   41.7840 H   0  0  0  0  0  0  0  0  0  0  0  0
   48.1490   29.5490   44.0160 H   0  0  0  0  0  0  0  0  0  0  0  0
   48.4370   34.6830   42.7950 C   0  0  0  0  0  0  0  0  0  0  0  0
   49.4710   35.2750   42.1430 C   0  0  0  0  0  0  0  0  0  0  0  0
   48.2550   35.1020   41.2750 C   0  0  0  0  0  0  0  0  0  0  0  0
   47.9600   35.3680   43.5210 H   0  0  0  0  0  0  0  0  0  0  0  0
   50.3390   34.6660   41.7870 H   0  0  0  0  0  0  0  0  0  0  0  0
   49.8080   36.3460   42.1820 H   0  0  0  0  0  0  0  0  0  0  0  0
   48.2030   34.2490   40.5860 H   0  0  0  0  0  0  0  0  0  0  0  0
   47.5800   35.9590   41.1440 H   0  0  0  0  0  0  0  0  0  0  0  0
  1  2  2  0  0  0  0
  4  3  1  0  0  0  0
  4  5  1  0  0  0  0
  5  1  1  0  0  0  0
  6  5  2  0  0  0  0
  6 10  1  0  0  0  0
  7  6  1  0  0  0  0
  8  9  1  0  0  0  0
  8  7  2  0  0  0  0
  9  4  2  0  0  0  0
 11  7  1  0  0  0  0
 12  8  1  0  0  0  0
 13  9  1  0  0  0  0
 14 15  1  0  0  0  0
 14 13  1  0  0  0  0
 14 16  1  0  0  0  0
 17 16  1  0  0  0  0
 18 14  1  0  0  0  0
 19 18  1  0  0  0  0
 20 25  1  0  0  0  0
 20  1  1  0  0  0  0
 21 20  2  0  0  0  0
 22 23  2  0  0  0  0
 22 21  1  0  0  0  0
 23 24  1  0  0  0  0
 24 27  1  0  0  0  0
 24 25  2  0  0  0  0
 26 22  1  0  0  0  0
 28 21  1  0  0  0  0
 28 31  1  0  0  0  0
 29 33  1  0  0  0  0
 29 28  1  0  0  0  0
 30 29  1  0  0  0  0
 30 28  1  0  0  0  0
 32 29  1  0  0  0  0
 34 30  1  0  0  0  0
 35 30  1  0  0  0  0
M  END
>  <minimizedAffinity>
-5.2036438

>  <minimizedRMSD>
0.585450828

$$$$
