
 OpenBabel03252501063D

 38 40  0  0  1  0  0  0  0  0999 V2000
   48.6340   32.4230   38.2970 O   0  0  0  0  0  0  0  0  0  0  0  0
   48.0900   33.8510   38.3420 P   0  0  2  0  0  0  0  0  0  0  0  0
   49.2840   34.8050   37.6080 O   0  0  0  0  0  0  0  0  0  0  0  0
   48.9050   35.7210   37.5240 H   0  0  0  0  0  0  0  0  0  0  0  0
   47.6780   34.3110   39.8570 O   0  0  0  0  0  0  0  0  0  0  0  0
   48.1880   35.4830   41.9120 C   0  0  1  0  0  0  0  0  0  0  0  0
   49.3520   34.6160   41.6910 C   0  0  0  0  0  0  0  0  0  0  0  0
   48.4970   35.1470   40.5250 C   0  0  1  0  0  0  0  0  0  0  0  0
   48.3520   36.5040   42.2880 H   0  0  0  0  0  0  0  0  0  0  0  0
   49.3050   33.4990   41.8010 H   0  0  0  0  0  0  0  0  0  0  0  0
   50.3890   34.9860   41.7800 H   0  0  0  0  0  0  0  0  0  0  0  0
   49.0730   35.8540   39.9000 H   0  0  0  0  0  0  0  0  0  0  0  0
   46.0380   32.9530   43.7390 C   0  0  0  0  0  0  0  0  0  0  0  0
   47.1580   33.5820   43.2030 C   0  0  0  0  0  0  0  0  0  0  0  0
   46.9920   34.7960   42.5110 C   0  0  0  0  0  0  0  0  0  0  0  0
   45.7450   35.3160   42.3860 N   0  0  0  0  0  0  0  0  0  0  0  0
   44.6680   34.6870   42.9160 C   0  0  0  0  0  0  0  0  0  0  0  0
   44.8120   33.5110   43.5890 N   0  0  0  0  0  0  0  0  0  0  0  0
   46.1740   32.0210   44.2700 H   0  0  0  0  0  0  0  0  0  0  0  0
   48.1170   33.1290   43.3300 H   0  0  0  0  0  0  0  0  0  0  0  0
   43.7090   35.1810   42.7660 H   0  0  0  0  0  0  0  0  0  0  0  0
   46.7560   33.8420   37.3240 O   0  0  0  0  0  0  0  0  0  0  0  0
   45.7370   32.9050   37.3930 C   0  0  0  0  0  0  0  0  0  0  0  0
   45.7380   31.6030   36.9280 C   0  0  0  0  0  0  0  0  0  0  0  0
   44.6450   30.8080   37.0760 C   0  0  0  0  0  0  0  0  0  0  0  0
   43.5030   31.2690   37.6930 C   0  0  0  0  0  0  0  0  0  0  0  0
   43.5380   32.5910   38.1510 C   0  0  0  0  0  0  0  0  0  0  0  0
   44.6400   33.3780   37.9950 N   0  0  0  0  0  0  0  0  0  0  0  0
   46.6670   31.3060   36.4540 H   0  0  0  0  0  0  0  0  0  0  0  0
   44.7150   29.8000   36.6890 H   0  0  0  0  0  0  0  0  0  0  0  0
   42.6430   30.6540   37.8130 H   0  0  0  0  0  0  0  0  0  0  0  0
   42.3080   33.0930   38.8170 C   0  0  0  0  0  2  0  0  0  0  0  0
   42.5230   33.7360   40.0740 N   0  0  0  0  0  4  0  0  0  0  0  0
   43.5300   33.8180   40.3400 H   0  0  0  0  0  0  0  0  0  0  0  0
   42.0590   35.1120   39.9520 C   0  0  0  0  0  2  0  0  0  0  0  0
   41.3690   35.2100   39.0710 H   0  0  0  0  0  0  0  0  0  0  0  0
   41.7280   33.1370   41.1310 C   0  0  0  0  0  2  0  0  0  0  0  0
   40.6790   33.5280   41.0210 H   0  0  0  0  0  0  0  0  0  0  0  0
  2  1  2  1  0  0  0
  2  5  1  0  0  0  0
  3  2  1  0  0  0  0
  4  3  1  0  0  0  0
  5  8  1  0  0  0  0
  6  9  1  1  0  0  0
  6 15  1  0  0  0  0
  7 11  1  0  0  0  0
  7 10  1  0  0  0  0
  7  6  1  0  0  0  0
  8 12  1  6  0  0  0
  8  7  1  0  0  0  0
  8  6  1  0  0  0  0
 13 19  1  0  0  0  0
 14 20  1  0  0  0  0
 14 13  2  0  0  0  0
 15 14  1  0  0  0  0
 16 15  2  0  0  0  0
 16 17  1  0  0  0  0
 17 18  2  0  0  0  0
 18 13  1  0  0  0  0
 21 17  1  0  0  0  0
 22 23  1  0  0  0  0
 22  2  1  0  0  0  0
 23 28  1  0  0  0  0
 24 25  1  0  0  0  0
 24 23  2  0  0  0  0
 25 26  2  0  0  0  0
 26 31  1  0  0  0  0
 26 27  1  0  0  0  0
 27 32  1  0  0  0  0
 28 27  2  0  0  0  0
 29 24  1  0  0  0  0
 30 25  1  0  0  0  0
 32 33  1  0  0  0  0
 33 34  1  0  0  0  0
 33 37  1  0  0  0  0
 35 33  1  0  0  0  0
 36 35  1  0  0  0  0
 38 37  1  0  0  0  0
M  END
>  <minimizedAffinity>
-4.56205654

>  <minimizedRMSD>
1.10154474

$$$$
