
 OpenBabel03242523203D

 35 37  0  0  0  0  0  0  0  0999 V2000
   46.4560   33.4760   44.6160 C   0  0  0  0  0  0  0  0  0  0  0  0
   45.9130   33.8210   45.6370 O   0  0  0  0  0  0  0  0  0  0  0  0
   44.5160   31.7450   42.9600 Cl  0  0  0  0  0  0  0  0  0  0  0  0
   44.5850   33.5040   42.8260 C   0  0  0  0  0  0  0  0  0  0  0  0
   45.5330   34.1380   43.6580 C   0  0  0  0  0  0  0  0  0  0  0  0
   45.5070   35.5080   43.4560 C   0  0  0  0  0  0  0  0  0  0  0  0
   44.7540   36.2470   42.6310 C   0  0  0  0  0  0  0  0  0  0  0  0
   43.8640   35.5580   41.8630 C   0  0  0  0  0  0  0  0  0  0  0  0
   43.7620   34.2110   41.9420 C   0  0  0  0  0  0  0  0  0  0  0  0
   46.1700   36.1640   44.0630 H   0  0  0  0  0  0  0  0  0  0  0  0
   44.7810   37.3200   42.5160 H   0  0  0  0  0  0  0  0  0  0  0  0
   43.1870   36.0180   41.1480 H   0  0  0  0  0  0  0  0  0  0  0  0
   42.7740   33.4380   41.1280 C   0  0  0  0  0  2  0  0  0  0  0  0
   41.6370   34.2180   40.7500 N   0  0  0  0  0  4  0  0  0  0  0  0
   41.9070   35.2320   40.9490 H   0  0  0  0  0  0  0  0  0  0  0  0
   40.4150   33.9430   41.4300 C   0  0  0  0  0  2  0  0  0  0  0  0
   39.6790   33.4260   40.7460 H   0  0  0  0  0  0  0  0  0  0  0  0
   41.4140   34.1570   39.3200 C   0  0  0  0  0  2  0  0  0  0  0  0
   41.8400   35.0510   38.7930 H   0  0  0  0  0  0  0  0  0  0  0  0
   47.4990   32.7760   43.8570 C   0  0  0  0  0  0  0  0  0  0  0  0
   48.3560   33.3310   42.9860 C   0  0  0  0  0  0  0  0  0  0  0  0
   49.1760   32.4330   42.3350 C   0  0  0  0  0  0  0  0  0  0  0  0
   49.0500   31.0630   42.6340 N   0  0  0  0  0  0  0  0  0  0  0  0
   48.1860   30.5970   43.5060 C   0  0  0  0  0  0  0  0  0  0  0  0
   47.3480   31.4650   44.1740 N   0  0  0  0  0  0  0  0  0  0  0  0
   49.9180   32.7150   41.6000 H   0  0  0  0  0  0  0  0  0  0  0  0
   48.2080   29.5180   43.6330 H   0  0  0  0  0  0  0  0  0  0  0  0
   48.5610   34.7200   42.7700 C   0  0  0  0  0  0  0  0  0  0  0  0
   49.6160   35.3440   42.1840 C   0  0  0  0  0  0  0  0  0  0  0  0
   48.4220   35.2370   41.2760 C   0  0  0  0  0  0  0  0  0  0  0  0
   48.0700   35.3610   43.5250 H   0  0  0  0  0  0  0  0  0  0  0  0
   50.4890   34.7520   41.8130 H   0  0  0  0  0  0  0  0  0  0  0  0
   49.9590   36.4070   42.3010 H   0  0  0  0  0  0  0  0  0  0  0  0
   48.3830   34.4310   40.5310 H   0  0  0  0  0  0  0  0  0  0  0  0
   47.7570   36.1060   41.1820 H   0  0  0  0  0  0  0  0  0  0  0  0
  1  2  2  0  0  0  0
  4  3  1  0  0  0  0
  4  5  1  0  0  0  0
  5  1  1  0  0  0  0
  6  5  2  0  0  0  0
  6 10  1  0  0  0  0
  7  6  1  0  0  0  0
  8  9  1  0  0  0  0
  8  7  2  0  0  0  0
  9  4  2  0  0  0  0
 11  7  1  0  0  0  0
 12  8  1  0  0  0  0
 13  9  1  0  0  0  0
 14 15  1  0  0  0  0
 14 13  1  0  0  0  0
 14 16  1  0  0  0  0
 17 16  1  0  0  0  0
 18 14  1  0  0  0  0
 19 18  1  0  0  0  0
 20 25  1  0  0  0  0
 20  1  1  0  0  0  0
 21 20  2  0  0  0  0
 22 23  2  0  0  0  0
 22 21  1  0  0  0  0
 23 24  1  0  0  0  0
 24 27  1  0  0  0  0
 24 25  2  0  0  0  0
 26 22  1  0  0  0  0
 28 21  1  0  0  0  0
 28 31  1  0  0  0  0
 29 33  1  0  0  0  0
 29 28  1  0  0  0  0
 30 29  1  0  0  0  0
 30 28  1  0  0  0  0
 32 29  1  0  0  0  0
 34 30  1  0  0  0  0
 35 30  1  0  0  0  0
M  END
>  <minimizedAffinity>
-5.21494484

>  <minimizedRMSD>
1.1779598

$$$$
