
 OpenBabel03242518123D

 29 30  0  0  0  0  0  0  0  0999 V2000
   49.0630   34.5500   42.4500 C   0  0  0  0  0  0  0  0  0  0  0  0
   49.9100   35.2190   42.7150 H   0  0  0  0  0  0  0  0  0  0  0  0
   48.6170   34.2240   43.4180 H   0  0  0  0  0  0  0  0  0  0  0  0
   49.5630   33.4530   41.6850 C   0  0  0  0  0  0  0  0  0  0  0  0
   49.1590   32.7030   40.5300 C   0  0  0  0  0  0  0  0  0  0  0  0
   49.9560   31.6870   40.0890 C   0  0  0  0  0  0  0  0  0  0  0  0
   51.1810   31.4170   40.8220 C   0  0  0  0  0  0  0  0  0  0  0  0
   51.1930   32.6350   42.1600 S   0  0  0  0  0  0  0  0  0  0  0  0
   48.2300   33.0210   40.1010 H   0  0  0  0  0  0  0  0  0  0  0  0
   49.6890   31.1020   39.2270 H   0  0  0  0  0  0  0  0  0  0  0  0
   52.1260   30.4210   40.5260 C   0  0  0  0  0  2  0  0  0  0  0  0
   52.0010   29.2850   41.3760 N   0  0  0  0  0  4  0  0  0  0  0  0
   52.3180   28.4250   40.8710 H   0  0  0  0  0  0  0  0  0  0  0  0
   50.6800   29.0850   41.9250 C   0  0  0  0  0  2  0  0  0  0  0  0
   50.0600   28.5150   41.2060 H   0  0  0  0  0  0  0  0  0  0  0  0
   52.9270   29.4070   42.5050 C   0  0  0  0  0  2  0  0  0  0  0  0
   53.9610   29.5460   42.0860 H   0  0  0  0  0  0  0  0  0  0  0  0
   48.0350   35.4130   41.7560 C   0  0  0  0  0  0  0  0  0  0  0  0
   48.0970   36.4600   42.1490 H   0  0  0  0  0  0  0  0  0  0  0  0
   48.2650   35.4430   40.6960 H   0  0  0  0  0  0  0  0  0  0  0  0
   46.7110   34.8720   42.0250 C   0  0  0  0  0  0  0  0  0  0  0  0
   46.1890   34.7850   43.3030 C   0  0  0  0  0  0  0  0  0  0  0  0
   44.9130   34.2530   43.4740 C   0  0  0  0  0  0  0  0  0  0  0  0
   44.2480   33.8460   42.3700 N   0  0  0  0  0  0  0  0  0  0  0  0
   44.7590   33.9330   41.1410 C   0  0  0  0  0  0  0  0  0  0  0  0
   45.9650   34.4380   41.0000 N   0  0  0  0  0  0  0  0  0  0  0  0
   46.7660   35.1280   44.1590 H   0  0  0  0  0  0  0  0  0  0  0  0
   44.4790   34.1750   44.4790 H   0  0  0  0  0  0  0  0  0  0  0  0
   44.1960   33.5960   40.2810 H   0  0  0  0  0  0  0  0  0  0  0  0
  1  2  1  0  0  0  0
  1  3  1  0  0  0  0
  4  8  1  0  0  0  0
  4  1  1  0  0  0  0
  5  4  2  0  0  0  0
  6  5  1  0  0  0  0
  6  7  2  0  0  0  0
  7  8  1  0  0  0  0
  9  5  1  0  0  0  0
 10  6  1  0  0  0  0
 11  7  1  0  0  0  0
 11 12  1  0  0  0  0
 12 14  1  0  0  0  0
 12 16  1  0  0  0  0
 13 12  1  0  0  0  0
 15 14  1  0  0  0  0
 17 16  1  0  0  0  0
 18 21  1  0  0  0  0
 18 19  1  0  0  0  0
 18  1  1  0  0  0  0
 20 18  1  0  0  0  0
 21 22  1  0  0  0  0
 22 23  2  0  0  0  0
 22 27  1  0  0  0  0
 23 28  1  0  0  0  0
 24 23  1  0  0  0  0
 25 24  2  0  0  0  0
 26 25  1  0  0  0  0
 26 21  2  0  0  0  0
 29 25  1  0  0  0  0
M  END
>  <minimizedAffinity>
-3.25535989

>  <minimizedRMSD>
0.841474235

$$$$
