
 OpenBabel03252501063D

 38 40  0  0  1  0  0  0  0  0999 V2000
   48.5750   32.2890   38.0280 O   0  0  0  0  0  0  0  0  0  0  0  0
   48.1060   33.7290   38.2280 P   0  0  2  0  0  0  0  0  0  0  0  0
   49.3260   34.6940   37.5550 O   0  0  0  0  0  0  0  0  0  0  0  0
   48.9920   35.6300   37.5720 H   0  0  0  0  0  0  0  0  0  0  0  0
   47.7570   34.0560   39.7920 O   0  0  0  0  0  0  0  0  0  0  0  0
   48.0400   35.4350   41.7620 C   0  0  1  0  0  0  0  0  0  0  0  0
   49.2940   34.6770   41.6660 C   0  0  0  0  0  0  0  0  0  0  0  0
   48.4530   35.0230   40.4230 C   0  0  1  0  0  0  0  0  0  0  0  0
   48.0830   36.4950   42.0560 H   0  0  0  0  0  0  0  0  0  0  0  0
   49.3520   33.5750   41.8680 H   0  0  0  0  0  0  0  0  0  0  0  0
   50.2840   35.1590   41.7680 H   0  0  0  0  0  0  0  0  0  0  0  0
   48.9880   35.7340   39.7660 H   0  0  0  0  0  0  0  0  0  0  0  0
   46.0610   32.9380   43.8130 C   0  0  0  0  0  0  0  0  0  0  0  0
   47.1380   33.6370   43.2770 C   0  0  0  0  0  0  0  0  0  0  0  0
   46.8890   34.6790   42.3640 C   0  0  0  0  0  0  0  0  0  0  0  0
   45.6060   34.9690   42.0340 N   0  0  0  0  0  0  0  0  0  0  0  0
   44.5710   34.2760   42.5690 C   0  0  0  0  0  0  0  0  0  0  0  0
   44.7960   33.2650   43.4540 N   0  0  0  0  0  0  0  0  0  0  0  0
   46.2610   32.1400   44.5140 H   0  0  0  0  0  0  0  0  0  0  0  0
   48.1300   33.3660   43.5700 H   0  0  0  0  0  0  0  0  0  0  0  0
   43.5770   34.5820   42.2450 H   0  0  0  0  0  0  0  0  0  0  0  0
   46.7470   33.8850   37.2560 O   0  0  0  0  0  0  0  0  0  0  0  0
   45.6540   33.0340   37.3120 C   0  0  0  0  0  0  0  0  0  0  0  0
   45.3500   31.9740   36.4780 C   0  0  0  0  0  0  0  0  0  0  0  0
   44.2270   31.2330   36.6720 C   0  0  0  0  0  0  0  0  0  0  0  0
   43.3560   31.5090   37.7030 C   0  0  0  0  0  0  0  0  0  0  0  0
   43.6950   32.5890   38.5270 C   0  0  0  0  0  0  0  0  0  0  0  0
   44.8250   33.3240   38.3210 N   0  0  0  0  0  0  0  0  0  0  0  0
   46.0770   31.8130   35.6890 H   0  0  0  0  0  0  0  0  0  0  0  0
   44.0510   30.4180   35.9810 H   0  0  0  0  0  0  0  0  0  0  0  0
   42.4750   30.9340   37.8610 H   0  0  0  0  0  0  0  0  0  0  0  0
   42.7580   32.8910   39.6400 C   0  0  0  0  0  2  0  0  0  0  0  0
   41.4870   33.4040   39.2350 N   0  0  0  0  0  4  0  0  0  0  0  0
   40.9530   32.7610   38.6070 H   0  0  0  0  0  0  0  0  0  0  0  0
   40.6610   33.5290   40.4270 C   0  0  0  0  0  2  0  0  0  0  0  0
   41.3060   33.5270   41.3460 H   0  0  0  0  0  0  0  0  0  0  0  0
   41.5970   34.7410   38.6800 C   0  0  0  0  0  2  0  0  0  0  0  0
   41.6970   35.4530   39.5460 H   0  0  0  0  0  0  0  0  0  0  0  0
  2  1  2  6  0  0  0
  2  5  1  0  0  0  0
  3  4  1  0  0  0  0
  3  2  1  0  0  0  0
  5  8  1  0  0  0  0
  6  9  1  1  0  0  0
  6 15  1  0  0  0  0
  7  6  1  0  0  0  0
  7 11  1  0  0  0  0
  7 10  1  0  0  0  0
  8 12  1  6  0  0  0
  8  7  1  0  0  0  0
  8  6  1  0  0  0  0
 13 19  1  0  0  0  0
 14 20  1  0  0  0  0
 14 13  2  0  0  0  0
 15 14  1  0  0  0  0
 16 15  2  0  0  0  0
 16 17  1  0  0  0  0
 17 18  2  0  0  0  0
 18 13  1  0  0  0  0
 21 17  1  0  0  0  0
 22 23  1  0  0  0  0
 22  2  1  0  0  0  0
 23 28  1  0  0  0  0
 24 25  1  0  0  0  0
 24 23  2  0  0  0  0
 25 26  2  0  0  0  0
 26 31  1  0  0  0  0
 26 27  1  0  0  0  0
 27 32  1  0  0  0  0
 28 27  2  0  0  0  0
 29 24  1  0  0  0  0
 30 25  1  0  0  0  0
 33 32  1  0  0  0  0
 33 35  1  0  0  0  0
 34 33  1  0  0  0  0
 35 36  1  0  0  0  0
 37 33  1  0  0  0  0
 37 38  1  0  0  0  0
M  END
>  <minimizedAffinity>
-4.53086376

>  <minimizedRMSD>
0.573355079

$$$$
