
 OpenBabel03252506173D

 21 21  0  0  0  0  0  0  0  0999 V2000
   44.8290   35.7530   43.8730 C   0  0  0  0  0  0  0  0  0  0  0  0
   44.2470   35.4540   42.6240 C   0  0  0  0  0  0  0  0  0  0  0  0
   44.2480   34.1190   42.2150 C   0  0  0  0  0  0  0  0  0  0  0  0
   44.7980   33.1870   43.0280 N   0  0  0  0  0  0  0  0  0  0  0  0
   45.3490   33.5050   44.2190 C   0  0  0  0  0  0  0  0  0  0  0  0
   45.3540   34.7760   44.6190 N   0  0  0  0  0  0  0  0  0  0  0  0
   43.8440   36.2640   42.0690 H   0  0  0  0  0  0  0  0  0  0  0  0
   43.8030   33.8830   41.2570 H   0  0  0  0  0  0  0  0  0  0  0  0
   44.8390   37.1450   44.3200 C   0  0  0  0  0  3  0  0  0  0  0  0
   45.3810   38.0610   43.5380 C   0  0  0  0  0  3  0  0  0  0  0  0
   45.4340   39.4930   43.9140 C   0  0  0  0  0  0  0  0  0  0  0  0
   46.3050   39.7110   44.5530 H   0  0  0  0  0  0  0  0  0  0  0  0
   44.4950   39.7980   44.4270 H   0  0  0  0  0  0  0  0  0  0  0  0
   45.5230   40.1180   42.9990 H   0  0  0  0  0  0  0  0  0  0  0  0
   45.8950   32.3620   44.9590 C   0  0  0  0  0  2  0  0  0  0  0  0
   46.1050   31.1780   44.1480 N   0  0  0  0  0  4  0  0  0  0  0  0
   45.7050   31.3100   43.1830 H   0  0  0  0  0  0  0  0  0  0  0  0
   47.5430   30.9910   44.0830 C   0  0  0  0  0  2  0  0  0  0  0  0
   47.9260   31.1580   45.1260 H   0  0  0  0  0  0  0  0  0  0  0  0
   45.5190   30.0030   44.7150 C   0  0  0  0  0  2  0  0  0  0  0  0
   45.3660   30.0740   45.8040 H   0  0  0  0  0  0  0  0  0  0  0  0
  1  9  1  0  0  0  0
  1  6  1  0  0  0  0
  2  1  2  0  0  0  0
  3  2  1  0  0  0  0
  3  4  2  0  0  0  0
  4  5  1  0  0  0  0
  5  6  2  0  0  0  0
  5 15  1  0  0  0  0
  7  2  1  0  0  0  0
  8  3  1  0  0  0  0
 10 11  1  0  0  0  0
 10  9  2  0  0  0  0
 11 13  1  0  0  0  0
 11 12  1  0  0  0  0
 14 11  1  0  0  0  0
 16 20  1  0  0  0  0
 16 15  1  0  0  0  0
 17 16  1  0  0  0  0
 18 16  1  0  0  0  0
 18 19  1  0  0  0  0
 20 21  1  0  0  0  0
M  END
>  <minimizedAffinity>
-2.65828228

>  <minimizedRMSD>
0.948355854

$$$$
