
 OpenBabel03242520413D

 37 39  0  0  1  0  0  0  0  0999 V2000
   45.8930   33.5060   45.8130 C   0  0  0  0  0  0  0  0  0  0  0  0
   46.6770   33.6380   44.6470 C   0  0  0  0  0  0  0  0  0  0  0  0
   47.3210   32.4700   44.1400 C   0  0  0  0  0  0  0  0  0  0  0  0
   47.1500   31.2850   44.8020 N   0  0  0  0  0  0  0  0  0  0  0  0
   46.3880   31.2210   45.9160 C   0  0  0  0  0  0  0  0  0  0  0  0
   45.7690   32.3210   46.4090 N   0  0  0  0  0  0  0  0  0  0  0  0
   46.2750   29.9640   46.5230 N   0  0  0  0  0  0  0  0  0  0  0  0
   47.4290   29.2730   46.9950 C   0  0  2  0  0  0  0  0  0  0  0  0
   47.1930   27.8550   47.3770 C   0  0  0  0  0  0  0  0  0  0  0  0
   45.9060   27.5150   47.8560 N   0  0  0  0  0  0  0  0  0  0  0  0
   45.0130   28.6180   47.9840 C   0  0  0  0  0  0  0  0  0  0  0  0
   44.9640   29.3570   46.6740 C   0  0  0  0  0  0  0  0  0  0  0  0
   45.4450   34.4240   46.1290 H   0  0  0  0  0  0  0  0  0  0  0  0
   46.8770   34.5000   44.0570 H   0  0  0  0  0  0  0  0  0  0  0  0
   47.9360   32.4900   43.2540 H   0  0  0  0  0  0  0  0  0  0  0  0
   48.1240   29.2090   46.1030 H   0  0  0  0  0  0  0  0  0  0  0  0
   47.9210   27.6160   48.2050 H   0  0  0  0  0  0  0  0  0  0  0  0
   47.4540   27.1400   46.5710 H   0  0  0  0  0  0  0  0  0  0  0  0
   45.4350   26.7720   47.2780 H   0  0  0  0  0  0  0  0  0  0  0  0
   43.9840   28.1650   48.0940 H   0  0  0  0  0  0  0  0  0  0  0  0
   45.1360   29.2430   48.8710 H   0  0  0  0  0  0  0  0  0  0  0  0
   44.1600   30.1470   46.6810 H   0  0  0  0  0  0  0  0  0  0  0  0
   44.7520   28.6230   45.8840 H   0  0  0  0  0  0  0  0  0  0  0  0
   48.1430   30.0440   48.0440 C   0  0  0  0  0  0  0  0  0  0  0  0
   47.7080   30.9260   49.0160 C   0  0  0  0  0  0  0  0  0  0  0  0
   48.7330   31.3760   49.7590 N   0  0  0  0  0  0  0  0  0  0  0  0
   49.8240   30.7800   49.2600 C   0  0  0  0  0  0  0  0  0  0  0  0
   49.4720   29.9910   48.2430 N   0  0  0  0  0  0  0  0  0  0  0  0
   46.6740   31.2030   49.1410 H   0  0  0  0  0  0  0  0  0  0  0  0
   48.6440   32.0550   50.5540 H   0  0  0  0  0  0  0  0  0  0  0  0
   51.1640   31.0560   49.8570 C   0  0  0  0  0  2  0  0  0  0  0  0
   51.1000   31.0990   51.3010 N   0  0  0  0  0  4  0  0  0  0  0  0
   50.2040   31.5390   51.6290 H   0  0  0  0  0  0  0  0  0  0  0  0
   51.1790   29.7630   51.8780 C   0  0  0  0  0  2  0  0  0  0  0  0
   50.8500   28.9720   51.1670 H   0  0  0  0  0  0  0  0  0  0  0  0
   52.1980   31.8720   51.8360 C   0  0  0  0  0  2  0  0  0  0  0  0
   51.8760   32.9110   52.1140 H   0  0  0  0  0  0  0  0  0  0  0  0
  1 13  1  0  0  0  0
  1  6  1  0  0  0  0
  2  1  2  0  0  0  0
  3  2  1  0  0  0  0
  3  4  2  0  0  0  0
  4  5  1  0  0  0  0
  5  6  2  0  0  0  0
  5  7  1  0  0  0  0
  7 12  1  0  0  0  0
  7  8  1  0  0  0  0
  8 16  1  6  0  0  0
  8  9  1  0  0  0  0
  8 24  1  0  0  0  0
  9 10  1  0  0  0  0
  9 17  1  0  0  0  0
 10 11  1  0  0  0  0
 11 20  1  0  0  0  0
 11 21  1  0  0  0  0
 12 22  1  0  0  0  0
 12 11  1  0  0  0  0
 14  2  1  0  0  0  0
 15  3  1  0  0  0  0
 18  9  1  0  0  0  0
 19 10  1  0  0  0  0
 23 12  1  0  0  0  0
 24 28  1  0  0  0  0
 24 25  2  0  0  0  0
 25 29  1  0  0  0  0
 25 26  1  0  0  0  0
 26 30  1  0  0  0  0
 27 26  1  0  0  0  0
 27 31  1  0  0  0  0
 28 27  2  0  0  0  0
 31 32  1  0  0  0  0
 32 33  1  0  0  0  0
 32 36  1  0  0  0  0
 32 34  1  0  0  0  0
 35 34  1  0  0  0  0
 36 37  1  0  0  0  0
M  END
>  <minimizedAffinity>
-4.62444448

>  <minimizedRMSD>
0.272187769

$$$$
