
 OpenBabel03242520563D

 39 40  0  0  0  0  0  0  0  0999 V2000
   48.5210   31.3590   48.5900 C   0  0  0  0  0  3  0  0  0  0  0  0
   47.4900   32.1760   48.6900 C   0  0  0  0  0  3  0  0  0  0  0  0
   51.1910   32.2170   50.9330 C   0  0  0  0  0  0  0  0  0  0  0  0
   51.3410   31.0060   51.6650 C   0  0  0  0  0  0  0  0  0  0  0  0
   50.5470   29.9300   51.3380 C   0  0  0  0  0  0  0  0  0  0  0  0
   49.6770   30.1030   50.3450 N   0  0  0  0  0  0  0  0  0  0  0  0
   49.5260   31.2400   49.6500 C   0  0  0  0  0  0  0  0  0  0  0  0
   50.2840   32.3090   49.9390 N   0  0  0  0  0  0  0  0  0  0  0  0
   51.7580   33.1260   51.0960 H   0  0  0  0  0  0  0  0  0  0  0  0
   50.6440   28.7540   51.9880 O   0  0  0  0  0  0  0  0  0  0  0  0
   51.2930   27.6680   51.3090 C   0  0  0  0  0  0  0  0  0  0  0  0
   52.1850   28.1850   50.3530 F   0  0  0  0  0  0  0  0  0  0  0  0
   52.0550   27.0080   52.2690 F   0  0  0  0  0  0  0  0  0  0  0  0
   50.4140   26.7540   50.7430 F   0  0  0  0  0  0  0  0  0  0  0  0
   52.3240   31.1690   52.7540 C   0  0  0  0  0  2  0  0  0  0  0  0
   53.4170   30.1800   52.5970 N   0  0  0  0  0  4  0  0  0  0  0  0
   53.0070   29.2220   52.3760 H   0  0  0  0  0  0  0  0  0  0  0  0
   54.2720   30.5080   51.4730 C   0  0  0  0  0  2  0  0  0  0  0  0
   55.3490   30.3210   51.7360 H   0  0  0  0  0  0  0  0  0  0  0  0
   54.2180   30.1050   53.7980 C   0  0  0  0  0  2  0  0  0  0  0  0
   55.3070   30.2280   53.5410 H   0  0  0  0  0  0  0  0  0  0  0  0
   46.4980   32.2610   47.5870 C   0  0  0  0  0  0  0  0  0  0  0  0
   46.3680   31.2260   47.2490 H   0  0  0  0  0  0  0  0  0  0  0  0
   45.5000   32.5750   48.0230 H   0  0  0  0  0  0  0  0  0  0  0  0
   46.6230   32.7740   45.3050 C   0  0  0  0  0  0  0  0  0  0  0  0
   46.1460   31.7300   44.8150 O   0  0  0  0  0  0  0  0  0  0  0  0
   46.8490   33.2070   46.6080 N   0  0  0  0  0  0  0  0  0  0  0  0
   47.2420   34.1450   46.7560 H   0  0  0  0  0  0  0  0  0  0  0  0
   44.8760   35.1040   44.3910 Cl  0  0  0  0  0  0  0  0  0  0  0  0
   46.2780   34.5850   43.4970 C   0  0  0  0  0  0  0  0  0  0  0  0
   46.9220   33.5250   44.0790 C   0  0  0  0  0  0  0  0  0  0  0  0
   48.0710   32.9810   43.4920 C   0  0  0  0  0  0  0  0  0  0  0  0
   48.5660   33.5230   42.3070 C   0  0  0  0  0  0  0  0  0  0  0  0
   47.8930   34.5990   41.7390 C   0  0  0  0  0  0  0  0  0  0  0  0
   48.4750   35.3180   40.2540 Cl  0  0  0  0  0  0  0  0  0  0  0  0
   46.7700   35.1130   42.3310 C   0  0  0  0  0  0  0  0  0  0  0  0
   48.6560   32.1720   43.8330 H   0  0  0  0  0  0  0  0  0  0  0  0
   49.4450   33.1620   41.7910 H   0  0  0  0  0  0  0  0  0  0  0  0
   46.2040   35.9490   41.9360 H   0  0  0  0  0  0  0  0  0  0  0  0
  1  2  2  0  0  0  0
  1  7  1  0  0  0  0
  3  9  1  0  0  0  0
  3  4  1  0  0  0  0
  4 15  1  0  0  0  0
  5  4  2  0  0  0  0
  5 10  1  0  0  0  0
  6  5  1  0  0  0  0
  7  8  1  0  0  0  0
  7  6  2  0  0  0  0
  8  3  2  0  0  0  0
 11 10  1  0  0  0  0
 11 13  1  0  0  0  0
 12 11  1  0  0  0  0
 14 11  1  0  0  0  0
 16 15  1  0  0  0  0
 16 20  1  0  0  0  0
 17 16  1  0  0  0  0
 18 19  1  0  0  0  0
 18 16  1  0  0  0  0
 21 20  1  0  0  0  0
 22 24  1  0  0  0  0
 22  2  1  0  0  0  0
 23 22  1  0  0  0  0
 25 27  1  0  0  0  0
 26 25  2  0  0  0  0
 27 28  1  0  0  0  0
 27 22  1  0  0  0  0
 30 31  1  0  0  0  0
 30 29  1  0  0  0  0
 31 25  1  0  0  0  0
 32 37  1  0  0  0  0
 32 31  2  0  0  0  0
 33 32  1  0  0  0  0
 34 33  2  0  0  0  0
 34 36  1  0  0  0  0
 35 34  1  0  0  0  0
 36 30  2  0  0  0  0
 38 33  1  0  0  0  0
 39 36  1  0  0  0  0
M  END
>  <minimizedAffinity>
-6.18830776

>  <minimizedRMSD>
0.490063399

$$$$
