
 OpenBabel03242517373D

 31 32  0  0  0  0  0  0  0  0999 V2000
   42.7610   35.6140   41.2740 C   0  0  0  0  0  0  0  0  0  0  0  0
   41.4980   35.4850   41.6010 C   0  0  0  0  0  0  0  0  0  0  0  0
   44.8770   35.8000   42.5550 C   0  0  0  0  0  0  0  0  0  0  0  0
   43.8830   35.0140   41.9620 C   0  0  0  0  0  0  0  0  0  0  0  0
   44.0120   33.6420   42.0580 C   0  0  0  0  0  0  0  0  0  0  0  0
   45.0900   33.1230   42.7180 N   0  0  0  0  0  0  0  0  0  0  0  0
   46.0340   33.9060   43.2800 C   0  0  0  0  0  0  0  0  0  0  0  0
   45.9180   35.2320   43.1920 N   0  0  0  0  0  0  0  0  0  0  0  0
   44.7450   36.8820   42.4600 H   0  0  0  0  0  0  0  0  0  0  0  0
   43.2680   32.9830   41.6160 H   0  0  0  0  0  0  0  0  0  0  0  0
   47.2060   33.3420   43.9990 C   0  0  0  0  0  0  0  0  0  0  0  0
   46.9540   33.0940   45.4000 N   0  0  0  0  0  0  0  0  0  0  0  0
   47.7550   33.5290   45.9310 H   0  0  0  0  0  0  0  0  0  0  0  0
   45.7320   33.6580   45.8920 C   0  0  0  0  0  0  0  0  0  0  0  0
   44.9110   32.9180   45.8290 H   0  0  0  0  0  0  0  0  0  0  0  0
   47.0530   31.6660   45.6400 C   0  0  0  0  0  0  0  0  0  0  0  0
   46.2940   31.3680   46.3990 H   0  0  0  0  0  0  0  0  0  0  0  0
   40.3780   36.1210   40.8630 C   0  0  0  0  0  0  0  0  0  0  0  0
   40.7400   37.0440   40.3790 H   0  0  0  0  0  0  0  0  0  0  0  0
   39.5390   36.3040   41.5870 H   0  0  0  0  0  0  0  0  0  0  0  0
   39.8220   35.2040   39.8200 C   0  0  0  0  0  0  0  0  0  0  0  0
   40.3290   35.2820   38.5310 C   0  0  0  0  0  0  0  0  0  0  0  0
   39.8260   34.4390   37.5490 C   0  0  0  0  0  0  0  0  0  0  0  0
   38.8210   33.5200   37.8460 C   0  0  0  0  0  0  0  0  0  0  0  0
   38.3190   33.4440   39.1270 C   0  0  0  0  0  0  0  0  0  0  0  0
   38.8250   34.2880   40.1020 C   0  0  0  0  0  0  0  0  0  0  0  0
   41.1230   36.0120   38.3110 H   0  0  0  0  0  0  0  0  0  0  0  0
   40.2700   34.5560   36.5690 H   0  0  0  0  0  0  0  0  0  0  0  0
   38.5160   32.9220   36.9980 H   0  0  0  0  0  0  0  0  0  0  0  0
   37.5390   32.7170   39.3120 H   0  0  0  0  0  0  0  0  0  0  0  0
   38.4190   34.2160   41.1000 H   0  0  0  0  0  0  0  0  0  0  0  0
  1  2  2  0  0  0  0
  1  4  1  0  0  0  0
  3  8  1  0  0  0  0
  4  5  1  0  0  0  0
  4  3  2  0  0  0  0
  5  6  2  0  0  0  0
  6  7  1  0  0  0  0
  7 11  1  0  0  0  0
  8  7  2  0  0  0  0
  9  3  1  0  0  0  0
 10  5  1  0  0  0  0
 11 12  1  0  0  0  0
 12 16  1  0  0  0  0
 12 14  1  0  0  0  0
 12 13  1  0  0  0  0
 15 14  1  0  0  0  0
 16 17  1  0  0  0  0
 18 20  1  0  0  0  0
 18  2  1  0  0  0  0
 19 18  1  0  0  0  0
 21 26  1  0  0  0  0
 21 18  1  0  0  0  0
 22 21  2  0  0  0  0
 23 24  2  0  0  0  0
 23 22  1  0  0  0  0
 24 25  1  0  0  0  0
 25 30  1  0  0  0  0
 25 26  2  0  0  0  0
 26 31  1  0  0  0  0
 27 22  1  0  0  0  0
 28 23  1  0  0  0  0
 29 24  1  0  0  0  0
M  END
>  <minimizedAffinity>
-5.821661

>  <minimizedRMSD>
1.62860656

$$$$
