
 OpenBabel03252502073D

 46 49  0  0  0  0  0  0  0  0999 V2000
   47.3260   32.1400   47.8740 C   0  0  0  0  0  0  0  0  0  0  0  0
   46.7970   30.8430   47.8870 C   0  0  0  0  0  0  0  0  0  0  0  0
   45.8830   30.5450   46.9340 C   0  0  0  0  0  0  0  0  0  0  0  0
   45.5250   31.4710   46.0300 N   0  0  0  0  0  0  0  0  0  0  0  0
   46.0090   32.6930   45.9960 C   0  0  0  0  0  0  0  0  0  0  0  0
   46.9220   33.0160   46.9410 N   0  0  0  0  0  0  0  0  0  0  0  0
   45.3010   29.2990   46.8950 N   0  0  0  0  0  0  0  0  0  0  0  0
   44.1600   28.9240   46.0090 C   0  0  0  0  0  0  0  0  0  0  0  0
   44.0560   27.4290   46.0860 C   0  0  0  0  0  0  0  0  0  0  0  0
   44.6090   27.1230   47.4350 C   0  0  0  0  0  0  0  0  0  0  0  0
   45.6580   28.1550   47.6810 C   0  0  0  0  0  0  0  0  0  0  0  0
   48.0690   32.4320   48.6280 H   0  0  0  0  0  0  0  0  0  0  0  0
   44.3250   29.2260   44.9780 H   0  0  0  0  0  0  0  0  0  0  0  0
   43.2710   29.4360   46.4700 H   0  0  0  0  0  0  0  0  0  0  0  0
   42.9830   27.0870   46.0640 H   0  0  0  0  0  0  0  0  0  0  0  0
   44.6640   26.9470   45.3180 H   0  0  0  0  0  0  0  0  0  0  0  0
   43.7860   27.1160   48.1990 H   0  0  0  0  0  0  0  0  0  0  0  0
   45.0500   26.1020   47.4790 H   0  0  0  0  0  0  0  0  0  0  0  0
   45.5430   28.3940   48.7600 H   0  0  0  0  0  0  0  0  0  0  0  0
   46.6230   27.7210   47.3980 H   0  0  0  0  0  0  0  0  0  0  0  0
   45.7730   33.8320   45.0760 C   0  0  0  0  0  0  0  0  0  0  0  0
   44.8530   34.7840   45.2870 N   0  0  0  0  0  0  0  0  0  0  0  0
   44.6310   35.8170   44.4790 C   0  0  0  0  0  0  0  0  0  0  0  0
   45.3590   35.9660   43.3480 N   0  0  0  0  0  0  0  0  0  0  0  0
   46.3000   35.0890   43.0290 C   0  0  0  0  0  0  0  0  0  0  0  0
   47.0590   35.2340   41.8760 C   0  0  0  0  0  0  0  0  0  0  0  0
   48.0320   34.3460   41.5440 C   0  0  0  0  0  0  0  0  0  0  0  0
   48.2460   33.2860   42.3900 C   0  0  0  0  0  0  0  0  0  0  0  0
   47.4750   33.1630   43.5350 C   0  0  0  0  0  0  0  0  0  0  0  0
   46.4920   34.0330   43.9020 C   0  0  0  0  0  0  0  0  0  0  0  0
   43.8510   36.5350   44.7530 H   0  0  0  0  0  0  0  0  0  0  0  0
   46.8700   36.0760   41.2270 H   0  0  0  0  0  0  0  0  0  0  0  0
   48.6080   34.4830   40.6390 H   0  0  0  0  0  0  0  0  0  0  0  0
   47.8260   32.0060   44.2880 N   0  0  0  0  0  0  0  0  0  0  0  0
   47.2320   31.2640   43.8490 H   0  0  0  0  0  0  0  0  0  0  0  0
   48.4820   31.8130   45.0720 H   0  0  0  0  0  0  0  0  0  0  0  0
   49.3200   32.3330   42.0050 C   0  0  0  0  0  2  0  0  0  0  0  0
   49.1070   31.7480   40.7080 N   0  0  0  0  0  4  0  0  0  0  0  0
   48.5150   32.3850   40.1460 H   0  0  0  0  0  0  0  0  0  0  0  0
   48.5520   30.4180   40.7640 C   0  0  0  0  0  2  0  0  0  0  0  0
   48.2530   30.1420   39.7310 H   0  0  0  0  0  0  0  0  0  0  0  0
   50.3730   31.6090   39.9940 C   0  0  0  0  0  2  0  0  0  0  0  0
   50.8930   30.6970   40.3970 H   0  0  0  0  0  0  0  0  0  0  0  0
   47.2740   29.9740   48.8300 N   0  0  0  0  0  0  0  0  0  0  0  0
   48.0010   29.2890   48.5290 H   0  0  0  0  0  0  0  0  0  0  0  0
   46.9650   29.9460   49.8490 H   0  0  0  0  0  0  0  0  0  0  0  0
  1  2  1  0  0  0  0
  1 12  1  0  0  0  0
  2 44  1  0  0  0  0
  3  2  2  0  0  0  0
  4  3  1  0  0  0  0
  5  4  2  0  0  0  0
  5  6  1  0  0  0  0
  6  1  2  0  0  0  0
  7  3  1  0  0  0  0
  7 11  1  0  0  0  0
  8  9  1  0  0  0  0
  8 14  1  0  0  0  0
  8  7  1  0  0  0  0
  9 10  1  0  0  0  0
 10 18  1  0  0  0  0
 10 11  1  0  0  0  0
 10 17  1  0  0  0  0
 11 19  1  0  0  0  0
 13  8  1  0  0  0  0
 15  9  1  0  0  0  0
 16  9  1  0  0  0  0
 20 11  1  0  0  0  0
 21 22  1  0  0  0  0
 21  5  1  0  0  0  0
 23 31  1  0  0  0  0
 23 22  2  0  0  0  0
 24 23  1  0  0  0  0
 25 24  2  0  0  0  0
 25 30  1  0  0  0  0
 26 25  1  0  0  0  0
 27 26  2  0  0  0  0
 27 28  1  0  0  0  0
 28 29  2  0  0  0  0
 29 30  1  0  0  0  0
 29 34  1  0  0  0  0
 30 21  2  0  0  0  0
 32 26  1  0  0  0  0
 33 27  1  0  0  0  0
 34 36  1  0  0  0  0
 35 34  1  0  0  0  0
 37 28  1  0  0  0  0
 38 40  1  0  0  0  0
 38 37  1  0  0  0  0
 39 38  1  0  0  0  0
 41 40  1  0  0  0  0
 42 43  1  0  0  0  0
 42 38  1  0  0  0  0
 44 46  1  0  0  0  0
 45 44  1  0  0  0  0
M  END
>  <minimizedAffinity>
-6.32328987

>  <minimizedRMSD>
0.606301725

$$$$
