
 OpenBabel03242523193D

 35 37  0  0  0  0  0  0  0  0999 V2000
   46.3280   33.5380   44.7010 C   0  0  0  0  0  0  0  0  0  0  0  0
   45.7530   33.9230   45.6900 O   0  0  0  0  0  0  0  0  0  0  0  0
   44.5240   31.7510   42.9530 Cl  0  0  0  0  0  0  0  0  0  0  0  0
   44.5600   33.5110   42.8100 C   0  0  0  0  0  0  0  0  0  0  0  0
   45.4450   34.1730   43.6880 C   0  0  0  0  0  0  0  0  0  0  0  0
   45.3980   35.5400   43.4750 C   0  0  0  0  0  0  0  0  0  0  0  0
   44.6750   36.2560   42.6040 C   0  0  0  0  0  0  0  0  0  0  0  0
   43.8460   35.5410   41.7930 C   0  0  0  0  0  0  0  0  0  0  0  0
   43.7710   34.1930   41.8770 C   0  0  0  0  0  0  0  0  0  0  0  0
   46.0110   36.2150   44.1120 H   0  0  0  0  0  0  0  0  0  0  0  0
   44.6840   37.3290   42.4830 H   0  0  0  0  0  0  0  0  0  0  0  0
   43.1990   35.9820   41.0380 H   0  0  0  0  0  0  0  0  0  0  0  0
   42.8480   33.3920   41.0140 C   0  0  0  0  0  2  0  0  0  0  0  0
   41.6970   34.1320   40.5960 N   0  0  0  0  0  4  0  0  0  0  0  0
   41.9550   35.1590   40.7260 H   0  0  0  0  0  0  0  0  0  0  0  0
   40.4840   33.8840   41.3050 C   0  0  0  0  0  2  0  0  0  0  0  0
   39.7500   33.3150   40.6620 H   0  0  0  0  0  0  0  0  0  0  0  0
   41.4650   33.9740   39.1760 C   0  0  0  0  0  2  0  0  0  0  0  0
   41.8730   34.8370   38.5880 H   0  0  0  0  0  0  0  0  0  0  0  0
   47.3910   32.8030   44.0050 C   0  0  0  0  0  0  0  0  0  0  0  0
   48.2490   33.3100   43.1060 C   0  0  0  0  0  0  0  0  0  0  0  0
   49.0900   32.3810   42.5290 C   0  0  0  0  0  0  0  0  0  0  0  0
   48.9810   31.0330   42.9220 N   0  0  0  0  0  0  0  0  0  0  0  0
   48.1140   30.6160   43.8140 C   0  0  0  0  0  0  0  0  0  0  0  0
   47.2550   31.5150   44.4100 N   0  0  0  0  0  0  0  0  0  0  0  0
   49.8370   32.6220   41.7830 H   0  0  0  0  0  0  0  0  0  0  0  0
   48.1500   29.5490   44.0170 H   0  0  0  0  0  0  0  0  0  0  0  0
   48.4370   34.6830   42.7950 C   0  0  0  0  0  0  0  0  0  0  0  0
   49.4700   35.2750   42.1430 C   0  0  0  0  0  0  0  0  0  0  0  0
   48.2550   35.1010   41.2750 C   0  0  0  0  0  0  0  0  0  0  0  0
   47.9590   35.3680   43.5200 H   0  0  0  0  0  0  0  0  0  0  0  0
   50.3380   34.6660   41.7880 H   0  0  0  0  0  0  0  0  0  0  0  0
   49.8070   36.3460   42.1820 H   0  0  0  0  0  0  0  0  0  0  0  0
   48.2030   34.2480   40.5850 H   0  0  0  0  0  0  0  0  0  0  0  0
   47.5790   35.9580   41.1430 H   0  0  0  0  0  0  0  0  0  0  0  0
  1  2  2  0  0  0  0
  4  3  1  0  0  0  0
  4  5  1  0  0  0  0
  5  1  1  0  0  0  0
  6  5  2  0  0  0  0
  6 10  1  0  0  0  0
  7  6  1  0  0  0  0
  8  9  1  0  0  0  0
  8  7  2  0  0  0  0
  9  4  2  0  0  0  0
 11  7  1  0  0  0  0
 12  8  1  0  0  0  0
 13  9  1  0  0  0  0
 14 15  1  0  0  0  0
 14 13  1  0  0  0  0
 14 16  1  0  0  0  0
 17 16  1  0  0  0  0
 18 14  1  0  0  0  0
 19 18  1  0  0  0  0
 20 25  1  0  0  0  0
 20  1  1  0  0  0  0
 21 20  2  0  0  0  0
 22 23  2  0  0  0  0
 22 21  1  0  0  0  0
 23 24  1  0  0  0  0
 24 27  1  0  0  0  0
 24 25  2  0  0  0  0
 26 22  1  0  0  0  0
 28 21  1  0  0  0  0
 28 31  1  0  0  0  0
 29 33  1  0  0  0  0
 29 28  1  0  0  0  0
 30 29  1  0  0  0  0
 30 28  1  0  0  0  0
 32 29  1  0  0  0  0
 34 30  1  0  0  0  0
 35 30  1  0  0  0  0
M  END
>  <minimizedAffinity>
-5.20390558

>  <minimizedRMSD>
1.35257328

$$$$
