
 OpenBabel03252507063D

 22 22  0  0  0  0  0  0  0  0999 V2000
   44.6470   35.6910   44.8460 C   0  0  0  0  0  0  0  0  0  0  0  0
   45.2330   35.8880   43.5840 C   0  0  0  0  0  0  0  0  0  0  0  0
   46.1390   34.9170   43.1570 C   0  0  0  0  0  0  0  0  0  0  0  0
   46.4130   33.8550   43.9500 N   0  0  0  0  0  0  0  0  0  0  0  0
   45.8280   33.6980   45.1630 C   0  0  0  0  0  0  0  0  0  0  0  0
   44.9420   34.6250   45.6060 N   0  0  0  0  0  0  0  0  0  0  0  0
   43.9470   36.4610   45.1510 H   0  0  0  0  0  0  0  0  0  0  0  0
   44.9900   36.7460   42.9810 H   0  0  0  0  0  0  0  0  0  0  0  0
   46.7220   35.1140   41.9010 O   0  0  0  0  0  0  0  0  0  0  0  0
   48.4660   33.3320   41.0260 O   0  0  0  0  0  0  0  0  0  0  0  0
   48.3680   34.7120   41.6750 P   0  0  0  0  0  0  0  0  0  0  0  0
   49.1020   35.8860   40.7520 O   0  0  0  0  0  0  0  0  0  0  0  0
   49.9510   36.1490   41.1910 H   0  0  0  0  0  0  0  0  0  0  0  0
   49.0830   34.5960   43.2100 O   0  0  0  0  0  0  0  0  0  0  0  0
   49.0710   33.6700   43.5560 H   0  0  0  0  0  0  0  0  0  0  0  0
   46.1780   32.5210   45.9590 C   0  0  0  0  0  0  0  0  0  0  0  0
   46.1940   32.8410   47.3650 N   0  0  0  0  0  0  0  0  0  0  0  0
   46.1060   33.8900   47.4190 H   0  0  0  0  0  0  0  0  0  0  0  0
   47.4920   32.5380   47.9470 C   0  0  0  0  0  0  0  0  0  0  0  0
   47.4930   31.5550   48.4580 H   0  0  0  0  0  0  0  0  0  0  0  0
   45.1130   32.2970   48.1230 C   0  0  0  0  0  0  0  0  0  0  0  0
   45.4750   31.7780   49.0550 H   0  0  0  0  0  0  0  0  0  0  0  0
  1  7  1  0  0  0  0
  1  6  1  0  0  0  0
  2  1  2  0  0  0  0
  3  2  1  0  0  0  0
  3  4  2  0  0  0  0
  4  5  1  0  0  0  0
  5  6  2  0  0  0  0
  5 16  1  0  0  0  0
  8  2  1  0  0  0  0
  9  3  1  0  0  0  0
 10 11  2  0  0  0  0
 11  9  1  0  0  0  0
 11 14  1  0  0  0  0
 12 13  1  0  0  0  0
 12 11  1  0  0  0  0
 14 15  1  0  0  0  0
 16 17  1  0  0  0  0
 17 18  1  0  0  0  0
 17 19  1  0  0  0  0
 17 21  1  0  0  0  0
 19 20  1  0  0  0  0
 21 22  1  0  0  0  0
M  END
>  <minimizedAffinity>
-5.00966644

>  <minimizedRMSD>
0.694049478

$$$$
