
 OpenBabel03242516483D

 41 43  0  0  1  0  0  0  0  0999 V2000
   47.8650   32.9380   41.8710 C   0  0  1  0  0  0  0  0  0  0  0  0
   47.5700   32.2940   40.5740 C   0  0  0  0  0  0  0  0  0  0  0  0
   48.6210   32.8330   39.5980 C   0  0  0  0  0  0  0  0  0  0  0  0
   48.2550   34.2870   39.3610 C   0  0  0  0  0  0  0  0  0  0  0  0
   48.1750   35.0990   40.6180 C   0  0  0  0  0  0  0  0  0  0  0  0
   47.6610   34.4380   41.8220 C   0  0  1  0  0  0  0  0  0  0  0  0
   48.9730   32.8340   42.0770 H   0  0  0  0  0  0  0  0  0  0  0  0
   46.5590   32.4240   40.1950 H   0  0  0  0  0  0  0  0  0  0  0  0
   47.7670   31.1910   40.7050 H   0  0  0  0  0  0  0  0  0  0  0  0
   49.6110   32.7320   40.0860 H   0  0  0  0  0  0  0  0  0  0  0  0
   48.5190   32.3060   38.6500 H   0  0  0  0  0  0  0  0  0  0  0  0
   47.2610   34.2640   38.8530 H   0  0  0  0  0  0  0  0  0  0  0  0
   49.0110   34.6980   38.6760 H   0  0  0  0  0  0  0  0  0  0  0  0
   47.5720   36.0050   40.3970 H   0  0  0  0  0  0  0  0  0  0  0  0
   49.2210   35.4890   40.7780 H   0  0  0  0  0  0  0  0  0  0  0  0
   48.2440   34.8310   42.7120 H   0  0  0  0  0  0  0  0  0  0  0  0
   45.4120   30.9470   43.9430 C   0  0  0  0  0  0  0  0  0  0  0  0
   46.1030   31.5170   42.8750 C   0  0  0  0  0  0  0  0  0  0  0  0
   47.1910   32.3650   43.0290 C   0  0  0  0  0  0  0  0  0  0  0  0
   47.5600   32.6210   44.2940 N   0  0  0  0  0  0  0  0  0  0  0  0
   46.8990   32.0760   45.3490 C   0  0  0  0  0  0  0  0  0  0  0  0
   45.8570   31.2640   45.1950 N   0  0  0  0  0  0  0  0  0  0  0  0
   44.5800   30.3000   43.7210 H   0  0  0  0  0  0  0  0  0  0  0  0
   45.7920   31.3000   41.8640 H   0  0  0  0  0  0  0  0  0  0  0  0
   47.2610   32.3330   46.3450 H   0  0  0  0  0  0  0  0  0  0  0  0
   46.2650   34.7960   42.1280 C   0  0  0  0  0  0  0  0  0  0  0  0
   45.7820   35.3580   43.3180 C   0  0  0  0  0  0  0  0  0  0  0  0
   44.4120   35.6280   43.3530 C   0  0  0  0  0  0  0  0  0  0  0  0
   43.6570   35.3270   42.2350 C   0  0  0  0  0  0  0  0  0  0  0  0
   44.1470   34.7780   41.0800 C   0  0  0  0  0  0  0  0  0  0  0  0
   45.4800   34.5130   41.0450 N   0  0  0  0  0  0  0  0  0  0  0  0
   46.4980   35.5190   44.0640 H   0  0  0  0  0  0  0  0  0  0  0  0
   44.0410   36.0600   44.2640 H   0  0  0  0  0  0  0  0  0  0  0  0
   42.6020   35.5580   42.3180 H   0  0  0  0  0  0  0  0  0  0  0  0
   43.2220   34.5010   39.9440 C   0  0  0  0  0  2  0  0  0  0  0  0
   43.2300   33.1260   39.5460 N   0  0  0  0  0  4  0  0  0  0  0  0
   43.8500   32.5980   40.2010 H   0  0  0  0  0  0  0  0  0  0  0  0
   43.7660   32.9500   38.2020 C   0  0  0  0  0  2  0  0  0  0  0  0
   43.5410   33.8450   37.5860 H   0  0  0  0  0  0  0  0  0  0  0  0
   41.9190   32.5190   39.5590 C   0  0  0  0  0  2  0  0  0  0  0  0
   41.2920   33.0730   38.8410 H   0  0  0  0  0  0  0  0  0  0  0  0
  1  7  1  1  0  0  0
  1 19  1  0  0  0  0
  2  9  1  0  0  0  0
  2  1  1  0  0  0  0
  3 10  1  0  0  0  0
  3  2  1  0  0  0  0
  4  3  1  0  0  0  0
  4  5  1  0  0  0  0
  5 15  1  0  0  0  0
  5  6  1  0  0  0  0
  6  1  1  0  0  0  0
  6 26  1  0  0  0  0
  6 16  1  1  0  0  0
  8  2  1  0  0  0  0
 11  3  1  0  0  0  0
 12  4  1  0  0  0  0
 13  4  1  0  0  0  0
 14  5  1  0  0  0  0
 17 22  1  0  0  0  0
 18 19  1  0  0  0  0
 18 17  2  0  0  0  0
 19 20  2  0  0  0  0
 20 21  1  0  0  0  0
 21 25  1  0  0  0  0
 22 21  2  0  0  0  0
 23 17  1  0  0  0  0
 24 18  1  0  0  0  0
 26 27  1  0  0  0  0
 27 28  2  0  0  0  0
 27 32  1  0  0  0  0
 28 33  1  0  0  0  0
 29 34  1  0  0  0  0
 29 28  1  0  0  0  0
 30 29  2  0  0  0  0
 31 30  1  0  0  0  0
 31 26  2  0  0  0  0
 35 30  1  0  0  0  0
 36 40  1  0  0  0  0
 36 35  1  0  0  0  0
 36 37  1  0  0  0  0
 38 36  1  0  0  0  0
 39 38  1  0  0  0  0
 41 40  1  0  0  0  0
M  END
>  <minimizedAffinity>
-4.75549746

>  <minimizedRMSD>
0.678260922

$$$$
