
 OpenBabel03252507213D

 42 44  0  0  1  0  0  0  0  0999 V2000
   39.3400   29.0620   40.3750 C   0  0  0  0  0  0  0  0  0  0  0  0
   40.5520   29.4130   40.5640 O   0  0  0  0  0  0  0  0  0  0  0  0
   38.4070   28.8280   41.4580 N   0  0  0  0  0  0  0  0  0  0  0  0
   37.0210   29.2370   41.6240 C   0  0  0  0  0  0  0  0  0  0  0  0
   36.1880   28.0000   41.9600 C   0  0  0  0  0  0  0  0  0  0  0  0
   36.6240   27.4310   43.2870 C   0  0  0  0  0  0  0  0  0  0  0  0
   37.9510   28.0200   43.6800 C   0  0  0  0  0  0  0  0  0  0  0  0
   38.9510   28.0480   42.5750 C   0  0  1  0  0  0  0  0  0  0  0  0
   36.6680   29.5290   40.5930 H   0  0  0  0  0  0  0  0  0  0  0  0
   36.8850   30.0240   42.3660 H   0  0  0  0  0  0  0  0  0  0  0  0
   36.4410   27.2600   41.1470 H   0  0  0  0  0  0  0  0  0  0  0  0
   35.1120   28.2210   41.9160 H   0  0  0  0  0  0  0  0  0  0  0  0
   35.8830   27.8150   44.0350 H   0  0  0  0  0  0  0  0  0  0  0  0
   36.5840   26.3440   43.3420 H   0  0  0  0  0  0  0  0  0  0  0  0
   38.3440   27.4560   44.5340 H   0  0  0  0  0  0  0  0  0  0  0  0
   37.8140   29.0790   44.0180 H   0  0  0  0  0  0  0  0  0  0  0  0
   39.8050   28.6710   42.9140 H   0  0  0  0  0  0  0  0  0  0  0  0
   38.8560   27.6050   38.4870 C   0  0  0  0  0  0  0  0  0  0  0  0
   38.8780   28.8910   39.0320 C   0  0  0  0  0  0  0  0  0  0  0  0
   38.4540   29.9620   38.2670 C   0  0  0  0  0  0  0  0  0  0  0  0
   38.0310   29.7180   37.0080 N   0  0  0  0  0  0  0  0  0  0  0  0
   38.0070   28.4680   36.4730 C   0  0  0  0  0  0  0  0  0  0  0  0
   38.4220   27.4300   37.2240 N   0  0  0  0  0  0  0  0  0  0  0  0
   39.1630   26.7280   39.0040 H   0  0  0  0  0  0  0  0  0  0  0  0
   37.6580   28.3290   35.4560 H   0  0  0  0  0  0  0  0  0  0  0  0
   38.4860   31.2920   38.8400 C   0  0  0  0  0  0  0  0  0  0  0  0
   37.3360   31.8740   39.2840 C   0  0  0  0  0  0  0  0  0  0  0  0
   37.3840   33.1390   39.8260 C   0  0  0  0  0  0  0  0  0  0  0  0
   38.5710   33.8600   39.9430 C   0  0  0  0  0  0  0  0  0  0  0  0
   39.7040   33.2170   39.4760 C   0  0  0  0  0  0  0  0  0  0  0  0
   39.6210   31.9850   38.9530 N   0  0  0  0  0  0  0  0  0  0  0  0
   36.3470   31.4520   39.2590 H   0  0  0  0  0  0  0  0  0  0  0  0
   36.5040   33.6560   40.1960 H   0  0  0  0  0  0  0  0  0  0  0  0
   38.5810   34.8500   40.3710 H   0  0  0  0  0  0  0  0  0  0  0  0
   40.6360   33.7380   39.5480 H   0  0  0  0  0  0  0  0  0  0  0  0
   39.4840   26.7320   42.1310 C   0  0  0  0  0  2  0  0  0  0  0  0
   39.8210   25.9220   43.2720 N   0  0  0  0  0  4  0  0  0  0  0  0
   39.2120   26.1800   44.0730 H   0  0  0  0  0  0  0  0  0  0  0  0
   41.1910   26.0590   43.6760 C   0  0  0  0  0  2  0  0  0  0  0  0
   41.3050   25.3960   44.5770 H   0  0  0  0  0  0  0  0  0  0  0  0
   39.6040   24.5030   43.0070 C   0  0  0  0  0  2  0  0  0  0  0  0
   40.2050   23.9510   43.7600 H   0  0  0  0  0  0  0  0  0  0  0  0
  1  2  2  0  0  0  0
  1  3  1  0  0  0  0
  3  4  1  0  0  0  0
  3  8  1  0  0  0  0
  4  5  1  0  0  0  0
  4 10  1  0  0  0  0
  5  6  1  0  0  0  0
  6 14  1  0  0  0  0
  6  7  1  0  0  0  0
  6 13  1  0  0  0  0
  7 16  1  0  0  0  0
  7 15  1  0  0  0  0
  8 17  1  1  0  0  0
  8  7  1  0  0  0  0
  9  4  1  0  0  0  0
 11  5  1  0  0  0  0
 12  5  1  0  0  0  0
 18 24  1  0  0  0  0
 18 19  1  0  0  0  0
 19  1  1  0  0  0  0
 20 26  1  0  0  0  0
 20 19  2  0  0  0  0
 21 20  1  0  0  0  0
 22 21  2  0  0  0  0
 22 23  1  0  0  0  0
 23 18  2  0  0  0  0
 25 22  1  0  0  0  0
 26 31  2  0  0  0  0
 26 27  1  0  0  0  0
 27 28  2  0  0  0  0
 28 29  1  0  0  0  0
 28 33  1  0  0  0  0
 29 34  1  0  0  0  0
 30 35  1  0  0  0  0
 30 29  2  0  0  0  0
 31 30  1  0  0  0  0
 32 27  1  0  0  0  0
 36  8  1  0  0  0  0
 36 37  1  0  0  0  0
 37 39  1  0  0  0  0
 37 38  1  0  0  0  0
 39 40  1  0  0  0  0
 41 37  1  0  0  0  0
 41 42  1  0  0  0  0
M  END
>  <minimizedAffinity>
-5.38120079

$$$$

 OpenBabel03252507213D

 42 44  0  0  1  0  0  0  0  0999 V2000
   39.0360   29.5000   40.1510 C   0  0  0  0  0  0  0  0  0  0  0  0
   39.6870   29.0080   39.1710 O   0  0  0  0  0  0  0  0  0  0  0  0
   38.7610   28.7620   41.3670 N   0  0  0  0  0  0  0  0  0  0  0  0
   38.8540   29.1600   42.7630 C   0  0  0  0  0  0  0  0  0  0  0  0
   37.5230   28.8430   43.4460 C   0  0  0  0  0  0  0  0  0  0  0  0
   37.2860   27.3540   43.4450 C   0  0  0  0  0  0  0  0  0  0  0  0
   38.2240   26.6920   42.4740 C   0  0  0  0  0  0  0  0  0  0  0  0
   38.3140   27.3810   41.1550 C   0  0  1  0  0  0  0  0  0  0  0  0
   38.8900   30.2880   42.7520 H   0  0  0  0  0  0  0  0  0  0  0  0
   39.6920   28.7060   43.2900 H   0  0  0  0  0  0  0  0  0  0  0  0
   36.7460   29.3360   42.7930 H   0  0  0  0  0  0  0  0  0  0  0  0
   37.4760   29.2890   44.4500 H   0  0  0  0  0  0  0  0  0  0  0  0
   37.5970   27.0010   44.4620 H   0  0  0  0  0  0  0  0  0  0  0  0
   36.2430   27.0680   43.3240 H   0  0  0  0  0  0  0  0  0  0  0  0
   37.9090   25.6510   42.3380 H   0  0  0  0  0  0  0  0  0  0  0  0
   39.2610   26.6700   42.8970 H   0  0  0  0  0  0  0  0  0  0  0  0
   39.1650   26.9310   40.6020 H   0  0  0  0  0  0  0  0  0  0  0  0
   39.0820   31.8140   40.9040 C   0  0  0  0  0  0  0  0  0  0  0  0
   38.5540   30.8430   40.0490 C   0  0  0  0  0  0  0  0  0  0  0  0
   37.5860   31.2000   39.1280 C   0  0  0  0  0  0  0  0  0  0  0  0
   37.1860   32.4890   39.0930 N   0  0  0  0  0  0  0  0  0  0  0  0
   37.6950   33.4380   39.9230 C   0  0  0  0  0  0  0  0  0  0  0  0
   38.6380   33.0820   40.8170 N   0  0  0  0  0  0  0  0  0  0  0  0
   39.8270   31.6270   41.6390 H   0  0  0  0  0  0  0  0  0  0  0  0
   37.3370   34.4580   39.8510 H   0  0  0  0  0  0  0  0  0  0  0  0
   37.0420   30.1850   38.2500 C   0  0  0  0  0  0  0  0  0  0  0  0
   35.7740   29.7230   38.4410 C   0  0  0  0  0  0  0  0  0  0  0  0
   35.2720   28.7580   37.5970 C   0  0  0  0  0  0  0  0  0  0  0  0
   36.0110   28.2270   36.5420 C   0  0  0  0  0  0  0  0  0  0  0  0
   37.2900   28.7350   36.3970 C   0  0  0  0  0  0  0  0  0  0  0  0
   37.7480   29.6740   37.2380 N   0  0  0  0  0  0  0  0  0  0  0  0
   35.0850   30.0270   39.2070 H   0  0  0  0  0  0  0  0  0  0  0  0
   34.2710   28.3490   37.6970 H   0  0  0  0  0  0  0  0  0  0  0  0
   35.5940   27.4710   35.8940 H   0  0  0  0  0  0  0  0  0  0  0  0
   37.8900   28.3520   35.5990 H   0  0  0  0  0  0  0  0  0  0  0  0
   37.1080   27.3100   40.2870 C   0  0  0  0  0  2  0  0  0  0  0  0
   37.2510   26.2520   39.3220 N   0  0  0  0  0  4  0  0  0  0  0  0
   36.9840   26.6020   38.3810 H   0  0  0  0  0  0  0  0  0  0  0  0
   36.4520   25.1000   39.6260 C   0  0  0  0  0  2  0  0  0  0  0  0
   36.6450   24.3730   38.7890 H   0  0  0  0  0  0  0  0  0  0  0  0
   38.6330   25.7900   39.2320 C   0  0  0  0  0  2  0  0  0  0  0  0
   38.5930   24.7820   38.7670 H   0  0  0  0  0  0  0  0  0  0  0  0
  1  3  1  0  0  0  0
  2  1  2  0  0  0  0
  3  4  1  0  0  0  0
  4 10  1  0  0  0  0
  4  5  1  0  0  0  0
  5 12  1  0  0  0  0
  6  5  1  0  0  0  0
  6 13  1  0  0  0  0
  7 16  1  0  0  0  0
  7  6  1  0  0  0  0
  8 17  1  6  0  0  0
  8  3  1  0  0  0  0
  8  7  1  0  0  0  0
  9  4  1  0  0  0  0
 11  5  1  0  0  0  0
 14  6  1  0  0  0  0
 15  7  1  0  0  0  0
 18 24  1  0  0  0  0
 19  1  1  0  0  0  0
 19 18  2  0  0  0  0
 20 19  1  0  0  0  0
 21 20  2  0  0  0  0
 21 22  1  0  0  0  0
 22 23  2  0  0  0  0
 23 18  1  0  0  0  0
 25 22  1  0  0  0  0
 26 27  1  0  0  0  0
 26 20  1  0  0  0  0
 27 32  1  0  0  0  0
 28 33  1  0  0  0  0
 28 27  2  0  0  0  0
 29 28  1  0  0  0  0
 30 29  2  0  0  0  0
 30 31  1  0  0  0  0
 31 26  2  0  0  0  0
 34 29  1  0  0  0  0
 35 30  1  0  0  0  0
 36  8  1  0  0  0  0
 37 39  1  0  0  0  0
 37 36  1  0  0  0  0
 38 37  1  0  0  0  0
 40 39  1  0  0  0  0
 41 37  1  0  0  0  0
 42 41  1  0  0  0  0
M  END
>  <minimizedAffinity>
-5.10918808

$$$$

 OpenBabel03252507213D

 42 44  0  0  1  0  0  0  0  0999 V2000
   36.3650   30.1040   40.9250 C   0  0  0  0  0  0  0  0  0  0  0  0
   36.4190   31.3440   41.2240 O   0  0  0  0  0  0  0  0  0  0  0  0
   36.8190   29.0560   41.8160 N   0  0  0  0  0  0  0  0  0  0  0  0
   36.2140   27.7830   42.1730 C   0  0  0  0  0  0  0  0  0  0  0  0
   37.2470   26.6770   41.9510 C   0  0  0  0  0  0  0  0  0  0  0  0
   38.4150   26.8690   42.8870 C   0  0  0  0  0  0  0  0  0  0  0  0
   38.3750   28.2540   43.4700 C   0  0  0  0  0  0  0  0  0  0  0  0
   38.1070   29.3250   42.4680 C   0  0  1  0  0  0  0  0  0  0  0  0
   35.4350   27.5880   41.3810 H   0  0  0  0  0  0  0  0  0  0  0  0
   35.8150   27.7590   43.1870 H   0  0  0  0  0  0  0  0  0  0  0  0
   37.6010   26.8310   40.8910 H   0  0  0  0  0  0  0  0  0  0  0  0
   36.7870   25.6820   42.0310 H   0  0  0  0  0  0  0  0  0  0  0  0
   38.2300   26.1690   43.7430 H   0  0  0  0  0  0  0  0  0  0  0  0
   39.3770   26.5910   42.4610 H   0  0  0  0  0  0  0  0  0  0  0  0
   39.3250   28.4440   43.9830 H   0  0  0  0  0  0  0  0  0  0  0  0
   37.5640   28.3230   44.2400 H   0  0  0  0  0  0  0  0  0  0  0  0
   37.9050   30.2620   43.0280 H   0  0  0  0  0  0  0  0  0  0  0  0
   34.5790   29.1100   39.6050 C   0  0  0  0  0  0  0  0  0  0  0  0
   35.8300   29.7290   39.6530 C   0  0  0  0  0  0  0  0  0  0  0  0
   36.5190   29.9650   38.4770 C   0  0  0  0  0  0  0  0  0  0  0  0
   35.9460   29.5820   37.3160 N   0  0  0  0  0  0  0  0  0  0  0  0
   34.7280   28.9790   37.2630 C   0  0  0  0  0  0  0  0  0  0  0  0
   34.0640   28.7530   38.4130 N   0  0  0  0  0  0  0  0  0  0  0  0
   33.9830   28.8920   40.4580 H   0  0  0  0  0  0  0  0  0  0  0  0
   34.3150   28.6930   36.3030 H   0  0  0  0  0  0  0  0  0  0  0  0
   37.8190   30.6020   38.5380 C   0  0  0  0  0  0  0  0  0  0  0  0
   38.9400   29.9040   38.2020 C   0  0  0  0  0  0  0  0  0  0  0  0
   40.1670   30.5240   38.2650 C   0  0  0  0  0  0  0  0  0  0  0  0
   40.3160   31.8520   38.6620 C   0  0  0  0  0  0  0  0  0  0  0  0
   39.1430   32.5090   38.9900 C   0  0  0  0  0  0  0  0  0  0  0  0
   37.9650   31.8740   38.9180 N   0  0  0  0  0  0  0  0  0  0  0  0
   38.9900   28.8780   37.8830 H   0  0  0  0  0  0  0  0  0  0  0  0
   41.0960   30.0230   38.0110 H   0  0  0  0  0  0  0  0  0  0  0  0
   41.2900   32.3150   38.7030 H   0  0  0  0  0  0  0  0  0  0  0  0
   39.2150   33.5300   39.3000 H   0  0  0  0  0  0  0  0  0  0  0  0
   39.1870   29.5960   41.4830 C   0  0  0  0  0  2  0  0  0  0  0  0
   40.4450   29.7680   42.1600 N   0  0  0  0  0  4  0  0  0  0  0  0
   40.3920   29.3410   43.1060 H   0  0  0  0  0  0  0  0  0  0  0  0
   40.8270   31.1430   42.2990 C   0  0  0  0  0  2  0  0  0  0  0  0
   41.8040   31.1280   42.8570 H   0  0  0  0  0  0  0  0  0  0  0  0
   41.5330   29.1020   41.4500 C   0  0  0  0  0  2  0  0  0  0  0  0
   42.4730   29.5690   41.8140 H   0  0  0  0  0  0  0  0  0  0  0  0
  1  2  2  0  0  0  0
  1  3  1  0  0  0  0
  3  4  1  0  0  0  0
  3  8  1  0  0  0  0
  4 10  1  0  0  0  0
  5 12  1  0  0  0  0
  5  4  1  0  0  0  0
  5  6  1  0  0  0  0
  6  7  1  0  0  0  0
  6 13  1  0  0  0  0
  7 15  1  0  0  0  0
  7 16  1  0  0  0  0
  8 17  1  1  0  0  0
  8  7  1  0  0  0  0
  9  4  1  0  0  0  0
 11  5  1  0  0  0  0
 14  6  1  0  0  0  0
 18 19  1  0  0  0  0
 18 24  1  0  0  0  0
 19  1  1  0  0  0  0
 20 26  1  0  0  0  0
 20 19  2  0  0  0  0
 21 20  1  0  0  0  0
 22 21  2  0  0  0  0
 22 23  1  0  0  0  0
 23 18  2  0  0  0  0
 25 22  1  0  0  0  0
 26 31  1  0  0  0  0
 27 28  1  0  0  0  0
 27 26  2  0  0  0  0
 28 29  2  0  0  0  0
 29 34  1  0  0  0  0
 29 30  1  0  0  0  0
 30 35  1  0  0  0  0
 31 30  2  0  0  0  0
 32 27  1  0  0  0  0
 33 28  1  0  0  0  0
 36 37  1  0  0  0  0
 36  8  1  0  0  0  0
 37 39  1  0  0  0  0
 37 38  1  0  0  0  0
 39 40  1  0  0  0  0
 41 42  1  0  0  0  0
 41 37  1  0  0  0  0
M  END
>  <minimizedAffinity>
-5.06162262

$$$$

 OpenBabel03252507213D

 42 44  0  0  1  0  0  0  0  0999 V2000
   38.3820   29.4450   39.1620 C   0  0  0  0  0  0  0  0  0  0  0  0
   39.3660   28.8360   38.6230 O   0  0  0  0  0  0  0  0  0  0  0  0
   37.0260   28.9380   39.1270 N   0  0  0  0  0  0  0  0  0  0  0  0
   36.0150   28.8540   40.1700 C   0  0  0  0  0  0  0  0  0  0  0  0
   34.7310   29.5030   39.6530 C   0  0  0  0  0  0  0  0  0  0  0  0
   34.1950   28.7220   38.4790 C   0  0  0  0  0  0  0  0  0  0  0  0
   35.2570   27.7900   37.9640 C   0  0  0  0  0  0  0  0  0  0  0  0
   36.5990   28.4230   37.8210 C   0  0  1  0  0  0  0  0  0  0  0  0
   36.3630   29.5530   40.9830 H   0  0  0  0  0  0  0  0  0  0  0  0
   35.8360   27.8380   40.5210 H   0  0  0  0  0  0  0  0  0  0  0  0
   35.0550   30.5220   39.2930 H   0  0  0  0  0  0  0  0  0  0  0  0
   33.9960   29.6290   40.4610 H   0  0  0  0  0  0  0  0  0  0  0  0
   33.3890   28.0660   38.9000 H   0  0  0  0  0  0  0  0  0  0  0  0
   33.7280   29.3340   37.7110 H   0  0  0  0  0  0  0  0  0  0  0  0
   34.9260   27.3810   37.0020 H   0  0  0  0  0  0  0  0  0  0  0  0
   35.3820   26.9250   38.6650 H   0  0  0  0  0  0  0  0  0  0  0  0
   37.3320   27.6100   37.6280 H   0  0  0  0  0  0  0  0  0  0  0  0
   38.4260   31.8780   39.1320 C   0  0  0  0  0  0  0  0  0  0  0  0
   38.6270   30.6850   39.8310 C   0  0  0  0  0  0  0  0  0  0  0  0
   39.0530   30.7290   41.1460 C   0  0  0  0  0  0  0  0  0  0  0  0
   39.2600   31.9400   41.7080 N   0  0  0  0  0  0  0  0  0  0  0  0
   39.0660   33.1040   41.0320 C   0  0  0  0  0  0  0  0  0  0  0  0
   38.6510   33.0520   39.7520 N   0  0  0  0  0  0  0  0  0  0  0  0
   38.1000   31.9350   38.1220 H   0  0  0  0  0  0  0  0  0  0  0  0
   39.2470   34.0480   41.5320 H   0  0  0  0  0  0  0  0  0  0  0  0
   39.2630   29.4870   41.8600 C   0  0  0  0  0  0  0  0  0  0  0  0
   38.3280   29.0390   42.7450 C   0  0  0  0  0  0  0  0  0  0  0  0
   38.5440   27.8560   43.4150 C   0  0  0  0  0  0  0  0  0  0  0  0
   39.6900   27.0850   43.2260 C   0  0  0  0  0  0  0  0  0  0  0  0
   40.6010   27.5900   42.3150 C   0  0  0  0  0  0  0  0  0  0  0  0
   40.3600   28.7460   41.6810 N   0  0  0  0  0  0  0  0  0  0  0  0
   37.4010   29.5180   43.0020 H   0  0  0  0  0  0  0  0  0  0  0  0
   37.8390   27.4460   44.1320 H   0  0  0  0  0  0  0  0  0  0  0  0
   39.8340   26.1610   43.7640 H   0  0  0  0  0  0  0  0  0  0  0  0
   41.4950   27.0280   42.1420 H   0  0  0  0  0  0  0  0  0  0  0  0
   36.7410   29.4390   36.7450 C   0  0  0  0  0  2  0  0  0  0  0  0
   37.4210   28.8710   35.6110 N   0  0  0  0  0  4  0  0  0  0  0  0
   38.2690   29.4320   35.3960 H   0  0  0  0  0  0  0  0  0  0  0  0
   36.6020   28.8130   34.4340 C   0  0  0  0  0  2  0  0  0  0  0  0
   37.2590   28.3730   33.6340 H   0  0  0  0  0  0  0  0  0  0  0  0
   37.8650   27.5070   35.8780 C   0  0  0  0  0  2  0  0  0  0  0  0
   38.0390   27.0370   34.8870 H   0  0  0  0  0  0  0  0  0  0  0  0
  1 19  1  0  0  0  0
  2  1  2  0  0  0  0
  3  1  1  0  0  0  0
  3  4  1  0  0  0  0
  4 10  1  0  0  0  0
  4  9  1  0  0  0  0
  5  4  1  0  0  0  0
  5 12  1  0  0  0  0
  6 13  1  0  0  0  0
  6  5  1  0  0  0  0
  7  6  1  0  0  0  0
  7 16  1  0  0  0  0
  8 17  1  6  0  0  0
  8  7  1  0  0  0  0
  8  3  1  0  0  0  0
 11  5  1  0  0  0  0
 14  6  1  0  0  0  0
 15  7  1  0  0  0  0
 18 23  2  0  0  0  0
 18 19  1  0  0  0  0
 19 20  2  0  0  0  0
 20 21  1  0  0  0  0
 20 26  1  0  0  0  0
 22 25  1  0  0  0  0
 22 21  2  0  0  0  0
 23 22  1  0  0  0  0
 24 18  1  0  0  0  0
 26 27  1  0  0  0  0
 27 32  1  0  0  0  0
 27 28  2  0  0  0  0
 28 33  1  0  0  0  0
 29 28  1  0  0  0  0
 29 34  1  0  0  0  0
 30 29  2  0  0  0  0
 31 26  2  0  0  0  0
 31 30  1  0  0  0  0
 35 30  1  0  0  0  0
 36  8  1  0  0  0  0
 37 41  1  0  0  0  0
 37 36  1  0  0  0  0
 38 37  1  0  0  0  0
 39 37  1  0  0  0  0
 40 39  1  0  0  0  0
 42 41  1  0  0  0  0
M  END
>  <minimizedAffinity>
-4.94854498

$$$$

 OpenBabel03252507213D

 42 44  0  0  1  0  0  0  0  0999 V2000
   38.5520   30.4190   40.1120 C   0  0  0  0  0  0  0  0  0  0  0  0
   38.4140   31.0720   41.1990 O   0  0  0  0  0  0  0  0  0  0  0  0
   39.8120   30.3260   39.4020 N   0  0  0  0  0  0  0  0  0  0  0  0
   40.4750   29.1870   38.7870 C   0  0  0  0  0  0  0  0  0  0  0  0
   40.8240   29.5520   37.3440 C   0  0  0  0  0  0  0  0  0  0  0  0
   41.8210   30.6830   37.3250 C   0  0  0  0  0  0  0  0  0  0  0  0
   41.8790   31.3290   38.6820 C   0  0  0  0  0  0  0  0  0  0  0  0
   40.5410   31.5940   39.2830 C   0  0  1  0  0  0  0  0  0  0  0  0
   39.6770   28.3960   38.6810 H   0  0  0  0  0  0  0  0  0  0  0  0
   41.3520   28.8450   39.3360 H   0  0  0  0  0  0  0  0  0  0  0  0
   39.8520   29.9160   36.9020 H   0  0  0  0  0  0  0  0  0  0  0  0
   41.1600   28.6680   36.7810 H   0  0  0  0  0  0  0  0  0  0  0  0
   42.8200   30.1980   37.1730 H   0  0  0  0  0  0  0  0  0  0  0  0
   41.6870   31.3820   36.5030 H   0  0  0  0  0  0  0  0  0  0  0  0
   42.4500   32.2610   38.6000 H   0  0  0  0  0  0  0  0  0  0  0  0
   42.4290   30.6670   39.3990 H   0  0  0  0  0  0  0  0  0  0  0  0
   40.7030   31.8820   40.3430 H   0  0  0  0  0  0  0  0  0  0  0  0
   36.8110   30.2690   38.4190 C   0  0  0  0  0  0  0  0  0  0  0  0
   37.4140   29.7470   39.5660 C   0  0  0  0  0  0  0  0  0  0  0  0
   36.9030   28.5980   40.1430 C   0  0  0  0  0  0  0  0  0  0  0  0
   35.8260   28.0220   39.5660 N   0  0  0  0  0  0  0  0  0  0  0  0
   35.2350   28.5260   38.4500 C   0  0  0  0  0  0  0  0  0  0  0  0
   35.7390   29.6440   37.8950 N   0  0  0  0  0  0  0  0  0  0  0  0
   37.1380   31.1440   37.9130 H   0  0  0  0  0  0  0  0  0  0  0  0
   34.3720   28.0220   38.0290 H   0  0  0  0  0  0  0  0  0  0  0  0
   37.5320   28.0690   41.3340 C   0  0  0  0  0  0  0  0  0  0  0  0
   36.9660   28.2750   42.5570 C   0  0  0  0  0  0  0  0  0  0  0  0
   37.5780   27.7640   43.6800 C   0  0  0  0  0  0  0  0  0  0  0  0
   38.7640   27.0350   43.6210 C   0  0  0  0  0  0  0  0  0  0  0  0
   39.2910   26.8580   42.3530 C   0  0  0  0  0  0  0  0  0  0  0  0
   38.6690   27.3700   41.2810 N   0  0  0  0  0  0  0  0  0  0  0  0
   36.0610   28.8160   42.7660 H   0  0  0  0  0  0  0  0  0  0  0  0
   37.1780   27.8940   44.6810 H   0  0  0  0  0  0  0  0  0  0  0  0
   39.2230   26.6450   44.5170 H   0  0  0  0  0  0  0  0  0  0  0  0
   40.2020   26.3040   42.2660 H   0  0  0  0  0  0  0  0  0  0  0  0
   39.7210   32.6520   38.6360 C   0  0  0  0  0  2  0  0  0  0  0  0
   39.7170   33.8420   39.4450 N   0  0  0  0  0  4  0  0  0  0  0  0
   40.0370   34.6510   38.8750 H   0  0  0  0  0  0  0  0  0  0  0  0
   40.5560   33.7390   40.6040 C   0  0  0  0  0  2  0  0  0  0  0  0
   40.4730   34.7340   41.1230 H   0  0  0  0  0  0  0  0  0  0  0  0
   38.3770   34.1610   39.9270 C   0  0  0  0  0  2  0  0  0  0  0  0
   38.5120   34.8380   40.7970 H   0  0  0  0  0  0  0  0  0  0  0  0
  1  2  2  0  0  0  0
  3  1  1  0  0  0  0
  4 10  1  0  0  0  0
  4  3  1  0  0  0  0
  5  4  1  0  0  0  0
  6  5  1  0  0  0  0
  6  7  1  0  0  0  0
  7  8  1  0  0  0  0
  7 16  1  0  0  0  0
  8  3  1  0  0  0  0
  8 17  1  1  0  0  0
  9  4  1  0  0  0  0
 11  5  1  0  0  0  0
 12  5  1  0  0  0  0
 13  6  1  0  0  0  0
 14  6  1  0  0  0  0
 15  7  1  0  0  0  0
 18 19  1  0  0  0  0
 19  1  1  0  0  0  0
 19 20  2  0  0  0  0
 20 26  1  0  0  0  0
 21 20  1  0  0  0  0
 22 21  2  0  0  0  0
 23 18  2  0  0  0  0
 23 22  1  0  0  0  0
 24 18  1  0  0  0  0
 25 22  1  0  0  0  0
 26 27  1  0  0  0  0
 27 32  1  0  0  0  0
 27 28  2  0  0  0  0
 28 33  1  0  0  0  0
 29 28  1  0  0  0  0
 29 34  1  0  0  0  0
 30 29  2  0  0  0  0
 31 26  2  0  0  0  0
 31 30  1  0  0  0  0
 35 30  1  0  0  0  0
 36  8  1  0  0  0  0
 36 37  1  0  0  0  0
 37 41  1  0  0  0  0
 37 39  1  0  0  0  0
 38 37  1  0  0  0  0
 39 40  1  0  0  0  0
 41 42  1  0  0  0  0
M  END
>  <minimizedAffinity>
-4.93191099

$$$$

 OpenBabel03252507213D

 42 44  0  0  1  0  0  0  0  0999 V2000
   38.6260   27.5950   39.8010 C   0  0  0  0  0  0  0  0  0  0  0  0
   39.7770   27.0690   39.6340 O   0  0  0  0  0  0  0  0  0  0  0  0
   37.7650   27.9760   38.7000 N   0  0  0  0  0  0  0  0  0  0  0  0
   36.3380   27.7800   38.4970 C   0  0  0  0  0  0  0  0  0  0  0  0
   35.7070   29.1320   38.1600 C   0  0  0  0  0  0  0  0  0  0  0  0
   36.2550   29.6440   36.8520 C   0  0  0  0  0  0  0  0  0  0  0  0
   37.4890   28.8680   36.4810 C   0  0  0  0  0  0  0  0  0  0  0  0
   38.4460   28.6790   37.6070 C   0  0  1  0  0  0  0  0  0  0  0  0
   35.9200   27.5330   39.5160 H   0  0  0  0  0  0  0  0  0  0  0  0
   36.1050   27.0310   37.7420 H   0  0  0  0  0  0  0  0  0  0  0  0
   36.0470   29.8160   38.9900 H   0  0  0  0  0  0  0  0  0  0  0  0
   34.6090   29.0720   38.1770 H   0  0  0  0  0  0  0  0  0  0  0  0
   35.4840   29.3820   36.0820 H   0  0  0  0  0  0  0  0  0  0  0  0
   36.3790   30.7240   36.8120 H   0  0  0  0  0  0  0  0  0  0  0  0
   37.9820   29.3750   35.6440 H   0  0  0  0  0  0  0  0  0  0  0  0
   37.2050   27.8440   36.1250 H   0  0  0  0  0  0  0  0  0  0  0  0
   39.2060   27.9400   37.2780 H   0  0  0  0  0  0  0  0  0  0  0  0
   38.2450   29.1060   41.6690 C   0  0  0  0  0  0  0  0  0  0  0  0
   38.1620   27.8180   41.1360 C   0  0  0  0  0  0  0  0  0  0  0  0
   37.6350   26.7950   41.9020 C   0  0  0  0  0  0  0  0  0  0  0  0
   37.2170   27.0880   43.1530 N   0  0  0  0  0  0  0  0  0  0  0  0
   37.2960   28.3400   43.6780 C   0  0  0  0  0  0  0  0  0  0  0  0
   37.8110   29.3300   42.9240 N   0  0  0  0  0  0  0  0  0  0  0  0
   38.6350   29.9480   41.1500 H   0  0  0  0  0  0  0  0  0  0  0  0
   36.9460   28.5190   44.6880 H   0  0  0  0  0  0  0  0  0  0  0  0
   37.5590   25.4620   41.3420 C   0  0  0  0  0  0  0  0  0  0  0  0
   38.5270   24.5450   41.6230 C   0  0  0  0  0  0  0  0  0  0  0  0
   38.4390   23.2820   41.0810 C   0  0  0  0  0  0  0  0  0  0  0  0
   37.3900   22.8940   40.2500 C   0  0  0  0  0  0  0  0  0  0  0  0
   36.4380   23.8670   40.0010 C   0  0  0  0  0  0  0  0  0  0  0  0
   36.5550   25.0880   40.5440 N   0  0  0  0  0  0  0  0  0  0  0  0
   39.3950   24.6910   42.2390 H   0  0  0  0  0  0  0  0  0  0  0  0
   39.1770   22.5070   41.2660 H   0  0  0  0  0  0  0  0  0  0  0  0
   37.3450   21.8980   39.8380 H   0  0  0  0  0  0  0  0  0  0  0  0
   35.6160   23.6090   39.3670 H   0  0  0  0  0  0  0  0  0  0  0  0
   39.1580   29.8950   38.0820 C   0  0  0  0  0  2  0  0  0  0  0  0
   40.2350   30.2230   37.1850 N   0  0  0  0  0  4  0  0  0  0  0  0
   39.8640   30.3250   36.2190 H   0  0  0  0  0  0  0  0  0  0  0  0
   41.2780   29.2380   37.1720 C   0  0  0  0  0  2  0  0  0  0  0  0
   42.0310   29.6090   36.4230 H   0  0  0  0  0  0  0  0  0  0  0  0
   40.8630   31.4920   37.5380 C   0  0  0  0  0  2  0  0  0  0  0  0
   41.8630   31.4900   37.0550 H   0  0  0  0  0  0  0  0  0  0  0  0
  1 19  1  0  0  0  0
  2  1  2  0  0  0  0
  3  1  1  0  0  0  0
  4  3  1  0  0  0  0
  4  9  1  0  0  0  0
  5 12  1  0  0  0  0
  5  4  1  0  0  0  0
  5 11  1  0  0  0  0
  6  5  1  0  0  0  0
  7  6  1  0  0  0  0
  7  8  1  0  0  0  0
  8 17  1  6  0  0  0
  8 36  1  0  0  0  0
  8  3  1  0  0  0  0
 10  4  1  0  0  0  0
 13  6  1  0  0  0  0
 14  6  1  0  0  0  0
 15  7  1  0  0  0  0
 16  7  1  0  0  0  0
 18 23  1  0  0  0  0
 19 18  2  0  0  0  0
 19 20  1  0  0  0  0
 20 21  2  0  0  0  0
 21 22  1  0  0  0  0
 22 25  1  0  0  0  0
 23 22  2  0  0  0  0
 24 18  1  0  0  0  0
 26 27  1  0  0  0  0
 26 20  1  0  0  0  0
 27 32  1  0  0  0  0
 28 33  1  0  0  0  0
 28 27  2  0  0  0  0
 29 28  1  0  0  0  0
 30 29  2  0  0  0  0
 30 31  1  0  0  0  0
 31 26  2  0  0  0  0
 34 29  1  0  0  0  0
 35 30  1  0  0  0  0
 37 41  1  0  0  0  0
 37 36  1  0  0  0  0
 38 37  1  0  0  0  0
 39 37  1  0  0  0  0
 40 39  1  0  0  0  0
 42 41  1  0  0  0  0
M  END
>  <minimizedAffinity>
-4.81872749

$$$$

 OpenBabel03252507213D

 42 44  0  0  1  0  0  0  0  0999 V2000
   38.8430   29.2140   40.4020 C   0  0  0  0  0  0  0  0  0  0  0  0
   39.2750   28.6880   39.3220 O   0  0  0  0  0  0  0  0  0  0  0  0
   38.3660   28.4330   41.5250 N   0  0  0  0  0  0  0  0  0  0  0  0
   38.6150   28.5690   42.9520 C   0  0  0  0  0  0  0  0  0  0  0  0
   37.2690   28.6020   43.6760 C   0  0  0  0  0  0  0  0  0  0  0  0
   36.5540   27.2870   43.4940 C   0  0  0  0  0  0  0  0  0  0  0  0
   37.2000   26.5090   42.3820 C   0  0  0  0  0  0  0  0  0  0  0  0
   37.4840   27.3180   41.1630 C   0  0  1  0  0  0  0  0  0  0  0  0
   39.0210   29.6130   43.0880 H   0  0  0  0  0  0  0  0  0  0  0  0
   39.2670   27.7950   43.3550 H   0  0  0  0  0  0  0  0  0  0  0  0
   36.6840   29.4100   43.1490 H   0  0  0  0  0  0  0  0  0  0  0  0
   37.3930   28.8850   44.7320 H   0  0  0  0  0  0  0  0  0  0  0  0
   36.7530   26.7060   44.4320 H   0  0  0  0  0  0  0  0  0  0  0  0
   35.4730   27.3750   43.4080 H   0  0  0  0  0  0  0  0  0  0  0  0
   36.5560   25.6570   42.1320 H   0  0  0  0  0  0  0  0  0  0  0  0
   38.1810   26.0900   42.7260 H   0  0  0  0  0  0  0  0  0  0  0  0
   38.1270   26.7040   40.4980 H   0  0  0  0  0  0  0  0  0  0  0  0
   37.6390   31.3230   40.2510 C   0  0  0  0  0  0  0  0  0  0  0  0
   38.8300   30.6400   40.5120 C   0  0  0  0  0  0  0  0  0  0  0  0
   39.9600   31.3520   40.8690 C   0  0  0  0  0  0  0  0  0  0  0  0
   39.8650   32.6970   40.9520 N   0  0  0  0  0  0  0  0  0  0  0  0
   38.7090   33.3670   40.7000 C   0  0  0  0  0  0  0  0  0  0  0  0
   37.6130   32.6660   40.3520 N   0  0  0  0  0  0  0  0  0  0  0  0
   36.7260   30.8550   39.9710 H   0  0  0  0  0  0  0  0  0  0  0  0
   38.6890   34.4470   40.7810 H   0  0  0  0  0  0  0  0  0  0  0  0
   41.1900   30.6350   41.1320 C   0  0  0  0  0  0  0  0  0  0  0  0
   41.5440   30.3290   42.4120 C   0  0  0  0  0  0  0  0  0  0  0  0
   42.7170   29.6460   42.6450 C   0  0  0  0  0  0  0  0  0  0  0  0
   43.5690   29.2480   41.6160 C   0  0  0  0  0  0  0  0  0  0  0  0
   43.1560   29.5860   40.3390 C   0  0  0  0  0  0  0  0  0  0  0  0
   42.0080   30.2520   40.1490 N   0  0  0  0  0  0  0  0  0  0  0  0
   41.0000   30.5690   43.3070 H   0  0  0  0  0  0  0  0  0  0  0  0
   43.0540   29.3740   43.6400 H   0  0  0  0  0  0  0  0  0  0  0  0
   44.4830   28.7140   41.8250 H   0  0  0  0  0  0  0  0  0  0  0  0
   43.7830   29.2980   39.5210 H   0  0  0  0  0  0  0  0  0  0  0  0
   36.3040   27.7700   40.3780 C   0  0  0  0  0  2  0  0  0  0  0  0
   36.4350   27.3630   39.0040 N   0  0  0  0  0  4  0  0  0  0  0  0
   37.3920   27.5870   38.6650 H   0  0  0  0  0  0  0  0  0  0  0  0
   35.4840   27.9950   38.1360 C   0  0  0  0  0  2  0  0  0  0  0  0
   35.7140   27.6050   37.1060 H   0  0  0  0  0  0  0  0  0  0  0  0
   36.2510   25.9240   38.8490 C   0  0  0  0  0  2  0  0  0  0  0  0
   36.0110   25.7550   37.7780 H   0  0  0  0  0  0  0  0  0  0  0  0
  1 19  1  0  0  0  0
  1  3  1  0  0  0  0
  2  1  2  0  0  0  0
  3  4  1  0  0  0  0
  4  9  1  0  0  0  0
  4 10  1  0  0  0  0
  4  5  1  0  0  0  0
  5 12  1  0  0  0  0
  6  5  1  0  0  0  0
  6 13  1  0  0  0  0
  7 16  1  0  0  0  0
  7  6  1  0  0  0  0
  8 17  1  6  0  0  0
  8  3  1  0  0  0  0
  8  7  1  0  0  0  0
 11  5  1  0  0  0  0
 14  6  1  0  0  0  0
 15  7  1  0  0  0  0
 18 23  2  0  0  0  0
 18 19  1  0  0  0  0
 19 20  2  0  0  0  0
 20 21  1  0  0  0  0
 20 26  1  0  0  0  0
 22 25  1  0  0  0  0
 22 21  2  0  0  0  0
 23 22  1  0  0  0  0
 24 18  1  0  0  0  0
 26 27  1  0  0  0  0
 27 28  2  0  0  0  0
 27 32  1  0  0  0  0
 28 33  1  0  0  0  0
 29 34  1  0  0  0  0
 29 28  1  0  0  0  0
 30 29  2  0  0  0  0
 31 30  1  0  0  0  0
 31 26  2  0  0  0  0
 35 30  1  0  0  0  0
 36  8  1  0  0  0  0
 37 36  1  0  0  0  0
 38 37  1  0  0  0  0
 39 37  1  0  0  0  0
 40 39  1  0  0  0  0
 41 37  1  0  0  0  0
 42 41  1  0  0  0  0
M  END
>  <minimizedAffinity>
-4.77507162

$$$$

 OpenBabel03252507213D

 42 44  0  0  1  0  0  0  0  0999 V2000
   38.6680   29.2170   39.9250 C   0  0  0  0  0  0  0  0  0  0  0  0
   39.1300   28.3470   39.1140 O   0  0  0  0  0  0  0  0  0  0  0  0
   38.6750   30.6390   39.6470 N   0  0  0  0  0  0  0  0  0  0  0  0
   37.6460   31.6490   39.8320 C   0  0  0  0  0  0  0  0  0  0  0  0
   38.2430   32.8090   40.6290 C   0  0  0  0  0  0  0  0  0  0  0  0
   39.3440   33.4660   39.8360 C   0  0  0  0  0  0  0  0  0  0  0  0
   39.7510   32.5720   38.6970 C   0  0  0  0  0  0  0  0  0  0  0  0
   39.9330   31.1450   39.0830 C   0  0  1  0  0  0  0  0  0  0  0  0
   36.8980   31.1900   40.5410 H   0  0  0  0  0  0  0  0  0  0  0  0
   37.2010   31.9930   38.8990 H   0  0  0  0  0  0  0  0  0  0  0  0
   38.6940   32.3210   41.5420 H   0  0  0  0  0  0  0  0  0  0  0  0
   37.4620   33.5120   40.9520 H   0  0  0  0  0  0  0  0  0  0  0  0
   38.8760   34.3700   39.3660 H   0  0  0  0  0  0  0  0  0  0  0  0
   40.1750   33.8270   40.4390 H   0  0  0  0  0  0  0  0  0  0  0  0
   40.6730   32.9670   38.2560 H   0  0  0  0  0  0  0  0  0  0  0  0
   38.9680   32.5920   37.8960 H   0  0  0  0  0  0  0  0  0  0  0  0
   40.0340   30.5560   38.1470 H   0  0  0  0  0  0  0  0  0  0  0  0
   38.8890   28.8910   42.3270 C   0  0  0  0  0  0  0  0  0  0  0  0
   38.1170   28.7720   41.1680 C   0  0  0  0  0  0  0  0  0  0  0  0
   36.8470   28.2310   41.2470 C   0  0  0  0  0  0  0  0  0  0  0  0
   36.3980   27.8350   42.4580 N   0  0  0  0  0  0  0  0  0  0  0  0
   37.1450   27.9490   43.5890 C   0  0  0  0  0  0  0  0  0  0  0  0
   38.3810   28.4760   43.5030 N   0  0  0  0  0  0  0  0  0  0  0  0
   39.8720   29.2940   42.3550 H   0  0  0  0  0  0  0  0  0  0  0  0
   36.7350   27.6150   44.5350 H   0  0  0  0  0  0  0  0  0  0  0  0
   36.0580   28.1070   40.0390 C   0  0  0  0  0  0  0  0  0  0  0  0
   35.1310   29.0560   39.7260 C   0  0  0  0  0  0  0  0  0  0  0  0
   34.3900   28.9230   38.5740 C   0  0  0  0  0  0  0  0  0  0  0  0
   34.5480   27.8480   37.7010 C   0  0  0  0  0  0  0  0  0  0  0  0
   35.5030   26.9180   38.0710 C   0  0  0  0  0  0  0  0  0  0  0  0
   36.2070   27.0780   39.2010 N   0  0  0  0  0  0  0  0  0  0  0  0
   34.8900   29.9350   40.2960 H   0  0  0  0  0  0  0  0  0  0  0  0
   33.6360   29.6430   38.2700 H   0  0  0  0  0  0  0  0  0  0  0  0
   33.9530   27.7670   36.8040 H   0  0  0  0  0  0  0  0  0  0  0  0
   35.6550   26.0770   37.4270 H   0  0  0  0  0  0  0  0  0  0  0  0
   41.0990   30.8370   39.9530 C   0  0  0  0  0  2  0  0  0  0  0  0
   42.3000   30.7540   39.1640 N   0  0  0  0  0  4  0  0  0  0  0  0
   42.5070   31.6840   38.7470 H   0  0  0  0  0  0  0  0  0  0  0  0
   42.2130   29.7890   38.1060 C   0  0  0  0  0  2  0  0  0  0  0  0
   43.1990   29.8470   37.5670 H   0  0  0  0  0  0  0  0  0  0  0  0
   43.4530   30.3820   39.9760 C   0  0  0  0  0  2  0  0  0  0  0  0
   44.2190   29.9970   39.2700 H   0  0  0  0  0  0  0  0  0  0  0  0
  1 19  1  0  0  0  0
  2  1  2  0  0  0  0
  3  4  1  0  0  0  0
  3  1  1  0  0  0  0
  4  9  1  0  0  0  0
  4  5  1  0  0  0  0
  5 12  1  0  0  0  0
  5 11  1  0  0  0  0
  6 14  1  0  0  0  0
  6  5  1  0  0  0  0
  7  8  1  0  0  0  0
  7  6  1  0  0  0  0
  8 17  1  6  0  0  0
  8  3  1  0  0  0  0
  8 36  1  0  0  0  0
 10  4  1  0  0  0  0
 13  6  1  0  0  0  0
 15  7  1  0  0  0  0
 16  7  1  0  0  0  0
 18 24  1  0  0  0  0
 18 23  1  0  0  0  0
 19 20  1  0  0  0  0
 19 18  2  0  0  0  0
 20 21  2  0  0  0  0
 21 22  1  0  0  0  0
 22 25  1  0  0  0  0
 23 22  2  0  0  0  0
 26 20  1  0  0  0  0
 27 26  1  0  0  0  0
 27 32  1  0  0  0  0
 28 27  2  0  0  0  0
 29 30  2  0  0  0  0
 29 28  1  0  0  0  0
 30 31  1  0  0  0  0
 31 26  2  0  0  0  0
 33 28  1  0  0  0  0
 34 29  1  0  0  0  0
 35 30  1  0  0  0  0
 37 36  1  0  0  0  0
 37 41  1  0  0  0  0
 38 37  1  0  0  0  0
 39 37  1  0  0  0  0
 40 39  1  0  0  0  0
 42 41  1  0  0  0  0
M  END
>  <minimizedAffinity>
-4.7693119

$$$$

 OpenBabel03252507213D

 42 44  0  0  1  0  0  0  0  0999 V2000
   38.7520   29.4100   39.9830 C   0  0  0  0  0  0  0  0  0  0  0  0
   39.2370   29.4620   41.1620 O   0  0  0  0  0  0  0  0  0  0  0  0
   37.3410   29.5800   39.7010 N   0  0  0  0  0  0  0  0  0  0  0  0
   36.6630   30.3500   38.6700 C   0  0  0  0  0  0  0  0  0  0  0  0
   35.6830   29.4280   37.9440 C   0  0  0  0  0  0  0  0  0  0  0  0
   34.6120   28.9620   38.8980 C   0  0  0  0  0  0  0  0  0  0  0  0
   35.0370   29.2410   40.3130 C   0  0  0  0  0  0  0  0  0  0  0  0
   36.4450   28.8540   40.6090 C   0  0  1  0  0  0  0  0  0  0  0  0
   37.4510   30.5720   37.8940 H   0  0  0  0  0  0  0  0  0  0  0  0
   36.1670   31.2430   39.0490 H   0  0  0  0  0  0  0  0  0  0  0  0
   36.3070   28.5400   37.6350 H   0  0  0  0  0  0  0  0  0  0  0  0
   35.2800   29.9100   37.0410 H   0  0  0  0  0  0  0  0  0  0  0  0
   33.7300   29.6260   38.7040 H   0  0  0  0  0  0  0  0  0  0  0  0
   34.2750   27.9420   38.7260 H   0  0  0  0  0  0  0  0  0  0  0  0
   34.3500   28.7240   40.9920 H   0  0  0  0  0  0  0  0  0  0  0  0
   34.9520   30.3370   40.5290 H   0  0  0  0  0  0  0  0  0  0  0  0
   36.7060   29.2790   41.6010 H   0  0  0  0  0  0  0  0  0  0  0  0
   39.5830   27.9410   38.2300 C   0  0  0  0  0  0  0  0  0  0  0  0
   39.6390   29.1730   38.8860 C   0  0  0  0  0  0  0  0  0  0  0  0
   40.5440   30.1300   38.4630 C   0  0  0  0  0  0  0  0  0  0  0  0
   41.3460   29.8290   37.4190 N   0  0  0  0  0  0  0  0  0  0  0  0
   41.2960   28.6320   36.7770 C   0  0  0  0  0  0  0  0  0  0  0  0
   40.4120   27.7060   37.1950 N   0  0  0  0  0  0  0  0  0  0  0  0
   38.9190   27.1520   38.4890 H   0  0  0  0  0  0  0  0  0  0  0  0
   41.9640   28.4440   35.9440 H   0  0  0  0  0  0  0  0  0  0  0  0
   40.5980   31.4020   39.1540 C   0  0  0  0  0  0  0  0  0  0  0  0
   41.6050   31.6590   40.0360 C   0  0  0  0  0  0  0  0  0  0  0  0
   41.6420   32.8730   40.6840 C   0  0  0  0  0  0  0  0  0  0  0  0
   40.6840   33.8640   40.4750 C   0  0  0  0  0  0  0  0  0  0  0  0
   39.6880   33.5450   39.5690 C   0  0  0  0  0  0  0  0  0  0  0  0
   39.6820   32.3530   38.9560 N   0  0  0  0  0  0  0  0  0  0  0  0
   42.4100   31.0000   40.3070 H   0  0  0  0  0  0  0  0  0  0  0  0
   42.4160   33.1380   41.3970 H   0  0  0  0  0  0  0  0  0  0  0  0
   40.7360   34.8070   40.9960 H   0  0  0  0  0  0  0  0  0  0  0  0
   38.9330   34.2790   39.3810 H   0  0  0  0  0  0  0  0  0  0  0  0
   36.7400   27.3970   40.6380 C   0  0  0  0  0  2  0  0  0  0  0  0
   37.4240   27.0520   41.8560 N   0  0  0  0  0  4  0  0  0  0  0  0
   38.3120   27.5890   41.9200 H   0  0  0  0  0  0  0  0  0  0  0  0
   37.7280   25.6540   41.9550 C   0  0  0  0  0  2  0  0  0  0  0  0
   38.2730   25.5340   42.9320 H   0  0  0  0  0  0  0  0  0  0  0  0
   36.6310   27.3910   43.0330 C   0  0  0  0  0  2  0  0  0  0  0  0
   37.0430   26.7880   43.8700 H   0  0  0  0  0  0  0  0  0  0  0  0
  1  2  2  0  0  0  0
  3  1  1  0  0  0  0
  3  8  1  0  0  0  0
  4 10  1  0  0  0  0
  4  3  1  0  0  0  0
  5  4  1  0  0  0  0
  5  6  1  0  0  0  0
  6  7  1  0  0  0  0
  7 16  1  0  0  0  0
  7  8  1  0  0  0  0
  7 15  1  0  0  0  0
  8 36  1  0  0  0  0
  8 17  1  1  0  0  0
  9  4  1  0  0  0  0
 11  5  1  0  0  0  0
 12  5  1  0  0  0  0
 13  6  1  0  0  0  0
 14  6  1  0  0  0  0
 18 24  1  0  0  0  0
 18 19  1  0  0  0  0
 19  1  1  0  0  0  0
 20 19  2  0  0  0  0
 20 26  1  0  0  0  0
 21 20  1  0  0  0  0
 22 23  1  0  0  0  0
 22 21  2  0  0  0  0
 23 18  2  0  0  0  0
 25 22  1  0  0  0  0
 26 27  1  0  0  0  0
 27 32  1  0  0  0  0
 27 28  2  0  0  0  0
 28 33  1  0  0  0  0
 29 28  1  0  0  0  0
 29 34  1  0  0  0  0
 30 29  2  0  0  0  0
 31 26  2  0  0  0  0
 31 30  1  0  0  0  0
 35 30  1  0  0  0  0
 36 37  1  0  0  0  0
 37 38  1  0  0  0  0
 37 39  1  0  0  0  0
 37 41  1  0  0  0  0
 39 40  1  0  0  0  0
 41 42  1  0  0  0  0
M  END
>  <minimizedAffinity>
-4.70163441

$$$$
