
 OpenBabel03252507193D

 42 44  0  0  1  0  0  0  0  0999 V2000
   46.8810   31.8000   43.7820 C   0  0  0  0  0  0  0  0  0  0  0  0
   47.9040   31.1300   43.4180 O   0  0  0  0  0  0  0  0  0  0  0  0
   46.1030   32.6120   42.8680 N   0  0  0  0  0  0  0  0  0  0  0  0
   44.6640   32.7480   42.7060 C   0  0  0  0  0  0  0  0  0  0  0  0
   44.3090   34.2340   42.7640 C   0  0  0  0  0  0  0  0  0  0  0  0
   44.9370   34.9600   41.6010 C   0  0  0  0  0  0  0  0  0  0  0  0
   45.9910   34.0910   40.9710 C   0  0  0  0  0  0  0  0  0  0  0  0
   46.9010   33.4370   41.9540 C   0  0  1  0  0  0  0  0  0  0  0  0
   44.2140   32.3250   43.6500 H   0  0  0  0  0  0  0  0  0  0  0  0
   44.2820   32.2810   41.7990 H   0  0  0  0  0  0  0  0  0  0  0  0
   44.7830   34.6000   43.7200 H   0  0  0  0  0  0  0  0  0  0  0  0
   43.2210   34.3800   42.8300 H   0  0  0  0  0  0  0  0  0  0  0  0
   44.1230   35.0590   40.8360 H   0  0  0  0  0  0  0  0  0  0  0  0
   45.2700   35.9690   41.8320 H   0  0  0  0  0  0  0  0  0  0  0  0
   46.5670   34.6990   40.2650 H   0  0  0  0  0  0  0  0  0  0  0  0
   45.5080   33.2690   40.3820 H   0  0  0  0  0  0  0  0  0  0  0  0
   47.4980   32.6800   41.4020 H   0  0  0  0  0  0  0  0  0  0  0  0
   46.7220   32.8570   45.9670 C   0  0  0  0  0  0  0  0  0  0  0  0
   46.4800   31.7480   45.1540 C   0  0  0  0  0  0  0  0  0  0  0  0
   45.8610   30.6330   45.6880 C   0  0  0  0  0  0  0  0  0  0  0  0
   45.5120   30.6630   46.9930 N   0  0  0  0  0  0  0  0  0  0  0  0
   45.7450   31.7400   47.7890 C   0  0  0  0  0  0  0  0  0  0  0  0
   46.3490   32.8220   47.2610 N   0  0  0  0  0  0  0  0  0  0  0  0
   47.1910   33.7530   45.6380 H   0  0  0  0  0  0  0  0  0  0  0  0
   45.4440   31.7100   48.8300 H   0  0  0  0  0  0  0  0  0  0  0  0
   45.6200   29.4860   44.8380 C   0  0  0  0  0  0  0  0  0  0  0  0
   44.4580   29.3900   44.1310 C   0  0  0  0  0  0  0  0  0  0  0  0
   44.2440   28.2930   43.3270 C   0  0  0  0  0  0  0  0  0  0  0  0
   45.1750   27.2640   43.2010 C   0  0  0  0  0  0  0  0  0  0  0  0
   46.3350   27.4170   43.9410 C   0  0  0  0  0  0  0  0  0  0  0  0
   46.5100   28.4980   44.7140 N   0  0  0  0  0  0  0  0  0  0  0  0
   43.6460   30.0940   44.1260 H   0  0  0  0  0  0  0  0  0  0  0  0
   43.3410   28.1580   42.7400 H   0  0  0  0  0  0  0  0  0  0  0  0
   44.9830   26.4150   42.5630 H   0  0  0  0  0  0  0  0  0  0  0  0
   47.0750   26.6480   43.8710 H   0  0  0  0  0  0  0  0  0  0  0  0
   47.8420   34.3290   42.6810 C   0  0  0  0  0  2  0  0  0  0  0  0
   49.0050   34.5890   41.8740 N   0  0  0  0  0  4  0  0  0  0  0  0
   48.9020   34.1170   40.9540 H   0  0  0  0  0  0  0  0  0  0  0  0
   50.2250   34.1430   42.4830 C   0  0  0  0  0  2  0  0  0  0  0  0
   51.0370   34.3880   41.7420 H   0  0  0  0  0  0  0  0  0  0  0  0
   49.1680   36.0140   41.6070 C   0  0  0  0  0  2  0  0  0  0  0  0
   50.2290   36.1560   41.3130 H   0  0  0  0  0  0  0  0  0  0  0  0
  1 19  1  0  0  0  0
  2  1  2  0  0  0  0
  3  1  1  0  0  0  0
  4  5  1  0  0  0  0
  4  3  1  0  0  0  0
  4  9  1  0  0  0  0
  5 12  1  0  0  0  0
  5 11  1  0  0  0  0
  6 14  1  0  0  0  0
  6  5  1  0  0  0  0
  7  6  1  0  0  0  0
  7  8  1  0  0  0  0
  8 17  1  6  0  0  0
  8 36  1  0  0  0  0
  8  3  1  0  0  0  0
 10  4  1  0  0  0  0
 13  6  1  0  0  0  0
 15  7  1  0  0  0  0
 16  7  1  0  0  0  0
 18 23  1  0  0  0  0
 19 20  1  0  0  0  0
 19 18  2  0  0  0  0
 20 21  2  0  0  0  0
 21 22  1  0  0  0  0
 22 25  1  0  0  0  0
 23 22  2  0  0  0  0
 24 18  1  0  0  0  0
 26 20  1  0  0  0  0
 27 26  2  0  0  0  0
 28 27  1  0  0  0  0
 29 28  2  0  0  0  0
 29 30  1  0  0  0  0
 30 31  2  0  0  0  0
 31 26  1  0  0  0  0
 32 27  1  0  0  0  0
 33 28  1  0  0  0  0
 34 29  1  0  0  0  0
 35 30  1  0  0  0  0
 37 39  1  0  0  0  0
 37 36  1  0  0  0  0
 38 37  1  0  0  0  0
 40 39  1  0  0  0  0
 41 37  1  0  0  0  0
 42 41  1  0  0  0  0
M  END
>  <minimizedAffinity>
-4.18078279

>  <minimizedRMSD>
3.70068645

$$$$
