
 OpenBabel03242517373D

 31 32  0  0  0  0  0  0  0  0999 V2000
   42.9810   35.5740   41.1330 C   0  0  0  0  0  3  0  0  0  0  0  0
   42.5140   34.9140   40.1010 C   0  0  0  0  0  3  0  0  0  0  0  0
   44.4090   35.8570   43.1410 C   0  0  0  0  0  0  0  0  0  0  0  0
   43.8020   35.0290   42.1910 C   0  0  0  0  0  0  0  0  0  0  0  0
   44.0170   33.6680   42.3000 C   0  0  0  0  0  0  0  0  0  0  0  0
   44.8010   33.2000   43.3170 N   0  0  0  0  0  0  0  0  0  0  0  0
   45.3740   34.0240   44.2190 C   0  0  0  0  0  0  0  0  0  0  0  0
   45.1730   35.3390   44.1220 N   0  0  0  0  0  0  0  0  0  0  0  0
   44.2200   36.9280   43.0260 H   0  0  0  0  0  0  0  0  0  0  0  0
   43.5690   32.9780   41.5890 H   0  0  0  0  0  0  0  0  0  0  0  0
   46.2260   33.5170   45.3260 C   0  0  0  0  0  2  0  0  0  0  0  0
   47.4300   32.8600   44.8670 N   0  0  0  0  0  4  0  0  0  0  0  0
   48.1920   33.1230   45.5470 H   0  0  0  0  0  0  0  0  0  0  0  0
   47.3450   31.4300   44.8200 C   0  0  0  0  0  2  0  0  0  0  0  0
   47.0300   31.0950   43.8130 H   0  0  0  0  0  0  0  0  0  0  0  0
   47.8180   33.4460   43.5980 C   0  0  0  0  0  2  0  0  0  0  0  0
   48.2390   32.6510   42.9400 H   0  0  0  0  0  0  0  0  0  0  0  0
   41.6730   35.5180   39.0370 C   0  0  0  0  0  0  0  0  0  0  0  0
   42.2100   35.4650   38.0760 H   0  0  0  0  0  0  0  0  0  0  0  0
   41.4210   36.5690   39.3440 H   0  0  0  0  0  0  0  0  0  0  0  0
   40.3630   34.8070   38.9100 C   0  0  0  0  0  0  0  0  0  0  0  0
   39.8840   34.5230   37.6390 C   0  0  0  0  0  0  0  0  0  0  0  0
   38.6700   33.8640   37.4990 C   0  0  0  0  0  0  0  0  0  0  0  0
   37.9320   33.4870   38.6210 C   0  0  0  0  0  0  0  0  0  0  0  0
   38.4100   33.7690   39.8820 C   0  0  0  0  0  0  0  0  0  0  0  0
   39.6210   34.4280   40.0140 C   0  0  0  0  0  0  0  0  0  0  0  0
   40.4780   34.8260   36.7630 H   0  0  0  0  0  0  0  0  0  0  0  0
   38.3620   33.6760   36.4800 H   0  0  0  0  0  0  0  0  0  0  0  0
   37.0070   32.9810   38.3800 H   0  0  0  0  0  0  0  0  0  0  0  0
   37.8030   33.4590   40.7230 H   0  0  0  0  0  0  0  0  0  0  0  0
   39.9800   34.6420   41.0090 H   0  0  0  0  0  0  0  0  0  0  0  0
  1  4  1  0  0  0  0
  2  1  2  0  0  0  0
  3  8  1  0  0  0  0
  4  5  1  0  0  0  0
  4  3  2  0  0  0  0
  5  6  2  0  0  0  0
  6  7  1  0  0  0  0
  7 11  1  0  0  0  0
  8  7  2  0  0  0  0
  9  3  1  0  0  0  0
 10  5  1  0  0  0  0
 12 11  1  0  0  0  0
 12 13  1  0  0  0  0
 14 12  1  0  0  0  0
 15 14  1  0  0  0  0
 16 12  1  0  0  0  0
 17 16  1  0  0  0  0
 18 20  1  0  0  0  0
 18  2  1  0  0  0  0
 19 18  1  0  0  0  0
 21 18  1  0  0  0  0
 21 26  1  0  0  0  0
 22 21  2  0  0  0  0
 23 22  1  0  0  0  0
 23 24  2  0  0  0  0
 24 25  1  0  0  0  0
 25 26  2  0  0  0  0
 25 30  1  0  0  0  0
 26 31  1  0  0  0  0
 27 22  1  0  0  0  0
 28 23  1  0  0  0  0
 29 24  1  0  0  0  0
M  END
>  <minimizedAffinity>
-5.50502157

>  <minimizedRMSD>
1.33062696

$$$$
