
 OpenBabel03252508553D

 41 43  0  0  1  0  0  0  0  0999 V2000
   39.3500   28.7530   40.8640 C   0  0  0  0  0  0  0  0  0  0  0  0
   39.9410   27.6360   40.6620 O   0  0  0  0  0  0  0  0  0  0  0  0
   38.6130   28.4000   42.0660 N   0  0  0  0  0  0  0  0  0  0  0  0
   39.4320   27.9870   43.1890 C   0  0  0  0  0  0  0  0  0  0  0  0
   39.3450   26.4650   43.2030 C   0  0  0  0  0  0  0  0  0  0  0  0
   37.9370   26.0910   42.7500 C   0  0  0  0  0  0  0  0  0  0  0  0
   36.9320   27.1740   43.1470 C   0  0  0  0  0  0  0  0  0  0  0  0
   37.1640   28.4080   42.2870 C   0  0  2  0  0  0  0  0  0  0  0  0
   40.4950   28.2700   43.0840 H   0  0  0  0  0  0  0  0  0  0  0  0
   39.0030   28.3380   44.1590 H   0  0  0  0  0  0  0  0  0  0  0  0
   40.0310   26.0900   42.4150 H   0  0  0  0  0  0  0  0  0  0  0  0
   39.5800   26.0360   44.1940 H   0  0  0  0  0  0  0  0  0  0  0  0
   37.6110   25.1330   43.1670 H   0  0  0  0  0  0  0  0  0  0  0  0
   37.9110   26.0450   41.6360 H   0  0  0  0  0  0  0  0  0  0  0  0
   37.1420   27.4240   44.2210 H   0  0  0  0  0  0  0  0  0  0  0  0
   35.9330   26.7460   43.0120 H   0  0  0  0  0  0  0  0  0  0  0  0
   36.9230   29.2860   42.8970 H   0  0  0  0  0  0  0  0  0  0  0  0
   39.4270   29.9080   40.1310 O   0  0  0  0  0  0  0  0  0  0  0  0
   38.7080   30.1840   38.9840 C   0  0  0  0  0  0  0  0  0  0  0  0
   38.4880   31.5170   38.6460 C   0  0  0  0  0  0  0  0  0  0  0  0
   37.7580   31.7640   37.4810 C   0  0  0  0  0  0  0  0  0  0  0  0
   37.3070   30.6990   36.7480 N   0  0  0  0  0  0  0  0  0  0  0  0
   37.5430   29.4530   37.1110 C   0  0  0  0  0  0  0  0  0  0  0  0
   38.2470   29.1840   38.2350 N   0  0  0  0  0  0  0  0  0  0  0  0
   37.5740   32.7830   37.1980 H   0  0  0  0  0  0  0  0  0  0  0  0
   37.1960   28.5950   36.5460 H   0  0  0  0  0  0  0  0  0  0  0  0
   39.0100   32.5750   39.4930 C   0  0  0  0  0  0  0  0  0  0  0  0
   40.2260   33.1950   39.2710 C   0  0  0  0  0  0  0  0  0  0  0  0
   40.3250   34.1110   40.2810 C   0  0  0  0  0  0  0  0  0  0  0  0
   39.2330   34.0590   41.0820 N   0  0  0  0  0  0  0  0  0  0  0  0
   38.4660   33.1250   40.5770 N   0  0  0  0  0  0  0  0  0  0  0  0
   40.9260   32.9900   38.4730 H   0  0  0  0  0  0  0  0  0  0  0  0
   41.1470   34.8120   40.4670 H   0  0  0  0  0  0  0  0  0  0  0  0
   39.0010   34.6320   41.9460 H   0  0  0  0  0  0  0  0  0  0  0  0
   36.4040   28.3410   40.9940 C   0  0  0  0  0  2  0  0  0  0  0  0
   35.3830   29.3680   40.9380 N   0  0  0  0  0  4  0  0  0  0  0  0
   34.6660   29.2490   41.6760 H   0  0  0  0  0  0  0  0  0  0  0  0
   34.6740   29.2870   39.6520 C   0  0  0  0  0  2  0  0  0  0  0  0
   34.0660   30.1850   39.4850 H   0  0  0  0  0  0  0  0  0  0  0  0
   35.9350   30.6970   41.0800 C   0  0  0  0  0  2  0  0  0  0  0  0
   36.9390   30.7980   40.6020 H   0  0  0  0  0  0  0  0  0  0  0  0
  1  3  1  0  0  0  0
  2  1  2  0  0  0  0
  3  8  1  0  0  0  0
  3  4  1  0  0  0  0
  4  5  1  0  0  0  0
  4 10  1  0  0  0  0
  5 12  1  0  0  0  0
  6  7  1  0  0  0  0
  6 13  1  0  0  0  0
  6  5  1  0  0  0  0
  7 15  1  0  0  0  0
  8 17  1  1  0  0  0
  8  7  1  0  0  0  0
  9  4  1  0  0  0  0
 11  5  1  0  0  0  0
 14  6  1  0  0  0  0
 16  7  1  0  0  0  0
 18  1  1  0  0  0  0
 19 18  1  0  0  0  0
 20 19  1  0  0  0  0
 20 27  1  0  0  0  0
 21 20  2  0  0  0  0
 22 23  2  0  0  0  0
 22 21  1  0  0  0  0
 23 24  1  0  0  0  0
 24 19  2  0  0  0  0
 25 21  1  0  0  0  0
 26 23  1  0  0  0  0
 27 31  2  0  0  0  0
 28 27  1  0  0  0  0
 28 29  2  0  0  0  0
 29 33  1  0  0  0  0
 29 30  1  0  0  0  0
 30 34  1  0  0  0  0
 31 30  1  0  0  0  0
 32 28  1  0  0  0  0
 35  8  1  0  0  0  0
 36 35  1  0  0  0  0
 36 40  1  0  0  0  0
 36 37  1  0  0  0  0
 38 36  1  0  0  0  0
 39 38  1  0  0  0  0
 41 40  1  0  0  0  0
M  END
>  <minimizedAffinity>
-5.57159901

$$$$

 OpenBabel03252508553D

 41 43  0  0  1  0  0  0  0  0999 V2000
   39.1920   28.6270   40.4540 C   0  0  0  0  0  0  0  0  0  0  0  0
   39.7200   27.4660   40.5670 O   0  0  0  0  0  0  0  0  0  0  0  0
   38.7920   28.8250   41.8370 N   0  0  0  0  0  0  0  0  0  0  0  0
   39.8750   28.7930   42.8000 C   0  0  0  0  0  0  0  0  0  0  0  0
   39.8070   27.4050   43.4260 C   0  0  0  0  0  0  0  0  0  0  0  0
   38.3320   27.0190   43.5060 C   0  0  0  0  0  0  0  0  0  0  0  0
   37.4550   28.2610   43.6790 C   0  0  0  0  0  0  0  0  0  0  0  0
   37.4490   29.0510   42.3780 C   0  0  2  0  0  0  0  0  0  0  0  0
   40.8740   28.9140   42.3420 H   0  0  0  0  0  0  0  0  0  0  0  0
   39.7080   29.5230   43.6290 H   0  0  0  0  0  0  0  0  0  0  0  0
   40.2690   26.6970   42.7060 H   0  0  0  0  0  0  0  0  0  0  0  0
   40.2920   27.3620   44.4180 H   0  0  0  0  0  0  0  0  0  0  0  0
   38.1320   26.3260   44.3290 H   0  0  0  0  0  0  0  0  0  0  0  0
   38.0210   26.5590   42.5400 H   0  0  0  0  0  0  0  0  0  0  0  0
   37.9330   28.8780   44.4870 H   0  0  0  0  0  0  0  0  0  0  0  0
   36.4580   27.9090   43.9650 H   0  0  0  0  0  0  0  0  0  0  0  0
   37.3660   30.1130   42.6370 H   0  0  0  0  0  0  0  0  0  0  0  0
   39.0690   29.4070   39.3340 O   0  0  0  0  0  0  0  0  0  0  0  0
   40.1070   29.8150   38.5190 C   0  0  0  0  0  0  0  0  0  0  0  0
   40.5710   31.1230   38.6430 C   0  0  0  0  0  0  0  0  0  0  0  0
   41.6200   31.5060   37.8050 C   0  0  0  0  0  0  0  0  0  0  0  0
   42.1260   30.5900   36.9230 N   0  0  0  0  0  0  0  0  0  0  0  0
   41.6520   29.3620   36.8440 C   0  0  0  0  0  0  0  0  0  0  0  0
   40.6360   28.9630   37.6420 N   0  0  0  0  0  0  0  0  0  0  0  0
   41.9960   32.5090   37.8810 H   0  0  0  0  0  0  0  0  0  0  0  0
   42.0390   28.6210   36.1530 H   0  0  0  0  0  0  0  0  0  0  0  0
   39.9630   32.0170   39.6120 C   0  0  0  0  0  0  0  0  0  0  0  0
   39.0500   32.9990   39.2720 C   0  0  0  0  0  0  0  0  0  0  0  0
   38.7400   33.5960   40.4620 C   0  0  0  0  0  0  0  0  0  0  0  0
   39.4220   33.0160   41.4790 N   0  0  0  0  0  0  0  0  0  0  0  0
   40.1460   32.0730   40.9300 N   0  0  0  0  0  0  0  0  0  0  0  0
   38.6770   33.2280   38.2830 H   0  0  0  0  0  0  0  0  0  0  0  0
   38.0460   34.4280   40.6290 H   0  0  0  0  0  0  0  0  0  0  0  0
   39.4080   33.2420   42.5180 H   0  0  0  0  0  0  0  0  0  0  0  0
   36.3820   28.5720   41.4370 C   0  0  0  0  0  2  0  0  0  0  0  0
   35.4840   29.6500   41.0770 N   0  0  0  0  0  4  0  0  0  0  0  0
   34.7990   29.8570   41.8260 H   0  0  0  0  0  0  0  0  0  0  0  0
   34.7010   29.2640   39.8930 C   0  0  0  0  0  2  0  0  0  0  0  0
   34.1910   30.1350   39.4620 H   0  0  0  0  0  0  0  0  0  0  0  0
   36.1900   30.8780   40.7860 C   0  0  0  0  0  2  0  0  0  0  0  0
   37.1720   30.6990   40.2850 H   0  0  0  0  0  0  0  0  0  0  0  0
  1  2  2  0  0  0  0
  1  3  1  0  0  0  0
  3  8  1  0  0  0  0
  3  4  1  0  0  0  0
  4  5  1  0  0  0  0
  4 10  1  0  0  0  0
  5  6  1  0  0  0  0
  5 12  1  0  0  0  0
  6  7  1  0  0  0  0
  6 13  1  0  0  0  0
  7 16  1  0  0  0  0
  7 15  1  0  0  0  0
  8 17  1  1  0  0  0
  8  7  1  0  0  0  0
  9  4  1  0  0  0  0
 11  5  1  0  0  0  0
 14  6  1  0  0  0  0
 18  1  1  0  0  0  0
 19 20  1  0  0  0  0
 19 18  1  0  0  0  0
 20 27  1  0  0  0  0
 21 25  1  0  0  0  0
 21 20  2  0  0  0  0
 22 21  1  0  0  0  0
 23 22  2  0  0  0  0
 23 24  1  0  0  0  0
 24 19  2  0  0  0  0
 26 23  1  0  0  0  0
 27 31  2  0  0  0  0
 28 27  1  0  0  0  0
 28 29  2  0  0  0  0
 29 33  1  0  0  0  0
 29 30  1  0  0  0  0
 30 34  1  0  0  0  0
 31 30  1  0  0  0  0
 32 28  1  0  0  0  0
 35  8  1  0  0  0  0
 36 35  1  0  0  0  0
 36 37  1  0  0  0  0
 38 36  1  0  0  0  0
 39 38  1  0  0  0  0
 40 36  1  0  0  0  0
 41 40  1  0  0  0  0
M  END
>  <minimizedAffinity>
-5.48269749

$$$$

 OpenBabel03252508553D

 41 43  0  0  1  0  0  0  0  0999 V2000
   39.5490   30.8310   40.9170 C   0  0  0  0  0  0  0  0  0  0  0  0
   39.9060   31.7430   41.7410 O   0  0  0  0  0  0  0  0  0  0  0  0
   38.9590   31.6760   39.8920 N   0  0  0  0  0  0  0  0  0  0  0  0
   39.8600   32.6450   39.3010 C   0  0  0  0  0  0  0  0  0  0  0  0
   39.5230   33.9660   39.9820 C   0  0  0  0  0  0  0  0  0  0  0  0
   38.0190   33.9680   40.2410 C   0  0  0  0  0  0  0  0  0  0  0  0
   37.2830   33.1520   39.1750 C   0  0  0  0  0  0  0  0  0  0  0  0
   37.5840   31.6740   39.3850 C   0  0  2  0  0  0  0  0  0  0  0  0
   40.9270   32.4240   39.4890 H   0  0  0  0  0  0  0  0  0  0  0  0
   39.6520   32.7870   38.2130 H   0  0  0  0  0  0  0  0  0  0  0  0
   40.0050   33.9530   40.9820 H   0  0  0  0  0  0  0  0  0  0  0  0
   39.8330   34.8430   39.3840 H   0  0  0  0  0  0  0  0  0  0  0  0
   37.6060   34.9810   40.2600 H   0  0  0  0  0  0  0  0  0  0  0  0
   37.8130   33.4590   41.2100 H   0  0  0  0  0  0  0  0  0  0  0  0
   37.6960   33.4780   38.1840 H   0  0  0  0  0  0  0  0  0  0  0  0
   36.2180   33.3850   39.2750 H   0  0  0  0  0  0  0  0  0  0  0  0
   37.5900   31.1960   38.4000 H   0  0  0  0  0  0  0  0  0  0  0  0
   39.7050   29.4730   41.0210 O   0  0  0  0  0  0  0  0  0  0  0  0
   40.6170   28.8270   41.8330 C   0  0  0  0  0  0  0  0  0  0  0  0
   40.1330   28.0390   42.8740 C   0  0  0  0  0  0  0  0  0  0  0  0
   41.0780   27.3980   43.6780 C   0  0  0  0  0  0  0  0  0  0  0  0
   42.4070   27.5780   43.4010 N   0  0  0  0  0  0  0  0  0  0  0  0
   42.8150   28.3350   42.4010 C   0  0  0  0  0  0  0  0  0  0  0  0
   41.9220   28.9680   41.6070 N   0  0  0  0  0  0  0  0  0  0  0  0
   40.7310   26.7840   44.4870 H   0  0  0  0  0  0  0  0  0  0  0  0
   43.8620   28.4910   42.1650 H   0  0  0  0  0  0  0  0  0  0  0  0
   38.7010   27.9140   43.0830 C   0  0  0  0  0  0  0  0  0  0  0  0
   37.9660   26.8180   42.6680 C   0  0  0  0  0  0  0  0  0  0  0  0
   36.6870   27.1060   43.0570 C   0  0  0  0  0  0  0  0  0  0  0  0
   36.6350   28.3100   43.6760 N   0  0  0  0  0  0  0  0  0  0  0  0
   37.8630   28.7650   43.6730 N   0  0  0  0  0  0  0  0  0  0  0  0
   38.3360   25.9410   42.1550 H   0  0  0  0  0  0  0  0  0  0  0  0
   35.7930   26.4880   42.9150 H   0  0  0  0  0  0  0  0  0  0  0  0
   35.8010   28.8200   44.0930 H   0  0  0  0  0  0  0  0  0  0  0  0
   36.6320   31.0430   40.3600 C   0  0  0  0  0  2  0  0  0  0  0  0
   36.4480   29.6350   40.0680 N   0  0  0  0  0  4  0  0  0  0  0  0
   37.1360   29.0390   40.5640 H   0  0  0  0  0  0  0  0  0  0  0  0
   36.6520   29.3990   38.6310 C   0  0  0  0  0  2  0  0  0  0  0  0
   36.2950   28.4010   38.3460 H   0  0  0  0  0  0  0  0  0  0  0  0
   35.1300   29.1680   40.4330 C   0  0  0  0  0  2  0  0  0  0  0  0
   34.3400   29.9400   40.2670 H   0  0  0  0  0  0  0  0  0  0  0  0
  1 18  1  0  0  0  0
  1  2  2  0  0  0  0
  3  1  1  0  0  0  0
  4  9  1  0  0  0  0
  4  3  1  0  0  0  0
  4  5  1  0  0  0  0
  5  6  1  0  0  0  0
  5 11  1  0  0  0  0
  6 13  1  0  0  0  0
  6 14  1  0  0  0  0
  7 16  1  0  0  0  0
  7  8  1  0  0  0  0
  7  6  1  0  0  0  0
  8 17  1  6  0  0  0
  8  3  1  0  0  0  0
  8 35  1  0  0  0  0
 10  4  1  0  0  0  0
 12  5  1  0  0  0  0
 15  7  1  0  0  0  0
 18 19  1  0  0  0  0
 19 20  1  0  0  0  0
 20 27  1  0  0  0  0
 20 21  2  0  0  0  0
 21 25  1  0  0  0  0
 22 21  1  0  0  0  0
 23 22  2  0  0  0  0
 24 19  2  0  0  0  0
 24 23  1  0  0  0  0
 26 23  1  0  0  0  0
 27 31  2  0  0  0  0
 28 29  2  0  0  0  0
 28 27  1  0  0  0  0
 29 30  1  0  0  0  0
 30 34  1  0  0  0  0
 31 30  1  0  0  0  0
 32 28  1  0  0  0  0
 33 29  1  0  0  0  0
 36 35  1  0  0  0  0
 36 40  1  0  0  0  0
 36 37  1  0  0  0  0
 38 36  1  0  0  0  0
 39 38  1  0  0  0  0
 41 40  1  0  0  0  0
M  END
>  <minimizedAffinity>
-5.30133486

$$$$

 OpenBabel03252508553D

 41 43  0  0  1  0  0  0  0  0999 V2000
   39.1890   28.8240   40.8000 C   0  0  0  0  0  0  0  0  0  0  0  0
   40.2600   28.4670   41.4020 O   0  0  0  0  0  0  0  0  0  0  0  0
   38.2280   28.0770   41.5940 N   0  0  0  0  0  0  0  0  0  0  0  0
   38.2130   28.4030   43.0070 C   0  0  0  0  0  0  0  0  0  0  0  0
   38.9970   27.2830   43.6800 C   0  0  0  0  0  0  0  0  0  0  0  0
   38.7050   26.0000   42.9060 C   0  0  0  0  0  0  0  0  0  0  0  0
   37.3010   26.0410   42.2980 C   0  0  0  0  0  0  0  0  0  0  0  0
   37.2820   27.0470   41.1560 C   0  0  2  0  0  0  0  0  0  0  0  0
   38.7120   29.3610   43.2410 H   0  0  0  0  0  0  0  0  0  0  0  0
   37.1780   28.3620   43.4260 H   0  0  0  0  0  0  0  0  0  0  0  0
   40.0750   27.4970   43.5220 H   0  0  0  0  0  0  0  0  0  0  0  0
   38.7490   27.1760   44.7520 H   0  0  0  0  0  0  0  0  0  0  0  0
   38.7940   25.1110   43.5360 H   0  0  0  0  0  0  0  0  0  0  0  0
   39.4080   25.9240   42.0440 H   0  0  0  0  0  0  0  0  0  0  0  0
   36.6120   26.3900   43.1130 H   0  0  0  0  0  0  0  0  0  0  0  0
   37.0670   25.0230   41.9700 H   0  0  0  0  0  0  0  0  0  0  0  0
   36.2840   27.4970   41.1300 H   0  0  0  0  0  0  0  0  0  0  0  0
   39.0480   29.6660   39.7280 O   0  0  0  0  0  0  0  0  0  0  0  0
   38.8520   31.0320   39.7970 C   0  0  0  0  0  0  0  0  0  0  0  0
   37.5450   31.5130   39.7860 C   0  0  0  0  0  0  0  0  0  0  0  0
   37.3780   32.8980   39.8560 C   0  0  0  0  0  0  0  0  0  0  0  0
   38.4910   33.6920   39.9310 N   0  0  0  0  0  0  0  0  0  0  0  0
   39.7090   33.1860   39.9380 C   0  0  0  0  0  0  0  0  0  0  0  0
   39.9010   31.8500   39.8710 N   0  0  0  0  0  0  0  0  0  0  0  0
   36.3810   33.2950   39.8500 H   0  0  0  0  0  0  0  0  0  0  0  0
   40.6030   33.7970   39.9970 H   0  0  0  0  0  0  0  0  0  0  0  0
   36.4310   30.5850   39.7040 C   0  0  0  0  0  0  0  0  0  0  0  0
   36.0840   29.9160   38.5430 C   0  0  0  0  0  0  0  0  0  0  0  0
   35.0030   29.1600   38.9030 C   0  0  0  0  0  0  0  0  0  0  0  0
   34.7000   29.3510   40.2100 N   0  0  0  0  0  0  0  0  0  0  0  0
   35.5790   30.2130   40.6570 N   0  0  0  0  0  0  0  0  0  0  0  0
   36.5700   29.9870   37.5800 H   0  0  0  0  0  0  0  0  0  0  0  0
   34.4250   28.4800   38.2670 H   0  0  0  0  0  0  0  0  0  0  0  0
   33.9250   28.9180   40.7940 H   0  0  0  0  0  0  0  0  0  0  0  0
   37.7000   26.4240   39.8550 C   0  0  0  0  0  2  0  0  0  0  0  0
   37.1520   25.0900   39.7180 N   0  0  0  0  0  4  0  0  0  0  0  0
   36.8020   24.7160   40.6180 H   0  0  0  0  0  0  0  0  0  0  0  0
   38.2070   24.1690   39.2670 C   0  0  0  0  0  2  0  0  0  0  0  0
   37.7750   23.2160   38.9330 H   0  0  0  0  0  0  0  0  0  0  0  0
   36.0590   25.0410   38.7740 C   0  0  0  0  0  2  0  0  0  0  0  0
   36.2030   25.7410   37.9150 H   0  0  0  0  0  0  0  0  0  0  0  0
  1  2  2  0  0  0  0
  1  3  1  0  0  0  0
  3  4  1  0  0  0  0
  4  9  1  0  0  0  0
  4 10  1  0  0  0  0
  4  5  1  0  0  0  0
  5 12  1  0  0  0  0
  6 13  1  0  0  0  0
  6  5  1  0  0  0  0
  7  6  1  0  0  0  0
  7 15  1  0  0  0  0
  8 17  1  6  0  0  0
  8  3  1  0  0  0  0
  8  7  1  0  0  0  0
 11  5  1  0  0  0  0
 14  6  1  0  0  0  0
 16  7  1  0  0  0  0
 18 19  1  0  0  0  0
 18  1  1  0  0  0  0
 19 24  1  0  0  0  0
 20 19  2  0  0  0  0
 20 21  1  0  0  0  0
 21 22  2  0  0  0  0
 22 23  1  0  0  0  0
 23 26  1  0  0  0  0
 24 23  2  0  0  0  0
 25 21  1  0  0  0  0
 27 20  1  0  0  0  0
 27 31  2  0  0  0  0
 28 29  2  0  0  0  0
 28 27  1  0  0  0  0
 29 30  1  0  0  0  0
 30 31  1  0  0  0  0
 30 34  1  0  0  0  0
 32 28  1  0  0  0  0
 33 29  1  0  0  0  0
 35  8  1  0  0  0  0
 36 35  1  0  0  0  0
 36 37  1  0  0  0  0
 38 36  1  0  0  0  0
 39 38  1  0  0  0  0
 40 36  1  0  0  0  0
 41 40  1  0  0  0  0
M  END
>  <minimizedAffinity>
-5.1777935

$$$$

 OpenBabel03252508553D

 41 43  0  0  1  0  0  0  0  0999 V2000
   37.4180   27.3010   39.8120 C   0  0  0  0  0  0  0  0  0  0  0  0
   36.3860   26.8370   39.2130 O   0  0  0  0  0  0  0  0  0  0  0  0
   37.8530   26.0860   40.4800 N   0  0  0  0  0  0  0  0  0  0  0  0
   38.1670   24.9790   39.5980 C   0  0  0  0  0  0  0  0  0  0  0  0
   36.9480   24.0670   39.6580 C   0  0  0  0  0  0  0  0  0  0  0  0
   36.4010   24.1390   41.0810 C   0  0  0  0  0  0  0  0  0  0  0  0
   37.5270   24.4050   42.0820 C   0  0  0  0  0  0  0  0  0  0  0  0
   38.0130   25.8380   41.9160 C   0  0  2  0  0  0  0  0  0  0  0  0
   38.3170   25.2850   38.5460 H   0  0  0  0  0  0  0  0  0  0  0  0
   39.0300   24.3820   39.9820 H   0  0  0  0  0  0  0  0  0  0  0  0
   36.1700   24.5170   39.0070 H   0  0  0  0  0  0  0  0  0  0  0  0
   37.1820   23.0270   39.3650 H   0  0  0  0  0  0  0  0  0  0  0  0
   35.8790   23.2210   41.3680 H   0  0  0  0  0  0  0  0  0  0  0  0
   35.7080   25.0080   41.1630 H   0  0  0  0  0  0  0  0  0  0  0  0
   38.3580   23.6970   41.8220 H   0  0  0  0  0  0  0  0  0  0  0  0
   37.1170   24.2100   43.0800 H   0  0  0  0  0  0  0  0  0  0  0  0
   39.0850   25.8500   42.1410 H   0  0  0  0  0  0  0  0  0  0  0  0
   37.9180   28.5770   39.7930 O   0  0  0  0  0  0  0  0  0  0  0  0
   39.2560   28.9170   39.8290 C   0  0  0  0  0  0  0  0  0  0  0  0
   39.5950   30.2690   39.8390 C   0  0  0  0  0  0  0  0  0  0  0  0
   40.9550   30.5820   39.8750 C   0  0  0  0  0  0  0  0  0  0  0  0
   41.8660   29.5600   39.8970 N   0  0  0  0  0  0  0  0  0  0  0  0
   41.4940   28.2950   39.8870 C   0  0  0  0  0  0  0  0  0  0  0  0
   40.1840   27.9620   39.8510 N   0  0  0  0  0  0  0  0  0  0  0  0
   41.2430   31.6170   39.8840 H   0  0  0  0  0  0  0  0  0  0  0  0
   42.1980   27.4700   39.9040 H   0  0  0  0  0  0  0  0  0  0  0  0
   38.5500   31.2770   39.8130 C   0  0  0  0  0  0  0  0  0  0  0  0
   38.1320   31.9070   38.6550 C   0  0  0  0  0  0  0  0  0  0  0  0
   37.1520   32.7640   39.0740 C   0  0  0  0  0  0  0  0  0  0  0  0
   36.9760   32.6680   40.4140 N   0  0  0  0  0  0  0  0  0  0  0  0
   37.8320   31.7660   40.8220 N   0  0  0  0  0  0  0  0  0  0  0  0
   38.5050   31.7450   37.6530 H   0  0  0  0  0  0  0  0  0  0  0  0
   36.5610   33.4520   38.4590 H   0  0  0  0  0  0  0  0  0  0  0  0
   36.3000   33.1920   41.0460 H   0  0  0  0  0  0  0  0  0  0  0  0
   37.2090   26.8010   42.7400 C   0  0  0  0  0  2  0  0  0  0  0  0
   38.0690   27.6010   43.5890 N   0  0  0  0  0  4  0  0  0  0  0  0
   37.8460   27.4830   44.5950 H   0  0  0  0  0  0  0  0  0  0  0  0
   37.8730   29.0260   43.2840 C   0  0  0  0  0  2  0  0  0  0  0  0
   38.6670   29.6340   43.7370 H   0  0  0  0  0  0  0  0  0  0  0  0
   39.4670   27.2770   43.4150 C   0  0  0  0  0  2  0  0  0  0  0  0
   39.7170   27.0110   42.3600 H   0  0  0  0  0  0  0  0  0  0  0  0
  1  3  1  0  0  0  0
  2  1  2  0  0  0  0
  3  8  1  0  0  0  0
  4  5  1  0  0  0  0
  4 10  1  0  0  0  0
  4  3  1  0  0  0  0
  5  6  1  0  0  0  0
  6 14  1  0  0  0  0
  6 13  1  0  0  0  0
  6  7  1  0  0  0  0
  7 16  1  0  0  0  0
  8  7  1  0  0  0  0
  8 17  1  1  0  0  0
  8 35  1  0  0  0  0
  9  4  1  0  0  0  0
 11  5  1  0  0  0  0
 12  5  1  0  0  0  0
 15  7  1  0  0  0  0
 18  1  1  0  0  0  0
 18 19  1  0  0  0  0
 19 20  2  0  0  0  0
 19 24  1  0  0  0  0
 20 21  1  0  0  0  0
 21 25  1  0  0  0  0
 21 22  2  0  0  0  0
 23 22  1  0  0  0  0
 23 26  1  0  0  0  0
 24 23  2  0  0  0  0
 27 20  1  0  0  0  0
 27 31  2  0  0  0  0
 28 29  2  0  0  0  0
 28 27  1  0  0  0  0
 29 30  1  0  0  0  0
 30 31  1  0  0  0  0
 30 34  1  0  0  0  0
 32 28  1  0  0  0  0
 33 29  1  0  0  0  0
 35 36  1  0  0  0  0
 36 37  1  0  0  0  0
 38 36  1  0  0  0  0
 38 39  1  0  0  0  0
 40 36  1  0  0  0  0
 41 40  1  0  0  0  0
M  END
>  <minimizedAffinity>
-5.08085823

$$$$

 OpenBabel03252508553D

 41 43  0  0  1  0  0  0  0  0999 V2000
   37.8210   29.2880   41.0730 C   0  0  0  0  0  0  0  0  0  0  0  0
   39.0860   29.3840   41.2420 O   0  0  0  0  0  0  0  0  0  0  0  0
   37.5730   28.1210   41.9040 N   0  0  0  0  0  0  0  0  0  0  0  0
   37.9430   28.2700   43.2970 C   0  0  0  0  0  0  0  0  0  0  0  0
   39.2810   27.5510   43.4300 C   0  0  0  0  0  0  0  0  0  0  0  0
   39.2430   26.3520   42.4870 C   0  0  0  0  0  0  0  0  0  0  0  0
   37.8130   25.8280   42.3320 C   0  0  0  0  0  0  0  0  0  0  0  0
   37.0030   26.8280   41.5180 C   0  0  2  0  0  0  0  0  0  0  0  0
   38.0870   29.3230   43.6030 H   0  0  0  0  0  0  0  0  0  0  0  0
   37.2280   27.7380   43.9710 H   0  0  0  0  0  0  0  0  0  0  0  0
   40.0600   28.2320   43.0290 H   0  0  0  0  0  0  0  0  0  0  0  0
   39.4960   27.2430   44.4700 H   0  0  0  0  0  0  0  0  0  0  0  0
   39.8840   25.5360   42.8330 H   0  0  0  0  0  0  0  0  0  0  0  0
   39.5600   26.6760   41.4690 H   0  0  0  0  0  0  0  0  0  0  0  0
   37.3860   25.7580   43.3680 H   0  0  0  0  0  0  0  0  0  0  0  0
   37.8840   24.8480   41.8490 H   0  0  0  0  0  0  0  0  0  0  0  0
   35.9710   26.7920   41.8860 H   0  0  0  0  0  0  0  0  0  0  0  0
   36.9940   30.0810   40.3200 O   0  0  0  0  0  0  0  0  0  0  0  0
   37.0170   30.1880   38.9430 C   0  0  0  0  0  0  0  0  0  0  0  0
   37.5430   31.3480   38.3800 C   0  0  0  0  0  0  0  0  0  0  0  0
   37.5520   31.4290   36.9860 C   0  0  0  0  0  0  0  0  0  0  0  0
   37.0510   30.3800   36.2620 N   0  0  0  0  0  0  0  0  0  0  0  0
   36.5640   29.3020   36.8440 C   0  0  0  0  0  0  0  0  0  0  0  0
   36.5410   29.1960   38.1920 N   0  0  0  0  0  0  0  0  0  0  0  0
   37.9530   32.3130   36.5260 H   0  0  0  0  0  0  0  0  0  0  0  0
   36.1630   28.4600   36.2910 H   0  0  0  0  0  0  0  0  0  0  0  0
   38.0500   32.4050   39.2370 C   0  0  0  0  0  0  0  0  0  0  0  0
   39.3850   32.5330   39.5760 C   0  0  0  0  0  0  0  0  0  0  0  0
   39.4210   33.6380   40.3810 C   0  0  0  0  0  0  0  0  0  0  0  0
   38.1810   34.1610   40.5310 N   0  0  0  0  0  0  0  0  0  0  0  0
   37.3840   33.3940   39.8300 N   0  0  0  0  0  0  0  0  0  0  0  0
   40.2010   31.8960   39.2640 H   0  0  0  0  0  0  0  0  0  0  0  0
   40.3000   34.0820   40.8630 H   0  0  0  0  0  0  0  0  0  0  0  0
   37.8690   35.0110   41.0880 H   0  0  0  0  0  0  0  0  0  0  0  0
   37.1290   26.5810   40.0430 C   0  0  0  0  0  2  0  0  0  0  0  0
   37.2180   25.1630   39.7580 N   0  0  0  0  0  4  0  0  0  0  0  0
   37.3840   24.6020   40.6130 H   0  0  0  0  0  0  0  0  0  0  0  0
   38.3580   24.9110   38.8650 C   0  0  0  0  0  2  0  0  0  0  0  0
   38.3110   23.8960   38.4500 H   0  0  0  0  0  0  0  0  0  0  0  0
   36.0170   24.6530   39.1330 C   0  0  0  0  0  2  0  0  0  0  0  0
   35.5470   25.3940   38.4420 H   0  0  0  0  0  0  0  0  0  0  0  0
  1  2  2  0  0  0  0
  1  3  1  0  0  0  0
  3  4  1  0  0  0  0
  4  5  1  0  0  0  0
  4  9  1  0  0  0  0
  4 10  1  0  0  0  0
  5 12  1  0  0  0  0
  6 13  1  0  0  0  0
  6  5  1  0  0  0  0
  7  6  1  0  0  0  0
  7 15  1  0  0  0  0
  8 17  1  1  0  0  0
  8  3  1  0  0  0  0
  8  7  1  0  0  0  0
 11  5  1  0  0  0  0
 14  6  1  0  0  0  0
 16  7  1  0  0  0  0
 18  1  1  0  0  0  0
 19 18  1  0  0  0  0
 20 19  1  0  0  0  0
 20 27  1  0  0  0  0
 21 20  2  0  0  0  0
 22 23  2  0  0  0  0
 22 21  1  0  0  0  0
 23 24  1  0  0  0  0
 24 19  2  0  0  0  0
 25 21  1  0  0  0  0
 26 23  1  0  0  0  0
 27 28  1  0  0  0  0
 27 31  2  0  0  0  0
 28 29  2  0  0  0  0
 29 30  1  0  0  0  0
 29 33  1  0  0  0  0
 30 34  1  0  0  0  0
 31 30  1  0  0  0  0
 32 28  1  0  0  0  0
 35  8  1  0  0  0  0
 36 35  1  0  0  0  0
 36 37  1  0  0  0  0
 38 36  1  0  0  0  0
 39 38  1  0  0  0  0
 40 36  1  0  0  0  0
 41 40  1  0  0  0  0
M  END
>  <minimizedAffinity>
-5.05873919

$$$$

 OpenBabel03252508553D

 41 43  0  0  1  0  0  0  0  0999 V2000
   38.2800   27.8830   38.8280 C   0  0  0  0  0  0  0  0  0  0  0  0
   38.3920   27.7310   37.5620 O   0  0  0  0  0  0  0  0  0  0  0  0
   37.4720   29.0910   38.8380 N   0  0  0  0  0  0  0  0  0  0  0  0
   36.1900   28.9770   38.1710 C   0  0  0  0  0  0  0  0  0  0  0  0
   36.3910   29.6340   36.8110 C   0  0  0  0  0  0  0  0  0  0  0  0
   37.3590   30.7970   37.0110 C   0  0  0  0  0  0  0  0  0  0  0  0
   37.2190   31.3840   38.4170 C   0  0  0  0  0  0  0  0  0  0  0  0
   37.7840   30.3960   39.4270 C   0  0  2  0  0  0  0  0  0  0  0  0
   35.8730   27.9310   38.0050 H   0  0  0  0  0  0  0  0  0  0  0  0
   35.4020   29.5700   38.6960 H   0  0  0  0  0  0  0  0  0  0  0  0
   36.9220   28.9000   36.1680 H   0  0  0  0  0  0  0  0  0  0  0  0
   35.4410   29.9700   36.3570 H   0  0  0  0  0  0  0  0  0  0  0  0
   37.2040   31.5920   36.2760 H   0  0  0  0  0  0  0  0  0  0  0  0
   38.4050   30.4180   36.9420 H   0  0  0  0  0  0  0  0  0  0  0  0
   36.1190   31.5140   38.5980 H   0  0  0  0  0  0  0  0  0  0  0  0
   37.7530   32.3410   38.4160 H   0  0  0  0  0  0  0  0  0  0  0  0
   37.1990   30.4960   40.3490 H   0  0  0  0  0  0  0  0  0  0  0  0
   38.7920   27.1040   39.8330 O   0  0  0  0  0  0  0  0  0  0  0  0
   38.2390   25.9280   40.3020 C   0  0  0  0  0  0  0  0  0  0  0  0
   37.5520   25.9580   41.5130 C   0  0  0  0  0  0  0  0  0  0  0  0
   37.0040   24.7540   41.9620 C   0  0  0  0  0  0  0  0  0  0  0  0
   37.1710   23.6300   41.1980 N   0  0  0  0  0  0  0  0  0  0  0  0
   37.8300   23.6540   40.0560 C   0  0  0  0  0  0  0  0  0  0  0  0
   38.3720   24.8050   39.5980 N   0  0  0  0  0  0  0  0  0  0  0  0
   36.4690   24.7500   42.8930 H   0  0  0  0  0  0  0  0  0  0  0  0
   37.9740   22.7760   39.4360 H   0  0  0  0  0  0  0  0  0  0  0  0
   37.4320   27.2050   42.2480 C   0  0  0  0  0  0  0  0  0  0  0  0
   38.2840   27.5650   43.2770 C   0  0  0  0  0  0  0  0  0  0  0  0
   37.8240   28.7880   43.6800 C   0  0  0  0  0  0  0  0  0  0  0  0
   36.7500   29.1610   42.9430 N   0  0  0  0  0  0  0  0  0  0  0  0
   36.5450   28.1860   42.0940 N   0  0  0  0  0  0  0  0  0  0  0  0
   39.1200   26.9970   43.6600 H   0  0  0  0  0  0  0  0  0  0  0  0
   38.2270   29.4200   44.4790 H   0  0  0  0  0  0  0  0  0  0  0  0
   36.1640   30.0460   43.0020 H   0  0  0  0  0  0  0  0  0  0  0  0
   39.2610   30.5790   39.6250 C   0  0  0  0  0  2  0  0  0  0  0  0
   39.6580   30.1990   40.9650 N   0  0  0  0  0  4  0  0  0  0  0  0
   38.9990   29.5220   41.3920 H   0  0  0  0  0  0  0  0  0  0  0  0
   39.6550   31.3860   41.8340 C   0  0  0  0  0  2  0  0  0  0  0  0
   40.1690   31.1770   42.7810 H   0  0  0  0  0  0  0  0  0  0  0  0
   40.9740   29.6030   40.9990 C   0  0  0  0  0  2  0  0  0  0  0  0
   41.6710   30.0600   40.2550 H   0  0  0  0  0  0  0  0  0  0  0  0
  1  3  1  0  0  0  0
  1 18  1  0  0  0  0
  2  1  2  0  0  0  0
  3  8  1  0  0  0  0
  4 10  1  0  0  0  0
  4  3  1  0  0  0  0
  5  6  1  0  0  0  0
  5  4  1  0  0  0  0
  6  7  1  0  0  0  0
  7 15  1  0  0  0  0
  7  8  1  0  0  0  0
  8 35  1  0  0  0  0
  8 17  1  1  0  0  0
  9  4  1  0  0  0  0
 11  5  1  0  0  0  0
 12  5  1  0  0  0  0
 13  6  1  0  0  0  0
 14  6  1  0  0  0  0
 16  7  1  0  0  0  0
 18 19  1  0  0  0  0
 19 20  1  0  0  0  0
 20 21  2  0  0  0  0
 20 27  1  0  0  0  0
 21 25  1  0  0  0  0
 22 21  1  0  0  0  0
 23 22  2  0  0  0  0
 24 23  1  0  0  0  0
 24 19  2  0  0  0  0
 26 23  1  0  0  0  0
 27 28  1  0  0  0  0
 28 32  1  0  0  0  0
 28 29  2  0  0  0  0
 29 33  1  0  0  0  0
 30 34  1  0  0  0  0
 30 29  1  0  0  0  0
 31 27  2  0  0  0  0
 31 30  1  0  0  0  0
 35 36  1  0  0  0  0
 36 40  1  0  0  0  0
 36 37  1  0  0  0  0
 36 38  1  0  0  0  0
 38 39  1  0  0  0  0
 41 40  1  0  0  0  0
M  END
>  <minimizedAffinity>
-5.01109314

$$$$

 OpenBabel03252508553D

 41 43  0  0  1  0  0  0  0  0999 V2000
   39.6420   27.9660   40.5180 C   0  0  0  0  0  0  0  0  0  0  0  0
   39.8800   26.7530   40.8490 O   0  0  0  0  0  0  0  0  0  0  0  0
   39.1790   28.4610   41.8040 N   0  0  0  0  0  0  0  0  0  0  0  0
   40.1380   28.3520   42.8850 C   0  0  0  0  0  0  0  0  0  0  0  0
   39.7010   27.1270   43.6800 C   0  0  0  0  0  0  0  0  0  0  0  0
   38.1770   27.0810   43.6340 C   0  0  0  0  0  0  0  0  0  0  0  0
   37.5930   28.4920   43.5320 C   0  0  0  0  0  0  0  0  0  0  0  0
   37.8800   29.0490   42.1440 C   0  0  2  0  0  0  0  0  0  0  0  0
   41.1740   28.1860   42.5370 H   0  0  0  0  0  0  0  0  0  0  0  0
   40.0700   29.2230   43.5820 H   0  0  0  0  0  0  0  0  0  0  0  0
   40.0520   26.2330   43.1220 H   0  0  0  0  0  0  0  0  0  0  0  0
   40.0760   27.1400   44.7200 H   0  0  0  0  0  0  0  0  0  0  0  0
   37.7540   26.5840   44.5130 H   0  0  0  0  0  0  0  0  0  0  0  0
   37.8540   26.5500   42.7090 H   0  0  0  0  0  0  0  0  0  0  0  0
   38.1270   29.1130   44.3000 H   0  0  0  0  0  0  0  0  0  0  0  0
   36.5210   28.4080   43.7410 H   0  0  0  0  0  0  0  0  0  0  0  0
   38.0180   30.1310   42.2460 H   0  0  0  0  0  0  0  0  0  0  0  0
   39.7970   28.5680   39.2960 O   0  0  0  0  0  0  0  0  0  0  0  0
   39.3020   29.8080   38.9410 C   0  0  0  0  0  0  0  0  0  0  0  0
   38.3980   29.8800   37.8830 C   0  0  0  0  0  0  0  0  0  0  0  0
   37.9160   31.1470   37.5460 C   0  0  0  0  0  0  0  0  0  0  0  0
   38.3510   32.2290   38.2630 N   0  0  0  0  0  0  0  0  0  0  0  0
   39.2080   32.1070   39.2570 C   0  0  0  0  0  0  0  0  0  0  0  0
   39.6930   30.8940   39.6050 N   0  0  0  0  0  0  0  0  0  0  0  0
   37.2180   31.2300   36.7340 H   0  0  0  0  0  0  0  0  0  0  0  0
   39.5650   32.9510   39.8380 H   0  0  0  0  0  0  0  0  0  0  0  0
   38.0010   28.6700   37.1860 C   0  0  0  0  0  0  0  0  0  0  0  0
   36.8520   27.9610   37.4900 C   0  0  0  0  0  0  0  0  0  0  0  0
   36.8620   26.9140   36.6110 C   0  0  0  0  0  0  0  0  0  0  0  0
   37.9530   26.9730   35.8100 N   0  0  0  0  0  0  0  0  0  0  0  0
   38.6130   28.0400   36.1860 N   0  0  0  0  0  0  0  0  0  0  0  0
   36.1230   28.1970   38.2530 H   0  0  0  0  0  0  0  0  0  0  0  0
   36.1190   26.1130   36.5220 H   0  0  0  0  0  0  0  0  0  0  0  0
   38.2550   26.3170   35.0300 H   0  0  0  0  0  0  0  0  0  0  0  0
   36.8180   28.6640   41.1560 C   0  0  0  0  0  2  0  0  0  0  0  0
   35.7270   29.6180   41.1660 N   0  0  0  0  0  4  0  0  0  0  0  0
   35.2170   29.6200   42.0680 H   0  0  0  0  0  0  0  0  0  0  0  0
   34.7460   29.2550   40.1330 C   0  0  0  0  0  2  0  0  0  0  0  0
   34.0400   30.0780   39.9610 H   0  0  0  0  0  0  0  0  0  0  0  0
   36.1790   30.9700   40.9230 C   0  0  0  0  0  2  0  0  0  0  0  0
   37.0310   31.0130   40.2010 H   0  0  0  0  0  0  0  0  0  0  0  0
  1  2  2  0  0  0  0
  1  3  1  0  0  0  0
  3  8  1  0  0  0  0
  3  4  1  0  0  0  0
  4 10  1  0  0  0  0
  4  5  1  0  0  0  0
  5 12  1  0  0  0  0
  6  5  1  0  0  0  0
  6 13  1  0  0  0  0
  7  6  1  0  0  0  0
  7 16  1  0  0  0  0
  7 15  1  0  0  0  0
  8 17  1  1  0  0  0
  8  7  1  0  0  0  0
  9  4  1  0  0  0  0
 11  5  1  0  0  0  0
 14  6  1  0  0  0  0
 18  1  1  0  0  0  0
 19 18  1  0  0  0  0
 19 24  1  0  0  0  0
 20 19  2  0  0  0  0
 21 20  1  0  0  0  0
 21 22  2  0  0  0  0
 22 23  1  0  0  0  0
 23 24  2  0  0  0  0
 23 26  1  0  0  0  0
 25 21  1  0  0  0  0
 27 28  1  0  0  0  0
 27 20  1  0  0  0  0
 28 32  1  0  0  0  0
 29 28  2  0  0  0  0
 30 31  1  0  0  0  0
 30 29  1  0  0  0  0
 31 27  2  0  0  0  0
 33 29  1  0  0  0  0
 34 30  1  0  0  0  0
 35 36  1  0  0  0  0
 35  8  1  0  0  0  0
 36 37  1  0  0  0  0
 38 36  1  0  0  0  0
 39 38  1  0  0  0  0
 40 36  1  0  0  0  0
 41 40  1  0  0  0  0
M  END
>  <minimizedAffinity>
-4.97363424

$$$$

 OpenBabel03252508553D

 41 43  0  0  1  0  0  0  0  0999 V2000
   37.4530   27.1290   39.7270 C   0  0  0  0  0  0  0  0  0  0  0  0
   36.2590   26.6770   39.8090 O   0  0  0  0  0  0  0  0  0  0  0  0
   38.1390   26.0820   40.4650 N   0  0  0  0  0  0  0  0  0  0  0  0
   38.0040   24.7500   39.9090 C   0  0  0  0  0  0  0  0  0  0  0  0
   36.9430   24.0690   40.7660 C   0  0  0  0  0  0  0  0  0  0  0  0
   37.1130   24.5890   42.1910 C   0  0  0  0  0  0  0  0  0  0  0  0
   38.5760   24.9430   42.4680 C   0  0  0  0  0  0  0  0  0  0  0  0
   38.9400   26.1980   41.6870 C   0  0  2  0  0  0  0  0  0  0  0  0
   37.6550   24.7450   38.8610 H   0  0  0  0  0  0  0  0  0  0  0  0
   38.9420   24.1570   40.0360 H   0  0  0  0  0  0  0  0  0  0  0  0
   35.9550   24.4400   40.4200 H   0  0  0  0  0  0  0  0  0  0  0  0
   37.0080   22.9660   40.7250 H   0  0  0  0  0  0  0  0  0  0  0  0
   36.7760   23.8620   42.9360 H   0  0  0  0  0  0  0  0  0  0  0  0
   36.5420   25.5390   42.3050 H   0  0  0  0  0  0  0  0  0  0  0  0
   39.1880   24.0800   42.0940 H   0  0  0  0  0  0  0  0  0  0  0  0
   38.6700   25.0770   43.5510 H   0  0  0  0  0  0  0  0  0  0  0  0
   39.9960   26.1150   41.4050 H   0  0  0  0  0  0  0  0  0  0  0  0
   37.8980   28.2700   39.1110 O   0  0  0  0  0  0  0  0  0  0  0  0
   37.5540   28.6850   37.8390 C   0  0  0  0  0  0  0  0  0  0  0  0
   37.1130   29.9950   37.6670 C   0  0  0  0  0  0  0  0  0  0  0  0
   36.7720   30.3850   36.3700 C   0  0  0  0  0  0  0  0  0  0  0  0
   36.8890   29.4720   35.3560 N   0  0  0  0  0  0  0  0  0  0  0  0
   37.3130   28.2420   35.5710 C   0  0  0  0  0  0  0  0  0  0  0  0
   37.6490   27.8360   36.8160 N   0  0  0  0  0  0  0  0  0  0  0  0
   36.4290   31.3900   36.2110 H   0  0  0  0  0  0  0  0  0  0  0  0
   37.4130   27.5040   34.7830 H   0  0  0  0  0  0  0  0  0  0  0  0
   37.0250   30.8850   38.8110 C   0  0  0  0  0  0  0  0  0  0  0  0
   37.8360   31.9930   38.9750 C   0  0  0  0  0  0  0  0  0  0  0  0
   37.4250   32.5370   40.1600 C   0  0  0  0  0  0  0  0  0  0  0  0
   36.4180   31.8070   40.6980 N   0  0  0  0  0  0  0  0  0  0  0  0
   36.2060   30.8240   39.8590 N   0  0  0  0  0  0  0  0  0  0  0  0
   38.6130   32.3370   38.3070 H   0  0  0  0  0  0  0  0  0  0  0  0
   37.8180   33.4340   40.6540 H   0  0  0  0  0  0  0  0  0  0  0  0
   35.8820   31.9580   41.6030 H   0  0  0  0  0  0  0  0  0  0  0  0
   38.6140   27.4480   42.4510 C   0  0  0  0  0  2  0  0  0  0  0  0
   39.4460   28.5530   42.0200 N   0  0  0  0  0  4  0  0  0  0  0  0
   39.5420   28.5930   40.9890 H   0  0  0  0  0  0  0  0  0  0  0  0
   40.8050   28.3840   42.5570 C   0  0  0  0  0  2  0  0  0  0  0  0
   41.3860   29.3090   42.4460 H   0  0  0  0  0  0  0  0  0  0  0  0
   38.9300   29.8310   42.4570 C   0  0  0  0  0  2  0  0  0  0  0  0
   38.4480   29.7770   43.4630 H   0  0  0  0  0  0  0  0  0  0  0  0
  1  2  2  0  0  0  0
  1  3  1  0  0  0  0
  3  8  1  0  0  0  0
  4 10  1  0  0  0  0
  4  3  1  0  0  0  0
  4  5  1  0  0  0  0
  5  6  1  0  0  0  0
  6 14  1  0  0  0  0
  6  7  1  0  0  0  0
  6 13  1  0  0  0  0
  7 16  1  0  0  0  0
  8 17  1  6  0  0  0
  8 35  1  0  0  0  0
  8  7  1  0  0  0  0
  9  4  1  0  0  0  0
 11  5  1  0  0  0  0
 12  5  1  0  0  0  0
 15  7  1  0  0  0  0
 18  1  1  0  0  0  0
 19 18  1  0  0  0  0
 20 19  1  0  0  0  0
 20 27  1  0  0  0  0
 21 20  2  0  0  0  0
 22 23  2  0  0  0  0
 22 21  1  0  0  0  0
 23 24  1  0  0  0  0
 24 19  2  0  0  0  0
 25 21  1  0  0  0  0
 26 23  1  0  0  0  0
 27 28  1  0  0  0  0
 27 31  2  0  0  0  0
 28 29  2  0  0  0  0
 29 33  1  0  0  0  0
 29 30  1  0  0  0  0
 30 34  1  0  0  0  0
 31 30  1  0  0  0  0
 32 28  1  0  0  0  0
 36 35  1  0  0  0  0
 36 40  1  0  0  0  0
 36 38  1  0  0  0  0
 37 36  1  0  0  0  0
 39 38  1  0  0  0  0
 40 41  1  0  0  0  0
M  END
>  <minimizedAffinity>
-4.93418789

$$$$
