
 OpenBabel03252506193D

 21 21  0  0  0  0  0  0  0  0999 V2000
   37.4780   28.2710   42.3600 C   0  0  0  0  0  0  0  0  0  0  0  0
   38.7130   28.6290   42.9390 C   0  0  0  0  0  0  0  0  0  0  0  0
   39.2150   29.9010   42.6510 C   0  0  0  0  0  0  0  0  0  0  0  0
   38.5010   30.7170   41.8420 N   0  0  0  0  0  0  0  0  0  0  0  0
   37.3200   30.3440   41.3020 C   0  0  0  0  0  0  0  0  0  0  0  0
   36.8320   29.1330   41.5700 N   0  0  0  0  0  0  0  0  0  0  0  0
   39.1870   27.9100   43.5580 H   0  0  0  0  0  0  0  0  0  0  0  0
   40.1620   30.1820   43.0910 H   0  0  0  0  0  0  0  0  0  0  0  0
   36.9340   26.9440   42.6490 C   0  0  0  0  0  3  0  0  0  0  0  0
   37.3130   25.9240   41.9000 C   0  0  0  0  0  3  0  0  0  0  0  0
   36.8110   24.5480   42.1230 C   0  0  0  0  0  0  0  0  0  0  0  0
   35.8410   24.3870   41.6230 H   0  0  0  0  0  0  0  0  0  0  0  0
   36.7230   24.3350   43.2110 H   0  0  0  0  0  0  0  0  0  0  0  0
   37.5310   23.8140   41.7030 H   0  0  0  0  0  0  0  0  0  0  0  0
   36.6940   31.3620   40.4520 C   0  0  0  0  0  2  0  0  0  0  0  0
   37.6280   32.0900   39.6140 N   0  0  0  0  0  4  0  0  0  0  0  0
   38.6230   31.8750   39.8870 H   0  0  0  0  0  0  0  0  0  0  0  0
   37.3680   31.6510   38.2540 C   0  0  0  0  0  2  0  0  0  0  0  0
   36.2490   31.6340   38.1410 H   0  0  0  0  0  0  0  0  0  0  0  0
   37.4470   33.5080   39.6760 C   0  0  0  0  0  2  0  0  0  0  0  0
   36.4360   33.8040   39.9980 H   0  0  0  0  0  0  0  0  0  0  0  0
  1  9  1  0  0  0  0
  1  2  1  0  0  0  0
  2  7  1  0  0  0  0
  3  2  2  0  0  0  0
  3  8  1  0  0  0  0
  4  3  1  0  0  0  0
  5  6  1  0  0  0  0
  5  4  2  0  0  0  0
  6  1  2  0  0  0  0
 10 11  1  0  0  0  0
 10  9  2  0  0  0  0
 11 13  1  0  0  0  0
 12 11  1  0  0  0  0
 14 11  1  0  0  0  0
 15  5  1  0  0  0  0
 16 20  1  0  0  0  0
 16 17  1  0  0  0  0
 16 15  1  0  0  0  0
 18 16  1  0  0  0  0
 19 18  1  0  0  0  0
 20 21  1  0  0  0  0
M  END
>  <minimizedAffinity>
-3.9491179

$$$$

 OpenBabel03252506193D

 21 21  0  0  0  0  0  0  0  0999 V2000
   37.3350   29.0220   42.1350 C   0  0  0  0  0  0  0  0  0  0  0  0
   36.2070   28.3610   41.6070 C   0  0  0  0  0  0  0  0  0  0  0  0
   35.4490   29.0430   40.6520 C   0  0  0  0  0  0  0  0  0  0  0  0
   35.8290   30.2890   40.2850 N   0  0  0  0  0  0  0  0  0  0  0  0
   36.9160   30.8950   40.8100 C   0  0  0  0  0  0  0  0  0  0  0  0
   37.6460   30.2540   41.7220 N   0  0  0  0  0  0  0  0  0  0  0  0
   36.0020   27.3850   41.9680 H   0  0  0  0  0  0  0  0  0  0  0  0
   34.5820   28.5430   40.2430 H   0  0  0  0  0  0  0  0  0  0  0  0
   38.1430   28.3250   43.1360 C   0  0  0  0  0  3  0  0  0  0  0  0
   39.0070   27.4120   42.7330 C   0  0  0  0  0  3  0  0  0  0  0  0
   39.8630   26.6600   43.6800 C   0  0  0  0  0  0  0  0  0  0  0  0
   39.3340   25.7870   44.0960 H   0  0  0  0  0  0  0  0  0  0  0  0
   40.2170   27.3220   44.5000 H   0  0  0  0  0  0  0  0  0  0  0  0
   40.7660   26.2850   43.1510 H   0  0  0  0  0  0  0  0  0  0  0  0
   37.1690   32.2430   40.2890 C   0  0  0  0  0  2  0  0  0  0  0  0
   38.5740   32.6060   40.2470 N   0  0  0  0  0  4  0  0  0  0  0  0
   39.1090   32.1210   41.0140 H   0  0  0  0  0  0  0  0  0  0  0  0
   39.0540   32.1830   38.9440 C   0  0  0  0  0  2  0  0  0  0  0  0
   38.2660   32.4930   38.2050 H   0  0  0  0  0  0  0  0  0  0  0  0
   38.7910   34.0150   40.3750 C   0  0  0  0  0  2  0  0  0  0  0  0
   37.9140   34.6180   40.0890 H   0  0  0  0  0  0  0  0  0  0  0  0
  1  9  1  0  0  0  0
  2  7  1  0  0  0  0
  2  1  2  0  0  0  0
  3  2  1  0  0  0  0
  4  3  2  0  0  0  0
  4  5  1  0  0  0  0
  5  6  2  0  0  0  0
  6  1  1  0  0  0  0
  8  3  1  0  0  0  0
 10  9  2  0  0  0  0
 10 11  1  0  0  0  0
 11 12  1  0  0  0  0
 11 13  1  0  0  0  0
 14 11  1  0  0  0  0
 15  5  1  0  0  0  0
 16 15  1  0  0  0  0
 16 20  1  0  0  0  0
 16 17  1  0  0  0  0
 18 16  1  0  0  0  0
 19 18  1  0  0  0  0
 21 20  1  0  0  0  0
M  END
>  <minimizedAffinity>
-3.92089057

$$$$

 OpenBabel03252506193D

 21 21  0  0  0  0  0  0  0  0999 V2000
   37.2190   27.1250   42.2130 C   0  0  0  0  0  0  0  0  0  0  0  0
   38.0360   27.6700   43.2240 C   0  0  0  0  0  0  0  0  0  0  0  0
   38.1680   29.0600   43.2680 C   0  0  0  0  0  0  0  0  0  0  0  0
   37.5120   29.8070   42.3510 N   0  0  0  0  0  0  0  0  0  0  0  0
   36.7360   29.2550   41.3930 C   0  0  0  0  0  0  0  0  0  0  0  0
   36.6030   27.9300   41.3410 N   0  0  0  0  0  0  0  0  0  0  0  0
   38.5030   26.9890   43.8910 H   0  0  0  0  0  0  0  0  0  0  0  0
   38.7940   29.4840   44.0420 H   0  0  0  0  0  0  0  0  0  0  0  0
   37.0670   25.6720   42.1490 C   0  0  0  0  0  3  0  0  0  0  0  0
   37.1030   25.0790   40.9690 C   0  0  0  0  0  3  0  0  0  0  0  0
   36.9570   23.6130   40.8150 C   0  0  0  0  0  0  0  0  0  0  0  0
   35.8960   23.3140   40.7870 H   0  0  0  0  0  0  0  0  0  0  0  0
   37.4860   23.0780   41.6340 H   0  0  0  0  0  0  0  0  0  0  0  0
   37.4230   23.2890   39.8590 H   0  0  0  0  0  0  0  0  0  0  0  0
   36.1070   30.2250   40.4890 C   0  0  0  0  0  2  0  0  0  0  0  0
   36.9810   30.7040   39.4350 N   0  0  0  0  0  4  0  0  0  0  0  0
   37.9610   30.3400   39.5660 H   0  0  0  0  0  0  0  0  0  0  0  0
   36.4150   30.2090   38.1940 C   0  0  0  0  0  2  0  0  0  0  0  0
   35.3060   30.3800   38.2660 H   0  0  0  0  0  0  0  0  0  0  0  0
   37.0430   32.1330   39.3680 C   0  0  0  0  0  2  0  0  0  0  0  0
   36.1670   32.6290   39.8140 H   0  0  0  0  0  0  0  0  0  0  0  0
  1  2  1  0  0  0  0
  2  3  2  0  0  0  0
  2  7  1  0  0  0  0
  3  8  1  0  0  0  0
  4  3  1  0  0  0  0
  5  4  2  0  0  0  0
  6  5  1  0  0  0  0
  6  1  2  0  0  0  0
  9  1  1  0  0  0  0
 10  9  2  0  0  0  0
 11 10  1  0  0  0  0
 11 13  1  0  0  0  0
 12 11  1  0  0  0  0
 14 11  1  0  0  0  0
 15  5  1  0  0  0  0
 16 17  1  0  0  0  0
 16 15  1  0  0  0  0
 18 19  1  0  0  0  0
 18 16  1  0  0  0  0
 20 16  1  0  0  0  0
 20 21  1  0  0  0  0
M  END
>  <minimizedAffinity>
-3.79402518

$$$$

 OpenBabel03252506193D

 21 21  0  0  0  0  0  0  0  0999 V2000
   37.0090   28.5650   41.6720 C   0  0  0  0  0  0  0  0  0  0  0  0
   35.8170   28.8660   40.9820 C   0  0  0  0  0  0  0  0  0  0  0  0
   35.7180   30.1240   40.3820 C   0  0  0  0  0  0  0  0  0  0  0  0
   36.7600   30.9810   40.4890 N   0  0  0  0  0  0  0  0  0  0  0  0
   37.8900   30.6630   41.1570 C   0  0  0  0  0  0  0  0  0  0  0  0
   37.9940   29.4660   41.7340 N   0  0  0  0  0  0  0  0  0  0  0  0
   35.0640   28.1180   40.9620 H   0  0  0  0  0  0  0  0  0  0  0  0
   34.8060   30.3620   39.8520 H   0  0  0  0  0  0  0  0  0  0  0  0
   37.1320   27.2530   42.3070 C   0  0  0  0  0  3  0  0  0  0  0  0
   37.0330   26.1710   41.5580 C   0  0  0  0  0  3  0  0  0  0  0  0
   37.1450   24.8050   42.1200 C   0  0  0  0  0  0  0  0  0  0  0  0
   36.1810   24.4550   42.5240 H   0  0  0  0  0  0  0  0  0  0  0  0
   37.9280   24.7690   42.9090 H   0  0  0  0  0  0  0  0  0  0  0  0
   37.4530   24.0960   41.3220 H   0  0  0  0  0  0  0  0  0  0  0  0
   38.9080   31.7190   41.1650 C   0  0  0  0  0  2  0  0  0  0  0  0
   38.7920   32.6600   40.0670 N   0  0  0  0  0  4  0  0  0  0  0  0
   37.8700   32.5460   39.5710 H   0  0  0  0  0  0  0  0  0  0  0  0
   38.8910   33.9800   40.6620 C   0  0  0  0  0  2  0  0  0  0  0  0
   39.7340   33.9260   41.4040 H   0  0  0  0  0  0  0  0  0  0  0  0
   39.8380   32.5200   39.0990 C   0  0  0  0  0  2  0  0  0  0  0  0
   40.7440   32.0400   39.5030 H   0  0  0  0  0  0  0  0  0  0  0  0
  1  6  1  0  0  0  0
  1  9  1  0  0  0  0
  2  1  2  0  0  0  0
  3  4  2  0  0  0  0
  3  2  1  0  0  0  0
  4  5  1  0  0  0  0
  5 15  1  0  0  0  0
  5  6  2  0  0  0  0
  7  2  1  0  0  0  0
  8  3  1  0  0  0  0
 10 11  1  0  0  0  0
 10  9  2  0  0  0  0
 11 12  1  0  0  0  0
 11 13  1  0  0  0  0
 14 11  1  0  0  0  0
 16 18  1  0  0  0  0
 16 15  1  0  0  0  0
 17 16  1  0  0  0  0
 18 19  1  0  0  0  0
 20 21  1  0  0  0  0
 20 16  1  0  0  0  0
M  END
>  <minimizedAffinity>
-3.72704601

$$$$

 OpenBabel03252506193D

 21 21  0  0  0  0  0  0  0  0999 V2000
   38.2830   25.0420   42.2270 C   0  0  0  0  0  0  0  0  0  0  0  0
   39.4460   24.6750   42.9350 C   0  0  0  0  0  0  0  0  0  0  0  0
   40.0890   25.6690   43.6760 C   0  0  0  0  0  0  0  0  0  0  0  0
   39.5710   26.9200   43.6800 N   0  0  0  0  0  0  0  0  0  0  0  0
   38.4550   27.2390   42.9900 C   0  0  0  0  0  0  0  0  0  0  0  0
   37.8340   26.2990   42.2790 N   0  0  0  0  0  0  0  0  0  0  0  0
   39.7620   23.6650   42.8620 H   0  0  0  0  0  0  0  0  0  0  0  0
   40.9820   25.3950   44.2220 H   0  0  0  0  0  0  0  0  0  0  0  0
   37.5940   24.0160   41.4450 C   0  0  0  0  0  3  0  0  0  0  0  0
   36.5530   24.3660   40.7120 C   0  0  0  0  0  3  0  0  0  0  0  0
   35.7980   23.3910   39.8910 C   0  0  0  0  0  0  0  0  0  0  0  0
   35.0350   22.8650   40.4890 H   0  0  0  0  0  0  0  0  0  0  0  0
   36.4880   22.6580   39.4190 H   0  0  0  0  0  0  0  0  0  0  0  0
   35.2730   23.9220   39.0680 H   0  0  0  0  0  0  0  0  0  0  0  0
   38.0470   28.6430   43.1140 C   0  0  0  0  0  2  0  0  0  0  0  0
   38.2290   29.4210   41.9030 N   0  0  0  0  0  4  0  0  0  0  0  0
   38.5780   28.8140   41.1160 H   0  0  0  0  0  0  0  0  0  0  0  0
   36.9220   29.9680   41.5830 C   0  0  0  0  0  2  0  0  0  0  0  0
   36.4930   30.3400   42.5530 H   0  0  0  0  0  0  0  0  0  0  0  0
   39.1470   30.5060   42.0680 C   0  0  0  0  0  2  0  0  0  0  0  0
   39.2570   30.8280   43.1160 H   0  0  0  0  0  0  0  0  0  0  0  0
  1  6  2  0  0  0  0
  1  2  1  0  0  0  0
  2  3  2  0  0  0  0
  3  4  1  0  0  0  0
  3  8  1  0  0  0  0
  5 15  1  0  0  0  0
  5  4  2  0  0  0  0
  6  5  1  0  0  0  0
  7  2  1  0  0  0  0
  9  1  1  0  0  0  0
 10  9  2  0  0  0  0
 11 12  1  0  0  0  0
 11 10  1  0  0  0  0
 13 11  1  0  0  0  0
 14 11  1  0  0  0  0
 16 20  1  0  0  0  0
 16 15  1  0  0  0  0
 17 16  1  0  0  0  0
 18 16  1  0  0  0  0
 18 19  1  0  0  0  0
 20 21  1  0  0  0  0
M  END
>  <minimizedAffinity>
-3.70850897

$$$$

 OpenBabel03252506193D

 21 21  0  0  0  0  0  0  0  0999 V2000
   37.6850   30.8230   40.9240 C   0  0  0  0  0  0  0  0  0  0  0  0
   36.6750   31.6140   40.3390 C   0  0  0  0  0  0  0  0  0  0  0  0
   37.0770   32.6500   39.4920 C   0  0  0  0  0  0  0  0  0  0  0  0
   38.3990   32.8400   39.2760 N   0  0  0  0  0  0  0  0  0  0  0  0
   39.3430   32.0640   39.8520 C   0  0  0  0  0  0  0  0  0  0  0  0
   38.9700   31.0740   40.6620 N   0  0  0  0  0  0  0  0  0  0  0  0
   35.6690   31.3750   40.5790 H   0  0  0  0  0  0  0  0  0  0  0  0
   36.3080   33.2610   39.0400 H   0  0  0  0  0  0  0  0  0  0  0  0
   37.2850   29.7330   41.8150 C   0  0  0  0  0  3  0  0  0  0  0  0
   38.1500   29.2920   42.7100 C   0  0  0  0  0  3  0  0  0  0  0  0
   37.8270   28.1930   43.6490 C   0  0  0  0  0  0  0  0  0  0  0  0
   37.9990   27.2060   43.1880 H   0  0  0  0  0  0  0  0  0  0  0  0
   36.7760   28.2740   44.0010 H   0  0  0  0  0  0  0  0  0  0  0  0
   38.4790   28.2640   44.5460 H   0  0  0  0  0  0  0  0  0  0  0  0
   40.7210   32.4230   39.4990 C   0  0  0  0  0  2  0  0  0  0  0  0
   40.8480   33.0900   38.2170 N   0  0  0  0  0  4  0  0  0  0  0  0
   39.9260   33.5010   37.9150 H   0  0  0  0  0  0  0  0  0  0  0  0
   41.8330   34.1390   38.4120 C   0  0  0  0  0  2  0  0  0  0  0  0
   42.6680   33.6770   39.0060 H   0  0  0  0  0  0  0  0  0  0  0  0
   41.3110   32.2210   37.1780 C   0  0  0  0  0  2  0  0  0  0  0  0
   41.8610   31.3450   37.5560 H   0  0  0  0  0  0  0  0  0  0  0  0
  1  9  1  0  0  0  0
  2  7  1  0  0  0  0
  2  1  2  0  0  0  0
  3  2  1  0  0  0  0
  4  3  2  0  0  0  0
  4  5  1  0  0  0  0
  5  6  2  0  0  0  0
  6  1  1  0  0  0  0
  8  3  1  0  0  0  0
  9 10  2  0  0  0  0
 10 11  1  0  0  0  0
 11 13  1  0  0  0  0
 11 14  1  0  0  0  0
 12 11  1  0  0  0  0
 15  5  1  0  0  0  0
 16 18  1  0  0  0  0
 16 15  1  0  0  0  0
 17 16  1  0  0  0  0
 18 19  1  0  0  0  0
 20 21  1  0  0  0  0
 20 16  1  0  0  0  0
M  END
>  <minimizedAffinity>
-3.58590651

$$$$

 OpenBabel03252506193D

 21 21  0  0  0  0  0  0  0  0999 V2000
   36.6510   30.2600   40.4130 C   0  0  0  0  0  0  0  0  0  0  0  0
   36.1060   29.7920   39.1990 C   0  0  0  0  0  0  0  0  0  0  0  0
   35.8810   28.4180   39.0800 C   0  0  0  0  0  0  0  0  0  0  0  0
   36.1930   27.6130   40.1220 N   0  0  0  0  0  0  0  0  0  0  0  0
   36.7140   28.0920   41.2720 C   0  0  0  0  0  0  0  0  0  0  0  0
   36.9320   29.4010   41.3970 N   0  0  0  0  0  0  0  0  0  0  0  0
   35.9000   30.5130   38.4480 H   0  0  0  0  0  0  0  0  0  0  0  0
   35.4640   28.0530   38.1520 H   0  0  0  0  0  0  0  0  0  0  0  0
   36.8930   31.6950   40.5580 C   0  0  0  0  0  3  0  0  0  0  0  0
   37.1160   32.4160   39.4740 C   0  0  0  0  0  3  0  0  0  0  0  0
   37.3710   33.8740   39.5320 C   0  0  0  0  0  0  0  0  0  0  0  0
   38.4330   34.0900   39.7350 H   0  0  0  0  0  0  0  0  0  0  0  0
   36.7270   34.3550   40.3010 H   0  0  0  0  0  0  0  0  0  0  0  0
   37.1150   34.3380   38.5550 H   0  0  0  0  0  0  0  0  0  0  0  0
   36.9860   27.0680   42.2870 C   0  0  0  0  0  2  0  0  0  0  0  0
   37.6730   25.8970   41.7760 N   0  0  0  0  0  4  0  0  0  0  0  0
   37.7560   25.9390   40.7260 H   0  0  0  0  0  0  0  0  0  0  0  0
   38.9870   25.9060   42.3920 C   0  0  0  0  0  2  0  0  0  0  0  0
   38.8220   26.1590   43.4750 H   0  0  0  0  0  0  0  0  0  0  0  0
   37.0190   24.6710   42.1210 C   0  0  0  0  0  2  0  0  0  0  0  0
   36.3710   24.7570   43.0080 H   0  0  0  0  0  0  0  0  0  0  0  0
  1  9  1  0  0  0  0
  1  6  1  0  0  0  0
  2  1  2  0  0  0  0
  3  2  1  0  0  0  0
  3  4  2  0  0  0  0
  4  5  1  0  0  0  0
  5  6  2  0  0  0  0
  5 15  1  0  0  0  0
  7  2  1  0  0  0  0
  8  3  1  0  0  0  0
 10 11  1  0  0  0  0
 10  9  2  0  0  0  0
 11 12  1  0  0  0  0
 11 13  1  0  0  0  0
 14 11  1  0  0  0  0
 16 20  1  0  0  0  0
 16 15  1  0  0  0  0
 16 18  1  0  0  0  0
 17 16  1  0  0  0  0
 18 19  1  0  0  0  0
 20 21  1  0  0  0  0
M  END
>  <minimizedAffinity>
-3.54200292

$$$$

 OpenBabel03252506193D

 21 21  0  0  0  0  0  0  0  0999 V2000
   35.7120   29.3360   40.5250 C   0  0  0  0  0  0  0  0  0  0  0  0
   36.3570   30.5860   40.6230 C   0  0  0  0  0  0  0  0  0  0  0  0
   37.4610   30.6770   41.4740 C   0  0  0  0  0  0  0  0  0  0  0  0
   37.8550   29.5750   42.1530 N   0  0  0  0  0  0  0  0  0  0  0  0
   37.2160   28.3910   42.0370 C   0  0  0  0  0  0  0  0  0  0  0  0
   36.1610   28.2930   41.2290 N   0  0  0  0  0  0  0  0  0  0  0  0
   35.9630   31.3840   40.0450 H   0  0  0  0  0  0  0  0  0  0  0  0
   37.9600   31.6330   41.5550 H   0  0  0  0  0  0  0  0  0  0  0  0
   34.5540   29.2190   39.6390 C   0  0  0  0  0  3  0  0  0  0  0  0
   34.7050   28.6300   38.4670 C   0  0  0  0  0  3  0  0  0  0  0  0
   33.5860   28.4710   37.5100 C   0  0  0  0  0  0  0  0  0  0  0  0
   33.4510   29.3750   36.8930 H   0  0  0  0  0  0  0  0  0  0  0  0
   32.6420   28.2290   38.0470 H   0  0  0  0  0  0  0  0  0  0  0  0
   33.7970   27.6230   36.8240 H   0  0  0  0  0  0  0  0  0  0  0  0
   37.7870   27.3110   42.8500 C   0  0  0  0  0  2  0  0  0  0  0  0
   39.1590   26.9810   42.5140 N   0  0  0  0  0  4  0  0  0  0  0  0
   39.7130   27.8510   42.3010 H   0  0  0  0  0  0  0  0  0  0  0  0
   39.7010   26.3040   43.6790 C   0  0  0  0  0  2  0  0  0  0  0  0
   38.9080   25.5830   44.0170 H   0  0  0  0  0  0  0  0  0  0  0  0
   39.2630   26.1010   41.3890 C   0  0  0  0  0  2  0  0  0  0  0  0
   38.3490   25.5120   41.2110 H   0  0  0  0  0  0  0  0  0  0  0  0
  1  2  2  0  0  0  0
  1  6  1  0  0  0  0
  2  3  1  0  0  0  0
  3  8  1  0  0  0  0
  3  4  2  0  0  0  0
  5  4  1  0  0  0  0
  5 15  1  0  0  0  0
  6  5  2  0  0  0  0
  7  2  1  0  0  0  0
  9  1  1  0  0  0  0
 10  9  2  0  0  0  0
 11 13  1  0  0  0  0
 11 10  1  0  0  0  0
 12 11  1  0  0  0  0
 14 11  1  0  0  0  0
 16 15  1  0  0  0  0
 16 18  1  0  0  0  0
 17 16  1  0  0  0  0
 18 19  1  0  0  0  0
 20 16  1  0  0  0  0
 21 20  1  0  0  0  0
M  END
>  <minimizedAffinity>
-3.53154063

$$$$

 OpenBabel03252506193D

 21 21  0  0  0  0  0  0  0  0999 V2000
   36.5860   27.2740   40.2980 C   0  0  0  0  0  0  0  0  0  0  0  0
   36.4330   28.1630   41.3820 C   0  0  0  0  0  0  0  0  0  0  0  0
   36.6390   27.6540   42.6670 C   0  0  0  0  0  0  0  0  0  0  0  0
   36.9730   26.3500   42.8070 N   0  0  0  0  0  0  0  0  0  0  0  0
   37.1120   25.5240   41.7480 C   0  0  0  0  0  0  0  0  0  0  0  0
   36.9170   25.9980   40.5180 N   0  0  0  0  0  0  0  0  0  0  0  0
   36.1680   29.1650   41.1560 H   0  0  0  0  0  0  0  0  0  0  0  0
   36.5230   28.3300   43.5030 H   0  0  0  0  0  0  0  0  0  0  0  0
   36.3740   27.7860   38.9440 C   0  0  0  0  0  3  0  0  0  0  0  0
   35.4080   28.6630   38.7390 C   0  0  0  0  0  3  0  0  0  0  0  0
   35.1260   29.2320   37.4010 C   0  0  0  0  0  0  0  0  0  0  0  0
   34.4710   28.5690   36.8110 H   0  0  0  0  0  0  0  0  0  0  0  0
   36.0720   29.4260   36.8500 H   0  0  0  0  0  0  0  0  0  0  0  0
   34.6050   30.2080   37.5110 H   0  0  0  0  0  0  0  0  0  0  0  0
   37.4770   24.1470   42.0970 C   0  0  0  0  0  2  0  0  0  0  0  0
   38.9030   23.8840   42.0560 N   0  0  0  0  0  4  0  0  0  0  0  0
   39.1000   22.8590   42.1960 H   0  0  0  0  0  0  0  0  0  0  0  0
   39.3480   24.3140   40.7420 C   0  0  0  0  0  2  0  0  0  0  0  0
   38.8490   25.3030   40.5520 H   0  0  0  0  0  0  0  0  0  0  0  0
   39.6350   24.6170   43.0450 C   0  0  0  0  0  2  0  0  0  0  0  0
   39.1100   25.5210   43.3940 H   0  0  0  0  0  0  0  0  0  0  0  0
  1  6  2  0  0  0  0
  1  2  1  0  0  0  0
  2  3  2  0  0  0  0
  3  4  1  0  0  0  0
  3  8  1  0  0  0  0
  5 15  1  0  0  0  0
  5  4  2  0  0  0  0
  6  5  1  0  0  0  0
  7  2  1  0  0  0  0
  9  1  1  0  0  0  0
 10  9  2  0  0  0  0
 11 14  1  0  0  0  0
 11 10  1  0  0  0  0
 12 11  1  0  0  0  0
 13 11  1  0  0  0  0
 16 15  1  0  0  0  0
 16 17  1  0  0  0  0
 16 20  1  0  0  0  0
 18 16  1  0  0  0  0
 19 18  1  0  0  0  0
 20 21  1  0  0  0  0
M  END
>  <minimizedAffinity>
-3.52514291

$$$$
