
 OpenBabel03252502153D

 22 22  0  0  0  0  0  0  0  0999 V2000
   46.7060   34.8870   42.6640 C   0  0  0  0  0  0  0  0  0  0  0  0
   47.1280   33.9050   43.5910 C   0  0  0  0  0  0  0  0  0  0  0  0
   46.4020   33.7450   44.7680 C   0  0  0  0  0  0  0  0  0  0  0  0
   45.3170   34.5530   44.9590 N   0  0  0  0  0  0  0  0  0  0  0  0
   44.9450   35.4720   44.0620 C   0  0  0  0  0  0  0  0  0  0  0  0
   45.6370   35.6480   42.9060 N   0  0  0  0  0  0  0  0  0  0  0  0
   47.2560   35.0340   41.7420 H   0  0  0  0  0  0  0  0  0  0  0  0
   44.0800   36.0790   44.2780 H   0  0  0  0  0  0  0  0  0  0  0  0
   48.2480   33.1710   43.2500 O   0  0  0  0  0  0  0  0  0  0  0  0
   50.7490   32.9530   42.4140 O   0  0  0  0  0  0  0  0  0  0  0  0
   49.5780   33.8940   42.4460 P   0  0  0  0  0  0  0  0  0  0  0  0
   49.1810   34.2770   40.8450 O   0  0  0  0  0  0  0  0  0  0  0  0
   49.7940   33.8620   40.1920 H   0  0  0  0  0  0  0  0  0  0  0  0
   50.0460   35.3060   43.2360 O   0  0  0  0  0  0  0  0  0  0  0  0
   49.2360   35.7880   43.5690 H   0  0  0  0  0  0  0  0  0  0  0  0
   46.8040   32.7260   45.7380 C   0  0  0  0  0  0  0  0  0  0  0  0
   46.6570   33.1040   47.1160 N   0  0  0  0  0  0  0  0  0  0  0  0
   46.8100   34.1090   47.3200 H   0  0  0  0  0  0  0  0  0  0  0  0
   45.3780   32.7190   47.6970 C   0  0  0  0  0  0  0  0  0  0  0  0
   45.5460   32.6800   48.8130 H   0  0  0  0  0  0  0  0  0  0  0  0
   47.6500   32.3070   47.8560 C   0  0  0  0  0  0  0  0  0  0  0  0
   47.3870   31.2550   47.5960 H   0  0  0  0  0  0  0  0  0  0  0  0
  1  6  2  0  0  0  0
  1  2  1  0  0  0  0
  2  3  2  0  0  0  0
  3  4  1  0  0  0  0
  3 16  1  0  0  0  0
  5  8  1  0  0  0  0
  5  4  2  0  0  0  0
  6  5  1  0  0  0  0
  7  1  1  0  0  0  0
  9  2  1  0  0  0  0
 10 11  2  0  0  0  0
 11 14  1  0  0  0  0
 11  9  1  0  0  0  0
 12 11  1  0  0  0  0
 13 12  1  0  0  0  0
 14 15  1  0  0  0  0
 16 17  1  0  0  0  0
 17 18  1  0  0  0  0
 17 19  1  0  0  0  0
 17 21  1  0  0  0  0
 19 20  1  0  0  0  0
 22 21  1  0  0  0  0
M  END
>  <minimizedAffinity>
-5.12677431

>  <minimizedRMSD>
0.590103686

$$$$
