
 OpenBabel03242517393D

 31 32  0  0  0  0  0  0  0  0999 V2000
   34.4000   28.5630   37.4120 C   0  0  0  0  0  3  0  0  0  0  0  0
   33.1370   28.8610   37.2240 C   0  0  0  0  0  3  0  0  0  0  0  0
   34.7750   29.2550   39.7640 C   0  0  0  0  0  0  0  0  0  0  0  0
   35.0540   28.4010   38.6920 C   0  0  0  0  0  0  0  0  0  0  0  0
   35.9800   27.3960   38.9000 C   0  0  0  0  0  0  0  0  0  0  0  0
   36.5710   27.2840   40.1260 N   0  0  0  0  0  0  0  0  0  0  0  0
   36.2820   28.1230   41.1430 C   0  0  0  0  0  0  0  0  0  0  0  0
   35.3900   29.0960   40.9510 N   0  0  0  0  0  0  0  0  0  0  0  0
   34.0390   30.0390   39.5660 H   0  0  0  0  0  0  0  0  0  0  0  0
   36.2340   26.7040   38.1010 H   0  0  0  0  0  0  0  0  0  0  0  0
   36.9240   28.0010   42.4770 C   0  0  0  0  0  2  0  0  0  0  0  0
   38.3330   28.3240   42.4670 N   0  0  0  0  0  4  0  0  0  0  0  0
   38.6760   28.1350   41.4870 H   0  0  0  0  0  0  0  0  0  0  0  0
   38.6310   29.6880   42.7900 C   0  0  0  0  0  2  0  0  0  0  0  0
   38.8300   29.7940   43.8740 H   0  0  0  0  0  0  0  0  0  0  0  0
   39.0290   27.3770   43.3170 C   0  0  0  0  0  2  0  0  0  0  0  0
   39.8570   27.9000   43.8480 H   0  0  0  0  0  0  0  0  0  0  0  0
   32.5090   29.0170   35.8870 C   0  0  0  0  0  0  0  0  0  0  0  0
   31.8840   28.1340   35.6750 H   0  0  0  0  0  0  0  0  0  0  0  0
   33.3260   29.1710   35.1320 H   0  0  0  0  0  0  0  0  0  0  0  0
   31.6620   30.2480   35.8250 C   0  0  0  0  0  0  0  0  0  0  0  0
   31.6400   30.9790   34.6450 C   0  0  0  0  0  0  0  0  0  0  0  0
   30.8600   32.1250   34.5680 C   0  0  0  0  0  0  0  0  0  0  0  0
   30.1030   32.5450   35.6600 C   0  0  0  0  0  0  0  0  0  0  0  0
   30.1260   31.8190   36.8300 C   0  0  0  0  0  0  0  0  0  0  0  0
   30.9060   30.6770   36.9010 C   0  0  0  0  0  0  0  0  0  0  0  0
   32.2430   30.6340   33.7910 H   0  0  0  0  0  0  0  0  0  0  0  0
   30.8930   32.6410   33.6180 H   0  0  0  0  0  0  0  0  0  0  0  0
   29.5390   33.4500   35.4730 H   0  0  0  0  0  0  0  0  0  0  0  0
   29.5230   32.1830   37.6530 H   0  0  0  0  0  0  0  0  0  0  0  0
   30.9130   30.1200   37.8260 H   0  0  0  0  0  0  0  0  0  0  0  0
  1  4  1  0  0  0  0
  2  1  2  0  0  0  0
  3  8  1  0  0  0  0
  4  5  1  0  0  0  0
  4  3  2  0  0  0  0
  5  6  2  0  0  0  0
  6  7  1  0  0  0  0
  7 11  1  0  0  0  0
  8  7  2  0  0  0  0
  9  3  1  0  0  0  0
 10  5  1  0  0  0  0
 12 11  1  0  0  0  0
 12 14  1  0  0  0  0
 12 16  1  0  0  0  0
 13 12  1  0  0  0  0
 14 15  1  0  0  0  0
 16 17  1  0  0  0  0
 18  2  1  0  0  0  0
 19 18  1  0  0  0  0
 20 18  1  0  0  0  0
 21 18  1  0  0  0  0
 21 26  1  0  0  0  0
 22 21  2  0  0  0  0
 23 22  1  0  0  0  0
 23 24  2  0  0  0  0
 24 25  1  0  0  0  0
 25 26  2  0  0  0  0
 25 30  1  0  0  0  0
 26 31  1  0  0  0  0
 27 22  1  0  0  0  0
 28 23  1  0  0  0  0
 29 24  1  0  0  0  0
M  END
>  <minimizedAffinity>
-4.98541021

$$$$

 OpenBabel03242517393D

 31 32  0  0  0  0  0  0  0  0999 V2000
   34.4210   28.5790   37.4930 C   0  0  0  0  0  3  0  0  0  0  0  0
   33.1570   28.8800   37.3180 C   0  0  0  0  0  3  0  0  0  0  0  0
   36.0730   27.4610   38.9680 C   0  0  0  0  0  0  0  0  0  0  0  0
   35.0930   28.4390   38.7660 C   0  0  0  0  0  0  0  0  0  0  0  0
   34.7900   29.2680   39.8290 C   0  0  0  0  0  0  0  0  0  0  0  0
   35.4520   29.0970   41.0130 N   0  0  0  0  0  0  0  0  0  0  0  0
   36.3920   28.1440   41.1780 C   0  0  0  0  0  0  0  0  0  0  0  0
   36.6920   27.3390   40.1570 N   0  0  0  0  0  0  0  0  0  0  0  0
   36.2890   26.8220   38.1070 H   0  0  0  0  0  0  0  0  0  0  0  0
   34.0360   30.0460   39.7280 H   0  0  0  0  0  0  0  0  0  0  0  0
   37.1130   27.9570   42.4640 C   0  0  0  0  0  2  0  0  0  0  0  0
   38.5130   28.3130   42.3930 N   0  0  0  0  0  4  0  0  0  0  0  0
   38.8280   28.0960   41.4100 H   0  0  0  0  0  0  0  0  0  0  0  0
   38.7870   29.6940   42.6560 C   0  0  0  0  0  2  0  0  0  0  0  0
   39.0200   29.8450   43.7290 H   0  0  0  0  0  0  0  0  0  0  0  0
   39.2600   27.4140   43.2520 C   0  0  0  0  0  2  0  0  0  0  0  0
   40.0920   27.9760   43.7350 H   0  0  0  0  0  0  0  0  0  0  0  0
   32.5100   29.0130   35.9880 C   0  0  0  0  0  0  0  0  0  0  0  0
   31.8790   28.1280   35.8010 H   0  0  0  0  0  0  0  0  0  0  0  0
   33.3160   29.1490   35.2170 H   0  0  0  0  0  0  0  0  0  0  0  0
   31.6660   30.2460   35.9140 C   0  0  0  0  0  0  0  0  0  0  0  0
   30.9030   30.5930   37.0200 C   0  0  0  0  0  0  0  0  0  0  0  0
   30.1120   31.7330   36.9710 C   0  0  0  0  0  0  0  0  0  0  0  0
   30.0800   32.5280   35.8260 C   0  0  0  0  0  0  0  0  0  0  0  0
   30.8390   32.1820   34.7300 C   0  0  0  0  0  0  0  0  0  0  0  0
   31.6240   31.0430   34.7850 C   0  0  0  0  0  0  0  0  0  0  0  0
   30.9390   29.9560   37.9170 H   0  0  0  0  0  0  0  0  0  0  0  0
   29.5460   31.9400   37.8690 H   0  0  0  0  0  0  0  0  0  0  0  0
   29.4270   33.3870   35.9140 H   0  0  0  0  0  0  0  0  0  0  0  0
   30.7820   32.8270   33.8630 H   0  0  0  0  0  0  0  0  0  0  0  0
   32.2120   30.7860   33.9160 H   0  0  0  0  0  0  0  0  0  0  0  0
  1  4  1  0  0  0  0
  2  1  2  0  0  0  0
  3  8  1  0  0  0  0
  4  3  2  0  0  0  0
  4  5  1  0  0  0  0
  5  6  2  0  0  0  0
  6  7  1  0  0  0  0
  7 11  1  0  0  0  0
  8  7  2  0  0  0  0
  9  3  1  0  0  0  0
 10  5  1  0  0  0  0
 12 11  1  0  0  0  0
 12 14  1  0  0  0  0
 12 16  1  0  0  0  0
 13 12  1  0  0  0  0
 14 15  1  0  0  0  0
 16 17  1  0  0  0  0
 18  2  1  0  0  0  0
 19 18  1  0  0  0  0
 20 18  1  0  0  0  0
 21 18  1  0  0  0  0
 21 22  1  0  0  0  0
 22 27  1  0  0  0  0
 23 22  2  0  0  0  0
 23 28  1  0  0  0  0
 24 29  1  0  0  0  0
 24 23  1  0  0  0  0
 25 26  1  0  0  0  0
 25 24  2  0  0  0  0
 26 21  2  0  0  0  0
 30 25  1  0  0  0  0
 31 26  1  0  0  0  0
M  END
>  <minimizedAffinity>
-4.93681002

$$$$

 OpenBabel03242517393D

 31 32  0  0  0  0  0  0  0  0999 V2000
   36.4550   27.6750   41.4180 C   0  0  0  0  0  3  0  0  0  0  0  0
   37.3420   26.7150   41.5160 C   0  0  0  0  0  3  0  0  0  0  0  0
   36.9450   29.0410   39.4060 C   0  0  0  0  0  0  0  0  0  0  0  0
   36.6530   28.9530   40.7720 C   0  0  0  0  0  0  0  0  0  0  0  0
   36.5630   30.1350   41.4820 C   0  0  0  0  0  0  0  0  0  0  0  0
   36.7590   31.3180   40.8270 N   0  0  0  0  0  0  0  0  0  0  0  0
   37.0390   31.3720   39.5090 C   0  0  0  0  0  0  0  0  0  0  0  0
   37.1290   30.2360   38.8150 N   0  0  0  0  0  0  0  0  0  0  0  0
   37.0110   28.0870   38.8740 H   0  0  0  0  0  0  0  0  0  0  0  0
   36.3380   30.1260   42.5460 H   0  0  0  0  0  0  0  0  0  0  0  0
   37.2520   32.6580   38.7960 C   0  0  0  0  0  2  0  0  0  0  0  0
   38.5320   33.2670   39.0830 N   0  0  0  0  0  4  0  0  0  0  0  0
   38.7370   33.9240   38.2830 H   0  0  0  0  0  0  0  0  0  0  0  0
   38.5700   34.0200   40.3010 C   0  0  0  0  0  2  0  0  0  0  0  0
   38.9220   33.3850   41.1370 H   0  0  0  0  0  0  0  0  0  0  0  0
   39.5550   32.2400   39.0200 C   0  0  0  0  0  2  0  0  0  0  0  0
   40.3240   32.4410   39.8010 H   0  0  0  0  0  0  0  0  0  0  0  0
   37.0920   25.4160   42.1910 C   0  0  0  0  0  0  0  0  0  0  0  0
   36.1040   25.4450   42.6800 H   0  0  0  0  0  0  0  0  0  0  0  0
   37.9340   25.2260   42.9100 H   0  0  0  0  0  0  0  0  0  0  0  0
   37.1270   24.2810   41.2170 C   0  0  0  0  0  0  0  0  0  0  0  0
   38.2710   23.4990   41.1510 C   0  0  0  0  0  0  0  0  0  0  0  0
   38.3230   22.4410   40.2540 C   0  0  0  0  0  0  0  0  0  0  0  0
   37.2400   22.1600   39.4220 C   0  0  0  0  0  0  0  0  0  0  0  0
   36.1050   22.9380   39.4890 C   0  0  0  0  0  0  0  0  0  0  0  0
   36.0600   23.9920   40.3860 C   0  0  0  0  0  0  0  0  0  0  0  0
   39.1180   23.7330   41.8140 H   0  0  0  0  0  0  0  0  0  0  0  0
   39.2460   21.8770   40.2590 H   0  0  0  0  0  0  0  0  0  0  0  0
   37.4040   21.3130   38.7700 H   0  0  0  0  0  0  0  0  0  0  0  0
   35.2890   22.6830   38.8240 H   0  0  0  0  0  0  0  0  0  0  0  0
   35.1630   24.5910   40.4250 H   0  0  0  0  0  0  0  0  0  0  0  0
  1  2  2  0  0  0  0
  2 18  1  0  0  0  0
  3  4  1  0  0  0  0
  4  1  1  0  0  0  0
  4  5  2  0  0  0  0
  5 10  1  0  0  0  0
  6  5  1  0  0  0  0
  7  6  2  0  0  0  0
  8  3  2  0  0  0  0
  8  7  1  0  0  0  0
  9  3  1  0  0  0  0
 11 12  1  0  0  0  0
 11  7  1  0  0  0  0
 12 14  1  0  0  0  0
 13 12  1  0  0  0  0
 14 15  1  0  0  0  0
 16 12  1  0  0  0  0
 16 17  1  0  0  0  0
 18 19  1  0  0  0  0
 18 20  1  0  0  0  0
 21 18  1  0  0  0  0
 22 21  1  0  0  0  0
 22 27  1  0  0  0  0
 23 28  1  0  0  0  0
 23 22  2  0  0  0  0
 24 25  2  0  0  0  0
 24 23  1  0  0  0  0
 25 26  1  0  0  0  0
 26 31  1  0  0  0  0
 26 21  2  0  0  0  0
 29 24  1  0  0  0  0
 30 25  1  0  0  0  0
M  END
>  <minimizedAffinity>
-4.78855848

$$$$

 OpenBabel03242517393D

 31 32  0  0  0  0  0  0  0  0999 V2000
   34.0030   28.8920   38.3270 C   0  0  0  0  0  3  0  0  0  0  0  0
   33.6490   28.9970   37.0690 C   0  0  0  0  0  3  0  0  0  0  0  0
   36.2350   29.9680   38.2100 C   0  0  0  0  0  0  0  0  0  0  0  0
   35.3280   29.1250   38.8600 C   0  0  0  0  0  0  0  0  0  0  0  0
   35.7430   28.5210   40.0310 C   0  0  0  0  0  0  0  0  0  0  0  0
   37.0050   28.7710   40.4940 N   0  0  0  0  0  0  0  0  0  0  0  0
   37.8580   29.5900   39.8450 C   0  0  0  0  0  0  0  0  0  0  0  0
   37.4660   30.1770   38.7130 N   0  0  0  0  0  0  0  0  0  0  0  0
   35.8750   30.4290   37.2860 H   0  0  0  0  0  0  0  0  0  0  0  0
   35.0790   27.8560   40.5780 H   0  0  0  0  0  0  0  0  0  0  0  0
   39.2300   29.8640   40.3480 C   0  0  0  0  0  2  0  0  0  0  0  0
   39.2960   30.9990   41.2400 N   0  0  0  0  0  4  0  0  0  0  0  0
   38.3460   31.4560   41.2160 H   0  0  0  0  0  0  0  0  0  0  0  0
   39.5990   30.6670   42.6010 C   0  0  0  0  0  2  0  0  0  0  0  0
   40.6900   30.7290   42.7800 H   0  0  0  0  0  0  0  0  0  0  0  0
   40.2140   31.9730   40.6780 C   0  0  0  0  0  2  0  0  0  0  0  0
   40.7800   32.4620   41.5040 H   0  0  0  0  0  0  0  0  0  0  0  0
   32.2740   28.7470   36.5680 C   0  0  0  0  0  0  0  0  0  0  0  0
   31.7700   28.0260   37.2340 H   0  0  0  0  0  0  0  0  0  0  0  0
   32.3470   28.3890   35.5060 H   0  0  0  0  0  0  0  0  0  0  0  0
   31.4750   30.0110   36.5170 C   0  0  0  0  0  0  0  0  0  0  0  0
   30.7330   30.3720   37.6320 C   0  0  0  0  0  0  0  0  0  0  0  0
   29.9850   31.5410   37.6040 C   0  0  0  0  0  0  0  0  0  0  0  0
   29.9740   32.3510   36.4690 C   0  0  0  0  0  0  0  0  0  0  0  0
   30.7110   31.9910   35.3620 C   0  0  0  0  0  0  0  0  0  0  0  0
   31.4550   30.8230   35.3970 C   0  0  0  0  0  0  0  0  0  0  0  0
   30.7520   29.7230   38.5210 H   0  0  0  0  0  0  0  0  0  0  0  0
   29.4330   31.7580   38.5080 H   0  0  0  0  0  0  0  0  0  0  0  0
   29.3540   33.2320   36.5720 H   0  0  0  0  0  0  0  0  0  0  0  0
   30.6720   32.6500   34.5040 H   0  0  0  0  0  0  0  0  0  0  0  0
   32.0270   30.5560   34.5210 H   0  0  0  0  0  0  0  0  0  0  0  0
  1  4  1  0  0  0  0
  2  1  2  0  0  0  0
  3  8  2  0  0  0  0
  3  4  1  0  0  0  0
  4  5  2  0  0  0  0
  5  6  1  0  0  0  0
  5 10  1  0  0  0  0
  7 11  1  0  0  0  0
  7  6  2  0  0  0  0
  8  7  1  0  0  0  0
  9  3  1  0  0  0  0
 11 12  1  0  0  0  0
 12 14  1  0  0  0  0
 13 12  1  0  0  0  0
 14 15  1  0  0  0  0
 16 12  1  0  0  0  0
 16 17  1  0  0  0  0
 18  2  1  0  0  0  0
 18 19  1  0  0  0  0
 20 18  1  0  0  0  0
 21 18  1  0  0  0  0
 21 22  1  0  0  0  0
 22 27  1  0  0  0  0
 23 22  2  0  0  0  0
 23 28  1  0  0  0  0
 24 29  1  0  0  0  0
 24 23  1  0  0  0  0
 25 26  1  0  0  0  0
 25 24  2  0  0  0  0
 26 21  2  0  0  0  0
 30 25  1  0  0  0  0
 31 26  1  0  0  0  0
M  END
>  <minimizedAffinity>
-4.58205938

$$$$

 OpenBabel03242517393D

 31 32  0  0  0  0  0  0  0  0999 V2000
   36.8140   28.3940   40.9020 C   0  0  0  0  0  3  0  0  0  0  0  0
   36.4870   28.0390   42.1210 C   0  0  0  0  0  3  0  0  0  0  0  0
   36.2940   28.1320   38.4910 C   0  0  0  0  0  0  0  0  0  0  0  0
   35.9090   28.5140   39.7800 C   0  0  0  0  0  0  0  0  0  0  0  0
   34.6310   29.0130   39.9440 C   0  0  0  0  0  0  0  0  0  0  0  0
   33.8120   29.1080   38.8530 N   0  0  0  0  0  0  0  0  0  0  0  0
   34.2110   28.7310   37.6210 C   0  0  0  0  0  0  0  0  0  0  0  0
   35.4440   28.2490   37.4530 N   0  0  0  0  0  0  0  0  0  0  0  0
   37.3120   27.7420   38.3960 H   0  0  0  0  0  0  0  0  0  0  0  0
   34.2790   29.3250   40.9240 H   0  0  0  0  0  0  0  0  0  0  0  0
   33.3220   28.8330   36.4340 C   0  0  0  0  0  2  0  0  0  0  0  0
   32.0180   28.2440   36.6430 N   0  0  0  0  0  4  0  0  0  0  0  0
   32.0320   27.8210   37.6090 H   0  0  0  0  0  0  0  0  0  0  0  0
   30.9310   29.1740   36.5770 C   0  0  0  0  0  2  0  0  0  0  0  0
   30.5160   29.2120   35.5510 H   0  0  0  0  0  0  0  0  0  0  0  0
   31.8650   27.1290   35.7280 C   0  0  0  0  0  2  0  0  0  0  0  0
   30.8080   27.0850   35.3770 H   0  0  0  0  0  0  0  0  0  0  0  0
   37.4540   27.9290   43.2430 C   0  0  0  0  0  0  0  0  0  0  0  0
   36.9030   27.9350   44.1990 H   0  0  0  0  0  0  0  0  0  0  0  0
   38.1910   28.7720   43.1550 H   0  0  0  0  0  0  0  0  0  0  0  0
   38.2590   26.6720   43.1460 C   0  0  0  0  0  0  0  0  0  0  0  0
   37.7030   25.5770   42.5020 C   0  0  0  0  0  0  0  0  0  0  0  0
   38.4340   24.4010   42.4020 C   0  0  0  0  0  0  0  0  0  0  0  0
   39.7160   24.3130   42.9420 C   0  0  0  0  0  0  0  0  0  0  0  0
   40.2670   25.4020   43.5810 C   0  0  0  0  0  0  0  0  0  0  0  0
   39.5320   26.5710   43.6780 C   0  0  0  0  0  0  0  0  0  0  0  0
   36.6890   25.6610   42.0810 H   0  0  0  0  0  0  0  0  0  0  0  0
   37.9360   23.5910   41.8860 H   0  0  0  0  0  0  0  0  0  0  0  0
   40.1810   23.3460   42.7980 H   0  0  0  0  0  0  0  0  0  0  0  0
   41.2650   25.2880   43.9850 H   0  0  0  0  0  0  0  0  0  0  0  0
   39.9790   27.4150   44.1830 H   0  0  0  0  0  0  0  0  0  0  0  0
  1  2  2  0  0  0  0
  2 18  1  0  0  0  0
  3  4  1  0  0  0  0
  4  5  2  0  0  0  0
  4  1  1  0  0  0  0
  5 10  1  0  0  0  0
  6  5  1  0  0  0  0
  7  6  2  0  0  0  0
  8  7  1  0  0  0  0
  8  3  2  0  0  0  0
  9  3  1  0  0  0  0
 11 12  1  0  0  0  0
 11  7  1  0  0  0  0
 12 13  1  0  0  0  0
 14 12  1  0  0  0  0
 15 14  1  0  0  0  0
 16 12  1  0  0  0  0
 17 16  1  0  0  0  0
 18 19  1  0  0  0  0
 20 18  1  0  0  0  0
 21 18  1  0  0  0  0
 21 26  1  0  0  0  0
 22 21  2  0  0  0  0
 23 22  1  0  0  0  0
 23 24  2  0  0  0  0
 24 25  1  0  0  0  0
 25 26  2  0  0  0  0
 25 30  1  0  0  0  0
 26 31  1  0  0  0  0
 27 22  1  0  0  0  0
 28 23  1  0  0  0  0
 29 24  1  0  0  0  0
M  END
>  <minimizedAffinity>
-4.54343891

$$$$

 OpenBabel03242517393D

 31 32  0  0  0  0  0  0  0  0999 V2000
   37.9560   26.8520   42.5860 C   0  0  0  0  0  3  0  0  0  0  0  0
   37.2610   26.0400   41.8260 C   0  0  0  0  0  3  0  0  0  0  0  0
   39.5500   28.7530   42.5680 C   0  0  0  0  0  0  0  0  0  0  0  0
   38.2850   28.2280   42.2830 C   0  0  0  0  0  0  0  0  0  0  0  0
   37.3590   29.0720   41.7010 C   0  0  0  0  0  0  0  0  0  0  0  0
   37.7160   30.3640   41.4340 N   0  0  0  0  0  0  0  0  0  0  0  0
   38.9450   30.8430   41.7200 C   0  0  0  0  0  0  0  0  0  0  0  0
   39.8450   30.0350   42.2830 N   0  0  0  0  0  0  0  0  0  0  0  0
   40.2580   28.0590   43.0290 H   0  0  0  0  0  0  0  0  0  0  0  0
   36.3600   28.7160   41.4570 H   0  0  0  0  0  0  0  0  0  0  0  0
   39.3350   32.2470   41.4300 C   0  0  0  0  0  2  0  0  0  0  0  0
   38.7600   32.7600   40.2060 N   0  0  0  0  0  4  0  0  0  0  0  0
   37.8620   32.2270   40.0510 H   0  0  0  0  0  0  0  0  0  0  0  0
   38.4500   34.1590   40.2380 C   0  0  0  0  0  2  0  0  0  0  0  0
   39.2970   34.7510   39.8400 H   0  0  0  0  0  0  0  0  0  0  0  0
   39.6280   32.3980   39.1020 C   0  0  0  0  0  2  0  0  0  0  0  0
   39.6390   33.2260   38.3570 H   0  0  0  0  0  0  0  0  0  0  0  0
   36.9480   24.6330   42.1800 C   0  0  0  0  0  0  0  0  0  0  0  0
   35.9370   24.5840   42.6170 H   0  0  0  0  0  0  0  0  0  0  0  0
   37.7470   24.2600   42.8770 H   0  0  0  0  0  0  0  0  0  0  0  0
   37.0100   23.7430   40.9800 C   0  0  0  0  0  0  0  0  0  0  0  0
   35.9030   23.6790   40.1450 C   0  0  0  0  0  0  0  0  0  0  0  0
   35.9410   22.8580   39.0250 C   0  0  0  0  0  0  0  0  0  0  0  0
   37.0760   22.1020   38.7350 C   0  0  0  0  0  0  0  0  0  0  0  0
   38.1730   22.1670   39.5650 C   0  0  0  0  0  0  0  0  0  0  0  0
   38.1290   22.9870   40.6800 C   0  0  0  0  0  0  0  0  0  0  0  0
   35.0150   24.2820   40.3870 H   0  0  0  0  0  0  0  0  0  0  0  0
   35.0430   22.8610   38.4220 H   0  0  0  0  0  0  0  0  0  0  0  0
   36.9800   21.5060   37.8370 H   0  0  0  0  0  0  0  0  0  0  0  0
   39.0320   21.5630   39.3010 H   0  0  0  0  0  0  0  0  0  0  0  0
   38.9980   23.0260   41.3200 H   0  0  0  0  0  0  0  0  0  0  0  0
  2 18  1  0  0  0  0
  2  1  2  0  0  0  0
  3  9  1  0  0  0  0
  4  3  1  0  0  0  0
  4  1  1  0  0  0  0
  5  4  2  0  0  0  0
  6  5  1  0  0  0  0
  6  7  2  0  0  0  0
  7  8  1  0  0  0  0
  8  3  2  0  0  0  0
 10  5  1  0  0  0  0
 11  7  1  0  0  0  0
 12 14  1  0  0  0  0
 12 11  1  0  0  0  0
 13 12  1  0  0  0  0
 15 14  1  0  0  0  0
 16 12  1  0  0  0  0
 17 16  1  0  0  0  0
 18 19  1  0  0  0  0
 18 20  1  0  0  0  0
 21 18  1  0  0  0  0
 22 27  1  0  0  0  0
 22 21  2  0  0  0  0
 23 22  1  0  0  0  0
 24 23  2  0  0  0  0
 24 25  1  0  0  0  0
 25 26  2  0  0  0  0
 26 21  1  0  0  0  0
 26 31  1  0  0  0  0
 28 23  1  0  0  0  0
 29 24  1  0  0  0  0
 30 25  1  0  0  0  0
M  END
>  <minimizedAffinity>
-4.47837782

$$$$

 OpenBabel03242517393D

 31 32  0  0  0  0  0  0  0  0999 V2000
   35.6280   29.6490   37.8710 C   0  0  0  0  0  3  0  0  0  0  0  0
   34.5710   28.9790   38.2620 C   0  0  0  0  0  3  0  0  0  0  0  0
   37.6520   31.0440   38.2100 C   0  0  0  0  0  0  0  0  0  0  0  0
   36.5220   30.4000   38.7260 C   0  0  0  0  0  0  0  0  0  0  0  0
   36.2910   30.5060   40.0840 C   0  0  0  0  0  0  0  0  0  0  0  0
   37.1650   31.2260   40.8500 N   0  0  0  0  0  0  0  0  0  0  0  0
   38.2460   31.8370   40.3240 C   0  0  0  0  0  0  0  0  0  0  0  0
   38.4780   31.7390   39.0140 N   0  0  0  0  0  0  0  0  0  0  0  0
   37.8050   30.9390   37.1310 H   0  0  0  0  0  0  0  0  0  0  0  0
   35.4280   30.0260   40.5380 H   0  0  0  0  0  0  0  0  0  0  0  0
   39.1960   32.6200   41.1550 C   0  0  0  0  0  2  0  0  0  0  0  0
   40.5330   32.6710   40.6050 N   0  0  0  0  0  4  0  0  0  0  0  0
   40.4880   32.1910   39.6660 H   0  0  0  0  0  0  0  0  0  0  0  0
   41.0420   33.9950   40.4070 C   0  0  0  0  0  2  0  0  0  0  0  0
   41.6220   34.3220   41.2920 H   0  0  0  0  0  0  0  0  0  0  0  0
   41.4000   31.8470   41.4260 C   0  0  0  0  0  2  0  0  0  0  0  0
   42.4050   32.3250   41.4910 H   0  0  0  0  0  0  0  0  0  0  0  0
   33.6810   28.2220   37.3460 C   0  0  0  0  0  0  0  0  0  0  0  0
   33.0900   27.4970   37.9300 H   0  0  0  0  0  0  0  0  0  0  0  0
   34.3180   27.7370   36.5580 H   0  0  0  0  0  0  0  0  0  0  0  0
   32.7520   29.1350   36.6110 C   0  0  0  0  0  0  0  0  0  0  0  0
   31.6990   29.7110   37.3070 C   0  0  0  0  0  0  0  0  0  0  0  0
   30.8260   30.5610   36.6430 C   0  0  0  0  0  0  0  0  0  0  0  0
   30.9980   30.8400   35.2870 C   0  0  0  0  0  0  0  0  0  0  0  0
   32.0440   30.2680   34.5970 C   0  0  0  0  0  0  0  0  0  0  0  0
   32.9110   29.4200   35.2660 C   0  0  0  0  0  0  0  0  0  0  0  0
   31.5760   29.4810   38.3770 H   0  0  0  0  0  0  0  0  0  0  0  0
   30.0310   30.9720   37.2500 H   0  0  0  0  0  0  0  0  0  0  0  0
   30.2540   31.5160   34.8870 H   0  0  0  0  0  0  0  0  0  0  0  0
   32.1380   30.5120   33.5470 H   0  0  0  0  0  0  0  0  0  0  0  0
   33.7250   28.9800   34.7100 H   0  0  0  0  0  0  0  0  0  0  0  0
  1  2  2  0  0  0  0
  1  4  1  0  0  0  0
  3  4  2  0  0  0  0
  3  8  1  0  0  0  0
  4  5  1  0  0  0  0
  5 10  1  0  0  0  0
  5  6  2  0  0  0  0
  7  6  1  0  0  0  0
  7 11  1  0  0  0  0
  8  7  2  0  0  0  0
  9  3  1  0  0  0  0
 12 11  1  0  0  0  0
 12 16  1  0  0  0  0
 13 12  1  0  0  0  0
 14 12  1  0  0  0  0
 14 15  1  0  0  0  0
 16 17  1  0  0  0  0
 18 19  1  0  0  0  0
 18  2  1  0  0  0  0
 20 18  1  0  0  0  0
 21 22  1  0  0  0  0
 21 18  1  0  0  0  0
 22 27  1  0  0  0  0
 23 28  1  0  0  0  0
 23 22  2  0  0  0  0
 24 23  1  0  0  0  0
 25 26  1  0  0  0  0
 25 24  2  0  0  0  0
 26 21  2  0  0  0  0
 29 24  1  0  0  0  0
 30 25  1  0  0  0  0
 31 26  1  0  0  0  0
M  END
>  <minimizedAffinity>
-4.38247824

$$$$

 OpenBabel03242517393D

 31 32  0  0  0  0  0  0  0  0999 V2000
   36.0630   29.7510   39.0030 C   0  0  0  0  0  3  0  0  0  0  0  0
   35.6810   29.8990   40.2480 C   0  0  0  0  0  3  0  0  0  0  0  0
   35.6950   29.3210   36.5880 C   0  0  0  0  0  0  0  0  0  0  0  0
   35.2360   29.2910   37.9090 C   0  0  0  0  0  0  0  0  0  0  0  0
   33.9620   28.8060   38.1310 C   0  0  0  0  0  0  0  0  0  0  0  0
   33.2180   28.3830   37.0650 N   0  0  0  0  0  0  0  0  0  0  0  0
   33.6870   28.4240   35.8010 C   0  0  0  0  0  0  0  0  0  0  0  0
   34.9170   28.8910   35.5770 N   0  0  0  0  0  0  0  0  0  0  0  0
   36.7070   29.7110   36.4460 H   0  0  0  0  0  0  0  0  0  0  0  0
   33.5550   28.7600   39.1390 H   0  0  0  0  0  0  0  0  0  0  0  0
   32.8810   27.9640   34.6410 C   0  0  0  0  0  2  0  0  0  0  0  0
   31.5570   28.5450   34.5980 N   0  0  0  0  0  4  0  0  0  0  0  0
   31.1240   28.3760   35.5450 H   0  0  0  0  0  0  0  0  0  0  0  0
   31.5370   29.9550   34.3420 C   0  0  0  0  0  2  0  0  0  0  0  0
   31.4290   30.1500   33.2570 H   0  0  0  0  0  0  0  0  0  0  0  0
   30.7530   27.7880   33.6570 C   0  0  0  0  0  2  0  0  0  0  0  0
   30.0700   28.4840   33.1160 H   0  0  0  0  0  0  0  0  0  0  0  0
   36.5690   30.3750   41.3400 C   0  0  0  0  0  0  0  0  0  0  0  0
   35.9730   30.9560   42.0640 H   0  0  0  0  0  0  0  0  0  0  0  0
   37.4040   30.9690   40.8790 H   0  0  0  0  0  0  0  0  0  0  0  0
   37.2250   29.2320   42.0460 C   0  0  0  0  0  0  0  0  0  0  0  0
   36.5110   28.0520   42.2010 C   0  0  0  0  0  0  0  0  0  0  0  0
   37.1030   26.9790   42.8540 C   0  0  0  0  0  0  0  0  0  0  0  0
   38.4010   27.0770   43.3520 C   0  0  0  0  0  0  0  0  0  0  0  0
   39.1080   28.2490   43.1960 C   0  0  0  0  0  0  0  0  0  0  0  0
   38.5120   29.3160   42.5450 C   0  0  0  0  0  0  0  0  0  0  0  0
   35.4870   27.9890   41.8030 H   0  0  0  0  0  0  0  0  0  0  0  0
   36.4870   26.0940   42.9370 H   0  0  0  0  0  0  0  0  0  0  0  0
   38.7480   26.1750   43.8380 H   0  0  0  0  0  0  0  0  0  0  0  0
   40.1120   28.2810   43.5990 H   0  0  0  0  0  0  0  0  0  0  0  0
   39.0800   30.2270   42.4320 H   0  0  0  0  0  0  0  0  0  0  0  0
  1  2  2  0  0  0  0
  2 18  1  0  0  0  0
  3  4  1  0  0  0  0
  4  5  2  0  0  0  0
  4  1  1  0  0  0  0
  5 10  1  0  0  0  0
  6  5  1  0  0  0  0
  7  6  2  0  0  0  0
  8  7  1  0  0  0  0
  8  3  2  0  0  0  0
  9  3  1  0  0  0  0
 11  7  1  0  0  0  0
 12 11  1  0  0  0  0
 12 13  1  0  0  0  0
 14 12  1  0  0  0  0
 15 14  1  0  0  0  0
 16 12  1  0  0  0  0
 17 16  1  0  0  0  0
 18 21  1  0  0  0  0
 18 19  1  0  0  0  0
 20 18  1  0  0  0  0
 21 22  2  0  0  0  0
 21 26  1  0  0  0  0
 22 23  1  0  0  0  0
 23 28  1  0  0  0  0
 23 24  2  0  0  0  0
 24 29  1  0  0  0  0
 25 24  1  0  0  0  0
 25 30  1  0  0  0  0
 26 25  2  0  0  0  0
 27 22  1  0  0  0  0
 31 26  1  0  0  0  0
M  END
>  <minimizedAffinity>
-4.31671

$$$$

 OpenBabel03242517393D

 31 32  0  0  0  0  0  0  0  0999 V2000
   34.4950   28.8960   36.7220 C   0  0  0  0  0  3  0  0  0  0  0  0
   33.2710   28.5760   36.3790 C   0  0  0  0  0  3  0  0  0  0  0  0
   35.6280   27.1690   38.0960 C   0  0  0  0  0  0  0  0  0  0  0  0
   35.1750   28.4820   37.9300 C   0  0  0  0  0  0  0  0  0  0  0  0
   35.4010   29.3710   38.9630 C   0  0  0  0  0  0  0  0  0  0  0  0
   36.0480   28.9330   40.0850 N   0  0  0  0  0  0  0  0  0  0  0  0
   36.4730   27.6590   40.2170 C   0  0  0  0  0  0  0  0  0  0  0  0
   36.2590   26.7940   39.2250 N   0  0  0  0  0  0  0  0  0  0  0  0
   35.4320   26.4910   37.2600 H   0  0  0  0  0  0  0  0  0  0  0  0
   35.0710   30.4050   38.8870 H   0  0  0  0  0  0  0  0  0  0  0  0
   37.1760   27.1810   41.4350 C   0  0  0  0  0  2  0  0  0  0  0  0
   38.5940   26.9750   41.2350 N   0  0  0  0  0  4  0  0  0  0  0  0
   38.7210   26.7420   40.2140 H   0  0  0  0  0  0  0  0  0  0  0  0
   39.4070   28.1150   41.5390 C   0  0  0  0  0  2  0  0  0  0  0  0
   39.7630   28.0680   42.5870 H   0  0  0  0  0  0  0  0  0  0  0  0
   38.9930   25.7850   41.9620 C   0  0  0  0  0  2  0  0  0  0  0  0
   40.0140   25.9380   42.3830 H   0  0  0  0  0  0  0  0  0  0  0  0
   32.6130   29.0260   35.1270 C   0  0  0  0  0  0  0  0  0  0  0  0
   31.9750   28.2140   34.7390 H   0  0  0  0  0  0  0  0  0  0  0  0
   33.4130   29.3400   34.4030 H   0  0  0  0  0  0  0  0  0  0  0  0
   31.7750   30.2430   35.3580 C   0  0  0  0  0  0  0  0  0  0  0  0
   31.6730   31.1810   34.3410 C   0  0  0  0  0  0  0  0  0  0  0  0
   30.9000   32.3180   34.5370 C   0  0  0  0  0  0  0  0  0  0  0  0
   30.2300   32.5240   35.7420 C   0  0  0  0  0  0  0  0  0  0  0  0
   30.3320   31.5910   36.7510 C   0  0  0  0  0  0  0  0  0  0  0  0
   31.1050   30.4600   36.5490 C   0  0  0  0  0  0  0  0  0  0  0  0
   32.2080   31.0050   33.3950 H   0  0  0  0  0  0  0  0  0  0  0  0
   30.8670   33.0030   33.7000 H   0  0  0  0  0  0  0  0  0  0  0  0
   29.6620   33.4440   35.7700 H   0  0  0  0  0  0  0  0  0  0  0  0
   29.7960   31.7920   37.6690 H   0  0  0  0  0  0  0  0  0  0  0  0
   31.1750   29.7400   37.3510 H   0  0  0  0  0  0  0  0  0  0  0  0
  1  4  1  0  0  0  0
  2  1  2  0  0  0  0
  3  8  1  0  0  0  0
  4  3  2  0  0  0  0
  4  5  1  0  0  0  0
  5  6  2  0  0  0  0
  6  7  1  0  0  0  0
  7 11  1  0  0  0  0
  8  7  2  0  0  0  0
  9  3  1  0  0  0  0
 10  5  1  0  0  0  0
 12 11  1  0  0  0  0
 12 14  1  0  0  0  0
 12 16  1  0  0  0  0
 13 12  1  0  0  0  0
 14 15  1  0  0  0  0
 16 17  1  0  0  0  0
 18 21  1  0  0  0  0
 18  2  1  0  0  0  0
 19 18  1  0  0  0  0
 20 18  1  0  0  0  0
 21 26  1  0  0  0  0
 22 23  1  0  0  0  0
 22 21  2  0  0  0  0
 23 24  2  0  0  0  0
 24 29  1  0  0  0  0
 24 25  1  0  0  0  0
 25 30  1  0  0  0  0
 26 25  2  0  0  0  0
 26 31  1  0  0  0  0
 27 22  1  0  0  0  0
 28 23  1  0  0  0  0
M  END
>  <minimizedAffinity>
-4.27823544

$$$$
