
 OpenBabel03252501063D

 38 40  0  0  1  0  0  0  0  0999 V2000
   48.5950   32.3550   38.0720 O   0  0  0  0  0  0  0  0  0  0  0  0
   48.1030   33.7910   38.2480 P   0  0  2  0  0  0  0  0  0  0  0  0
   49.3140   34.7640   37.5670 O   0  0  0  0  0  0  0  0  0  0  0  0
   48.9660   35.6960   37.5680 H   0  0  0  0  0  0  0  0  0  0  0  0
   47.7390   34.1360   39.8040 O   0  0  0  0  0  0  0  0  0  0  0  0
   48.0810   35.4600   41.8010 C   0  0  1  0  0  0  0  0  0  0  0  0
   49.3110   34.6680   41.6760 C   0  0  0  0  0  0  0  0  0  0  0  0
   48.4700   35.0660   40.4500 C   0  0  1  0  0  0  0  0  0  0  0  0
   48.1590   36.5110   42.1200 H   0  0  0  0  0  0  0  0  0  0  0  0
   49.3380   33.5590   41.8530 H   0  0  0  0  0  0  0  0  0  0  0  0
   50.3150   35.1160   41.7800 H   0  0  0  0  0  0  0  0  0  0  0  0
   49.0200   35.7760   39.8040 H   0  0  0  0  0  0  0  0  0  0  0  0
   46.0460   32.9570   43.7890 C   0  0  0  0  0  0  0  0  0  0  0  0
   47.1390   33.6340   43.2580 C   0  0  0  0  0  0  0  0  0  0  0  0
   46.9130   34.7250   42.3970 C   0  0  0  0  0  0  0  0  0  0  0  0
   45.6360   35.0820   42.1110 N   0  0  0  0  0  0  0  0  0  0  0  0
   44.5860   34.4090   42.6390 C   0  0  0  0  0  0  0  0  0  0  0  0
   44.7880   33.3510   43.4740 N   0  0  0  0  0  0  0  0  0  0  0  0
   46.2280   32.1210   44.4490 H   0  0  0  0  0  0  0  0  0  0  0  0
   48.1250   33.3110   43.5150 H   0  0  0  0  0  0  0  0  0  0  0  0
   43.5980   34.7690   42.3530 H   0  0  0  0  0  0  0  0  0  0  0  0
   46.7490   33.9120   37.2630 O   0  0  0  0  0  0  0  0  0  0  0  0
   45.6690   33.0440   37.3240 C   0  0  0  0  0  0  0  0  0  0  0  0
   45.3490   32.0160   36.4570 C   0  0  0  0  0  0  0  0  0  0  0  0
   44.2430   31.2520   36.6610 C   0  0  0  0  0  0  0  0  0  0  0  0
   43.4070   31.4730   37.7330 C   0  0  0  0  0  0  0  0  0  0  0  0
   43.7630   32.5210   38.5890 C   0  0  0  0  0  0  0  0  0  0  0  0
   44.8750   33.2810   38.3730 N   0  0  0  0  0  0  0  0  0  0  0  0
   46.0480   31.8980   35.6360 H   0  0  0  0  0  0  0  0  0  0  0  0
   44.0510   30.4640   35.9430 H   0  0  0  0  0  0  0  0  0  0  0  0
   42.5400   30.8790   37.8990 H   0  0  0  0  0  0  0  0  0  0  0  0
   42.8640   32.7640   39.7470 C   0  0  0  0  0  2  0  0  0  0  0  0
   41.7840   33.6640   39.4940 N   0  0  0  0  0  4  0  0  0  0  0  0
   41.3810   33.5800   38.5330 H   0  0  0  0  0  0  0  0  0  0  0  0
   40.6910   33.3060   40.3880 C   0  0  0  0  0  2  0  0  0  0  0  0
   41.0770   32.6830   41.2390 H   0  0  0  0  0  0  0  0  0  0  0  0
   42.1360   35.0350   39.8190 C   0  0  0  0  0  2  0  0  0  0  0  0
   42.0650   35.1390   40.9360 H   0  0  0  0  0  0  0  0  0  0  0  0
  2  1  2  6  0  0  0
  2  5  1  0  0  0  0
  3  4  1  0  0  0  0
  3  2  1  0  0  0  0
  5  8  1  0  0  0  0
  6  9  1  1  0  0  0
  6 15  1  0  0  0  0
  7 11  1  0  0  0  0
  7  6  1  0  0  0  0
  7 10  1  0  0  0  0
  8 12  1  6  0  0  0
  8  7  1  0  0  0  0
  8  6  1  0  0  0  0
 13 19  1  0  0  0  0
 14 20  1  0  0  0  0
 14 13  2  0  0  0  0
 15 14  1  0  0  0  0
 16 15  2  0  0  0  0
 16 17  1  0  0  0  0
 17 18  2  0  0  0  0
 18 13  1  0  0  0  0
 21 17  1  0  0  0  0
 22 23  1  0  0  0  0
 22  2  1  0  0  0  0
 23 28  1  0  0  0  0
 24 25  1  0  0  0  0
 24 23  2  0  0  0  0
 25 26  2  0  0  0  0
 26 31  1  0  0  0  0
 26 27  1  0  0  0  0
 27 32  1  0  0  0  0
 28 27  2  0  0  0  0
 29 24  1  0  0  0  0
 30 25  1  0  0  0  0
 33 32  1  0  0  0  0
 33 37  1  0  0  0  0
 33 35  1  0  0  0  0
 34 33  1  0  0  0  0
 35 36  1  0  0  0  0
 37 38  1  0  0  0  0
M  END
>  <minimizedAffinity>
-4.56898451

>  <minimizedRMSD>
0.590236306

$$$$
