
 OpenBabel03252506483D

 27 28  0  0  0  0  0  0  0  0999 V2000
   44.2770   34.4520   42.3350 C   0  0  0  0  0  0  0  0  0  0  0  0
   44.8390   33.3170   42.9470 C   0  0  0  0  0  0  0  0  0  0  0  0
   45.3280   33.4390   44.2510 C   0  0  0  0  0  0  0  0  0  0  0  0
   45.2380   34.6420   44.8650 N   0  0  0  0  0  0  0  0  0  0  0  0
   44.6870   35.7210   44.2390 C   0  0  0  0  0  0  0  0  0  0  0  0
   44.2090   35.6330   42.9820 N   0  0  0  0  0  0  0  0  0  0  0  0
   44.9190   32.3500   42.4760 H   0  0  0  0  0  0  0  0  0  0  0  0
   45.7700   32.5930   44.7700 H   0  0  0  0  0  0  0  0  0  0  0  0
   43.6810   34.1980   40.6680 S   0  0  0  0  0  0  0  0  0  0  0  0
   41.8080   31.7600   41.5600 Cl  0  0  0  0  0  0  0  0  0  0  0  0
   41.0550   33.2060   40.9090 C   0  0  0  0  0  0  0  0  0  0  0  0
   41.9190   34.1900   40.5550 C   0  0  0  0  0  0  0  0  0  0  0  0
   41.3800   35.3740   40.0280 C   0  0  0  0  0  0  0  0  0  0  0  0
   39.9940   35.4940   39.8880 C   0  0  0  0  0  0  0  0  0  0  0  0
   39.1260   34.4870   40.2500 C   0  0  0  0  0  0  0  0  0  0  0  0
   39.6890   33.3180   40.7740 C   0  0  0  0  0  0  0  0  0  0  0  0
   38.6830   31.9700   41.2690 Cl  0  0  0  0  0  0  0  0  0  0  0  0
   41.9500   36.2110   39.7170 H   0  0  0  0  0  0  0  0  0  0  0  0
   39.5480   36.3970   39.4830 H   0  0  0  0  0  0  0  0  0  0  0  0
   38.0480   34.5800   40.1410 H   0  0  0  0  0  0  0  0  0  0  0  0
   44.6330   37.0020   44.9950 C   0  0  0  0  0  2  0  0  0  0  0  0
   44.9120   38.1320   44.1270 N   0  0  0  0  0  4  0  0  0  0  0  0
   44.0610   38.4090   43.5720 H   0  0  0  0  0  0  0  0  0  0  0  0
   46.0260   37.8630   43.2380 C   0  0  0  0  0  2  0  0  0  0  0  0
   46.0870   38.7710   42.5730 H   0  0  0  0  0  0  0  0  0  0  0  0
   45.2850   39.2720   44.9460 C   0  0  0  0  0  2  0  0  0  0  0  0
   44.8160   40.2080   44.5280 H   0  0  0  0  0  0  0  0  0  0  0  0
  1  2  2  0  0  0  0
  1  6  1  0  0  0  0
  2  3  1  0  0  0  0
  3  8  1  0  0  0  0
  3  4  2  0  0  0  0
  5  4  1  0  0  0  0
  5 21  1  0  0  0  0
  6  5  2  0  0  0  0
  7  2  1  0  0  0  0
  9  1  1  0  0  0  0
 11 10  1  0  0  0  0
 12  9  1  0  0  0  0
 12 11  2  0  0  0  0
 13 12  1  0  0  0  0
 14 13  2  0  0  0  0
 14 15  1  0  0  0  0
 15 16  2  0  0  0  0
 16 11  1  0  0  0  0
 16 17  1  0  0  0  0
 18 13  1  0  0  0  0
 19 14  1  0  0  0  0
 20 15  1  0  0  0  0
 22 26  1  0  0  0  0
 22 21  1  0  0  0  0
 23 22  1  0  0  0  0
 24 22  1  0  0  0  0
 25 24  1  0  0  0  0
 27 26  1  0  0  0  0
M  END
>  <minimizedAffinity>
-3.22561026

>  <minimizedRMSD>
0.67523998

$$$$
