
 OpenBabel03252500253D

 35 36  0  0  1  0  0  0  0  0999 V2000
   46.9510   30.2890   48.2190 C   0  0  2  0  0  0  0  0  0  0  0  0
   45.4920   30.5340   48.3030 C   0  0  2  0  0  0  0  0  0  0  0  0
   44.9210   29.6440   47.2610 C   0  0  0  0  0  0  0  0  0  0  0  0
   45.7560   28.5510   47.1370 O   0  0  0  0  0  0  0  0  0  0  0  0
   46.8860   28.7810   47.8510 C   0  0  0  0  0  0  0  0  0  0  0  0
   47.6020   30.6510   47.4790 H   0  0  0  0  0  0  0  0  0  0  0  0
   45.2030   30.1530   49.3200 H   0  0  0  0  0  0  0  0  0  0  0  0
   43.9750   29.1910   47.6930 H   0  0  0  0  0  0  0  0  0  0  0  0
   44.5530   30.0920   46.3380 H   0  0  0  0  0  0  0  0  0  0  0  0
   46.8270   28.2910   48.8630 H   0  0  0  0  0  0  0  0  0  0  0  0
   47.7960   28.4280   47.3740 H   0  0  0  0  0  0  0  0  0  0  0  0
   45.1500   31.8540   48.1240 O   0  0  0  0  0  0  0  0  0  0  0  0
   47.3090   32.9070   47.2090 O   0  0  0  0  0  0  0  0  0  0  0  0
   45.9280   32.4780   46.7950 P   0  0  1  0  0  0  0  0  0  0  0  0
   46.0700   31.2760   45.6090 O   0  0  0  0  0  0  0  0  0  0  0  0
   45.5260   31.4810   44.8280 H   0  0  0  0  0  0  0  0  0  0  0  0
   45.1530   33.8720   46.1780 O   0  0  0  0  0  0  0  0  0  0  0  0
   45.2430   36.1850   43.4530 C   0  0  0  0  0  0  0  0  0  0  0  0
   45.9820   35.5060   42.4440 C   0  0  0  0  0  0  0  0  0  0  0  0
   46.4420   34.2170   42.7570 C   0  0  0  0  0  0  0  0  0  0  0  0
   46.1620   33.7080   43.9730 N   0  0  0  0  0  0  0  0  0  0  0  0
   45.4570   34.3830   44.9050 C   0  0  0  0  0  0  0  0  0  0  0  0
   45.0010   35.6220   44.6370 N   0  0  0  0  0  0  0  0  0  0  0  0
   46.1880   35.9420   41.4820 H   0  0  0  0  0  0  0  0  0  0  0  0
   47.0130   33.6300   42.0430 H   0  0  0  0  0  0  0  0  0  0  0  0
   44.7950   37.4440   43.1470 O   0  0  0  0  0  0  0  0  0  0  0  0
   45.4470   38.1910   42.9970 H   0  0  0  0  0  0  0  0  0  0  0  0
   47.6440   30.4800   49.3770 O   0  0  0  0  0  0  0  0  0  0  0  0
   48.8900   30.8830   49.4700 C   0  0  0  0  0  2  0  0  0  0  0  0
   49.8300   29.7720   49.7290 N   0  0  0  0  0  4  0  0  0  0  0  0
   49.4380   28.8650   49.4680 H   0  0  0  0  0  0  0  0  0  0  0  0
   51.0350   29.9690   48.9060 C   0  0  0  0  0  2  0  0  0  0  0  0
   50.6720   30.5440   48.0070 H   0  0  0  0  0  0  0  0  0  0  0  0
   50.2940   29.7600   51.0920 C   0  0  0  0  0  2  0  0  0  0  0  0
   49.6640   29.2160   51.7950 H   0  0  0  0  0  0  0  0  0  0  0  0
  1  6  1  6  0  0  0
  1  2  1  0  0  0  0
  1 28  1  0  0  0  0
  2  7  1  1  0  0  0
  3  8  1  0  0  0  0
  3  2  1  0  0  0  0
  4  3  1  0  0  0  0
  4  5  1  0  0  0  0
  5  1  1  0  0  0  0
  5 10  1  0  0  0  0
  9  3  1  0  0  0  0
 11  5  1  0  0  0  0
 12  2  1  0  0  0  0
 14 13  2  1  0  0  0
 14 12  1  0  0  0  0
 15 14  1  0  0  0  0
 16 15  1  0  0  0  0
 17 14  1  0  0  0  0
 18 23  1  0  0  0  0
 19 20  1  0  0  0  0
 19 18  2  0  0  0  0
 20 21  2  0  0  0  0
 21 22  1  0  0  0  0
 22 17  1  0  0  0  0
 23 22  2  0  0  0  0
 24 19  1  0  0  0  0
 25 20  1  0  0  0  0
 26 18  1  0  0  0  0
 27 26  1  0  0  0  0
 28 29  1  0  0  0  0
 29 30  1  0  0  0  0
 30 34  1  0  0  0  0
 31 30  1  0  0  0  0
 32 30  1  0  0  0  0
 33 32  1  0  0  0  0
 34 35  1  0  0  0  0
M  END
>  <minimizedAffinity>
-4.55377293

>  <minimizedRMSD>
0.49906531

$$$$
