
 OpenBabel03242518123D

 29 30  0  0  0  0  0  0  0  0999 V2000
   49.0620   34.5490   42.4500 C   0  0  0  0  0  0  0  0  0  0  0  0
   49.9090   35.2180   42.7160 H   0  0  0  0  0  0  0  0  0  0  0  0
   48.6160   34.2230   43.4180 H   0  0  0  0  0  0  0  0  0  0  0  0
   49.5630   33.4530   41.6850 C   0  0  0  0  0  0  0  0  0  0  0  0
   49.1590   32.7020   40.5290 C   0  0  0  0  0  0  0  0  0  0  0  0
   49.9570   31.6870   40.0890 C   0  0  0  0  0  0  0  0  0  0  0  0
   51.1830   31.4180   40.8220 C   0  0  0  0  0  0  0  0  0  0  0  0
   51.1940   32.6360   42.1600 S   0  0  0  0  0  0  0  0  0  0  0  0
   48.2310   33.0200   40.1000 H   0  0  0  0  0  0  0  0  0  0  0  0
   49.6910   31.1010   39.2270 H   0  0  0  0  0  0  0  0  0  0  0  0
   52.1280   30.4220   40.5260 C   0  0  0  0  0  2  0  0  0  0  0  0
   52.0030   29.2850   41.3750 N   0  0  0  0  0  4  0  0  0  0  0  0
   52.3180   28.4260   40.8690 H   0  0  0  0  0  0  0  0  0  0  0  0
   50.6820   29.0850   41.9250 C   0  0  0  0  0  2  0  0  0  0  0  0
   50.0620   28.5180   41.2060 H   0  0  0  0  0  0  0  0  0  0  0  0
   52.9290   29.4040   42.5030 C   0  0  0  0  0  2  0  0  0  0  0  0
   53.9630   29.5450   42.0850 H   0  0  0  0  0  0  0  0  0  0  0  0
   48.0350   35.4120   41.7550 C   0  0  0  0  0  0  0  0  0  0  0  0
   48.0970   36.4590   42.1480 H   0  0  0  0  0  0  0  0  0  0  0  0
   48.2650   35.4420   40.6960 H   0  0  0  0  0  0  0  0  0  0  0  0
   46.7100   34.8720   42.0250 C   0  0  0  0  0  0  0  0  0  0  0  0
   46.1890   34.7840   43.3030 C   0  0  0  0  0  0  0  0  0  0  0  0
   44.9130   34.2520   43.4740 C   0  0  0  0  0  0  0  0  0  0  0  0
   44.2470   33.8460   42.3700 N   0  0  0  0  0  0  0  0  0  0  0  0
   44.7580   33.9340   41.1410 C   0  0  0  0  0  0  0  0  0  0  0  0
   45.9640   34.4380   41.0000 N   0  0  0  0  0  0  0  0  0  0  0  0
   46.7670   35.1260   44.1590 H   0  0  0  0  0  0  0  0  0  0  0  0
   44.4790   34.1730   44.4790 H   0  0  0  0  0  0  0  0  0  0  0  0
   44.1940   33.5980   40.2810 H   0  0  0  0  0  0  0  0  0  0  0  0
  1  2  1  0  0  0  0
  1  3  1  0  0  0  0
  4  8  1  0  0  0  0
  4  1  1  0  0  0  0
  5  4  2  0  0  0  0
  6  5  1  0  0  0  0
  6  7  2  0  0  0  0
  7  8  1  0  0  0  0
  9  5  1  0  0  0  0
 10  6  1  0  0  0  0
 11  7  1  0  0  0  0
 11 12  1  0  0  0  0
 12 14  1  0  0  0  0
 12 16  1  0  0  0  0
 13 12  1  0  0  0  0
 15 14  1  0  0  0  0
 17 16  1  0  0  0  0
 18 21  1  0  0  0  0
 18 19  1  0  0  0  0
 18  1  1  0  0  0  0
 20 18  1  0  0  0  0
 21 22  1  0  0  0  0
 22 23  2  0  0  0  0
 22 27  1  0  0  0  0
 23 28  1  0  0  0  0
 24 23  1  0  0  0  0
 25 24  2  0  0  0  0
 26 25  1  0  0  0  0
 26 21  2  0  0  0  0
 29 25  1  0  0  0  0
M  END
>  <minimizedAffinity>
-3.25250506

>  <minimizedRMSD>
0.410187721

$$$$
