
 OpenBabel03252507523D

 29 30  0  0  1  0  0  0  0  0999 V2000
   46.9740   34.8090   41.9670 C   0  0  2  0  0  0  0  0  0  0  0  0
   46.2910   34.2000   40.7890 C   0  0  0  0  0  0  0  0  0  0  0  0
   47.4840   34.0020   39.8610 C   0  0  0  0  0  0  0  0  0  0  0  0
   48.6630   33.7230   40.7820 C   0  0  1  0  0  0  0  0  0  0  0  0
   48.1070   33.7960   42.1880 C   0  0  0  0  0  0  0  0  0  0  0  0
   47.4390   35.7710   41.6870 H   0  0  0  0  0  0  0  0  0  0  0  0
   45.7910   33.2610   41.0200 H   0  0  0  0  0  0  0  0  0  0  0  0
   45.6430   34.9690   40.3260 H   0  0  0  0  0  0  0  0  0  0  0  0
   47.2260   33.1210   39.2370 H   0  0  0  0  0  0  0  0  0  0  0  0
   47.6500   34.8760   39.2030 H   0  0  0  0  0  0  0  0  0  0  0  0
   49.3720   34.5360   40.6580 H   0  0  0  0  0  0  0  0  0  0  0  0
   48.8330   34.2960   42.8570 H   0  0  0  0  0  0  0  0  0  0  0  0
   47.6870   32.8580   42.5620 H   0  0  0  0  0  0  0  0  0  0  0  0
   44.5070   36.0210   44.5520 C   0  0  0  0  0  0  0  0  0  0  0  0
   45.2280   35.9970   43.3640 C   0  0  0  0  0  0  0  0  0  0  0  0
   46.1440   34.9680   43.1790 C   0  0  0  0  0  0  0  0  0  0  0  0
   46.2820   34.0420   44.1750 N   0  0  0  0  0  0  0  0  0  0  0  0
   45.5730   34.0840   45.3180 C   0  0  0  0  0  0  0  0  0  0  0  0
   44.6850   35.0710   45.5120 N   0  0  0  0  0  0  0  0  0  0  0  0
   43.7790   36.8140   44.7330 H   0  0  0  0  0  0  0  0  0  0  0  0
   45.1110   36.7240   42.5960 H   0  0  0  0  0  0  0  0  0  0  0  0
   45.7180   33.3300   46.0760 H   0  0  0  0  0  0  0  0  0  0  0  0
   49.1560   32.3520   40.4790 C   0  0  0  0  0  2  0  0  0  0  0  0
   50.5120   32.2490   40.0530 N   0  0  0  0  0  4  0  0  0  0  0  0
   50.7950   33.2290   39.7480 H   0  0  0  0  0  0  0  0  0  0  0  0
   51.4370   31.8790   41.0870 C   0  0  0  0  0  2  0  0  0  0  0  0
   51.9480   30.9250   40.7820 H   0  0  0  0  0  0  0  0  0  0  0  0
   50.6790   31.4510   38.8390 C   0  0  0  0  0  2  0  0  0  0  0  0
   51.5950   31.8270   38.2960 H   0  0  0  0  0  0  0  0  0  0  0  0
  1  6  1  6  0  0  0
  1  5  1  0  0  0  0
  1 16  1  0  0  0  0
  2  7  1  0  0  0  0
  2  1  1  0  0  0  0
  3  4  1  0  0  0  0
  3  2  1  0  0  0  0
  4 11  1  6  0  0  0
  4  5  1  0  0  0  0
  5 13  1  0  0  0  0
  5 12  1  0  0  0  0
  8  2  1  0  0  0  0
  9  3  1  0  0  0  0
 10  3  1  0  0  0  0
 14 20  1  0  0  0  0
 14 19  1  0  0  0  0
 15 14  2  0  0  0  0
 16 15  1  0  0  0  0
 16 17  2  0  0  0  0
 17 18  1  0  0  0  0
 18 19  2  0  0  0  0
 18 22  1  0  0  0  0
 21 15  1  0  0  0  0
 23  4  1  0  0  0  0
 24 23  1  0  0  0  0
 24 26  1  0  0  0  0
 25 24  1  0  0  0  0
 27 26  1  0  0  0  0
 28 24  1  0  0  0  0
 29 28  1  0  0  0  0
M  END
>  <minimizedAffinity>
-4.65443897

>  <minimizedRMSD>
2.17838359

$$$$
