
 OpenBabel03242517373D

 31 32  0  0  0  0  0  0  0  0999 V2000
   42.9340   34.9440   40.4310 C   0  0  0  0  0  3  0  0  0  0  0  0
   41.7850   35.5750   40.4140 C   0  0  0  0  0  3  0  0  0  0  0  0
   44.2870   35.6440   42.3890 C   0  0  0  0  0  0  0  0  0  0  0  0
   43.7170   34.6330   41.6070 C   0  0  0  0  0  0  0  0  0  0  0  0
   43.9290   33.3260   42.0000 C   0  0  0  0  0  0  0  0  0  0  0  0
   44.6760   33.0830   43.1190 N   0  0  0  0  0  0  0  0  0  0  0  0
   45.2140   34.0790   43.8530 C   0  0  0  0  0  0  0  0  0  0  0  0
   45.0150   35.3440   43.4810 N   0  0  0  0  0  0  0  0  0  0  0  0
   44.1010   36.6670   42.0500 H   0  0  0  0  0  0  0  0  0  0  0  0
   43.5090   32.5010   41.4300 H   0  0  0  0  0  0  0  0  0  0  0  0
   46.0260   33.8160   45.0700 C   0  0  0  0  0  2  0  0  0  0  0  0
   47.2890   33.1710   44.7870 N   0  0  0  0  0  4  0  0  0  0  0  0
   47.9650   33.4980   45.5300 H   0  0  0  0  0  0  0  0  0  0  0  0
   47.2440   31.7390   44.8230 C   0  0  0  0  0  2  0  0  0  0  0  0
   47.0510   31.3320   43.8130 H   0  0  0  0  0  0  0  0  0  0  0  0
   47.7990   33.6890   43.5330 C   0  0  0  0  0  2  0  0  0  0  0  0
   48.3100   32.8680   42.9780 H   0  0  0  0  0  0  0  0  0  0  0  0
   41.0170   35.8720   39.1790 C   0  0  0  0  0  0  0  0  0  0  0  0
   41.6990   35.8470   38.3130 H   0  0  0  0  0  0  0  0  0  0  0  0
   40.5090   36.8650   39.3120 H   0  0  0  0  0  0  0  0  0  0  0  0
   39.9180   34.8790   38.9700 C   0  0  0  0  0  0  0  0  0  0  0  0
   39.5630   34.5470   37.6700 C   0  0  0  0  0  0  0  0  0  0  0  0
   38.5460   33.6270   37.4550 C   0  0  0  0  0  0  0  0  0  0  0  0
   37.8800   33.0390   38.5300 C   0  0  0  0  0  0  0  0  0  0  0  0
   38.2340   33.3690   39.8200 C   0  0  0  0  0  0  0  0  0  0  0  0
   39.2490   34.2880   40.0270 C   0  0  0  0  0  0  0  0  0  0  0  0
   40.0980   35.0190   36.8320 H   0  0  0  0  0  0  0  0  0  0  0  0
   38.3250   33.4180   36.4170 H   0  0  0  0  0  0  0  0  0  0  0  0
   37.1100   32.3400   38.2310 H   0  0  0  0  0  0  0  0  0  0  0  0
   37.6900   32.8880   40.6220 H   0  0  0  0  0  0  0  0  0  0  0  0
   39.5130   34.5360   41.0440 H   0  0  0  0  0  0  0  0  0  0  0  0
  1  4  1  0  0  0  0
  2  1  2  0  0  0  0
  3  8  1  0  0  0  0
  4  5  1  0  0  0  0
  4  3  2  0  0  0  0
  5  6  2  0  0  0  0
  6  7  1  0  0  0  0
  7 11  1  0  0  0  0
  8  7  2  0  0  0  0
  9  3  1  0  0  0  0
 10  5  1  0  0  0  0
 12 14  1  0  0  0  0
 12 11  1  0  0  0  0
 12 13  1  0  0  0  0
 15 14  1  0  0  0  0
 16 12  1  0  0  0  0
 17 16  1  0  0  0  0
 18 20  1  0  0  0  0
 18  2  1  0  0  0  0
 19 18  1  0  0  0  0
 21 18  1  0  0  0  0
 21 26  1  0  0  0  0
 22 21  2  0  0  0  0
 23 22  1  0  0  0  0
 23 24  2  0  0  0  0
 24 25  1  0  0  0  0
 25 26  2  0  0  0  0
 25 30  1  0  0  0  0
 26 31  1  0  0  0  0
 27 22  1  0  0  0  0
 28 23  1  0  0  0  0
 29 24  1  0  0  0  0
M  END
>  <minimizedAffinity>
-5.55526924

>  <minimizedRMSD>
1.23127258

$$$$
