
 OpenBabel03252507453D

 35 36  0  0  0  0  0  0  0  0999 V2000
   47.5680   34.7720   41.0260 C   0  0  0  0  0  0  0  0  0  0  0  0
   47.9980   35.6920   40.5430 H   0  0  0  0  0  0  0  0  0  0  0  0
   46.9350   34.2910   40.2630 H   0  0  0  0  0  0  0  0  0  0  0  0
   48.7360   33.9320   41.3720 C   0  0  0  0  0  0  0  0  0  0  0  0
   48.7330   32.6250   40.8990 C   0  0  0  0  0  0  0  0  0  0  0  0
   49.7900   31.7720   41.1790 C   0  0  0  0  0  0  0  0  0  0  0  0
   50.8150   32.2730   41.9300 N   0  0  0  0  0  0  0  0  0  0  0  0
   50.7820   33.5550   42.3760 C   0  0  0  0  0  0  0  0  0  0  0  0
   49.7640   34.3550   42.0980 N   0  0  0  0  0  0  0  0  0  0  0  0
   49.8140   30.7510   40.8230 H   0  0  0  0  0  0  0  0  0  0  0  0
   51.5760   33.9740   42.9700 H   0  0  0  0  0  0  0  0  0  0  0  0
   47.3530   32.0210   39.9120 S   0  0  0  0  0  0  0  0  0  0  0  0
   47.9300   32.0250   38.1930 C   0  0  0  0  0  2  0  0  0  0  0  0
   49.0620   32.9070   38.0880 N   0  0  0  0  0  4  0  0  0  0  0  0
   49.2890   33.2060   39.0760 H   0  0  0  0  0  0  0  0  0  0  0  0
   48.6740   34.0870   37.3660 C   0  0  0  0  0  2  0  0  0  0  0  0
   47.6260   34.3390   37.5250 H   0  0  0  0  0  0  0  0  0  0  0  0
   50.2100   32.2600   37.4840 C   0  0  0  0  0  2  0  0  0  0  0  0
   50.9020   31.8260   38.2280 H   0  0  0  0  0  0  0  0  0  0  0  0
   46.6940   35.0790   42.1940 C   0  0  0  0  0  0  0  0  0  0  0  0
   47.0040   34.4580   43.0550 H   0  0  0  0  0  0  0  0  0  0  0  0
   46.8920   36.1350   42.4760 H   0  0  0  0  0  0  0  0  0  0  0  0
   45.2430   34.9870   41.9080 C   0  0  0  0  0  0  0  0  0  0  0  0
   44.3000   35.5570   42.8270 C   0  0  0  0  0  0  0  0  0  0  0  0
   42.6820   35.1860   42.0420 S   0  0  0  0  0  0  0  0  0  0  0  0
   43.5530   34.3150   40.5890 C   0  0  0  0  0  0  0  0  0  0  0  0
   44.6490   34.4270   40.8770 N   0  0  0  0  0  0  0  0  0  0  0  0
   44.5150   36.0700   43.7450 H   0  0  0  0  0  0  0  0  0  0  0  0
   42.8650   33.7380   39.5190 O   0  0  0  0  0  0  0  0  0  0  0  0
   40.8260   33.9470   37.8400 O   0  0  0  0  0  0  0  0  0  0  0  0
   41.8690   34.7610   38.5940 P   0  0  0  0  0  0  0  0  0  0  0  0
   41.0780   35.8140   39.6610 O   0  0  0  0  0  0  0  0  0  0  0  0
   40.2600   35.4360   40.0300 H   0  0  0  0  0  0  0  0  0  0  0  0
   42.8270   35.6720   37.5270 O   0  0  0  0  0  0  0  0  0  0  0  0
   42.8040   36.6300   37.6920 H   0  0  0  0  0  0  0  0  0  0  0  0
  1  4  1  0  0  0  0
  1 20  1  0  0  0  0
  2  1  1  0  0  0  0
  3  1  1  0  0  0  0
  4  9  1  0  0  0  0
  5  6  1  0  0  0  0
  5  4  2  0  0  0  0
  6  7  2  0  0  0  0
  7  8  1  0  0  0  0
  8 11  1  0  0  0  0
  9  8  2  0  0  0  0
 10  6  1  0  0  0  0
 12  5  1  0  0  0  0
 13 12  1  0  0  0  0
 14 13  1  0  0  0  0
 14 15  1  0  0  0  0
 16 17  1  0  0  0  0
 16 14  1  0  0  0  0
 18 14  1  0  0  0  0
 18 19  1  0  0  0  0
 20 22  1  0  0  0  0
 20 21  1  0  0  0  0
 23 20  1  0  0  0  0
 23 24  2  0  0  0  0
 24 28  1  0  0  0  0
 25 24  1  0  0  0  0
 26 27  2  0  0  0  0
 26 25  1  0  0  0  0
 27 23  1  0  0  0  0
 29 26  1  0  0  0  0
 30 31  2  0  0  0  0
 31 29  1  0  0  0  0
 31 32  1  0  0  0  0
 32 33  1  0  0  0  0
 34 35  1  0  0  0  0
 34 31  1  0  0  0  0
M  END
>  <minimizedAffinity>
-4.56613541

>  <minimizedRMSD>
0.744391739

$$$$
