
 OpenBabel03252507473D

 35 36  0  0  0  0  0  0  0  0999 V2000
   36.6740   27.1560   42.8210 C   0  0  0  0  0  0  0  0  0  0  0  0
   36.1820   27.8960   42.1330 H   0  0  0  0  0  0  0  0  0  0  0  0
   35.8830   26.7860   43.4920 H   0  0  0  0  0  0  0  0  0  0  0  0
   37.1850   26.0840   41.9390 C   0  0  0  0  0  0  0  0  0  0  0  0
   37.0480   26.2780   40.5690 C   0  0  0  0  0  0  0  0  0  0  0  0
   37.5010   25.3210   39.6720 C   0  0  0  0  0  0  0  0  0  0  0  0
   38.0770   24.1990   40.1950 N   0  0  0  0  0  0  0  0  0  0  0  0
   38.1920   24.0440   41.5400 C   0  0  0  0  0  0  0  0  0  0  0  0
   37.7540   24.9690   42.3800 N   0  0  0  0  0  0  0  0  0  0  0  0
   37.4070   25.4480   38.6030 H   0  0  0  0  0  0  0  0  0  0  0  0
   38.6410   23.1690   41.9770 H   0  0  0  0  0  0  0  0  0  0  0  0
   36.2800   27.7810   39.9380 S   0  0  0  0  0  0  0  0  0  0  0  0
   36.2210   27.5910   38.1360 C   0  0  0  0  0  2  0  0  0  0  0  0
   35.9360   28.8720   37.5470 N   0  0  0  0  0  4  0  0  0  0  0  0
   36.3170   29.5930   38.2210 H   0  0  0  0  0  0  0  0  0  0  0  0
   34.5130   29.0580   37.4850 C   0  0  0  0  0  2  0  0  0  0  0  0
   33.9990   28.5540   38.3030 H   0  0  0  0  0  0  0  0  0  0  0  0
   36.5570   29.0300   36.2450 C   0  0  0  0  0  2  0  0  0  0  0  0
   37.5440   29.5220   36.2940 H   0  0  0  0  0  0  0  0  0  0  0  0
   37.7290   27.7680   43.6790 C   0  0  0  0  0  0  0  0  0  0  0  0
   37.2600   28.2060   44.5790 H   0  0  0  0  0  0  0  0  0  0  0  0
   38.3800   26.9390   44.0310 H   0  0  0  0  0  0  0  0  0  0  0  0
   38.6140   28.7200   42.9680 C   0  0  0  0  0  0  0  0  0  0  0  0
   40.0180   28.4440   42.8620 C   0  0  0  0  0  0  0  0  0  0  0  0
   40.6540   29.8850   41.9200 S   0  0  0  0  0  0  0  0  0  0  0  0
   38.9040   30.6310   41.8210 C   0  0  0  0  0  0  0  0  0  0  0  0
   38.2900   29.8520   42.3820 N   0  0  0  0  0  0  0  0  0  0  0  0
   40.5440   27.5930   43.2500 H   0  0  0  0  0  0  0  0  0  0  0  0
   38.6220   31.8410   41.1830 O   0  0  0  0  0  0  0  0  0  0  0  0
   37.3780   31.1020   38.9630 O   0  0  0  0  0  0  0  0  0  0  0  0
   37.2060   31.9100   40.2420 P   0  0  0  0  0  0  0  0  0  0  0  0
   35.9470   31.2350   41.1540 O   0  0  0  0  0  0  0  0  0  0  0  0
   35.8950   30.2660   41.0690 H   0  0  0  0  0  0  0  0  0  0  0  0
   36.8320   33.5320   39.9000 O   0  0  0  0  0  0  0  0  0  0  0  0
   35.9920   33.8350   40.2830 H   0  0  0  0  0  0  0  0  0  0  0  0
  1  3  1  0  0  0  0
  1 20  1  0  0  0  0
  2  1  1  0  0  0  0
  4  9  1  0  0  0  0
  4  1  1  0  0  0  0
  5  4  2  0  0  0  0
  6  7  2  0  0  0  0
  6  5  1  0  0  0  0
  7  8  1  0  0  0  0
  8 11  1  0  0  0  0
  8  9  2  0  0  0  0
 10  6  1  0  0  0  0
 12  5  1  0  0  0  0
 13 12  1  0  0  0  0
 14 13  1  0  0  0  0
 14 15  1  0  0  0  0
 16 14  1  0  0  0  0
 16 17  1  0  0  0  0
 18 19  1  0  0  0  0
 18 14  1  0  0  0  0
 20 22  1  0  0  0  0
 20 21  1  0  0  0  0
 23 20  1  0  0  0  0
 24 23  2  0  0  0  0
 24 28  1  0  0  0  0
 25 24  1  0  0  0  0
 26 25  1  0  0  0  0
 26 27  2  0  0  0  0
 27 23  1  0  0  0  0
 29 26  1  0  0  0  0
 30 31  2  0  0  0  0
 31 32  1  0  0  0  0
 31 29  1  0  0  0  0
 33 32  1  0  0  0  0
 34 31  1  0  0  0  0
 34 35  1  0  0  0  0
M  END
>  <minimizedAffinity>
-5.01024008

$$$$

 OpenBabel03252507473D

 35 36  0  0  0  0  0  0  0  0999 V2000
   35.1130   29.3130   39.9430 C   0  0  0  0  0  0  0  0  0  0  0  0
   34.1350   29.1510   40.4740 H   0  0  0  0  0  0  0  0  0  0  0  0
   35.0820   30.3420   39.5500 H   0  0  0  0  0  0  0  0  0  0  0  0
   36.1530   29.1600   40.9850 C   0  0  0  0  0  0  0  0  0  0  0  0
   37.0770   30.1900   41.1070 C   0  0  0  0  0  0  0  0  0  0  0  0
   38.0850   30.1250   42.0580 C   0  0  0  0  0  0  0  0  0  0  0  0
   38.1200   29.0160   42.8550 N   0  0  0  0  0  0  0  0  0  0  0  0
   37.1990   28.0290   42.7050 C   0  0  0  0  0  0  0  0  0  0  0  0
   36.2450   28.1100   41.7910 N   0  0  0  0  0  0  0  0  0  0  0  0
   38.8160   30.9130   42.1740 H   0  0  0  0  0  0  0  0  0  0  0  0
   37.2050   27.1440   43.3190 H   0  0  0  0  0  0  0  0  0  0  0  0
   36.9790   31.6300   40.0280 S   0  0  0  0  0  0  0  0  0  0  0  0
   38.6890   32.0310   39.5750 C   0  0  0  0  0  2  0  0  0  0  0  0
   38.7460   32.2700   38.1580 N   0  0  0  0  0  4  0  0  0  0  0  0
   38.5150   33.2940   38.0270 H   0  0  0  0  0  0  0  0  0  0  0  0
   37.7110   31.5130   37.5100 C   0  0  0  0  0  2  0  0  0  0  0  0
   36.8350   31.3900   38.1450 H   0  0  0  0  0  0  0  0  0  0  0  0
   40.0550   31.9780   37.6020 C   0  0  0  0  0  2  0  0  0  0  0  0
   40.7100   32.8660   37.5520 H   0  0  0  0  0  0  0  0  0  0  0  0
   35.3040   28.4020   38.7790 C   0  0  0  0  0  0  0  0  0  0  0  0
   36.2570   28.6490   38.2750 H   0  0  0  0  0  0  0  0  0  0  0  0
   35.4160   27.3750   39.1880 H   0  0  0  0  0  0  0  0  0  0  0  0
   34.1530   28.3570   37.8460 C   0  0  0  0  0  0  0  0  0  0  0  0
   34.0490   27.2880   36.8970 C   0  0  0  0  0  0  0  0  0  0  0  0
   32.4940   27.6780   36.0020 S   0  0  0  0  0  0  0  0  0  0  0  0
   32.2380   29.2370   37.0670 C   0  0  0  0  0  0  0  0  0  0  0  0
   33.1500   29.2010   37.7490 N   0  0  0  0  0  0  0  0  0  0  0  0
   34.7300   26.4690   36.7620 H   0  0  0  0  0  0  0  0  0  0  0  0
   31.1480   30.0960   36.9160 O   0  0  0  0  0  0  0  0  0  0  0  0
   28.8610   29.4810   38.1040 O   0  0  0  0  0  0  0  0  0  0  0  0
   30.1310   30.3060   38.2640 P   0  0  0  0  0  0  0  0  0  0  0  0
   30.9710   29.7630   39.6330 O   0  0  0  0  0  0  0  0  0  0  0  0
   30.8800   28.8040   39.7770 H   0  0  0  0  0  0  0  0  0  0  0  0
   29.7730   31.9550   38.4540 O   0  0  0  0  0  0  0  0  0  0  0  0
   30.1100   32.3430   39.2790 H   0  0  0  0  0  0  0  0  0  0  0  0
  1  2  1  0  0  0  0
  1  4  1  0  0  0  0
  3  1  1  0  0  0  0
  4  5  2  0  0  0  0
  4  9  1  0  0  0  0
  5  6  1  0  0  0  0
  6 10  1  0  0  0  0
  6  7  2  0  0  0  0
  8  7  1  0  0  0  0
  8 11  1  0  0  0  0
  9  8  2  0  0  0  0
 12  5  1  0  0  0  0
 13 12  1  0  0  0  0
 14 13  1  0  0  0  0
 15 14  1  0  0  0  0
 16 17  1  0  0  0  0
 16 14  1  0  0  0  0
 18 14  1  0  0  0  0
 19 18  1  0  0  0  0
 20 22  1  0  0  0  0
 20  1  1  0  0  0  0
 21 20  1  0  0  0  0
 23 20  1  0  0  0  0
 24 23  2  0  0  0  0
 25 24  1  0  0  0  0
 25 26  1  0  0  0  0
 26 27  2  0  0  0  0
 27 23  1  0  0  0  0
 28 24  1  0  0  0  0
 29 26  1  0  0  0  0
 29 31  1  0  0  0  0
 30 31  2  0  0  0  0
 31 34  1  0  0  0  0
 31 32  1  0  0  0  0
 32 33  1  0  0  0  0
 34 35  1  0  0  0  0
M  END
>  <minimizedAffinity>
-4.99169397

$$$$

 OpenBabel03252507473D

 35 36  0  0  0  0  0  0  0  0999 V2000
   35.9450   29.3760   40.0770 C   0  0  0  0  0  0  0  0  0  0  0  0
   34.8270   29.4780   40.1220 H   0  0  0  0  0  0  0  0  0  0  0  0
   36.3260   29.7300   41.0480 H   0  0  0  0  0  0  0  0  0  0  0  0
   36.1970   27.9300   39.8890 C   0  0  0  0  0  0  0  0  0  0  0  0
   36.8530   27.2670   40.9200 C   0  0  0  0  0  0  0  0  0  0  0  0
   37.1280   25.9100   40.8230 C   0  0  0  0  0  0  0  0  0  0  0  0
   36.7280   25.2720   39.6840 N   0  0  0  0  0  0  0  0  0  0  0  0
   36.0900   25.9540   38.6980 C   0  0  0  0  0  0  0  0  0  0  0  0
   35.8360   27.2490   38.8090 N   0  0  0  0  0  0  0  0  0  0  0  0
   37.6370   25.3710   41.6100 H   0  0  0  0  0  0  0  0  0  0  0  0
   35.7650   25.4750   37.7900 H   0  0  0  0  0  0  0  0  0  0  0  0
   37.3560   28.1620   42.3990 S   0  0  0  0  0  0  0  0  0  0  0  0
   39.0940   28.6110   42.1440 C   0  0  0  0  0  2  0  0  0  0  0  0
   39.8650   28.1200   43.2550 N   0  0  0  0  0  4  0  0  0  0  0  0
   39.7040   28.8050   44.0450 H   0  0  0  0  0  0  0  0  0  0  0  0
   41.2620   28.1760   42.9220 C   0  0  0  0  0  2  0  0  0  0  0  0
   41.4880   29.0010   42.2460 H   0  0  0  0  0  0  0  0  0  0  0  0
   39.4620   26.7860   43.6590 C   0  0  0  0  0  2  0  0  0  0  0  0
   38.7110   26.7890   44.4690 H   0  0  0  0  0  0  0  0  0  0  0  0
   36.5680   30.2260   39.0230 C   0  0  0  0  0  0  0  0  0  0  0  0
   36.9100   29.5830   38.1900 H   0  0  0  0  0  0  0  0  0  0  0  0
   35.7640   30.8750   38.6150 H   0  0  0  0  0  0  0  0  0  0  0  0
   37.6270   31.1350   39.5210 C   0  0  0  0  0  0  0  0  0  0  0  0
   37.3590   31.9940   40.6380 C   0  0  0  0  0  0  0  0  0  0  0  0
   38.9440   32.8940   40.8580 S   0  0  0  0  0  0  0  0  0  0  0  0
   39.7160   31.9530   39.3920 C   0  0  0  0  0  0  0  0  0  0  0  0
   38.8520   31.2840   39.0680 N   0  0  0  0  0  0  0  0  0  0  0  0
   36.4440   32.0730   41.1930 H   0  0  0  0  0  0  0  0  0  0  0  0
   41.0270   32.1570   38.9570 O   0  0  0  0  0  0  0  0  0  0  0  0
   41.9600   30.9570   36.7870 O   0  0  0  0  0  0  0  0  0  0  0  0
   41.2850   32.2310   37.2770 P   0  0  0  0  0  0  0  0  0  0  0  0
   39.7720   32.3760   36.5280 O   0  0  0  0  0  0  0  0  0  0  0  0
   39.3430   31.5150   36.3720 H   0  0  0  0  0  0  0  0  0  0  0  0
   42.2180   33.6020   36.9070 O   0  0  0  0  0  0  0  0  0  0  0  0
   41.7580   34.2600   36.3590 H   0  0  0  0  0  0  0  0  0  0  0  0
  1  2  1  0  0  0  0
  1  3  1  0  0  0  0
  4  1  1  0  0  0  0
  4  5  1  0  0  0  0
  5 12  1  0  0  0  0
  6  5  2  0  0  0  0
  6 10  1  0  0  0  0
  7  6  1  0  0  0  0
  8  9  1  0  0  0  0
  8  7  2  0  0  0  0
  9  4  2  0  0  0  0
 11  8  1  0  0  0  0
 13 12  1  0  0  0  0
 13 14  1  0  0  0  0
 14 18  1  0  0  0  0
 14 15  1  0  0  0  0
 16 14  1  0  0  0  0
 17 16  1  0  0  0  0
 18 19  1  0  0  0  0
 20 23  1  0  0  0  0
 20  1  1  0  0  0  0
 21 20  1  0  0  0  0
 22 20  1  0  0  0  0
 23 24  2  0  0  0  0
 24 25  1  0  0  0  0
 24 28  1  0  0  0  0
 26 25  1  0  0  0  0
 27 26  2  0  0  0  0
 27 23  1  0  0  0  0
 29 26  1  0  0  0  0
 30 31  2  0  0  0  0
 31 29  1  0  0  0  0
 32 31  1  0  0  0  0
 33 32  1  0  0  0  0
 34 31  1  0  0  0  0
 35 34  1  0  0  0  0
M  END
>  <minimizedAffinity>
-4.83375072

$$$$

 OpenBabel03252507473D

 35 36  0  0  0  0  0  0  0  0999 V2000
   36.1640   30.2820   40.6910 C   0  0  0  0  0  0  0  0  0  0  0  0
   37.0540   30.6190   41.2880 H   0  0  0  0  0  0  0  0  0  0  0  0
   35.3380   30.9600   40.9590 H   0  0  0  0  0  0  0  0  0  0  0  0
   36.5610   30.4420   39.2750 C   0  0  0  0  0  0  0  0  0  0  0  0
   37.3370   31.5520   38.9610 C   0  0  0  0  0  0  0  0  0  0  0  0
   37.7520   31.7760   37.6560 C   0  0  0  0  0  0  0  0  0  0  0  0
   37.3660   30.8670   36.7130 N   0  0  0  0  0  0  0  0  0  0  0  0
   36.6060   29.7950   37.0580 C   0  0  0  0  0  0  0  0  0  0  0  0
   36.2200   29.5980   38.3090 N   0  0  0  0  0  0  0  0  0  0  0  0
   38.3560   32.6310   37.3860 H   0  0  0  0  0  0  0  0  0  0  0  0
   36.2880   29.0640   36.3340 H   0  0  0  0  0  0  0  0  0  0  0  0
   37.8170   32.7170   40.2480 S   0  0  0  0  0  0  0  0  0  0  0  0
   39.4140   32.1330   40.8790 C   0  0  0  0  0  2  0  0  0  0  0  0
   40.3140   33.2520   40.9610 N   0  0  0  0  0  4  0  0  0  0  0  0
   40.0660   33.7590   41.8560 H   0  0  0  0  0  0  0  0  0  0  0  0
   40.0470   34.1520   39.8740 C   0  0  0  0  0  2  0  0  0  0  0  0
   38.9970   34.1420   39.5810 H   0  0  0  0  0  0  0  0  0  0  0  0
   41.7040   32.8400   40.9890 C   0  0  0  0  0  2  0  0  0  0  0  0
   42.1020   32.7320   42.0150 H   0  0  0  0  0  0  0  0  0  0  0  0
   35.7240   28.8980   41.0280 C   0  0  0  0  0  0  0  0  0  0  0  0
   34.7270   28.9370   41.5060 H   0  0  0  0  0  0  0  0  0  0  0  0
   35.5960   28.3570   40.0660 H   0  0  0  0  0  0  0  0  0  0  0  0
   36.7110   28.1210   41.8160 C   0  0  0  0  0  0  0  0  0  0  0  0
   37.5390   28.7910   42.7770 C   0  0  0  0  0  0  0  0  0  0  0  0
   38.5600   27.4290   43.4650 S   0  0  0  0  0  0  0  0  0  0  0  0
   37.6920   26.1670   42.3320 C   0  0  0  0  0  0  0  0  0  0  0  0
   36.9590   26.8310   41.7670 N   0  0  0  0  0  0  0  0  0  0  0  0
   37.5420   29.8370   43.0160 H   0  0  0  0  0  0  0  0  0  0  0  0
   38.0010   24.8050   42.3260 O   0  0  0  0  0  0  0  0  0  0  0  0
   39.5340   24.4380   40.1970 O   0  0  0  0  0  0  0  0  0  0  0  0
   38.1920   24.0590   40.8090 P   0  0  0  0  0  0  0  0  0  0  0  0
   38.1510   22.3820   41.0500 O   0  0  0  0  0  0  0  0  0  0  0  0
   39.0210   22.0110   41.2850 H   0  0  0  0  0  0  0  0  0  0  0  0
   36.9060   24.5030   39.7920 O   0  0  0  0  0  0  0  0  0  0  0  0
   36.3370   23.7620   39.5240 H   0  0  0  0  0  0  0  0  0  0  0  0
  1  3  1  0  0  0  0
  1 20  1  0  0  0  0
  1  2  1  0  0  0  0
  4  1  1  0  0  0  0
  5  4  1  0  0  0  0
  5 12  1  0  0  0  0
  6  5  2  0  0  0  0
  7  8  2  0  0  0  0
  7  6  1  0  0  0  0
  8  9  1  0  0  0  0
  9  4  2  0  0  0  0
 10  6  1  0  0  0  0
 11  8  1  0  0  0  0
 12 13  1  0  0  0  0
 13 14  1  0  0  0  0
 14 18  1  0  0  0  0
 14 15  1  0  0  0  0
 16 14  1  0  0  0  0
 17 16  1  0  0  0  0
 18 19  1  0  0  0  0
 20 21  1  0  0  0  0
 20 23  1  0  0  0  0
 22 20  1  0  0  0  0
 23 24  2  0  0  0  0
 24 28  1  0  0  0  0
 24 25  1  0  0  0  0
 26 25  1  0  0  0  0
 27 23  1  0  0  0  0
 27 26  2  0  0  0  0
 29 26  1  0  0  0  0
 30 31  2  0  0  0  0
 31 32  1  0  0  0  0
 31 29  1  0  0  0  0
 32 33  1  0  0  0  0
 34 31  1  0  0  0  0
 35 34  1  0  0  0  0
M  END
>  <minimizedAffinity>
-4.82862806

$$$$

 OpenBabel03252507473D

 35 36  0  0  0  0  0  0  0  0999 V2000
   36.2970   27.8990   38.7600 C   0  0  0  0  0  0  0  0  0  0  0  0
   36.6820   26.8460   38.6810 H   0  0  0  0  0  0  0  0  0  0  0  0
   35.2040   27.8380   38.6340 H   0  0  0  0  0  0  0  0  0  0  0  0
   36.6620   28.3450   40.1230 C   0  0  0  0  0  0  0  0  0  0  0  0
   37.0400   27.3600   41.0270 C   0  0  0  0  0  0  0  0  0  0  0  0
   37.3980   27.6930   42.3260 C   0  0  0  0  0  0  0  0  0  0  0  0
   37.3600   29.0160   42.6630 N   0  0  0  0  0  0  0  0  0  0  0  0
   36.9840   29.9510   41.7520 C   0  0  0  0  0  0  0  0  0  0  0  0
   36.6460   29.6120   40.5170 N   0  0  0  0  0  0  0  0  0  0  0  0
   37.6960   26.9470   43.0480 H   0  0  0  0  0  0  0  0  0  0  0  0
   36.9450   31.0000   41.9920 H   0  0  0  0  0  0  0  0  0  0  0  0
   37.0720   25.6300   40.5240 S   0  0  0  0  0  0  0  0  0  0  0  0
   37.0290   24.6640   42.0580 C   0  0  0  0  0  2  0  0  0  0  0  0
   38.1430   23.7540   42.0600 N   0  0  0  0  0  4  0  0  0  0  0  0
   37.8440   22.9310   42.6540 H   0  0  0  0  0  0  0  0  0  0  0  0
   39.2570   24.3740   42.7230 C   0  0  0  0  0  2  0  0  0  0  0  0
   38.9370   25.0620   43.5050 H   0  0  0  0  0  0  0  0  0  0  0  0
   38.4930   23.3070   40.7250 C   0  0  0  0  0  2  0  0  0  0  0  0
   38.0040   22.3560   40.4470 H   0  0  0  0  0  0  0  0  0  0  0  0
   36.8160   28.7940   37.6870 C   0  0  0  0  0  0  0  0  0  0  0  0
   36.2710   28.5900   36.7460 H   0  0  0  0  0  0  0  0  0  0  0  0
   36.5620   29.8340   37.9830 H   0  0  0  0  0  0  0  0  0  0  0  0
   38.2880   28.7530   37.5210 C   0  0  0  0  0  0  0  0  0  0  0  0
   38.9150   27.5620   37.0260 C   0  0  0  0  0  0  0  0  0  0  0  0
   40.6960   28.0100   37.0050 S   0  0  0  0  0  0  0  0  0  0  0  0
   40.2970   29.7490   37.6740 C   0  0  0  0  0  0  0  0  0  0  0  0
   39.1630   29.7020   37.7730 N   0  0  0  0  0  0  0  0  0  0  0  0
   38.4370   26.6440   36.7440 H   0  0  0  0  0  0  0  0  0  0  0  0
   41.2730   30.7160   37.9220 O   0  0  0  0  0  0  0  0  0  0  0  0
   40.6320   33.1050   38.8700 O   0  0  0  0  0  0  0  0  0  0  0  0
   40.8700   32.3320   37.5790 P   0  0  0  0  0  0  0  0  0  0  0  0
   42.1770   33.0270   36.7550 O   0  0  0  0  0  0  0  0  0  0  0  0
   42.8600   33.3780   37.3550 H   0  0  0  0  0  0  0  0  0  0  0  0
   39.4990   32.3740   36.5760 O   0  0  0  0  0  0  0  0  0  0  0  0
   39.6620   32.7550   35.6970 H   0  0  0  0  0  0  0  0  0  0  0  0
  1  4  1  0  0  0  0
  2  1  1  0  0  0  0
  3  1  1  0  0  0  0
  4  9  2  0  0  0  0
  4  5  1  0  0  0  0
  5  6  2  0  0  0  0
  6  7  1  0  0  0  0
  6 10  1  0  0  0  0
  8 11  1  0  0  0  0
  8  7  2  0  0  0  0
  9  8  1  0  0  0  0
 12  5  1  0  0  0  0
 12 13  1  0  0  0  0
 13 14  1  0  0  0  0
 14 15  1  0  0  0  0
 14 16  1  0  0  0  0
 16 17  1  0  0  0  0
 18 14  1  0  0  0  0
 19 18  1  0  0  0  0
 20 22  1  0  0  0  0
 20  1  1  0  0  0  0
 21 20  1  0  0  0  0
 23 20  1  0  0  0  0
 23 27  1  0  0  0  0
 24 23  2  0  0  0  0
 25 24  1  0  0  0  0
 25 26  1  0  0  0  0
 26 27  2  0  0  0  0
 26 29  1  0  0  0  0
 28 24  1  0  0  0  0
 31 29  1  0  0  0  0
 31 30  2  0  0  0  0
 32 33  1  0  0  0  0
 32 31  1  0  0  0  0
 34 31  1  0  0  0  0
 35 34  1  0  0  0  0
M  END
>  <minimizedAffinity>
-4.78081894

$$$$

 OpenBabel03252507473D

 35 36  0  0  0  0  0  0  0  0999 V2000
   36.9970   27.1380   42.3670 C   0  0  0  0  0  0  0  0  0  0  0  0
   36.0930   26.5770   42.7290 H   0  0  0  0  0  0  0  0  0  0  0  0
   37.7690   26.3790   42.1620 H   0  0  0  0  0  0  0  0  0  0  0  0
   36.5630   27.8200   41.1270 C   0  0  0  0  0  0  0  0  0  0  0  0
   37.2380   27.4890   39.9580 C   0  0  0  0  0  0  0  0  0  0  0  0
   36.8930   28.0830   38.7530 C   0  0  0  0  0  0  0  0  0  0  0  0
   35.8740   28.9930   38.7740 N   0  0  0  0  0  0  0  0  0  0  0  0
   35.2390   29.2910   39.9370 C   0  0  0  0  0  0  0  0  0  0  0  0
   35.5830   28.7130   41.0780 N   0  0  0  0  0  0  0  0  0  0  0  0
   37.4020   27.8440   37.8290 H   0  0  0  0  0  0  0  0  0  0  0  0
   34.4330   30.0040   39.9810 H   0  0  0  0  0  0  0  0  0  0  0  0
   38.5740   26.2810   39.9920 S   0  0  0  0  0  0  0  0  0  0  0  0
   37.9380   24.8120   39.1400 C   0  0  0  0  0  2  0  0  0  0  0  0
   37.6410   23.8030   40.1220 N   0  0  0  0  0  4  0  0  0  0  0  0
   37.7790   22.8740   39.6340 H   0  0  0  0  0  0  0  0  0  0  0  0
   36.2540   23.8910   40.4840 C   0  0  0  0  0  2  0  0  0  0  0  0
   35.6360   24.2400   39.6580 H   0  0  0  0  0  0  0  0  0  0  0  0
   38.5080   23.8910   41.2820 C   0  0  0  0  0  2  0  0  0  0  0  0
   39.3970   23.2390   41.2080 H   0  0  0  0  0  0  0  0  0  0  0  0
   37.5560   28.0690   43.3890 C   0  0  0  0  0  0  0  0  0  0  0  0
   36.7310   28.6520   43.8400 H   0  0  0  0  0  0  0  0  0  0  0  0
   37.9830   27.4400   44.1990 H   0  0  0  0  0  0  0  0  0  0  0  0
   38.6620   28.9220   42.8940 C   0  0  0  0  0  0  0  0  0  0  0  0
   40.0050   28.4190   42.8990 C   0  0  0  0  0  0  0  0  0  0  0  0
   40.9740   29.8180   42.2110 S   0  0  0  0  0  0  0  0  0  0  0  0
   39.3910   30.8630   42.0260 C   0  0  0  0  0  0  0  0  0  0  0  0
   38.5970   30.1470   42.4210 N   0  0  0  0  0  0  0  0  0  0  0  0
   40.3370   27.4540   43.2320 H   0  0  0  0  0  0  0  0  0  0  0  0
   39.3870   32.1620   41.5150 O   0  0  0  0  0  0  0  0  0  0  0  0
   38.5690   31.2130   39.1810 O   0  0  0  0  0  0  0  0  0  0  0  0
   38.4990   32.4330   40.0900 P   0  0  0  0  0  0  0  0  0  0  0  0
   36.8840   32.6980   40.5310 O   0  0  0  0  0  0  0  0  0  0  0  0
   36.3770   31.8720   40.6280 H   0  0  0  0  0  0  0  0  0  0  0  0
   39.0930   33.8180   39.3070 O   0  0  0  0  0  0  0  0  0  0  0  0
   38.4520   34.5470   39.2470 H   0  0  0  0  0  0  0  0  0  0  0  0
  1  2  1  0  0  0  0
  1 20  1  0  0  0  0
  3  1  1  0  0  0  0
  4  1  1  0  0  0  0
  5 12  1  0  0  0  0
  5  4  2  0  0  0  0
  6  7  2  0  0  0  0
  6  5  1  0  0  0  0
  7  8  1  0  0  0  0
  8 11  1  0  0  0  0
  8  9  2  0  0  0  0
  9  4  1  0  0  0  0
 10  6  1  0  0  0  0
 13 12  1  0  0  0  0
 13 14  1  0  0  0  0
 14 16  1  0  0  0  0
 14 18  1  0  0  0  0
 15 14  1  0  0  0  0
 17 16  1  0  0  0  0
 19 18  1  0  0  0  0
 20 21  1  0  0  0  0
 20 22  1  0  0  0  0
 23 24  2  0  0  0  0
 23 20  1  0  0  0  0
 24 28  1  0  0  0  0
 25 24  1  0  0  0  0
 26 25  1  0  0  0  0
 26 27  2  0  0  0  0
 27 23  1  0  0  0  0
 29 26  1  0  0  0  0
 30 31  2  0  0  0  0
 31 32  1  0  0  0  0
 31 29  1  0  0  0  0
 32 33  1  0  0  0  0
 34 31  1  0  0  0  0
 35 34  1  0  0  0  0
M  END
>  <minimizedAffinity>
-4.74264383

$$$$

 OpenBabel03252507473D

 35 36  0  0  0  0  0  0  0  0999 V2000
   36.8720   31.1940   39.9050 C   0  0  0  0  0  0  0  0  0  0  0  0
   37.9650   31.4080   40.0600 H   0  0  0  0  0  0  0  0  0  0  0  0
   36.3940   32.1650   39.7000 H   0  0  0  0  0  0  0  0  0  0  0  0
   36.8130   30.2990   38.7280 C   0  0  0  0  0  0  0  0  0  0  0  0
   38.0170   30.0120   38.0960 C   0  0  0  0  0  0  0  0  0  0  0  0
   38.0500   29.1810   36.9850 C   0  0  0  0  0  0  0  0  0  0  0  0
   36.8590   28.6700   36.5530 N   0  0  0  0  0  0  0  0  0  0  0  0
   35.7020   28.9750   37.1970 C   0  0  0  0  0  0  0  0  0  0  0  0
   35.6920   29.7690   38.2550 N   0  0  0  0  0  0  0  0  0  0  0  0
   38.9720   28.9410   36.4750 H   0  0  0  0  0  0  0  0  0  0  0  0
   34.7510   28.5850   36.8760 H   0  0  0  0  0  0  0  0  0  0  0  0
   39.5570   30.7150   38.7120 S   0  0  0  0  0  0  0  0  0  0  0  0
   40.0380   31.9890   37.5140 C   0  0  0  0  0  2  0  0  0  0  0  0
   40.4250   33.1740   38.2320 N   0  0  0  0  0  4  0  0  0  0  0  0
   39.8910   33.9700   37.7860 H   0  0  0  0  0  0  0  0  0  0  0  0
   41.8230   33.4230   38.0120 C   0  0  0  0  0  2  0  0  0  0  0  0
   42.1490   33.0840   37.0290 H   0  0  0  0  0  0  0  0  0  0  0  0
   40.1100   33.0890   39.6460 C   0  0  0  0  0  2  0  0  0  0  0  0
   39.1280   33.5290   39.8960 H   0  0  0  0  0  0  0  0  0  0  0  0
   36.2110   30.6240   41.1140 C   0  0  0  0  0  0  0  0  0  0  0  0
   35.9400   31.4460   41.8030 H   0  0  0  0  0  0  0  0  0  0  0  0
   35.2580   30.1650   40.7740 H   0  0  0  0  0  0  0  0  0  0  0  0
   36.9820   29.5460   41.7770 C   0  0  0  0  0  0  0  0  0  0  0  0
   38.3060   29.8120   42.2590 C   0  0  0  0  0  0  0  0  0  0  0  0
   38.8180   28.2010   42.9760 S   0  0  0  0  0  0  0  0  0  0  0  0
   37.1430   27.4260   42.5030 C   0  0  0  0  0  0  0  0  0  0  0  0
   36.6150   28.3050   42.0060 N   0  0  0  0  0  0  0  0  0  0  0  0
   38.8460   30.7380   42.2020 H   0  0  0  0  0  0  0  0  0  0  0  0
   36.8110   26.0970   42.7740 O   0  0  0  0  0  0  0  0  0  0  0  0
   36.2770   24.0680   41.1550 O   0  0  0  0  0  0  0  0  0  0  0  0
   37.4160   24.9130   41.7110 P   0  0  0  0  0  0  0  0  0  0  0  0
   38.1830   25.7140   40.4300 O   0  0  0  0  0  0  0  0  0  0  0  0
   37.5670   25.9660   39.7170 H   0  0  0  0  0  0  0  0  0  0  0  0
   38.5560   23.9510   42.5230 O   0  0  0  0  0  0  0  0  0  0  0  0
   39.4570   24.0140   42.1650 H   0  0  0  0  0  0  0  0  0  0  0  0
  1  2  1  0  0  0  0
  1 20  1  0  0  0  0
  3  1  1  0  0  0  0
  4  1  1  0  0  0  0
  5 12  1  0  0  0  0
  5  4  2  0  0  0  0
  6  5  1  0  0  0  0
  7  6  2  0  0  0  0
  7  8  1  0  0  0  0
  8  9  2  0  0  0  0
  9  4  1  0  0  0  0
 10  6  1  0  0  0  0
 11  8  1  0  0  0  0
 13 14  1  0  0  0  0
 13 12  1  0  0  0  0
 14 18  1  0  0  0  0
 15 14  1  0  0  0  0
 16 14  1  0  0  0  0
 17 16  1  0  0  0  0
 18 19  1  0  0  0  0
 20 23  1  0  0  0  0
 20 21  1  0  0  0  0
 22 20  1  0  0  0  0
 23 27  1  0  0  0  0
 23 24  2  0  0  0  0
 24 25  1  0  0  0  0
 26 29  1  0  0  0  0
 26 25  1  0  0  0  0
 27 26  2  0  0  0  0
 28 24  1  0  0  0  0
 30 31  2  0  0  0  0
 31 34  1  0  0  0  0
 31 29  1  0  0  0  0
 32 31  1  0  0  0  0
 33 32  1  0  0  0  0
 35 34  1  0  0  0  0
M  END
>  <minimizedAffinity>
-4.69639254

$$$$

 OpenBabel03252507473D

 35 36  0  0  0  0  0  0  0  0999 V2000
   36.7570   30.2550   40.2150 C   0  0  0  0  0  0  0  0  0  0  0  0
   37.4450   29.9780   39.3710 H   0  0  0  0  0  0  0  0  0  0  0  0
   35.7320   30.1700   39.8180 H   0  0  0  0  0  0  0  0  0  0  0  0
   37.0150   29.2540   41.2740 C   0  0  0  0  0  0  0  0  0  0  0  0
   36.8220   27.9190   40.9370 C   0  0  0  0  0  0  0  0  0  0  0  0
   37.0420   26.9180   41.8710 C   0  0  0  0  0  0  0  0  0  0  0  0
   37.4500   27.3040   43.1160 N   0  0  0  0  0  0  0  0  0  0  0  0
   37.6270   28.6190   43.4080 C   0  0  0  0  0  0  0  0  0  0  0  0
   37.4120   29.5600   42.5020 N   0  0  0  0  0  0  0  0  0  0  0  0
   36.9000   25.8720   41.6360 H   0  0  0  0  0  0  0  0  0  0  0  0
   37.9480   28.9490   44.3810 H   0  0  0  0  0  0  0  0  0  0  0  0
   36.2820   27.4710   39.2780 S   0  0  0  0  0  0  0  0  0  0  0  0
   37.7900   27.0590   38.3580 C   0  0  0  0  0  2  0  0  0  0  0  0
   37.8730   27.9130   37.2030 N   0  0  0  0  0  4  0  0  0  0  0  0
   38.2320   27.3030   36.4170 H   0  0  0  0  0  0  0  0  0  0  0  0
   38.8600   28.9290   37.4380 C   0  0  0  0  0  2  0  0  0  0  0  0
   39.6630   28.5780   38.0860 H   0  0  0  0  0  0  0  0  0  0  0  0
   36.5870   28.4830   36.8460 C   0  0  0  0  0  2  0  0  0  0  0  0
   36.0460   27.8880   36.0900 H   0  0  0  0  0  0  0  0  0  0  0  0
   36.9340   31.6620   40.6760 C   0  0  0  0  0  0  0  0  0  0  0  0
   36.1230   32.2880   40.2600 H   0  0  0  0  0  0  0  0  0  0  0  0
   36.8010   31.6590   41.7790 H   0  0  0  0  0  0  0  0  0  0  0  0
   38.2830   32.2200   40.4200 C   0  0  0  0  0  0  0  0  0  0  0  0
   38.6110   33.5340   40.8920 C   0  0  0  0  0  0  0  0  0  0  0  0
   40.3460   33.7540   40.3350 S   0  0  0  0  0  0  0  0  0  0  0  0
   40.3450   32.0180   39.5490 C   0  0  0  0  0  0  0  0  0  0  0  0
   39.2900   31.6600   39.7860 N   0  0  0  0  0  0  0  0  0  0  0  0
   37.9760   34.2070   41.4360 H   0  0  0  0  0  0  0  0  0  0  0  0
   41.4490   31.4770   38.8880 O   0  0  0  0  0  0  0  0  0  0  0  0
   42.7410   32.8070   36.9960 O   0  0  0  0  0  0  0  0  0  0  0  0
   41.6050   31.8210   37.2290 P   0  0  0  0  0  0  0  0  0  0  0  0
   41.9660   30.3690   36.4330 O   0  0  0  0  0  0  0  0  0  0  0  0
   42.9190   30.1660   36.4280 H   0  0  0  0  0  0  0  0  0  0  0  0
   40.1340   32.4260   36.6340 O   0  0  0  0  0  0  0  0  0  0  0  0
   39.7130   31.8620   35.9650 H   0  0  0  0  0  0  0  0  0  0  0  0
  1 20  1  0  0  0  0
  1  4  1  0  0  0  0
  2  1  1  0  0  0  0
  3  1  1  0  0  0  0
  4  9  1  0  0  0  0
  5  4  2  0  0  0  0
  5  6  1  0  0  0  0
  6  7  2  0  0  0  0
  7  8  1  0  0  0  0
  8 11  1  0  0  0  0
  9  8  2  0  0  0  0
 10  6  1  0  0  0  0
 12  5  1  0  0  0  0
 13 12  1  0  0  0  0
 14 16  1  0  0  0  0
 14 13  1  0  0  0  0
 15 14  1  0  0  0  0
 16 17  1  0  0  0  0
 18 14  1  0  0  0  0
 19 18  1  0  0  0  0
 20 22  1  0  0  0  0
 21 20  1  0  0  0  0
 23 20  1  0  0  0  0
 23 24  2  0  0  0  0
 24 28  1  0  0  0  0
 25 24  1  0  0  0  0
 26 27  2  0  0  0  0
 26 25  1  0  0  0  0
 27 23  1  0  0  0  0
 29 26  1  0  0  0  0
 30 31  2  0  0  0  0
 31 29  1  0  0  0  0
 32 31  1  0  0  0  0
 33 32  1  0  0  0  0
 34 31  1  0  0  0  0
 35 34  1  0  0  0  0
M  END
>  <minimizedAffinity>
-4.60403442

$$$$

 OpenBabel03252507473D

 35 36  0  0  0  0  0  0  0  0999 V2000
   38.5390   28.7080   38.5930 C   0  0  0  0  0  0  0  0  0  0  0  0
   37.7020   27.9620   38.6830 H   0  0  0  0  0  0  0  0  0  0  0  0
   38.6990   28.8630   37.5140 H   0  0  0  0  0  0  0  0  0  0  0  0
   38.0380   29.9350   39.2510 C   0  0  0  0  0  0  0  0  0  0  0  0
   37.0490   29.7740   40.2150 C   0  0  0  0  0  0  0  0  0  0  0  0
   36.5260   30.8730   40.8780 C   0  0  0  0  0  0  0  0  0  0  0  0
   37.0220   32.1010   40.5420 N   0  0  0  0  0  0  0  0  0  0  0  0
   37.9880   32.2180   39.5940 C   0  0  0  0  0  0  0  0  0  0  0  0
   38.4750   31.1570   38.9720 N   0  0  0  0  0  0  0  0  0  0  0  0
   35.7570   30.7760   41.6330 H   0  0  0  0  0  0  0  0  0  0  0  0
   38.3960   33.1740   39.3110 H   0  0  0  0  0  0  0  0  0  0  0  0
   36.4340   28.1290   40.6160 S   0  0  0  0  0  0  0  0  0  0  0  0
   36.5580   27.9770   42.4190 C   0  0  0  0  0  2  0  0  0  0  0  0
   37.6960   27.1560   42.7350 N   0  0  0  0  0  4  0  0  0  0  0  0
   37.4500   26.6540   43.6340 H   0  0  0  0  0  0  0  0  0  0  0  0
   38.8240   28.0000   43.0150 C   0  0  0  0  0  2  0  0  0  0  0  0
   38.5250   28.9500   43.4570 H   0  0  0  0  0  0  0  0  0  0  0  0
   37.9890   26.1940   41.6890 C   0  0  0  0  0  2  0  0  0  0  0  0
   37.5140   25.2120   41.8610 H   0  0  0  0  0  0  0  0  0  0  0  0
   39.8250   28.2150   39.1640 C   0  0  0  0  0  0  0  0  0  0  0  0
   39.8850   28.5010   40.2300 H   0  0  0  0  0  0  0  0  0  0  0  0
   39.7870   27.1050   39.1330 H   0  0  0  0  0  0  0  0  0  0  0  0
   41.0250   28.6140   38.3910 C   0  0  0  0  0  0  0  0  0  0  0  0
   41.9450   27.6110   37.9380 C   0  0  0  0  0  0  0  0  0  0  0  0
   43.2240   28.5900   37.0570 S   0  0  0  0  0  0  0  0  0  0  0  0
   42.2980   30.2080   37.4490 C   0  0  0  0  0  0  0  0  0  0  0  0
   41.4000   29.8230   38.0350 N   0  0  0  0  0  0  0  0  0  0  0  0
   41.8790   26.5510   38.0910 H   0  0  0  0  0  0  0  0  0  0  0  0
   42.7480   31.4660   37.0410 O   0  0  0  0  0  0  0  0  0  0  0  0
   41.7420   33.0450   38.9160 O   0  0  0  0  0  0  0  0  0  0  0  0
   41.7620   32.8010   37.4130 P   0  0  0  0  0  0  0  0  0  0  0  0
   42.4220   34.1600   36.6440 O   0  0  0  0  0  0  0  0  0  0  0  0
   43.1180   34.5920   37.1710 H   0  0  0  0  0  0  0  0  0  0  0  0
   40.1950   32.5340   36.8130 O   0  0  0  0  0  0  0  0  0  0  0  0
   39.9220   33.1600   36.1230 H   0  0  0  0  0  0  0  0  0  0  0  0
  1  2  1  0  0  0  0
  1 20  1  0  0  0  0
  1  4  1  0  0  0  0
  3  1  1  0  0  0  0
  4  5  1  0  0  0  0
  5 12  1  0  0  0  0
  5  6  2  0  0  0  0
  6 10  1  0  0  0  0
  7  6  1  0  0  0  0
  8  7  2  0  0  0  0
  9  4  2  0  0  0  0
  9  8  1  0  0  0  0
 11  8  1  0  0  0  0
 12 13  1  0  0  0  0
 13 14  1  0  0  0  0
 14 16  1  0  0  0  0
 14 15  1  0  0  0  0
 16 17  1  0  0  0  0
 18 19  1  0  0  0  0
 18 14  1  0  0  0  0
 20 21  1  0  0  0  0
 22 20  1  0  0  0  0
 23 20  1  0  0  0  0
 24 28  1  0  0  0  0
 24 23  2  0  0  0  0
 25 26  1  0  0  0  0
 25 24  1  0  0  0  0
 26 27  2  0  0  0  0
 27 23  1  0  0  0  0
 29 31  1  0  0  0  0
 29 26  1  0  0  0  0
 31 30  2  0  0  0  0
 32 33  1  0  0  0  0
 32 31  1  0  0  0  0
 34 31  1  0  0  0  0
 35 34  1  0  0  0  0
M  END
>  <minimizedAffinity>
-4.53181887

$$$$
