
 OpenBabel03252507443D

 35 36  0  0  0  0  0  0  0  0999 V2000
   47.6040   34.5720   40.8190 C   0  0  0  0  0  0  0  0  0  0  0  0
   47.9520   35.4590   40.2230 H   0  0  0  0  0  0  0  0  0  0  0  0
   46.9300   34.0020   40.1600 H   0  0  0  0  0  0  0  0  0  0  0  0
   48.8320   33.8080   41.1320 C   0  0  0  0  0  0  0  0  0  0  0  0
   49.0980   32.6950   40.3430 C   0  0  0  0  0  0  0  0  0  0  0  0
   50.2290   31.9230   40.5710 C   0  0  0  0  0  0  0  0  0  0  0  0
   51.0520   32.3070   41.5910 N   0  0  0  0  0  0  0  0  0  0  0  0
   50.7570   33.4010   42.3410 C   0  0  0  0  0  0  0  0  0  0  0  0
   49.6730   34.1240   42.1080 N   0  0  0  0  0  0  0  0  0  0  0  0
   50.4600   31.0540   39.9710 H   0  0  0  0  0  0  0  0  0  0  0  0
   51.3890   33.7240   43.1510 H   0  0  0  0  0  0  0  0  0  0  0  0
   47.9760   32.2380   39.0100 S   0  0  0  0  0  0  0  0  0  0  0  0
   48.6010   33.0710   37.5250 C   0  0  0  0  0  2  0  0  0  0  0  0
   48.7620   32.0930   36.4820 N   0  0  0  0  0  4  0  0  0  0  0  0
   48.0150   31.3630   36.6500 H   0  0  0  0  0  0  0  0  0  0  0  0
   50.0340   31.4430   36.6390 C   0  0  0  0  0  2  0  0  0  0  0  0
   50.3370   31.3810   37.6840 H   0  0  0  0  0  0  0  0  0  0  0  0
   48.6110   32.6690   35.1590 C   0  0  0  0  0  2  0  0  0  0  0  0
   47.5820   32.5880   34.7690 H   0  0  0  0  0  0  0  0  0  0  0  0
   46.8200   34.9520   42.0290 C   0  0  0  0  0  0  0  0  0  0  0  0
   47.1490   34.3340   42.8860 H   0  0  0  0  0  0  0  0  0  0  0  0
   47.0890   36.0020   42.2710 H   0  0  0  0  0  0  0  0  0  0  0  0
   45.3510   34.9300   41.8330 C   0  0  0  0  0  0  0  0  0  0  0  0
   44.5000   35.6160   42.7620 C   0  0  0  0  0  0  0  0  0  0  0  0
   42.8190   35.2960   42.0970 S   0  0  0  0  0  0  0  0  0  0  0  0
   43.5480   34.2790   40.6610 C   0  0  0  0  0  0  0  0  0  0  0  0
   44.6650   34.3430   40.8780 N   0  0  0  0  0  0  0  0  0  0  0  0
   44.7990   36.1740   43.6290 H   0  0  0  0  0  0  0  0  0  0  0  0
   42.7650   33.6770   39.6740 O   0  0  0  0  0  0  0  0  0  0  0  0
   40.8650   33.9070   37.8420 O   0  0  0  0  0  0  0  0  0  0  0  0
   41.8740   34.7070   38.6540 P   0  0  0  0  0  0  0  0  0  0  0  0
   41.0400   35.8090   39.6350 O   0  0  0  0  0  0  0  0  0  0  0  0
   40.1850   35.4650   39.9490 H   0  0  0  0  0  0  0  0  0  0  0  0
   42.9380   35.5630   37.6430 O   0  0  0  0  0  0  0  0  0  0  0  0
   42.9330   36.5240   37.7830 H   0  0  0  0  0  0  0  0  0  0  0  0
  1  4  1  0  0  0  0
  1 20  1  0  0  0  0
  2  1  1  0  0  0  0
  3  1  1  0  0  0  0
  4  9  1  0  0  0  0
  5  6  1  0  0  0  0
  5  4  2  0  0  0  0
  6  7  2  0  0  0  0
  7  8  1  0  0  0  0
  8 11  1  0  0  0  0
  9  8  2  0  0  0  0
 10  6  1  0  0  0  0
 12  5  1  0  0  0  0
 13 12  1  0  0  0  0
 14 16  1  0  0  0  0
 14 15  1  0  0  0  0
 14 13  1  0  0  0  0
 16 17  1  0  0  0  0
 18 14  1  0  0  0  0
 19 18  1  0  0  0  0
 20 22  1  0  0  0  0
 20 21  1  0  0  0  0
 23 20  1  0  0  0  0
 23 24  2  0  0  0  0
 24 28  1  0  0  0  0
 25 24  1  0  0  0  0
 26 27  2  0  0  0  0
 26 25  1  0  0  0  0
 27 23  1  0  0  0  0
 29 26  1  0  0  0  0
 30 31  2  0  0  0  0
 31 32  1  0  0  0  0
 31 29  1  0  0  0  0
 32 33  1  0  0  0  0
 34 35  1  0  0  0  0
 34 31  1  0  0  0  0
M  END
>  <minimizedAffinity>
-4.50977039

>  <minimizedRMSD>
0.802724719

$$$$
