
 OpenBabel03252507443D

 35 36  0  0  0  0  0  0  0  0999 V2000
   47.7260   34.7740   40.9950 C   0  0  0  0  0  0  0  0  0  0  0  0
   48.1800   35.6550   40.4660 H   0  0  0  0  0  0  0  0  0  0  0  0
   47.0680   34.2790   40.2620 H   0  0  0  0  0  0  0  0  0  0  0  0
   48.8690   33.9120   41.3680 C   0  0  0  0  0  0  0  0  0  0  0  0
   48.8460   32.6020   40.9040 C   0  0  0  0  0  0  0  0  0  0  0  0
   49.8800   31.7280   41.2090 C   0  0  0  0  0  0  0  0  0  0  0  0
   50.9020   32.2130   41.9740 N   0  0  0  0  0  0  0  0  0  0  0  0
   50.8890   33.4990   42.4100 C   0  0  0  0  0  0  0  0  0  0  0  0
   49.8930   34.3180   42.1080 N   0  0  0  0  0  0  0  0  0  0  0  0
   49.8870   30.7040   40.8610 H   0  0  0  0  0  0  0  0  0  0  0  0
   51.6820   33.9060   43.0140 H   0  0  0  0  0  0  0  0  0  0  0  0
   47.4710   32.0190   39.8980 S   0  0  0  0  0  0  0  0  0  0  0  0
   48.1260   31.8370   38.2160 C   0  0  0  0  0  2  0  0  0  0  0  0
   49.2120   32.7630   38.0410 N   0  0  0  0  0  4  0  0  0  0  0  0
   49.4220   33.1490   39.0030 H   0  0  0  0  0  0  0  0  0  0  0  0
   48.7670   33.8630   37.2300 C   0  0  0  0  0  2  0  0  0  0  0  0
   47.7070   34.0730   37.3710 H   0  0  0  0  0  0  0  0  0  0  0  0
   50.3930   32.1290   37.4870 C   0  0  0  0  0  2  0  0  0  0  0  0
   51.1040   31.7890   38.2620 H   0  0  0  0  0  0  0  0  0  0  0  0
   46.8760   35.1630   42.1560 C   0  0  0  0  0  0  0  0  0  0  0  0
   47.2070   34.6080   43.0540 H   0  0  0  0  0  0  0  0  0  0  0  0
   47.0750   36.2380   42.3550 H   0  0  0  0  0  0  0  0  0  0  0  0
   45.4190   35.0460   41.9110 C   0  0  0  0  0  0  0  0  0  0  0  0
   44.4930   35.6360   42.8330 C   0  0  0  0  0  0  0  0  0  0  0  0
   42.8600   35.2220   42.1020 S   0  0  0  0  0  0  0  0  0  0  0  0
   43.7050   34.3120   40.6570 C   0  0  0  0  0  0  0  0  0  0  0  0
   44.8070   34.4460   40.9140 N   0  0  0  0  0  0  0  0  0  0  0  0
   44.7240   36.1810   43.7280 H   0  0  0  0  0  0  0  0  0  0  0  0
   42.9980   33.6920   39.6250 O   0  0  0  0  0  0  0  0  0  0  0  0
   40.9900   33.8330   37.9020 O   0  0  0  0  0  0  0  0  0  0  0  0
   42.0000   34.6800   38.6650 P   0  0  0  0  0  0  0  0  0  0  0  0
   41.1650   35.7310   39.7000 O   0  0  0  0  0  0  0  0  0  0  0  0
   40.3470   35.3400   40.0570 H   0  0  0  0  0  0  0  0  0  0  0  0
   42.9600   35.5960   37.6040 O   0  0  0  0  0  0  0  0  0  0  0  0
   42.9130   36.5550   37.7540 H   0  0  0  0  0  0  0  0  0  0  0  0
  1  4  1  0  0  0  0
  1 20  1  0  0  0  0
  2  1  1  0  0  0  0
  3  1  1  0  0  0  0
  4  9  1  0  0  0  0
  5  6  1  0  0  0  0
  5  4  2  0  0  0  0
  6  7  2  0  0  0  0
  7  8  1  0  0  0  0
  8 11  1  0  0  0  0
  9  8  2  0  0  0  0
 10  6  1  0  0  0  0
 12  5  1  0  0  0  0
 13 12  1  0  0  0  0
 14 13  1  0  0  0  0
 14 15  1  0  0  0  0
 16 17  1  0  0  0  0
 16 14  1  0  0  0  0
 18 14  1  0  0  0  0
 18 19  1  0  0  0  0
 20 22  1  0  0  0  0
 20 21  1  0  0  0  0
 23 20  1  0  0  0  0
 23 24  2  0  0  0  0
 24 28  1  0  0  0  0
 25 24  1  0  0  0  0
 26 27  2  0  0  0  0
 26 25  1  0  0  0  0
 27 23  1  0  0  0  0
 29 26  1  0  0  0  0
 30 31  2  0  0  0  0
 31 29  1  0  0  0  0
 31 32  1  0  0  0  0
 32 33  1  0  0  0  0
 34 35  1  0  0  0  0
 34 31  1  0  0  0  0
M  END
>  <minimizedAffinity>
-4.52466011

>  <minimizedRMSD>
0.898094833

$$$$
