
 OpenBabel03252507453D

 35 36  0  0  0  0  0  0  0  0999 V2000
   47.4890   34.7510   41.0300 C   0  0  0  0  0  0  0  0  0  0  0  0
   47.9290   35.6740   40.5630 H   0  0  0  0  0  0  0  0  0  0  0  0
   46.8500   34.2900   40.2590 H   0  0  0  0  0  0  0  0  0  0  0  0
   48.6470   33.8920   41.3630 C   0  0  0  0  0  0  0  0  0  0  0  0
   48.5980   32.5740   40.9230 C   0  0  0  0  0  0  0  0  0  0  0  0
   49.6430   31.7020   41.1930 C   0  0  0  0  0  0  0  0  0  0  0  0
   50.7020   32.1960   41.9000 N   0  0  0  0  0  0  0  0  0  0  0  0
   50.7130   33.4900   42.3130 C   0  0  0  0  0  0  0  0  0  0  0  0
   49.7060   34.3070   42.0460 N   0  0  0  0  0  0  0  0  0  0  0  0
   49.6310   30.6730   40.8620 H   0  0  0  0  0  0  0  0  0  0  0  0
   51.5350   33.9040   42.8720 H   0  0  0  0  0  0  0  0  0  0  0  0
   47.1750   31.9790   39.9930 S   0  0  0  0  0  0  0  0  0  0  0  0
   47.7080   31.8980   38.2620 C   0  0  0  0  0  2  0  0  0  0  0  0
   48.7140   32.9030   38.0410 N   0  0  0  0  0  4  0  0  0  0  0  0
   48.9980   33.2450   39.0000 H   0  0  0  0  0  0  0  0  0  0  0  0
   48.1220   34.0160   37.3510 C   0  0  0  0  0  2  0  0  0  0  0  0
   47.0710   34.1470   37.6100 H   0  0  0  0  0  0  0  0  0  0  0  0
   49.8670   32.3810   37.3330 C   0  0  0  0  0  2  0  0  0  0  0  0
   50.6730   32.0450   38.0090 H   0  0  0  0  0  0  0  0  0  0  0  0
   46.6180   35.0490   42.2030 C   0  0  0  0  0  0  0  0  0  0  0  0
   46.9210   34.4110   43.0540 H   0  0  0  0  0  0  0  0  0  0  0  0
   46.8260   36.0980   42.5010 H   0  0  0  0  0  0  0  0  0  0  0  0
   45.1660   34.9750   41.9170 C   0  0  0  0  0  0  0  0  0  0  0  0
   44.2290   35.5560   42.8350 C   0  0  0  0  0  0  0  0  0  0  0  0
   42.6070   35.2060   42.0490 S   0  0  0  0  0  0  0  0  0  0  0  0
   43.4680   34.3260   40.5950 C   0  0  0  0  0  0  0  0  0  0  0  0
   44.5660   34.4240   40.8850 N   0  0  0  0  0  0  0  0  0  0  0  0
   44.4500   36.0650   43.7540 H   0  0  0  0  0  0  0  0  0  0  0  0
   42.7740   33.7590   39.5240 O   0  0  0  0  0  0  0  0  0  0  0  0
   40.7700   34.0080   37.8090 O   0  0  0  0  0  0  0  0  0  0  0  0
   41.8150   34.8010   38.5810 P   0  0  0  0  0  0  0  0  0  0  0  0
   41.0270   35.8710   39.6340 O   0  0  0  0  0  0  0  0  0  0  0  0
   40.1940   35.5090   39.9880 H   0  0  0  0  0  0  0  0  0  0  0  0
   42.8100   35.6920   37.5320 O   0  0  0  0  0  0  0  0  0  0  0  0
   42.8030   36.6500   37.6950 H   0  0  0  0  0  0  0  0  0  0  0  0
  1  4  1  0  0  0  0
  1 20  1  0  0  0  0
  2  1  1  0  0  0  0
  3  1  1  0  0  0  0
  4  9  1  0  0  0  0
  5  6  1  0  0  0  0
  5  4  2  0  0  0  0
  6  7  2  0  0  0  0
  7  8  1  0  0  0  0
  8 11  1  0  0  0  0
  9  8  2  0  0  0  0
 10  6  1  0  0  0  0
 12  5  1  0  0  0  0
 13 12  1  0  0  0  0
 14 13  1  0  0  0  0
 14 15  1  0  0  0  0
 16 17  1  0  0  0  0
 16 14  1  0  0  0  0
 18 19  1  0  0  0  0
 18 14  1  0  0  0  0
 20 22  1  0  0  0  0
 20 21  1  0  0  0  0
 23 20  1  0  0  0  0
 23 24  2  0  0  0  0
 24 28  1  0  0  0  0
 25 24  1  0  0  0  0
 26 27  2  0  0  0  0
 26 25  1  0  0  0  0
 27 23  1  0  0  0  0
 29 26  1  0  0  0  0
 30 31  2  0  0  0  0
 31 29  1  0  0  0  0
 31 32  1  0  0  0  0
 32 33  1  0  0  0  0
 34 35  1  0  0  0  0
 34 31  1  0  0  0  0
M  END
>  <minimizedAffinity>
-4.44360638

>  <minimizedRMSD>
0.767979383

$$$$
