
 OpenBabel03252503153D

 34 36  0  0  0  0  0  0  0  0999 V2000
   46.8310   34.6840   41.7760 C   0  0  0  0  0  0  0  0  0  0  0  0
   47.8940   35.3760   41.6690 O   0  0  0  0  0  0  0  0  0  0  0  0
   46.3540   33.6820   40.7710 C   0  0  0  0  0  0  0  0  0  0  0  0
   45.1470   33.6940   40.1170 C   0  0  0  0  0  0  0  0  0  0  0  0
   45.1550   32.6080   39.3170 N   0  0  0  0  0  0  0  0  0  0  0  0
   46.3300   31.9590   39.4820 C   0  0  0  0  0  0  0  0  0  0  0  0
   47.0900   32.6210   40.3910 N   0  0  0  0  0  0  0  0  0  0  0  0
   46.8430   30.7680   38.8830 N   0  0  0  0  0  0  0  0  0  0  0  0
   44.3470   34.4150   40.2100 H   0  0  0  0  0  0  0  0  0  0  0  0
   46.2930   30.0010   39.3370 H   0  0  0  0  0  0  0  0  0  0  0  0
   47.6010   30.7040   38.1560 H   0  0  0  0  0  0  0  0  0  0  0  0
   44.1430   32.1370   38.4120 C   0  0  0  0  0  2  0  0  0  0  0  0
   44.3120   32.5240   37.0490 N   0  0  0  0  0  4  0  0  0  0  0  0
   43.4350   33.0140   36.6950 H   0  0  0  0  0  0  0  0  0  0  0  0
   45.4640   33.3130   36.7560 C   0  0  0  0  0  2  0  0  0  0  0  0
   46.2570   33.3250   37.4990 H   0  0  0  0  0  0  0  0  0  0  0  0
   44.3680   31.3010   36.2350 C   0  0  0  0  0  2  0  0  0  0  0  0
   45.3950   30.9170   36.2550 H   0  0  0  0  0  0  0  0  0  0  0  0
   45.4360   36.1580   43.1470 C   0  0  0  0  0  0  0  0  0  0  0  0
   46.0760   34.9190   42.9620 C   0  0  0  0  0  0  0  0  0  0  0  0
   45.9060   34.0130   43.9890 C   0  0  0  0  0  0  0  0  0  0  0  0
   45.1840   34.2820   45.0900 N   0  0  0  0  0  0  0  0  0  0  0  0
   44.5850   35.4980   45.2180 C   0  0  0  0  0  0  0  0  0  0  0  0
   44.7140   36.4280   44.2450 N   0  0  0  0  0  0  0  0  0  0  0  0
   45.5370   36.9070   42.3680 H   0  0  0  0  0  0  0  0  0  0  0  0
   44.0010   35.7270   46.1000 H   0  0  0  0  0  0  0  0  0  0  0  0
   46.5220   32.7430   43.8780 C   0  0  0  0  0  0  0  0  0  0  0  0
   47.7950   32.2720   43.9670 C   0  0  0  0  0  0  0  0  0  0  0  0
   48.0970   31.0000   43.8160 C   0  0  0  0  0  0  0  0  0  0  0  0
   47.0700   30.1610   43.5650 C   0  0  0  0  0  0  0  0  0  0  0  0
   45.6100   31.2510   43.5440 S   0  0  0  0  0  0  0  0  0  0  0  0
   48.5450   33.0640   44.1770 H   0  0  0  0  0  0  0  0  0  0  0  0
   49.0890   30.5680   43.8760 H   0  0  0  0  0  0  0  0  0  0  0  0
   47.0740   29.0280   43.3980 H   0  0  0  0  0  0  0  0  0  0  0  0
  1 20  1  0  0  0  0
  2  1  2  0  0  0  0
  3  1  1  0  0  0  0
  4  9  1  0  0  0  0
  4  3  2  0  0  0  0
  5  6  1  0  0  0  0
  5  4  1  0  0  0  0
  6  7  2  0  0  0  0
  7  3  1  0  0  0  0
  8 10  1  0  0  0  0
  8  6  1  0  0  0  0
 11  8  1  0  0  0  0
 12  5  1  0  0  0  0
 13 12  1  0  0  0  0
 14 13  1  0  0  0  0
 15 13  1  0  0  0  0
 15 16  1  0  0  0  0
 17 18  1  0  0  0  0
 17 13  1  0  0  0  0
 19 24  1  0  0  0  0
 20 19  2  0  0  0  0
 20 21  1  0  0  0  0
 21 22  2  0  0  0  0
 22 23  1  0  0  0  0
 23 26  1  0  0  0  0
 24 23  2  0  0  0  0
 25 19  1  0  0  0  0
 27 28  2  0  0  0  0
 27 21  1  0  0  0  0
 28 32  1  0  0  0  0
 29 33  1  0  0  0  0
 29 28  1  0  0  0  0
 30 29  2  0  0  0  0
 31 30  1  0  0  0  0
 31 27  1  0  0  0  0
 34 30  1  0  0  0  0
M  END
>  <minimizedAffinity>
-4.36076593

>  <minimizedRMSD>
1.15363014

$$$$
