
 OpenBabel03252507453D

 35 36  0  0  0  0  0  0  0  0999 V2000
   47.2730   34.3510   40.5960 C   0  0  0  0  0  0  0  0  0  0  0  0
   47.5500   35.1650   39.8720 H   0  0  0  0  0  0  0  0  0  0  0  0
   46.5900   33.6770   40.0550 H   0  0  0  0  0  0  0  0  0  0  0  0
   48.5470   33.6790   40.9340 C   0  0  0  0  0  0  0  0  0  0  0  0
   48.9190   32.6010   40.1390 C   0  0  0  0  0  0  0  0  0  0  0  0
   50.0990   31.9150   40.3870 C   0  0  0  0  0  0  0  0  0  0  0  0
   50.8630   32.3460   41.4340 N   0  0  0  0  0  0  0  0  0  0  0  0
   50.4660   33.4030   42.1900 C   0  0  0  0  0  0  0  0  0  0  0  0
   49.3360   34.0450   41.9360 N   0  0  0  0  0  0  0  0  0  0  0  0
   50.4120   31.0740   39.7840 H   0  0  0  0  0  0  0  0  0  0  0  0
   51.0490   33.7620   43.0210 H   0  0  0  0  0  0  0  0  0  0  0  0
   47.8710   32.0790   38.7700 S   0  0  0  0  0  0  0  0  0  0  0  0
   48.4470   33.0040   37.3200 C   0  0  0  0  0  2  0  0  0  0  0  0
   48.6700   32.0790   36.2410 N   0  0  0  0  0  4  0  0  0  0  0  0
   47.8980   31.3590   36.3120 H   0  0  0  0  0  0  0  0  0  0  0  0
   49.9130   31.3900   36.4610 C   0  0  0  0  0  2  0  0  0  0  0  0
   50.1310   31.2670   37.5210 H   0  0  0  0  0  0  0  0  0  0  0  0
   48.6350   32.7260   34.9440 C   0  0  0  0  0  2  0  0  0  0  0  0
   47.6380   32.6890   34.4700 H   0  0  0  0  0  0  0  0  0  0  0  0
   46.5380   34.8570   41.7910 C   0  0  0  0  0  0  0  0  0  0  0  0
   46.8690   34.2990   42.6870 H   0  0  0  0  0  0  0  0  0  0  0  0
   46.8520   35.9130   41.9390 H   0  0  0  0  0  0  0  0  0  0  0  0
   45.0650   34.8770   41.6350 C   0  0  0  0  0  0  0  0  0  0  0  0
   44.2510   35.4920   42.6430 C   0  0  0  0  0  0  0  0  0  0  0  0
   42.5470   35.2580   42.0000 S   0  0  0  0  0  0  0  0  0  0  0  0
   43.2200   34.3600   40.4600 C   0  0  0  0  0  0  0  0  0  0  0  0
   44.3430   34.3860   40.6520 N   0  0  0  0  0  0  0  0  0  0  0  0
   44.5830   35.9670   43.5460 H   0  0  0  0  0  0  0  0  0  0  0  0
   42.4000   33.8590   39.4470 O   0  0  0  0  0  0  0  0  0  0  0  0
   40.4870   34.2910   37.6650 O   0  0  0  0  0  0  0  0  0  0  0  0
   41.5390   34.9920   38.5140 P   0  0  0  0  0  0  0  0  0  0  0  0
   40.7640   36.0570   39.5810 O   0  0  0  0  0  0  0  0  0  0  0  0
   39.8990   35.7270   39.8850 H   0  0  0  0  0  0  0  0  0  0  0  0
   42.6230   35.8710   37.5460 O   0  0  0  0  0  0  0  0  0  0  0  0
   42.6600   36.8200   37.7520 H   0  0  0  0  0  0  0  0  0  0  0  0
  1  4  1  0  0  0  0
  1 20  1  0  0  0  0
  2  1  1  0  0  0  0
  3  1  1  0  0  0  0
  4  9  1  0  0  0  0
  5  6  1  0  0  0  0
  5  4  2  0  0  0  0
  6  7  2  0  0  0  0
  7  8  1  0  0  0  0
  8 11  1  0  0  0  0
  9  8  2  0  0  0  0
 10  6  1  0  0  0  0
 12  5  1  0  0  0  0
 13 12  1  0  0  0  0
 14 15  1  0  0  0  0
 14 16  1  0  0  0  0
 14 13  1  0  0  0  0
 16 17  1  0  0  0  0
 18 14  1  0  0  0  0
 19 18  1  0  0  0  0
 20 22  1  0  0  0  0
 20 21  1  0  0  0  0
 23 20  1  0  0  0  0
 23 24  2  0  0  0  0
 24 28  1  0  0  0  0
 25 24  1  0  0  0  0
 26 27  2  0  0  0  0
 26 25  1  0  0  0  0
 27 23  1  0  0  0  0
 29 26  1  0  0  0  0
 30 31  2  0  0  0  0
 31 29  1  0  0  0  0
 31 32  1  0  0  0  0
 32 33  1  0  0  0  0
 34 35  1  0  0  0  0
 34 31  1  0  0  0  0
M  END
>  <minimizedAffinity>
-4.48584509

>  <minimizedRMSD>
0.761570275

$$$$
