
 OpenBabel03252507453D

 35 36  0  0  0  0  0  0  0  0999 V2000
   47.7260   34.7740   40.9950 C   0  0  0  0  0  0  0  0  0  0  0  0
   48.1800   35.6550   40.4660 H   0  0  0  0  0  0  0  0  0  0  0  0
   47.0690   34.2800   40.2620 H   0  0  0  0  0  0  0  0  0  0  0  0
   48.8690   33.9120   41.3680 C   0  0  0  0  0  0  0  0  0  0  0  0
   48.8460   32.6010   40.9040 C   0  0  0  0  0  0  0  0  0  0  0  0
   49.8800   31.7270   41.2090 C   0  0  0  0  0  0  0  0  0  0  0  0
   50.9020   32.2120   41.9750 N   0  0  0  0  0  0  0  0  0  0  0  0
   50.8880   33.4990   42.4100 C   0  0  0  0  0  0  0  0  0  0  0  0
   49.8930   34.3180   42.1080 N   0  0  0  0  0  0  0  0  0  0  0  0
   49.8870   30.7040   40.8610 H   0  0  0  0  0  0  0  0  0  0  0  0
   51.6810   33.9050   43.0150 H   0  0  0  0  0  0  0  0  0  0  0  0
   47.4710   32.0190   39.8970 S   0  0  0  0  0  0  0  0  0  0  0  0
   48.1260   31.8370   38.2160 C   0  0  0  0  0  2  0  0  0  0  0  0
   49.2120   32.7630   38.0410 N   0  0  0  0  0  4  0  0  0  0  0  0
   49.4220   33.1480   39.0040 H   0  0  0  0  0  0  0  0  0  0  0  0
   48.7670   33.8630   37.2310 C   0  0  0  0  0  2  0  0  0  0  0  0
   47.7080   34.0740   37.3720 H   0  0  0  0  0  0  0  0  0  0  0  0
   50.3940   32.1280   37.4870 C   0  0  0  0  0  2  0  0  0  0  0  0
   51.1040   31.7880   38.2610 H   0  0  0  0  0  0  0  0  0  0  0  0
   46.8760   35.1630   42.1560 C   0  0  0  0  0  0  0  0  0  0  0  0
   47.2070   34.6080   43.0540 H   0  0  0  0  0  0  0  0  0  0  0  0
   47.0750   36.2380   42.3550 H   0  0  0  0  0  0  0  0  0  0  0  0
   45.4190   35.0460   41.9100 C   0  0  0  0  0  0  0  0  0  0  0  0
   44.4930   35.6350   42.8320 C   0  0  0  0  0  0  0  0  0  0  0  0
   42.8600   35.2210   42.1010 S   0  0  0  0  0  0  0  0  0  0  0  0
   43.7050   34.3120   40.6560 C   0  0  0  0  0  0  0  0  0  0  0  0
   44.8070   34.4460   40.9130 N   0  0  0  0  0  0  0  0  0  0  0  0
   44.7240   36.1810   43.7280 H   0  0  0  0  0  0  0  0  0  0  0  0
   42.9980   33.6920   39.6240 O   0  0  0  0  0  0  0  0  0  0  0  0
   40.9900   33.8340   37.9010 O   0  0  0  0  0  0  0  0  0  0  0  0
   42.0000   34.6810   38.6640 P   0  0  0  0  0  0  0  0  0  0  0  0
   41.1650   35.7310   39.7000 O   0  0  0  0  0  0  0  0  0  0  0  0
   40.3480   35.3400   40.0570 H   0  0  0  0  0  0  0  0  0  0  0  0
   42.9600   35.5970   37.6040 O   0  0  0  0  0  0  0  0  0  0  0  0
   42.9130   36.5560   37.7540 H   0  0  0  0  0  0  0  0  0  0  0  0
  1  4  1  0  0  0  0
  1 20  1  0  0  0  0
  2  1  1  0  0  0  0
  3  1  1  0  0  0  0
  4  9  1  0  0  0  0
  5  6  1  0  0  0  0
  5  4  2  0  0  0  0
  6  7  2  0  0  0  0
  7  8  1  0  0  0  0
  8 11  1  0  0  0  0
  9  8  2  0  0  0  0
 10  6  1  0  0  0  0
 12  5  1  0  0  0  0
 13 12  1  0  0  0  0
 14 13  1  0  0  0  0
 14 15  1  0  0  0  0
 16 17  1  0  0  0  0
 16 14  1  0  0  0  0
 18 14  1  0  0  0  0
 18 19  1  0  0  0  0
 20 22  1  0  0  0  0
 20 21  1  0  0  0  0
 23 20  1  0  0  0  0
 23 24  2  0  0  0  0
 24 28  1  0  0  0  0
 25 24  1  0  0  0  0
 26 27  2  0  0  0  0
 26 25  1  0  0  0  0
 27 23  1  0  0  0  0
 29 26  1  0  0  0  0
 30 31  2  0  0  0  0
 31 29  1  0  0  0  0
 31 32  1  0  0  0  0
 32 33  1  0  0  0  0
 34 35  1  0  0  0  0
 34 31  1  0  0  0  0
M  END
>  <minimizedAffinity>
-4.52535105

>  <minimizedRMSD>
0.947701216

$$$$
