
 OpenBabel03252507453D

 35 36  0  0  0  0  0  0  0  0999 V2000
   47.7640   35.0620   41.4520 C   0  0  0  0  0  0  0  0  0  0  0  0
   48.2620   36.0680   41.5010 H   0  0  0  0  0  0  0  0  0  0  0  0
   47.2100   35.0380   40.5000 H   0  0  0  0  0  0  0  0  0  0  0  0
   48.8690   34.0780   41.4620 C   0  0  0  0  0  0  0  0  0  0  0  0
   48.8840   33.1380   40.4380 C   0  0  0  0  0  0  0  0  0  0  0  0
   49.8850   32.1800   40.3750 C   0  0  0  0  0  0  0  0  0  0  0  0
   50.8390   32.2080   41.3530 N   0  0  0  0  0  0  0  0  0  0  0  0
   50.7900   33.1420   42.3380 C   0  0  0  0  0  0  0  0  0  0  0  0
   49.8260   34.0480   42.3810 N   0  0  0  0  0  0  0  0  0  0  0  0
   49.9210   31.4390   39.5890 H   0  0  0  0  0  0  0  0  0  0  0  0
   51.5290   33.1860   43.1200 H   0  0  0  0  0  0  0  0  0  0  0  0
   47.5990   33.1520   39.1760 S   0  0  0  0  0  0  0  0  0  0  0  0
   48.2170   34.2200   37.8470 C   0  0  0  0  0  2  0  0  0  0  0  0
   47.6170   33.8080   36.6060 N   0  0  0  0  0  4  0  0  0  0  0  0
   47.3900   34.7000   36.0840 H   0  0  0  0  0  0  0  0  0  0  0  0
   46.3700   33.1480   36.8830 C   0  0  0  0  0  2  0  0  0  0  0  0
   45.8870   33.5420   37.7760 H   0  0  0  0  0  0  0  0  0  0  0  0
   48.5030   32.9760   35.8150 C   0  0  0  0  0  2  0  0  0  0  0  0
   49.0930   33.5520   35.0800 H   0  0  0  0  0  0  0  0  0  0  0  0
   46.7720   34.8470   42.5440 C   0  0  0  0  0  0  0  0  0  0  0  0
   47.0670   33.9610   43.1370 H   0  0  0  0  0  0  0  0  0  0  0  0
   46.8450   35.7230   43.2230 H   0  0  0  0  0  0  0  0  0  0  0  0
   45.3640   34.7910   42.0840 C   0  0  0  0  0  0  0  0  0  0  0  0
   44.4530   35.8350   42.4530 C   0  0  0  0  0  0  0  0  0  0  0  0
   42.8820   35.3140   41.6600 S   0  0  0  0  0  0  0  0  0  0  0  0
   43.7210   33.7560   40.9530 C   0  0  0  0  0  0  0  0  0  0  0  0
   44.7850   33.8720   41.3430 N   0  0  0  0  0  0  0  0  0  0  0  0
   44.6640   36.7010   43.0510 H   0  0  0  0  0  0  0  0  0  0  0  0
   43.0510   32.8140   40.1700 O   0  0  0  0  0  0  0  0  0  0  0  0
   42.0820   32.2150   37.7780 O   0  0  0  0  0  0  0  0  0  0  0  0
   42.3200   33.3720   38.7380 P   0  0  0  0  0  0  0  0  0  0  0  0
   40.8270   34.0580   39.1540 O   0  0  0  0  0  0  0  0  0  0  0  0
   40.1090   33.4010   39.2040 H   0  0  0  0  0  0  0  0  0  0  0  0
   43.2990   34.5670   38.0310 O   0  0  0  0  0  0  0  0  0  0  0  0
   42.8860   35.4460   37.9900 H   0  0  0  0  0  0  0  0  0  0  0  0
  1  4  1  0  0  0  0
  1  2  1  0  0  0  0
  1 20  1  0  0  0  0
  3  1  1  0  0  0  0
  4  9  1  0  0  0  0
  5  4  2  0  0  0  0
  6  5  1  0  0  0  0
  6  7  2  0  0  0  0
  7  8  1  0  0  0  0
  8  9  2  0  0  0  0
  8 11  1  0  0  0  0
 10  6  1  0  0  0  0
 12  5  1  0  0  0  0
 13 12  1  0  0  0  0
 14 16  1  0  0  0  0
 14 13  1  0  0  0  0
 15 14  1  0  0  0  0
 16 17  1  0  0  0  0
 18 14  1  0  0  0  0
 19 18  1  0  0  0  0
 20 21  1  0  0  0  0
 20 22  1  0  0  0  0
 23 24  2  0  0  0  0
 23 20  1  0  0  0  0
 24 28  1  0  0  0  0
 25 24  1  0  0  0  0
 26 27  2  0  0  0  0
 26 25  1  0  0  0  0
 27 23  1  0  0  0  0
 29 26  1  0  0  0  0
 30 31  2  0  0  0  0
 31 32  1  0  0  0  0
 31 29  1  0  0  0  0
 32 33  1  0  0  0  0
 34 31  1  0  0  0  0
 35 34  1  0  0  0  0
M  END
>  <minimizedAffinity>
-4.75112295

>  <minimizedRMSD>
1.64515853

$$$$
