
 OpenBabel03242522413D

 45 47  0  0  0  0  0  0  0  0999 V2000
   46.9080   32.5470   44.2210 C   0  0  0  0  0  0  0  0  0  0  0  0
   46.7580   31.9630   43.2780 H   0  0  0  0  0  0  0  0  0  0  0  0
   47.9340   32.7250   44.5170 H   0  0  0  0  0  0  0  0  0  0  0  0
   46.8890   34.5770   42.8900 C   0  0  0  0  0  0  0  0  0  0  0  0
   46.3010   33.8490   43.8900 C   0  0  0  0  0  0  0  0  0  0  0  0
   45.2100   34.2120   44.5820 C   0  0  0  0  0  0  0  0  0  0  0  0
   44.6210   35.4100   44.2760 C   0  0  0  0  0  0  0  0  0  0  0  0
   45.1150   36.2190   43.2950 C   0  0  0  0  0  0  0  0  0  0  0  0
   46.2450   35.7800   42.6200 C   0  0  0  0  0  0  0  0  0  0  0  0
   44.6690   33.7290   45.3470 H   0  0  0  0  0  0  0  0  0  0  0  0
   43.7360   35.8350   44.7530 H   0  0  0  0  0  0  0  0  0  0  0  0
   44.6840   37.1890   43.0040 H   0  0  0  0  0  0  0  0  0  0  0  0
   46.6320   36.4430   41.8290 H   0  0  0  0  0  0  0  0  0  0  0  0
   48.3200   34.2460   42.0270 S   0  0  0  0  0  0  0  0  0  0  0  0
   49.5570   34.2840   42.8890 O   0  0  0  0  0  0  0  0  0  0  0  0
   48.5360   35.4150   41.0390 O   0  0  0  0  0  0  0  0  0  0  0  0
   48.5080   32.8820   41.0150 C   0  0  0  0  0  0  0  0  0  0  0  0
   47.5900   33.0550   39.8570 N   0  0  0  0  0  0  0  0  0  0  0  0
   47.7630   32.1610   39.2980 H   0  0  0  0  0  0  0  0  0  0  0  0
   46.2150   33.0150   40.2320 C   0  0  0  0  0  0  0  0  0  0  0  0
   46.1080   32.3890   41.1400 H   0  0  0  0  0  0  0  0  0  0  0  0
   47.9750   34.1260   39.0010 C   0  0  0  0  0  0  0  0  0  0  0  0
   47.8610   33.8290   37.9150 H   0  0  0  0  0  0  0  0  0  0  0  0
   46.1700   31.6890   45.1980 C   0  0  0  0  0  0  0  0  0  0  0  0
   45.1490   32.0540   45.4430 H   0  0  0  0  0  0  0  0  0  0  0  0
   45.9240   30.6640   44.8380 H   0  0  0  0  0  0  0  0  0  0  0  0
   47.1050   32.4900   47.3400 C   0  0  0  0  0  0  0  0  0  0  0  0
   47.0200   31.4800   46.3610 C   0  0  0  0  0  0  0  0  0  0  0  0
   47.7510   30.3260   46.5800 C   0  0  0  0  0  0  0  0  0  0  0  0
   48.5010   30.2130   47.6970 N   0  0  0  0  0  0  0  0  0  0  0  0
   48.5510   31.1940   48.6000 C   0  0  0  0  0  0  0  0  0  0  0  0
   47.8630   32.3480   48.4490 N   0  0  0  0  0  0  0  0  0  0  0  0
   46.6380   33.4560   47.3830 H   0  0  0  0  0  0  0  0  0  0  0  0
   47.6880   29.5490   45.8280 H   0  0  0  0  0  0  0  0  0  0  0  0
   49.3960   30.9900   49.8320 C   0  0  0  0  0  0  0  0  0  0  0  0
   48.7950   31.3770   50.6890 H   0  0  0  0  0  0  0  0  0  0  0  0
   49.5220   29.9090   50.0010 H   0  0  0  0  0  0  0  0  0  0  0  0
   50.6770   31.6720   49.7800 C   0  0  0  0  0  0  0  0  0  0  0  0
   51.8620   31.1120   49.3280 C   0  0  0  0  0  0  0  0  0  0  0  0
   52.8560   32.0580   49.4310 C   0  0  0  0  0  0  0  0  0  0  0  0
   52.2340   33.1630   49.9440 N   0  0  0  0  0  0  0  0  0  0  0  0
   50.9320   32.9390   50.1550 N   0  0  0  0  0  0  0  0  0  0  0  0
   52.0310   30.1050   48.9500 H   0  0  0  0  0  0  0  0  0  0  0  0
   53.9070   32.0230   49.1880 H   0  0  0  0  0  0  0  0  0  0  0  0
   52.7540   34.0700   50.1380 H   0  0  0  0  0  0  0  0  0  0  0  0
  1  3  1  0  0  0  0
  1 24  1  0  0  0  0
  2  1  1  0  0  0  0
  4  5  1  0  0  0  0
  5  1  1  0  0  0  0
  5  6  2  0  0  0  0
  6 10  1  0  0  0  0
  7  6  1  0  0  0  0
  7 11  1  0  0  0  0
  8  7  2  0  0  0  0
  9  4  2  0  0  0  0
  9  8  1  0  0  0  0
 12  8  1  0  0  0  0
 13  9  1  0  0  0  0
 14 15  2  0  0  0  0
 14  4  1  0  0  0  0
 16 14  2  0  0  0  0
 17 14  1  0  0  0  0
 18 20  1  0  0  0  0
 18 17  1  0  0  0  0
 19 18  1  0  0  0  0
 20 21  1  0  0  0  0
 22 18  1  0  0  0  0
 23 22  1  0  0  0  0
 24 25  1  0  0  0  0
 24 28  1  0  0  0  0
 26 24  1  0  0  0  0
 27 33  1  0  0  0  0
 27 32  1  0  0  0  0
 28 29  1  0  0  0  0
 28 27  2  0  0  0  0
 29 30  2  0  0  0  0
 30 31  1  0  0  0  0
 31 35  1  0  0  0  0
 32 31  2  0  0  0  0
 34 29  1  0  0  0  0
 35 37  1  0  0  0  0
 35 36  1  0  0  0  0
 38 35  1  0  0  0  0
 38 42  2  0  0  0  0
 39 40  2  0  0  0  0
 39 38  1  0  0  0  0
 40 41  1  0  0  0  0
 41 45  1  0  0  0  0
 41 42  1  0  0  0  0
 43 39  1  0  0  0  0
 44 40  1  0  0  0  0
M  END
>  <minimizedAffinity>
-5.65620089

>  <minimizedRMSD>
0.854749799

$$$$
