
 OpenBabel03252508593D

 43 44  0  0  1  0  0  0  0  0999 V2000
   46.6480   34.5170   43.4650 N   0  0  0  0  0  0  0  0  0  0  0  0
   46.1770   35.6080   42.6880 C   0  0  0  0  0  0  0  0  0  0  0  0
   44.6900   35.8500   42.7510 C   0  0  0  0  0  0  0  0  0  0  0  0
   44.0490   35.4930   44.0670 C   0  0  0  0  0  0  0  0  0  0  0  0
   45.0810   35.0810   45.0890 C   0  0  0  0  0  0  0  0  0  0  0  0
   45.8260   33.8860   44.3860 C   0  0  2  0  0  0  0  0  0  0  0  0
   46.4580   35.6060   41.6320 H   0  0  0  0  0  0  0  0  0  0  0  0
   46.6670   36.5270   43.1210 H   0  0  0  0  0  0  0  0  0  0  0  0
   44.4900   36.9410   42.5870 H   0  0  0  0  0  0  0  0  0  0  0  0
   44.2200   35.3490   41.8810 H   0  0  0  0  0  0  0  0  0  0  0  0
   43.3530   34.6480   43.9410 H   0  0  0  0  0  0  0  0  0  0  0  0
   43.4590   36.3230   44.5150 H   0  0  0  0  0  0  0  0  0  0  0  0
   45.8190   35.8530   45.3110 H   0  0  0  0  0  0  0  0  0  0  0  0
   44.5970   34.6020   45.9480 H   0  0  0  0  0  0  0  0  0  0  0  0
   45.0470   33.1970   43.9950 H   0  0  0  0  0  0  0  0  0  0  0  0
   47.6930   33.7610   42.8420 C   0  0  0  0  0  0  0  0  0  0  0  0
   48.2800   33.1740   43.5900 H   0  0  0  0  0  0  0  0  0  0  0  0
   48.3790   34.4370   42.3250 H   0  0  0  0  0  0  0  0  0  0  0  0
   47.0750   32.7730   41.8970 C   0  0  0  0  0  0  0  0  0  0  0  0
   45.9850   33.0000   41.7490 H   0  0  0  0  0  0  0  0  0  0  0  0
   47.1230   31.7270   42.2130 H   0  0  0  0  0  0  0  0  0  0  0  0
   49.1260   32.0680   38.8280 C   0  0  0  0  0  0  0  0  0  0  0  0
   48.5280   31.9320   40.0950 C   0  0  0  0  0  0  0  0  0  0  0  0
   47.7010   32.9270   40.5560 C   0  0  0  0  0  0  0  0  0  0  0  0
   47.5040   33.9890   39.7630 N   0  0  0  0  0  0  0  0  0  0  0  0
   48.0810   34.1070   38.5530 C   0  0  0  0  0  0  0  0  0  0  0  0
   48.8960   33.1500   38.0740 N   0  0  0  0  0  0  0  0  0  0  0  0
   49.7550   31.2380   38.5560 H   0  0  0  0  0  0  0  0  0  0  0  0
   48.6970   31.0820   40.7090 H   0  0  0  0  0  0  0  0  0  0  0  0
   47.8570   35.0040   37.9920 H   0  0  0  0  0  0  0  0  0  0  0  0
   46.5510   33.3560   45.4420 O   0  0  0  0  0  0  0  0  0  0  0  0
   45.4070   31.1280   44.5510 O   0  0  0  0  0  0  0  0  0  0  0  0
   46.2490   31.7190   45.6850 P   0  0  2  0  0  0  0  0  0  0  0  0
   45.2330   31.6240   47.0620 O   0  0  0  0  0  0  0  0  0  0  0  0
   45.7780   31.5940   47.8880 H   0  0  0  0  0  0  0  0  0  0  0  0
   47.6330   30.8600   45.9940 O   0  0  0  0  0  0  0  0  0  0  0  0
   47.7350   29.6500   45.3680 C   0  0  0  0  0  2  0  0  0  0  0  0
   47.9070   29.8970   43.9460 N   0  0  0  0  0  4  0  0  0  0  0  0
   47.3310   30.7330   43.7010 H   0  0  0  0  0  0  0  0  0  0  0  0
   49.2960   30.2100   43.6610 C   0  0  0  0  0  2  0  0  0  0  0  0
   49.9770   29.6080   44.2980 H   0  0  0  0  0  0  0  0  0  0  0  0
   47.5150   28.7640   43.1350 C   0  0  0  0  0  2  0  0  0  0  0  0
   47.8210   27.8060   43.5480 H   0  0  0  0  0  0  0  0  0  0  0  0
  1  6  1  0  0  0  0
  2  3  1  0  0  0  0
  2  8  1  0  0  0  0
  2  1  1  0  0  0  0
  3  4  1  0  0  0  0
  4 12  1  0  0  0  0
  4  5  1  0  0  0  0
  5 13  1  0  0  0  0
  5 14  1  0  0  0  0
  6 15  1  6  0  0  0
  6  5  1  0  0  0  0
  6 31  1  0  0  0  0
  7  2  1  0  0  0  0
  9  3  1  0  0  0  0
 10  3  1  0  0  0  0
 11  4  1  0  0  0  0
 16  1  1  0  0  0  0
 16 17  1  0  0  0  0
 18 16  1  0  0  0  0
 19 21  1  0  0  0  0
 19 16  1  0  0  0  0
 20 19  1  0  0  0  0
 22 23  1  0  0  0  0
 23 24  2  0  0  0  0
 23 29  1  0  0  0  0
 24 19  1  0  0  0  0
 25 24  1  0  0  0  0
 26 25  2  0  0  0  0
 27 26  1  0  0  0  0
 27 22  2  0  0  0  0
 28 22  1  0  0  0  0
 30 26  1  0  0  0  0
 31 33  1  0  0  0  0
 33 32  2  6  0  0  0
 33 36  1  0  0  0  0
 33 34  1  0  0  0  0
 34 35  1  0  0  0  0
 37 36  1  0  0  0  0
 38 37  1  0  0  0  0
 39 38  1  0  0  0  0
 40 38  1  0  0  0  0
 40 41  1  0  0  0  0
 42 43  1  0  0  0  0
 42 38  1  0  0  0  0
M  END
>  <minimizedAffinity>
-3.67722559

>  <minimizedRMSD>
0.94279319

$$$$
