
 OpenBabel03242522443D

 45 47  0  0  0  0  0  0  0  0999 V2000
   37.0390   27.3840   42.7620 C   0  0  0  0  0  0  0  0  0  0  0  0
   37.1790   28.2950   42.1270 H   0  0  0  0  0  0  0  0  0  0  0  0
   36.1510   27.3630   43.3810 H   0  0  0  0  0  0  0  0  0  0  0  0
   36.6770   26.6890   40.4650 C   0  0  0  0  0  0  0  0  0  0  0  0
   36.9160   26.3110   41.7600 C   0  0  0  0  0  0  0  0  0  0  0  0
   37.0650   25.0490   42.1900 C   0  0  0  0  0  0  0  0  0  0  0  0
   36.9730   24.0390   41.2700 C   0  0  0  0  0  0  0  0  0  0  0  0
   36.7420   24.2940   39.9500 C   0  0  0  0  0  0  0  0  0  0  0  0
   36.5980   25.6220   39.5760 C   0  0  0  0  0  0  0  0  0  0  0  0
   37.2680   24.6500   43.1440 H   0  0  0  0  0  0  0  0  0  0  0  0
   37.0700   22.9710   41.4720 H   0  0  0  0  0  0  0  0  0  0  0  0
   36.6600   23.5250   39.1660 H   0  0  0  0  0  0  0  0  0  0  0  0
   36.4130   25.8140   38.5060 H   0  0  0  0  0  0  0  0  0  0  0  0
   36.3790   28.2470   39.8450 S   0  0  0  0  0  0  0  0  0  0  0  0
   35.2450   28.9580   40.5410 O   0  0  0  0  0  0  0  0  0  0  0  0
   35.8580   28.0690   38.4010 O   0  0  0  0  0  0  0  0  0  0  0  0
   37.6020   29.4230   39.6420 C   0  0  0  0  0  2  0  0  0  0  0  0
   36.9450   30.6730   39.1730 N   0  0  0  0  0  4  0  0  0  0  0  0
   35.9150   30.3910   39.1520 H   0  0  0  0  0  0  0  0  0  0  0  0
   37.0350   31.7330   40.1210 C   0  0  0  0  0  2  0  0  0  0  0  0
   37.1000   31.3010   41.1400 H   0  0  0  0  0  0  0  0  0  0  0  0
   37.2820   31.0030   37.8290 C   0  0  0  0  0  2  0  0  0  0  0  0
   36.3680   31.3600   37.2650 H   0  0  0  0  0  0  0  0  0  0  0  0
   38.2980   27.4130   43.5680 C   0  0  0  0  0  0  0  0  0  0  0  0
   38.1350   27.5530   44.6590 H   0  0  0  0  0  0  0  0  0  0  0  0
   38.8730   26.4590   43.5830 H   0  0  0  0  0  0  0  0  0  0  0  0
   38.8380   29.7450   42.9590 C   0  0  0  0  0  0  0  0  0  0  0  0
   39.2040   28.3840   42.9740 C   0  0  0  0  0  0  0  0  0  0  0  0
   40.4310   28.0540   42.4270 C   0  0  0  0  0  0  0  0  0  0  0  0
   41.2140   29.0260   41.9110 N   0  0  0  0  0  0  0  0  0  0  0  0
   40.8300   30.3040   41.9190 C   0  0  0  0  0  0  0  0  0  0  0  0
   39.6430   30.6950   42.4370 N   0  0  0  0  0  0  0  0  0  0  0  0
   37.9480   30.2290   43.3160 H   0  0  0  0  0  0  0  0  0  0  0  0
   40.7130   27.0090   42.4360 H   0  0  0  0  0  0  0  0  0  0  0  0
   41.7650   31.3360   41.3420 C   0  0  0  0  0  0  0  0  0  0  0  0
   42.1810   31.8990   42.2110 H   0  0  0  0  0  0  0  0  0  0  0  0
   42.6130   30.8200   40.8670 H   0  0  0  0  0  0  0  0  0  0  0  0
   41.1190   32.2560   40.4220 C   0  0  0  0  0  0  0  0  0  0  0  0
   40.9280   33.6110   40.6500 C   0  0  0  0  0  0  0  0  0  0  0  0
   40.2840   34.1490   39.5590 C   0  0  0  0  0  0  0  0  0  0  0  0
   40.1080   33.0950   38.7050 N   0  0  0  0  0  0  0  0  0  0  0  0
   40.6050   31.9620   39.2140 N   0  0  0  0  0  0  0  0  0  0  0  0
   41.2170   34.1950   41.5230 H   0  0  0  0  0  0  0  0  0  0  0  0
   39.9570   35.1530   39.3440 H   0  0  0  0  0  0  0  0  0  0  0  0
   39.6300   33.2010   37.7610 H   0  0  0  0  0  0  0  0  0  0  0  0
  1  3  1  0  0  0  0
  1 24  1  0  0  0  0
  2  1  1  0  0  0  0
  4  5  1  0  0  0  0
  5  6  2  0  0  0  0
  5  1  1  0  0  0  0
  6 10  1  0  0  0  0
  7 11  1  0  0  0  0
  7  6  1  0  0  0  0
  8  7  2  0  0  0  0
  9  8  1  0  0  0  0
  9  4  2  0  0  0  0
 12  8  1  0  0  0  0
 13  9  1  0  0  0  0
 14  4  1  0  0  0  0
 14 15  2  0  0  0  0
 16 14  2  0  0  0  0
 17 14  1  0  0  0  0
 18 17  1  0  0  0  0
 18 20  1  0  0  0  0
 19 18  1  0  0  0  0
 20 21  1  0  0  0  0
 22 18  1  0  0  0  0
 23 22  1  0  0  0  0
 24 26  1  0  0  0  0
 24 25  1  0  0  0  0
 27 28  1  0  0  0  0
 27 33  1  0  0  0  0
 28 24  1  0  0  0  0
 29 34  1  0  0  0  0
 29 28  2  0  0  0  0
 30 31  2  0  0  0  0
 30 29  1  0  0  0  0
 31 32  1  0  0  0  0
 32 27  2  0  0  0  0
 35 31  1  0  0  0  0
 35 36  1  0  0  0  0
 37 35  1  0  0  0  0
 38 39  1  0  0  0  0
 38 35  1  0  0  0  0
 39 43  1  0  0  0  0
 40 39  2  0  0  0  0
 41 42  1  0  0  0  0
 41 40  1  0  0  0  0
 42 38  2  0  0  0  0
 44 40  1  0  0  0  0
 45 41  1  0  0  0  0
M  END
>  <minimizedAffinity>
-5.40388584

$$$$

 OpenBabel03242522443D

 45 47  0  0  0  0  0  0  0  0999 V2000
   36.6370   27.1680   38.9350 C   0  0  0  0  0  0  0  0  0  0  0  0
   37.0700   27.4310   39.9330 H   0  0  0  0  0  0  0  0  0  0  0  0
   37.3070   27.2410   38.0880 H   0  0  0  0  0  0  0  0  0  0  0  0
   36.7270   25.1220   40.2380 C   0  0  0  0  0  0  0  0  0  0  0  0
   36.2780   25.7490   39.1070 C   0  0  0  0  0  0  0  0  0  0  0  0
   35.5250   25.1860   38.1490 C   0  0  0  0  0  0  0  0  0  0  0  0
   35.1660   23.8740   38.3000 C   0  0  0  0  0  0  0  0  0  0  0  0
   35.5510   23.1480   39.3890 C   0  0  0  0  0  0  0  0  0  0  0  0
   36.3270   23.7940   40.3390 C   0  0  0  0  0  0  0  0  0  0  0  0
   35.1130   25.5730   37.2590 H   0  0  0  0  0  0  0  0  0  0  0  0
   34.5620   23.2860   37.6060 H   0  0  0  0  0  0  0  0  0  0  0  0
   35.2910   22.0920   39.5650 H   0  0  0  0  0  0  0  0  0  0  0  0
   36.6300   23.1960   41.2150 H   0  0  0  0  0  0  0  0  0  0  0  0
   37.7600   25.7220   41.4530 S   0  0  0  0  0  0  0  0  0  0  0  0
   38.0860   24.6990   42.5130 O   0  0  0  0  0  0  0  0  0  0  0  0
   36.9710   26.8010   42.2280 O   0  0  0  0  0  0  0  0  0  0  0  0
   39.2310   26.5230   41.1200 C   0  0  0  0  0  2  0  0  0  0  0  0
   39.2340   27.7930   41.8940 N   0  0  0  0  0  4  0  0  0  0  0  0
   38.2390   27.8210   42.2830 H   0  0  0  0  0  0  0  0  0  0  0  0
   40.0890   27.7440   43.0330 C   0  0  0  0  0  2  0  0  0  0  0  0
   40.1630   26.6950   43.3830 H   0  0  0  0  0  0  0  0  0  0  0  0
   39.3560   28.9460   41.0670 C   0  0  0  0  0  2  0  0  0  0  0  0
   38.6590   29.7650   41.4180 H   0  0  0  0  0  0  0  0  0  0  0  0
   35.5070   28.1440   38.8580 C   0  0  0  0  0  0  0  0  0  0  0  0
   34.8880   28.0500   37.9390 H   0  0  0  0  0  0  0  0  0  0  0  0
   34.7170   28.0180   39.6330 H   0  0  0  0  0  0  0  0  0  0  0  0
   35.8840   30.0760   40.3510 C   0  0  0  0  0  0  0  0  0  0  0  0
   36.0360   29.4810   39.0820 C   0  0  0  0  0  0  0  0  0  0  0  0
   36.7050   30.2140   38.1180 C   0  0  0  0  0  0  0  0  0  0  0  0
   37.1760   31.4430   38.4220 N   0  0  0  0  0  0  0  0  0  0  0  0
   37.0120   31.9670   39.6370 C   0  0  0  0  0  0  0  0  0  0  0  0
   36.3680   31.3070   40.6260 N   0  0  0  0  0  0  0  0  0  0  0  0
   35.4060   29.7050   41.2390 H   0  0  0  0  0  0  0  0  0  0  0  0
   36.8210   29.7600   37.1420 H   0  0  0  0  0  0  0  0  0  0  0  0
   37.5810   33.3370   39.9090 C   0  0  0  0  0  0  0  0  0  0  0  0
   37.4780   33.9110   38.9580 H   0  0  0  0  0  0  0  0  0  0  0  0
   36.9460   33.8440   40.6520 H   0  0  0  0  0  0  0  0  0  0  0  0
   38.9730   33.3170   40.3240 C   0  0  0  0  0  0  0  0  0  0  0  0
   39.9620   34.1610   39.8420 C   0  0  0  0  0  0  0  0  0  0  0  0
   41.1470   33.8430   40.4660 C   0  0  0  0  0  0  0  0  0  0  0  0
   40.8300   32.8130   41.3090 N   0  0  0  0  0  0  0  0  0  0  0  0
   39.5340   32.4940   41.2290 N   0  0  0  0  0  0  0  0  0  0  0  0
   39.8710   34.9510   39.0990 H   0  0  0  0  0  0  0  0  0  0  0  0
   42.1390   34.2550   40.3730 H   0  0  0  0  0  0  0  0  0  0  0  0
   41.5530   32.3470   41.9350 H   0  0  0  0  0  0  0  0  0  0  0  0
  1  5  1  0  0  0  0
  1  2  1  0  0  0  0
  3  1  1  0  0  0  0
  4  9  1  0  0  0  0
  4 14  1  0  0  0  0
  5  4  2  0  0  0  0
  6  7  2  0  0  0  0
  6  5  1  0  0  0  0
  7  8  1  0  0  0  0
  8 12  1  0  0  0  0
  8  9  2  0  0  0  0
  9 13  1  0  0  0  0
 10  6  1  0  0  0  0
 11  7  1  0  0  0  0
 14 16  2  0  0  0  0
 14 15  2  0  0  0  0
 17 14  1  0  0  0  0
 17 18  1  0  0  0  0
 18 19  1  0  0  0  0
 18 20  1  0  0  0  0
 20 21  1  0  0  0  0
 22 23  1  0  0  0  0
 22 18  1  0  0  0  0
 24  1  1  0  0  0  0
 24 28  1  0  0  0  0
 24 26  1  0  0  0  0
 25 24  1  0  0  0  0
 27 32  1  0  0  0  0
 27 33  1  0  0  0  0
 28 27  2  0  0  0  0
 29 30  2  0  0  0  0
 29 28  1  0  0  0  0
 30 31  1  0  0  0  0
 31 35  1  0  0  0  0
 31 32  2  0  0  0  0
 34 29  1  0  0  0  0
 35 38  1  0  0  0  0
 35 37  1  0  0  0  0
 36 35  1  0  0  0  0
 38 42  2  0  0  0  0
 39 38  1  0  0  0  0
 39 40  2  0  0  0  0
 40 41  1  0  0  0  0
 41 45  1  0  0  0  0
 42 41  1  0  0  0  0
 43 39  1  0  0  0  0
 44 40  1  0  0  0  0
M  END
>  <minimizedAffinity>
-5.37247181

$$$$

 OpenBabel03242522443D

 45 47  0  0  0  0  0  0  0  0999 V2000
   36.2760   26.9640   38.7180 C   0  0  0  0  0  0  0  0  0  0  0  0
   35.6040   27.7740   39.1000 H   0  0  0  0  0  0  0  0  0  0  0  0
   37.2050   27.2870   38.2650 H   0  0  0  0  0  0  0  0  0  0  0  0
   36.8660   26.9520   41.0720 C   0  0  0  0  0  0  0  0  0  0  0  0
   36.6080   26.2190   39.9460 C   0  0  0  0  0  0  0  0  0  0  0  0
   36.6130   24.8790   39.8670 C   0  0  0  0  0  0  0  0  0  0  0  0
   36.9000   24.1680   41.0020 C   0  0  0  0  0  0  0  0  0  0  0  0
   37.1700   24.7900   42.1860 C   0  0  0  0  0  0  0  0  0  0  0  0
   37.1460   26.1770   42.1930 C   0  0  0  0  0  0  0  0  0  0  0  0
   36.4130   24.2200   39.0700 H   0  0  0  0  0  0  0  0  0  0  0  0
   36.9440   23.0810   41.0890 H   0  0  0  0  0  0  0  0  0  0  0  0
   37.4050   24.2730   43.1290 H   0  0  0  0  0  0  0  0  0  0  0  0
   37.3650   26.6670   43.1570 H   0  0  0  0  0  0  0  0  0  0  0  0
   36.9770   28.6430   41.2450 S   0  0  0  0  0  0  0  0  0  0  0  0
   37.3310   29.0760   42.6460 O   0  0  0  0  0  0  0  0  0  0  0  0
   35.5550   29.2140   41.0420 O   0  0  0  0  0  0  0  0  0  0  0  0
   37.9110   29.6300   40.2100 C   0  0  0  0  0  2  0  0  0  0  0  0
   37.0450   30.7550   39.7650 N   0  0  0  0  0  4  0  0  0  0  0  0
   36.0820   30.4480   40.1120 H   0  0  0  0  0  0  0  0  0  0  0  0
   37.3290   31.9740   40.4470 C   0  0  0  0  0  2  0  0  0  0  0  0
   37.7310   31.7390   41.4530 H   0  0  0  0  0  0  0  0  0  0  0  0
   36.9350   30.8410   38.3470 C   0  0  0  0  0  2  0  0  0  0  0  0
   35.8680   31.0650   38.0430 H   0  0  0  0  0  0  0  0  0  0  0  0
   35.3680   26.2870   37.7420 C   0  0  0  0  0  0  0  0  0  0  0  0
   35.8970   25.7900   36.9000 H   0  0  0  0  0  0  0  0  0  0  0  0
   34.7990   25.4190   38.1480 H   0  0  0  0  0  0  0  0  0  0  0  0
   33.5060   26.9100   36.2430 C   0  0  0  0  0  0  0  0  0  0  0  0
   34.3480   27.2370   37.3250 C   0  0  0  0  0  0  0  0  0  0  0  0
   34.1370   28.4570   37.9430 C   0  0  0  0  0  0  0  0  0  0  0  0
   33.1540   29.2690   37.4960 N   0  0  0  0  0  0  0  0  0  0  0  0
   32.3780   28.9190   36.4690 C   0  0  0  0  0  0  0  0  0  0  0  0
   32.5310   27.7430   35.8190 N   0  0  0  0  0  0  0  0  0  0  0  0
   33.4860   26.0360   35.6190 H   0  0  0  0  0  0  0  0  0  0  0  0
   34.7830   28.7110   38.7730 H   0  0  0  0  0  0  0  0  0  0  0  0
   31.2900   29.8690   36.0370 C   0  0  0  0  0  0  0  0  0  0  0  0
   31.8010   30.8210   35.7580 H   0  0  0  0  0  0  0  0  0  0  0  0
   30.8240   29.4810   35.1180 H   0  0  0  0  0  0  0  0  0  0  0  0
   30.2990   30.1250   37.0680 C   0  0  0  0  0  0  0  0  0  0  0  0
   30.0950   31.3460   37.6940 C   0  0  0  0  0  0  0  0  0  0  0  0
   29.0780   31.2000   38.6090 C   0  0  0  0  0  0  0  0  0  0  0  0
   28.6990   29.8900   38.5030 N   0  0  0  0  0  0  0  0  0  0  0  0
   29.4240   29.2420   37.5840 N   0  0  0  0  0  0  0  0  0  0  0  0
   30.6220   32.2850   37.5290 H   0  0  0  0  0  0  0  0  0  0  0  0
   28.6220   31.9000   39.2920 H   0  0  0  0  0  0  0  0  0  0  0  0
   27.9210   29.4730   39.0950 H   0  0  0  0  0  0  0  0  0  0  0  0
  1  2  1  0  0  0  0
  1  5  1  0  0  0  0
  3  1  1  0  0  0  0
  4 14  1  0  0  0  0
  4  9  1  0  0  0  0
  5  4  2  0  0  0  0
  6  5  1  0  0  0  0
  6  7  2  0  0  0  0
  7 11  1  0  0  0  0
  7  8  1  0  0  0  0
  8  9  2  0  0  0  0
  8 12  1  0  0  0  0
  9 13  1  0  0  0  0
 10  6  1  0  0  0  0
 14 15  2  0  0  0  0
 16 14  2  0  0  0  0
 17 14  1  0  0  0  0
 18 19  1  0  0  0  0
 18 17  1  0  0  0  0
 18 20  1  0  0  0  0
 20 21  1  0  0  0  0
 22 18  1  0  0  0  0
 23 22  1  0  0  0  0
 24 26  1  0  0  0  0
 24  1  1  0  0  0  0
 25 24  1  0  0  0  0
 27 28  1  0  0  0  0
 28 24  1  0  0  0  0
 28 29  2  0  0  0  0
 29 34  1  0  0  0  0
 30 29  1  0  0  0  0
 31 30  2  0  0  0  0
 32 27  2  0  0  0  0
 32 31  1  0  0  0  0
 33 27  1  0  0  0  0
 35 31  1  0  0  0  0
 35 38  1  0  0  0  0
 36 35  1  0  0  0  0
 37 35  1  0  0  0  0
 38 42  2  0  0  0  0
 38 39  1  0  0  0  0
 39 40  2  0  0  0  0
 40 44  1  0  0  0  0
 41 40  1  0  0  0  0
 41 45  1  0  0  0  0
 42 41  1  0  0  0  0
 43 39  1  0  0  0  0
M  END
>  <minimizedAffinity>
-5.36856222

$$$$

 OpenBabel03242522443D

 45 47  0  0  0  0  0  0  0  0999 V2000
   36.6190   28.1530   42.0750 C   0  0  0  0  0  0  0  0  0  0  0  0
   36.7160   28.7730   41.1480 H   0  0  0  0  0  0  0  0  0  0  0  0
   35.6650   28.1970   42.5840 H   0  0  0  0  0  0  0  0  0  0  0  0
   36.6790   26.6000   40.2110 C   0  0  0  0  0  0  0  0  0  0  0  0
   36.7950   26.7830   41.5630 C   0  0  0  0  0  0  0  0  0  0  0  0
   37.0730   25.8240   42.4600 C   0  0  0  0  0  0  0  0  0  0  0  0
   37.2590   24.5470   42.0000 C   0  0  0  0  0  0  0  0  0  0  0  0
   37.1720   24.2450   40.6730 C   0  0  0  0  0  0  0  0  0  0  0  0
   36.8820   25.2860   39.8040 C   0  0  0  0  0  0  0  0  0  0  0  0
   37.2030   25.8540   43.5050 H   0  0  0  0  0  0  0  0  0  0  0  0
   37.4860   23.6690   42.6080 H   0  0  0  0  0  0  0  0  0  0  0  0
   37.3130   23.2400   40.2460 H   0  0  0  0  0  0  0  0  0  0  0  0
   36.8160   25.0280   38.7330 H   0  0  0  0  0  0  0  0  0  0  0  0
   36.2380   27.7300   39.0140 S   0  0  0  0  0  0  0  0  0  0  0  0
   35.0950   28.6220   39.4320 O   0  0  0  0  0  0  0  0  0  0  0  0
   35.6530   26.9300   37.8280 O   0  0  0  0  0  0  0  0  0  0  0  0
   37.3600   28.7560   38.2370 C   0  0  0  0  0  2  0  0  0  0  0  0
   38.6780   28.0650   38.2470 N   0  0  0  0  0  4  0  0  0  0  0  0
   38.4810   27.2150   38.8640 H   0  0  0  0  0  0  0  0  0  0  0  0
   39.0360   27.5390   36.9710 C   0  0  0  0  0  2  0  0  0  0  0  0
   38.1120   27.3050   36.4060 H   0  0  0  0  0  0  0  0  0  0  0  0
   39.6870   28.8080   38.9250 C   0  0  0  0  0  2  0  0  0  0  0  0
   40.3190   28.1250   39.5690 H   0  0  0  0  0  0  0  0  0  0  0  0
   37.7340   28.7130   42.8990 C   0  0  0  0  0  0  0  0  0  0  0  0
   37.4620   28.9040   43.9600 H   0  0  0  0  0  0  0  0  0  0  0  0
   38.6040   28.0330   43.0460 H   0  0  0  0  0  0  0  0  0  0  0  0
   37.4510   30.6100   41.3410 C   0  0  0  0  0  0  0  0  0  0  0  0
   38.2810   29.8720   42.2090 C   0  0  0  0  0  0  0  0  0  0  0  0
   39.5830   30.3140   42.3640 C   0  0  0  0  0  0  0  0  0  0  0  0
   39.9990   31.4100   41.6940 N   0  0  0  0  0  0  0  0  0  0  0  0
   39.1790   32.0800   40.8830 C   0  0  0  0  0  0  0  0  0  0  0  0
   37.8950   31.7030   40.6850 N   0  0  0  0  0  0  0  0  0  0  0  0
   36.4240   30.4560   41.0660 H   0  0  0  0  0  0  0  0  0  0  0  0
   40.2230   29.7480   43.0290 H   0  0  0  0  0  0  0  0  0  0  0  0
   39.7080   33.3060   40.1820 C   0  0  0  0  0  0  0  0  0  0  0  0
   38.8290   33.9720   40.0140 H   0  0  0  0  0  0  0  0  0  0  0  0
   40.3820   33.8430   40.8670 H   0  0  0  0  0  0  0  0  0  0  0  0
   40.3590   33.0170   38.9160 C   0  0  0  0  0  0  0  0  0  0  0  0
   41.6140   33.4730   38.5410 C   0  0  0  0  0  0  0  0  0  0  0  0
   41.8890   32.9980   37.2790 C   0  0  0  0  0  0  0  0  0  0  0  0
   40.7860   32.2670   36.9340 N   0  0  0  0  0  0  0  0  0  0  0  0
   39.8680   32.2750   37.9070 N   0  0  0  0  0  0  0  0  0  0  0  0
   42.3010   34.0990   39.1080 H   0  0  0  0  0  0  0  0  0  0  0  0
   42.7480   33.1220   36.6380 H   0  0  0  0  0  0  0  0  0  0  0  0
   40.7030   31.7690   35.9980 H   0  0  0  0  0  0  0  0  0  0  0  0
  1  3  1  0  0  0  0
  1 24  1  0  0  0  0
  2  1  1  0  0  0  0
  4  5  1  0  0  0  0
  5  1  1  0  0  0  0
  5  6  2  0  0  0  0
  6 10  1  0  0  0  0
  7  6  1  0  0  0  0
  7 11  1  0  0  0  0
  8  7  2  0  0  0  0
  9  4  2  0  0  0  0
  9  8  1  0  0  0  0
 12  8  1  0  0  0  0
 13  9  1  0  0  0  0
 14 15  2  0  0  0  0
 14  4  1  0  0  0  0
 16 14  2  0  0  0  0
 17 18  1  0  0  0  0
 17 14  1  0  0  0  0
 18 19  1  0  0  0  0
 18 22  1  0  0  0  0
 20 18  1  0  0  0  0
 21 20  1  0  0  0  0
 22 23  1  0  0  0  0
 24 26  1  0  0  0  0
 24 25  1  0  0  0  0
 27 28  1  0  0  0  0
 28 29  2  0  0  0  0
 28 24  1  0  0  0  0
 29 34  1  0  0  0  0
 30 29  1  0  0  0  0
 31 30  2  0  0  0  0
 32 31  1  0  0  0  0
 32 27  2  0  0  0  0
 33 27  1  0  0  0  0
 35 37  1  0  0  0  0
 35 31  1  0  0  0  0
 36 35  1  0  0  0  0
 38 35  1  0  0  0  0
 39 38  1  0  0  0  0
 39 43  1  0  0  0  0
 40 39  2  0  0  0  0
 41 40  1  0  0  0  0
 41 42  1  0  0  0  0
 42 38  2  0  0  0  0
 44 40  1  0  0  0  0
 45 41  1  0  0  0  0
M  END
>  <minimizedAffinity>
-5.30039644

$$$$

 OpenBabel03242522443D

 45 47  0  0  0  0  0  0  0  0999 V2000
   37.1330   29.0850   38.0650 C   0  0  0  0  0  0  0  0  0  0  0  0
   38.1990   28.7510   37.9900 H   0  0  0  0  0  0  0  0  0  0  0  0
   36.4750   28.4600   38.6560 H   0  0  0  0  0  0  0  0  0  0  0  0
   37.2770   30.3750   40.1160 C   0  0  0  0  0  0  0  0  0  0  0  0
   37.2540   30.3860   38.7470 C   0  0  0  0  0  0  0  0  0  0  0  0
   37.3480   31.4780   37.9720 C   0  0  0  0  0  0  0  0  0  0  0  0
   37.4790   32.6940   38.5880 C   0  0  0  0  0  0  0  0  0  0  0  0
   37.5190   32.8080   39.9460 C   0  0  0  0  0  0  0  0  0  0  0  0
   37.4170   31.6370   40.6830 C   0  0  0  0  0  0  0  0  0  0  0  0
   37.3610   31.6000   36.9260 H   0  0  0  0  0  0  0  0  0  0  0  0
   37.5640   33.6630   38.0910 H   0  0  0  0  0  0  0  0  0  0  0  0
   37.6250   33.7560   40.4950 H   0  0  0  0  0  0  0  0  0  0  0  0
   37.4520   31.7440   41.7810 H   0  0  0  0  0  0  0  0  0  0  0  0
   37.0680   29.0600   41.1780 S   0  0  0  0  0  0  0  0  0  0  0  0
   35.6450   28.5610   41.2340 O   0  0  0  0  0  0  0  0  0  0  0  0
   37.3200   29.5860   42.6090 O   0  0  0  0  0  0  0  0  0  0  0  0
   38.0430   27.6580   41.1340 C   0  0  0  0  0  2  0  0  0  0  0  0
   37.1330   26.4830   41.0660 N   0  0  0  0  0  4  0  0  0  0  0  0
   36.1700   26.9440   41.0990 H   0  0  0  0  0  0  0  0  0  0  0  0
   37.1950   25.8100   39.8110 C   0  0  0  0  0  2  0  0  0  0  0  0
   37.4810   26.5370   39.0250 H   0  0  0  0  0  0  0  0  0  0  0  0
   37.2060   25.6580   42.2250 C   0  0  0  0  0  2  0  0  0  0  0  0
   36.1720   25.3250   42.5420 H   0  0  0  0  0  0  0  0  0  0  0  0
   36.7500   29.1140   36.6200 C   0  0  0  0  0  0  0  0  0  0  0  0
   37.2200   29.9380   36.0420 H   0  0  0  0  0  0  0  0  0  0  0  0
   37.0950   28.2410   36.0210 H   0  0  0  0  0  0  0  0  0  0  0  0
   34.5390   28.9140   37.7040 C   0  0  0  0  0  0  0  0  0  0  0  0
   35.2980   29.0770   36.5270 C   0  0  0  0  0  0  0  0  0  0  0  0
   34.6010   29.2080   35.3400 C   0  0  0  0  0  0  0  0  0  0  0  0
   33.2510   29.1780   35.3520 N   0  0  0  0  0  0  0  0  0  0  0  0
   32.5710   29.0240   36.4900 C   0  0  0  0  0  0  0  0  0  0  0  0
   33.1890   28.8890   37.6850 N   0  0  0  0  0  0  0  0  0  0  0  0
   34.8550   28.7910   38.7230 H   0  0  0  0  0  0  0  0  0  0  0  0
   35.1820   29.3320   34.4350 H   0  0  0  0  0  0  0  0  0  0  0  0
   31.0640   29.0180   36.4280 C   0  0  0  0  0  0  0  0  0  0  0  0
   30.7970   29.1750   35.3560 H   0  0  0  0  0  0  0  0  0  0  0  0
   30.7020   28.0140   36.6980 H   0  0  0  0  0  0  0  0  0  0  0  0
   30.4440   30.0440   37.2470 C   0  0  0  0  0  0  0  0  0  0  0  0
   30.3430   31.3850   36.9060 C   0  0  0  0  0  0  0  0  0  0  0  0
   29.6980   32.0450   37.9270 C   0  0  0  0  0  0  0  0  0  0  0  0
   29.4290   31.0750   38.8530 N   0  0  0  0  0  0  0  0  0  0  0  0
   29.8720   29.8780   38.4540 N   0  0  0  0  0  0  0  0  0  0  0  0
   30.6970   31.8800   36.0030 H   0  0  0  0  0  0  0  0  0  0  0  0
   29.4270   33.0820   38.0510 H   0  0  0  0  0  0  0  0  0  0  0  0
   28.9280   31.2850   39.7680 H   0  0  0  0  0  0  0  0  0  0  0  0
  1  3  1  0  0  0  0
  1  5  1  0  0  0  0
  2  1  1  0  0  0  0
  4  9  1  0  0  0  0
  4 14  1  0  0  0  0
  5  4  2  0  0  0  0
  6  7  2  0  0  0  0
  6  5  1  0  0  0  0
  7  8  1  0  0  0  0
  8 12  1  0  0  0  0
  8  9  2  0  0  0  0
  9 13  1  0  0  0  0
 10  6  1  0  0  0  0
 11  7  1  0  0  0  0
 14 15  2  0  0  0  0
 14 16  2  0  0  0  0
 17 14  1  0  0  0  0
 18 19  1  0  0  0  0
 18 17  1  0  0  0  0
 18 22  1  0  0  0  0
 20 18  1  0  0  0  0
 21 20  1  0  0  0  0
 22 23  1  0  0  0  0
 24  1  1  0  0  0  0
 25 24  1  0  0  0  0
 26 24  1  0  0  0  0
 27 33  1  0  0  0  0
 28 24  1  0  0  0  0
 28 27  2  0  0  0  0
 29 30  2  0  0  0  0
 29 28  1  0  0  0  0
 30 31  1  0  0  0  0
 31 32  2  0  0  0  0
 32 27  1  0  0  0  0
 34 29  1  0  0  0  0
 35 31  1  0  0  0  0
 35 37  1  0  0  0  0
 35 38  1  0  0  0  0
 36 35  1  0  0  0  0
 38 42  2  0  0  0  0
 39 38  1  0  0  0  0
 39 40  2  0  0  0  0
 40 44  1  0  0  0  0
 40 41  1  0  0  0  0
 41 45  1  0  0  0  0
 42 41  1  0  0  0  0
 43 39  1  0  0  0  0
M  END
>  <minimizedAffinity>
-5.29788923

$$$$

 OpenBabel03242522443D

 45 47  0  0  0  0  0  0  0  0999 V2000
   37.4260   27.5170   42.6290 C   0  0  0  0  0  0  0  0  0  0  0  0
   37.3450   28.4080   41.9560 H   0  0  0  0  0  0  0  0  0  0  0  0
   36.7030   27.4560   43.4320 H   0  0  0  0  0  0  0  0  0  0  0  0
   36.6870   26.7050   40.4650 C   0  0  0  0  0  0  0  0  0  0  0  0
   37.1740   26.3960   41.7070 C   0  0  0  0  0  0  0  0  0  0  0  0
   37.4550   25.1610   42.1510 C   0  0  0  0  0  0  0  0  0  0  0  0
   37.2450   24.1080   41.3020 C   0  0  0  0  0  0  0  0  0  0  0  0
   36.7670   24.2930   40.0370 C   0  0  0  0  0  0  0  0  0  0  0  0
   36.4990   25.5960   39.6460 C   0  0  0  0  0  0  0  0  0  0  0  0
   37.8460   24.8140   43.0660 H   0  0  0  0  0  0  0  0  0  0  0  0
   37.4250   23.0540   41.5230 H   0  0  0  0  0  0  0  0  0  0  0  0
   36.5810   23.4870   39.3110 H   0  0  0  0  0  0  0  0  0  0  0  0
   36.1140   25.7310   38.6210 H   0  0  0  0  0  0  0  0  0  0  0  0
   36.2120   28.2200   39.8500 S   0  0  0  0  0  0  0  0  0  0  0  0
   35.1230   28.8770   40.6630 O   0  0  0  0  0  0  0  0  0  0  0  0
   35.5350   27.9650   38.4850 O   0  0  0  0  0  0  0  0  0  0  0  0
   37.3180   29.4670   39.4740 C   0  0  0  0  0  2  0  0  0  0  0  0
   37.6860   29.3200   38.0400 N   0  0  0  0  0  4  0  0  0  0  0  0
   37.0890   28.4860   37.7400 H   0  0  0  0  0  0  0  0  0  0  0  0
   37.2450   30.4150   37.2420 C   0  0  0  0  0  2  0  0  0  0  0  0
   36.3400   30.8570   37.7050 H   0  0  0  0  0  0  0  0  0  0  0  0
   39.0380   28.9120   37.8550 C   0  0  0  0  0  2  0  0  0  0  0  0
   39.1100   28.1310   37.0390 H   0  0  0  0  0  0  0  0  0  0  0  0
   38.8260   27.6760   43.1310 C   0  0  0  0  0  0  0  0  0  0  0  0
   38.9170   27.6480   44.2380 H   0  0  0  0  0  0  0  0  0  0  0  0
   39.5220   26.8480   42.8620 H   0  0  0  0  0  0  0  0  0  0  0  0
   40.4000   28.7070   41.5290 C   0  0  0  0  0  0  0  0  0  0  0  0
   39.4050   28.8610   42.5160 C   0  0  0  0  0  0  0  0  0  0  0  0
   39.0240   30.1530   42.8320 C   0  0  0  0  0  0  0  0  0  0  0  0
   39.6060   31.1940   42.1980 N   0  0  0  0  0  0  0  0  0  0  0  0
   40.5440   31.0030   41.2680 C   0  0  0  0  0  0  0  0  0  0  0  0
   40.9630   29.7670   40.9120 N   0  0  0  0  0  0  0  0  0  0  0  0
   40.8500   27.8170   41.1300 H   0  0  0  0  0  0  0  0  0  0  0  0
   38.2610   30.2740   43.5910 H   0  0  0  0  0  0  0  0  0  0  0  0
   41.1360   32.2120   40.5890 C   0  0  0  0  0  0  0  0  0  0  0  0
   40.5860   33.0950   40.9930 H   0  0  0  0  0  0  0  0  0  0  0  0
   42.1830   32.3210   40.9100 H   0  0  0  0  0  0  0  0  0  0  0  0
   41.0230   32.1800   39.1420 C   0  0  0  0  0  0  0  0  0  0  0  0
   42.0500   31.8540   38.2680 C   0  0  0  0  0  0  0  0  0  0  0  0
   41.5680   31.9360   36.9820 C   0  0  0  0  0  0  0  0  0  0  0  0
   40.2600   32.3090   37.1240 N   0  0  0  0  0  0  0  0  0  0  0  0
   39.9280   32.4570   38.4100 N   0  0  0  0  0  0  0  0  0  0  0  0
   43.0760   31.5770   38.5070 H   0  0  0  0  0  0  0  0  0  0  0  0
   42.0400   31.7630   36.0270 H   0  0  0  0  0  0  0  0  0  0  0  0
   39.6160   32.4550   36.2890 H   0  0  0  0  0  0  0  0  0  0  0  0
  1 24  1  0  0  0  0
  1  3  1  0  0  0  0
  2  1  1  0  0  0  0
  4  5  1  0  0  0  0
  5  6  2  0  0  0  0
  5  1  1  0  0  0  0
  6 10  1  0  0  0  0
  7 11  1  0  0  0  0
  7  6  1  0  0  0  0
  8  7  2  0  0  0  0
  9  8  1  0  0  0  0
  9  4  2  0  0  0  0
 12  8  1  0  0  0  0
 13  9  1  0  0  0  0
 14  4  1  0  0  0  0
 14 15  2  0  0  0  0
 16 14  2  0  0  0  0
 17 14  1  0  0  0  0
 18 17  1  0  0  0  0
 19 18  1  0  0  0  0
 20 21  1  0  0  0  0
 20 18  1  0  0  0  0
 22 18  1  0  0  0  0
 23 22  1  0  0  0  0
 24 25  1  0  0  0  0
 26 24  1  0  0  0  0
 27 28  1  0  0  0  0
 28 29  2  0  0  0  0
 28 24  1  0  0  0  0
 29 34  1  0  0  0  0
 30 29  1  0  0  0  0
 31 30  2  0  0  0  0
 32 31  1  0  0  0  0
 32 27  2  0  0  0  0
 33 27  1  0  0  0  0
 35 37  1  0  0  0  0
 35 36  1  0  0  0  0
 35 31  1  0  0  0  0
 38 35  1  0  0  0  0
 39 43  1  0  0  0  0
 39 38  1  0  0  0  0
 40 41  1  0  0  0  0
 40 39  2  0  0  0  0
 41 42  1  0  0  0  0
 42 38  2  0  0  0  0
 44 40  1  0  0  0  0
 45 41  1  0  0  0  0
M  END
>  <minimizedAffinity>
-5.25330114

$$$$

 OpenBabel03242522443D

 45 47  0  0  0  0  0  0  0  0999 V2000
   36.4030   26.6670   38.5720 C   0  0  0  0  0  0  0  0  0  0  0  0
   35.7620   27.5430   38.8460 H   0  0  0  0  0  0  0  0  0  0  0  0
   37.3690   26.8970   38.1390 H   0  0  0  0  0  0  0  0  0  0  0  0
   37.0340   26.8260   40.9100 C   0  0  0  0  0  0  0  0  0  0  0  0
   36.6360   26.0220   39.8760 C   0  0  0  0  0  0  0  0  0  0  0  0
   36.4240   24.6990   39.9520 C   0  0  0  0  0  0  0  0  0  0  0  0
   36.6160   24.0840   41.1610 C   0  0  0  0  0  0  0  0  0  0  0  0
   37.0080   24.7840   42.2650 C   0  0  0  0  0  0  0  0  0  0  0  0
   37.2080   26.1480   42.1120 C   0  0  0  0  0  0  0  0  0  0  0  0
   36.1030   23.9950   39.2370 H   0  0  0  0  0  0  0  0  0  0  0  0
   36.4860   23.0210   41.3730 H   0  0  0  0  0  0  0  0  0  0  0  0
   37.1760   24.3450   43.2600 H   0  0  0  0  0  0  0  0  0  0  0  0
   37.5240   26.7010   43.0120 H   0  0  0  0  0  0  0  0  0  0  0  0
   37.4190   28.4850   40.8860 S   0  0  0  0  0  0  0  0  0  0  0  0
   38.7570   28.7760   40.2540 O   0  0  0  0  0  0  0  0  0  0  0  0
   37.6130   28.9280   42.3540 O   0  0  0  0  0  0  0  0  0  0  0  0
   36.3590   29.6840   40.2870 C   0  0  0  0  0  2  0  0  0  0  0  0
   37.1950   30.7700   39.7100 N   0  0  0  0  0  4  0  0  0  0  0  0
   38.1790   30.3600   39.7850 H   0  0  0  0  0  0  0  0  0  0  0  0
   36.9650   30.9630   38.3160 C   0  0  0  0  0  2  0  0  0  0  0  0
   36.6330   30.0050   37.8700 H   0  0  0  0  0  0  0  0  0  0  0  0
   37.2060   31.9470   40.5130 C   0  0  0  0  0  2  0  0  0  0  0  0
   38.2490   32.3810   40.5710 H   0  0  0  0  0  0  0  0  0  0  0  0
   35.5030   25.9520   37.6170 C   0  0  0  0  0  0  0  0  0  0  0  0
   36.0380   25.4060   36.8110 H   0  0  0  0  0  0  0  0  0  0  0  0
   34.9150   25.1140   38.0560 H   0  0  0  0  0  0  0  0  0  0  0  0
   34.7350   28.2760   37.2750 C   0  0  0  0  0  0  0  0  0  0  0  0
   34.5030   26.8920   37.1340 C   0  0  0  0  0  0  0  0  0  0  0  0
   33.3240   26.5110   36.5190 C   0  0  0  0  0  0  0  0  0  0  0  0
   32.4600   27.4560   36.0880 N   0  0  0  0  0  0  0  0  0  0  0  0
   32.7210   28.7550   36.2400 C   0  0  0  0  0  0  0  0  0  0  0  0
   33.8530   29.1970   36.8330 N   0  0  0  0  0  0  0  0  0  0  0  0
   35.5640   28.7980   37.7160 H   0  0  0  0  0  0  0  0  0  0  0  0
   33.1420   25.4490   36.4110 H   0  0  0  0  0  0  0  0  0  0  0  0
   31.7190   29.7530   35.7170 C   0  0  0  0  0  0  0  0  0  0  0  0
   32.3020   30.4980   35.1260 H   0  0  0  0  0  0  0  0  0  0  0  0
   31.0500   29.2440   35.0060 H   0  0  0  0  0  0  0  0  0  0  0  0
   30.9700   30.4290   36.7620 C   0  0  0  0  0  0  0  0  0  0  0  0
   30.4260   31.7010   36.6590 C   0  0  0  0  0  0  0  0  0  0  0  0
   29.7950   32.0000   37.8440 C   0  0  0  0  0  0  0  0  0  0  0  0
   29.9790   30.8920   38.6260 N   0  0  0  0  0  0  0  0  0  0  0  0
   30.6810   29.9510   37.9860 N   0  0  0  0  0  0  0  0  0  0  0  0
   30.4640   32.3840   35.8120 H   0  0  0  0  0  0  0  0  0  0  0  0
   29.2560   32.8760   38.1680 H   0  0  0  0  0  0  0  0  0  0  0  0
   29.5980   30.8250   39.6170 H   0  0  0  0  0  0  0  0  0  0  0  0
  1  2  1  0  0  0  0
  1  5  1  0  0  0  0
  3  1  1  0  0  0  0
  4  9  1  0  0  0  0
  5  6  1  0  0  0  0
  5  4  2  0  0  0  0
  6  7  2  0  0  0  0
  7 11  1  0  0  0  0
  7  8  1  0  0  0  0
  8 12  1  0  0  0  0
  9  8  2  0  0  0  0
  9 13  1  0  0  0  0
 10  6  1  0  0  0  0
 14  4  1  0  0  0  0
 14 16  2  0  0  0  0
 15 14  2  0  0  0  0
 17 14  1  0  0  0  0
 18 19  1  0  0  0  0
 18 17  1  0  0  0  0
 18 22  1  0  0  0  0
 20 18  1  0  0  0  0
 21 20  1  0  0  0  0
 22 23  1  0  0  0  0
 24 26  1  0  0  0  0
 24  1  1  0  0  0  0
 25 24  1  0  0  0  0
 27 33  1  0  0  0  0
 28 27  1  0  0  0  0
 28 24  1  0  0  0  0
 29 28  2  0  0  0  0
 30 31  2  0  0  0  0
 30 29  1  0  0  0  0
 31 32  1  0  0  0  0
 32 27  2  0  0  0  0
 34 29  1  0  0  0  0
 35 31  1  0  0  0  0
 35 38  1  0  0  0  0
 36 35  1  0  0  0  0
 37 35  1  0  0  0  0
 38 42  2  0  0  0  0
 39 38  1  0  0  0  0
 39 40  2  0  0  0  0
 40 44  1  0  0  0  0
 40 41  1  0  0  0  0
 41 45  1  0  0  0  0
 42 41  1  0  0  0  0
 43 39  1  0  0  0  0
M  END
>  <minimizedAffinity>
-5.24538136

$$$$

 OpenBabel03242522443D

 45 47  0  0  0  0  0  0  0  0999 V2000
   37.9090   26.2660   42.6720 C   0  0  0  0  0  0  0  0  0  0  0  0
   37.9270   25.6710   43.6200 H   0  0  0  0  0  0  0  0  0  0  0  0
   38.7840   26.8710   42.4690 H   0  0  0  0  0  0  0  0  0  0  0  0
   38.9840   24.9330   40.9520 C   0  0  0  0  0  0  0  0  0  0  0  0
   37.8340   25.2180   41.6380 C   0  0  0  0  0  0  0  0  0  0  0  0
   36.6480   24.6140   41.4610 C   0  0  0  0  0  0  0  0  0  0  0  0
   36.5640   23.6250   40.5180 C   0  0  0  0  0  0  0  0  0  0  0  0
   37.6460   23.2510   39.7760 C   0  0  0  0  0  0  0  0  0  0  0  0
   38.8380   23.9180   40.0130 C   0  0  0  0  0  0  0  0  0  0  0  0
   35.7170   24.7380   41.9380 H   0  0  0  0  0  0  0  0  0  0  0  0
   35.6710   23.0510   40.2630 H   0  0  0  0  0  0  0  0  0  0  0  0
   37.6380   22.4630   39.0070 H   0  0  0  0  0  0  0  0  0  0  0  0
   39.7050   23.6040   39.4060 H   0  0  0  0  0  0  0  0  0  0  0  0
   40.5000   25.7060   41.0390 S   0  0  0  0  0  0  0  0  0  0  0  0
   41.4740   25.2240   39.9930 O   0  0  0  0  0  0  0  0  0  0  0  0
   41.1570   25.2690   42.3680 O   0  0  0  0  0  0  0  0  0  0  0  0
   40.6830   27.4030   41.0890 C   0  0  0  0  0  2  0  0  0  0  0  0
   40.6390   27.8980   39.6860 N   0  0  0  0  0  4  0  0  0  0  0  0
   40.9430   27.0350   39.1340 H   0  0  0  0  0  0  0  0  0  0  0  0
   39.3150   28.1890   39.2450 C   0  0  0  0  0  2  0  0  0  0  0  0
   38.6010   27.5460   39.7980 H   0  0  0  0  0  0  0  0  0  0  0  0
   41.6220   28.8930   39.4190 C   0  0  0  0  0  2  0  0  0  0  0  0
   42.1000   28.7190   38.4080 H   0  0  0  0  0  0  0  0  0  0  0  0
   36.6800   27.0910   42.8860 C   0  0  0  0  0  0  0  0  0  0  0  0
   35.7320   26.5630   42.6450 H   0  0  0  0  0  0  0  0  0  0  0  0
   36.4760   27.3720   43.9450 H   0  0  0  0  0  0  0  0  0  0  0  0
   35.9640   28.6900   41.1450 C   0  0  0  0  0  0  0  0  0  0  0  0
   36.8480   28.3580   42.1910 C   0  0  0  0  0  0  0  0  0  0  0  0
   37.8280   29.2820   42.5060 C   0  0  0  0  0  0  0  0  0  0  0  0
   37.8980   30.4410   41.8170 N   0  0  0  0  0  0  0  0  0  0  0  0
   37.0390   30.7170   40.8340 C   0  0  0  0  0  0  0  0  0  0  0  0
   36.0580   29.8580   40.4740 N   0  0  0  0  0  0  0  0  0  0  0  0
   35.1420   28.1380   40.7290 H   0  0  0  0  0  0  0  0  0  0  0  0
   38.5090   29.0290   43.3090 H   0  0  0  0  0  0  0  0  0  0  0  0
   37.1670   32.0390   40.1200 C   0  0  0  0  0  0  0  0  0  0  0  0
   36.1320   32.3370   39.8300 H   0  0  0  0  0  0  0  0  0  0  0  0
   37.5220   32.7950   40.8360 H   0  0  0  0  0  0  0  0  0  0  0  0
   38.0140   31.9840   38.9410 C   0  0  0  0  0  0  0  0  0  0  0  0
   39.4000   31.9570   38.9550 C   0  0  0  0  0  0  0  0  0  0  0  0
   39.8460   31.9090   37.6540 C   0  0  0  0  0  0  0  0  0  0  0  0
   38.7080   31.9070   36.8950 N   0  0  0  0  0  0  0  0  0  0  0  0
   37.6100   31.9520   37.6580 N   0  0  0  0  0  0  0  0  0  0  0  0
   40.0670   31.9720   39.8160 H   0  0  0  0  0  0  0  0  0  0  0  0
   40.8410   31.8770   37.2380 H   0  0  0  0  0  0  0  0  0  0  0  0
   38.7320   31.8740   35.8320 H   0  0  0  0  0  0  0  0  0  0  0  0
  1 24  1  0  0  0  0
  1  2  1  0  0  0  0
  3  1  1  0  0  0  0
  4 14  1  0  0  0  0
  4  5  1  0  0  0  0
  5  1  1  0  0  0  0
  6  5  2  0  0  0  0
  6 10  1  0  0  0  0
  7  6  1  0  0  0  0
  8  9  1  0  0  0  0
  8  7  2  0  0  0  0
  9  4  2  0  0  0  0
 11  7  1  0  0  0  0
 12  8  1  0  0  0  0
 13  9  1  0  0  0  0
 14 17  1  0  0  0  0
 14 16  2  0  0  0  0
 15 14  2  0  0  0  0
 18 17  1  0  0  0  0
 19 18  1  0  0  0  0
 20 18  1  0  0  0  0
 20 21  1  0  0  0  0
 22 18  1  0  0  0  0
 23 22  1  0  0  0  0
 24 26  1  0  0  0  0
 25 24  1  0  0  0  0
 27 28  1  0  0  0  0
 28 29  2  0  0  0  0
 28 24  1  0  0  0  0
 29 34  1  0  0  0  0
 30 29  1  0  0  0  0
 31 30  2  0  0  0  0
 32 31  1  0  0  0  0
 32 27  2  0  0  0  0
 33 27  1  0  0  0  0
 35 31  1  0  0  0  0
 35 37  1  0  0  0  0
 36 35  1  0  0  0  0
 38 39  1  0  0  0  0
 38 35  1  0  0  0  0
 39 43  1  0  0  0  0
 40 39  2  0  0  0  0
 41 40  1  0  0  0  0
 41 42  1  0  0  0  0
 42 38  2  0  0  0  0
 44 40  1  0  0  0  0
 45 41  1  0  0  0  0
M  END
>  <minimizedAffinity>
-5.21417665

$$$$

 OpenBabel03242522443D

 45 47  0  0  0  0  0  0  0  0999 V2000
   37.9160   26.7560   42.8690 C   0  0  0  0  0  0  0  0  0  0  0  0
   37.8460   26.2300   43.8540 H   0  0  0  0  0  0  0  0  0  0  0  0
   38.7440   27.4450   42.7510 H   0  0  0  0  0  0  0  0  0  0  0  0
   39.2230   25.6990   41.1190 C   0  0  0  0  0  0  0  0  0  0  0  0
   38.1180   25.6420   41.9250 C   0  0  0  0  0  0  0  0  0  0  0  0
   37.2130   24.6520   41.9430 C   0  0  0  0  0  0  0  0  0  0  0  0
   37.3950   23.5980   41.0860 C   0  0  0  0  0  0  0  0  0  0  0  0
   38.4620   23.5420   40.2380 C   0  0  0  0  0  0  0  0  0  0  0  0
   39.3570   24.6010   40.2750 C   0  0  0  0  0  0  0  0  0  0  0  0
   36.3490   24.4970   42.5260 H   0  0  0  0  0  0  0  0  0  0  0  0
   36.7440   22.7280   40.9870 H   0  0  0  0  0  0  0  0  0  0  0  0
   38.6600   22.7220   39.5310 H   0  0  0  0  0  0  0  0  0  0  0  0
   40.2150   24.5410   39.5850 H   0  0  0  0  0  0  0  0  0  0  0  0
   40.3670   26.9510   40.9590 S   0  0  0  0  0  0  0  0  0  0  0  0
   39.8830   28.0920   40.0990 O   0  0  0  0  0  0  0  0  0  0  0  0
   41.5580   26.3790   40.1570 O   0  0  0  0  0  0  0  0  0  0  0  0
   41.1490   27.6800   42.2910 C   0  0  0  0  0  2  0  0  0  0  0  0
   42.2920   26.8070   42.6700 N   0  0  0  0  0  4  0  0  0  0  0  0
   42.4460   26.2390   41.7790 H   0  0  0  0  0  0  0  0  0  0  0  0
   43.5000   27.5360   42.8740 C   0  0  0  0  0  2  0  0  0  0  0  0
   43.4770   28.4520   42.2500 H   0  0  0  0  0  0  0  0  0  0  0  0
   41.9540   25.8590   43.6780 C   0  0  0  0  0  2  0  0  0  0  0  0
   42.4070   24.8490   43.4440 H   0  0  0  0  0  0  0  0  0  0  0  0
   36.5890   27.4430   42.8260 C   0  0  0  0  0  0  0  0  0  0  0  0
   35.7500   26.7900   42.5030 H   0  0  0  0  0  0  0  0  0  0  0  0
   36.1980   27.7800   43.8130 H   0  0  0  0  0  0  0  0  0  0  0  0
   35.7710   28.9520   41.0490 C   0  0  0  0  0  0  0  0  0  0  0  0
   36.7260   28.6640   42.0450 C   0  0  0  0  0  0  0  0  0  0  0  0
   37.7420   29.5830   42.2300 C   0  0  0  0  0  0  0  0  0  0  0  0
   37.7800   30.6980   41.4680 N   0  0  0  0  0  0  0  0  0  0  0  0
   36.8540   30.9330   40.5370 C   0  0  0  0  0  0  0  0  0  0  0  0
   35.8350   30.0760   40.3030 N   0  0  0  0  0  0  0  0  0  0  0  0
   34.9110   28.3940   40.7290 H   0  0  0  0  0  0  0  0  0  0  0  0
   38.4780   29.3630   42.9930 H   0  0  0  0  0  0  0  0  0  0  0  0
   36.9510   32.2070   39.7360 C   0  0  0  0  0  0  0  0  0  0  0  0
   36.2080   32.1120   38.9090 H   0  0  0  0  0  0  0  0  0  0  0  0
   36.6150   33.0470   40.3640 H   0  0  0  0  0  0  0  0  0  0  0  0
   38.2730   32.4500   39.1860 C   0  0  0  0  0  0  0  0  0  0  0  0
   38.8620   31.7140   38.1690 C   0  0  0  0  0  0  0  0  0  0  0  0
   40.1110   32.2370   37.9220 C   0  0  0  0  0  0  0  0  0  0  0  0
   40.2320   33.2780   38.8010 N   0  0  0  0  0  0  0  0  0  0  0  0
   39.1390   33.4110   39.5590 N   0  0  0  0  0  0  0  0  0  0  0  0
   38.4530   30.8610   37.6300 H   0  0  0  0  0  0  0  0  0  0  0  0
   40.8790   31.9570   37.2190 H   0  0  0  0  0  0  0  0  0  0  0  0
   41.1050   33.8850   38.8480 H   0  0  0  0  0  0  0  0  0  0  0  0
  1  2  1  0  0  0  0
  3  1  1  0  0  0  0
  4  5  1  0  0  0  0
  5  6  2  0  0  0  0
  5  1  1  0  0  0  0
  6 10  1  0  0  0  0
  7  6  1  0  0  0  0
  8  9  1  0  0  0  0
  8  7  2  0  0  0  0
  9  4  2  0  0  0  0
 11  7  1  0  0  0  0
 12  8  1  0  0  0  0
 13  9  1  0  0  0  0
 14  4  1  0  0  0  0
 14 17  1  0  0  0  0
 15 14  2  0  0  0  0
 16 14  2  0  0  0  0
 17 18  1  0  0  0  0
 18 20  1  0  0  0  0
 18 22  1  0  0  0  0
 19 18  1  0  0  0  0
 21 20  1  0  0  0  0
 23 22  1  0  0  0  0
 24  1  1  0  0  0  0
 24 26  1  0  0  0  0
 25 24  1  0  0  0  0
 27 28  1  0  0  0  0
 28 29  2  0  0  0  0
 28 24  1  0  0  0  0
 29 34  1  0  0  0  0
 30 29  1  0  0  0  0
 31 30  2  0  0  0  0
 32 31  1  0  0  0  0
 32 27  2  0  0  0  0
 33 27  1  0  0  0  0
 35 37  1  0  0  0  0
 35 31  1  0  0  0  0
 36 35  1  0  0  0  0
 38 42  2  0  0  0  0
 38 35  1  0  0  0  0
 39 38  1  0  0  0  0
 40 39  2  0  0  0  0
 40 41  1  0  0  0  0
 41 45  1  0  0  0  0
 41 42  1  0  0  0  0
 43 39  1  0  0  0  0
 44 40  1  0  0  0  0
M  END
>  <minimizedAffinity>
-5.18141556

$$$$
