
 OpenBabel03242516433D

 42 43  0  0  1  0  0  0  0  0999 V2000
   37.2150   30.8150   39.1730 O   0  0  0  0  0  0  0  0  0  0  0  0
   37.2140   30.7720   40.6900 P   0  0  2  0  0  0  0  0  0  0  0  0
   35.7250   31.1480   41.3470 O   0  0  0  0  0  0  0  0  0  0  0  0
   35.8690   31.5520   42.2390 H   0  0  0  0  0  0  0  0  0  0  0  0
   38.3710   31.8510   41.2680 O   0  0  0  0  0  0  0  0  0  0  0  0
   38.4710   32.9680   40.4530 C   0  0  0  0  0  0  0  0  0  0  0  0
   38.1300   32.6860   39.4410 H   0  0  0  0  0  0  0  0  0  0  0  0
   37.8000   33.7550   40.9030 H   0  0  0  0  0  0  0  0  0  0  0  0
   39.8640   33.5100   40.4720 C   0  0  0  0  0  0  0  0  0  0  0  0
   40.4000   33.0880   41.3590 H   0  0  0  0  0  0  0  0  0  0  0  0
   39.8900   34.6080   40.5680 H   0  0  0  0  0  0  0  0  0  0  0  0
   42.0550   33.5220   37.4070 C   0  0  0  0  0  0  0  0  0  0  0  0
   41.3630   33.9660   38.5590 C   0  0  0  0  0  0  0  0  0  0  0  0
   40.5940   33.0420   39.2550 C   0  0  0  0  0  0  0  0  0  0  0  0
   40.5300   31.7640   38.8150 N   0  0  0  0  0  0  0  0  0  0  0  0
   41.2100   31.3830   37.7030 C   0  0  0  0  0  0  0  0  0  0  0  0
   41.9620   32.2400   37.0060 N   0  0  0  0  0  0  0  0  0  0  0  0
   42.8510   34.4290   36.6670 N   0  0  0  0  0  0  0  0  0  0  0  0
   41.4730   34.9920   38.8310 H   0  0  0  0  0  0  0  0  0  0  0  0
   41.1570   30.3550   37.3510 H   0  0  0  0  0  0  0  0  0  0  0  0
   43.8950   34.4020   36.7730 H   0  0  0  0  0  0  0  0  0  0  0  0
   42.5450   35.1720   35.9870 H   0  0  0  0  0  0  0  0  0  0  0  0
   37.6170   29.1880   41.2000 O   0  0  0  0  0  0  0  0  0  0  0  0
   38.4400   28.4310   43.2750 C   0  0  1  0  0  0  0  0  0  0  0  0
   37.2750   28.9790   42.5070 C   0  0  2  0  0  0  0  0  0  0  0  0
   36.3900   27.7090   42.4930 C   0  0  0  0  0  0  0  0  0  0  0  0
   37.2440   26.6610   42.2840 O   0  0  0  0  0  0  0  0  0  0  0  0
   38.4850   27.0050   42.7550 C   0  0  0  0  0  0  0  0  0  0  0  0
   38.1960   28.4650   44.3560 H   0  0  0  0  0  0  0  0  0  0  0  0
   36.7300   29.8000   43.0060 H   0  0  0  0  0  0  0  0  0  0  0  0
   35.5990   27.8130   41.7240 H   0  0  0  0  0  0  0  0  0  0  0  0
   35.9020   27.6830   43.4810 H   0  0  0  0  0  0  0  0  0  0  0  0
   39.2130   26.9140   41.9380 H   0  0  0  0  0  0  0  0  0  0  0  0
   38.7760   26.3220   43.5710 H   0  0  0  0  0  0  0  0  0  0  0  0
   39.6310   29.1120   42.9850 O   0  0  0  0  0  0  0  0  0  0  0  0
   40.6580   28.2310   42.7910 C   0  0  0  0  0  2  0  0  0  0  0  0
   41.5560   28.7650   41.8010 N   0  0  0  0  0  4  0  0  0  0  0  0
   42.4890   28.3120   41.9730 H   0  0  0  0  0  0  0  0  0  0  0  0
   41.1310   28.4740   40.4470 C   0  0  0  0  0  2  0  0  0  0  0  0
   41.5690   27.5060   40.1250 H   0  0  0  0  0  0  0  0  0  0  0  0
   41.7010   30.1820   41.9580 C   0  0  0  0  0  2  0  0  0  0  0  0
   41.5950   30.5370   42.9920 H   0  0  0  0  0  0  0  0  0  0  0  0
  2  1  2  6  0  0  0
  2 23  1  0  0  0  0
  2  5  1  0  0  0  0
  2  3  1  0  0  0  0
  3  4  1  0  0  0  0
  6  9  1  0  0  0  0
  6  8  1  0  0  0  0
  6  5  1  0  0  0  0
  7  6  1  0  0  0  0
  9 11  1  0  0  0  0
  9 10  1  0  0  0  0
 12 13  1  0  0  0  0
 13 19  1  0  0  0  0
 13 14  2  0  0  0  0
 14  9  1  0  0  0  0
 15 14  1  0  0  0  0
 16 15  2  0  0  0  0
 17 12  2  0  0  0  0
 17 16  1  0  0  0  0
 18 21  1  0  0  0  0
 18 12  1  0  0  0  0
 20 16  1  0  0  0  0
 22 18  1  0  0  0  0
 23 25  1  0  0  0  0
 24 29  1  1  0  0  0
 25 30  1  1  0  0  0
 25 24  1  0  0  0  0
 26 25  1  0  0  0  0
 26 32  1  0  0  0  0
 27 26  1  0  0  0  0
 27 28  1  0  0  0  0
 28 24  1  0  0  0  0
 28 34  1  0  0  0  0
 31 26  1  0  0  0  0
 33 28  1  0  0  0  0
 35 24  1  0  0  0  0
 36 35  1  0  0  0  0
 37 41  1  0  0  0  0
 37 38  1  0  0  0  0
 37 36  1  0  0  0  0
 39 37  1  0  0  0  0
 40 39  1  0  0  0  0
 41 42  1  0  0  0  0
M  END
>  <minimizedAffinity>
-5.15621948

$$$$

 OpenBabel03242516433D

 42 43  0  0  1  0  0  0  0  0999 V2000
   37.3540   32.0030   38.0470 O   0  0  0  0  0  0  0  0  0  0  0  0
   37.6320   31.6510   39.4970 P   0  0  2  0  0  0  0  0  0  0  0  0
   36.5930   32.4150   40.5590 O   0  0  0  0  0  0  0  0  0  0  0  0
   37.0630   32.5400   41.4210 H   0  0  0  0  0  0  0  0  0  0  0  0
   39.2200   32.0680   39.8670 O   0  0  0  0  0  0  0  0  0  0  0  0
   39.2740   32.9480   40.9380 C   0  0  0  0  0  0  0  0  0  0  0  0
   38.2810   32.9620   41.4210 H   0  0  0  0  0  0  0  0  0  0  0  0
   40.0610   32.5490   41.6410 H   0  0  0  0  0  0  0  0  0  0  0  0
   39.7270   34.2980   40.4870 C   0  0  0  0  0  0  0  0  0  0  0  0
   39.7600   34.9800   41.3750 H   0  0  0  0  0  0  0  0  0  0  0  0
   39.0400   34.7540   39.7540 H   0  0  0  0  0  0  0  0  0  0  0  0
   42.6300   34.2740   38.0870 C   0  0  0  0  0  0  0  0  0  0  0  0
   41.3110   34.3640   38.5890 C   0  0  0  0  0  0  0  0  0  0  0  0
   41.1200   34.2020   39.9560 C   0  0  0  0  0  0  0  0  0  0  0  0
   42.1870   33.9650   40.7520 N   0  0  0  0  0  0  0  0  0  0  0  0
   43.4360   33.8840   40.2260 C   0  0  0  0  0  0  0  0  0  0  0  0
   43.6630   34.0350   38.9180 N   0  0  0  0  0  0  0  0  0  0  0  0
   42.8720   34.4330   36.7010 N   0  0  0  0  0  0  0  0  0  0  0  0
   40.5310   34.5550   37.8860 H   0  0  0  0  0  0  0  0  0  0  0  0
   44.2930   33.6930   40.8680 H   0  0  0  0  0  0  0  0  0  0  0  0
   43.2640   35.3390   36.3480 H   0  0  0  0  0  0  0  0  0  0  0  0
   42.7100   33.7450   35.9210 H   0  0  0  0  0  0  0  0  0  0  0  0
   37.4300   29.9630   39.7050 O   0  0  0  0  0  0  0  0  0  0  0  0
   36.6830   28.3800   41.2830 C   0  0  1  0  0  0  0  0  0  0  0  0
   36.4240   29.6820   40.5870 C   0  0  2  0  0  0  0  0  0  0  0  0
   35.2300   29.2400   39.7070 C   0  0  0  0  0  0  0  0  0  0  0  0
   35.5370   27.9830   39.2650 O   0  0  0  0  0  0  0  0  0  0  0  0
   36.3790   27.3920   40.1710 C   0  0  0  0  0  0  0  0  0  0  0  0
   35.9670   28.2820   42.1240 H   0  0  0  0  0  0  0  0  0  0  0  0
   36.1080   30.5100   41.2450 H   0  0  0  0  0  0  0  0  0  0  0  0
   35.0660   29.9800   38.8990 H   0  0  0  0  0  0  0  0  0  0  0  0
   34.3520   29.2650   40.3730 H   0  0  0  0  0  0  0  0  0  0  0  0
   37.3010   27.0920   39.6570 H   0  0  0  0  0  0  0  0  0  0  0  0
   35.8980   26.4930   40.5940 H   0  0  0  0  0  0  0  0  0  0  0  0
   38.0130   28.2650   41.7110 O   0  0  0  0  0  0  0  0  0  0  0  0
   38.5590   27.0850   41.2860 C   0  0  0  0  0  2  0  0  0  0  0  0
   39.3240   26.5080   42.3600 N   0  0  0  0  0  4  0  0  0  0  0  0
   40.3340   26.6890   42.1320 H   0  0  0  0  0  0  0  0  0  0  0  0
   39.0150   27.0970   43.6460 C   0  0  0  0  0  2  0  0  0  0  0  0
   39.6820   27.9670   43.8200 H   0  0  0  0  0  0  0  0  0  0  0  0
   39.1190   25.0910   42.4250 C   0  0  0  0  0  2  0  0  0  0  0  0
   38.9050   24.6180   41.4570 H   0  0  0  0  0  0  0  0  0  0  0  0
  2  1  2  6  0  0  0
  2 23  1  0  0  0  0
  2  5  1  0  0  0  0
  2  3  1  0  0  0  0
  3  4  1  0  0  0  0
  5  6  1  0  0  0  0
  6  7  1  0  0  0  0
  6  8  1  0  0  0  0
  9  6  1  0  0  0  0
  9 10  1  0  0  0  0
 11  9  1  0  0  0  0
 12 13  2  0  0  0  0
 12 17  1  0  0  0  0
 13 14  1  0  0  0  0
 14  9  1  0  0  0  0
 14 15  2  0  0  0  0
 16 15  1  0  0  0  0
 16 20  1  0  0  0  0
 17 16  2  0  0  0  0
 18 12  1  0  0  0  0
 19 13  1  0  0  0  0
 21 18  1  0  0  0  0
 22 18  1  0  0  0  0
 23 25  1  0  0  0  0
 24 35  1  0  0  0  0
 24 29  1  1  0  0  0
 25 30  1  1  0  0  0
 25 24  1  0  0  0  0
 26 32  1  0  0  0  0
 26 25  1  0  0  0  0
 27 26  1  0  0  0  0
 27 28  1  0  0  0  0
 28 34  1  0  0  0  0
 28 24  1  0  0  0  0
 31 26  1  0  0  0  0
 33 28  1  0  0  0  0
 36 35  1  0  0  0  0
 36 37  1  0  0  0  0
 37 41  1  0  0  0  0
 37 39  1  0  0  0  0
 38 37  1  0  0  0  0
 39 40  1  0  0  0  0
 42 41  1  0  0  0  0
M  END
>  <minimizedAffinity>
-5.05792332

$$$$

 OpenBabel03242516433D

 42 43  0  0  1  0  0  0  0  0999 V2000
   35.9060   29.6450   39.1010 O   0  0  0  0  0  0  0  0  0  0  0  0
   36.6310   30.1590   40.3300 P   0  0  2  0  0  0  0  0  0  0  0  0
   35.6100   30.9160   41.4140 O   0  0  0  0  0  0  0  0  0  0  0  0
   36.1280   31.5990   41.9090 H   0  0  0  0  0  0  0  0  0  0  0  0
   37.8330   31.2350   39.8470 O   0  0  0  0  0  0  0  0  0  0  0  0
   38.9230   30.5660   39.3130 C   0  0  0  0  0  0  0  0  0  0  0  0
   39.7060   30.5090   40.0910 H   0  0  0  0  0  0  0  0  0  0  0  0
   38.5600   29.5370   39.0270 H   0  0  0  0  0  0  0  0  0  0  0  0
   39.3900   31.2350   38.0610 C   0  0  0  0  0  0  0  0  0  0  0  0
   38.5210   31.7620   37.5910 H   0  0  0  0  0  0  0  0  0  0  0  0
   39.7750   30.5190   37.3160 H   0  0  0  0  0  0  0  0  0  0  0  0
   42.1010   33.8240   37.6940 C   0  0  0  0  0  0  0  0  0  0  0  0
   41.1430   32.8360   37.3690 C   0  0  0  0  0  0  0  0  0  0  0  0
   40.4020   32.2780   38.4040 C   0  0  0  0  0  0  0  0  0  0  0  0
   40.6190   32.6910   39.6730 N   0  0  0  0  0  0  0  0  0  0  0  0
   41.5510   33.6420   39.9400 C   0  0  0  0  0  0  0  0  0  0  0  0
   42.2830   34.2040   38.9740 N   0  0  0  0  0  0  0  0  0  0  0  0
   42.8780   34.4200   36.6720 N   0  0  0  0  0  0  0  0  0  0  0  0
   41.0410   32.5730   36.3400 H   0  0  0  0  0  0  0  0  0  0  0  0
   41.7240   33.9730   40.9610 H   0  0  0  0  0  0  0  0  0  0  0  0
   42.6360   35.3850   36.3380 H   0  0  0  0  0  0  0  0  0  0  0  0
   43.7100   34.0250   36.1620 H   0  0  0  0  0  0  0  0  0  0  0  0
   37.3530   28.8360   41.1430 O   0  0  0  0  0  0  0  0  0  0  0  0
   38.6960   28.6780   43.0720 C   0  0  1  0  0  0  0  0  0  0  0  0
   37.3540   29.0180   42.4970 C   0  0  2  0  0  0  0  0  0  0  0  0
   36.5520   27.8220   43.0640 C   0  0  0  0  0  0  0  0  0  0  0  0
   37.3730   26.7350   42.9540 O   0  0  0  0  0  0  0  0  0  0  0  0
   38.6760   27.1630   42.9830 C   0  0  0  0  0  0  0  0  0  0  0  0
   38.7260   29.0260   44.1250 H   0  0  0  0  0  0  0  0  0  0  0  0
   36.9130   29.9620   42.8630 H   0  0  0  0  0  0  0  0  0  0  0  0
   35.5910   27.7240   42.5200 H   0  0  0  0  0  0  0  0  0  0  0  0
   36.3250   28.0920   44.1090 H   0  0  0  0  0  0  0  0  0  0  0  0
   39.1830   26.8220   42.0700 H   0  0  0  0  0  0  0  0  0  0  0  0
   39.1900   26.7320   43.8590 H   0  0  0  0  0  0  0  0  0  0  0  0
   39.7470   29.2150   42.3140 O   0  0  0  0  0  0  0  0  0  0  0  0
   40.0960   30.4520   42.7770 C   0  0  0  0  0  2  0  0  0  0  0  0
   41.3270   30.8590   42.1490 N   0  0  0  0  0  4  0  0  0  0  0  0
   41.0710   31.6080   41.4570 H   0  0  0  0  0  0  0  0  0  0  0  0
   42.2850   31.3950   43.0930 C   0  0  0  0  0  2  0  0  0  0  0  0
   42.1310   32.4900   43.1910 H   0  0  0  0  0  0  0  0  0  0  0  0
   41.9200   29.7650   41.4390 C   0  0  0  0  0  2  0  0  0  0  0  0
   41.2000   29.0400   41.0380 H   0  0  0  0  0  0  0  0  0  0  0  0
  2  1  2  6  0  0  0
  2 23  1  0  0  0  0
  2  3  1  0  0  0  0
  3  4  1  0  0  0  0
  5  2  1  0  0  0  0
  6  5  1  0  0  0  0
  6  7  1  0  0  0  0
  8  6  1  0  0  0  0
  9 14  1  0  0  0  0
  9  6  1  0  0  0  0
 10  9  1  0  0  0  0
 11  9  1  0  0  0  0
 12 17  1  0  0  0  0
 13 12  2  0  0  0  0
 13 14  1  0  0  0  0
 14 15  2  0  0  0  0
 15 16  1  0  0  0  0
 16 20  1  0  0  0  0
 17 16  2  0  0  0  0
 18 12  1  0  0  0  0
 19 13  1  0  0  0  0
 21 18  1  0  0  0  0
 22 18  1  0  0  0  0
 23 25  1  0  0  0  0
 24 29  1  1  0  0  0
 25 30  1  1  0  0  0
 25 26  1  0  0  0  0
 25 24  1  0  0  0  0
 26 32  1  0  0  0  0
 27 28  1  0  0  0  0
 27 26  1  0  0  0  0
 28 24  1  0  0  0  0
 28 34  1  0  0  0  0
 31 26  1  0  0  0  0
 33 28  1  0  0  0  0
 35 36  1  0  0  0  0
 35 24  1  0  0  0  0
 37 36  1  0  0  0  0
 37 39  1  0  0  0  0
 38 37  1  0  0  0  0
 39 40  1  0  0  0  0
 41 37  1  0  0  0  0
 42 41  1  0  0  0  0
M  END
>  <minimizedAffinity>
-5.0429759

$$$$

 OpenBabel03242516433D

 42 43  0  0  1  0  0  0  0  0999 V2000
   37.0470   30.1410   39.4220 O   0  0  0  0  0  0  0  0  0  0  0  0
   37.0370   30.4250   40.9130 P   0  0  2  0  0  0  0  0  0  0  0  0
   35.5500   30.9570   41.4590 O   0  0  0  0  0  0  0  0  0  0  0  0
   35.6960   31.5410   42.2450 H   0  0  0  0  0  0  0  0  0  0  0  0
   38.2080   31.5830   41.2570 O   0  0  0  0  0  0  0  0  0  0  0  0
   38.3100   32.5180   40.2380 C   0  0  0  0  0  0  0  0  0  0  0  0
   38.1320   32.0000   39.2790 H   0  0  0  0  0  0  0  0  0  0  0  0
   37.5150   33.2940   40.4340 H   0  0  0  0  0  0  0  0  0  0  0  0
   39.6310   33.2140   40.2920 C   0  0  0  0  0  0  0  0  0  0  0  0
   40.1890   32.8550   41.1930 H   0  0  0  0  0  0  0  0  0  0  0  0
   39.5310   34.3080   40.3880 H   0  0  0  0  0  0  0  0  0  0  0  0
   42.0200   33.4430   37.3880 C   0  0  0  0  0  0  0  0  0  0  0  0
   41.2540   33.8030   38.5210 C   0  0  0  0  0  0  0  0  0  0  0  0
   40.4400   32.8340   39.0950 C   0  0  0  0  0  0  0  0  0  0  0  0
   40.4060   31.5930   38.5580 N   0  0  0  0  0  0  0  0  0  0  0  0
   41.1580   31.2920   37.4680 C   0  0  0  0  0  0  0  0  0  0  0  0
   41.9540   32.1940   36.8870 N   0  0  0  0  0  0  0  0  0  0  0  0
   42.8630   34.3990   36.7710 N   0  0  0  0  0  0  0  0  0  0  0  0
   41.3450   34.8060   38.8750 H   0  0  0  0  0  0  0  0  0  0  0  0
   41.1290   30.2930   37.0390 H   0  0  0  0  0  0  0  0  0  0  0  0
   43.8970   34.3590   36.9420 H   0  0  0  0  0  0  0  0  0  0  0  0
   42.6010   35.1910   36.1290 H   0  0  0  0  0  0  0  0  0  0  0  0
   37.4070   28.9810   41.7550 O   0  0  0  0  0  0  0  0  0  0  0  0
   38.5850   26.9980   41.2750 C   0  0  1  0  0  0  0  0  0  0  0  0
   38.6320   28.4910   41.3990 C   0  0  2  0  0  0  0  0  0  0  0  0
   39.4930   28.5880   42.6820 C   0  0  0  0  0  0  0  0  0  0  0  0
   39.0500   27.5900   43.5050 O   0  0  0  0  0  0  0  0  0  0  0  0
   38.5210   26.5870   42.7350 C   0  0  0  0  0  0  0  0  0  0  0  0
   39.5230   26.6550   40.7940 H   0  0  0  0  0  0  0  0  0  0  0  0
   39.1440   29.0140   40.5730 H   0  0  0  0  0  0  0  0  0  0  0  0
   39.4080   29.6050   43.1120 H   0  0  0  0  0  0  0  0  0  0  0  0
   40.5330   28.4460   42.3460 H   0  0  0  0  0  0  0  0  0  0  0  0
   37.4820   26.4120   43.0430 H   0  0  0  0  0  0  0  0  0  0  0  0
   39.0990   25.6580   42.8850 H   0  0  0  0  0  0  0  0  0  0  0  0
   37.4490   26.5610   40.5780 O   0  0  0  0  0  0  0  0  0  0  0  0
   37.7900   26.0930   39.3400 C   0  0  0  0  0  2  0  0  0  0  0  0
   37.0080   24.9200   39.0480 N   0  0  0  0  0  4  0  0  0  0  0  0
   37.6530   24.2500   38.5570 H   0  0  0  0  0  0  0  0  0  0  0  0
   36.4860   24.2860   40.2410 C   0  0  0  0  0  2  0  0  0  0  0  0
   37.2180   23.5390   40.6110 H   0  0  0  0  0  0  0  0  0  0  0  0
   35.9240   25.2390   38.1660 C   0  0  0  0  0  2  0  0  0  0  0  0
   36.1300   26.0660   37.4740 H   0  0  0  0  0  0  0  0  0  0  0  0
  2  1  2  6  0  0  0
  2  5  1  0  0  0  0
  2  3  1  0  0  0  0
  2 23  1  0  0  0  0
  3  4  1  0  0  0  0
  6  9  1  0  0  0  0
  6  8  1  0  0  0  0
  6  5  1  0  0  0  0
  7  6  1  0  0  0  0
  9 11  1  0  0  0  0
  9 10  1  0  0  0  0
 12 13  1  0  0  0  0
 13 19  1  0  0  0  0
 13 14  2  0  0  0  0
 14  9  1  0  0  0  0
 15 14  1  0  0  0  0
 16 15  2  0  0  0  0
 17 12  2  0  0  0  0
 17 16  1  0  0  0  0
 18 21  1  0  0  0  0
 18 12  1  0  0  0  0
 20 16  1  0  0  0  0
 22 18  1  0  0  0  0
 24 29  1  6  0  0  0
 24 25  1  0  0  0  0
 24 28  1  0  0  0  0
 25 30  1  6  0  0  0
 25 23  1  0  0  0  0
 25 26  1  0  0  0  0
 26 31  1  0  0  0  0
 26 27  1  0  0  0  0
 28 34  1  0  0  0  0
 28 33  1  0  0  0  0
 28 27  1  0  0  0  0
 32 26  1  0  0  0  0
 35 24  1  0  0  0  0
 36 35  1  0  0  0  0
 37 36  1  0  0  0  0
 37 39  1  0  0  0  0
 38 37  1  0  0  0  0
 39 40  1  0  0  0  0
 41 37  1  0  0  0  0
 42 41  1  0  0  0  0
M  END
>  <minimizedAffinity>
-5.03213167

$$$$

 OpenBabel03242516433D

 42 43  0  0  1  0  0  0  0  0999 V2000
   37.2530   30.5210   39.3060 O   0  0  0  0  0  0  0  0  0  0  0  0
   37.1890   30.6570   40.8160 P   0  0  2  0  0  0  0  0  0  0  0  0
   35.6620   31.0500   41.3670 O   0  0  0  0  0  0  0  0  0  0  0  0
   35.7540   31.5610   42.2090 H   0  0  0  0  0  0  0  0  0  0  0  0
   38.2830   31.8390   41.3060 O   0  0  0  0  0  0  0  0  0  0  0  0
   39.1900   32.1360   40.3010 C   0  0  0  0  0  0  0  0  0  0  0  0
   40.0550   31.4570   40.4080 H   0  0  0  0  0  0  0  0  0  0  0  0
   38.6550   31.9590   39.3230 H   0  0  0  0  0  0  0  0  0  0  0  0
   39.5690   33.5800   40.3420 C   0  0  0  0  0  0  0  0  0  0  0  0
   39.5320   33.9300   41.4050 H   0  0  0  0  0  0  0  0  0  0  0  0
   38.8770   34.2180   39.7670 H   0  0  0  0  0  0  0  0  0  0  0  0
   42.5390   34.1450   38.0940 C   0  0  0  0  0  0  0  0  0  0  0  0
   41.2020   33.9980   38.5330 C   0  0  0  0  0  0  0  0  0  0  0  0
   40.9810   33.7350   39.8790 C   0  0  0  0  0  0  0  0  0  0  0  0
   42.0370   33.6290   40.7170 N   0  0  0  0  0  0  0  0  0  0  0  0
   43.3050   33.7760   40.2520 C   0  0  0  0  0  0  0  0  0  0  0  0
   43.5600   34.0300   38.9660 N   0  0  0  0  0  0  0  0  0  0  0  0
   42.8110   34.4130   36.7310 N   0  0  0  0  0  0  0  0  0  0  0  0
   40.4330   34.0980   37.7990 H   0  0  0  0  0  0  0  0  0  0  0  0
   44.1520   33.6910   40.9280 H   0  0  0  0  0  0  0  0  0  0  0  0
   43.0670   35.3880   36.4400 H   0  0  0  0  0  0  0  0  0  0  0  0
   42.7970   33.7500   35.9140 H   0  0  0  0  0  0  0  0  0  0  0  0
   37.6220   29.1600   41.5270 O   0  0  0  0  0  0  0  0  0  0  0  0
   39.5250   28.5320   42.7660 C   0  0  1  0  0  0  0  0  0  0  0  0
   38.2620   29.3370   42.7220 C   0  0  2  0  0  0  0  0  0  0  0  0
   37.4330   28.5230   43.7450 C   0  0  0  0  0  0  0  0  0  0  0  0
   37.7200   27.2090   43.4970 O   0  0  0  0  0  0  0  0  0  0  0  0
   38.9700   27.1300   42.9390 C   0  0  0  0  0  0  0  0  0  0  0  0
   40.1150   28.8500   43.6500 H   0  0  0  0  0  0  0  0  0  0  0  0
   38.3580   30.3790   43.0740 H   0  0  0  0  0  0  0  0  0  0  0  0
   36.3610   28.7820   43.6490 H   0  0  0  0  0  0  0  0  0  0  0  0
   37.7780   28.8640   44.7360 H   0  0  0  0  0  0  0  0  0  0  0  0
   38.8950   26.6210   41.9690 H   0  0  0  0  0  0  0  0  0  0  0  0
   39.6350   26.5450   43.5980 H   0  0  0  0  0  0  0  0  0  0  0  0
   40.2630   28.6400   41.5790 O   0  0  0  0  0  0  0  0  0  0  0  0
   40.4910   27.4060   41.0350 C   0  0  0  0  0  2  0  0  0  0  0  0
   40.3170   27.4820   39.6080 N   0  0  0  0  0  4  0  0  0  0  0  0
   41.1010   26.9220   39.1860 H   0  0  0  0  0  0  0  0  0  0  0  0
   39.0520   26.9310   39.1690 C   0  0  0  0  0  2  0  0  0  0  0  0
   39.1760   25.8470   38.9600 H   0  0  0  0  0  0  0  0  0  0  0  0
   40.4280   28.8360   39.1540 C   0  0  0  0  0  2  0  0  0  0  0  0
   41.0970   29.4640   39.7570 H   0  0  0  0  0  0  0  0  0  0  0  0
  2  1  2  6  0  0  0
  2  5  1  0  0  0  0
  2  3  1  0  0  0  0
  2 23  1  0  0  0  0
  3  4  1  0  0  0  0
  6  9  1  0  0  0  0
  6  7  1  0  0  0  0
  6  5  1  0  0  0  0
  8  6  1  0  0  0  0
  9 10  1  0  0  0  0
 11  9  1  0  0  0  0
 12 13  2  0  0  0  0
 12 17  1  0  0  0  0
 13 14  1  0  0  0  0
 14  9  1  0  0  0  0
 14 15  2  0  0  0  0
 16 15  1  0  0  0  0
 16 20  1  0  0  0  0
 17 16  2  0  0  0  0
 18 12  1  0  0  0  0
 19 13  1  0  0  0  0
 21 18  1  0  0  0  0
 22 18  1  0  0  0  0
 23 25  1  0  0  0  0
 24 28  1  0  0  0  0
 24 29  1  1  0  0  0
 25 24  1  0  0  0  0
 25 30  1  1  0  0  0
 25 26  1  0  0  0  0
 26 32  1  0  0  0  0
 27 26  1  0  0  0  0
 28 27  1  0  0  0  0
 28 34  1  0  0  0  0
 31 26  1  0  0  0  0
 33 28  1  0  0  0  0
 35 24  1  0  0  0  0
 36 35  1  0  0  0  0
 37 36  1  0  0  0  0
 38 37  1  0  0  0  0
 39 37  1  0  0  0  0
 40 39  1  0  0  0  0
 41 37  1  0  0  0  0
 41 42  1  0  0  0  0
M  END
>  <minimizedAffinity>
-4.97908115

$$$$

 OpenBabel03242516433D

 42 43  0  0  1  0  0  0  0  0999 V2000
   39.3120   29.5050   40.4600 O   0  0  0  0  0  0  0  0  0  0  0  0
   38.5760   30.2860   41.5330 P   0  0  2  0  0  0  0  0  0  0  0  0
   39.2010   30.0310   43.0610 O   0  0  0  0  0  0  0  0  0  0  0  0
   38.4730   30.1480   43.7210 H   0  0  0  0  0  0  0  0  0  0  0  0
   36.9510   29.8470   41.5120 O   0  0  0  0  0  0  0  0  0  0  0  0
   36.7980   28.4880   41.2850 C   0  0  0  0  0  0  0  0  0  0  0  0
   35.9720   28.3510   40.5640 H   0  0  0  0  0  0  0  0  0  0  0  0
   37.7750   28.1220   40.8560 H   0  0  0  0  0  0  0  0  0  0  0  0
   36.5790   27.7600   42.5710 C   0  0  0  0  0  0  0  0  0  0  0  0
   35.6000   27.2200   42.5160 H   0  0  0  0  0  0  0  0  0  0  0  0
   36.5260   28.4380   43.4390 H   0  0  0  0  0  0  0  0  0  0  0  0
   38.4560   24.5040   42.3040 C   0  0  0  0  0  0  0  0  0  0  0  0
   37.4480   25.4840   42.1440 C   0  0  0  0  0  0  0  0  0  0  0  0
   37.6420   26.7240   42.7410 C   0  0  0  0  0  0  0  0  0  0  0  0
   38.7730   26.9510   43.4470 N   0  0  0  0  0  0  0  0  0  0  0  0
   39.7140   25.9800   43.5760 C   0  0  0  0  0  0  0  0  0  0  0  0
   39.5660   24.7760   43.0170 N   0  0  0  0  0  0  0  0  0  0  0  0
   38.3000   23.2270   41.7130 N   0  0  0  0  0  0  0  0  0  0  0  0
   36.5900   25.2150   41.5690 H   0  0  0  0  0  0  0  0  0  0  0  0
   40.6220   26.1660   44.1440 H   0  0  0  0  0  0  0  0  0  0  0  0
   38.8260   22.9990   40.8350 H   0  0  0  0  0  0  0  0  0  0  0  0
   37.7050   22.4210   42.0340 H   0  0  0  0  0  0  0  0  0  0  0  0
   38.7120   31.9580   41.1950 O   0  0  0  0  0  0  0  0  0  0  0  0
   39.9000   33.0690   39.4890 C   0  0  1  0  0  0  0  0  0  0  0  0
   38.7330   32.2000   39.8490 C   0  0  2  0  0  0  0  0  0  0  0  0
   37.5990   33.2240   39.6060 C   0  0  0  0  0  0  0  0  0  0  0  0
   38.0640   34.4170   40.0840 O   0  0  0  0  0  0  0  0  0  0  0  0
   39.4340   34.4140   40.0170 C   0  0  0  0  0  0  0  0  0  0  0  0
   40.0050   33.0770   38.3850 H   0  0  0  0  0  0  0  0  0  0  0  0
   38.5820   31.3230   39.1950 H   0  0  0  0  0  0  0  0  0  0  0  0
   36.6660   32.8710   40.0900 H   0  0  0  0  0  0  0  0  0  0  0  0
   37.4360   33.2250   38.5160 H   0  0  0  0  0  0  0  0  0  0  0  0
   39.8390   34.5970   41.0210 H   0  0  0  0  0  0  0  0  0  0  0  0
   39.7750   35.2170   39.3420 H   0  0  0  0  0  0  0  0  0  0  0  0
   41.0810   32.6590   40.1250 O   0  0  0  0  0  0  0  0  0  0  0  0
   41.6710   33.7070   40.7740 C   0  0  0  0  0  2  0  0  0  0  0  0
   42.4540   33.2000   41.8710 N   0  0  0  0  0  4  0  0  0  0  0  0
   42.2020   33.7860   42.7080 H   0  0  0  0  0  0  0  0  0  0  0  0
   42.1710   31.8100   42.1630 C   0  0  0  0  0  2  0  0  0  0  0  0
   41.3450   31.7510   42.9020 H   0  0  0  0  0  0  0  0  0  0  0  0
   43.8540   33.3560   41.6110 C   0  0  0  0  0  2  0  0  0  0  0  0
   44.1060   34.2210   40.9840 H   0  0  0  0  0  0  0  0  0  0  0  0
  2  1  2  6  0  0  0
  2  3  1  0  0  0  0
  3  4  1  0  0  0  0
  5  2  1  0  0  0  0
  6  5  1  0  0  0  0
  6  9  1  0  0  0  0
  7  6  1  0  0  0  0
  8  6  1  0  0  0  0
  9 14  1  0  0  0  0
  9 11  1  0  0  0  0
 10  9  1  0  0  0  0
 12 17  1  0  0  0  0
 13 12  2  0  0  0  0
 13 14  1  0  0  0  0
 14 15  2  0  0  0  0
 15 16  1  0  0  0  0
 16 20  1  0  0  0  0
 17 16  2  0  0  0  0
 18 22  1  0  0  0  0
 18 12  1  0  0  0  0
 19 13  1  0  0  0  0
 21 18  1  0  0  0  0
 23  2  1  0  0  0  0
 24 29  1  6  0  0  0
 24 25  1  0  0  0  0
 24 28  1  0  0  0  0
 24 35  1  0  0  0  0
 25 30  1  6  0  0  0
 25 23  1  0  0  0  0
 26 25  1  0  0  0  0
 26 27  1  0  0  0  0
 26 31  1  0  0  0  0
 28 27  1  0  0  0  0
 28 33  1  0  0  0  0
 32 26  1  0  0  0  0
 34 28  1  0  0  0  0
 35 36  1  0  0  0  0
 36 37  1  0  0  0  0
 37 39  1  0  0  0  0
 37 38  1  0  0  0  0
 39 40  1  0  0  0  0
 41 37  1  0  0  0  0
 42 41  1  0  0  0  0
M  END
>  <minimizedAffinity>
-4.94785357

$$$$

 OpenBabel03242516433D

 42 43  0  0  1  0  0  0  0  0999 V2000
   37.6870   29.6420   42.2520 O   0  0  0  0  0  0  0  0  0  0  0  0
   37.1260   30.4960   41.1310 P   0  0  2  0  0  0  0  0  0  0  0  0
   35.5520   30.9820   41.4140 O   0  0  0  0  0  0  0  0  0  0  0  0
   35.1010   31.1040   40.5410 H   0  0  0  0  0  0  0  0  0  0  0  0
   37.1940   29.6260   39.6920 O   0  0  0  0  0  0  0  0  0  0  0  0
   37.9620   28.4800   39.8310 C   0  0  0  0  0  0  0  0  0  0  0  0
   38.8940   28.6190   39.2560 H   0  0  0  0  0  0  0  0  0  0  0  0
   38.1770   28.3700   40.9330 H   0  0  0  0  0  0  0  0  0  0  0  0
   37.1880   27.2730   39.4090 C   0  0  0  0  0  0  0  0  0  0  0  0
   37.5920   26.9120   38.4300 H   0  0  0  0  0  0  0  0  0  0  0  0
   36.1160   27.4870   39.2580 H   0  0  0  0  0  0  0  0  0  0  0  0
   38.5880   25.3120   42.3050 C   0  0  0  0  0  0  0  0  0  0  0  0
   38.3870   26.3500   41.3640 C   0  0  0  0  0  0  0  0  0  0  0  0
   37.4000   26.1770   40.4020 C   0  0  0  0  0  0  0  0  0  0  0  0
   36.6720   25.0380   40.3950 N   0  0  0  0  0  0  0  0  0  0  0  0
   36.8990   24.0670   41.3160 C   0  0  0  0  0  0  0  0  0  0  0  0
   37.8380   24.1930   42.2590 N   0  0  0  0  0  0  0  0  0  0  0  0
   39.5820   25.4440   43.3030 N   0  0  0  0  0  0  0  0  0  0  0  0
   39.0100   27.2130   41.4480 H   0  0  0  0  0  0  0  0  0  0  0  0
   36.3120   23.1520   41.3080 H   0  0  0  0  0  0  0  0  0  0  0  0
   39.2980   25.6880   44.2840 H   0  0  0  0  0  0  0  0  0  0  0  0
   40.6250   25.3310   43.2130 H   0  0  0  0  0  0  0  0  0  0  0  0
   38.0800   31.9100   40.9800 O   0  0  0  0  0  0  0  0  0  0  0  0
   39.6360   32.8520   39.4820 C   0  0  1  0  0  0  0  0  0  0  0  0
   38.2780   32.2460   39.6700 C   0  0  2  0  0  0  0  0  0  0  0  0
   37.4250   33.5190   39.4480 C   0  0  0  0  0  0  0  0  0  0  0  0
   38.0970   34.5320   40.0730 O   0  0  0  0  0  0  0  0  0  0  0  0
   39.4320   34.2210   40.1040 C   0  0  0  0  0  0  0  0  0  0  0  0
   39.8420   32.9230   38.3940 H   0  0  0  0  0  0  0  0  0  0  0  0
   37.9980   31.4820   38.9240 H   0  0  0  0  0  0  0  0  0  0  0  0
   36.3980   33.3520   39.8270 H   0  0  0  0  0  0  0  0  0  0  0  0
   37.3680   33.6440   38.3540 H   0  0  0  0  0  0  0  0  0  0  0  0
   39.7750   34.2260   41.1480 H   0  0  0  0  0  0  0  0  0  0  0  0
   40.0040   34.9750   39.5370 H   0  0  0  0  0  0  0  0  0  0  0  0
   40.6330   32.1330   40.1570 O   0  0  0  0  0  0  0  0  0  0  0  0
   41.4950   32.9820   40.7940 C   0  0  0  0  0  2  0  0  0  0  0  0
   41.7840   32.4610   42.1040 N   0  0  0  0  0  4  0  0  0  0  0  0
   41.3340   33.1200   42.7890 H   0  0  0  0  0  0  0  0  0  0  0  0
   41.2500   31.1300   42.3080 C   0  0  0  0  0  2  0  0  0  0  0  0
   40.2200   31.2060   42.7130 H   0  0  0  0  0  0  0  0  0  0  0  0
   43.1960   32.4480   42.3460 C   0  0  0  0  0  2  0  0  0  0  0  0
   43.7530   33.2410   41.8290 H   0  0  0  0  0  0  0  0  0  0  0  0
  2  3  1  0  0  0  0
  2  1  2  1  0  0  0
  4  3  1  0  0  0  0
  5  6  1  0  0  0  0
  5  2  1  0  0  0  0
  6  8  1  0  0  0  0
  7  6  1  0  0  0  0
  9  6  1  0  0  0  0
  9 14  1  0  0  0  0
 10  9  1  0  0  0  0
 11  9  1  0  0  0  0
 12 18  1  0  0  0  0
 13 19  1  0  0  0  0
 13 12  2  0  0  0  0
 14 13  1  0  0  0  0
 15 14  2  0  0  0  0
 15 16  1  0  0  0  0
 16 17  2  0  0  0  0
 17 12  1  0  0  0  0
 18 21  1  0  0  0  0
 20 16  1  0  0  0  0
 22 18  1  0  0  0  0
 23  2  1  0  0  0  0
 24 29  1  6  0  0  0
 24 25  1  0  0  0  0
 24 28  1  0  0  0  0
 24 35  1  0  0  0  0
 25 30  1  6  0  0  0
 25 23  1  0  0  0  0
 26 25  1  0  0  0  0
 26 31  1  0  0  0  0
 26 27  1  0  0  0  0
 27 28  1  0  0  0  0
 28 33  1  0  0  0  0
 32 26  1  0  0  0  0
 34 28  1  0  0  0  0
 35 36  1  0  0  0  0
 36 37  1  0  0  0  0
 37 39  1  0  0  0  0
 37 41  1  0  0  0  0
 37 38  1  0  0  0  0
 39 40  1  0  0  0  0
 42 41  1  0  0  0  0
M  END
>  <minimizedAffinity>
-4.88597155

$$$$

 OpenBabel03242516433D

 42 43  0  0  1  0  0  0  0  0999 V2000
   37.7660   32.2510   40.7610 O   0  0  0  0  0  0  0  0  0  0  0  0
   36.9870   30.9500   40.6970 P   0  0  2  0  0  0  0  0  0  0  0  0
   35.5430   31.0180   41.5340 O   0  0  0  0  0  0  0  0  0  0  0  0
   35.3230   30.1070   41.8530 H   0  0  0  0  0  0  0  0  0  0  0  0
   37.9400   29.7110   41.3220 O   0  0  0  0  0  0  0  0  0  0  0  0
   37.2380   28.9510   42.2450 C   0  0  0  0  0  0  0  0  0  0  0  0
   36.3700   29.5420   42.5870 H   0  0  0  0  0  0  0  0  0  0  0  0
   36.9070   28.0170   41.7070 H   0  0  0  0  0  0  0  0  0  0  0  0
   38.1330   28.5240   43.3640 C   0  0  0  0  0  0  0  0  0  0  0  0
   37.5600   28.5860   44.3240 H   0  0  0  0  0  0  0  0  0  0  0  0
   39.0170   29.1740   43.4720 H   0  0  0  0  0  0  0  0  0  0  0  0
   38.0160   24.9220   42.2670 C   0  0  0  0  0  0  0  0  0  0  0  0
   37.6530   26.2770   42.4490 C   0  0  0  0  0  0  0  0  0  0  0  0
   38.5150   27.0930   43.1720 C   0  0  0  0  0  0  0  0  0  0  0  0
   39.6580   26.5720   43.6730 N   0  0  0  0  0  0  0  0  0  0  0  0
   39.9660   25.2640   43.4750 C   0  0  0  0  0  0  0  0  0  0  0  0
   39.1650   24.4470   42.7850 N   0  0  0  0  0  0  0  0  0  0  0  0
   37.1680   24.0550   41.5370 N   0  0  0  0  0  0  0  0  0  0  0  0
   36.7320   26.5990   42.0170 H   0  0  0  0  0  0  0  0  0  0  0  0
   40.8860   24.8480   43.8790 H   0  0  0  0  0  0  0  0  0  0  0  0
   37.4170   23.8020   40.5500 H   0  0  0  0  0  0  0  0  0  0  0  0
   36.2730   23.5950   41.8460 H   0  0  0  0  0  0  0  0  0  0  0  0
   36.6160   30.6050   39.0610 O   0  0  0  0  0  0  0  0  0  0  0  0
   38.1030   30.0920   37.3060 C   0  0  1  0  0  0  0  0  0  0  0  0
   37.4240   29.6240   38.5580 C   0  0  2  0  0  0  0  0  0  0  0  0
   36.4590   28.5930   37.9250 C   0  0  0  0  0  0  0  0  0  0  0  0
   36.0060   29.1660   36.7690 O   0  0  0  0  0  0  0  0  0  0  0  0
   36.9500   30.0530   36.3190 C   0  0  0  0  0  0  0  0  0  0  0  0
   38.8940   29.3620   37.0400 H   0  0  0  0  0  0  0  0  0  0  0  0
   38.0820   29.1140   39.2840 H   0  0  0  0  0  0  0  0  0  0  0  0
   35.6610   28.3350   38.6490 H   0  0  0  0  0  0  0  0  0  0  0  0
   37.0680   27.6900   37.7550 H   0  0  0  0  0  0  0  0  0  0  0  0
   36.4890   31.0450   36.2230 H   0  0  0  0  0  0  0  0  0  0  0  0
   37.3190   29.7340   35.3290 H   0  0  0  0  0  0  0  0  0  0  0  0
   38.6120   31.3920   37.4350 O   0  0  0  0  0  0  0  0  0  0  0  0
   39.9520   31.3630   37.7040 C   0  0  0  0  0  2  0  0  0  0  0  0
   40.1860   31.9620   38.9920 N   0  0  0  0  0  4  0  0  0  0  0  0
   39.2400   32.1020   39.4280 H   0  0  0  0  0  0  0  0  0  0  0  0
   40.9880   31.1250   39.8600 C   0  0  0  0  0  2  0  0  0  0  0  0
   40.3210   30.4560   40.4430 H   0  0  0  0  0  0  0  0  0  0  0  0
   40.8170   33.2410   38.8510 C   0  0  0  0  0  2  0  0  0  0  0  0
   40.5570   33.7760   37.9280 H   0  0  0  0  0  0  0  0  0  0  0  0
  2  1  2  1  0  0  0
  2  5  1  0  0  0  0
  2  3  1  0  0  0  0
  3  4  1  0  0  0  0
  5  6  1  0  0  0  0
  6  7  1  0  0  0  0
  6  9  1  0  0  0  0
  8  6  1  0  0  0  0
  9 11  1  0  0  0  0
  9 10  1  0  0  0  0
 12 13  2  0  0  0  0
 12 17  1  0  0  0  0
 13 14  1  0  0  0  0
 14  9  1  0  0  0  0
 14 15  2  0  0  0  0
 16 15  1  0  0  0  0
 16 20  1  0  0  0  0
 17 16  2  0  0  0  0
 18 22  1  0  0  0  0
 18 12  1  0  0  0  0
 19 13  1  0  0  0  0
 21 18  1  0  0  0  0
 23  2  1  0  0  0  0
 24 29  1  6  0  0  0
 24 35  1  0  0  0  0
 24 25  1  0  0  0  0
 25 23  1  0  0  0  0
 25 30  1  1  0  0  0
 26 25  1  0  0  0  0
 26 31  1  0  0  0  0
 27 26  1  0  0  0  0
 28 27  1  0  0  0  0
 28 24  1  0  0  0  0
 32 26  1  0  0  0  0
 33 28  1  0  0  0  0
 34 28  1  0  0  0  0
 35 36  1  0  0  0  0
 36 37  1  0  0  0  0
 37 38  1  0  0  0  0
 37 39  1  0  0  0  0
 39 40  1  0  0  0  0
 41 37  1  0  0  0  0
 42 41  1  0  0  0  0
M  END
>  <minimizedAffinity>
-4.86049271

$$$$

 OpenBabel03242516433D

 42 43  0  0  1  0  0  0  0  0999 V2000
   35.4330   28.5610   40.9900 O   0  0  0  0  0  0  0  0  0  0  0  0
   36.3720   29.7320   40.7710 P   0  0  2  0  0  0  0  0  0  0  0  0
   35.6950   31.1950   41.2120 O   0  0  0  0  0  0  0  0  0  0  0  0
   36.1000   31.9070   40.6560 H   0  0  0  0  0  0  0  0  0  0  0  0
   36.8130   29.7850   39.1480 O   0  0  0  0  0  0  0  0  0  0  0  0
   36.8720   31.0900   38.6830 C   0  0  0  0  0  0  0  0  0  0  0  0
   35.9540   31.2900   38.1030 H   0  0  0  0  0  0  0  0  0  0  0  0
   36.9300   31.7520   39.5940 H   0  0  0  0  0  0  0  0  0  0  0  0
   38.1230   31.3110   37.8950 C   0  0  0  0  0  0  0  0  0  0  0  0
   37.8520   31.7930   36.9220 H   0  0  0  0  0  0  0  0  0  0  0  0
   38.6470   30.3710   37.6560 H   0  0  0  0  0  0  0  0  0  0  0  0
   39.3170   33.8340   40.4250 C   0  0  0  0  0  0  0  0  0  0  0  0
   38.4800   32.9290   39.7310 C   0  0  0  0  0  0  0  0  0  0  0  0
   39.0060   32.2680   38.6270 C   0  0  0  0  0  0  0  0  0  0  0  0
   40.2840   32.5090   38.2560 N   0  0  0  0  0  0  0  0  0  0  0  0
   41.0510   33.3880   38.9510 C   0  0  0  0  0  0  0  0  0  0  0  0
   40.5840   34.0430   40.0180 N   0  0  0  0  0  0  0  0  0  0  0  0
   38.8230   34.5290   41.5550 N   0  0  0  0  0  0  0  0  0  0  0  0
   37.4850   32.8030   40.0970 H   0  0  0  0  0  0  0  0  0  0  0  0
   42.0780   33.5790   38.6500 H   0  0  0  0  0  0  0  0  0  0  0  0
   39.1010   34.2130   42.5160 H   0  0  0  0  0  0  0  0  0  0  0  0
   38.1820   35.3640   41.5870 H   0  0  0  0  0  0  0  0  0  0  0  0
   37.7730   29.5060   41.7280 O   0  0  0  0  0  0  0  0  0  0  0  0
   39.3220   27.7380   41.5630 C   0  0  1  0  0  0  0  0  0  0  0  0
   38.8170   29.0260   40.9870 C   0  0  2  0  0  0  0  0  0  0  0  0
   40.0190   29.9300   41.3540 C   0  0  0  0  0  0  0  0  0  0  0  0
   40.4040   29.5480   42.6090 O   0  0  0  0  0  0  0  0  0  0  0  0
   40.0500   28.2370   42.7980 C   0  0  0  0  0  0  0  0  0  0  0  0
   40.0210   27.2770   40.8340 H   0  0  0  0  0  0  0  0  0  0  0  0
   38.6770   29.0280   39.8920 H   0  0  0  0  0  0  0  0  0  0  0  0
   39.7260   30.9950   41.2710 H   0  0  0  0  0  0  0  0  0  0  0  0
   40.7820   29.7260   40.5830 H   0  0  0  0  0  0  0  0  0  0  0  0
   39.4030   28.1670   43.6820 H   0  0  0  0  0  0  0  0  0  0  0  0
   40.9540   27.6270   42.9680 H   0  0  0  0  0  0  0  0  0  0  0  0
   38.2780   26.8680   41.9080 O   0  0  0  0  0  0  0  0  0  0  0  0
   37.9620   26.0490   40.8600 C   0  0  0  0  0  2  0  0  0  0  0  0
   37.4650   24.8000   41.3730 N   0  0  0  0  0  4  0  0  0  0  0  0
   36.5260   25.0090   41.8000 H   0  0  0  0  0  0  0  0  0  0  0  0
   37.3020   23.7970   40.3410 C   0  0  0  0  0  2  0  0  0  0  0  0
   36.2800   23.8730   39.9140 H   0  0  0  0  0  0  0  0  0  0  0  0
   38.3280   24.2910   42.3970 C   0  0  0  0  0  2  0  0  0  0  0  0
   38.8510   25.0640   42.9760 H   0  0  0  0  0  0  0  0  0  0  0  0
  2  1  2  1  0  0  0
  2  3  1  0  0  0  0
  2 23  1  0  0  0  0
  4  3  1  0  0  0  0
  5  2  1  0  0  0  0
  6  5  1  0  0  0  0
  6  8  1  0  0  0  0
  7  6  1  0  0  0  0
  9 14  1  0  0  0  0
  9  6  1  0  0  0  0
 10  9  1  0  0  0  0
 11  9  1  0  0  0  0
 12 18  1  0  0  0  0
 13 19  1  0  0  0  0
 13 12  2  0  0  0  0
 14 13  1  0  0  0  0
 15 14  2  0  0  0  0
 15 16  1  0  0  0  0
 16 17  2  0  0  0  0
 17 12  1  0  0  0  0
 18 22  1  0  0  0  0
 18 21  1  0  0  0  0
 20 16  1  0  0  0  0
 24 29  1  6  0  0  0
 24 35  1  0  0  0  0
 24 28  1  0  0  0  0
 25 30  1  6  0  0  0
 25 26  1  0  0  0  0
 25 24  1  0  0  0  0
 25 23  1  0  0  0  0
 26 27  1  0  0  0  0
 27 28  1  0  0  0  0
 28 34  1  0  0  0  0
 28 33  1  0  0  0  0
 31 26  1  0  0  0  0
 32 26  1  0  0  0  0
 36 37  1  0  0  0  0
 36 35  1  0  0  0  0
 37 38  1  0  0  0  0
 37 41  1  0  0  0  0
 39 37  1  0  0  0  0
 40 39  1  0  0  0  0
 41 42  1  0  0  0  0
M  END
>  <minimizedAffinity>
-4.84696674

$$$$
