
 OpenBabel03252508593D

 43 44  0  0  1  0  0  0  0  0999 V2000
   46.7080   34.3800   43.6370 N   0  0  0  0  0  0  0  0  0  0  0  0
   46.2880   35.1570   42.5250 C   0  0  0  0  0  0  0  0  0  0  0  0
   44.7950   35.2860   42.3550 C   0  0  0  0  0  0  0  0  0  0  0  0
   44.0130   35.2770   43.6430 C   0  0  0  0  0  0  0  0  0  0  0  0
   44.9270   35.2650   44.8440 C   0  0  0  0  0  0  0  0  0  0  0  0
   45.8070   33.9810   44.6120 C   0  0  2  0  0  0  0  0  0  0  0  0
   46.6980   34.8700   41.5530 H   0  0  0  0  0  0  0  0  0  0  0  0
   46.6780   36.1980   42.7130 H   0  0  0  0  0  0  0  0  0  0  0  0
   44.5680   36.2630   41.8540 H   0  0  0  0  0  0  0  0  0  0  0  0
   44.4610   34.5170   41.6300 H   0  0  0  0  0  0  0  0  0  0  0  0
   43.3770   34.3790   43.7020 H   0  0  0  0  0  0  0  0  0  0  0  0
   43.3340   36.1510   43.7580 H   0  0  0  0  0  0  0  0  0  0  0  0
   45.5960   36.1240   44.9020 H   0  0  0  0  0  0  0  0  0  0  0  0
   44.3620   35.0180   45.7510 H   0  0  0  0  0  0  0  0  0  0  0  0
   45.1150   33.1470   44.3640 H   0  0  0  0  0  0  0  0  0  0  0  0
   47.8560   33.5630   43.3810 C   0  0  0  0  0  0  0  0  0  0  0  0
   48.3290   33.2080   44.3300 H   0  0  0  0  0  0  0  0  0  0  0  0
   48.6000   34.1360   42.8230 H   0  0  0  0  0  0  0  0  0  0  0  0
   47.4190   32.3420   42.6260 C   0  0  0  0  0  0  0  0  0  0  0  0
   46.3420   32.4340   42.3200 H   0  0  0  0  0  0  0  0  0  0  0  0
   47.4940   31.3980   43.1740 H   0  0  0  0  0  0  0  0  0  0  0  0
   50.2110   31.6760   40.2010 C   0  0  0  0  0  0  0  0  0  0  0  0
   49.4720   31.7630   41.3960 C   0  0  0  0  0  0  0  0  0  0  0  0
   48.1910   32.2540   41.3570 C   0  0  0  0  0  0  0  0  0  0  0  0
   47.7040   32.6310   40.1670 N   0  0  0  0  0  0  0  0  0  0  0  0
   48.4210   32.5430   39.0310 C   0  0  0  0  0  0  0  0  0  0  0  0
   49.6780   32.0650   39.0360 N   0  0  0  0  0  0  0  0  0  0  0  0
   51.2020   31.2780   40.3340 H   0  0  0  0  0  0  0  0  0  0  0  0
   49.8760   31.4590   42.3310 H   0  0  0  0  0  0  0  0  0  0  0  0
   47.9360   32.8730   38.1220 H   0  0  0  0  0  0  0  0  0  0  0  0
   46.4180   33.8410   45.8490 O   0  0  0  0  0  0  0  0  0  0  0  0
   45.7680   31.2920   45.4630 O   0  0  0  0  0  0  0  0  0  0  0  0
   46.1900   32.3150   46.5210 P   0  0  2  0  0  0  0  0  0  0  0  0
   44.8260   32.4510   47.5500 O   0  0  0  0  0  0  0  0  0  0  0  0
   45.1060   32.7500   48.4510 H   0  0  0  0  0  0  0  0  0  0  0  0
   47.4870   31.8260   47.4310 O   0  0  0  0  0  0  0  0  0  0  0  0
   47.5130   30.5010   47.7650 C   0  0  0  0  0  2  0  0  0  0  0  0
   48.8450   30.1920   48.2550 N   0  0  0  0  0  4  0  0  0  0  0  0
   49.5270   30.7250   47.6710 H   0  0  0  0  0  0  0  0  0  0  0  0
   48.9860   30.6400   49.6290 C   0  0  0  0  0  2  0  0  0  0  0  0
   48.0420   30.4940   50.1930 H   0  0  0  0  0  0  0  0  0  0  0  0
   49.1410   28.7760   48.2020 C   0  0  0  0  0  2  0  0  0  0  0  0
   48.3070   28.1450   48.4990 H   0  0  0  0  0  0  0  0  0  0  0  0
  1  6  1  0  0  0  0
  2  8  1  0  0  0  0
  2  1  1  0  0  0  0
  3  2  1  0  0  0  0
  3  4  1  0  0  0  0
  4 11  1  0  0  0  0
  4 12  1  0  0  0  0
  4  5  1  0  0  0  0
  5 13  1  0  0  0  0
  5 14  1  0  0  0  0
  6 15  1  6  0  0  0
  6  5  1  0  0  0  0
  6 31  1  0  0  0  0
  7  2  1  0  0  0  0
  9  3  1  0  0  0  0
 10  3  1  0  0  0  0
 16  1  1  0  0  0  0
 16 17  1  0  0  0  0
 18 16  1  0  0  0  0
 19 21  1  0  0  0  0
 19 16  1  0  0  0  0
 20 19  1  0  0  0  0
 22 28  1  0  0  0  0
 22 23  1  0  0  0  0
 23 29  1  0  0  0  0
 24 23  2  0  0  0  0
 24 19  1  0  0  0  0
 25 24  1  0  0  0  0
 26 27  1  0  0  0  0
 26 25  2  0  0  0  0
 27 22  2  0  0  0  0
 30 26  1  0  0  0  0
 31 33  1  0  0  0  0
 33 32  2  6  0  0  0
 33 36  1  0  0  0  0
 33 34  1  0  0  0  0
 34 35  1  0  0  0  0
 36 37  1  0  0  0  0
 37 38  1  0  0  0  0
 38 40  1  0  0  0  0
 39 38  1  0  0  0  0
 40 41  1  0  0  0  0
 42 38  1  0  0  0  0
 42 43  1  0  0  0  0
M  END
>  <minimizedAffinity>
-4.26385498

>  <minimizedRMSD>
2.05388546

$$$$
