
 OpenBabel03252508593D

 43 44  0  0  1  0  0  0  0  0999 V2000
   46.7680   34.4010   43.3370 N   0  0  0  0  0  0  0  0  0  0  0  0
   46.4780   34.8490   42.0210 C   0  0  0  0  0  0  0  0  0  0  0  0
   45.0240   34.7820   41.6240 C   0  0  0  0  0  0  0  0  0  0  0  0
   44.0530   34.9950   42.7560 C   0  0  0  0  0  0  0  0  0  0  0  0
   44.7670   35.3570   44.0350 C   0  0  0  0  0  0  0  0  0  0  0  0
   45.7550   34.1510   44.2490 C   0  0  2  0  0  0  0  0  0  0  0  0
   47.0520   34.3860   41.2150 H   0  0  0  0  0  0  0  0  0  0  0  0
   46.7640   35.9390   41.9980 H   0  0  0  0  0  0  0  0  0  0  0  0
   44.8140   35.5860   40.8710 H   0  0  0  0  0  0  0  0  0  0  0  0
   44.8580   33.8350   41.0720 H   0  0  0  0  0  0  0  0  0  0  0  0
   43.4760   34.0770   42.9480 H   0  0  0  0  0  0  0  0  0  0  0  0
   43.3090   35.7980   42.5590 H   0  0  0  0  0  0  0  0  0  0  0  0
   45.3600   36.2700   43.9700 H   0  0  0  0  0  0  0  0  0  0  0  0
   44.0850   35.2740   44.8900 H   0  0  0  0  0  0  0  0  0  0  0  0
   45.1670   33.2170   44.1230 H   0  0  0  0  0  0  0  0  0  0  0  0
   47.9940   33.6670   43.4490 C   0  0  0  0  0  0  0  0  0  0  0  0
   48.2700   33.4860   44.5160 H   0  0  0  0  0  0  0  0  0  0  0  0
   48.8040   34.2280   42.9760 H   0  0  0  0  0  0  0  0  0  0  0  0
   47.8090   32.3210   42.8100 C   0  0  0  0  0  0  0  0  0  0  0  0
   46.8660   32.3020   42.2010 H   0  0  0  0  0  0  0  0  0  0  0  0
   47.7340   31.4780   43.5040 H   0  0  0  0  0  0  0  0  0  0  0  0
   51.2610   32.1040   41.3420 C   0  0  0  0  0  0  0  0  0  0  0  0
   50.2060   32.3230   42.2480 C   0  0  0  0  0  0  0  0  0  0  0  0
   48.9150   32.0860   41.8440 C   0  0  0  0  0  0  0  0  0  0  0  0
   48.7250   31.6530   40.5910 N   0  0  0  0  0  0  0  0  0  0  0  0
   49.7420   31.4470   39.7330 C   0  0  0  0  0  0  0  0  0  0  0  0
   51.0170   31.6700   40.0990 N   0  0  0  0  0  0  0  0  0  0  0  0
   52.2330   32.3170   41.7510 H   0  0  0  0  0  0  0  0  0  0  0  0
   50.3780   32.6670   43.2390 H   0  0  0  0  0  0  0  0  0  0  0  0
   49.4810   31.0960   38.7440 H   0  0  0  0  0  0  0  0  0  0  0  0
   46.1730   34.3670   45.5530 O   0  0  0  0  0  0  0  0  0  0  0  0
   45.6150   31.7720   45.6990 O   0  0  0  0  0  0  0  0  0  0  0  0
   46.0490   32.9920   46.5150 P   0  0  2  0  0  0  0  0  0  0  0  0
   44.7380   33.2780   47.5810 O   0  0  0  0  0  0  0  0  0  0  0  0
   45.0530   33.7540   48.3910 H   0  0  0  0  0  0  0  0  0  0  0  0
   47.4130   32.7290   47.4200 O   0  0  0  0  0  0  0  0  0  0  0  0
   47.2830   31.8360   48.4450 C   0  0  0  0  0  2  0  0  0  0  0  0
   48.3490   30.8560   48.3200 N   0  0  0  0  0  4  0  0  0  0  0  0
   49.0810   31.2650   47.6990 H   0  0  0  0  0  0  0  0  0  0  0  0
   48.9520   30.6080   49.6190 C   0  0  0  0  0  2  0  0  0  0  0  0
   48.1860   30.6300   50.4220 H   0  0  0  0  0  0  0  0  0  0  0  0
   47.8830   29.5950   47.7830 C   0  0  0  0  0  2  0  0  0  0  0  0
   46.9180   29.2830   48.1770 H   0  0  0  0  0  0  0  0  0  0  0  0
  1 16  1  0  0  0  0
  1  6  1  0  0  0  0
  2  1  1  0  0  0  0
  3  2  1  0  0  0  0
  3  4  1  0  0  0  0
  4 11  1  0  0  0  0
  4  5  1  0  0  0  0
  5  6  1  0  0  0  0
  5 14  1  0  0  0  0
  6 15  1  6  0  0  0
  6 31  1  0  0  0  0
  7  2  1  0  0  0  0
  8  2  1  0  0  0  0
  9  3  1  0  0  0  0
 10  3  1  0  0  0  0
 12  4  1  0  0  0  0
 13  5  1  0  0  0  0
 16 17  1  0  0  0  0
 18 16  1  0  0  0  0
 19 16  1  0  0  0  0
 19 21  1  0  0  0  0
 20 19  1  0  0  0  0
 22 28  1  0  0  0  0
 22 23  1  0  0  0  0
 23 29  1  0  0  0  0
 24 23  2  0  0  0  0
 24 19  1  0  0  0  0
 25 24  1  0  0  0  0
 26 27  1  0  0  0  0
 26 25  2  0  0  0  0
 27 22  2  0  0  0  0
 30 26  1  0  0  0  0
 31 33  1  0  0  0  0
 33 32  2  6  0  0  0
 33 36  1  0  0  0  0
 33 34  1  0  0  0  0
 34 35  1  0  0  0  0
 36 37  1  0  0  0  0
 38 37  1  0  0  0  0
 38 40  1  0  0  0  0
 39 38  1  0  0  0  0
 40 41  1  0  0  0  0
 42 43  1  0  0  0  0
 42 38  1  0  0  0  0
M  END
>  <minimizedAffinity>
-4.5395999

>  <minimizedRMSD>
2.71520829

$$$$
