
 OpenBabel03242517103D

 45 47  0  0  1  0  0  0  0  0999 V2000
   45.9740   33.8610   43.1260 C   0  0  2  0  0  0  0  0  0  0  0  0
   45.2050   34.9600   42.4780 C   0  0  2  0  0  0  0  0  0  0  0  0
   45.0830   36.1660   43.3320 C   0  0  0  0  0  0  0  0  0  0  0  0
   44.5690   35.8980   44.7210 C   0  0  0  0  0  0  0  0  0  0  0  0
   45.0330   34.5990   45.3020 C   0  0  0  0  0  0  0  0  0  0  0  0
   46.2520   34.0520   44.5870 C   0  0  0  0  0  0  0  0  0  0  0  0
   45.3770   32.9060   43.0170 H   0  0  0  0  0  0  0  0  0  0  0  0
   45.7360   35.2610   41.5500 H   0  0  0  0  0  0  0  0  0  0  0  0
   44.4300   36.9000   42.8320 H   0  0  0  0  0  0  0  0  0  0  0  0
   46.0820   36.6580   43.4370 H   0  0  0  0  0  0  0  0  0  0  0  0
   43.4460   35.8560   44.6480 H   0  0  0  0  0  0  0  0  0  0  0  0
   44.7970   36.7740   45.3550 H   0  0  0  0  0  0  0  0  0  0  0  0
   45.3810   34.8270   46.3400 H   0  0  0  0  0  0  0  0  0  0  0  0
   44.2460   33.8400   45.4090 H   0  0  0  0  0  0  0  0  0  0  0  0
   47.1490   34.5840   44.8630 H   0  0  0  0  0  0  0  0  0  0  0  0
   46.3820   33.0110   45.0180 H   0  0  0  0  0  0  0  0  0  0  0  0
   43.0210   35.4530   41.3100 C   0  0  1  0  0  0  0  0  0  0  0  0
   43.8440   34.4580   42.0470 C   0  0  1  0  0  0  0  0  0  0  0  0
   44.0330   33.3450   41.2370 O   0  0  0  0  0  0  0  0  0  0  0  0
   43.7820   33.7280   39.9270 C   0  0  0  0  0  0  0  0  0  0  0  0
   42.5650   34.6020   40.1040 C   0  0  2  0  0  0  0  0  0  0  0  0
   43.5700   36.3140   40.9270 H   0  0  0  0  0  0  0  0  0  0  0  0
   43.2670   34.1310   42.9440 H   0  0  0  0  0  0  0  0  0  0  0  0
   43.6100   32.8200   39.3410 H   0  0  0  0  0  0  0  0  0  0  0  0
   44.6270   34.3280   39.5180 H   0  0  0  0  0  0  0  0  0  0  0  0
   41.6830   34.0230   40.3780 H   0  0  0  0  0  0  0  0  0  0  0  0
   41.8890   35.8510   41.9970 O   0  0  0  0  0  0  0  0  0  0  0  0
   41.2150   36.2820   41.4400 H   0  0  0  0  0  0  0  0  0  0  0  0
   42.3660   35.4350   39.0100 O   0  0  0  0  0  0  0  0  0  0  0  0
   41.0170   35.4980   38.7260 C   0  0  0  0  0  2  0  0  0  0  0  0
   40.2740   34.3320   39.1360 N   0  0  0  0  0  4  0  0  0  0  0  0
   40.8220   33.7490   39.7810 H   0  0  0  0  0  0  0  0  0  0  0  0
   39.0490   34.7600   39.8210 C   0  0  0  0  0  2  0  0  0  0  0  0
   38.2400   34.7240   39.0580 H   0  0  0  0  0  0  0  0  0  0  0  0
   39.9150   33.5210   37.9770 C   0  0  0  0  0  2  0  0  0  0  0  0
   39.2890   32.6840   38.3140 H   0  0  0  0  0  0  0  0  0  0  0  0
   47.2500   33.5870   42.4360 C   0  0  0  0  0  0  0  0  0  0  0  0
   48.3340   34.3420   42.8810 C   0  0  0  0  0  0  0  0  0  0  0  0
   49.6010   34.1640   42.3000 C   0  0  0  0  0  0  0  0  0  0  0  0
   49.6710   33.2130   41.2910 N   0  0  0  0  0  0  0  0  0  0  0  0
   48.5920   32.5010   40.8890 C   0  0  0  0  0  0  0  0  0  0  0  0
   47.3890   32.6900   41.4610 N   0  0  0  0  0  0  0  0  0  0  0  0
   48.4270   35.1090   43.6340 H   0  0  0  0  0  0  0  0  0  0  0  0
   50.5100   34.6840   42.5590 H   0  0  0  0  0  0  0  0  0  0  0  0
   48.7770   31.7900   40.0910 H   0  0  0  0  0  0  0  0  0  0  0  0
  1  7  1  6  0  0  0
  1  6  1  0  0  0  0
  2  8  1  6  0  0  0
  2  1  1  0  0  0  0
  2  3  1  0  0  0  0
  3 10  1  0  0  0  0
  3  4  1  0  0  0  0
  4  5  1  0  0  0  0
  4 12  1  0  0  0  0
  5 14  1  0  0  0  0
  5 13  1  0  0  0  0
  6 15  1  0  0  0  0
  6 16  1  0  0  0  0
  6  5  1  0  0  0  0
  9  3  1  0  0  0  0
 11  4  1  0  0  0  0
 17 22  1  6  0  0  0
 17 27  1  0  0  0  0
 17 18  1  0  0  0  0
 18  2  1  0  0  0  0
 18 23  1  1  0  0  0
 19 18  1  0  0  0  0
 20 21  1  0  0  0  0
 20 19  1  0  0  0  0
 21 26  1  1  0  0  0
 21 17  1  0  0  0  0
 24 20  1  0  0  0  0
 25 20  1  0  0  0  0
 28 27  1  0  0  0  0
 29 21  1  0  0  0  0
 30 29  1  0  0  0  0
 30 31  1  0  0  0  0
 31 32  1  0  0  0  0
 31 33  1  0  0  0  0
 34 33  1  0  0  0  0
 35 36  1  0  0  0  0
 35 31  1  0  0  0  0
 37 38  1  0  0  0  0
 37  1  1  0  0  0  0
 38 43  1  0  0  0  0
 39 44  1  0  0  0  0
 39 38  2  0  0  0  0
 40 39  1  0  0  0  0
 41 40  2  0  0  0  0
 41 42  1  0  0  0  0
 42 37  2  0  0  0  0
 45 41  1  0  0  0  0
M  END
>  <minimizedAffinity>
-5.75229216

>  <minimizedRMSD>
0.355177373

$$$$
