
 OpenBabel03252503363D

 40 42  0  0  1  0  0  0  0  0999 V2000
   48.6100   30.1510   40.1720 C   0  0  0  0  0  0  0  0  0  0  0  0
   49.1150   31.3560   39.9100 C   0  0  0  0  0  0  0  0  0  0  0  0
   48.2760   32.4970   39.8970 N   0  0  0  0  0  0  0  0  0  0  0  0
   48.0770   33.8720   40.1640 C   0  0  0  0  0  0  0  0  0  0  0  0
   48.8130   34.8360   40.5550 O   0  0  0  0  0  0  0  0  0  0  0  0
   46.6620   33.8740   39.8350 C   0  0  1  0  0  0  0  0  0  0  0  0
   46.9130   32.4470   39.4090 C   0  0  2  0  0  0  0  0  0  0  0  0
   46.0550   31.1820   40.3540 S   0  0  0  0  0  0  0  0  0  0  0  0
   47.1930   29.8030   40.4810 C   0  0  0  0  0  0  0  0  0  0  0  0
   46.3320   34.4370   38.9180 H   0  0  0  0  0  0  0  0  0  0  0  0
   46.8880   32.2990   38.3080 H   0  0  0  0  0  0  0  0  0  0  0  0
   46.9240   28.9580   39.8350 H   0  0  0  0  0  0  0  0  0  0  0  0
   47.1870   29.4660   41.5420 H   0  0  0  0  0  0  0  0  0  0  0  0
   45.8040   34.0840   40.9910 C   0  0  0  0  0  0  0  0  0  0  0  0
   44.5760   33.9930   41.1650 O   0  0  0  0  0  0  0  0  0  0  0  0
   46.5240   34.4750   42.1780 N   0  0  0  0  0  0  0  0  0  0  0  0
   47.5350   34.6310   42.3950 H   0  0  0  0  0  0  0  0  0  0  0  0
   44.4880   36.1150   44.8130 C   0  0  0  0  0  0  0  0  0  0  0  0
   45.1130   35.8880   43.5860 C   0  0  0  0  0  0  0  0  0  0  0  0
   45.8540   34.7380   43.3970 C   0  0  0  0  0  0  0  0  0  0  0  0
   45.9530   33.8620   44.4100 N   0  0  0  0  0  0  0  0  0  0  0  0
   45.3370   34.0950   45.6080 C   0  0  0  0  0  0  0  0  0  0  0  0
   44.6170   35.2170   45.7850 N   0  0  0  0  0  0  0  0  0  0  0  0
   43.9370   37.0510   44.8380 H   0  0  0  0  0  0  0  0  0  0  0  0
   45.0360   36.6000   42.7520 H   0  0  0  0  0  0  0  0  0  0  0  0
   45.4240   33.3830   46.4150 H   0  0  0  0  0  0  0  0  0  0  0  0
   49.5950   29.0420   40.1480 C   0  0  0  0  0  0  0  0  0  0  0  0
   50.0820   28.8980   39.1610 H   0  0  0  0  0  0  0  0  0  0  0  0
   49.1620   28.0870   40.5030 H   0  0  0  0  0  0  0  0  0  0  0  0
   50.4010   29.3570   40.8630 H   0  0  0  0  0  0  0  0  0  0  0  0
   50.5280   31.5430   39.6320 C   0  0  0  0  0  0  0  0  0  0  0  0
   50.9810   31.7510   38.4720 O   0  0  0  0  0  0  0  0  0  0  0  0
   51.6560   31.5520   40.4230 O   0  0  0  0  0  0  0  0  0  0  0  0
   52.9590   31.3770   39.9740 C   0  0  0  0  0  2  0  0  0  0  0  0
   53.4600   30.1470   40.5530 N   0  0  0  0  0  4  0  0  0  0  0  0
   54.4730   30.3490   40.8090 H   0  0  0  0  0  0  0  0  0  0  0  0
   53.3210   28.9960   39.7150 C   0  0  0  0  0  2  0  0  0  0  0  0
   52.9920   28.0750   40.2560 H   0  0  0  0  0  0  0  0  0  0  0  0
   52.8190   29.8650   41.8240 C   0  0  0  0  0  2  0  0  0  0  0  0
   52.8440   28.7860   42.0660 H   0  0  0  0  0  0  0  0  0  0  0  0
  1  9  1  0  0  0  0
  2  1  2  0  0  0  0
  3  2  1  0  0  0  0
  3  4  1  0  0  0  0
  4  5  2  0  0  0  0
  6 10  1  6  0  0  0
  6  4  1  0  0  0  0
  6 14  1  0  0  0  0
  7 11  1  6  0  0  0
  7  6  1  0  0  0  0
  7  3  1  0  0  0  0
  7  8  1  0  0  0  0
  8  9  1  0  0  0  0
  9 13  1  0  0  0  0
 12  9  1  0  0  0  0
 14 15  2  0  0  0  0
 14 16  1  0  0  0  0
 16 17  1  0  0  0  0
 16 20  1  0  0  0  0
 18 24  1  0  0  0  0
 18 23  1  0  0  0  0
 19 18  2  0  0  0  0
 20 19  1  0  0  0  0
 20 21  2  0  0  0  0
 21 22  1  0  0  0  0
 22 23  2  0  0  0  0
 22 26  1  0  0  0  0
 25 19  1  0  0  0  0
 27  1  1  0  0  0  0
 27 29  1  0  0  0  0
 27 30  1  0  0  0  0
 28 27  1  0  0  0  0
 31  2  1  0  0  0  0
 31 33  1  0  0  0  0
 32 31  2  0  0  0  0
 34 33  1  0  0  0  0
 34 35  1  0  0  0  0
 35 36  1  0  0  0  0
 35 39  1  0  0  0  0
 37 38  1  0  0  0  0
 37 35  1  0  0  0  0
 39 40  1  0  0  0  0
M  END
>  <minimizedAffinity>
-4.36523867

>  <minimizedRMSD>
0.879208565

$$$$
