
 OpenBabel03242518273D

 19 19  0  0  0  0  0  0  0  0999 V2000
   47.1370   34.9210   41.9740 C   0  0  0  0  0  0  0  0  0  0  0  0
   48.1990   35.5930   41.8100 O   0  0  0  0  0  0  0  0  0  0  0  0
   46.3440   34.8780   43.1650 C   0  0  0  0  0  0  0  0  0  0  0  0
   45.3860   35.8940   43.2330 C   0  0  0  0  0  0  0  0  0  0  0  0
   44.5650   35.9170   44.3810 C   0  0  0  0  0  0  0  0  0  0  0  0
   44.7410   34.9790   45.3340 N   0  0  0  0  0  0  0  0  0  0  0  0
   45.6900   34.0140   45.2160 C   0  0  0  0  0  0  0  0  0  0  0  0
   46.4770   33.9750   44.1360 N   0  0  0  0  0  0  0  0  0  0  0  0
   45.2060   36.6660   42.4980 H   0  0  0  0  0  0  0  0  0  0  0  0
   43.8070   36.6760   44.4910 H   0  0  0  0  0  0  0  0  0  0  0  0
   45.8440   33.2500   45.9770 H   0  0  0  0  0  0  0  0  0  0  0  0
   46.6680   34.1470   40.9280 O   0  0  0  0  0  0  0  0  0  0  0  0
   47.4520   33.9830   39.7370 C   0  0  0  0  0  2  0  0  0  0  0  0
   47.7060   32.6140   39.4150 N   0  0  0  0  0  4  0  0  0  0  0  0
   46.9100   32.1590   38.9540 H   0  0  0  0  0  0  0  0  0  0  0  0
   48.7960   32.6390   38.4320 C   0  0  0  0  0  2  0  0  0  0  0  0
   49.5100   33.4030   38.8180 H   0  0  0  0  0  0  0  0  0  0  0  0
   48.1740   31.8360   40.5400 C   0  0  0  0  0  2  0  0  0  0  0  0
   47.3910   31.5290   41.2430 H   0  0  0  0  0  0  0  0  0  0  0  0
  1  3  1  0  0  0  0
  2  1  2  0  0  0  0
  3  4  2  0  0  0  0
  3  8  1  0  0  0  0
  4  5  1  0  0  0  0
  5 10  1  0  0  0  0
  5  6  2  0  0  0  0
  7  6  1  0  0  0  0
  7 11  1  0  0  0  0
  8  7  2  0  0  0  0
  9  4  1  0  0  0  0
 12  1  1  0  0  0  0
 13 12  1  0  0  0  0
 14 13  1  0  0  0  0
 14 18  1  0  0  0  0
 15 14  1  0  0  0  0
 16 17  1  0  0  0  0
 16 14  1  0  0  0  0
 18 19  1  0  0  0  0
M  END
>  <minimizedAffinity>
-3.47495246

>  <minimizedRMSD>
0.392721236

$$$$
