
 OpenBabel03242518273D

 19 19  0  0  0  0  0  0  0  0999 V2000
   47.0650   34.9080   41.9380 C   0  0  0  0  0  0  0  0  0  0  0  0
   48.1400   35.5520   41.7530 O   0  0  0  0  0  0  0  0  0  0  0  0
   46.3030   34.8750   43.1500 C   0  0  0  0  0  0  0  0  0  0  0  0
   45.3650   35.9080   43.2450 C   0  0  0  0  0  0  0  0  0  0  0  0
   44.5740   35.9410   44.4140 C   0  0  0  0  0  0  0  0  0  0  0  0
   44.7590   34.9980   45.3600 N   0  0  0  0  0  0  0  0  0  0  0  0
   45.6870   34.0160   45.2150 C   0  0  0  0  0  0  0  0  0  0  0  0
   46.4450   33.9670   44.1140 N   0  0  0  0  0  0  0  0  0  0  0  0
   45.1800   36.6850   42.5170 H   0  0  0  0  0  0  0  0  0  0  0  0
   43.8330   36.7140   44.5460 H   0  0  0  0  0  0  0  0  0  0  0  0
   45.8470   33.2470   45.9690 H   0  0  0  0  0  0  0  0  0  0  0  0
   46.5480   34.1570   40.8990 O   0  0  0  0  0  0  0  0  0  0  0  0
   47.0470   32.8360   40.6380 C   0  0  0  0  0  2  0  0  0  0  0  0
   48.1270   32.4640   41.4930 N   0  0  0  0  0  4  0  0  0  0  0  0
   48.2750   33.1280   42.2620 H   0  0  0  0  0  0  0  0  0  0  0  0
   47.7200   31.1970   42.1120 C   0  0  0  0  0  2  0  0  0  0  0  0
   47.2580   30.6090   41.2840 H   0  0  0  0  0  0  0  0  0  0  0  0
   49.3600   32.2030   40.7830 C   0  0  0  0  0  2  0  0  0  0  0  0
   49.9100   33.1010   40.4740 H   0  0  0  0  0  0  0  0  0  0  0  0
  1  3  1  0  0  0  0
  2  1  2  0  0  0  0
  3  4  2  0  0  0  0
  3  8  1  0  0  0  0
  4  5  1  0  0  0  0
  5 10  1  0  0  0  0
  5  6  2  0  0  0  0
  7  6  1  0  0  0  0
  7 11  1  0  0  0  0
  8  7  2  0  0  0  0
  9  4  1  0  0  0  0
 12  1  1  0  0  0  0
 13 12  1  0  0  0  0
 13 14  1  0  0  0  0
 14 16  1  0  0  0  0
 14 15  1  0  0  0  0
 17 16  1  0  0  0  0
 18 14  1  0  0  0  0
 19 18  1  0  0  0  0
M  END
>  <minimizedAffinity>
-3.41016626

>  <minimizedRMSD>
2.1851275

$$$$
