
 OpenBabel03242518283D

 19 19  0  0  0  0  0  0  0  0999 V2000
   47.3330   34.9960   41.8570 C   0  0  0  0  0  0  0  0  0  0  0  0
   48.4040   35.6670   41.7670 O   0  0  0  0  0  0  0  0  0  0  0  0
   46.5120   34.8760   43.0240 C   0  0  0  0  0  0  0  0  0  0  0  0
   45.5010   35.8390   43.0930 C   0  0  0  0  0  0  0  0  0  0  0  0
   44.6490   35.7860   44.2170 C   0  0  0  0  0  0  0  0  0  0  0  0
   44.8480   34.8300   45.1490 N   0  0  0  0  0  0  0  0  0  0  0  0
   45.8490   33.9190   45.0300 C   0  0  0  0  0  0  0  0  0  0  0  0
   46.6660   33.9530   43.9720 N   0  0  0  0  0  0  0  0  0  0  0  0
   45.3010   36.6220   42.3750 H   0  0  0  0  0  0  0  0  0  0  0  0
   43.8490   36.5010   44.3270 H   0  0  0  0  0  0  0  0  0  0  0  0
   46.0220   33.1410   45.7730 H   0  0  0  0  0  0  0  0  0  0  0  0
   46.8830   34.3010   40.7490 O   0  0  0  0  0  0  0  0  0  0  0  0
   47.7980   33.9190   39.7100 C   0  0  0  0  0  2  0  0  0  0  0  0
   47.2430   34.0420   38.4000 N   0  0  0  0  0  4  0  0  0  0  0  0
   46.5320   34.7780   38.3350 H   0  0  0  0  0  0  0  0  0  0  0  0
   48.3560   34.4650   37.5400 C   0  0  0  0  0  2  0  0  0  0  0  0
   49.2220   33.8460   37.8700 H   0  0  0  0  0  0  0  0  0  0  0  0
   46.7520   32.7930   37.8620 C   0  0  0  0  0  2  0  0  0  0  0  0
   45.7750   32.4780   38.2490 H   0  0  0  0  0  0  0  0  0  0  0  0
  1  3  1  0  0  0  0
  2  1  2  0  0  0  0
  3  4  2  0  0  0  0
  3  8  1  0  0  0  0
  4  5  1  0  0  0  0
  5 10  1  0  0  0  0
  5  6  2  0  0  0  0
  7  6  1  0  0  0  0
  7 11  1  0  0  0  0
  8  7  2  0  0  0  0
  9  4  1  0  0  0  0
 12  1  1  0  0  0  0
 13 12  1  0  0  0  0
 14 13  1  0  0  0  0
 15 14  1  0  0  0  0
 16 17  1  0  0  0  0
 16 14  1  0  0  0  0
 18 19  1  0  0  0  0
 18 14  1  0  0  0  0
M  END
>  <minimizedAffinity>
-3.94249225

>  <minimizedRMSD>
0.863954663

$$$$
