
 OpenBabel03242518283D

 19 19  0  0  0  0  0  0  0  0999 V2000
   47.3330   34.9810   41.9160 C   0  0  0  0  0  0  0  0  0  0  0  0
   48.3780   35.6910   41.8130 O   0  0  0  0  0  0  0  0  0  0  0  0
   46.5030   34.8710   43.0780 C   0  0  0  0  0  0  0  0  0  0  0  0
   45.4970   35.8400   43.1360 C   0  0  0  0  0  0  0  0  0  0  0  0
   44.6370   35.7960   44.2540 C   0  0  0  0  0  0  0  0  0  0  0  0
   44.8240   34.8430   45.1910 N   0  0  0  0  0  0  0  0  0  0  0  0
   45.8200   33.9250   45.0830 C   0  0  0  0  0  0  0  0  0  0  0  0
   46.6450   33.9510   44.0300 N   0  0  0  0  0  0  0  0  0  0  0  0
   45.3070   36.6210   42.4140 H   0  0  0  0  0  0  0  0  0  0  0  0
   43.8410   36.5170   44.3560 H   0  0  0  0  0  0  0  0  0  0  0  0
   45.9840   33.1500   45.8300 H   0  0  0  0  0  0  0  0  0  0  0  0
   46.9250   34.2300   40.8300 O   0  0  0  0  0  0  0  0  0  0  0  0
   47.7560   34.1280   39.6630 C   0  0  0  0  0  2  0  0  0  0  0  0
   48.1890   32.7930   39.3960 N   0  0  0  0  0  4  0  0  0  0  0  0
   47.4240   32.1100   39.4330 H   0  0  0  0  0  0  0  0  0  0  0  0
   48.6680   32.8060   38.0090 C   0  0  0  0  0  2  0  0  0  0  0  0
   49.2500   33.7530   37.9170 H   0  0  0  0  0  0  0  0  0  0  0  0
   49.3010   32.3720   40.2190 C   0  0  0  0  0  2  0  0  0  0  0  0
   49.0330   32.0850   41.2420 H   0  0  0  0  0  0  0  0  0  0  0  0
  1  3  1  0  0  0  0
  2  1  2  0  0  0  0
  3  4  2  0  0  0  0
  3  8  1  0  0  0  0
  4  5  1  0  0  0  0
  5 10  1  0  0  0  0
  5  6  2  0  0  0  0
  7  6  1  0  0  0  0
  7 11  1  0  0  0  0
  8  7  2  0  0  0  0
  9  4  1  0  0  0  0
 12  1  1  0  0  0  0
 13 12  1  0  0  0  0
 14 15  1  0  0  0  0
 14 13  1  0  0  0  0
 14 18  1  0  0  0  0
 16 14  1  0  0  0  0
 17 16  1  0  0  0  0
 18 19  1  0  0  0  0
M  END
>  <minimizedAffinity>
-3.5413866

>  <minimizedRMSD>
0.826566219

$$$$
