
 OpenBabel03242518283D

 19 19  0  0  0  0  0  0  0  0999 V2000
   47.1170   34.9290   41.9530 C   0  0  0  0  0  0  0  0  0  0  0  0
   48.2070   35.5570   41.8000 O   0  0  0  0  0  0  0  0  0  0  0  0
   46.3340   34.8820   43.1510 C   0  0  0  0  0  0  0  0  0  0  0  0
   45.3760   35.8980   43.2290 C   0  0  0  0  0  0  0  0  0  0  0  0
   44.5640   35.9180   44.3830 C   0  0  0  0  0  0  0  0  0  0  0  0
   44.7480   34.9780   45.3330 N   0  0  0  0  0  0  0  0  0  0  0  0
   45.6960   34.0130   45.2050 C   0  0  0  0  0  0  0  0  0  0  0  0
   46.4750   33.9770   44.1180 N   0  0  0  0  0  0  0  0  0  0  0  0
   45.1910   36.6710   42.4970 H   0  0  0  0  0  0  0  0  0  0  0  0
   43.8070   36.6770   44.5010 H   0  0  0  0  0  0  0  0  0  0  0  0
   45.8570   33.2470   45.9630 H   0  0  0  0  0  0  0  0  0  0  0  0
   46.6050   34.2100   40.8880 O   0  0  0  0  0  0  0  0  0  0  0  0
   47.4070   33.9650   39.7230 C   0  0  0  0  0  2  0  0  0  0  0  0
   47.4940   32.5810   39.3820 N   0  0  0  0  0  4  0  0  0  0  0  0
   46.5940   32.1850   39.0900 H   0  0  0  0  0  0  0  0  0  0  0  0
   48.3730   32.5210   38.2080 C   0  0  0  0  0  2  0  0  0  0  0  0
   49.2020   33.2320   38.4360 H   0  0  0  0  0  0  0  0  0  0  0  0
   48.1120   31.7720   40.4080 C   0  0  0  0  0  2  0  0  0  0  0  0
   47.4590   31.5260   41.2540 H   0  0  0  0  0  0  0  0  0  0  0  0
  1  3  1  0  0  0  0
  2  1  2  0  0  0  0
  3  4  2  0  0  0  0
  3  8  1  0  0  0  0
  4  5  1  0  0  0  0
  5 10  1  0  0  0  0
  5  6  2  0  0  0  0
  7  6  1  0  0  0  0
  7 11  1  0  0  0  0
  8  7  2  0  0  0  0
  9  4  1  0  0  0  0
 12  1  1  0  0  0  0
 13 12  1  0  0  0  0
 14 13  1  0  0  0  0
 14 18  1  0  0  0  0
 15 14  1  0  0  0  0
 16 17  1  0  0  0  0
 16 14  1  0  0  0  0
 18 19  1  0  0  0  0
M  END
>  <minimizedAffinity>
-3.44747305

>  <minimizedRMSD>
0.496883482

$$$$
