
 OpenBabel03242517053D

 31 32  0  0  0  0  0  0  0  0999 V2000
   37.7110   29.5810   41.7550 C   0  0  0  0  0  0  0  0  0  0  0  0
   38.0390   29.3780   43.0800 C   0  0  0  0  0  0  0  0  0  0  0  0
   37.5980   28.2100   43.6790 C   0  0  0  0  0  0  0  0  0  0  0  0
   36.8710   27.3020   42.9770 C   0  0  0  0  0  0  0  0  0  0  0  0
   36.5340   27.4880   41.6510 C   0  0  0  0  0  0  0  0  0  0  0  0
   36.9810   28.6680   41.0540 C   0  0  0  0  0  0  0  0  0  0  0  0
   38.6130   30.0780   43.6610 H   0  0  0  0  0  0  0  0  0  0  0  0
   37.8190   27.9870   44.7150 H   0  0  0  0  0  0  0  0  0  0  0  0
   36.4860   26.3580   43.3720 H   0  0  0  0  0  0  0  0  0  0  0  0
   35.9690   26.8560   40.9860 H   0  0  0  0  0  0  0  0  0  0  0  0
   39.8610   32.4200   40.4780 C   0  0  0  0  0  0  0  0  0  0  0  0
   39.5190   31.1770   41.0730 C   0  0  0  0  0  0  0  0  0  0  0  0
   38.1970   30.8340   41.1650 C   0  0  0  0  0  0  0  0  0  0  0  0
   37.2780   31.7170   40.6740 N   0  0  0  0  0  0  0  0  0  0  0  0
   37.6160   32.8960   40.1110 C   0  0  0  0  0  0  0  0  0  0  0  0
   38.9130   33.2520   40.0120 N   0  0  0  0  0  0  0  0  0  0  0  0
   40.9260   32.5820   40.4620 H   0  0  0  0  0  0  0  0  0  0  0  0
   40.2640   30.4900   41.4570 H   0  0  0  0  0  0  0  0  0  0  0  0
   36.8750   33.5710   39.7330 H   0  0  0  0  0  0  0  0  0  0  0  0
   35.5460   29.2050   38.9420 C   0  0  0  0  0  0  0  0  0  0  0  0
   34.3960   29.0980   39.3390 O   0  0  0  0  0  0  0  0  0  0  0  0
   36.7070   28.9960   39.7080 N   0  0  0  0  0  0  0  0  0  0  0  0
   37.6680   29.0810   39.2570 H   0  0  0  0  0  0  0  0  0  0  0  0
   35.7160   29.5700   37.6040 O   0  0  0  0  0  0  0  0  0  0  0  0
   36.9810   30.0760   37.2110 C   0  0  0  0  0  2  0  0  0  0  0  0
   37.3110   29.5890   35.9060 N   0  0  0  0  0  4  0  0  0  0  0  0
   38.1020   30.1660   35.4920 H   0  0  0  0  0  0  0  0  0  0  0  0
   36.2020   29.7090   34.9740 C   0  0  0  0  0  2  0  0  0  0  0  0
   36.4850   30.2310   34.0470 H   0  0  0  0  0  0  0  0  0  0  0  0
   37.7780   28.2290   36.0150 C   0  0  0  0  0  2  0  0  0  0  0  0
   37.2780   27.7700   36.9150 H   0  0  0  0  0  0  0  0  0  0  0  0
  1  2  1  0  0  0  0
  2  7  1  0  0  0  0
  2  3  2  0  0  0  0
  3  8  1  0  0  0  0
  4  9  1  0  0  0  0
  4  3  1  0  0  0  0
  5  4  2  0  0  0  0
  6  5  1  0  0  0  0
  6  1  2  0  0  0  0
 10  5  1  0  0  0  0
 11 12  1  0  0  0  0
 12 13  2  0  0  0  0
 12 18  1  0  0  0  0
 13  1  1  0  0  0  0
 14 13  1  0  0  0  0
 15 14  2  0  0  0  0
 16 15  1  0  0  0  0
 16 11  2  0  0  0  0
 17 11  1  0  0  0  0
 19 15  1  0  0  0  0
 20 21  2  0  0  0  0
 20 22  1  0  0  0  0
 22  6  1  0  0  0  0
 23 22  1  0  0  0  0
 24 20  1  0  0  0  0
 25 24  1  0  0  0  0
 26 30  1  0  0  0  0
 26 25  1  0  0  0  0
 27 26  1  0  0  0  0
 28 26  1  0  0  0  0
 29 28  1  0  0  0  0
 30 31  1  0  0  0  0
M  END
>  <minimizedAffinity>
-4.85173368

$$$$

 OpenBabel03242517053D

 31 32  0  0  0  0  0  0  0  0999 V2000
   37.6320   31.8420   39.9450 C   0  0  0  0  0  0  0  0  0  0  0  0
   37.2530   33.1200   39.5870 C   0  0  0  0  0  0  0  0  0  0  0  0
   38.0980   34.1610   39.9330 C   0  0  0  0  0  0  0  0  0  0  0  0
   39.2560   33.9210   40.6020 C   0  0  0  0  0  0  0  0  0  0  0  0
   39.6510   32.6500   40.9670 C   0  0  0  0  0  0  0  0  0  0  0  0
   38.7950   31.6050   40.6150 C   0  0  0  0  0  0  0  0  0  0  0  0
   36.3430   33.3400   39.0580 H   0  0  0  0  0  0  0  0  0  0  0  0
   37.8620   35.1870   39.6840 H   0  0  0  0  0  0  0  0  0  0  0  0
   39.9770   34.6820   40.9120 H   0  0  0  0  0  0  0  0  0  0  0  0
   40.5340   32.3240   41.4930 H   0  0  0  0  0  0  0  0  0  0  0  0
   35.5960   29.2940   38.0280 C   0  0  0  0  0  0  0  0  0  0  0  0
   36.5250   30.3390   38.2720 C   0  0  0  0  0  0  0  0  0  0  0  0
   36.7040   30.7720   39.5580 C   0  0  0  0  0  0  0  0  0  0  0  0
   35.9710   30.1670   40.5380 N   0  0  0  0  0  0  0  0  0  0  0  0
   35.0900   29.1750   40.2930 C   0  0  0  0  0  0  0  0  0  0  0  0
   34.8990   28.7340   39.0330 N   0  0  0  0  0  0  0  0  0  0  0  0
   35.5390   29.0380   36.9830 H   0  0  0  0  0  0  0  0  0  0  0  0
   37.0970   30.8060   37.4790 H   0  0  0  0  0  0  0  0  0  0  0  0
   34.5270   28.7160   41.0810 H   0  0  0  0  0  0  0  0  0  0  0  0
   39.0740   29.4800   42.1020 C   0  0  0  0  0  0  0  0  0  0  0  0
   38.8520   29.8860   43.2320 O   0  0  0  0  0  0  0  0  0  0  0  0
   39.0650   30.2550   40.9290 N   0  0  0  0  0  0  0  0  0  0  0  0
   39.3090   29.8110   39.9920 H   0  0  0  0  0  0  0  0  0  0  0  0
   39.3640   28.1180   41.9700 O   0  0  0  0  0  0  0  0  0  0  0  0
   38.7200   27.2150   42.8530 C   0  0  0  0  0  2  0  0  0  0  0  0
   37.3450   27.0750   42.4820 N   0  0  0  0  0  4  0  0  0  0  0  0
   37.0890   27.8030   41.7520 H   0  0  0  0  0  0  0  0  0  0  0  0
   36.4450   27.3010   43.6020 C   0  0  0  0  0  2  0  0  0  0  0  0
   35.6680   28.0460   43.3730 H   0  0  0  0  0  0  0  0  0  0  0  0
   37.1480   25.7750   41.8880 C   0  0  0  0  0  2  0  0  0  0  0  0
   37.9090   25.0770   42.3380 H   0  0  0  0  0  0  0  0  0  0  0  0
  1  6  1  0  0  0  0
  2  3  1  0  0  0  0
  2  1  2  0  0  0  0
  3  4  2  0  0  0  0
  4  9  1  0  0  0  0
  4  5  1  0  0  0  0
  5 10  1  0  0  0  0
  6 22  1  0  0  0  0
  6  5  2  0  0  0  0
  7  2  1  0  0  0  0
  8  3  1  0  0  0  0
 11 12  2  0  0  0  0
 11 16  1  0  0  0  0
 12 13  1  0  0  0  0
 13  1  1  0  0  0  0
 13 14  2  0  0  0  0
 15 14  1  0  0  0  0
 15 19  1  0  0  0  0
 16 15  2  0  0  0  0
 17 11  1  0  0  0  0
 18 12  1  0  0  0  0
 20 21  2  0  0  0  0
 22 20  1  0  0  0  0
 23 22  1  0  0  0  0
 24 20  1  0  0  0  0
 24 25  1  0  0  0  0
 26 25  1  0  0  0  0
 26 28  1  0  0  0  0
 27 26  1  0  0  0  0
 29 28  1  0  0  0  0
 30 31  1  0  0  0  0
 30 26  1  0  0  0  0
M  END
>  <minimizedAffinity>
-4.7942338

$$$$

 OpenBabel03242517053D

 31 32  0  0  0  0  0  0  0  0999 V2000
   37.4880   29.4780   41.5070 C   0  0  0  0  0  0  0  0  0  0  0  0
   36.4230   28.6070   41.3920 C   0  0  0  0  0  0  0  0  0  0  0  0
   36.1950   27.7300   42.4400 C   0  0  0  0  0  0  0  0  0  0  0  0
   36.9970   27.7370   43.5370 C   0  0  0  0  0  0  0  0  0  0  0  0
   38.0650   28.6000   43.6690 C   0  0  0  0  0  0  0  0  0  0  0  0
   38.2900   29.4810   42.6090 C   0  0  0  0  0  0  0  0  0  0  0  0
   35.7720   28.5790   40.5370 H   0  0  0  0  0  0  0  0  0  0  0  0
   35.3780   27.0210   42.4160 H   0  0  0  0  0  0  0  0  0  0  0  0
   36.8870   27.0810   44.4040 H   0  0  0  0  0  0  0  0  0  0  0  0
   38.7720   28.7080   44.4760 H   0  0  0  0  0  0  0  0  0  0  0  0
   37.1780   32.2470   38.9480 C   0  0  0  0  0  0  0  0  0  0  0  0
   36.8720   31.4420   40.0760 C   0  0  0  0  0  0  0  0  0  0  0  0
   37.6920   30.3860   40.3720 C   0  0  0  0  0  0  0  0  0  0  0  0
   38.7640   30.1690   39.5550 N   0  0  0  0  0  0  0  0  0  0  0  0
   39.0440   30.9420   38.4850 C   0  0  0  0  0  0  0  0  0  0  0  0
   38.2490   31.9870   38.1780 N   0  0  0  0  0  0  0  0  0  0  0  0
   36.4660   33.0450   38.8150 H   0  0  0  0  0  0  0  0  0  0  0  0
   36.0150   31.6310   40.7120 H   0  0  0  0  0  0  0  0  0  0  0  0
   39.8940   30.7500   37.8600 H   0  0  0  0  0  0  0  0  0  0  0  0
   40.7530   30.3410   42.5750 C   0  0  0  0  0  0  0  0  0  0  0  0
   41.4170   29.3160   42.5850 O   0  0  0  0  0  0  0  0  0  0  0  0
   39.3490   30.4150   42.6020 N   0  0  0  0  0  0  0  0  0  0  0  0
   38.8630   31.3630   42.6260 H   0  0  0  0  0  0  0  0  0  0  0  0
   41.4590   31.5460   42.5300 O   0  0  0  0  0  0  0  0  0  0  0  0
   41.8230   32.0550   41.2580 C   0  0  0  0  0  2  0  0  0  0  0  0
   41.5940   33.4670   41.2190 N   0  0  0  0  0  4  0  0  0  0  0  0
   41.4250   33.8360   42.2020 H   0  0  0  0  0  0  0  0  0  0  0  0
   40.4060   33.8140   40.4560 C   0  0  0  0  0  2  0  0  0  0  0  0
   39.7160   34.4600   41.0210 H   0  0  0  0  0  0  0  0  0  0  0  0
   42.7720   34.1220   40.7070 C   0  0  0  0  0  2  0  0  0  0  0  0
   43.2900   33.3970   40.0160 H   0  0  0  0  0  0  0  0  0  0  0  0
  1  6  1  0  0  0  0
  2  1  2  0  0  0  0
  2  3  1  0  0  0  0
  3  4  2  0  0  0  0
  4  5  1  0  0  0  0
  4  9  1  0  0  0  0
  5 10  1  0  0  0  0
  6  5  2  0  0  0  0
  7  2  1  0  0  0  0
  8  3  1  0  0  0  0
 11 12  1  0  0  0  0
 12 13  2  0  0  0  0
 12 18  1  0  0  0  0
 13  1  1  0  0  0  0
 14 13  1  0  0  0  0
 15 14  2  0  0  0  0
 16 15  1  0  0  0  0
 16 11  2  0  0  0  0
 17 11  1  0  0  0  0
 19 15  1  0  0  0  0
 20 21  2  0  0  0  0
 20 22  1  0  0  0  0
 22  6  1  0  0  0  0
 22 23  1  0  0  0  0
 24 20  1  0  0  0  0
 25 24  1  0  0  0  0
 26 25  1  0  0  0  0
 26 27  1  0  0  0  0
 28 29  1  0  0  0  0
 28 26  1  0  0  0  0
 30 26  1  0  0  0  0
 31 30  1  0  0  0  0
M  END
>  <minimizedAffinity>
-4.68763971

$$$$

 OpenBabel03242517053D

 31 32  0  0  0  0  0  0  0  0999 V2000
   37.1710   28.4650   41.0940 C   0  0  0  0  0  0  0  0  0  0  0  0
   36.9500   27.1370   41.3980 C   0  0  0  0  0  0  0  0  0  0  0  0
   37.2700   26.7080   42.6760 C   0  0  0  0  0  0  0  0  0  0  0  0
   37.7810   27.5740   43.5900 C   0  0  0  0  0  0  0  0  0  0  0  0
   38.0070   28.9050   43.3040 C   0  0  0  0  0  0  0  0  0  0  0  0
   37.6830   29.3300   42.0150 C   0  0  0  0  0  0  0  0  0  0  0  0
   36.5470   26.4290   40.6950 H   0  0  0  0  0  0  0  0  0  0  0  0
   37.1220   25.6810   42.9800 H   0  0  0  0  0  0  0  0  0  0  0  0
   38.0580   27.3190   44.6160 H   0  0  0  0  0  0  0  0  0  0  0  0
   38.4030   29.6890   43.9290 H   0  0  0  0  0  0  0  0  0  0  0  0
   35.3370   29.2850   37.8890 C   0  0  0  0  0  0  0  0  0  0  0  0
   35.5450   28.8670   39.2290 C   0  0  0  0  0  0  0  0  0  0  0  0
   36.8200   28.8720   39.7290 C   0  0  0  0  0  0  0  0  0  0  0  0
   37.8230   29.2830   38.8980 N   0  0  0  0  0  0  0  0  0  0  0  0
   37.6110   29.6770   37.6260 C   0  0  0  0  0  0  0  0  0  0  0  0
   36.3630   29.6790   37.1150 N   0  0  0  0  0  0  0  0  0  0  0  0
   34.2970   29.2380   37.6070 H   0  0  0  0  0  0  0  0  0  0  0  0
   34.7350   28.5440   39.8720 H   0  0  0  0  0  0  0  0  0  0  0  0
   38.4170   29.9960   36.9950 H   0  0  0  0  0  0  0  0  0  0  0  0
   38.9680   31.5250   41.4280 C   0  0  0  0  0  0  0  0  0  0  0  0
   40.1260   31.2670   41.7140 O   0  0  0  0  0  0  0  0  0  0  0  0
   37.8680   30.6610   41.5780 N   0  0  0  0  0  0  0  0  0  0  0  0
   36.8870   30.9950   41.3320 H   0  0  0  0  0  0  0  0  0  0  0  0
   38.7190   32.7960   40.9030 O   0  0  0  0  0  0  0  0  0  0  0  0
   38.8730   32.9780   39.5060 C   0  0  0  0  0  2  0  0  0  0  0  0
   40.2480   32.8160   39.1460 N   0  0  0  0  0  4  0  0  0  0  0  0
   40.7160   32.1200   39.8000 H   0  0  0  0  0  0  0  0  0  0  0  0
   41.0030   34.0510   39.2750 C   0  0  0  0  0  2  0  0  0  0  0  0
   41.9110   33.9290   39.8860 H   0  0  0  0  0  0  0  0  0  0  0  0
   40.3250   32.2750   37.8110 C   0  0  0  0  0  2  0  0  0  0  0  0
   39.4090   32.6190   37.2530 H   0  0  0  0  0  0  0  0  0  0  0  0
  1  2  2  0  0  0  0
  1  6  1  0  0  0  0
  2  3  1  0  0  0  0
  3  8  1  0  0  0  0
  3  4  2  0  0  0  0
  4  9  1  0  0  0  0
  5  4  1  0  0  0  0
  5 10  1  0  0  0  0
  6  5  2  0  0  0  0
  7  2  1  0  0  0  0
 11 12  1  0  0  0  0
 12 13  2  0  0  0  0
 12 18  1  0  0  0  0
 13  1  1  0  0  0  0
 14 13  1  0  0  0  0
 15 14  2  0  0  0  0
 16 15  1  0  0  0  0
 16 11  2  0  0  0  0
 17 11  1  0  0  0  0
 19 15  1  0  0  0  0
 20 22  1  0  0  0  0
 20 21  2  0  0  0  0
 22  6  1  0  0  0  0
 23 22  1  0  0  0  0
 24 20  1  0  0  0  0
 25 24  1  0  0  0  0
 26 28  1  0  0  0  0
 26 25  1  0  0  0  0
 26 27  1  0  0  0  0
 28 29  1  0  0  0  0
 30 26  1  0  0  0  0
 31 30  1  0  0  0  0
M  END
>  <minimizedAffinity>
-4.61327219

$$$$

 OpenBabel03242517053D

 31 32  0  0  0  0  0  0  0  0999 V2000
   37.3990   26.5250   41.0680 C   0  0  0  0  0  0  0  0  0  0  0  0
   37.0730   25.1940   41.2390 C   0  0  0  0  0  0  0  0  0  0  0  0
   37.9250   24.4190   42.0080 C   0  0  0  0  0  0  0  0  0  0  0  0
   39.0380   24.9590   42.5690 C   0  0  0  0  0  0  0  0  0  0  0  0
   39.3780   26.2870   42.4100 C   0  0  0  0  0  0  0  0  0  0  0  0
   38.5160   27.0630   41.6340 C   0  0  0  0  0  0  0  0  0  0  0  0
   36.2000   24.7390   40.8070 H   0  0  0  0  0  0  0  0  0  0  0  0
   37.7300   23.3690   42.1820 H   0  0  0  0  0  0  0  0  0  0  0  0
   39.7600   24.4190   43.1880 H   0  0  0  0  0  0  0  0  0  0  0  0
   40.2220   26.8360   42.7960 H   0  0  0  0  0  0  0  0  0  0  0  0
   35.2680   27.8660   38.2450 C   0  0  0  0  0  0  0  0  0  0  0  0
   36.1880   27.0330   38.9330 C   0  0  0  0  0  0  0  0  0  0  0  0
   36.4680   27.3060   40.2450 C   0  0  0  0  0  0  0  0  0  0  0  0
   35.8400   28.3750   40.8170 N   0  0  0  0  0  0  0  0  0  0  0  0
   34.9670   29.1600   40.1510 C   0  0  0  0  0  0  0  0  0  0  0  0
   34.6780   28.9070   38.8580 N   0  0  0  0  0  0  0  0  0  0  0  0
   35.1270   27.5560   37.2220 H   0  0  0  0  0  0  0  0  0  0  0  0
   36.6760   26.1890   38.4600 H   0  0  0  0  0  0  0  0  0  0  0  0
   34.4870   29.9930   40.6240 H   0  0  0  0  0  0  0  0  0  0  0  0
   38.7550   29.6100   42.1500 C   0  0  0  0  0  0  0  0  0  0  0  0
   38.5120   29.6870   43.3440 O   0  0  0  0  0  0  0  0  0  0  0  0
   38.7400   28.4340   41.3790 N   0  0  0  0  0  0  0  0  0  0  0  0
   38.9330   28.4780   40.3320 H   0  0  0  0  0  0  0  0  0  0  0  0
   39.0770   30.8030   41.4970 O   0  0  0  0  0  0  0  0  0  0  0  0
   38.2590   31.2060   40.4120 C   0  0  0  0  0  2  0  0  0  0  0  0
   37.8500   32.5650   40.5950 N   0  0  0  0  0  4  0  0  0  0  0  0
   37.1410   32.6290   41.3850 H   0  0  0  0  0  0  0  0  0  0  0  0
   37.1850   33.1060   39.4210 C   0  0  0  0  0  2  0  0  0  0  0  0
   36.2060   33.5510   39.6580 H   0  0  0  0  0  0  0  0  0  0  0  0
   38.9950   33.3550   40.9760 C   0  0  0  0  0  2  0  0  0  0  0  0
   39.9070   32.8690   40.5250 H   0  0  0  0  0  0  0  0  0  0  0  0
  1  2  2  0  0  0  0
  1  6  1  0  0  0  0
  2  3  1  0  0  0  0
  3  8  1  0  0  0  0
  3  4  2  0  0  0  0
  4  9  1  0  0  0  0
  5  4  1  0  0  0  0
  5 10  1  0  0  0  0
  6  5  2  0  0  0  0
  7  2  1  0  0  0  0
 11 16  2  0  0  0  0
 11 12  1  0  0  0  0
 12 13  2  0  0  0  0
 13 14  1  0  0  0  0
 13  1  1  0  0  0  0
 15 19  1  0  0  0  0
 15 14  2  0  0  0  0
 16 15  1  0  0  0  0
 17 11  1  0  0  0  0
 18 12  1  0  0  0  0
 20 21  2  0  0  0  0
 22  6  1  0  0  0  0
 22 20  1  0  0  0  0
 23 22  1  0  0  0  0
 24 20  1  0  0  0  0
 25 26  1  0  0  0  0
 25 24  1  0  0  0  0
 26 30  1  0  0  0  0
 26 27  1  0  0  0  0
 28 29  1  0  0  0  0
 28 26  1  0  0  0  0
 31 30  1  0  0  0  0
M  END
>  <minimizedAffinity>
-4.59811783

$$$$

 OpenBabel03242517053D

 31 32  0  0  0  0  0  0  0  0999 V2000
   36.6850   28.6210   39.9280 C   0  0  0  0  0  0  0  0  0  0  0  0
   35.8580   27.6820   39.3460 C   0  0  0  0  0  0  0  0  0  0  0  0
   35.2850   28.0000   38.1250 C   0  0  0  0  0  0  0  0  0  0  0  0
   35.5360   29.1960   37.5320 C   0  0  0  0  0  0  0  0  0  0  0  0
   36.3610   30.1460   38.0990 C   0  0  0  0  0  0  0  0  0  0  0  0
   36.9350   29.8190   39.3290 C   0  0  0  0  0  0  0  0  0  0  0  0
   35.6410   26.7280   39.7910 H   0  0  0  0  0  0  0  0  0  0  0  0
   34.6270   27.3100   37.6140 H   0  0  0  0  0  0  0  0  0  0  0  0
   35.1260   29.5250   36.5730 H   0  0  0  0  0  0  0  0  0  0  0  0
   36.6410   31.1230   37.7390 H   0  0  0  0  0  0  0  0  0  0  0  0
   37.2230   27.6910   43.5550 C   0  0  0  0  0  0  0  0  0  0  0  0
   36.5400   28.0590   42.3670 C   0  0  0  0  0  0  0  0  0  0  0  0
   37.2670   28.2410   41.2210 C   0  0  0  0  0  0  0  0  0  0  0  0
   38.6180   28.0560   41.2920 N   0  0  0  0  0  0  0  0  0  0  0  0
   39.2550   27.7060   42.4290 C   0  0  0  0  0  0  0  0  0  0  0  0
   38.5570   27.5230   43.5680 N   0  0  0  0  0  0  0  0  0  0  0  0
   36.5510   27.5770   44.3900 H   0  0  0  0  0  0  0  0  0  0  0  0
   35.4670   28.2010   42.3310 H   0  0  0  0  0  0  0  0  0  0  0  0
   40.3180   27.5670   42.4570 H   0  0  0  0  0  0  0  0  0  0  0  0
   37.8200   32.0770   40.2930 C   0  0  0  0  0  0  0  0  0  0  0  0
   37.0170   32.9000   39.8850 O   0  0  0  0  0  0  0  0  0  0  0  0
   37.7930   30.6960   40.0300 N   0  0  0  0  0  0  0  0  0  0  0  0
   38.5640   30.0630   40.4050 H   0  0  0  0  0  0  0  0  0  0  0  0
   38.8590   32.5570   41.0950 O   0  0  0  0  0  0  0  0  0  0  0  0
   39.6400   33.6300   40.5970 C   0  0  0  0  0  2  0  0  0  0  0  0
   40.9880   33.5010   41.0590 N   0  0  0  0  0  4  0  0  0  0  0  0
   41.0950   33.9710   42.0060 H   0  0  0  0  0  0  0  0  0  0  0  0
   41.9400   34.1590   40.1790 C   0  0  0  0  0  2  0  0  0  0  0  0
   42.6000   34.8560   40.7180 H   0  0  0  0  0  0  0  0  0  0  0  0
   41.2950   32.1020   41.2340 C   0  0  0  0  0  2  0  0  0  0  0  0
   40.6630   31.5230   40.5020 H   0  0  0  0  0  0  0  0  0  0  0  0
  1 13  1  0  0  0  0
  2  7  1  0  0  0  0
  2  1  1  0  0  0  0
  3  2  2  0  0  0  0
  4  5  2  0  0  0  0
  4  3  1  0  0  0  0
  5  6  1  0  0  0  0
  6  1  2  0  0  0  0
  6 22  1  0  0  0  0
  8  3  1  0  0  0  0
  9  4  1  0  0  0  0
 10  5  1  0  0  0  0
 11 16  1  0  0  0  0
 11 17  1  0  0  0  0
 12 11  2  0  0  0  0
 13 14  2  0  0  0  0
 13 12  1  0  0  0  0
 14 15  1  0  0  0  0
 15 19  1  0  0  0  0
 15 16  2  0  0  0  0
 18 12  1  0  0  0  0
 20 24  1  0  0  0  0
 21 20  2  0  0  0  0
 22 20  1  0  0  0  0
 22 23  1  0  0  0  0
 25 26  1  0  0  0  0
 25 24  1  0  0  0  0
 26 30  1  0  0  0  0
 26 27  1  0  0  0  0
 28 29  1  0  0  0  0
 28 26  1  0  0  0  0
 31 30  1  0  0  0  0
M  END
>  <minimizedAffinity>
-4.59427071

$$$$

 OpenBabel03242517053D

 31 32  0  0  0  0  0  0  0  0999 V2000
   36.6470   26.5770   40.0450 C   0  0  0  0  0  0  0  0  0  0  0  0
   36.5320   25.2190   39.8250 C   0  0  0  0  0  0  0  0  0  0  0  0
   36.7510   24.3740   40.9000 C   0  0  0  0  0  0  0  0  0  0  0  0
   37.0670   24.8750   42.1230 C   0  0  0  0  0  0  0  0  0  0  0  0
   37.1860   26.2290   42.3610 C   0  0  0  0  0  0  0  0  0  0  0  0
   36.9640   27.0750   41.2730 C   0  0  0  0  0  0  0  0  0  0  0  0
   36.2840   24.7940   38.8690 H   0  0  0  0  0  0  0  0  0  0  0  0
   36.6780   23.2990   40.7980 H   0  0  0  0  0  0  0  0  0  0  0  0
   37.2550   24.2790   43.0200 H   0  0  0  0  0  0  0  0  0  0  0  0
   37.4280   26.7520   43.2720 H   0  0  0  0  0  0  0  0  0  0  0  0
   36.8960   28.3690   36.7220 C   0  0  0  0  0  0  0  0  0  0  0  0
   37.2390   27.5000   37.7910 C   0  0  0  0  0  0  0  0  0  0  0  0
   36.4080   27.4330   38.8770 C   0  0  0  0  0  0  0  0  0  0  0  0
   35.2890   28.2140   38.8660 N   0  0  0  0  0  0  0  0  0  0  0  0
   34.9740   29.0370   37.8440 C   0  0  0  0  0  0  0  0  0  0  0  0
   35.7800   29.1170   36.7650 N   0  0  0  0  0  0  0  0  0  0  0  0
   37.6210   28.3380   35.9260 H   0  0  0  0  0  0  0  0  0  0  0  0
   38.1340   26.8880   37.7800 H   0  0  0  0  0  0  0  0  0  0  0  0
   34.0880   29.6400   37.8600 H   0  0  0  0  0  0  0  0  0  0  0  0
   38.1070   29.4130   41.4630 C   0  0  0  0  0  0  0  0  0  0  0  0
   39.2970   29.1490   41.5250 O   0  0  0  0  0  0  0  0  0  0  0  0
   37.0580   28.4810   41.3660 N   0  0  0  0  0  0  0  0  0  0  0  0
   36.0450   28.8130   41.3530 H   0  0  0  0  0  0  0  0  0  0  0  0
   37.7610   30.7680   41.4890 O   0  0  0  0  0  0  0  0  0  0  0  0
   36.6160   31.1740   40.7610 C   0  0  0  0  0  2  0  0  0  0  0  0
   36.9430   32.2930   39.9300 N   0  0  0  0  0  4  0  0  0  0  0  0
   36.1230   32.9680   39.8880 H   0  0  0  0  0  0  0  0  0  0  0  0
   37.2060   31.9020   38.5550 C   0  0  0  0  0  2  0  0  0  0  0  0
   36.6080   32.4770   37.8310 H   0  0  0  0  0  0  0  0  0  0  0  0
   38.0570   33.0010   40.5110 C   0  0  0  0  0  2  0  0  0  0  0  0
   38.6710   32.2520   41.0870 H   0  0  0  0  0  0  0  0  0  0  0  0
  1  6  1  0  0  0  0
  2  1  2  0  0  0  0
  2  3  1  0  0  0  0
  3  4  2  0  0  0  0
  4  5  1  0  0  0  0
  4  9  1  0  0  0  0
  5 10  1  0  0  0  0
  6 22  1  0  0  0  0
  6  5  2  0  0  0  0
  7  2  1  0  0  0  0
  8  3  1  0  0  0  0
 11 16  2  0  0  0  0
 11 12  1  0  0  0  0
 12 13  2  0  0  0  0
 13  1  1  0  0  0  0
 14 13  1  0  0  0  0
 15 19  1  0  0  0  0
 15 14  2  0  0  0  0
 16 15  1  0  0  0  0
 17 11  1  0  0  0  0
 18 12  1  0  0  0  0
 20 24  1  0  0  0  0
 20 21  2  0  0  0  0
 22 20  1  0  0  0  0
 23 22  1  0  0  0  0
 25 24  1  0  0  0  0
 26 30  1  0  0  0  0
 26 25  1  0  0  0  0
 27 26  1  0  0  0  0
 28 26  1  0  0  0  0
 29 28  1  0  0  0  0
 30 31  1  0  0  0  0
M  END
>  <minimizedAffinity>
-4.58361769

$$$$

 OpenBabel03242517053D

 31 32  0  0  0  0  0  0  0  0999 V2000
   36.9960   26.0210   40.8960 C   0  0  0  0  0  0  0  0  0  0  0  0
   36.9170   24.7810   41.4960 C   0  0  0  0  0  0  0  0  0  0  0  0
   36.4520   23.7250   40.7290 C   0  0  0  0  0  0  0  0  0  0  0  0
   36.0900   23.9160   39.4330 C   0  0  0  0  0  0  0  0  0  0  0  0
   36.1640   25.1490   38.8170 C   0  0  0  0  0  0  0  0  0  0  0  0
   36.6330   26.2080   39.5960 C   0  0  0  0  0  0  0  0  0  0  0  0
   37.1950   24.6000   42.5190 H   0  0  0  0  0  0  0  0  0  0  0  0
   36.3640   22.7270   41.1360 H   0  0  0  0  0  0  0  0  0  0  0  0
   35.7150   23.1400   38.7610 H   0  0  0  0  0  0  0  0  0  0  0  0
   35.9120   25.4340   37.8090 H   0  0  0  0  0  0  0  0  0  0  0  0
   37.4640   28.5840   43.6390 C   0  0  0  0  0  0  0  0  0  0  0  0
   36.8830   27.5180   42.9040 C   0  0  0  0  0  0  0  0  0  0  0  0
   37.4920   27.1090   41.7480 C   0  0  0  0  0  0  0  0  0  0  0  0
   38.6330   27.7580   41.3690 N   0  0  0  0  0  0  0  0  0  0  0  0
   39.1740   28.7700   42.0780 C   0  0  0  0  0  0  0  0  0  0  0  0
   38.5890   29.1880   43.2190 N   0  0  0  0  0  0  0  0  0  0  0  0
   36.8990   28.8180   44.5270 H   0  0  0  0  0  0  0  0  0  0  0  0
   35.9770   27.0160   43.2210 H   0  0  0  0  0  0  0  0  0  0  0  0
   40.0710   29.2630   41.7580 H   0  0  0  0  0  0  0  0  0  0  0  0
   37.4610   28.1440   38.0540 C   0  0  0  0  0  0  0  0  0  0  0  0
   38.2330   27.5920   37.2860 O   0  0  0  0  0  0  0  0  0  0  0  0
   36.7550   27.5260   39.1020 N   0  0  0  0  0  0  0  0  0  0  0  0
   36.1300   28.1040   39.7410 H   0  0  0  0  0  0  0  0  0  0  0  0
   37.2650   29.5150   37.8690 O   0  0  0  0  0  0  0  0  0  0  0  0
   36.3090   30.1650   38.6890 C   0  0  0  0  0  2  0  0  0  0  0  0
   36.9770   30.9480   39.6830 N   0  0  0  0  0  4  0  0  0  0  0  0
   37.9490   30.5570   39.8620 H   0  0  0  0  0  0  0  0  0  0  0  0
   36.2930   30.9150   40.9650 C   0  0  0  0  0  2  0  0  0  0  0  0
   36.9630   30.6330   41.7920 H   0  0  0  0  0  0  0  0  0  0  0  0
   37.1360   32.2950   39.1920 C   0  0  0  0  0  2  0  0  0  0  0  0
   36.2860   32.4990   38.4800 H   0  0  0  0  0  0  0  0  0  0  0  0
  1  2  1  0  0  0  0
  1 13  1  0  0  0  0
  2  7  1  0  0  0  0
  3  8  1  0  0  0  0
  3  2  2  0  0  0  0
  4  3  1  0  0  0  0
  5  4  2  0  0  0  0
  5  6  1  0  0  0  0
  6  1  2  0  0  0  0
  9  4  1  0  0  0  0
 10  5  1  0  0  0  0
 11 17  1  0  0  0  0
 12 18  1  0  0  0  0
 12 11  2  0  0  0  0
 13 12  1  0  0  0  0
 14 13  2  0  0  0  0
 14 15  1  0  0  0  0
 15 16  2  0  0  0  0
 16 11  1  0  0  0  0
 19 15  1  0  0  0  0
 20 22  1  0  0  0  0
 21 20  2  0  0  0  0
 22  6  1  0  0  0  0
 22 23  1  0  0  0  0
 24 20  1  0  0  0  0
 24 25  1  0  0  0  0
 25 26  1  0  0  0  0
 26 27  1  0  0  0  0
 26 28  1  0  0  0  0
 28 29  1  0  0  0  0
 30 26  1  0  0  0  0
 31 30  1  0  0  0  0
M  END
>  <minimizedAffinity>
-4.57605696

$$$$

 OpenBabel03242517053D

 31 32  0  0  0  0  0  0  0  0999 V2000
   36.8410   26.6830   40.2110 C   0  0  0  0  0  0  0  0  0  0  0  0
   36.4920   25.5300   39.5380 C   0  0  0  0  0  0  0  0  0  0  0  0
   36.4900   24.3440   40.2540 C   0  0  0  0  0  0  0  0  0  0  0  0
   36.8220   24.3290   41.5720 C   0  0  0  0  0  0  0  0  0  0  0  0
   37.1730   25.4720   42.2610 C   0  0  0  0  0  0  0  0  0  0  0  0
   37.1730   26.6640   41.5330 C   0  0  0  0  0  0  0  0  0  0  0  0
   36.2250   25.5110   38.4970 H   0  0  0  0  0  0  0  0  0  0  0  0
   36.2260   23.4040   39.7890 H   0  0  0  0  0  0  0  0  0  0  0  0
   36.8460   23.4400   42.2080 H   0  0  0  0  0  0  0  0  0  0  0  0
   37.4540   25.5980   43.2930 H   0  0  0  0  0  0  0  0  0  0  0  0
   35.8160   29.7480   38.2440 C   0  0  0  0  0  0  0  0  0  0  0  0
   35.6920   28.5640   39.0170 C   0  0  0  0  0  0  0  0  0  0  0  0
   36.8300   27.9140   39.4110 C   0  0  0  0  0  0  0  0  0  0  0  0
   38.0280   28.4490   39.0330 N   0  0  0  0  0  0  0  0  0  0  0  0
   38.1330   29.5760   38.2980 C   0  0  0  0  0  0  0  0  0  0  0  0
   37.0230   30.2310   37.9000 N   0  0  0  0  0  0  0  0  0  0  0  0
   34.8570   30.1700   37.9930 H   0  0  0  0  0  0  0  0  0  0  0  0
   34.7310   28.1550   39.3070 H   0  0  0  0  0  0  0  0  0  0  0  0
   39.0860   29.9750   38.0140 H   0  0  0  0  0  0  0  0  0  0  0  0
   38.7000   28.5020   42.5800 C   0  0  0  0  0  0  0  0  0  0  0  0
   39.7990   27.9720   42.6280 O   0  0  0  0  0  0  0  0  0  0  0  0
   37.5170   27.9090   42.1040 N   0  0  0  0  0  0  0  0  0  0  0  0
   36.5980   28.4460   42.1370 H   0  0  0  0  0  0  0  0  0  0  0  0
   38.6180   29.8190   43.0420 O   0  0  0  0  0  0  0  0  0  0  0  0
   39.6520   30.7160   42.6750 C   0  0  0  0  0  2  0  0  0  0  0  0
   39.6530   30.8970   41.2550 N   0  0  0  0  0  4  0  0  0  0  0  0
   39.1180   30.1070   40.7870 H   0  0  0  0  0  0  0  0  0  0  0  0
   40.9940   30.8550   40.6940 C   0  0  0  0  0  2  0  0  0  0  0  0
   41.0810   30.1370   39.8640 H   0  0  0  0  0  0  0  0  0  0  0  0
   38.9750   32.1290   40.9370 C   0  0  0  0  0  2  0  0  0  0  0  0
   39.1110   32.8270   41.8120 H   0  0  0  0  0  0  0  0  0  0  0  0
  1  6  1  0  0  0  0
  2  1  2  0  0  0  0
  2  3  1  0  0  0  0
  3  4  2  0  0  0  0
  4  9  1  0  0  0  0
  4  5  1  0  0  0  0
  5 10  1  0  0  0  0
  6 22  1  0  0  0  0
  6  5  2  0  0  0  0
  7  2  1  0  0  0  0
  8  3  1  0  0  0  0
 11 12  1  0  0  0  0
 12 18  1  0  0  0  0
 12 13  2  0  0  0  0
 13  1  1  0  0  0  0
 14 13  1  0  0  0  0
 15 14  2  0  0  0  0
 16 11  2  0  0  0  0
 16 15  1  0  0  0  0
 17 11  1  0  0  0  0
 19 15  1  0  0  0  0
 20 21  2  0  0  0  0
 20 24  1  0  0  0  0
 22 23  1  0  0  0  0
 22 20  1  0  0  0  0
 25 24  1  0  0  0  0
 26 25  1  0  0  0  0
 27 26  1  0  0  0  0
 28 26  1  0  0  0  0
 29 28  1  0  0  0  0
 30 26  1  0  0  0  0
 30 31  1  0  0  0  0
M  END
>  <minimizedAffinity>
-4.3571763

$$$$
