
 OpenBabel03252503363D

 40 42  0  0  1  0  0  0  0  0999 V2000
   48.6180   30.1500   40.1730 C   0  0  0  0  0  0  0  0  0  0  0  0
   49.1210   31.3540   39.9050 C   0  0  0  0  0  0  0  0  0  0  0  0
   48.2800   32.4940   39.8850 N   0  0  0  0  0  0  0  0  0  0  0  0
   48.0780   33.8690   40.1440 C   0  0  0  0  0  0  0  0  0  0  0  0
   48.8120   34.8370   40.5310 O   0  0  0  0  0  0  0  0  0  0  0  0
   46.6640   33.8670   39.8140 C   0  0  1  0  0  0  0  0  0  0  0  0
   46.9170   32.4380   39.3960 C   0  0  2  0  0  0  0  0  0  0  0  0
   46.0610   31.1770   40.3470 S   0  0  0  0  0  0  0  0  0  0  0  0
   47.2010   29.8010   40.4830 C   0  0  0  0  0  0  0  0  0  0  0  0
   46.3330   34.4250   38.8940 H   0  0  0  0  0  0  0  0  0  0  0  0
   46.8940   32.2840   38.2960 H   0  0  0  0  0  0  0  0  0  0  0  0
   46.9340   28.9520   39.8420 H   0  0  0  0  0  0  0  0  0  0  0  0
   47.1940   29.4700   41.5460 H   0  0  0  0  0  0  0  0  0  0  0  0
   45.8040   34.0820   40.9680 C   0  0  0  0  0  0  0  0  0  0  0  0
   44.5790   33.9660   41.1480 O   0  0  0  0  0  0  0  0  0  0  0  0
   46.5190   34.5150   42.1440 N   0  0  0  0  0  0  0  0  0  0  0  0
   47.5260   34.6990   42.3540 H   0  0  0  0  0  0  0  0  0  0  0  0
   44.4930   36.1870   44.7680 C   0  0  0  0  0  0  0  0  0  0  0  0
   45.1210   35.9500   43.5440 C   0  0  0  0  0  0  0  0  0  0  0  0
   45.8450   34.7890   43.3600 C   0  0  0  0  0  0  0  0  0  0  0  0
   45.9250   33.9120   44.3730 N   0  0  0  0  0  0  0  0  0  0  0  0
   45.3070   34.1550   45.5680 C   0  0  0  0  0  0  0  0  0  0  0  0
   44.6030   35.2870   45.7400 N   0  0  0  0  0  0  0  0  0  0  0  0
   43.9560   37.1310   44.7900 H   0  0  0  0  0  0  0  0  0  0  0  0
   45.0600   36.6640   42.7090 H   0  0  0  0  0  0  0  0  0  0  0  0
   45.3780   33.4420   46.3750 H   0  0  0  0  0  0  0  0  0  0  0  0
   49.6040   29.0420   40.1560 C   0  0  0  0  0  0  0  0  0  0  0  0
   50.0920   28.8940   39.1710 H   0  0  0  0  0  0  0  0  0  0  0  0
   49.1730   28.0880   40.5170 H   0  0  0  0  0  0  0  0  0  0  0  0
   50.4090   29.3620   40.8710 H   0  0  0  0  0  0  0  0  0  0  0  0
   50.5340   31.5420   39.6270 C   0  0  0  0  0  0  0  0  0  0  0  0
   50.9860   31.7520   38.4680 O   0  0  0  0  0  0  0  0  0  0  0  0
   51.6620   31.5500   40.4180 O   0  0  0  0  0  0  0  0  0  0  0  0
   52.9650   31.3770   39.9680 C   0  0  0  0  0  2  0  0  0  0  0  0
   53.4680   30.1480   40.5480 N   0  0  0  0  0  4  0  0  0  0  0  0
   54.4820   30.3510   40.8020 H   0  0  0  0  0  0  0  0  0  0  0  0
   53.3300   28.9970   39.7110 C   0  0  0  0  0  2  0  0  0  0  0  0
   53.0020   28.0760   40.2550 H   0  0  0  0  0  0  0  0  0  0  0  0
   52.8290   29.8670   41.8210 C   0  0  0  0  0  2  0  0  0  0  0  0
   52.8570   28.7890   42.0630 H   0  0  0  0  0  0  0  0  0  0  0  0
  1  9  1  0  0  0  0
  2  1  2  0  0  0  0
  3  2  1  0  0  0  0
  3  4  1  0  0  0  0
  4  5  2  0  0  0  0
  6 10  1  6  0  0  0
  6  4  1  0  0  0  0
  6 14  1  0  0  0  0
  7 11  1  6  0  0  0
  7  6  1  0  0  0  0
  7  3  1  0  0  0  0
  7  8  1  0  0  0  0
  8  9  1  0  0  0  0
  9 13  1  0  0  0  0
 12  9  1  0  0  0  0
 14 15  2  0  0  0  0
 14 16  1  0  0  0  0
 16 17  1  0  0  0  0
 16 20  1  0  0  0  0
 18 24  1  0  0  0  0
 18 23  1  0  0  0  0
 19 18  2  0  0  0  0
 20 19  1  0  0  0  0
 20 21  2  0  0  0  0
 21 22  1  0  0  0  0
 22 23  2  0  0  0  0
 22 26  1  0  0  0  0
 25 19  1  0  0  0  0
 27  1  1  0  0  0  0
 27 29  1  0  0  0  0
 27 30  1  0  0  0  0
 28 27  1  0  0  0  0
 31  2  1  0  0  0  0
 31 33  1  0  0  0  0
 32 31  2  0  0  0  0
 34 33  1  0  0  0  0
 34 35  1  0  0  0  0
 35 36  1  0  0  0  0
 35 39  1  0  0  0  0
 37 38  1  0  0  0  0
 37 35  1  0  0  0  0
 39 40  1  0  0  0  0
M  END
>  <minimizedAffinity>
-4.35609245

>  <minimizedRMSD>
1.24078488

$$$$
