
 OpenBabel03252507493D

 43 44  0  0  0  0  0  0  0  0999 V2000
   46.9690   34.9970   42.1480 C   0  0  0  0  0  0  0  0  0  0  0  0
   47.1870   34.1810   42.8980 H   0  0  0  0  0  0  0  0  0  0  0  0
   47.1720   35.9680   42.6260 H   0  0  0  0  0  0  0  0  0  0  0  0
   45.5130   34.8770   41.8630 C   0  0  0  0  0  0  0  0  0  0  0  0
   44.5910   35.8080   42.4260 C   0  0  0  0  0  0  0  0  0  0  0  0
   42.9810   35.2460   41.7930 S   0  0  0  0  0  0  0  0  0  0  0  0
   43.8270   33.8120   40.8500 C   0  0  0  0  0  0  0  0  0  0  0  0
   44.9190   33.9830   41.1240 N   0  0  0  0  0  0  0  0  0  0  0  0
   44.8300   36.6350   43.0680 H   0  0  0  0  0  0  0  0  0  0  0  0
   43.1240   32.8960   40.0790 O   0  0  0  0  0  0  0  0  0  0  0  0
   41.7210   32.6290   37.8470 O   0  0  0  0  0  0  0  0  0  0  0  0
   43.0390   33.1800   38.4150 P   0  0  1  0  0  0  0  0  0  0  0  0
   43.0210   34.8680   38.1770 O   0  0  0  0  0  0  0  0  0  0  0  0
   43.8650   35.1800   37.7620 H   0  0  0  0  0  0  0  0  0  0  0  0
   44.3670   32.5520   37.6240 O   0  0  0  0  0  0  0  0  0  0  0  0
   44.7150   31.2840   37.9730 C   0  0  0  0  0  2  0  0  0  0  0  0
   43.6580   30.3740   38.3020 N   0  0  0  0  0  4  0  0  0  0  0  0
   42.7900   30.7900   38.6440 H   0  0  0  0  0  0  0  0  0  0  0  0
   44.1830   29.5480   39.4030 C   0  0  0  0  0  2  0  0  0  0  0  0
   43.4350   28.7730   39.6660 H   0  0  0  0  0  0  0  0  0  0  0  0
   43.3430   29.4560   37.2330 C   0  0  0  0  0  2  0  0  0  0  0  0
   43.7720   29.7670   36.2570 H   0  0  0  0  0  0  0  0  0  0  0  0
   47.8540   34.7640   40.9730 C   0  0  0  0  0  0  0  0  0  0  0  0
   47.2820   34.4120   40.1120 H   0  0  0  0  0  0  0  0  0  0  0  0
   48.2590   35.7700   40.6610 H   0  0  0  0  0  0  0  0  0  0  0  0
   49.0250   33.9230   41.2740 C   0  0  0  0  0  0  0  0  0  0  0  0
   49.2190   32.8050   40.4720 C   0  0  0  0  0  0  0  0  0  0  0  0
   50.2880   31.9580   40.6770 C   0  0  0  0  0  0  0  0  0  0  0  0
   51.1460   32.2890   41.7240 N   0  0  0  0  0  0  0  0  0  0  0  0
   50.9130   33.3970   42.4850 C   0  0  0  0  0  0  0  0  0  0  0  0
   49.8690   34.1870   42.2500 N   0  0  0  0  0  0  0  0  0  0  0  0
   50.4490   31.0960   40.0660 H   0  0  0  0  0  0  0  0  0  0  0  0
   51.6360   33.5480   43.2570 H   0  0  0  0  0  0  0  0  0  0  0  0
   48.0710   32.4470   39.1430 S   0  0  0  0  0  0  0  0  0  0  0  0
   48.7600   32.9970   37.5550 C   0  0  0  0  0  0  0  0  0  0  0  0
   48.4180   32.2550   36.7850 H   0  0  0  0  0  0  0  0  0  0  0  0
   49.8640   33.0180   37.5730 H   0  0  0  0  0  0  0  0  0  0  0  0
   48.2010   34.3450   37.2210 C   0  0  0  0  0  0  0  0  0  0  0  0
   48.3730   35.0430   38.0830 H   0  0  0  0  0  0  0  0  0  0  0  0
   48.7220   34.8150   36.3480 H   0  0  0  0  0  0  0  0  0  0  0  0
   46.7900   34.2320   37.0180 N   0  0  0  0  0  0  0  0  0  0  0  0
   46.4000   35.0170   36.4510 H   0  0  0  0  0  0  0  0  0  0  0  0
   46.6250   33.3690   36.4370 H   0  0  0  0  0  0  0  0  0  0  0  0
  1  3  1  0  0  0  0
  1  2  1  0  0  0  0
  4  1  1  0  0  0  0
  4  5  2  0  0  0  0
  5  9  1  0  0  0  0
  6  5  1  0  0  0  0
  7  8  2  0  0  0  0
  7  6  1  0  0  0  0
  8  4  1  0  0  0  0
 10  7  1  0  0  0  0
 12 11  2  6  0  0  0
 12 10  1  0  0  0  0
 13 12  1  0  0  0  0
 14 13  1  0  0  0  0
 15 16  1  0  0  0  0
 15 12  1  0  0  0  0
 16 17  1  0  0  0  0
 17 18  1  0  0  0  0
 17 19  1  0  0  0  0
 19 20  1  0  0  0  0
 21 17  1  0  0  0  0
 22 21  1  0  0  0  0
 23 26  1  0  0  0  0
 23  1  1  0  0  0  0
 24 23  1  0  0  0  0
 25 23  1  0  0  0  0
 26 31  1  0  0  0  0
 27 28  1  0  0  0  0
 27 26  2  0  0  0  0
 28 29  2  0  0  0  0
 29 30  1  0  0  0  0
 30 33  1  0  0  0  0
 31 30  2  0  0  0  0
 32 28  1  0  0  0  0
 34 27  1  0  0  0  0
 35 37  1  0  0  0  0
 35 34  1  0  0  0  0
 36 35  1  0  0  0  0
 38 35  1  0  0  0  0
 38 39  1  0  0  0  0
 40 38  1  0  0  0  0
 41 38  1  0  0  0  0
 42 41  1  0  0  0  0
 43 41  1  0  0  0  0
M  END
>  <minimizedAffinity>
-4.23097563

>  <minimizedRMSD>
1.96118331

$$$$
