
 OpenBabel03252507493D

 43 44  0  0  0  0  0  0  0  0999 V2000
   47.2850   35.1770   42.3130 C   0  0  0  0  0  0  0  0  0  0  0  0
   47.5520   34.3760   43.0640 H   0  0  0  0  0  0  0  0  0  0  0  0
   47.4960   36.1580   42.7650 H   0  0  0  0  0  0  0  0  0  0  0  0
   45.8190   35.0310   42.1010 C   0  0  0  0  0  0  0  0  0  0  0  0
   44.9020   35.8470   42.8270 C   0  0  0  0  0  0  0  0  0  0  0  0
   43.2760   35.2990   42.2260 S   0  0  0  0  0  0  0  0  0  0  0  0
   44.1090   34.0250   41.0660 C   0  0  0  0  0  0  0  0  0  0  0  0
   45.2100   34.2080   41.2940 N   0  0  0  0  0  0  0  0  0  0  0  0
   45.1530   36.6010   43.5510 H   0  0  0  0  0  0  0  0  0  0  0  0
   43.3910   33.1800   40.2310 O   0  0  0  0  0  0  0  0  0  0  0  0
   41.6870   33.1720   38.2030 O   0  0  0  0  0  0  0  0  0  0  0  0
   43.0360   33.7380   38.6760 P   0  0  1  0  0  0  0  0  0  0  0  0
   42.8680   35.4330   38.7590 O   0  0  0  0  0  0  0  0  0  0  0  0
   43.6160   35.8890   38.2950 H   0  0  0  0  0  0  0  0  0  0  0  0
   44.2670   33.3830   37.6080 O   0  0  0  0  0  0  0  0  0  0  0  0
   44.7270   32.1030   37.6440 C   0  0  0  0  0  2  0  0  0  0  0  0
   43.8030   31.0780   38.0290 N   0  0  0  0  0  4  0  0  0  0  0  0
   42.9960   31.3770   38.5800 H   0  0  0  0  0  0  0  0  0  0  0  0
   44.5720   30.1600   38.8870 C   0  0  0  0  0  2  0  0  0  0  0  0
   43.9300   29.3020   39.1700 H   0  0  0  0  0  0  0  0  0  0  0  0
   43.3360   30.2840   36.9170 C   0  0  0  0  0  2  0  0  0  0  0  0
   43.5520   30.7500   35.9330 H   0  0  0  0  0  0  0  0  0  0  0  0
   48.1150   34.9370   41.1000 C   0  0  0  0  0  0  0  0  0  0  0  0
   47.4900   34.7350   40.2280 H   0  0  0  0  0  0  0  0  0  0  0  0
   48.6400   35.9080   40.8630 H   0  0  0  0  0  0  0  0  0  0  0  0
   49.1750   33.9340   41.2990 C   0  0  0  0  0  0  0  0  0  0  0  0
   49.1790   32.8450   40.4360 C   0  0  0  0  0  0  0  0  0  0  0  0
   50.1330   31.8540   40.5450 C   0  0  0  0  0  0  0  0  0  0  0  0
   51.0750   32.0120   41.5590 N   0  0  0  0  0  0  0  0  0  0  0  0
   51.0280   33.0990   42.3820 C   0  0  0  0  0  0  0  0  0  0  0  0
   50.0910   34.0310   42.2400 N   0  0  0  0  0  0  0  0  0  0  0  0
   50.1480   31.0120   39.8870 H   0  0  0  0  0  0  0  0  0  0  0  0
   51.8010   33.1120   43.1210 H   0  0  0  0  0  0  0  0  0  0  0  0
   47.9340   32.7130   39.1550 S   0  0  0  0  0  0  0  0  0  0  0  0
   48.7190   32.4150   37.5450 C   0  0  0  0  0  0  0  0  0  0  0  0
   48.2030   31.5240   37.0980 H   0  0  0  0  0  0  0  0  0  0  0  0
   49.7960   32.1950   37.6510 H   0  0  0  0  0  0  0  0  0  0  0  0
   48.4970   33.6060   36.6660 C   0  0  0  0  0  0  0  0  0  0  0  0
   47.4440   33.9740   36.7970 H   0  0  0  0  0  0  0  0  0  0  0  0
   49.1530   34.4690   36.9470 H   0  0  0  0  0  0  0  0  0  0  0  0
   48.6620   33.2180   35.2990 N   0  0  0  0  0  0  0  0  0  0  0  0
   48.8740   34.0260   34.6730 H   0  0  0  0  0  0  0  0  0  0  0  0
   49.5160   32.6030   35.2490 H   0  0  0  0  0  0  0  0  0  0  0  0
  1  3  1  0  0  0  0
  1  2  1  0  0  0  0
  4  1  1  0  0  0  0
  4  5  2  0  0  0  0
  5  9  1  0  0  0  0
  6  5  1  0  0  0  0
  7  8  2  0  0  0  0
  7  6  1  0  0  0  0
  8  4  1  0  0  0  0
 10  7  1  0  0  0  0
 12 11  2  6  0  0  0
 12 13  1  0  0  0  0
 12 10  1  0  0  0  0
 14 13  1  0  0  0  0
 15 16  1  0  0  0  0
 15 12  1  0  0  0  0
 16 17  1  0  0  0  0
 17 18  1  0  0  0  0
 17 19  1  0  0  0  0
 19 20  1  0  0  0  0
 21 17  1  0  0  0  0
 22 21  1  0  0  0  0
 23 26  1  0  0  0  0
 23  1  1  0  0  0  0
 24 23  1  0  0  0  0
 25 23  1  0  0  0  0
 26 31  1  0  0  0  0
 27 28  1  0  0  0  0
 27 26  2  0  0  0  0
 28 29  2  0  0  0  0
 29 30  1  0  0  0  0
 30 33  1  0  0  0  0
 31 30  2  0  0  0  0
 32 28  1  0  0  0  0
 34 27  1  0  0  0  0
 35 37  1  0  0  0  0
 35 34  1  0  0  0  0
 36 35  1  0  0  0  0
 38 39  1  0  0  0  0
 38 40  1  0  0  0  0
 38 35  1  0  0  0  0
 41 38  1  0  0  0  0
 42 41  1  0  0  0  0
 43 41  1  0  0  0  0
M  END
>  <minimizedAffinity>
-4.06054783

>  <minimizedRMSD>
1.53119016

$$$$
