
 OpenBabel03252507493D

 43 44  0  0  0  0  0  0  0  0999 V2000
   46.7720   34.9040   42.3470 C   0  0  0  0  0  0  0  0  0  0  0  0
   46.9740   33.9510   42.9200 H   0  0  0  0  0  0  0  0  0  0  0  0
   46.9130   35.7540   43.0310 H   0  0  0  0  0  0  0  0  0  0  0  0
   45.3400   34.8160   41.9490 C   0  0  0  0  0  0  0  0  0  0  0  0
   44.4130   35.8130   42.3750 C   0  0  0  0  0  0  0  0  0  0  0  0
   42.8390   35.2690   41.6460 S   0  0  0  0  0  0  0  0  0  0  0  0
   43.6990   33.7480   40.8660 C   0  0  0  0  0  0  0  0  0  0  0  0
   44.7720   33.8980   41.2190 N   0  0  0  0  0  0  0  0  0  0  0  0
   44.6330   36.6720   42.9830 H   0  0  0  0  0  0  0  0  0  0  0  0
   43.0250   32.8100   40.0970 O   0  0  0  0  0  0  0  0  0  0  0  0
   41.8530   32.3570   37.7650 O   0  0  0  0  0  0  0  0  0  0  0  0
   43.0970   32.9820   38.4170 P   0  0  1  0  0  0  0  0  0  0  0  0
   43.0640   34.6500   38.0650 O   0  0  0  0  0  0  0  0  0  0  0  0
   43.9380   34.9580   37.7120 H   0  0  0  0  0  0  0  0  0  0  0  0
   44.5090   32.3420   37.8020 O   0  0  0  0  0  0  0  0  0  0  0  0
   44.5970   30.9850   37.8170 C   0  0  0  0  0  2  0  0  0  0  0  0
   43.9530   30.2920   38.8930 N   0  0  0  0  0  4  0  0  0  0  0  0
   43.3040   30.8390   39.4630 H   0  0  0  0  0  0  0  0  0  0  0  0
   45.0410   29.8710   39.7930 C   0  0  0  0  0  2  0  0  0  0  0  0
   44.6150   29.2700   40.6230 H   0  0  0  0  0  0  0  0  0  0  0  0
   43.2920   29.0780   38.4760 C   0  0  0  0  0  2  0  0  0  0  0  0
   43.1630   29.0140   37.3750 H   0  0  0  0  0  0  0  0  0  0  0  0
   47.7320   34.9440   41.2080 C   0  0  0  0  0  0  0  0  0  0  0  0
   47.2200   34.7990   40.2550 H   0  0  0  0  0  0  0  0  0  0  0  0
   48.1410   35.9950   41.1600 H   0  0  0  0  0  0  0  0  0  0  0  0
   48.8930   34.0570   41.3840 C   0  0  0  0  0  0  0  0  0  0  0  0
   48.9830   32.9630   40.5320 C   0  0  0  0  0  0  0  0  0  0  0  0
   50.0360   32.0750   40.6200 C   0  0  0  0  0  0  0  0  0  0  0  0
   50.9860   32.3420   41.6040 N   0  0  0  0  0  0  0  0  0  0  0  0
   50.8540   33.4280   42.4180 C   0  0  0  0  0  0  0  0  0  0  0  0
   49.8230   34.2590   42.2960 N   0  0  0  0  0  0  0  0  0  0  0  0
   50.1170   31.2310   39.9700 H   0  0  0  0  0  0  0  0  0  0  0  0
   51.6420   33.5290   43.1320 H   0  0  0  0  0  0  0  0  0  0  0  0
   47.7200   32.6890   39.2910 S   0  0  0  0  0  0  0  0  0  0  0  0
   48.4870   32.3140   37.6880 C   0  0  0  0  0  0  0  0  0  0  0  0
   47.7590   31.6660   37.1300 H   0  0  0  0  0  0  0  0  0  0  0  0
   49.4390   31.7680   37.8090 H   0  0  0  0  0  0  0  0  0  0  0  0
   48.6890   33.5900   36.9320 C   0  0  0  0  0  0  0  0  0  0  0  0
   47.8430   34.2930   37.1580 H   0  0  0  0  0  0  0  0  0  0  0  0
   49.6180   34.1280   37.2500 H   0  0  0  0  0  0  0  0  0  0  0  0
   48.6710   33.3140   35.5300 N   0  0  0  0  0  0  0  0  0  0  0  0
   49.1460   34.0530   34.9670 H   0  0  0  0  0  0  0  0  0  0  0  0
   49.2450   32.4430   35.3750 H   0  0  0  0  0  0  0  0  0  0  0  0
  1  2  1  0  0  0  0
  1  3  1  0  0  0  0
  4  1  1  0  0  0  0
  4  5  2  0  0  0  0
  5  9  1  0  0  0  0
  6  5  1  0  0  0  0
  7  8  2  0  0  0  0
  7  6  1  0  0  0  0
  8  4  1  0  0  0  0
 10  7  1  0  0  0  0
 12 11  2  6  0  0  0
 12 10  1  0  0  0  0
 13 12  1  0  0  0  0
 14 13  1  0  0  0  0
 15 16  1  0  0  0  0
 15 12  1  0  0  0  0
 16 17  1  0  0  0  0
 17 18  1  0  0  0  0
 17 19  1  0  0  0  0
 19 20  1  0  0  0  0
 21 17  1  0  0  0  0
 22 21  1  0  0  0  0
 23 26  1  0  0  0  0
 23  1  1  0  0  0  0
 24 23  1  0  0  0  0
 25 23  1  0  0  0  0
 26 31  1  0  0  0  0
 27 28  1  0  0  0  0
 27 26  2  0  0  0  0
 28 29  2  0  0  0  0
 29 30  1  0  0  0  0
 30 33  1  0  0  0  0
 31 30  2  0  0  0  0
 32 28  1  0  0  0  0
 34 27  1  0  0  0  0
 35 37  1  0  0  0  0
 35 34  1  0  0  0  0
 36 35  1  0  0  0  0
 38 39  1  0  0  0  0
 38 40  1  0  0  0  0
 38 35  1  0  0  0  0
 41 38  1  0  0  0  0
 42 41  1  0  0  0  0
 43 41  1  0  0  0  0
M  END
>  <minimizedAffinity>
-4.02323103

>  <minimizedRMSD>
2.1122663

$$$$
