
 OpenBabel03252507503D

 43 44  0  0  0  0  0  0  0  0999 V2000
   40.2690   29.1890   42.5020 C   0  0  0  0  0  0  0  0  0  0  0  0
   40.8410   28.9590   41.5550 H   0  0  0  0  0  0  0  0  0  0  0  0
   40.8560   28.8220   43.3570 H   0  0  0  0  0  0  0  0  0  0  0  0
   39.0080   28.4070   42.3890 C   0  0  0  0  0  0  0  0  0  0  0  0
   38.6450   27.4780   43.4090 C   0  0  0  0  0  0  0  0  0  0  0  0
   37.0650   26.7970   42.8200 S   0  0  0  0  0  0  0  0  0  0  0  0
   37.1470   27.8980   41.2560 C   0  0  0  0  0  0  0  0  0  0  0  0
   38.1290   28.4500   41.4280 N   0  0  0  0  0  0  0  0  0  0  0  0
   39.2010   27.2600   44.3020 H   0  0  0  0  0  0  0  0  0  0  0  0
   36.1680   27.8890   40.2730 O   0  0  0  0  0  0  0  0  0  0  0  0
   33.9830   29.1630   39.4860 O   0  0  0  0  0  0  0  0  0  0  0  0
   35.4580   29.3670   39.8650 P   0  0  1  0  0  0  0  0  0  0  0  0
   35.4880   30.3570   41.2540 O   0  0  0  0  0  0  0  0  0  0  0  0
   36.1230   31.1100   41.1430 H   0  0  0  0  0  0  0  0  0  0  0  0
   36.3100   30.1350   38.6540 O   0  0  0  0  0  0  0  0  0  0  0  0
   36.1340   29.6350   37.4020 C   0  0  0  0  0  2  0  0  0  0  0  0
   37.0710   28.6530   36.9440 N   0  0  0  0  0  4  0  0  0  0  0  0
   36.9860   27.7190   37.3510 H   0  0  0  0  0  0  0  0  0  0  0  0
   38.3950   29.1600   37.3450 C   0  0  0  0  0  2  0  0  0  0  0  0
   39.1790   28.4740   36.9640 H   0  0  0  0  0  0  0  0  0  0  0  0
   37.1130   28.5300   35.5060 C   0  0  0  0  0  2  0  0  0  0  0  0
   36.2450   29.0110   35.0070 H   0  0  0  0  0  0  0  0  0  0  0  0
   40.0810   30.6670   42.5540 C   0  0  0  0  0  0  0  0  0  0  0  0
   39.2770   30.9860   41.8890 H   0  0  0  0  0  0  0  0  0  0  0  0
   39.7150   30.9150   43.5930 H   0  0  0  0  0  0  0  0  0  0  0  0
   41.3280   31.4270   42.3640 C   0  0  0  0  0  0  0  0  0  0  0  0
   41.3820   32.2820   41.2710 C   0  0  0  0  0  0  0  0  0  0  0  0
   42.5070   33.0370   41.0100 C   0  0  0  0  0  0  0  0  0  0  0  0
   43.5700   32.8860   41.8990 N   0  0  0  0  0  0  0  0  0  0  0  0
   43.4700   32.0320   42.9580 C   0  0  0  0  0  0  0  0  0  0  0  0
   42.3640   31.3250   43.1710 N   0  0  0  0  0  0  0  0  0  0  0  0
   42.5600   33.6990   40.1730 H   0  0  0  0  0  0  0  0  0  0  0  0
   44.3460   32.0010   43.5690 H   0  0  0  0  0  0  0  0  0  0  0  0
   39.9720   32.4210   40.1730 S   0  0  0  0  0  0  0  0  0  0  0  0
   38.9680   33.8670   40.6210 C   0  0  0  0  0  0  0  0  0  0  0  0
   39.5830   34.7720   40.3700 H   0  0  0  0  0  0  0  0  0  0  0  0
   38.7290   33.8800   41.6990 H   0  0  0  0  0  0  0  0  0  0  0  0
   37.7230   33.8730   39.7920 C   0  0  0  0  0  0  0  0  0  0  0  0
   37.1930   34.8550   39.9230 H   0  0  0  0  0  0  0  0  0  0  0  0
   37.9420   33.7960   38.6960 H   0  0  0  0  0  0  0  0  0  0  0  0
   36.8500   32.8360   40.2480 N   0  0  0  0  0  0  0  0  0  0  0  0
   36.1530   32.5490   39.5260 H   0  0  0  0  0  0  0  0  0  0  0  0
   37.4410   31.9790   40.4120 H   0  0  0  0  0  0  0  0  0  0  0  0
  1 23  1  0  0  0  0
  1  3  1  0  0  0  0
  2  1  1  0  0  0  0
  4  1  1  0  0  0  0
  4  5  2  0  0  0  0
  5  9  1  0  0  0  0
  6  5  1  0  0  0  0
  7  8  2  0  0  0  0
  7  6  1  0  0  0  0
  8  4  1  0  0  0  0
 10  7  1  0  0  0  0
 12 11  2  6  0  0  0
 12 10  1  0  0  0  0
 12 13  1  0  0  0  0
 14 13  1  0  0  0  0
 15 12  1  0  0  0  0
 16 15  1  0  0  0  0
 17 19  1  0  0  0  0
 17 18  1  0  0  0  0
 17 16  1  0  0  0  0
 20 19  1  0  0  0  0
 21 17  1  0  0  0  0
 22 21  1  0  0  0  0
 23 25  1  0  0  0  0
 24 23  1  0  0  0  0
 26 23  1  0  0  0  0
 26 31  1  0  0  0  0
 27 26  2  0  0  0  0
 28 27  1  0  0  0  0
 28 29  2  0  0  0  0
 29 30  1  0  0  0  0
 30 31  2  0  0  0  0
 30 33  1  0  0  0  0
 32 28  1  0  0  0  0
 34 35  1  0  0  0  0
 34 27  1  0  0  0  0
 35 37  1  0  0  0  0
 36 35  1  0  0  0  0
 38 39  1  0  0  0  0
 38 41  1  0  0  0  0
 38 35  1  0  0  0  0
 40 38  1  0  0  0  0
 41 43  1  0  0  0  0
 42 41  1  0  0  0  0
M  END
>  <minimizedAffinity>
-4.80921316

$$$$

 OpenBabel03252507503D

 43 44  0  0  0  0  0  0  0  0999 V2000
   36.8550   25.7600   42.3910 C   0  0  0  0  0  0  0  0  0  0  0  0
   36.1900   25.7460   41.4770 H   0  0  0  0  0  0  0  0  0  0  0  0
   36.2200   25.6290   43.2810 H   0  0  0  0  0  0  0  0  0  0  0  0
   37.4600   27.1190   42.4060 C   0  0  0  0  0  0  0  0  0  0  0  0
   38.0910   27.6130   43.5860 C   0  0  0  0  0  0  0  0  0  0  0  0
   38.6560   29.2720   43.1040 S   0  0  0  0  0  0  0  0  0  0  0  0
   37.9350   29.0320   41.3470 C   0  0  0  0  0  0  0  0  0  0  0  0
   37.5000   27.9820   41.4300 N   0  0  0  0  0  0  0  0  0  0  0  0
   38.1890   27.0940   44.5220 H   0  0  0  0  0  0  0  0  0  0  0  0
   38.0180   30.0010   40.3580 O   0  0  0  0  0  0  0  0  0  0  0  0
   35.8480   30.0220   38.8380 O   0  0  0  0  0  0  0  0  0  0  0  0
   36.5940   30.8050   39.9310 P   0  0  1  0  0  0  0  0  0  0  0  0
   35.5850   30.8350   41.3050 O   0  0  0  0  0  0  0  0  0  0  0  0
   35.4980   31.7540   41.6650 H   0  0  0  0  0  0  0  0  0  0  0  0
   36.9000   32.3780   39.4700 O   0  0  0  0  0  0  0  0  0  0  0  0
   38.1370   32.6100   38.9520 C   0  0  0  0  0  2  0  0  0  0  0  0
   39.2070   32.8410   39.8760 N   0  0  0  0  0  4  0  0  0  0  0  0
   39.3400   32.1360   40.6030 H   0  0  0  0  0  0  0  0  0  0  0  0
   38.8600   34.0930   40.5710 C   0  0  0  0  0  2  0  0  0  0  0  0
   39.6830   34.3670   41.2610 H   0  0  0  0  0  0  0  0  0  0  0  0
   40.4750   33.0860   39.2300 C   0  0  0  0  0  2  0  0  0  0  0  0
   40.4750   32.7990   38.1570 H   0  0  0  0  0  0  0  0  0  0  0  0
   37.8320   24.6450   42.2410 C   0  0  0  0  0  0  0  0  0  0  0  0
   38.4320   24.5220   43.1440 H   0  0  0  0  0  0  0  0  0  0  0  0
   37.2340   23.6920   42.1580 H   0  0  0  0  0  0  0  0  0  0  0  0
   38.6420   24.7320   41.0140 C   0  0  0  0  0  0  0  0  0  0  0  0
   40.0140   24.8760   41.1750 C   0  0  0  0  0  0  0  0  0  0  0  0
   40.8540   24.9660   40.0850 C   0  0  0  0  0  0  0  0  0  0  0  0
   40.2480   24.9050   38.8320 N   0  0  0  0  0  0  0  0  0  0  0  0
   38.8950   24.7640   38.7240 C   0  0  0  0  0  0  0  0  0  0  0  0
   38.1230   24.6800   39.8040 N   0  0  0  0  0  0  0  0  0  0  0  0
   41.9110   25.0760   40.1960 H   0  0  0  0  0  0  0  0  0  0  0  0
   38.5450   24.7300   37.7150 H   0  0  0  0  0  0  0  0  0  0  0  0
   40.7190   24.9460   42.8210 S   0  0  0  0  0  0  0  0  0  0  0  0
   41.6540   26.4870   43.0380 C   0  0  0  0  0  0  0  0  0  0  0  0
   41.3100   26.9350   44.0080 H   0  0  0  0  0  0  0  0  0  0  0  0
   41.4580   27.2020   42.2190 H   0  0  0  0  0  0  0  0  0  0  0  0
   43.1120   26.1650   43.1340 C   0  0  0  0  0  0  0  0  0  0  0  0
   43.5970   26.3310   42.1350 H   0  0  0  0  0  0  0  0  0  0  0  0
   43.6510   26.8450   43.8440 H   0  0  0  0  0  0  0  0  0  0  0  0
   43.2670   24.7860   43.4770 N   0  0  0  0  0  0  0  0  0  0  0  0
   44.1980   24.5770   43.9010 H   0  0  0  0  0  0  0  0  0  0  0  0
   42.5680   24.5710   44.2350 H   0  0  0  0  0  0  0  0  0  0  0  0
  1  4  1  0  0  0  0
  1  3  1  0  0  0  0
  2  1  1  0  0  0  0
  4  5  2  0  0  0  0
  5  9  1  0  0  0  0
  6  5  1  0  0  0  0
  7  8  2  0  0  0  0
  7  6  1  0  0  0  0
  8  4  1  0  0  0  0
 10  7  1  0  0  0  0
 12 11  2  6  0  0  0
 12 10  1  0  0  0  0
 12 13  1  0  0  0  0
 13 14  1  0  0  0  0
 15 12  1  0  0  0  0
 16 15  1  0  0  0  0
 16 17  1  0  0  0  0
 17 19  1  0  0  0  0
 17 18  1  0  0  0  0
 19 20  1  0  0  0  0
 21 17  1  0  0  0  0
 22 21  1  0  0  0  0
 23  1  1  0  0  0  0
 23 24  1  0  0  0  0
 25 23  1  0  0  0  0
 26 27  1  0  0  0  0
 26 23  1  0  0  0  0
 27 34  1  0  0  0  0
 28 32  1  0  0  0  0
 28 27  2  0  0  0  0
 29 28  1  0  0  0  0
 30 29  2  0  0  0  0
 30 31  1  0  0  0  0
 31 26  2  0  0  0  0
 33 30  1  0  0  0  0
 34 35  1  0  0  0  0
 35 38  1  0  0  0  0
 35 36  1  0  0  0  0
 37 35  1  0  0  0  0
 38 41  1  0  0  0  0
 38 40  1  0  0  0  0
 39 38  1  0  0  0  0
 41 42  1  0  0  0  0
 41 43  1  0  0  0  0
M  END
>  <minimizedAffinity>
-4.80855894

$$$$

 OpenBabel03252507503D

 43 44  0  0  0  0  0  0  0  0999 V2000
   37.4270   31.2870   37.3920 C   0  0  0  0  0  0  0  0  0  0  0  0
   36.9350   32.0930   38.0120 H   0  0  0  0  0  0  0  0  0  0  0  0
   37.1940   31.4750   36.3340 H   0  0  0  0  0  0  0  0  0  0  0  0
   36.7790   30.0200   37.8280 C   0  0  0  0  0  0  0  0  0  0  0  0
   36.3630   29.0560   36.8630 C   0  0  0  0  0  0  0  0  0  0  0  0
   35.6490   27.7230   37.8740 S   0  0  0  0  0  0  0  0  0  0  0  0
   36.0320   28.7000   39.4740 C   0  0  0  0  0  0  0  0  0  0  0  0
   36.5180   29.6380   39.0470 N   0  0  0  0  0  0  0  0  0  0  0  0
   36.4650   29.1350   35.7960 H   0  0  0  0  0  0  0  0  0  0  0  0
   35.7250   28.2250   40.7410 O   0  0  0  0  0  0  0  0  0  0  0  0
   37.0960   29.9580   42.2020 O   0  0  0  0  0  0  0  0  0  0  0  0
   36.8720   28.4570   41.9610 P   0  0  1  0  0  0  0  0  0  0  0  0
   36.2340   27.8060   43.4020 O   0  0  0  0  0  0  0  0  0  0  0  0
   36.7260   26.9910   43.6750 H   0  0  0  0  0  0  0  0  0  0  0  0
   38.2970   27.6630   41.6110 O   0  0  0  0  0  0  0  0  0  0  0  0
   38.2680   26.3110   41.7540 C   0  0  0  0  0  2  0  0  0  0  0  0
   37.1550   25.6100   41.1880 N   0  0  0  0  0  4  0  0  0  0  0  0
   36.2650   26.1130   41.1620 H   0  0  0  0  0  0  0  0  0  0  0  0
   36.9440   24.4420   42.0610 C   0  0  0  0  0  2  0  0  0  0  0  0
   36.1300   23.8150   41.6420 H   0  0  0  0  0  0  0  0  0  0  0  0
   37.4240   25.0760   39.8730 C   0  0  0  0  0  2  0  0  0  0  0  0
   38.3350   25.5120   39.4100 H   0  0  0  0  0  0  0  0  0  0  0  0
   38.8910   31.3590   37.6580 C   0  0  0  0  0  0  0  0  0  0  0  0
   39.3150   30.3640   37.8050 H   0  0  0  0  0  0  0  0  0  0  0  0
   39.3770   31.7450   36.7150 H   0  0  0  0  0  0  0  0  0  0  0  0
   39.2510   32.3080   38.7250 C   0  0  0  0  0  0  0  0  0  0  0  0
   40.5100   32.8900   38.6490 C   0  0  0  0  0  0  0  0  0  0  0  0
   40.9370   33.7910   39.6030 C   0  0  0  0  0  0  0  0  0  0  0  0
   40.0390   34.0730   40.6310 N   0  0  0  0  0  0  0  0  0  0  0  0
   38.8140   33.4750   40.6620 C   0  0  0  0  0  0  0  0  0  0  0  0
   38.4440   32.6130   39.7200 N   0  0  0  0  0  0  0  0  0  0  0  0
   41.9020   34.2470   39.5560 H   0  0  0  0  0  0  0  0  0  0  0  0
   38.2130   33.7680   41.4960 H   0  0  0  0  0  0  0  0  0  0  0  0
   41.6080   32.4760   37.2950 S   0  0  0  0  0  0  0  0  0  0  0  0
   43.2560   32.0540   37.9310 C   0  0  0  0  0  0  0  0  0  0  0  0
   43.6550   31.2410   37.2670 H   0  0  0  0  0  0  0  0  0  0  0  0
   43.2100   31.6840   38.9700 H   0  0  0  0  0  0  0  0  0  0  0  0
   44.1420   33.2550   37.8250 C   0  0  0  0  0  0  0  0  0  0  0  0
   44.1730   33.7830   38.8160 H   0  0  0  0  0  0  0  0  0  0  0  0
   45.2050   32.9790   37.6010 H   0  0  0  0  0  0  0  0  0  0  0  0
   43.5980   34.1580   36.8600 N   0  0  0  0  0  0  0  0  0  0  0  0
   44.3100   34.8190   36.4780 H   0  0  0  0  0  0  0  0  0  0  0  0
   43.2890   33.5830   36.0330 H   0  0  0  0  0  0  0  0  0  0  0  0
  1 23  1  0  0  0  0
  1  4  1  0  0  0  0
  1  2  1  0  0  0  0
  3  1  1  0  0  0  0
  4  8  1  0  0  0  0
  5  4  2  0  0  0  0
  5  6  1  0  0  0  0
  6  7  1  0  0  0  0
  7 10  1  0  0  0  0
  8  7  2  0  0  0  0
  9  5  1  0  0  0  0
 10 12  1  0  0  0  0
 12 11  2  1  0  0  0
 12 13  1  0  0  0  0
 13 14  1  0  0  0  0
 15 16  1  0  0  0  0
 15 12  1  0  0  0  0
 17 16  1  0  0  0  0
 17 19  1  0  0  0  0
 18 17  1  0  0  0  0
 20 19  1  0  0  0  0
 21 17  1  0  0  0  0
 22 21  1  0  0  0  0
 23 24  1  0  0  0  0
 23 26  1  0  0  0  0
 25 23  1  0  0  0  0
 26 31  1  0  0  0  0
 27 26  2  0  0  0  0
 27 28  1  0  0  0  0
 28 29  2  0  0  0  0
 29 30  1  0  0  0  0
 30 33  1  0  0  0  0
 31 30  2  0  0  0  0
 32 28  1  0  0  0  0
 34 35  1  0  0  0  0
 34 27  1  0  0  0  0
 35 37  1  0  0  0  0
 36 35  1  0  0  0  0
 38 35  1  0  0  0  0
 38 39  1  0  0  0  0
 40 38  1  0  0  0  0
 41 38  1  0  0  0  0
 42 41  1  0  0  0  0
 43 41  1  0  0  0  0
M  END
>  <minimizedAffinity>
-4.57119656

$$$$

 OpenBabel03252507503D

 43 44  0  0  0  0  0  0  0  0999 V2000
   37.7110   30.8570   37.9010 C   0  0  0  0  0  0  0  0  0  0  0  0
   38.5500   31.2500   37.2550 H   0  0  0  0  0  0  0  0  0  0  0  0
   36.8580   31.5460   37.8150 H   0  0  0  0  0  0  0  0  0  0  0  0
   38.2450   30.8950   39.2900 C   0  0  0  0  0  0  0  0  0  0  0  0
   39.1910   31.8930   39.6700 C   0  0  0  0  0  0  0  0  0  0  0  0
   39.5220   31.5210   41.4180 S   0  0  0  0  0  0  0  0  0  0  0  0
   38.3060   30.0450   41.3590 C   0  0  0  0  0  0  0  0  0  0  0  0
   37.9540   30.0940   40.2760 N   0  0  0  0  0  0  0  0  0  0  0  0
   39.5900   32.6670   39.0400 H   0  0  0  0  0  0  0  0  0  0  0  0
   38.0460   29.2350   42.4550 O   0  0  0  0  0  0  0  0  0  0  0  0
   36.3930   27.5290   43.6290 O   0  0  0  0  0  0  0  0  0  0  0  0
   36.9130   27.9970   42.2600 P   0  0  1  0  0  0  0  0  0  0  0  0
   35.5820   28.6420   41.4110 O   0  0  0  0  0  0  0  0  0  0  0  0
   35.5250   28.2660   40.4960 H   0  0  0  0  0  0  0  0  0  0  0  0
   37.5420   26.7340   41.3690 O   0  0  0  0  0  0  0  0  0  0  0  0
   38.2410   25.8060   42.0760 C   0  0  0  0  0  2  0  0  0  0  0  0
   37.8120   24.4420   41.9840 N   0  0  0  0  0  4  0  0  0  0  0  0
   37.6770   23.9470   42.8680 H   0  0  0  0  0  0  0  0  0  0  0  0
   38.8960   23.7390   41.2760 C   0  0  0  0  0  2  0  0  0  0  0  0
   38.6000   22.6830   41.1120 H   0  0  0  0  0  0  0  0  0  0  0  0
   36.6320   24.2700   41.1700 C   0  0  0  0  0  2  0  0  0  0  0  0
   36.1020   25.2260   40.9710 H   0  0  0  0  0  0  0  0  0  0  0  0
   37.3730   29.4940   37.4030 C   0  0  0  0  0  0  0  0  0  0  0  0
   37.8880   29.2780   36.4650 H   0  0  0  0  0  0  0  0  0  0  0  0
   37.8000   28.7580   38.1440 H   0  0  0  0  0  0  0  0  0  0  0  0
   35.9250   29.2290   37.3450 C   0  0  0  0  0  0  0  0  0  0  0  0
   35.3560   29.1220   36.0830 C   0  0  0  0  0  0  0  0  0  0  0  0
   34.0070   28.8750   35.9280 C   0  0  0  0  0  0  0  0  0  0  0  0
   33.2660   28.7420   37.1000 N   0  0  0  0  0  0  0  0  0  0  0  0
   33.8710   28.8560   38.3170 C   0  0  0  0  0  0  0  0  0  0  0  0
   35.1750   29.0940   38.4190 N   0  0  0  0  0  0  0  0  0  0  0  0
   33.5580   28.7900   34.9620 H   0  0  0  0  0  0  0  0  0  0  0  0
   33.2020   28.7360   39.1420 H   0  0  0  0  0  0  0  0  0  0  0  0
   36.3770   29.3050   34.6220 S   0  0  0  0  0  0  0  0  0  0  0  0
   36.3720   31.0340   34.0650 C   0  0  0  0  0  0  0  0  0  0  0  0
   37.2440   31.5330   34.5670 H   0  0  0  0  0  0  0  0  0  0  0  0
   35.4420   31.5530   34.3550 H   0  0  0  0  0  0  0  0  0  0  0  0
   36.5710   31.0700   32.5830 C   0  0  0  0  0  0  0  0  0  0  0  0
   36.7750   30.0310   32.2090 H   0  0  0  0  0  0  0  0  0  0  0  0
   35.6510   31.4070   32.0400 H   0  0  0  0  0  0  0  0  0  0  0  0
   37.7100   31.8800   32.2800 N   0  0  0  0  0  0  0  0  0  0  0  0
   37.7010   32.2390   31.3000 H   0  0  0  0  0  0  0  0  0  0  0  0
   37.6510   32.7410   32.8860 H   0  0  0  0  0  0  0  0  0  0  0  0
  1  4  1  0  0  0  0
  2  1  1  0  0  0  0
  3  1  1  0  0  0  0
  4  5  2  0  0  0  0
  4  8  1  0  0  0  0
  5  6  1  0  0  0  0
  7  6  1  0  0  0  0
  7 10  1  0  0  0  0
  8  7  2  0  0  0  0
  9  5  1  0  0  0  0
 12 10  1  0  0  0  0
 12 11  2  1  0  0  0
 13 12  1  0  0  0  0
 14 13  1  0  0  0  0
 15 16  1  0  0  0  0
 15 12  1  0  0  0  0
 17 16  1  0  0  0  0
 17 18  1  0  0  0  0
 19 17  1  0  0  0  0
 20 19  1  0  0  0  0
 21 17  1  0  0  0  0
 22 21  1  0  0  0  0
 23  1  1  0  0  0  0
 23 25  1  0  0  0  0
 24 23  1  0  0  0  0
 26 23  1  0  0  0  0
 26 31  1  0  0  0  0
 27 26  2  0  0  0  0
 28 27  1  0  0  0  0
 28 29  2  0  0  0  0
 29 30  1  0  0  0  0
 30 31  2  0  0  0  0
 30 33  1  0  0  0  0
 32 28  1  0  0  0  0
 34 27  1  0  0  0  0
 35 37  1  0  0  0  0
 35 36  1  0  0  0  0
 35 34  1  0  0  0  0
 38 35  1  0  0  0  0
 39 38  1  0  0  0  0
 40 38  1  0  0  0  0
 41 38  1  0  0  0  0
 41 43  1  0  0  0  0
 42 41  1  0  0  0  0
M  END
>  <minimizedAffinity>
-4.55971003

$$$$

 OpenBabel03252507503D

 43 44  0  0  0  0  0  0  0  0999 V2000
   36.3040   29.3530   38.2380 C   0  0  0  0  0  0  0  0  0  0  0  0
   35.7490   29.2650   37.2580 H   0  0  0  0  0  0  0  0  0  0  0  0
   36.1610   30.3730   38.6240 H   0  0  0  0  0  0  0  0  0  0  0  0
   37.7360   29.1480   37.8890 C   0  0  0  0  0  0  0  0  0  0  0  0
   38.1300   28.0320   37.0930 C   0  0  0  0  0  0  0  0  0  0  0  0
   39.9320   28.2250   36.9510 S   0  0  0  0  0  0  0  0  0  0  0  0
   39.8680   29.8160   38.0130 C   0  0  0  0  0  0  0  0  0  0  0  0
   38.7520   29.8910   38.2290 N   0  0  0  0  0  0  0  0  0  0  0  0
   37.4820   27.2750   36.6890 H   0  0  0  0  0  0  0  0  0  0  0  0
   40.9970   30.5570   38.3330 O   0  0  0  0  0  0  0  0  0  0  0  0
   42.3190   32.2810   36.8180 O   0  0  0  0  0  0  0  0  0  0  0  0
   41.0920   32.1330   37.7320 P   0  0  1  0  0  0  0  0  0  0  0  0
   39.7120   32.4040   36.7670 O   0  0  0  0  0  0  0  0  0  0  0  0
   39.0990   33.0540   37.1960 H   0  0  0  0  0  0  0  0  0  0  0  0
   41.0980   33.2540   38.9670 O   0  0  0  0  0  0  0  0  0  0  0  0
   39.8790   33.5730   39.4790 C   0  0  0  0  0  2  0  0  0  0  0  0
   39.0310   32.4950   39.8890 N   0  0  0  0  0  4  0  0  0  0  0  0
   39.0320   31.6640   39.2940 H   0  0  0  0  0  0  0  0  0  0  0  0
   37.6610   33.0360   39.8440 C   0  0  0  0  0  2  0  0  0  0  0  0
   36.9530   32.2660   40.2130 H   0  0  0  0  0  0  0  0  0  0  0  0
   39.2490   32.0860   41.2570 C   0  0  0  0  0  2  0  0  0  0  0  0
   40.1980   32.4800   41.6790 H   0  0  0  0  0  0  0  0  0  0  0  0
   35.7360   28.3290   39.1590 C   0  0  0  0  0  0  0  0  0  0  0  0
   34.6530   28.4330   39.2460 H   0  0  0  0  0  0  0  0  0  0  0  0
   35.8930   27.3240   38.6700 H   0  0  0  0  0  0  0  0  0  0  0  0
   36.4190   28.2640   40.4620 C   0  0  0  0  0  0  0  0  0  0  0  0
   36.9120   27.0250   40.8520 C   0  0  0  0  0  0  0  0  0  0  0  0
   37.5670   26.8650   42.0560 C   0  0  0  0  0  0  0  0  0  0  0  0
   37.6980   28.0070   42.8430 N   0  0  0  0  0  0  0  0  0  0  0  0
   37.1950   29.2020   42.4180 C   0  0  0  0  0  0  0  0  0  0  0  0
   36.5720   29.3100   41.2480 N   0  0  0  0  0  0  0  0  0  0  0  0
   37.9520   25.9180   42.3670 H   0  0  0  0  0  0  0  0  0  0  0  0
   37.3560   30.0050   43.1040 H   0  0  0  0  0  0  0  0  0  0  0  0
   36.7040   25.6020   39.7830 S   0  0  0  0  0  0  0  0  0  0  0  0
   36.5250   24.0920   40.7760 C   0  0  0  0  0  0  0  0  0  0  0  0
   35.4240   23.8850   40.8460 H   0  0  0  0  0  0  0  0  0  0  0  0
   36.9350   24.2220   41.7930 H   0  0  0  0  0  0  0  0  0  0  0  0
   37.1950   22.9580   40.0650 C   0  0  0  0  0  0  0  0  0  0  0  0
   36.4340   22.1670   39.8270 H   0  0  0  0  0  0  0  0  0  0  0  0
   37.6210   23.2690   39.0770 H   0  0  0  0  0  0  0  0  0  0  0  0
   38.1790   22.3790   40.9260 N   0  0  0  0  0  0  0  0  0  0  0  0
   38.9080   21.8450   40.4040 H   0  0  0  0  0  0  0  0  0  0  0  0
   38.6990   23.1730   41.3850 H   0  0  0  0  0  0  0  0  0  0  0  0
  1  3  1  0  0  0  0
  1 23  1  0  0  0  0
  2  1  1  0  0  0  0
  4  8  1  0  0  0  0
  4  1  1  0  0  0  0
  5  4  2  0  0  0  0
  6  5  1  0  0  0  0
  6  7  1  0  0  0  0
  7  8  2  0  0  0  0
  7 10  1  0  0  0  0
  9  5  1  0  0  0  0
 12 11  2  6  0  0  0
 12 10  1  0  0  0  0
 12 15  1  0  0  0  0
 13 14  1  0  0  0  0
 13 12  1  0  0  0  0
 15 16  1  0  0  0  0
 16 17  1  0  0  0  0
 17 21  1  0  0  0  0
 18 17  1  0  0  0  0
 19 17  1  0  0  0  0
 19 20  1  0  0  0  0
 21 22  1  0  0  0  0
 23 24  1  0  0  0  0
 23 26  1  0  0  0  0
 25 23  1  0  0  0  0
 26 27  2  0  0  0  0
 26 31  1  0  0  0  0
 27 28  1  0  0  0  0
 28 32  1  0  0  0  0
 28 29  2  0  0  0  0
 30 29  1  0  0  0  0
 30 33  1  0  0  0  0
 31 30  2  0  0  0  0
 34 35  1  0  0  0  0
 34 27  1  0  0  0  0
 35 36  1  0  0  0  0
 35 37  1  0  0  0  0
 38 35  1  0  0  0  0
 38 41  1  0  0  0  0
 39 38  1  0  0  0  0
 40 38  1  0  0  0  0
 41 43  1  0  0  0  0
 42 41  1  0  0  0  0
M  END
>  <minimizedAffinity>
-4.55474377

$$$$

 OpenBabel03252507503D

 43 44  0  0  0  0  0  0  0  0999 V2000
   37.6540   27.9100   43.5950 C   0  0  0  0  0  0  0  0  0  0  0  0
   37.1500   28.5580   44.3700 H   0  0  0  0  0  0  0  0  0  0  0  0
   38.1280   27.0610   44.1110 H   0  0  0  0  0  0  0  0  0  0  0  0
   38.7030   28.7760   42.9920 C   0  0  0  0  0  0  0  0  0  0  0  0
   40.0000   28.2510   42.7170 C   0  0  0  0  0  0  0  0  0  0  0  0
   40.8910   29.6670   42.0050 S   0  0  0  0  0  0  0  0  0  0  0  0
   39.3380   30.7690   42.1970 C   0  0  0  0  0  0  0  0  0  0  0  0
   38.6010   30.0320   42.6570 N   0  0  0  0  0  0  0  0  0  0  0  0
   40.3340   27.2460   42.9020 H   0  0  0  0  0  0  0  0  0  0  0  0
   39.3060   32.1030   41.8140 O   0  0  0  0  0  0  0  0  0  0  0  0
   38.8580   31.2410   39.3490 O   0  0  0  0  0  0  0  0  0  0  0  0
   38.7060   32.4590   40.2750 P   0  0  1  0  0  0  0  0  0  0  0  0
   37.0360   32.7680   40.4290 O   0  0  0  0  0  0  0  0  0  0  0  0
   36.8330   33.7250   40.2690 H   0  0  0  0  0  0  0  0  0  0  0  0
   39.4350   33.8180   39.6400 O   0  0  0  0  0  0  0  0  0  0  0  0
   40.6290   34.1610   40.1960 C   0  0  0  0  0  2  0  0  0  0  0  0
   41.6720   33.1790   40.1800 N   0  0  0  0  0  4  0  0  0  0  0  0
   41.4030   32.2260   40.4310 H   0  0  0  0  0  0  0  0  0  0  0  0
   42.6380   33.6200   41.2010 C   0  0  0  0  0  2  0  0  0  0  0  0
   43.5100   32.9350   41.1980 H   0  0  0  0  0  0  0  0  0  0  0  0
   42.4020   33.1430   38.9340 C   0  0  0  0  0  2  0  0  0  0  0  0
   41.8810   33.6800   38.1130 H   0  0  0  0  0  0  0  0  0  0  0  0
   36.5990   27.4590   42.6450 C   0  0  0  0  0  0  0  0  0  0  0  0
   35.6390   27.3370   43.1500 H   0  0  0  0  0  0  0  0  0  0  0  0
   36.4350   28.3020   41.9110 H   0  0  0  0  0  0  0  0  0  0  0  0
   36.9870   26.2850   41.8450 C   0  0  0  0  0  0  0  0  0  0  0  0
   37.1150   26.4730   40.4740 C   0  0  0  0  0  0  0  0  0  0  0  0
   37.4750   25.4330   39.6430 C   0  0  0  0  0  0  0  0  0  0  0  0
   37.6970   24.2020   40.2560 N   0  0  0  0  0  0  0  0  0  0  0  0
   37.5570   24.0660   41.6060 C   0  0  0  0  0  0  0  0  0  0  0  0
   37.2100   25.0970   42.3690 N   0  0  0  0  0  0  0  0  0  0  0  0
   37.5790   25.5650   38.5870 H   0  0  0  0  0  0  0  0  0  0  0  0
   37.7530   23.0780   41.9610 H   0  0  0  0  0  0  0  0  0  0  0  0
   36.8140   28.0890   39.7610 S   0  0  0  0  0  0  0  0  0  0  0  0
   35.5810   27.9670   38.4320 C   0  0  0  0  0  0  0  0  0  0  0  0
   34.6360   27.5910   38.9080 H   0  0  0  0  0  0  0  0  0  0  0  0
   35.8970   27.2600   37.6450 H   0  0  0  0  0  0  0  0  0  0  0  0
   35.3370   29.3310   37.8660 C   0  0  0  0  0  0  0  0  0  0  0  0
   35.6080   29.3340   36.7760 H   0  0  0  0  0  0  0  0  0  0  0  0
   34.2560   29.6200   37.9060 H   0  0  0  0  0  0  0  0  0  0  0  0
   36.1790   30.2750   38.5330 N   0  0  0  0  0  0  0  0  0  0  0  0
   35.8270   31.2540   38.4560 H   0  0  0  0  0  0  0  0  0  0  0  0
   36.1440   30.0530   39.5630 H   0  0  0  0  0  0  0  0  0  0  0  0
  1  3  1  0  0  0  0
  1  2  1  0  0  0  0
  4  1  1  0  0  0  0
  5  9  1  0  0  0  0
  5  4  2  0  0  0  0
  6  7  1  0  0  0  0
  6  5  1  0  0  0  0
  7  8  2  0  0  0  0
  8  4  1  0  0  0  0
 10  7  1  0  0  0  0
 12 11  2  6  0  0  0
 12 13  1  0  0  0  0
 12 10  1  0  0  0  0
 14 13  1  0  0  0  0
 15 16  1  0  0  0  0
 15 12  1  0  0  0  0
 17 16  1  0  0  0  0
 17 18  1  0  0  0  0
 17 19  1  0  0  0  0
 20 19  1  0  0  0  0
 21 17  1  0  0  0  0
 22 21  1  0  0  0  0
 23 24  1  0  0  0  0
 23  1  1  0  0  0  0
 25 23  1  0  0  0  0
 26 31  1  0  0  0  0
 26 23  1  0  0  0  0
 27 26  2  0  0  0  0
 28 29  2  0  0  0  0
 28 27  1  0  0  0  0
 29 30  1  0  0  0  0
 30 33  1  0  0  0  0
 30 31  2  0  0  0  0
 32 28  1  0  0  0  0
 34 27  1  0  0  0  0
 35 36  1  0  0  0  0
 35 34  1  0  0  0  0
 37 35  1  0  0  0  0
 38 40  1  0  0  0  0
 38 35  1  0  0  0  0
 38 41  1  0  0  0  0
 39 38  1  0  0  0  0
 41 43  1  0  0  0  0
 42 41  1  0  0  0  0
M  END
>  <minimizedAffinity>
-4.55053854

$$$$

 OpenBabel03252507503D

 43 44  0  0  0  0  0  0  0  0999 V2000
   36.4530   30.2850   41.2340 C   0  0  0  0  0  0  0  0  0  0  0  0
   36.6380   31.1860   41.8890 H   0  0  0  0  0  0  0  0  0  0  0  0
   35.3660   30.1280   41.1620 H   0  0  0  0  0  0  0  0  0  0  0  0
   37.0740   29.1460   41.9630 C   0  0  0  0  0  0  0  0  0  0  0  0
   38.1690   29.3700   42.8480 C   0  0  0  0  0  0  0  0  0  0  0  0
   38.5580   27.7080   43.4740 S   0  0  0  0  0  0  0  0  0  0  0  0
   37.1500   26.9560   42.4180 C   0  0  0  0  0  0  0  0  0  0  0  0
   36.7400   27.8870   41.9050 N   0  0  0  0  0  0  0  0  0  0  0  0
   38.6290   30.3170   43.0680 H   0  0  0  0  0  0  0  0  0  0  0  0
   36.8530   25.6010   42.4100 O   0  0  0  0  0  0  0  0  0  0  0  0
   38.8840   25.3690   40.7250 O   0  0  0  0  0  0  0  0  0  0  0  0
   37.9470   24.5670   41.6420 P   0  0  1  0  0  0  0  0  0  0  0  0
   38.9160   23.8510   42.8480 O   0  0  0  0  0  0  0  0  0  0  0  0
   38.7160   22.8840   42.9400 H   0  0  0  0  0  0  0  0  0  0  0  0
   37.1560   23.3540   40.8140 O   0  0  0  0  0  0  0  0  0  0  0  0
   35.9720   23.7050   40.2430 C   0  0  0  0  0  2  0  0  0  0  0  0
   35.4270   22.8230   39.2550 N   0  0  0  0  0  4  0  0  0  0  0  0
   35.8580   21.8990   39.1820 H   0  0  0  0  0  0  0  0  0  0  0  0
   35.6620   23.4920   37.9630 C   0  0  0  0  0  2  0  0  0  0  0  0
   35.2050   22.8900   37.1520 H   0  0  0  0  0  0  0  0  0  0  0  0
   33.9960   22.6610   39.3610 C   0  0  0  0  0  2  0  0  0  0  0  0
   33.5920   23.0220   40.3310 H   0  0  0  0  0  0  0  0  0  0  0  0
   37.0580   30.5760   39.9040 C   0  0  0  0  0  0  0  0  0  0  0  0
   37.5440   29.6910   39.4890 H   0  0  0  0  0  0  0  0  0  0  0  0
   36.2070   30.7980   39.1970 H   0  0  0  0  0  0  0  0  0  0  0  0
   37.9220   31.7690   39.8980 C   0  0  0  0  0  0  0  0  0  0  0  0
   39.2810   31.5600   39.6970 C   0  0  0  0  0  0  0  0  0  0  0  0
   40.1690   32.6150   39.6740 C   0  0  0  0  0  0  0  0  0  0  0  0
   39.6240   33.8840   39.8640 N   0  0  0  0  0  0  0  0  0  0  0  0
   38.2820   34.0380   40.0590 C   0  0  0  0  0  0  0  0  0  0  0  0
   37.4630   32.9920   40.0720 N   0  0  0  0  0  0  0  0  0  0  0  0
   41.2150   32.4680   39.5190 H   0  0  0  0  0  0  0  0  0  0  0  0
   37.9820   35.0550   40.1930 H   0  0  0  0  0  0  0  0  0  0  0  0
   39.9040   29.8970   39.4590 S   0  0  0  0  0  0  0  0  0  0  0  0
   40.0390   29.5260   37.6860 C   0  0  0  0  0  0  0  0  0  0  0  0
   39.4010   30.2800   37.1530 H   0  0  0  0  0  0  0  0  0  0  0  0
   39.6730   28.5100   37.4530 H   0  0  0  0  0  0  0  0  0  0  0  0
   41.4630   29.6960   37.2580 C   0  0  0  0  0  0  0  0  0  0  0  0
   42.1340   29.5990   38.1530 H   0  0  0  0  0  0  0  0  0  0  0  0
   41.7920   28.8930   36.5500 H   0  0  0  0  0  0  0  0  0  0  0  0
   41.6380   31.0070   36.7150 N   0  0  0  0  0  0  0  0  0  0  0  0
   42.4700   31.0770   36.0890 H   0  0  0  0  0  0  0  0  0  0  0  0
   40.8100   31.2000   36.0910 H   0  0  0  0  0  0  0  0  0  0  0  0
  1  2  1  0  0  0  0
  1  4  1  0  0  0  0
  3  1  1  0  0  0  0
  4  5  2  0  0  0  0
  5  9  1  0  0  0  0
  5  6  1  0  0  0  0
  7  6  1  0  0  0  0
  8  4  1  0  0  0  0
  8  7  2  0  0  0  0
 10  7  1  0  0  0  0
 12 11  2  6  0  0  0
 12 10  1  0  0  0  0
 12 13  1  0  0  0  0
 13 14  1  0  0  0  0
 15 12  1  0  0  0  0
 16 15  1  0  0  0  0
 17 21  1  0  0  0  0
 17 16  1  0  0  0  0
 18 17  1  0  0  0  0
 19 17  1  0  0  0  0
 20 19  1  0  0  0  0
 21 22  1  0  0  0  0
 23  1  1  0  0  0  0
 24 23  1  0  0  0  0
 25 23  1  0  0  0  0
 26 23  1  0  0  0  0
 26 31  1  0  0  0  0
 27 26  2  0  0  0  0
 28 27  1  0  0  0  0
 28 29  2  0  0  0  0
 29 30  1  0  0  0  0
 30 31  2  0  0  0  0
 30 33  1  0  0  0  0
 32 28  1  0  0  0  0
 34 27  1  0  0  0  0
 35 34  1  0  0  0  0
 36 35  1  0  0  0  0
 37 35  1  0  0  0  0
 38 35  1  0  0  0  0
 38 39  1  0  0  0  0
 40 38  1  0  0  0  0
 41 38  1  0  0  0  0
 42 41  1  0  0  0  0
 43 41  1  0  0  0  0
M  END
>  <minimizedAffinity>
-4.51668692

$$$$

 OpenBabel03252507503D

 43 44  0  0  0  0  0  0  0  0999 V2000
   40.4900   29.3850   42.0380 C   0  0  0  0  0  0  0  0  0  0  0  0
   40.7170   29.4540   40.9340 H   0  0  0  0  0  0  0  0  0  0  0  0
   41.3100   28.8350   42.5240 H   0  0  0  0  0  0  0  0  0  0  0  0
   39.2360   28.5880   42.1240 C   0  0  0  0  0  0  0  0  0  0  0  0
   39.0110   27.7180   43.2310 C   0  0  0  0  0  0  0  0  0  0  0  0
   37.3810   26.9930   42.8770 S   0  0  0  0  0  0  0  0  0  0  0  0
   37.2600   28.0000   41.2540 C   0  0  0  0  0  0  0  0  0  0  0  0
   38.2470   28.5680   41.2750 N   0  0  0  0  0  0  0  0  0  0  0  0
   39.6730   27.5570   44.0620 H   0  0  0  0  0  0  0  0  0  0  0  0
   36.1700   27.9260   40.3990 O   0  0  0  0  0  0  0  0  0  0  0  0
   33.9360   29.1710   39.7070 O   0  0  0  0  0  0  0  0  0  0  0  0
   35.4420   29.3790   39.9360 P   0  0  1  0  0  0  0  0  0  0  0  0
   35.6060   30.4760   41.2310 O   0  0  0  0  0  0  0  0  0  0  0  0
   36.2360   31.2070   41.0030 H   0  0  0  0  0  0  0  0  0  0  0  0
   36.1900   30.0330   38.5960 O   0  0  0  0  0  0  0  0  0  0  0  0
   36.7280   29.1360   37.7260 C   0  0  0  0  0  2  0  0  0  0  0  0
   38.0760   28.7140   37.9610 N   0  0  0  0  0  4  0  0  0  0  0  0
   38.2530   28.2280   38.8420 H   0  0  0  0  0  0  0  0  0  0  0  0
   38.8710   29.9530   38.0040 C   0  0  0  0  0  2  0  0  0  0  0  0
   39.9430   29.6950   38.1210 H   0  0  0  0  0  0  0  0  0  0  0  0
   38.6250   27.9290   36.8800 C   0  0  0  0  0  2  0  0  0  0  0  0
   37.8480   27.5610   36.1760 H   0  0  0  0  0  0  0  0  0  0  0  0
   40.3770   30.7780   42.5530 C   0  0  0  0  0  0  0  0  0  0  0  0
   39.8210   30.8080   43.4920 H   0  0  0  0  0  0  0  0  0  0  0  0
   41.4210   31.1140   42.8240 H   0  0  0  0  0  0  0  0  0  0  0  0
   39.8810   31.7380   41.5530 C   0  0  0  0  0  0  0  0  0  0  0  0
   40.8250   32.5580   40.9460 C   0  0  0  0  0  0  0  0  0  0  0  0
   40.4550   33.4880   39.9970 C   0  0  0  0  0  0  0  0  0  0  0  0
   39.0970   33.5530   39.6920 N   0  0  0  0  0  0  0  0  0  0  0  0
   38.2080   32.7280   40.3170 C   0  0  0  0  0  0  0  0  0  0  0  0
   38.6090   31.8440   41.2260 N   0  0  0  0  0  0  0  0  0  0  0  0
   41.1720   34.1230   39.5220 H   0  0  0  0  0  0  0  0  0  0  0  0
   37.1970   32.8690   40.0030 H   0  0  0  0  0  0  0  0  0  0  0  0
   42.5540   32.4130   41.3910 S   0  0  0  0  0  0  0  0  0  0  0  0
   43.3240   34.0560   41.4600 C   0  0  0  0  0  0  0  0  0  0  0  0
   42.4840   34.8000   41.5080 H   0  0  0  0  0  0  0  0  0  0  0  0
   43.9360   34.2580   40.5620 H   0  0  0  0  0  0  0  0  0  0  0  0
   44.1460   34.1600   42.7060 C   0  0  0  0  0  0  0  0  0  0  0  0
   45.2230   34.3100   42.4300 H   0  0  0  0  0  0  0  0  0  0  0  0
   43.8680   35.0520   43.3240 H   0  0  0  0  0  0  0  0  0  0  0  0
   44.0440   32.9360   43.4390 N   0  0  0  0  0  0  0  0  0  0  0  0
   44.2800   33.0500   44.4490 H   0  0  0  0  0  0  0  0  0  0  0  0
   43.0300   32.6470   43.4270 H   0  0  0  0  0  0  0  0  0  0  0  0
  1  4  1  0  0  0  0
  1  3  1  0  0  0  0
  1 23  1  0  0  0  0
  2  1  1  0  0  0  0
  4  5  2  0  0  0  0
  5  9  1  0  0  0  0
  6  5  1  0  0  0  0
  7  8  2  0  0  0  0
  7  6  1  0  0  0  0
  8  4  1  0  0  0  0
 10  7  1  0  0  0  0
 12 11  2  6  0  0  0
 12 10  1  0  0  0  0
 12 13  1  0  0  0  0
 14 13  1  0  0  0  0
 15 12  1  0  0  0  0
 16 17  1  0  0  0  0
 16 15  1  0  0  0  0
 17 19  1  0  0  0  0
 17 18  1  0  0  0  0
 19 20  1  0  0  0  0
 21 17  1  0  0  0  0
 22 21  1  0  0  0  0
 23 25  1  0  0  0  0
 23 24  1  0  0  0  0
 26 23  1  0  0  0  0
 27 34  1  0  0  0  0
 27 26  2  0  0  0  0
 28 27  1  0  0  0  0
 29 28  2  0  0  0  0
 29 30  1  0  0  0  0
 30 31  2  0  0  0  0
 31 26  1  0  0  0  0
 32 28  1  0  0  0  0
 33 30  1  0  0  0  0
 34 35  1  0  0  0  0
 35 36  1  0  0  0  0
 35 38  1  0  0  0  0
 37 35  1  0  0  0  0
 38 40  1  0  0  0  0
 38 41  1  0  0  0  0
 39 38  1  0  0  0  0
 41 42  1  0  0  0  0
 43 41  1  0  0  0  0
M  END
>  <minimizedAffinity>
-4.47962427

$$$$

 OpenBabel03252507503D

 43 44  0  0  0  0  0  0  0  0999 V2000
   36.9790   30.4950   38.4000 C   0  0  0  0  0  0  0  0  0  0  0  0
   36.6400   31.1780   37.5670 H   0  0  0  0  0  0  0  0  0  0  0  0
   38.0570   30.3090   38.2760 H   0  0  0  0  0  0  0  0  0  0  0  0
   36.2270   29.2290   38.1900 C   0  0  0  0  0  0  0  0  0  0  0  0
   35.0330   29.2220   37.4090 C   0  0  0  0  0  0  0  0  0  0  0  0
   34.5060   27.4830   37.4520 S   0  0  0  0  0  0  0  0  0  0  0  0
   36.0120   27.0290   38.5420 C   0  0  0  0  0  0  0  0  0  0  0  0
   36.5200   28.0440   38.6480 N   0  0  0  0  0  0  0  0  0  0  0  0
   34.5830   30.0690   36.9240 H   0  0  0  0  0  0  0  0  0  0  0  0
   36.2590   25.7400   38.9920 O   0  0  0  0  0  0  0  0  0  0  0  0
   37.6450   24.5000   37.1050 O   0  0  0  0  0  0  0  0  0  0  0  0
   37.7250   25.0260   38.5470 P   0  0  1  0  0  0  0  0  0  0  0  0
   38.9220   26.2400   38.5740 O   0  0  0  0  0  0  0  0  0  0  0  0
   39.5610   26.0960   39.3180 H   0  0  0  0  0  0  0  0  0  0  0  0
   38.1670   23.8290   39.6210 O   0  0  0  0  0  0  0  0  0  0  0  0
   38.9980   24.2160   40.6260 C   0  0  0  0  0  2  0  0  0  0  0  0
   38.6580   23.8150   41.9580 N   0  0  0  0  0  4  0  0  0  0  0  0
   38.5080   22.8140   42.1080 H   0  0  0  0  0  0  0  0  0  0  0  0
   37.3720   24.4730   42.2480 C   0  0  0  0  0  2  0  0  0  0  0  0
   37.0780   24.2540   43.2950 H   0  0  0  0  0  0  0  0  0  0  0  0
   39.5830   24.2990   42.9550 C   0  0  0  0  0  2  0  0  0  0  0  0
   40.5340   24.6700   42.5160 H   0  0  0  0  0  0  0  0  0  0  0  0
   36.6820   31.1890   39.6850 C   0  0  0  0  0  0  0  0  0  0  0  0
   36.5580   32.2630   39.5350 H   0  0  0  0  0  0  0  0  0  0  0  0
   35.6700   30.8250   40.0290 H   0  0  0  0  0  0  0  0  0  0  0  0
   37.6280   30.8590   40.7660 C   0  0  0  0  0  0  0  0  0  0  0  0
   38.7000   31.7240   40.9470 C   0  0  0  0  0  0  0  0  0  0  0  0
   39.6380   31.4990   41.9330 C   0  0  0  0  0  0  0  0  0  0  0  0
   39.4440   30.3660   42.7220 N   0  0  0  0  0  0  0  0  0  0  0  0
   38.3760   29.5470   42.5040 C   0  0  0  0  0  0  0  0  0  0  0  0
   37.4950   29.8030   41.5420 N   0  0  0  0  0  0  0  0  0  0  0  0
   40.4670   32.1560   42.0840 H   0  0  0  0  0  0  0  0  0  0  0  0
   38.3320   28.7120   43.1700 H   0  0  0  0  0  0  0  0  0  0  0  0
   38.8800   33.1610   39.8910 S   0  0  0  0  0  0  0  0  0  0  0  0
   40.4480   33.0760   38.9790 C   0  0  0  0  0  0  0  0  0  0  0  0
   41.2520   32.8960   39.7420 H   0  0  0  0  0  0  0  0  0  0  0  0
   40.6600   34.0180   38.4430 H   0  0  0  0  0  0  0  0  0  0  0  0
   40.4000   31.9180   38.0320 C   0  0  0  0  0  0  0  0  0  0  0  0
   41.4420   31.5380   37.8560 H   0  0  0  0  0  0  0  0  0  0  0  0
   39.8330   31.0490   38.4540 H   0  0  0  0  0  0  0  0  0  0  0  0
   39.8720   32.3570   36.7780 N   0  0  0  0  0  0  0  0  0  0  0  0
   39.4830   31.5740   36.2080 H   0  0  0  0  0  0  0  0  0  0  0  0
   39.0460   32.9780   36.9860 H   0  0  0  0  0  0  0  0  0  0  0  0
  1 23  1  0  0  0  0
  2  1  1  0  0  0  0
  3  1  1  0  0  0  0
  4  1  1  0  0  0  0
  4  8  1  0  0  0  0
  5  6  1  0  0  0  0
  5  4  2  0  0  0  0
  6  7  1  0  0  0  0
  7  8  2  0  0  0  0
  7 10  1  0  0  0  0
  9  5  1  0  0  0  0
 12 11  2  6  0  0  0
 12 13  1  0  0  0  0
 12 10  1  0  0  0  0
 12 15  1  0  0  0  0
 13 14  1  0  0  0  0
 15 16  1  0  0  0  0
 16 17  1  0  0  0  0
 17 18  1  0  0  0  0
 17 19  1  0  0  0  0
 17 21  1  0  0  0  0
 19 20  1  0  0  0  0
 22 21  1  0  0  0  0
 23 25  1  0  0  0  0
 23 26  1  0  0  0  0
 24 23  1  0  0  0  0
 26 27  2  0  0  0  0
 26 31  1  0  0  0  0
 27 28  1  0  0  0  0
 28 32  1  0  0  0  0
 28 29  2  0  0  0  0
 30 29  1  0  0  0  0
 30 33  1  0  0  0  0
 31 30  2  0  0  0  0
 34 27  1  0  0  0  0
 35 36  1  0  0  0  0
 35 34  1  0  0  0  0
 37 35  1  0  0  0  0
 38 40  1  0  0  0  0
 38 35  1  0  0  0  0
 39 38  1  0  0  0  0
 41 43  1  0  0  0  0
 41 38  1  0  0  0  0
 42 41  1  0  0  0  0
M  END
>  <minimizedAffinity>
-4.40489674

$$$$
