
 OpenBabel03242518153D

 30 31  0  0  0  0  0  0  0  0999 V2000
   48.2180   33.8440   42.6580 C   0  0  0  0  0  0  0  0  0  0  0  0
   47.3730   33.1590   42.9800 H   0  0  0  0  0  0  0  0  0  0  0  0
   48.7270   34.0450   43.6470 H   0  0  0  0  0  0  0  0  0  0  0  0
   49.0930   33.1000   41.8360 C   0  0  0  0  0  0  0  0  0  0  0  0
   48.9980   32.3180   40.6610 C   0  0  0  0  0  0  0  0  0  0  0  0
   50.0830   31.7090   40.1370 C   0  0  0  0  0  0  0  0  0  0  0  0
   51.3320   31.8920   40.8240 C   0  0  0  0  0  0  0  0  0  0  0  0
   50.9320   32.9490   42.2280 S   0  0  0  0  0  0  0  0  0  0  0  0
   47.9890   32.2930   40.2870 H   0  0  0  0  0  0  0  0  0  0  0  0
   50.0140   31.1130   39.2440 H   0  0  0  0  0  0  0  0  0  0  0  0
   52.4780   31.4010   40.4930 O   0  0  0  0  0  0  0  0  0  0  0  0
   53.1960   31.2570   39.3100 C   0  0  0  0  0  2  0  0  0  0  0  0
   54.1390   30.1820   39.2790 N   0  0  0  0  0  4  0  0  0  0  0  0
   54.8360   30.1870   40.0320 H   0  0  0  0  0  0  0  0  0  0  0  0
   54.8860   30.2740   38.0310 C   0  0  0  0  0  2  0  0  0  0  0  0
   55.1770   31.3250   37.8120 H   0  0  0  0  0  0  0  0  0  0  0  0
   53.4370   28.9140   39.2500 C   0  0  0  0  0  2  0  0  0  0  0  0
   53.1280   28.5930   40.2560 H   0  0  0  0  0  0  0  0  0  0  0  0
   47.6530   35.0960   42.1280 C   0  0  0  0  0  0  0  0  0  0  0  0
   47.8640   35.9610   42.8210 H   0  0  0  0  0  0  0  0  0  0  0  0
   48.0900   35.4190   41.1440 H   0  0  0  0  0  0  0  0  0  0  0  0
   46.2090   35.0040   41.9840 C   0  0  0  0  0  0  0  0  0  0  0  0
   45.3490   35.5870   42.8890 C   0  0  0  0  0  0  0  0  0  0  0  0
   43.9810   35.4590   42.6950 C   0  0  0  0  0  0  0  0  0  0  0  0
   43.5540   34.7680   41.6230 N   0  0  0  0  0  0  0  0  0  0  0  0
   44.4230   34.2090   40.7530 C   0  0  0  0  0  0  0  0  0  0  0  0
   45.7150   34.3280   40.9340 N   0  0  0  0  0  0  0  0  0  0  0  0
   45.6840   36.1330   43.7370 H   0  0  0  0  0  0  0  0  0  0  0  0
   43.2900   35.9120   43.3980 H   0  0  0  0  0  0  0  0  0  0  0  0
   44.0120   33.6590   39.8970 H   0  0  0  0  0  0  0  0  0  0  0  0
  1  2  1  0  0  0  0
  1  3  1  0  0  0  0
  4  8  1  0  0  0  0
  4  1  1  0  0  0  0
  5  4  2  0  0  0  0
  6  5  1  0  0  0  0
  6  7  2  0  0  0  0
  7  8  1  0  0  0  0
  9  5  1  0  0  0  0
 10  6  1  0  0  0  0
 11  7  1  0  0  0  0
 12 11  1  0  0  0  0
 13 12  1  0  0  0  0
 13 14  1  0  0  0  0
 15 13  1  0  0  0  0
 16 15  1  0  0  0  0
 17 13  1  0  0  0  0
 17 18  1  0  0  0  0
 19  1  1  0  0  0  0
 19 20  1  0  0  0  0
 21 19  1  0  0  0  0
 22 19  1  0  0  0  0
 22 23  1  0  0  0  0
 23 28  1  0  0  0  0
 24 23  2  0  0  0  0
 24 29  1  0  0  0  0
 25 24  1  0  0  0  0
 26 27  1  0  0  0  0
 26 25  2  0  0  0  0
 27 22  2  0  0  0  0
 30 26  1  0  0  0  0
M  END
>  <minimizedAffinity>
-3.61514211

>  <minimizedRMSD>
0.854096055

$$$$
