
 OpenBabel03252507493D

 43 44  0  0  0  0  0  0  0  0999 V2000
   47.2930   35.0820   41.9260 C   0  0  0  0  0  0  0  0  0  0  0  0
   47.6500   34.5370   42.8490 H   0  0  0  0  0  0  0  0  0  0  0  0
   47.6270   36.1280   41.9920 H   0  0  0  0  0  0  0  0  0  0  0  0
   45.8070   35.0280   42.0010 C   0  0  0  0  0  0  0  0  0  0  0  0
   45.1010   35.8710   42.9090 C   0  0  0  0  0  0  0  0  0  0  0  0
   43.3580   35.4380   42.6240 S   0  0  0  0  0  0  0  0  0  0  0  0
   43.8700   34.1590   41.2950 C   0  0  0  0  0  0  0  0  0  0  0  0
   45.0030   34.2700   41.3090 N   0  0  0  0  0  0  0  0  0  0  0  0
   45.5350   36.5830   43.5870 H   0  0  0  0  0  0  0  0  0  0  0  0
   42.9520   33.3860   40.5970 O   0  0  0  0  0  0  0  0  0  0  0  0
   40.8260   34.8000   39.8880 O   0  0  0  0  0  0  0  0  0  0  0  0
   42.0990   34.1310   39.3430 P   0  0  1  0  0  0  0  0  0  0  0  0
   43.0850   35.3700   38.7100 O   0  0  0  0  0  0  0  0  0  0  0  0
   43.4000   35.1460   37.7980 H   0  0  0  0  0  0  0  0  0  0  0  0
   41.7590   33.0530   38.1170 O   0  0  0  0  0  0  0  0  0  0  0  0
   40.7040   32.2220   38.3390 C   0  0  0  0  0  2  0  0  0  0  0  0
   40.4820   31.7800   39.6840 N   0  0  0  0  0  4  0  0  0  0  0  0
   40.9710   32.2950   40.4180 H   0  0  0  0  0  0  0  0  0  0  0  0
   40.9980   30.4010   39.7310 C   0  0  0  0  0  2  0  0  0  0  0  0
   40.7990   29.9710   40.7330 H   0  0  0  0  0  0  0  0  0  0  0  0
   39.0830   31.6920   40.0300 C   0  0  0  0  0  2  0  0  0  0  0  0
   38.4250   32.2220   39.3110 H   0  0  0  0  0  0  0  0  0  0  0  0
   47.8820   34.3850   40.7480 C   0  0  0  0  0  0  0  0  0  0  0  0
   47.1220   33.8250   40.2000 H   0  0  0  0  0  0  0  0  0  0  0  0
   48.2260   35.1860   40.0310 H   0  0  0  0  0  0  0  0  0  0  0  0
   49.0730   33.5820   41.0730 C   0  0  0  0  0  0  0  0  0  0  0  0
   49.3250   32.4790   40.2670 C   0  0  0  0  0  0  0  0  0  0  0  0
   50.4180   31.6670   40.4920 C   0  0  0  0  0  0  0  0  0  0  0  0
   51.2370   32.0180   41.5640 N   0  0  0  0  0  0  0  0  0  0  0  0
   50.9460   33.1100   42.3270 C   0  0  0  0  0  0  0  0  0  0  0  0
   49.8830   33.8660   42.0720 N   0  0  0  0  0  0  0  0  0  0  0  0
   50.6230   30.8160   39.8790 H   0  0  0  0  0  0  0  0  0  0  0  0
   51.6440   33.2790   43.1190 H   0  0  0  0  0  0  0  0  0  0  0  0
   48.2250   32.0940   38.9060 S   0  0  0  0  0  0  0  0  0  0  0  0
   49.0990   32.2670   37.3240 C   0  0  0  0  0  0  0  0  0  0  0  0
   48.8810   31.3350   36.7360 H   0  0  0  0  0  0  0  0  0  0  0  0
   50.1900   32.3580   37.4680 H   0  0  0  0  0  0  0  0  0  0  0  0
   48.5520   33.4510   36.5910 C   0  0  0  0  0  0  0  0  0  0  0  0
   47.4650   33.5740   36.8420 H   0  0  0  0  0  0  0  0  0  0  0  0
   49.0420   34.4080   36.9060 H   0  0  0  0  0  0  0  0  0  0  0  0
   48.6570   33.2220   35.1830 N   0  0  0  0  0  0  0  0  0  0  0  0
   48.6360   34.1060   34.6280 H   0  0  0  0  0  0  0  0  0  0  0  0
   49.6100   32.8100   35.0030 H   0  0  0  0  0  0  0  0  0  0  0  0
  1  3  1  0  0  0  0
  1  4  1  0  0  0  0
  1  2  1  0  0  0  0
  4  5  2  0  0  0  0
  5  9  1  0  0  0  0
  6  5  1  0  0  0  0
  7  8  2  0  0  0  0
  7  6  1  0  0  0  0
  8  4  1  0  0  0  0
 10  7  1  0  0  0  0
 12 11  2  1  0  0  0
 12 10  1  0  0  0  0
 13 12  1  0  0  0  0
 14 13  1  0  0  0  0
 15 16  1  0  0  0  0
 15 12  1  0  0  0  0
 16 17  1  0  0  0  0
 17 19  1  0  0  0  0
 17 21  1  0  0  0  0
 17 18  1  0  0  0  0
 19 20  1  0  0  0  0
 22 21  1  0  0  0  0
 23 26  1  0  0  0  0
 23  1  1  0  0  0  0
 24 23  1  0  0  0  0
 25 23  1  0  0  0  0
 26 31  1  0  0  0  0
 27 28  1  0  0  0  0
 27 26  2  0  0  0  0
 28 29  2  0  0  0  0
 29 30  1  0  0  0  0
 30 33  1  0  0  0  0
 31 30  2  0  0  0  0
 32 28  1  0  0  0  0
 34 27  1  0  0  0  0
 35 37  1  0  0  0  0
 35 34  1  0  0  0  0
 36 35  1  0  0  0  0
 38 39  1  0  0  0  0
 38 40  1  0  0  0  0
 38 35  1  0  0  0  0
 41 38  1  0  0  0  0
 42 41  1  0  0  0  0
 43 41  1  0  0  0  0
M  END
>  <minimizedAffinity>
-4.14680815

>  <minimizedRMSD>
2.25662065

$$$$
