
 OpenBabel03252509123D

 30 32  0  0  0  0  0  0  0  0999 V2000
   47.8500   30.6260   44.8340 C   0  0  0  0  0  0  0  0  0  0  0  0
   47.5630   31.7840   44.1060 C   0  0  0  0  0  0  0  0  0  0  0  0
   46.7710   32.7830   44.5970 C   0  0  0  0  0  0  0  0  0  0  0  0
   46.2100   32.6700   45.8780 C   0  0  0  0  0  0  0  0  0  0  0  0
   45.4020   33.4300   46.6680 N   0  0  0  0  0  0  0  0  0  0  0  0
   45.1990   32.7720   47.8340 C   0  0  0  0  0  0  0  0  0  0  0  0
   45.8800   31.6170   47.7510 N   0  0  0  0  0  0  0  0  0  0  0  0
   46.5050   31.5260   46.5700 C   0  0  0  0  0  0  0  0  0  0  0  0
   47.3050   30.4890   46.1090 C   0  0  0  0  0  0  0  0  0  0  0  0
   48.4810   29.8330   44.4390 H   0  0  0  0  0  0  0  0  0  0  0  0
   45.0870   34.3450   46.2750 H   0  0  0  0  0  0  0  0  0  0  0  0
   44.5720   33.2170   48.6130 H   0  0  0  0  0  0  0  0  0  0  0  0
   47.4910   29.6140   46.7210 H   0  0  0  0  0  0  0  0  0  0  0  0
   47.9930   31.5330   40.4740 C   0  0  0  0  0  0  0  0  0  0  0  0
   49.1980   32.2030   40.2640 C   0  0  0  0  0  0  0  0  0  0  0  0
   49.8580   32.7380   41.3660 C   0  0  0  0  0  0  0  0  0  0  0  0
   49.2950   32.5820   42.6090 N   0  0  0  0  0  0  0  0  0  0  0  0
   48.1300   31.9290   42.7690 C   0  0  0  0  0  0  0  0  0  0  0  0
   47.4680   31.4000   41.7180 N   0  0  0  0  0  0  0  0  0  0  0  0
   47.4420   31.0970   39.6340 H   0  0  0  0  0  0  0  0  0  0  0  0
   49.6020   32.2970   39.2550 H   0  0  0  0  0  0  0  0  0  0  0  0
   50.7820   33.2580   41.2490 H   0  0  0  0  0  0  0  0  0  0  0  0
   46.4090   34.2600   43.6680 S   0  0  0  0  0  0  0  0  0  0  0  0
   44.7500   34.2720   42.9690 C   0  0  0  0  0  2  0  0  0  0  0  0
   44.8380   34.9250   41.6560 N   0  0  0  0  0  4  0  0  0  0  0  0
   45.5220   35.7140   41.6540 H   0  0  0  0  0  0  0  0  0  0  0  0
   43.5260   35.5330   41.4160 C   0  0  0  0  0  2  0  0  0  0  0  0
   43.1710   35.8930   42.4190 H   0  0  0  0  0  0  0  0  0  0  0  0
   45.2310   34.0240   40.6160 C   0  0  0  0  0  2  0  0  0  0  0  0
   45.8680   33.1920   40.9960 H   0  0  0  0  0  0  0  0  0  0  0  0
  1  9  1  0  0  0  0
  2  3  1  0  0  0  0
  2  1  2  0  0  0  0
  3  4  2  0  0  0  0
  4  8  1  0  0  0  0
  4  5  1  0  0  0  0
  5  6  1  0  0  0  0
  6 12  1  0  0  0  0
  7  6  2  0  0  0  0
  8  7  1  0  0  0  0
  9  8  2  0  0  0  0
  9 13  1  0  0  0  0
 10  1  1  0  0  0  0
 11  5  1  0  0  0  0
 14 19  1  0  0  0  0
 15 14  2  0  0  0  0
 15 16  1  0  0  0  0
 16 17  2  0  0  0  0
 17 18  1  0  0  0  0
 18  2  1  0  0  0  0
 19 18  2  0  0  0  0
 20 14  1  0  0  0  0
 21 15  1  0  0  0  0
 22 16  1  0  0  0  0
 23  3  1  0  0  0  0
 24 23  1  0  0  0  0
 25 24  1  0  0  0  0
 26 25  1  0  0  0  0
 27 25  1  0  0  0  0
 27 28  1  0  0  0  0
 29 30  1  0  0  0  0
 29 25  1  0  0  0  0
M  END
>  <minimizedAffinity>
-4.27765322

>  <minimizedRMSD>
1.93470216

$$$$
