
 OpenBabel03252509123D

 30 32  0  0  0  0  0  0  0  0999 V2000
   47.5950   32.2820   44.0590 C   0  0  0  0  0  0  0  0  0  0  0  0
   46.9920   33.4200   43.5160 C   0  0  0  0  0  0  0  0  0  0  0  0
   46.0690   34.1590   44.2000 C   0  0  0  0  0  0  0  0  0  0  0  0
   45.6910   33.7860   45.4990 C   0  0  0  0  0  0  0  0  0  0  0  0
   44.8360   34.2570   46.4470 N   0  0  0  0  0  0  0  0  0  0  0  0
   44.9070   33.4480   47.5310 C   0  0  0  0  0  0  0  0  0  0  0  0
   45.8000   32.4880   47.2390 N   0  0  0  0  0  0  0  0  0  0  0  0
   46.2950   32.6680   46.0070 C   0  0  0  0  0  0  0  0  0  0  0  0
   47.2370   31.8890   45.3470 C   0  0  0  0  0  0  0  0  0  0  0  0
   48.3290   31.6960   43.5110 H   0  0  0  0  0  0  0  0  0  0  0  0
   44.2950   35.1180   46.2060 H   0  0  0  0  0  0  0  0  0  0  0  0
   44.2920   33.6550   48.4110 H   0  0  0  0  0  0  0  0  0  0  0  0
   47.6690   31.0150   45.8210 H   0  0  0  0  0  0  0  0  0  0  0  0
   47.1290   33.5940   39.8570 C   0  0  0  0  0  0  0  0  0  0  0  0
   48.0620   34.6070   39.6360 C   0  0  0  0  0  0  0  0  0  0  0  0
   48.6410   35.2250   40.7400 C   0  0  0  0  0  0  0  0  0  0  0  0
   48.2680   34.8120   41.9950 N   0  0  0  0  0  0  0  0  0  0  0  0
   47.3630   33.8310   42.1660 C   0  0  0  0  0  0  0  0  0  0  0  0
   46.7860   33.2140   41.1130 N   0  0  0  0  0  0  0  0  0  0  0  0
   46.6500   33.0820   39.0160 H   0  0  0  0  0  0  0  0  0  0  0  0
   48.3230   34.8960   38.6170 H   0  0  0  0  0  0  0  0  0  0  0  0
   49.3590   36.0040   40.6150 H   0  0  0  0  0  0  0  0  0  0  0  0
   45.3050   35.6120   43.5060 S   0  0  0  0  0  0  0  0  0  0  0  0
   43.6930   35.2860   42.7730 C   0  0  0  0  0  2  0  0  0  0  0  0
   43.9140   34.4050   41.6170 N   0  0  0  0  0  4  0  0  0  0  0  0
   44.9280   34.2820   41.4030 H   0  0  0  0  0  0  0  0  0  0  0  0
   43.3440   35.1010   40.4610 C   0  0  0  0  0  2  0  0  0  0  0  0
   43.5490   36.1920   40.6330 H   0  0  0  0  0  0  0  0  0  0  0  0
   43.3620   33.0970   41.8050 C   0  0  0  0  0  2  0  0  0  0  0  0
   43.3350   32.8020   42.8800 H   0  0  0  0  0  0  0  0  0  0  0  0
  1  9  1  0  0  0  0
  2  1  2  0  0  0  0
  2  3  1  0  0  0  0
  3  4  2  0  0  0  0
  4  8  1  0  0  0  0
  4  5  1  0  0  0  0
  5  6  1  0  0  0  0
  6 12  1  0  0  0  0
  7  6  2  0  0  0  0
  8  7  1  0  0  0  0
  9 13  1  0  0  0  0
  9  8  2  0  0  0  0
 10  1  1  0  0  0  0
 11  5  1  0  0  0  0
 14 19  1  0  0  0  0
 15 14  2  0  0  0  0
 15 16  1  0  0  0  0
 16 17  2  0  0  0  0
 17 18  1  0  0  0  0
 18  2  1  0  0  0  0
 19 18  2  0  0  0  0
 20 14  1  0  0  0  0
 21 15  1  0  0  0  0
 22 16  1  0  0  0  0
 23  3  1  0  0  0  0
 24 23  1  0  0  0  0
 25 29  1  0  0  0  0
 25 24  1  0  0  0  0
 26 25  1  0  0  0  0
 27 28  1  0  0  0  0
 27 25  1  0  0  0  0
 29 30  1  0  0  0  0
M  END
>  <minimizedAffinity>
-4.71866131

>  <minimizedRMSD>
1.52541471

$$$$
