
 OpenBabel03252502553D

 35 36  0  0  0  0  0  0  0  0999 V2000
   45.6240   29.9410   44.8350 Br  0  0  0  0  0  0  0  0  0  0  0  0
   45.6590   30.6180   46.6450 C   0  0  0  0  0  0  0  0  0  0  0  0
   46.3370   31.7960   46.8270 C   0  0  0  0  0  0  0  0  0  0  0  0
   46.3390   32.2510   48.1460 C   0  0  0  0  0  0  0  0  0  0  0  0
   45.7220   31.5880   49.1840 C   0  0  0  0  0  0  0  0  0  0  0  0
   45.0670   30.4180   48.9190 C   0  0  0  0  0  0  0  0  0  0  0  0
   45.0240   29.9120   47.6450 C   0  0  0  0  0  0  0  0  0  0  0  0
   46.8540   33.1820   48.3840 H   0  0  0  0  0  0  0  0  0  0  0  0
   45.7610   31.9980   50.1980 H   0  0  0  0  0  0  0  0  0  0  0  0
   44.5920   29.9270   49.7700 H   0  0  0  0  0  0  0  0  0  0  0  0
   47.0260   32.5900   45.8240 C   0  0  0  0  0  0  0  0  0  0  0  0
   47.3130   31.9080   44.9810 H   0  0  0  0  0  0  0  0  0  0  0  0
   47.9850   33.0450   46.1720 H   0  0  0  0  0  0  0  0  0  0  0  0
   44.5300   35.3220   45.3870 C   0  0  0  0  0  0  0  0  0  0  0  0
   44.7570   35.7130   44.0530 C   0  0  0  0  0  0  0  0  0  0  0  0
   45.7470   35.0430   43.3390 C   0  0  0  0  0  0  0  0  0  0  0  0
   46.4380   34.0600   43.9440 N   0  0  0  0  0  0  0  0  0  0  0  0
   46.2010   33.6930   45.2470 C   0  0  0  0  0  0  0  0  0  0  0  0
   45.2390   34.3520   45.9260 N   0  0  0  0  0  0  0  0  0  0  0  0
   43.7990   35.7500   46.0630 H   0  0  0  0  0  0  0  0  0  0  0  0
   44.1380   36.5120   43.6860 H   0  0  0  0  0  0  0  0  0  0  0  0
   45.9110   35.3480   42.3270 H   0  0  0  0  0  0  0  0  0  0  0  0
   44.3580   28.7240   47.3790 O   0  0  0  0  0  0  0  0  0  0  0  0
   44.2320   26.1590   46.9850 O   0  0  0  0  0  0  0  0  0  0  0  0
   44.9390   27.1910   47.8480 P   0  0  2  0  0  0  0  0  0  0  0  0
   44.5440   26.9730   49.4640 O   0  0  0  0  0  0  0  0  0  0  0  0
   45.2360   27.2280   50.1050 H   0  0  0  0  0  0  0  0  0  0  0  0
   46.5940   27.0520   47.5990 O   0  0  0  0  0  0  0  0  0  0  0  0
   46.9020   26.0280   46.7060 C   0  0  0  0  0  2  0  0  0  0  0  0
   47.5030   26.5110   45.4810 N   0  0  0  0  0  4  0  0  0  0  0  0
   47.6740   27.5370   45.5140 H   0  0  0  0  0  0  0  0  0  0  0  0
   48.7530   25.7820   45.2830 C   0  0  0  0  0  2  0  0  0  0  0  0
   49.1450   25.5400   46.3010 H   0  0  0  0  0  0  0  0  0  0  0  0
   46.6710   26.2200   44.3230 C   0  0  0  0  0  2  0  0  0  0  0  0
   45.7480   26.8350   44.3030 H   0  0  0  0  0  0  0  0  0  0  0  0
  1  2  1  0  0  0  0
  2  3  2  0  0  0  0
  2  7  1  0  0  0  0
  3  4  1  0  0  0  0
  4  8  1  0  0  0  0
  4  5  2  0  0  0  0
  5  9  1  0  0  0  0
  6  5  1  0  0  0  0
  6 10  1  0  0  0  0
  7  6  2  0  0  0  0
 11 13  1  0  0  0  0
 11  3  1  0  0  0  0
 12 11  1  0  0  0  0
 14 19  1  0  0  0  0
 14 20  1  0  0  0  0
 15 14  2  0  0  0  0
 16 17  2  0  0  0  0
 16 15  1  0  0  0  0
 17 18  1  0  0  0  0
 18 11  1  0  0  0  0
 18 19  2  0  0  0  0
 21 15  1  0  0  0  0
 22 16  1  0  0  0  0
 23  7  1  0  0  0  0
 23 25  1  0  0  0  0
 25 24  2  6  0  0  0
 25 26  1  0  0  0  0
 26 27  1  0  0  0  0
 28 25  1  0  0  0  0
 29 28  1  0  0  0  0
 30 31  1  0  0  0  0
 30 29  1  0  0  0  0
 32 30  1  0  0  0  0
 32 33  1  0  0  0  0
 34 30  1  0  0  0  0
 35 34  1  0  0  0  0
M  END
>  <minimizedAffinity>
-4.52770948

>  <minimizedRMSD>
0.54621464

$$$$
