
 OpenBabel03252502553D

 35 36  0  0  0  0  0  0  0  0999 V2000
   45.5580   29.9440   44.7810 Br  0  0  0  0  0  0  0  0  0  0  0  0
   45.6450   30.5940   46.5980 C   0  0  0  0  0  0  0  0  0  0  0  0
   46.3470   31.7580   46.7820 C   0  0  0  0  0  0  0  0  0  0  0  0
   46.3870   32.1930   48.1070 C   0  0  0  0  0  0  0  0  0  0  0  0
   45.7810   31.5260   49.1490 C   0  0  0  0  0  0  0  0  0  0  0  0
   45.1010   30.3720   48.8820 C   0  0  0  0  0  0  0  0  0  0  0  0
   45.0200   29.8850   47.6020 C   0  0  0  0  0  0  0  0  0  0  0  0
   46.9220   33.1120   48.3460 H   0  0  0  0  0  0  0  0  0  0  0  0
   45.8490   31.9210   50.1670 H   0  0  0  0  0  0  0  0  0  0  0  0
   44.6360   29.8760   49.7370 H   0  0  0  0  0  0  0  0  0  0  0  0
   47.0270   32.5540   45.7750 C   0  0  0  0  0  0  0  0  0  0  0  0
   47.2910   31.8780   44.9200 H   0  0  0  0  0  0  0  0  0  0  0  0
   47.9970   32.9960   46.1100 H   0  0  0  0  0  0  0  0  0  0  0  0
   44.5460   35.3100   45.4060 C   0  0  0  0  0  0  0  0  0  0  0  0
   44.7650   35.7230   44.0770 C   0  0  0  0  0  0  0  0  0  0  0  0
   45.7440   35.0580   43.3440 C   0  0  0  0  0  0  0  0  0  0  0  0
   46.4340   34.0610   43.9260 N   0  0  0  0  0  0  0  0  0  0  0  0
   46.2060   33.6730   45.2240 C   0  0  0  0  0  0  0  0  0  0  0  0
   45.2530   34.3260   45.9220 N   0  0  0  0  0  0  0  0  0  0  0  0
   43.8230   35.7300   46.0950 H   0  0  0  0  0  0  0  0  0  0  0  0
   44.1480   36.5310   43.7290 H   0  0  0  0  0  0  0  0  0  0  0  0
   45.9020   35.3810   42.3360 H   0  0  0  0  0  0  0  0  0  0  0  0
   44.3280   28.7120   47.3350 O   0  0  0  0  0  0  0  0  0  0  0  0
   44.0820   26.1490   46.9870 O   0  0  0  0  0  0  0  0  0  0  0  0
   44.8830   27.1640   47.7860 P   0  0  2  0  0  0  0  0  0  0  0  0
   44.5900   26.9810   49.4280 O   0  0  0  0  0  0  0  0  0  0  0  0
   45.3320   27.2190   50.0170 H   0  0  0  0  0  0  0  0  0  0  0  0
   46.5110   26.9610   47.4300 O   0  0  0  0  0  0  0  0  0  0  0  0
   46.8470   25.6180   47.2740 C   0  0  0  0  0  2  0  0  0  0  0  0
   46.4980   24.8130   48.4240 N   0  0  0  0  0  4  0  0  0  0  0  0
   45.6980   25.2210   48.9500 H   0  0  0  0  0  0  0  0  0  0  0  0
   46.1740   23.4720   47.9440 C   0  0  0  0  0  2  0  0  0  0  0  0
   45.7460   23.5940   46.9200 H   0  0  0  0  0  0  0  0  0  0  0  0
   47.6220   24.6630   49.3350 C   0  0  0  0  0  2  0  0  0  0  0  0
   47.8620   25.6070   49.8660 H   0  0  0  0  0  0  0  0  0  0  0  0
  1  2  1  0  0  0  0
  2  3  2  0  0  0  0
  2  7  1  0  0  0  0
  3  4  1  0  0  0  0
  4  8  1  0  0  0  0
  4  5  2  0  0  0  0
  5  9  1  0  0  0  0
  6  5  1  0  0  0  0
  6 10  1  0  0  0  0
  7  6  2  0  0  0  0
 11 13  1  0  0  0  0
 11  3  1  0  0  0  0
 12 11  1  0  0  0  0
 14 19  1  0  0  0  0
 14 20  1  0  0  0  0
 15 14  2  0  0  0  0
 16 17  2  0  0  0  0
 16 15  1  0  0  0  0
 17 18  1  0  0  0  0
 18 11  1  0  0  0  0
 18 19  2  0  0  0  0
 21 15  1  0  0  0  0
 22 16  1  0  0  0  0
 23  7  1  0  0  0  0
 23 25  1  0  0  0  0
 25 24  2  6  0  0  0
 25 26  1  0  0  0  0
 26 27  1  0  0  0  0
 28 25  1  0  0  0  0
 29 28  1  0  0  0  0
 29 30  1  0  0  0  0
 30 31  1  0  0  0  0
 30 34  1  0  0  0  0
 32 30  1  0  0  0  0
 33 32  1  0  0  0  0
 34 35  1  0  0  0  0
M  END
>  <minimizedAffinity>
-4.83382463

>  <minimizedRMSD>
0.321542233

$$$$
