
 OpenBabel03252502553D

 35 36  0  0  0  0  0  0  0  0999 V2000
   45.6220   29.9480   44.8350 Br  0  0  0  0  0  0  0  0  0  0  0  0
   45.6630   30.6230   46.6450 C   0  0  0  0  0  0  0  0  0  0  0  0
   46.3420   31.8010   46.8260 C   0  0  0  0  0  0  0  0  0  0  0  0
   46.3490   32.2550   48.1460 C   0  0  0  0  0  0  0  0  0  0  0  0
   45.7350   31.5910   49.1850 C   0  0  0  0  0  0  0  0  0  0  0  0
   45.0800   30.4220   48.9210 C   0  0  0  0  0  0  0  0  0  0  0  0
   45.0310   29.9170   47.6470 C   0  0  0  0  0  0  0  0  0  0  0  0
   46.8650   33.1860   48.3820 H   0  0  0  0  0  0  0  0  0  0  0  0
   45.7780   32.0010   50.1990 H   0  0  0  0  0  0  0  0  0  0  0  0
   44.6080   29.9310   49.7740 H   0  0  0  0  0  0  0  0  0  0  0  0
   47.0270   32.5960   45.8210 C   0  0  0  0  0  0  0  0  0  0  0  0
   47.3130   31.9140   44.9770 H   0  0  0  0  0  0  0  0  0  0  0  0
   47.9860   33.0530   46.1660 H   0  0  0  0  0  0  0  0  0  0  0  0
   44.5260   35.3230   45.3890 C   0  0  0  0  0  0  0  0  0  0  0  0
   44.7510   35.7150   44.0540 C   0  0  0  0  0  0  0  0  0  0  0  0
   45.7410   35.0480   43.3390 C   0  0  0  0  0  0  0  0  0  0  0  0
   46.4350   34.0660   43.9430 N   0  0  0  0  0  0  0  0  0  0  0  0
   46.2000   33.6980   45.2460 C   0  0  0  0  0  0  0  0  0  0  0  0
   45.2370   34.3550   45.9250 N   0  0  0  0  0  0  0  0  0  0  0  0
   43.7940   35.7490   46.0650 H   0  0  0  0  0  0  0  0  0  0  0  0
   44.1300   36.5130   43.6880 H   0  0  0  0  0  0  0  0  0  0  0  0
   45.9030   35.3540   42.3270 H   0  0  0  0  0  0  0  0  0  0  0  0
   44.3640   28.7290   47.3830 O   0  0  0  0  0  0  0  0  0  0  0  0
   44.2550   26.1660   46.9690 O   0  0  0  0  0  0  0  0  0  0  0  0
   44.9470   27.1960   47.8490 P   0  0  2  0  0  0  0  0  0  0  0  0
   44.5310   26.9650   49.4580 O   0  0  0  0  0  0  0  0  0  0  0  0
   45.2130   27.2190   50.1090 H   0  0  0  0  0  0  0  0  0  0  0  0
   46.6050   27.0670   47.6210 O   0  0  0  0  0  0  0  0  0  0  0  0
   46.9250   26.1320   46.6390 C   0  0  0  0  0  2  0  0  0  0  0  0
   47.4640   26.7360   45.4400 N   0  0  0  0  0  4  0  0  0  0  0  0
   47.4130   27.7740   45.4760 H   0  0  0  0  0  0  0  0  0  0  0  0
   48.8480   26.2890   45.3030 C   0  0  0  0  0  2  0  0  0  0  0  0
   49.2360   26.1310   46.3380 H   0  0  0  0  0  0  0  0  0  0  0  0
   46.7660   26.2800   44.2470 C   0  0  0  0  0  2  0  0  0  0  0  0
   45.7360   26.6860   44.1820 H   0  0  0  0  0  0  0  0  0  0  0  0
  1  2  1  0  0  0  0
  2  3  2  0  0  0  0
  2  7  1  0  0  0  0
  3  4  1  0  0  0  0
  4  8  1  0  0  0  0
  4  5  2  0  0  0  0
  5  9  1  0  0  0  0
  6  5  1  0  0  0  0
  6 10  1  0  0  0  0
  7  6  2  0  0  0  0
 11 13  1  0  0  0  0
 11  3  1  0  0  0  0
 12 11  1  0  0  0  0
 14 19  1  0  0  0  0
 14 20  1  0  0  0  0
 15 14  2  0  0  0  0
 16 17  2  0  0  0  0
 16 15  1  0  0  0  0
 17 18  1  0  0  0  0
 18 11  1  0  0  0  0
 18 19  2  0  0  0  0
 21 15  1  0  0  0  0
 22 16  1  0  0  0  0
 23  7  1  0  0  0  0
 23 25  1  0  0  0  0
 25 24  2  6  0  0  0
 25 26  1  0  0  0  0
 26 27  1  0  0  0  0
 28 25  1  0  0  0  0
 29 28  1  0  0  0  0
 30 31  1  0  0  0  0
 30 29  1  0  0  0  0
 32 30  1  0  0  0  0
 32 33  1  0  0  0  0
 34 30  1  0  0  0  0
 35 34  1  0  0  0  0
M  END
>  <minimizedAffinity>
-4.52136374

>  <minimizedRMSD>
0.424212784

$$$$
