
 OpenBabel03242516323D

 29 30  0  0  1  0  0  0  0  0999 V2000
   37.5940   31.7680   39.9250 C   0  0  2  0  0  0  0  0  0  0  0  0
   38.5910   31.2050   40.9510 C   0  0  1  0  0  0  0  0  0  0  0  0
   38.7570   32.3370   41.7250 O   0  0  0  0  0  0  0  0  0  0  0  0
   39.0700   33.3410   40.8190 C   0  0  0  0  0  0  0  0  0  0  0  0
   38.4870   32.9390   39.4780 C   0  0  1  0  0  0  0  0  0  0  0  0
   37.3900   31.0720   39.1210 H   0  0  0  0  0  0  0  0  0  0  0  0
   39.4740   30.9060   40.3590 H   0  0  0  0  0  0  0  0  0  0  0  0
   38.5380   34.2480   41.1380 H   0  0  0  0  0  0  0  0  0  0  0  0
   40.1460   33.5700   40.7470 H   0  0  0  0  0  0  0  0  0  0  0  0
   37.9240   33.7450   38.9990 H   0  0  0  0  0  0  0  0  0  0  0  0
   37.7560   28.4080   43.3730 C   0  0  0  0  0  0  0  0  0  0  0  0
   38.4300   29.5250   42.8890 C   0  0  0  0  0  0  0  0  0  0  0  0
   38.0630   30.0470   41.6580 C   0  0  0  0  0  0  0  0  0  0  0  0
   37.0440   29.4210   40.9820 N   0  0  0  0  0  0  0  0  0  0  0  0
   36.4080   28.3420   41.4720 C   0  0  0  0  0  0  0  0  0  0  0  0
   36.7640   27.8290   42.6750 N   0  0  0  0  0  0  0  0  0  0  0  0
   38.1400   28.1040   44.3400 H   0  0  0  0  0  0  0  0  0  0  0  0
   39.2350   30.0630   43.3660 H   0  0  0  0  0  0  0  0  0  0  0  0
   35.6090   27.8560   40.9350 H   0  0  0  0  0  0  0  0  0  0  0  0
   36.5270   32.3350   40.5480 O   0  0  0  0  0  0  0  0  0  0  0  0
   36.4980   32.3080   41.5210 H   0  0  0  0  0  0  0  0  0  0  0  0
   39.4600   32.3790   38.6360 O   0  0  0  0  0  0  0  0  0  0  0  0
   40.6420   33.0900   38.6690 C   0  0  0  0  0  2  0  0  0  0  0  0
   41.2590   33.0940   37.3550 N   0  0  0  0  0  4  0  0  0  0  0  0
   40.6020   33.4410   36.6190 H   0  0  0  0  0  0  0  0  0  0  0  0
   41.6610   31.7720   36.9660 C   0  0  0  0  0  2  0  0  0  0  0  0
   42.3390   31.8460   36.0940 H   0  0  0  0  0  0  0  0  0  0  0  0
   42.4040   34.0020   37.3600 C   0  0  0  0  0  2  0  0  0  0  0  0
   42.7180   34.2530   36.3270 H   0  0  0  0  0  0  0  0  0  0  0  0
  1  6  1  6  0  0  0
  1 20  1  0  0  0  0
  1  2  1  0  0  0  0
  2  7  1  6  0  0  0
  2 13  1  0  0  0  0
  2  3  1  0  0  0  0
  4  8  1  0  0  0  0
  4  3  1  0  0  0  0
  5 10  1  6  0  0  0
  5  1  1  0  0  0  0
  5  4  1  0  0  0  0
  9  4  1  0  0  0  0
 11 17  1  0  0  0  0
 12 18  1  0  0  0  0
 12 11  1  0  0  0  0
 13 12  2  0  0  0  0
 14 15  2  0  0  0  0
 14 13  1  0  0  0  0
 15 16  1  0  0  0  0
 16 11  2  0  0  0  0
 19 15  1  0  0  0  0
 20 21  1  0  0  0  0
 22 23  1  0  0  0  0
 22  5  1  0  0  0  0
 24 28  1  0  0  0  0
 24 23  1  0  0  0  0
 25 24  1  0  0  0  0
 26 24  1  0  0  0  0
 27 26  1  0  0  0  0
 29 28  1  0  0  0  0
M  END
>  <minimizedAffinity>
-4.708673

$$$$

 OpenBabel03242516323D

 29 30  0  0  1  0  0  0  0  0999 V2000
   36.5900   30.1510   41.5180 C   0  0  2  0  0  0  0  0  0  0  0  0
   37.5650   30.2930   40.3380 C   0  0  1  0  0  0  0  0  0  0  0  0
   36.6600   30.1580   39.3020 O   0  0  0  0  0  0  0  0  0  0  0  0
   35.9650   28.9910   39.5910 C   0  0  0  0  0  0  0  0  0  0  0  0
   36.0370   28.7800   41.0910 C   0  0  1  0  0  0  0  0  0  0  0  0
   37.1000   30.1130   42.4730 H   0  0  0  0  0  0  0  0  0  0  0  0
   38.2770   29.4570   40.4520 H   0  0  0  0  0  0  0  0  0  0  0  0
   34.9090   29.1700   39.3440 H   0  0  0  0  0  0  0  0  0  0  0  0
   36.3120   28.1050   39.0340 H   0  0  0  0  0  0  0  0  0  0  0  0
   35.0640   28.5560   41.5360 H   0  0  0  0  0  0  0  0  0  0  0  0
   40.0900   33.1100   40.5980 C   0  0  0  0  0  0  0  0  0  0  0  0
   39.6190   31.8030   40.6610 C   0  0  0  0  0  0  0  0  0  0  0  0
   38.2870   31.5560   40.3640 C   0  0  0  0  0  0  0  0  0  0  0  0
   37.5040   32.6320   40.0200 N   0  0  0  0  0  0  0  0  0  0  0  0
   37.9850   33.8870   39.9660 C   0  0  0  0  0  0  0  0  0  0  0  0
   39.2850   34.1310   40.2560 N   0  0  0  0  0  0  0  0  0  0  0  0
   41.1430   33.1620   40.8520 H   0  0  0  0  0  0  0  0  0  0  0  0
   40.1760   30.9160   40.9220 H   0  0  0  0  0  0  0  0  0  0  0  0
   37.3640   34.7260   39.6960 H   0  0  0  0  0  0  0  0  0  0  0  0
   35.5530   31.0220   41.3960 O   0  0  0  0  0  0  0  0  0  0  0  0
   35.5480   31.6220   40.6300 H   0  0  0  0  0  0  0  0  0  0  0  0
   37.0240   27.8450   41.4360 O   0  0  0  0  0  0  0  0  0  0  0  0
   36.9340   27.4640   42.7600 C   0  0  0  0  0  2  0  0  0  0  0  0
   38.2330   27.0350   43.2450 N   0  0  0  0  0  4  0  0  0  0  0  0
   38.2070   26.8000   44.2650 H   0  0  0  0  0  0  0  0  0  0  0  0
   39.2160   28.0680   43.0800 C   0  0  0  0  0  2  0  0  0  0  0  0
   40.2230   27.6290   43.2210 H   0  0  0  0  0  0  0  0  0  0  0  0
   38.6360   25.8190   42.5430 C   0  0  0  0  0  2  0  0  0  0  0  0
   39.4630   25.3070   43.0750 H   0  0  0  0  0  0  0  0  0  0  0  0
  1  6  1  1  0  0  0
  2 13  1  0  0  0  0
  2  7  1  6  0  0  0
  2  1  1  0  0  0  0
  3  4  1  0  0  0  0
  3  2  1  0  0  0  0
  4  5  1  0  0  0  0
  5 22  1  0  0  0  0
  5  1  1  0  0  0  0
  5 10  1  1  0  0  0
  8  4  1  0  0  0  0
  9  4  1  0  0  0  0
 11 12  1  0  0  0  0
 11 17  1  0  0  0  0
 12 18  1  0  0  0  0
 13 12  2  0  0  0  0
 14 13  1  0  0  0  0
 15 14  2  0  0  0  0
 15 16  1  0  0  0  0
 16 11  2  0  0  0  0
 19 15  1  0  0  0  0
 20  1  1  0  0  0  0
 21 20  1  0  0  0  0
 22 23  1  0  0  0  0
 23 24  1  0  0  0  0
 24 25  1  0  0  0  0
 26 27  1  0  0  0  0
 26 24  1  0  0  0  0
 28 29  1  0  0  0  0
 28 24  1  0  0  0  0
M  END
>  <minimizedAffinity>
-4.6277442

$$$$

 OpenBabel03242516323D

 29 30  0  0  1  0  0  0  0  0999 V2000
   36.5080   28.4450   41.9000 C   0  0  2  0  0  0  0  0  0  0  0  0
   37.5960   27.6210   41.1920 C   0  0  1  0  0  0  0  0  0  0  0  0
   38.5030   27.5360   42.2310 O   0  0  0  0  0  0  0  0  0  0  0  0
   38.6810   28.8470   42.6520 C   0  0  0  0  0  0  0  0  0  0  0  0
   37.4300   29.6180   42.2760 C   0  0  1  0  0  0  0  0  0  0  0  0
   35.7120   28.7430   41.2280 H   0  0  0  0  0  0  0  0  0  0  0  0
   37.9160   28.2430   40.3370 H   0  0  0  0  0  0  0  0  0  0  0  0
   38.7310   28.8350   43.7490 H   0  0  0  0  0  0  0  0  0  0  0  0
   39.5940   29.3290   42.2630 H   0  0  0  0  0  0  0  0  0  0  0  0
   37.0390   30.2210   43.1000 H   0  0  0  0  0  0  0  0  0  0  0  0
   36.1900   24.7040   39.2180 C   0  0  0  0  0  0  0  0  0  0  0  0
   36.5920   26.0140   39.4550 C   0  0  0  0  0  0  0  0  0  0  0  0
   37.0950   26.3440   40.7050 C   0  0  0  0  0  0  0  0  0  0  0  0
   37.1640   25.3440   41.6450 N   0  0  0  0  0  0  0  0  0  0  0  0
   36.7680   24.0840   41.3900 C   0  0  0  0  0  0  0  0  0  0  0  0
   36.2770   23.7590   40.1700 N   0  0  0  0  0  0  0  0  0  0  0  0
   35.8190   24.5830   38.2060 H   0  0  0  0  0  0  0  0  0  0  0  0
   36.5650   26.8440   38.7650 H   0  0  0  0  0  0  0  0  0  0  0  0
   36.8260   23.3050   42.1330 H   0  0  0  0  0  0  0  0  0  0  0  0
   36.1500   27.8640   43.0760 O   0  0  0  0  0  0  0  0  0  0  0  0
   36.5810   27.0270   43.3220 H   0  0  0  0  0  0  0  0  0  0  0  0
   37.6100   30.3570   41.0970 O   0  0  0  0  0  0  0  0  0  0  0  0
   36.5430   31.1940   40.8450 C   0  0  0  0  0  2  0  0  0  0  0  0
   36.9780   32.3340   40.0590 N   0  0  0  0  0  4  0  0  0  0  0  0
   36.2830   33.1160   40.0920 H   0  0  0  0  0  0  0  0  0  0  0  0
   37.1430   31.9810   38.6780 C   0  0  0  0  0  2  0  0  0  0  0  0
   37.7060   32.7860   38.1660 H   0  0  0  0  0  0  0  0  0  0  0  0
   38.2260   32.8570   40.6110 C   0  0  0  0  0  2  0  0  0  0  0  0
   38.4330   33.8780   40.2330 H   0  0  0  0  0  0  0  0  0  0  0  0
  1  6  1  6  0  0  0
  1  5  1  0  0  0  0
  1 20  1  0  0  0  0
  2  7  1  6  0  0  0
  2  1  1  0  0  0  0
  2  3  1  0  0  0  0
  3  4  1  0  0  0  0
  4  8  1  0  0  0  0
  5  4  1  0  0  0  0
  5 10  1  1  0  0  0
  9  4  1  0  0  0  0
 11 12  2  0  0  0  0
 11 16  1  0  0  0  0
 12 13  1  0  0  0  0
 13  2  1  0  0  0  0
 13 14  2  0  0  0  0
 15 14  1  0  0  0  0
 15 19  1  0  0  0  0
 16 15  2  0  0  0  0
 17 11  1  0  0  0  0
 18 12  1  0  0  0  0
 20 21  1  0  0  0  0
 22  5  1  0  0  0  0
 23 22  1  0  0  0  0
 24 25  1  0  0  0  0
 24 28  1  0  0  0  0
 24 23  1  0  0  0  0
 26 24  1  0  0  0  0
 27 26  1  0  0  0  0
 29 28  1  0  0  0  0
M  END
>  <minimizedAffinity>
-4.48894596

$$$$

 OpenBabel03242516323D

 29 30  0  0  1  0  0  0  0  0999 V2000
   37.6410   32.2270   40.5970 C   0  0  2  0  0  0  0  0  0  0  0  0
   38.4470   31.4840   39.5200 C   0  0  1  0  0  0  0  0  0  0  0  0
   37.4320   31.2720   38.6070 O   0  0  0  0  0  0  0  0  0  0  0  0
   36.4110   30.6880   39.3440 C   0  0  0  0  0  0  0  0  0  0  0  0
   36.5900   31.1190   40.7870 C   0  0  1  0  0  0  0  0  0  0  0  0
   38.2190   32.4080   41.4950 H   0  0  0  0  0  0  0  0  0  0  0  0
   38.8270   30.5750   40.0210 H   0  0  0  0  0  0  0  0  0  0  0  0
   35.4650   31.1240   38.9960 H   0  0  0  0  0  0  0  0  0  0  0  0
   36.3500   29.5910   39.2470 H   0  0  0  0  0  0  0  0  0  0  0  0
   35.6640   31.4830   41.2410 H   0  0  0  0  0  0  0  0  0  0  0  0
   41.3190   33.0280   37.5830 C   0  0  0  0  0  0  0  0  0  0  0  0
   40.2930   32.1290   37.8520 C   0  0  0  0  0  0  0  0  0  0  0  0
   39.5670   32.2710   39.0250 C   0  0  0  0  0  0  0  0  0  0  0  0
   39.9120   33.3040   39.8620 N   0  0  0  0  0  0  0  0  0  0  0  0
   40.9100   34.1610   39.5790 C   0  0  0  0  0  0  0  0  0  0  0  0
   41.6200   34.0250   38.4340 N   0  0  0  0  0  0  0  0  0  0  0  0
   41.8020   32.8050   36.6380 H   0  0  0  0  0  0  0  0  0  0  0  0
   39.9710   31.2980   37.2410 H   0  0  0  0  0  0  0  0  0  0  0  0
   41.1740   34.9700   40.2420 H   0  0  0  0  0  0  0  0  0  0  0  0
   36.9720   33.2810   40.0590 O   0  0  0  0  0  0  0  0  0  0  0  0
   37.0840   33.4570   39.1090 H   0  0  0  0  0  0  0  0  0  0  0  0
   37.2170   30.1240   41.5520 O   0  0  0  0  0  0  0  0  0  0  0  0
   36.5600   28.9130   41.4620 C   0  0  0  0  0  2  0  0  0  0  0  0
   37.3830   27.8560   42.0200 N   0  0  0  0  0  4  0  0  0  0  0  0
   38.3980   28.1090   42.0110 H   0  0  0  0  0  0  0  0  0  0  0  0
   37.2490   26.6410   41.2690 C   0  0  0  0  0  2  0  0  0  0  0  0
   37.6800   25.8070   41.8550 H   0  0  0  0  0  0  0  0  0  0  0  0
   37.0160   27.6430   43.4190 C   0  0  0  0  0  2  0  0  0  0  0  0
   37.7970   27.0640   43.9520 H   0  0  0  0  0  0  0  0  0  0  0  0
  1  5  1  0  0  0  0
  1  6  1  1  0  0  0
  2  7  1  1  0  0  0
  2  1  1  0  0  0  0
  3  4  1  0  0  0  0
  3  2  1  0  0  0  0
  4  5  1  0  0  0  0
  5 10  1  1  0  0  0
  5 22  1  0  0  0  0
  8  4  1  0  0  0  0
  9  4  1  0  0  0  0
 11 12  2  0  0  0  0
 11 16  1  0  0  0  0
 12 13  1  0  0  0  0
 13  2  1  0  0  0  0
 13 14  2  0  0  0  0
 15 14  1  0  0  0  0
 15 19  1  0  0  0  0
 16 15  2  0  0  0  0
 17 11  1  0  0  0  0
 18 12  1  0  0  0  0
 20  1  1  0  0  0  0
 21 20  1  0  0  0  0
 23 22  1  0  0  0  0
 23 24  1  0  0  0  0
 24 28  1  0  0  0  0
 25 24  1  0  0  0  0
 26 27  1  0  0  0  0
 26 24  1  0  0  0  0
 28 29  1  0  0  0  0
M  END
>  <minimizedAffinity>
-4.45877123

$$$$

 OpenBabel03242516323D

 29 30  0  0  1  0  0  0  0  0999 V2000
   36.8280   28.3290   41.8490 C   0  0  2  0  0  0  0  0  0  0  0  0
   38.2340   27.7100   41.7940 C   0  0  1  0  0  0  0  0  0  0  0  0
   38.7120   28.1700   43.0060 O   0  0  0  0  0  0  0  0  0  0  0  0
   38.4720   29.5370   42.9840 C   0  0  0  0  0  0  0  0  0  0  0  0
   37.3110   29.7770   42.0380 C   0  0  1  0  0  0  0  0  0  0  0  0
   36.2800   28.1920   40.9240 H   0  0  0  0  0  0  0  0  0  0  0  0
   38.7090   28.1530   40.9010 H   0  0  0  0  0  0  0  0  0  0  0  0
   38.1310   29.8260   43.9870 H   0  0  0  0  0  0  0  0  0  0  0  0
   39.3500   30.1490   42.7200 H   0  0  0  0  0  0  0  0  0  0  0  0
   36.5430   30.4300   42.4640 H   0  0  0  0  0  0  0  0  0  0  0  0
   38.8760   23.9710   41.7930 C   0  0  0  0  0  0  0  0  0  0  0  0
   39.1520   25.3180   42.0040 C   0  0  0  0  0  0  0  0  0  0  0  0
   38.1960   26.2610   41.6560 C   0  0  0  0  0  0  0  0  0  0  0  0
   37.0200   25.8010   41.1160 N   0  0  0  0  0  0  0  0  0  0  0  0
   36.7770   24.4920   40.9220 C   0  0  0  0  0  0  0  0  0  0  0  0
   37.7080   23.5690   41.2610 N   0  0  0  0  0  0  0  0  0  0  0  0
   39.7030   23.3450   42.1080 H   0  0  0  0  0  0  0  0  0  0  0  0
   40.0510   25.7460   42.4230 H   0  0  0  0  0  0  0  0  0  0  0  0
   35.8510   24.1390   40.4970 H   0  0  0  0  0  0  0  0  0  0  0  0
   36.1970   27.9950   43.0060 O   0  0  0  0  0  0  0  0  0  0  0  0
   36.6660   27.4170   43.6320 H   0  0  0  0  0  0  0  0  0  0  0  0
   37.7490   30.2030   40.7760 O   0  0  0  0  0  0  0  0  0  0  0  0
   38.5830   31.3000   40.8620 C   0  0  0  0  0  2  0  0  0  0  0  0
   37.8260   32.5200   40.6470 N   0  0  0  0  0  4  0  0  0  0  0  0
   37.1020   32.6630   41.3890 H   0  0  0  0  0  0  0  0  0  0  0  0
   37.1350   32.4880   39.3890 C   0  0  0  0  0  2  0  0  0  0  0  0
   36.7830   33.5100   39.1470 H   0  0  0  0  0  0  0  0  0  0  0  0
   38.7280   33.6680   40.7120 C   0  0  0  0  0  2  0  0  0  0  0  0
   38.1620   34.6130   40.8430 H   0  0  0  0  0  0  0  0  0  0  0  0
  1  6  1  6  0  0  0
  1  5  1  0  0  0  0
  1 20  1  0  0  0  0
  2  7  1  6  0  0  0
  2  1  1  0  0  0  0
  2  3  1  0  0  0  0
  4  3  1  0  0  0  0
  4  8  1  0  0  0  0
  5 10  1  1  0  0  0
  5  4  1  0  0  0  0
  9  4  1  0  0  0  0
 11 12  1  0  0  0  0
 11 17  1  0  0  0  0
 12 18  1  0  0  0  0
 13  2  1  0  0  0  0
 13 12  2  0  0  0  0
 14 13  1  0  0  0  0
 15 14  2  0  0  0  0
 15 16  1  0  0  0  0
 16 11  2  0  0  0  0
 19 15  1  0  0  0  0
 20 21  1  0  0  0  0
 22 23  1  0  0  0  0
 22  5  1  0  0  0  0
 24 28  1  0  0  0  0
 24 23  1  0  0  0  0
 24 25  1  0  0  0  0
 26 24  1  0  0  0  0
 27 26  1  0  0  0  0
 28 29  1  0  0  0  0
M  END
>  <minimizedAffinity>
-4.39853001

$$$$

 OpenBabel03242516323D

 29 30  0  0  1  0  0  0  0  0999 V2000
   38.2460   28.8100   43.1560 C   0  0  2  0  0  0  0  0  0  0  0  0
   38.0580   28.4150   41.6820 C   0  0  1  0  0  0  0  0  0  0  0  0
   36.9610   27.5870   41.8260 O   0  0  0  0  0  0  0  0  0  0  0  0
   37.3240   26.6910   42.8220 C   0  0  0  0  0  0  0  0  0  0  0  0
   38.3750   27.3690   43.6800 C   0  0  1  0  0  0  0  0  0  0  0  0
   39.1460   29.3910   43.3160 H   0  0  0  0  0  0  0  0  0  0  0  0
   38.9970   27.9080   41.3980 H   0  0  0  0  0  0  0  0  0  0  0  0
   36.4430   26.5360   43.4600 H   0  0  0  0  0  0  0  0  0  0  0  0
   37.6670   25.7110   42.4490 H   0  0  0  0  0  0  0  0  0  0  0  0
   38.1690   27.2850   44.7500 H   0  0  0  0  0  0  0  0  0  0  0  0
   37.0990   30.8910   38.9730 C   0  0  0  0  0  0  0  0  0  0  0  0
   37.1880   29.6550   39.6050 C   0  0  0  0  0  0  0  0  0  0  0  0
   37.8490   29.5710   40.8210 C   0  0  0  0  0  0  0  0  0  0  0  0
   38.3840   30.7280   41.3340 N   0  0  0  0  0  0  0  0  0  0  0  0
   38.2840   31.9120   40.7020 C   0  0  0  0  0  0  0  0  0  0  0  0
   37.6390   31.9970   39.5140 N   0  0  0  0  0  0  0  0  0  0  0  0
   36.5590   30.8160   38.0350 H   0  0  0  0  0  0  0  0  0  0  0  0
   36.7920   28.7110   39.2610 H   0  0  0  0  0  0  0  0  0  0  0  0
   38.7060   32.8150   41.1110 H   0  0  0  0  0  0  0  0  0  0  0  0
   37.0880   29.2910   43.6790 O   0  0  0  0  0  0  0  0  0  0  0  0
   36.3120   29.3510   43.0950 H   0  0  0  0  0  0  0  0  0  0  0  0
   39.6700   26.9520   43.3390 O   0  0  0  0  0  0  0  0  0  0  0  0
   39.8600   25.6060   43.5810 C   0  0  0  0  0  2  0  0  0  0  0  0
   40.8610   25.0730   42.6760 N   0  0  0  0  0  4  0  0  0  0  0  0
   40.8110   24.0290   42.6130 H   0  0  0  0  0  0  0  0  0  0  0  0
   42.1870   25.4000   43.1170 C   0  0  0  0  0  2  0  0  0  0  0  0
   42.8990   25.2030   42.2910 H   0  0  0  0  0  0  0  0  0  0  0  0
   40.6220   25.5870   41.3290 C   0  0  0  0  0  2  0  0  0  0  0  0
   41.1700   24.9910   40.5710 H   0  0  0  0  0  0  0  0  0  0  0  0
  1  6  1  1  0  0  0
  1 20  1  0  0  0  0
  1  5  1  0  0  0  0
  2  7  1  6  0  0  0
  2  3  1  0  0  0  0
  2  1  1  0  0  0  0
  3  4  1  0  0  0  0
  4  8  1  0  0  0  0
  4  5  1  0  0  0  0
  5 10  1  1  0  0  0
  9  4  1  0  0  0  0
 11 16  2  0  0  0  0
 11 12  1  0  0  0  0
 12 13  2  0  0  0  0
 13 14  1  0  0  0  0
 13  2  1  0  0  0  0
 15 19  1  0  0  0  0
 15 14  2  0  0  0  0
 16 15  1  0  0  0  0
 17 11  1  0  0  0  0
 18 12  1  0  0  0  0
 21 20  1  0  0  0  0
 22 23  1  0  0  0  0
 22  5  1  0  0  0  0
 24 26  1  0  0  0  0
 24 23  1  0  0  0  0
 25 24  1  0  0  0  0
 27 26  1  0  0  0  0
 28 24  1  0  0  0  0
 29 28  1  0  0  0  0
M  END
>  <minimizedAffinity>
-4.21562195

$$$$

 OpenBabel03242516323D

 29 30  0  0  1  0  0  0  0  0999 V2000
   38.5230   29.1010   42.1400 C   0  0  2  0  0  0  0  0  0  0  0  0
   37.6240   29.5550   40.9790 C   0  0  1  0  0  0  0  0  0  0  0  0
   36.3970   29.2350   41.5280 O   0  0  0  0  0  0  0  0  0  0  0  0
   36.5250   27.9130   41.9310 C   0  0  0  0  0  0  0  0  0  0  0  0
   37.9990   27.6550   42.1780 C   0  0  1  0  0  0  0  0  0  0  0  0
   39.5770   29.1530   41.8910 H   0  0  0  0  0  0  0  0  0  0  0  0
   37.9310   28.9350   40.1180 H   0  0  0  0  0  0  0  0  0  0  0  0
   36.0170   27.8150   42.9010 H   0  0  0  0  0  0  0  0  0  0  0  0
   36.0910   27.1800   41.2310 H   0  0  0  0  0  0  0  0  0  0  0  0
   38.1900   27.1580   43.1330 H   0  0  0  0  0  0  0  0  0  0  0  0
   37.3630   33.1410   39.7730 C   0  0  0  0  0  0  0  0  0  0  0  0
   36.9820   31.8140   39.9340 C   0  0  0  0  0  0  0  0  0  0  0  0
   37.8060   30.9620   40.6550 C   0  0  0  0  0  0  0  0  0  0  0  0
   38.9650   31.4890   41.1710 N   0  0  0  0  0  0  0  0  0  0  0  0
   39.3110   32.7780   41.0010 C   0  0  0  0  0  0  0  0  0  0  0  0
   38.5080   33.6120   40.2980 N   0  0  0  0  0  0  0  0  0  0  0  0
   36.6330   33.6940   39.1920 H   0  0  0  0  0  0  0  0  0  0  0  0
   36.0890   31.3360   39.5570 H   0  0  0  0  0  0  0  0  0  0  0  0
   40.2230   33.1840   41.4100 H   0  0  0  0  0  0  0  0  0  0  0  0
   38.1270   29.6690   43.3100 O   0  0  0  0  0  0  0  0  0  0  0  0
   37.3730   30.2830   43.2870 H   0  0  0  0  0  0  0  0  0  0  0  0
   38.6000   27.0010   41.0930 O   0  0  0  0  0  0  0  0  0  0  0  0
   39.5270   26.0640   41.5040 C   0  0  0  0  0  2  0  0  0  0  0  0
   38.8700   25.0030   42.2450 N   0  0  0  0  0  4  0  0  0  0  0  0
   38.0510   25.3600   42.7890 H   0  0  0  0  0  0  0  0  0  0  0  0
   39.7660   24.3960   43.1870 C   0  0  0  0  0  2  0  0  0  0  0  0
   39.3210   23.4480   43.5460 H   0  0  0  0  0  0  0  0  0  0  0  0
   38.3510   24.0080   41.3090 C   0  0  0  0  0  2  0  0  0  0  0  0
   37.6080   23.3480   41.8000 H   0  0  0  0  0  0  0  0  0  0  0  0
  1  6  1  6  0  0  0
  1  5  1  0  0  0  0
  1 20  1  0  0  0  0
  2  7  1  6  0  0  0
  2  3  1  0  0  0  0
  2  1  1  0  0  0  0
  3  4  1  0  0  0  0
  4  5  1  0  0  0  0
  4  8  1  0  0  0  0
  5 10  1  1  0  0  0
  9  4  1  0  0  0  0
 11 12  2  0  0  0  0
 11 16  1  0  0  0  0
 12 13  1  0  0  0  0
 13  2  1  0  0  0  0
 13 14  2  0  0  0  0
 15 14  1  0  0  0  0
 15 19  1  0  0  0  0
 16 15  2  0  0  0  0
 17 11  1  0  0  0  0
 18 12  1  0  0  0  0
 21 20  1  0  0  0  0
 22 23  1  0  0  0  0
 22  5  1  0  0  0  0
 23 24  1  0  0  0  0
 24 25  1  0  0  0  0
 24 26  1  0  0  0  0
 26 27  1  0  0  0  0
 28 29  1  0  0  0  0
 28 24  1  0  0  0  0
M  END
>  <minimizedAffinity>
-4.20058823

$$$$

 OpenBabel03242516323D

 29 30  0  0  1  0  0  0  0  0999 V2000
   36.5030   29.6300   41.3550 C   0  0  2  0  0  0  0  0  0  0  0  0
   37.5410   30.0100   40.2860 C   0  0  1  0  0  0  0  0  0  0  0  0
   36.8440   29.6030   39.1640 O   0  0  0  0  0  0  0  0  0  0  0  0
   36.4650   28.2960   39.4390 C   0  0  0  0  0  0  0  0  0  0  0  0
   36.4060   28.1500   40.9480 C   0  0  1  0  0  0  0  0  0  0  0  0
   36.8810   29.7590   42.3620 H   0  0  0  0  0  0  0  0  0  0  0  0
   38.4350   29.4100   40.5280 H   0  0  0  0  0  0  0  0  0  0  0  0
   35.4410   28.1660   39.0650 H   0  0  0  0  0  0  0  0  0  0  0  0
   37.1090   27.5290   38.9770 H   0  0  0  0  0  0  0  0  0  0  0  0
   35.4840   27.6720   41.2920 H   0  0  0  0  0  0  0  0  0  0  0  0
   39.0290   33.4490   40.8720 C   0  0  0  0  0  0  0  0  0  0  0  0
   38.8890   32.0730   41.0170 C   0  0  0  0  0  0  0  0  0  0  0  0
   37.8790   31.4260   40.3210 C   0  0  0  0  0  0  0  0  0  0  0  0
   37.0670   32.1940   39.5210 N   0  0  0  0  0  0  0  0  0  0  0  0
   37.2240   33.5240   39.3990 C   0  0  0  0  0  0  0  0  0  0  0  0
   38.2100   34.1590   40.0770 N   0  0  0  0  0  0  0  0  0  0  0  0
   39.8530   33.8260   41.4680 H   0  0  0  0  0  0  0  0  0  0  0  0
   39.4890   31.4120   41.6250 H   0  0  0  0  0  0  0  0  0  0  0  0
   36.5830   34.1200   38.7690 H   0  0  0  0  0  0  0  0  0  0  0  0
   35.2910   30.1730   41.0660 O   0  0  0  0  0  0  0  0  0  0  0  0
   35.2160   30.7290   40.2720 H   0  0  0  0  0  0  0  0  0  0  0  0
   37.5610   27.5360   41.4550 O   0  0  0  0  0  0  0  0  0  0  0  0
   37.2970   26.2790   41.9610 C   0  0  0  0  0  2  0  0  0  0  0  0
   37.7550   25.2610   41.0320 N   0  0  0  0  0  4  0  0  0  0  0  0
   37.3080   25.3660   40.0920 H   0  0  0  0  0  0  0  0  0  0  0  0
   37.4320   23.9450   41.5030 C   0  0  0  0  0  2  0  0  0  0  0  0
   38.0040   23.2020   40.9140 H   0  0  0  0  0  0  0  0  0  0  0  0
   39.1960   25.4000   40.8320 C   0  0  0  0  0  2  0  0  0  0  0  0
   39.5280   24.8470   39.9310 H   0  0  0  0  0  0  0  0  0  0  0  0
  1  6  1  1  0  0  0
  2 13  1  0  0  0  0
  2  7  1  1  0  0  0
  2  1  1  0  0  0  0
  3  4  1  0  0  0  0
  3  2  1  0  0  0  0
  4  5  1  0  0  0  0
  5 10  1  1  0  0  0
  5  1  1  0  0  0  0
  5 22  1  0  0  0  0
  8  4  1  0  0  0  0
  9  4  1  0  0  0  0
 11 12  1  0  0  0  0
 11 17  1  0  0  0  0
 12 18  1  0  0  0  0
 13 12  2  0  0  0  0
 14 13  1  0  0  0  0
 15 14  2  0  0  0  0
 15 16  1  0  0  0  0
 16 11  2  0  0  0  0
 19 15  1  0  0  0  0
 20  1  1  0  0  0  0
 21 20  1  0  0  0  0
 22 23  1  0  0  0  0
 24 26  1  0  0  0  0
 24 23  1  0  0  0  0
 25 24  1  0  0  0  0
 27 26  1  0  0  0  0
 28 24  1  0  0  0  0
 29 28  1  0  0  0  0
M  END
>  <minimizedAffinity>
-4.17370462

$$$$

 OpenBabel03242516323D

 29 30  0  0  1  0  0  0  0  0999 V2000
   36.9460   28.6450   42.3150 C   0  0  2  0  0  0  0  0  0  0  0  0
   38.2760   28.1580   41.7170 C   0  0  1  0  0  0  0  0  0  0  0  0
   39.0960   29.1690   42.1820 O   0  0  0  0  0  0  0  0  0  0  0  0
   38.4630   30.3420   41.7960 C   0  0  0  0  0  0  0  0  0  0  0  0
   36.9850   30.0330   41.6530 C   0  0  1  0  0  0  0  0  0  0  0  0
   36.1030   28.0510   41.9840 H   0  0  0  0  0  0  0  0  0  0  0  0
   38.1140   28.1480   40.6250 H   0  0  0  0  0  0  0  0  0  0  0  0
   38.5600   31.0560   42.6260 H   0  0  0  0  0  0  0  0  0  0  0  0
   38.8760   30.8040   40.8840 H   0  0  0  0  0  0  0  0  0  0  0  0
   36.3460   30.7640   42.1580 H   0  0  0  0  0  0  0  0  0  0  0  0
   38.6600   24.4340   42.3240 C   0  0  0  0  0  0  0  0  0  0  0  0
   38.1450   25.5920   41.7500 C   0  0  0  0  0  0  0  0  0  0  0  0
   38.6300   26.8210   42.1700 C   0  0  0  0  0  0  0  0  0  0  0  0
   39.6030   26.8200   43.1400 N   0  0  0  0  0  0  0  0  0  0  0  0
   40.0850   25.6860   43.6800 C   0  0  0  0  0  0  0  0  0  0  0  0
   39.6120   24.4840   43.2710 N   0  0  0  0  0  0  0  0  0  0  0  0
   38.1950   23.5470   41.9070 H   0  0  0  0  0  0  0  0  0  0  0  0
   37.3840   25.6640   40.9870 H   0  0  0  0  0  0  0  0  0  0  0  0
   40.8480   25.6940   44.4410 H   0  0  0  0  0  0  0  0  0  0  0  0
   37.0690   28.8690   43.6500 O   0  0  0  0  0  0  0  0  0  0  0  0
   37.9300   28.6890   44.0670 H   0  0  0  0  0  0  0  0  0  0  0  0
   36.6250   29.8290   40.3130 O   0  0  0  0  0  0  0  0  0  0  0  0
   35.2890   29.5050   40.1800 C   0  0  0  0  0  2  0  0  0  0  0  0
   35.1210   28.4910   39.1560 N   0  0  0  0  0  4  0  0  0  0  0  0
   34.9110   27.5530   39.5700 H   0  0  0  0  0  0  0  0  0  0  0  0
   36.3120   28.3430   38.3700 C   0  0  0  0  0  2  0  0  0  0  0  0
   36.0710   27.7590   37.4600 H   0  0  0  0  0  0  0  0  0  0  0  0
   33.9820   28.8410   38.3090 C   0  0  0  0  0  2  0  0  0  0  0  0
   33.6460   27.9690   37.7130 H   0  0  0  0  0  0  0  0  0  0  0  0
  1  6  1  6  0  0  0
  1 20  1  0  0  0  0
  2  7  1  6  0  0  0
  2 13  1  0  0  0  0
  2  3  1  0  0  0  0
  2  1  1  0  0  0  0
  4  3  1  0  0  0  0
  4  8  1  0  0  0  0
  5  4  1  0  0  0  0
  5 10  1  1  0  0  0
  5  1  1  0  0  0  0
  9  4  1  0  0  0  0
 11 16  1  0  0  0  0
 12 13  1  0  0  0  0
 12 11  2  0  0  0  0
 13 14  2  0  0  0  0
 14 15  1  0  0  0  0
 15 19  1  0  0  0  0
 16 15  2  0  0  0  0
 17 11  1  0  0  0  0
 18 12  1  0  0  0  0
 20 21  1  0  0  0  0
 22  5  1  0  0  0  0
 23 22  1  0  0  0  0
 24 25  1  0  0  0  0
 24 23  1  0  0  0  0
 26 24  1  0  0  0  0
 27 26  1  0  0  0  0
 28 24  1  0  0  0  0
 29 28  1  0  0  0  0
M  END
>  <minimizedAffinity>
-4.13444233

$$$$
