
 OpenBabel03252502553D

 35 36  0  0  0  0  0  0  0  0999 V2000
   45.6110   29.9450   44.8190 Br  0  0  0  0  0  0  0  0  0  0  0  0
   45.6660   30.6150   46.6300 C   0  0  0  0  0  0  0  0  0  0  0  0
   46.3480   31.7920   46.8090 C   0  0  0  0  0  0  0  0  0  0  0  0
   46.3640   32.2420   48.1300 C   0  0  0  0  0  0  0  0  0  0  0  0
   45.7560   31.5760   49.1720 C   0  0  0  0  0  0  0  0  0  0  0  0
   45.0970   30.4090   48.9100 C   0  0  0  0  0  0  0  0  0  0  0  0
   45.0390   29.9070   47.6340 C   0  0  0  0  0  0  0  0  0  0  0  0
   46.8830   33.1710   48.3660 H   0  0  0  0  0  0  0  0  0  0  0  0
   45.8060   31.9830   50.1870 H   0  0  0  0  0  0  0  0  0  0  0  0
   44.6290   29.9160   49.7640 H   0  0  0  0  0  0  0  0  0  0  0  0
   47.0280   32.5870   45.8030 C   0  0  0  0  0  0  0  0  0  0  0  0
   47.3060   31.9080   44.9540 H   0  0  0  0  0  0  0  0  0  0  0  0
   47.9910   33.0410   46.1420 H   0  0  0  0  0  0  0  0  0  0  0  0
   44.5280   35.3200   45.3960 C   0  0  0  0  0  0  0  0  0  0  0  0
   44.7470   35.7200   44.0630 C   0  0  0  0  0  0  0  0  0  0  0  0
   45.7330   35.0550   43.3400 C   0  0  0  0  0  0  0  0  0  0  0  0
   46.4290   34.0690   43.9350 N   0  0  0  0  0  0  0  0  0  0  0  0
   46.2000   33.6940   45.2370 C   0  0  0  0  0  0  0  0  0  0  0  0
   45.2400   34.3480   45.9250 N   0  0  0  0  0  0  0  0  0  0  0  0
   43.8000   35.7430   46.0780 H   0  0  0  0  0  0  0  0  0  0  0  0
   44.1250   36.5200   43.7040 H   0  0  0  0  0  0  0  0  0  0  0  0
   45.8920   35.3670   42.3290 H   0  0  0  0  0  0  0  0  0  0  0  0
   44.3690   28.7210   47.3710 O   0  0  0  0  0  0  0  0  0  0  0  0
   44.2480   26.1570   46.9690 O   0  0  0  0  0  0  0  0  0  0  0  0
   44.9430   27.1870   47.8460 P   0  0  2  0  0  0  0  0  0  0  0  0
   44.5210   26.9650   49.4540 O   0  0  0  0  0  0  0  0  0  0  0  0
   45.2030   27.2190   50.1070 H   0  0  0  0  0  0  0  0  0  0  0  0
   46.6010   27.0490   47.6230 O   0  0  0  0  0  0  0  0  0  0  0  0
   46.9240   26.0250   46.7350 C   0  0  0  0  0  2  0  0  0  0  0  0
   46.8370   26.4320   45.3490 N   0  0  0  0  0  4  0  0  0  0  0  0
   46.0580   27.1050   45.1940 H   0  0  0  0  0  0  0  0  0  0  0  0
   48.1190   27.0260   44.9800 C   0  0  0  0  0  2  0  0  0  0  0  0
   48.5290   27.4970   45.9060 H   0  0  0  0  0  0  0  0  0  0  0  0
   46.6440   25.2920   44.4650 C   0  0  0  0  0  2  0  0  0  0  0  0
   45.6320   24.8480   44.5670 H   0  0  0  0  0  0  0  0  0  0  0  0
  1  2  1  0  0  0  0
  2  3  2  0  0  0  0
  2  7  1  0  0  0  0
  3  4  1  0  0  0  0
  4  8  1  0  0  0  0
  4  5  2  0  0  0  0
  5  9  1  0  0  0  0
  6  5  1  0  0  0  0
  6 10  1  0  0  0  0
  7  6  2  0  0  0  0
 11 13  1  0  0  0  0
 11  3  1  0  0  0  0
 12 11  1  0  0  0  0
 14 19  1  0  0  0  0
 14 20  1  0  0  0  0
 15 14  2  0  0  0  0
 16 17  2  0  0  0  0
 16 15  1  0  0  0  0
 17 18  1  0  0  0  0
 18 11  1  0  0  0  0
 18 19  2  0  0  0  0
 21 15  1  0  0  0  0
 22 16  1  0  0  0  0
 23  7  1  0  0  0  0
 23 25  1  0  0  0  0
 25 24  2  6  0  0  0
 25 26  1  0  0  0  0
 26 27  1  0  0  0  0
 28 25  1  0  0  0  0
 29 28  1  0  0  0  0
 30 29  1  0  0  0  0
 31 30  1  0  0  0  0
 32 30  1  0  0  0  0
 32 33  1  0  0  0  0
 34 35  1  0  0  0  0
 34 30  1  0  0  0  0
M  END
>  <minimizedAffinity>
-4.53982449

>  <minimizedRMSD>
0.54537636

$$$$
