
 OpenBabel03242522493D

 22 22  0  0  0  0  0  0  0  0999 V2000
   47.8600   32.6160   41.8020 O   0  0  0  0  0  0  0  0  0  0  0  0
   48.0170   34.1310   41.9120 P   0  0  2  0  0  0  0  0  0  0  0  0
   48.9040   34.4720   43.3140 O   0  0  0  0  0  0  0  0  0  0  0  0
   48.6160   33.8200   44.0020 H   0  0  0  0  0  0  0  0  0  0  0  0
   46.4780   34.8450   42.0890 O   0  0  0  0  0  0  0  0  0  0  0  0
   44.4400   36.0010   44.8990 C   0  0  0  0  0  0  0  0  0  0  0  0
   45.0410   35.9600   43.6130 C   0  0  0  0  0  0  0  0  0  0  0  0
   45.8910   34.8870   43.3430 C   0  0  0  0  0  0  0  0  0  0  0  0
   46.1000   33.9470   44.3060 N   0  0  0  0  0  0  0  0  0  0  0  0
   45.5110   34.0180   45.5190 C   0  0  0  0  0  0  0  0  0  0  0  0
   44.6890   35.0350   45.8130 N   0  0  0  0  0  0  0  0  0  0  0  0
   43.7690   36.8180   45.1600 H   0  0  0  0  0  0  0  0  0  0  0  0
   44.7990   36.7670   42.9270 H   0  0  0  0  0  0  0  0  0  0  0  0
   45.8030   33.1820   46.1420 H   0  0  0  0  0  0  0  0  0  0  0  0
   48.7610   34.7590   40.5450 O   0  0  0  0  0  0  0  0  0  0  0  0
   48.0050   34.3190   39.4460 C   0  0  0  0  0  0  0  0  0  0  0  0
   48.9300   33.8830   38.4160 N   0  0  0  0  0  0  0  0  0  0  0  0
   49.8460   34.3210   38.6370 H   0  0  0  0  0  0  0  0  0  0  0  0
   48.4100   34.3350   37.1370 C   0  0  0  0  0  0  0  0  0  0  0  0
   47.8580   33.5160   36.6260 H   0  0  0  0  0  0  0  0  0  0  0  0
   49.0980   32.4540   38.4340 C   0  0  0  0  0  0  0  0  0  0  0  0
   48.8200   32.0640   39.4450 H   0  0  0  0  0  0  0  0  0  0  0  0
  2  1  2  6  0  0  0
  2  5  1  0  0  0  0
  2  3  1  0  0  0  0
  3  4  1  0  0  0  0
  5  8  1  0  0  0  0
  6 12  1  0  0  0  0
  6 11  1  0  0  0  0
  7  6  2  0  0  0  0
  8  7  1  0  0  0  0
  8  9  2  0  0  0  0
  9 10  1  0  0  0  0
 10 11  2  0  0  0  0
 10 14  1  0  0  0  0
 13  7  1  0  0  0  0
 15  2  1  0  0  0  0
 16 15  1  0  0  0  0
 17 21  1  0  0  0  0
 17 18  1  0  0  0  0
 17 16  1  0  0  0  0
 19 17  1  0  0  0  0
 20 19  1  0  0  0  0
 21 22  1  0  0  0  0
M  END
>  <minimizedAffinity>
-4.21370792

>  <minimizedRMSD>
1.7085402

$$$$
