
 OpenBabel03242516313D

 29 30  0  0  1  0  0  0  0  0999 V2000
   47.9810   34.8330   42.0480 C   0  0  2  0  0  0  0  0  0  0  0  0
   46.6810   34.0480   42.2850 C   0  0  1  0  0  0  0  0  0  0  0  0
   47.2250   32.7870   42.4460 O   0  0  0  0  0  0  0  0  0  0  0  0
   48.0390   32.6100   41.3360 C   0  0  0  0  0  0  0  0  0  0  0  0
   48.4490   33.9870   40.8500 C   0  0  1  0  0  0  0  0  0  0  0  0
   47.7970   35.8660   41.7780 H   0  0  0  0  0  0  0  0  0  0  0  0
   46.0870   34.1900   41.3650 H   0  0  0  0  0  0  0  0  0  0  0  0
   48.9540   32.1070   41.6780 H   0  0  0  0  0  0  0  0  0  0  0  0
   47.5860   32.0080   40.5300 H   0  0  0  0  0  0  0  0  0  0  0  0
   49.5240   34.0700   40.6640 H   0  0  0  0  0  0  0  0  0  0  0  0
   44.4800   35.9240   44.7380 C   0  0  0  0  0  0  0  0  0  0  0  0
   45.1120   35.6600   43.5280 C   0  0  0  0  0  0  0  0  0  0  0  0
   45.9340   34.5470   43.4300 C   0  0  0  0  0  0  0  0  0  0  0  0
   46.0760   33.7630   44.5490 N   0  0  0  0  0  0  0  0  0  0  0  0
   45.4530   34.0410   45.7090 C   0  0  0  0  0  0  0  0  0  0  0  0
   44.6500   35.1270   45.8080 N   0  0  0  0  0  0  0  0  0  0  0  0
   43.8710   36.8190   44.6780 H   0  0  0  0  0  0  0  0  0  0  0  0
   45.0450   36.2310   42.6140 H   0  0  0  0  0  0  0  0  0  0  0  0
   45.5690   33.4200   46.5830 H   0  0  0  0  0  0  0  0  0  0  0  0
   48.8790   34.5950   43.0410 O   0  0  0  0  0  0  0  0  0  0  0  0
   48.6120   34.0030   43.7660 H   0  0  0  0  0  0  0  0  0  0  0  0
   47.6730   34.4050   39.7590 O   0  0  0  0  0  0  0  0  0  0  0  0
   48.3860   34.3790   38.5780 C   0  0  0  0  0  0  0  0  0  0  0  0
   47.9860   33.2360   37.7780 N   0  0  0  0  0  0  0  0  0  0  0  0
   48.2290   32.3310   38.2450 H   0  0  0  0  0  0  0  0  0  0  0  0
   48.6450   33.2370   36.5030 C   0  0  0  0  0  0  0  0  0  0  0  0
   48.1390   32.5120   35.8370 H   0  0  0  0  0  0  0  0  0  0  0  0
   46.5350   33.2460   37.6100 C   0  0  0  0  0  0  0  0  0  0  0  0
   46.1660   32.2590   37.2640 H   0  0  0  0  0  0  0  0  0  0  0  0
  1  6  1  6  0  0  0
  1  2  1  0  0  0  0
  1 20  1  0  0  0  0
  2  7  1  6  0  0  0
  2  3  1  0  0  0  0
  2 13  1  0  0  0  0
  4  8  1  0  0  0  0
  4  3  1  0  0  0  0
  5 10  1  6  0  0  0
  5  4  1  0  0  0  0
  5  1  1  0  0  0  0
  9  4  1  0  0  0  0
 11 16  1  0  0  0  0
 12 11  2  0  0  0  0
 13 12  1  0  0  0  0
 13 14  2  0  0  0  0
 14 15  1  0  0  0  0
 15 16  2  0  0  0  0
 15 19  1  0  0  0  0
 17 11  1  0  0  0  0
 18 12  1  0  0  0  0
 20 21  1  0  0  0  0
 22  5  1  0  0  0  0
 23 22  1  0  0  0  0
 24 25  1  0  0  0  0
 24 23  1  0  0  0  0
 26 24  1  0  0  0  0
 27 26  1  0  0  0  0
 28 24  1  0  0  0  0
 29 28  1  0  0  0  0
M  END
>  <minimizedAffinity>
-4.42641687

>  <minimizedRMSD>
1.27130008

$$$$
