
 OpenBabel03252502553D

 35 36  0  0  0  0  0  0  0  0999 V2000
   45.6090   29.9370   44.8020 Br  0  0  0  0  0  0  0  0  0  0  0  0
   45.6620   30.5960   46.6170 C   0  0  0  0  0  0  0  0  0  0  0  0
   46.3460   31.7710   46.8050 C   0  0  0  0  0  0  0  0  0  0  0  0
   46.3610   32.2130   48.1280 C   0  0  0  0  0  0  0  0  0  0  0  0
   45.7500   31.5420   49.1650 C   0  0  0  0  0  0  0  0  0  0  0  0
   45.0890   30.3770   48.8940 C   0  0  0  0  0  0  0  0  0  0  0  0
   45.0330   29.8840   47.6160 C   0  0  0  0  0  0  0  0  0  0  0  0
   46.8810   33.1400   48.3700 H   0  0  0  0  0  0  0  0  0  0  0  0
   45.7990   31.9430   50.1820 H   0  0  0  0  0  0  0  0  0  0  0  0
   44.6200   29.8800   49.7450 H   0  0  0  0  0  0  0  0  0  0  0  0
   47.0290   32.5710   45.8040 C   0  0  0  0  0  0  0  0  0  0  0  0
   47.3080   31.8970   44.9520 H   0  0  0  0  0  0  0  0  0  0  0  0
   47.9910   33.0220   46.1480 H   0  0  0  0  0  0  0  0  0  0  0  0
   44.5350   35.3120   45.4090 C   0  0  0  0  0  0  0  0  0  0  0  0
   44.7540   35.7150   44.0770 C   0  0  0  0  0  0  0  0  0  0  0  0
   45.7370   35.0500   43.3500 C   0  0  0  0  0  0  0  0  0  0  0  0
   46.4310   34.0600   43.9420 N   0  0  0  0  0  0  0  0  0  0  0  0
   46.2020   33.6810   45.2420 C   0  0  0  0  0  0  0  0  0  0  0  0
   45.2450   34.3360   45.9330 N   0  0  0  0  0  0  0  0  0  0  0  0
   43.8080   35.7340   46.0920 H   0  0  0  0  0  0  0  0  0  0  0  0
   44.1330   36.5180   43.7210 H   0  0  0  0  0  0  0  0  0  0  0  0
   45.8950   35.3640   42.3400 H   0  0  0  0  0  0  0  0  0  0  0  0
   44.3600   28.7000   47.3450 O   0  0  0  0  0  0  0  0  0  0  0  0
   44.1880   26.1310   46.9970 O   0  0  0  0  0  0  0  0  0  0  0  0
   44.9120   27.1650   47.8440 P   0  0  2  0  0  0  0  0  0  0  0  0
   44.5080   26.9850   49.4610 O   0  0  0  0  0  0  0  0  0  0  0  0
   45.2020   27.2390   50.1000 H   0  0  0  0  0  0  0  0  0  0  0  0
   46.5640   26.9920   47.6020 O   0  0  0  0  0  0  0  0  0  0  0  0
   47.0540   25.8210   48.1760 C   0  0  0  0  0  2  0  0  0  0  0  0
   48.3440   25.4320   47.6490 N   0  0  0  0  0  4  0  0  0  0  0  0
   48.9100   26.2580   47.3700 H   0  0  0  0  0  0  0  0  0  0  0  0
   49.0280   24.6550   48.6790 C   0  0  0  0  0  2  0  0  0  0  0  0
   48.6770   25.0510   49.6630 H   0  0  0  0  0  0  0  0  0  0  0  0
   48.2110   24.5550   46.4950 C   0  0  0  0  0  2  0  0  0  0  0  0
   47.8250   25.0890   45.6020 H   0  0  0  0  0  0  0  0  0  0  0  0
  1  2  1  0  0  0  0
  2  3  2  0  0  0  0
  2  7  1  0  0  0  0
  3  4  1  0  0  0  0
  4  8  1  0  0  0  0
  4  5  2  0  0  0  0
  5  9  1  0  0  0  0
  6  5  1  0  0  0  0
  6 10  1  0  0  0  0
  7  6  2  0  0  0  0
 11 13  1  0  0  0  0
 11  3  1  0  0  0  0
 12 11  1  0  0  0  0
 14 19  1  0  0  0  0
 14 20  1  0  0  0  0
 15 14  2  0  0  0  0
 16 17  2  0  0  0  0
 16 15  1  0  0  0  0
 17 18  1  0  0  0  0
 18 11  1  0  0  0  0
 18 19  2  0  0  0  0
 21 15  1  0  0  0  0
 22 16  1  0  0  0  0
 23  7  1  0  0  0  0
 23 25  1  0  0  0  0
 25 24  2  6  0  0  0
 25 26  1  0  0  0  0
 26 27  1  0  0  0  0
 28 25  1  0  0  0  0
 28 29  1  0  0  0  0
 30 29  1  0  0  0  0
 30 32  1  0  0  0  0
 31 30  1  0  0  0  0
 32 33  1  0  0  0  0
 34 30  1  0  0  0  0
 35 34  1  0  0  0  0
M  END
>  <minimizedAffinity>
-4.70235777

>  <minimizedRMSD>
0.597642601

$$$$
