
 OpenBabel03242521073D

 38 40  0  0  1  0  0  0  0  0999 V2000
   47.3110   32.4890   39.8380 C   0  0  2  0  0  0  0  0  0  0  0  0
   46.5680   33.7290   39.5480 C   0  0  0  0  0  0  0  0  0  0  0  0
   47.4420   33.5720   40.7950 C   0  0  1  0  0  0  0  0  0  0  0  0
   46.6510   31.6270   40.1580 H   0  0  0  0  0  0  0  0  0  0  0  0
   45.4880   33.7840   39.7860 H   0  0  0  0  0  0  0  0  0  0  0  0
   46.8530   34.4190   38.7480 H   0  0  0  0  0  0  0  0  0  0  0  0
   48.2140   34.3520   40.7740 H   0  0  0  0  0  0  0  0  0  0  0  0
   49.2340   31.7430   36.7870 C   0  0  0  0  0  0  0  0  0  0  0  0
   50.4450   31.4790   37.3900 C   0  0  0  0  0  0  0  0  0  0  0  0
   50.6830   31.5300   38.7470 C   0  0  0  0  0  0  0  0  0  0  0  0
   49.6260   31.8730   39.5690 C   0  0  0  0  0  0  0  0  0  0  0  0
   48.4370   32.1290   38.9450 C   0  0  0  0  0  0  0  0  0  0  0  0
   48.2640   32.0670   37.6400 N   0  0  0  0  0  0  0  0  0  0  0  0
   51.3050   31.2050   36.7720 H   0  0  0  0  0  0  0  0  0  0  0  0
   51.6490   31.3150   39.1760 H   0  0  0  0  0  0  0  0  0  0  0  0
   49.7510   31.9280   40.6330 H   0  0  0  0  0  0  0  0  0  0  0  0
   48.8970   30.6200   33.2000 C   0  0  0  0  0  0  0  0  0  0  0  0
   49.1130   30.5250   34.5790 C   0  0  0  0  0  0  0  0  0  0  0  0
   49.0360   31.6780   35.3350 C   0  0  0  0  0  0  0  0  0  0  0  0
   48.7590   32.8350   34.7130 N   0  0  0  0  0  0  0  0  0  0  0  0
   48.5520   32.9000   33.3640 C   0  0  0  0  0  0  0  0  0  0  0  0
   48.6260   31.7880   32.6350 N   0  0  0  0  0  0  0  0  0  0  0  0
   48.9840   29.6510   32.7190 H   0  0  0  0  0  0  0  0  0  0  0  0
   49.3360   29.6210   35.1100 H   0  0  0  0  0  0  0  0  0  0  0  0
   48.3300   33.8470   32.8880 H   0  0  0  0  0  0  0  0  0  0  0  0
   46.7520   33.5380   42.0190 O   0  0  0  0  0  0  0  0  0  0  0  0
   48.3680   31.9460   43.1950 O   0  0  0  0  0  0  0  0  0  0  0  0
   47.7940   33.3570   43.3500 P   0  0  1  0  0  0  0  0  0  0  0  0
   49.0800   34.4410   43.1960 O   0  0  0  0  0  0  0  0  0  0  0  0
   48.6890   35.2910   42.8550 H   0  0  0  0  0  0  0  0  0  0  0  0
   47.0360   33.4140   44.8250 O   0  0  0  0  0  0  0  0  0  0  0  0
   45.8820   32.7190   44.8860 C   0  0  0  0  0  2  0  0  0  0  0  0
   45.5810   31.9440   46.0370 N   0  0  0  0  0  4  0  0  0  0  0  0
   44.5250   31.7030   45.9410 H   0  0  0  0  0  0  0  0  0  0  0  0
   46.2200   30.6520   46.1070 C   0  0  0  0  0  2  0  0  0  0  0  0
   46.7670   30.4980   47.0610 H   0  0  0  0  0  0  0  0  0  0  0  0
   45.6690   32.5920   47.3060 C   0  0  0  0  0  2  0  0  0  0  0  0
   46.6090   32.4720   47.8480 H   0  0  0  0  0  0  0  0  0  0  0  0
  1  4  1  1  0  0  0
  1  3  1  0  0  0  0
  2  5  1  0  0  0  0
  2  1  1  0  0  0  0
  2  3  1  0  0  0  0
  3  7  1  6  0  0  0
  3 26  1  0  0  0  0
  6  2  1  0  0  0  0
  8  9  2  0  0  0  0
  8 13  1  0  0  0  0
  9 10  1  0  0  0  0
 10 15  1  0  0  0  0
 10 11  2  0  0  0  0
 11 16  1  0  0  0  0
 12 11  1  0  0  0  0
 12  1  1  0  0  0  0
 13 12  2  0  0  0  0
 14  9  1  0  0  0  0
 17 18  1  0  0  0  0
 18 24  1  0  0  0  0
 18 19  2  0  0  0  0
 19  8  1  0  0  0  0
 20 19  1  0  0  0  0
 21 20  2  0  0  0  0
 22 17  2  0  0  0  0
 22 21  1  0  0  0  0
 23 17  1  0  0  0  0
 25 21  1  0  0  0  0
 26 28  1  0  0  0  0
 28 27  2  6  0  0  0
 28 31  1  0  0  0  0
 29 28  1  0  0  0  0
 30 29  1  0  0  0  0
 31 32  1  0  0  0  0
 32 33  1  0  0  0  0
 33 35  1  0  0  0  0
 33 37  1  0  0  0  0
 34 33  1  0  0  0  0
 35 36  1  0  0  0  0
 37 38  1  0  0  0  0
M  END
>  <minimizedAffinity>
-4.10070419

>  <minimizedRMSD>
9.38081074

$$$$
