
 OpenBabel03242521093D

 38 40  0  0  1  0  0  0  0  0999 V2000
   38.3770   31.4650   39.8990 C   0  0  2  0  0  0  0  0  0  0  0  0
   36.9240   31.3920   39.6520 C   0  0  0  0  0  0  0  0  0  0  0  0
   37.5590   30.8870   40.9500 C   0  0  1  0  0  0  0  0  0  0  0  0
   38.9810   30.7300   39.2850 H   0  0  0  0  0  0  0  0  0  0  0  0
   36.5200   30.5720   39.0260 H   0  0  0  0  0  0  0  0  0  0  0  0
   36.2770   32.2730   39.6510 H   0  0  0  0  0  0  0  0  0  0  0  0
   37.1140   31.4390   41.7870 H   0  0  0  0  0  0  0  0  0  0  0  0
   40.8900   34.1110   40.3930 C   0  0  0  0  0  0  0  0  0  0  0  0
   40.0330   35.1890   40.3670 C   0  0  0  0  0  0  0  0  0  0  0  0
   38.6670   35.1130   40.1940 C   0  0  0  0  0  0  0  0  0  0  0  0
   38.1120   33.8570   40.0340 C   0  0  0  0  0  0  0  0  0  0  0  0
   38.9850   32.8050   40.0650 C   0  0  0  0  0  0  0  0  0  0  0  0
   40.2860   32.9350   40.2320 N   0  0  0  0  0  0  0  0  0  0  0  0
   40.4350   36.1990   40.4900 H   0  0  0  0  0  0  0  0  0  0  0  0
   38.0330   35.9850   40.1810 H   0  0  0  0  0  0  0  0  0  0  0  0
   37.0560   33.7350   39.8960 H   0  0  0  0  0  0  0  0  0  0  0  0
   44.6430   33.9570   40.0260 C   0  0  0  0  0  0  0  0  0  0  0  0
   43.2950   33.7440   39.7180 C   0  0  0  0  0  0  0  0  0  0  0  0
   42.3390   34.2480   40.5770 C   0  0  0  0  0  0  0  0  0  0  0  0
   42.7460   34.9180   41.6670 N   0  0  0  0  0  0  0  0  0  0  0  0
   44.0690   35.1120   41.9440 C   0  0  0  0  0  0  0  0  0  0  0  0
   44.9920   34.6260   41.1160 N   0  0  0  0  0  0  0  0  0  0  0  0
   45.2930   33.5150   39.2790 H   0  0  0  0  0  0  0  0  0  0  0  0
   42.9330   33.2150   38.8600 H   0  0  0  0  0  0  0  0  0  0  0  0
   44.3710   35.6570   42.8310 H   0  0  0  0  0  0  0  0  0  0  0  0
   37.5170   29.4970   41.1460 O   0  0  0  0  0  0  0  0  0  0  0  0
   39.1890   30.0920   42.9840 O   0  0  0  0  0  0  0  0  0  0  0  0
   38.1320   29.0320   42.6610 P   0  0  1  0  0  0  0  0  0  0  0  0
   36.9110   29.1720   43.8190 O   0  0  0  0  0  0  0  0  0  0  0  0
   36.0770   28.8420   43.3870 H   0  0  0  0  0  0  0  0  0  0  0  0
   38.9010   27.5620   42.6660 O   0  0  0  0  0  0  0  0  0  0  0  0
   39.0900   27.0350   43.8930 C   0  0  0  0  0  2  0  0  0  0  0  0
   40.0980   26.0550   44.0980 N   0  0  0  0  0  4  0  0  0  0  0  0
   39.9140   25.6730   45.0980 H   0  0  0  0  0  0  0  0  0  0  0  0
   40.0090   24.8820   43.2620 C   0  0  0  0  0  2  0  0  0  0  0  0
   40.9550   24.6700   42.7240 H   0  0  0  0  0  0  0  0  0  0  0  0
   41.4520   26.5070   44.1490 C   0  0  0  0  0  2  0  0  0  0  0  0
   42.0170   26.4510   43.2180 H   0  0  0  0  0  0  0  0  0  0  0  0
  1  4  1  6  0  0  0
  1 12  1  0  0  0  0
  1  3  1  0  0  0  0
  2  1  1  0  0  0  0
  2  3  1  0  0  0  0
  3 26  1  0  0  0  0
  3  7  1  1  0  0  0
  5  2  1  0  0  0  0
  6  2  1  0  0  0  0
  8 19  1  0  0  0  0
  9  8  1  0  0  0  0
  9 14  1  0  0  0  0
 10  9  2  0  0  0  0
 11 12  2  0  0  0  0
 11 10  1  0  0  0  0
 12 13  1  0  0  0  0
 13  8  2  0  0  0  0
 15 10  1  0  0  0  0
 16 11  1  0  0  0  0
 17 22  1  0  0  0  0
 18 17  2  0  0  0  0
 18 19  1  0  0  0  0
 19 20  2  0  0  0  0
 20 21  1  0  0  0  0
 21 25  1  0  0  0  0
 22 21  2  0  0  0  0
 23 17  1  0  0  0  0
 24 18  1  0  0  0  0
 26 28  1  0  0  0  0
 28 31  1  0  0  0  0
 28 27  2  1  0  0  0
 28 29  1  0  0  0  0
 30 29  1  0  0  0  0
 31 32  1  0  0  0  0
 32 33  1  0  0  0  0
 33 37  1  0  0  0  0
 33 34  1  0  0  0  0
 35 33  1  0  0  0  0
 36 35  1  0  0  0  0
 38 37  1  0  0  0  0
M  END
>  <minimizedAffinity>
-5.82110548

$$$$

 OpenBabel03242521093D

 38 40  0  0  1  0  0  0  0  0999 V2000
   38.8250   28.3860   42.9970 C   0  0  2  0  0  0  0  0  0  0  0  0
   37.5680   28.8300   43.6270 C   0  0  0  0  0  0  0  0  0  0  0  0
   37.8890   29.1100   42.1560 C   0  0  1  0  0  0  0  0  0  0  0  0
   39.7350   28.9690   43.3340 H   0  0  0  0  0  0  0  0  0  0  0  0
   37.5660   29.7480   44.2470 H   0  0  0  0  0  0  0  0  0  0  0  0
   36.7650   28.1400   43.9040 H   0  0  0  0  0  0  0  0  0  0  0  0
   37.1020   28.6560   41.5410 H   0  0  0  0  0  0  0  0  0  0  0  0
   38.5300   24.9640   41.6680 C   0  0  0  0  0  0  0  0  0  0  0  0
   39.4170   24.3530   42.5280 C   0  0  0  0  0  0  0  0  0  0  0  0
   40.1190   24.9910   43.5280 C   0  0  0  0  0  0  0  0  0  0  0  0
   39.9200   26.3500   43.6820 C   0  0  0  0  0  0  0  0  0  0  0  0
   39.0340   26.9310   42.8160 C   0  0  0  0  0  0  0  0  0  0  0  0
   38.3890   26.2720   41.8750 N   0  0  0  0  0  0  0  0  0  0  0  0
   39.6010   23.2790   42.4360 H   0  0  0  0  0  0  0  0  0  0  0  0
   40.8050   24.4720   44.1790 H   0  0  0  0  0  0  0  0  0  0  0  0
   40.4380   26.9000   44.4430 H   0  0  0  0  0  0  0  0  0  0  0  0
   37.5880   22.8840   38.6640 C   0  0  0  0  0  0  0  0  0  0  0  0
   38.4090   23.5290   39.5950 C   0  0  0  0  0  0  0  0  0  0  0  0
   37.8100   24.2370   40.6170 C   0  0  0  0  0  0  0  0  0  0  0  0
   36.4690   24.2750   40.6690 N   0  0  0  0  0  0  0  0  0  0  0  0
   35.6900   23.6350   39.7480 C   0  0  0  0  0  0  0  0  0  0  0  0
   36.2680   22.9520   38.7620 N   0  0  0  0  0  0  0  0  0  0  0  0
   38.1750   22.3630   37.9140 H   0  0  0  0  0  0  0  0  0  0  0  0
   39.4810   23.5210   39.5840 H   0  0  0  0  0  0  0  0  0  0  0  0
   34.6100   23.6820   39.8140 H   0  0  0  0  0  0  0  0  0  0  0  0
   38.1090   30.4580   41.8290 O   0  0  0  0  0  0  0  0  0  0  0  0
   37.2750   30.2430   39.4230 O   0  0  0  0  0  0  0  0  0  0  0  0
   36.9880   31.0460   40.6950 P   0  0  1  0  0  0  0  0  0  0  0  0
   35.4280   30.6420   41.2000 O   0  0  0  0  0  0  0  0  0  0  0  0
   35.4090   30.7820   42.1860 H   0  0  0  0  0  0  0  0  0  0  0  0
   37.1790   32.6480   40.3100 O   0  0  0  0  0  0  0  0  0  0  0  0
   38.0180   32.8790   39.2800 C   0  0  0  0  0  2  0  0  0  0  0  0
   39.1720   33.6850   39.4720 N   0  0  0  0  0  4  0  0  0  0  0  0
   39.4280   34.0430   38.4780 H   0  0  0  0  0  0  0  0  0  0  0  0
   38.9710   34.8950   40.2310 C   0  0  0  0  0  2  0  0  0  0  0  0
   39.6770   34.9870   41.0810 H   0  0  0  0  0  0  0  0  0  0  0  0
   40.3630   33.0330   39.9150 C   0  0  0  0  0  2  0  0  0  0  0  0
   40.5510   33.0460   40.9900 H   0  0  0  0  0  0  0  0  0  0  0  0
  1  4  1  1  0  0  0
  1  2  1  0  0  0  0
  2  6  1  0  0  0  0
  2  5  1  0  0  0  0
  3  7  1  6  0  0  0
  3  1  1  0  0  0  0
  3  2  1  0  0  0  0
  8 13  2  0  0  0  0
  8  9  1  0  0  0  0
  9 10  2  0  0  0  0
 10 11  1  0  0  0  0
 10 15  1  0  0  0  0
 11 16  1  0  0  0  0
 12  1  1  0  0  0  0
 12 11  2  0  0  0  0
 13 12  1  0  0  0  0
 14  9  1  0  0  0  0
 17 22  2  0  0  0  0
 17 18  1  0  0  0  0
 18 19  2  0  0  0  0
 19 20  1  0  0  0  0
 19  8  1  0  0  0  0
 21 25  1  0  0  0  0
 21 20  2  0  0  0  0
 22 21  1  0  0  0  0
 23 17  1  0  0  0  0
 24 18  1  0  0  0  0
 26  3  1  0  0  0  0
 28 27  2  6  0  0  0
 28 29  1  0  0  0  0
 28 26  1  0  0  0  0
 29 30  1  0  0  0  0
 31 28  1  0  0  0  0
 32 33  1  0  0  0  0
 32 31  1  0  0  0  0
 33 37  1  0  0  0  0
 33 35  1  0  0  0  0
 34 33  1  0  0  0  0
 35 36  1  0  0  0  0
 37 38  1  0  0  0  0
M  END
>  <minimizedAffinity>
-5.60309219

$$$$

 OpenBabel03242521093D

 38 40  0  0  1  0  0  0  0  0999 V2000
   39.4410   29.8370   41.8100 C   0  0  2  0  0  0  0  0  0  0  0  0
   39.9590   30.7650   42.8320 C   0  0  0  0  0  0  0  0  0  0  0  0
   39.0280   31.2240   41.7070 C   0  0  1  0  0  0  0  0  0  0  0  0
   40.2220   29.4990   41.0630 H   0  0  0  0  0  0  0  0  0  0  0  0
   40.9860   31.1680   42.7290 H   0  0  0  0  0  0  0  0  0  0  0  0
   39.6190   30.7550   43.8720 H   0  0  0  0  0  0  0  0  0  0  0  0
   38.1280   31.6570   42.1620 H   0  0  0  0  0  0  0  0  0  0  0  0
   37.2580   26.8710   41.7460 C   0  0  0  0  0  0  0  0  0  0  0  0
   36.7780   26.9660   43.0340 C   0  0  0  0  0  0  0  0  0  0  0  0
   37.1230   27.9460   43.9400 C   0  0  0  0  0  0  0  0  0  0  0  0
   38.0230   28.9110   43.5250 C   0  0  0  0  0  0  0  0  0  0  0  0
   38.4830   28.7930   42.2430 C   0  0  0  0  0  0  0  0  0  0  0  0
   38.1190   27.8320   41.4180 N   0  0  0  0  0  0  0  0  0  0  0  0
   36.0650   26.2200   43.3980 H   0  0  0  0  0  0  0  0  0  0  0  0
   36.7220   27.9810   44.9400 H   0  0  0  0  0  0  0  0  0  0  0  0
   38.3290   29.6980   44.1860 H   0  0  0  0  0  0  0  0  0  0  0  0
   36.4090   23.5570   40.1520 C   0  0  0  0  0  0  0  0  0  0  0  0
   36.8130   24.4600   41.1420 C   0  0  0  0  0  0  0  0  0  0  0  0
   36.8590   25.8030   40.8230 C   0  0  0  0  0  0  0  0  0  0  0  0
   36.5170   26.1790   39.5800 N   0  0  0  0  0  0  0  0  0  0  0  0
   36.1260   25.2760   38.6330 C   0  0  0  0  0  0  0  0  0  0  0  0
   36.0810   23.9810   38.9400 N   0  0  0  0  0  0  0  0  0  0  0  0
   36.4140   22.5380   40.5240 H   0  0  0  0  0  0  0  0  0  0  0  0
   37.0930   24.1980   42.1420 H   0  0  0  0  0  0  0  0  0  0  0  0
   35.8540   25.6060   37.6380 H   0  0  0  0  0  0  0  0  0  0  0  0
   39.6040   32.0780   40.7520 O   0  0  0  0  0  0  0  0  0  0  0  0
   38.4690   32.4710   38.4970 O   0  0  0  0  0  0  0  0  0  0  0  0
   38.4480   33.0130   39.9290 P   0  0  1  0  0  0  0  0  0  0  0  0
   36.9190   32.6860   40.5660 O   0  0  0  0  0  0  0  0  0  0  0  0
   37.0370   32.6140   41.5520 H   0  0  0  0  0  0  0  0  0  0  0  0
   38.8100   34.6300   39.8420 O   0  0  0  0  0  0  0  0  0  0  0  0
   39.9300   34.9870   40.5040 C   0  0  0  0  0  2  0  0  0  0  0  0
   41.1880   34.4620   40.1050 N   0  0  0  0  0  4  0  0  0  0  0  0
   41.0230   33.3930   40.0050 H   0  0  0  0  0  0  0  0  0  0  0  0
   41.6470   34.8610   38.7960 C   0  0  0  0  0  2  0  0  0  0  0  0
   42.6690   35.2920   38.8160 H   0  0  0  0  0  0  0  0  0  0  0  0
   42.2650   34.5550   41.0390 C   0  0  0  0  0  2  0  0  0  0  0  0
   42.9310   35.4110   40.9270 H   0  0  0  0  0  0  0  0  0  0  0  0
  1  4  1  6  0  0  0
  1 12  1  0  0  0  0
  1  2  1  0  0  0  0
  2  6  1  0  0  0  0
  3  1  1  0  0  0  0
  3  7  1  1  0  0  0
  3  2  1  0  0  0  0
  5  2  1  0  0  0  0
  8  9  1  0  0  0  0
  9 14  1  0  0  0  0
  9 10  2  0  0  0  0
 10 15  1  0  0  0  0
 11 10  1  0  0  0  0
 11 16  1  0  0  0  0
 12 11  2  0  0  0  0
 13  8  2  0  0  0  0
 13 12  1  0  0  0  0
 17 23  1  0  0  0  0
 17 18  1  0  0  0  0
 18 24  1  0  0  0  0
 19 18  2  0  0  0  0
 19  8  1  0  0  0  0
 20 19  1  0  0  0  0
 21 22  1  0  0  0  0
 21 20  2  0  0  0  0
 22 17  2  0  0  0  0
 25 21  1  0  0  0  0
 26  3  1  0  0  0  0
 28 27  2  6  0  0  0
 28 29  1  0  0  0  0
 28 26  1  0  0  0  0
 29 30  1  0  0  0  0
 31 28  1  0  0  0  0
 31 32  1  0  0  0  0
 33 32  1  0  0  0  0
 33 37  1  0  0  0  0
 34 33  1  0  0  0  0
 35 36  1  0  0  0  0
 35 33  1  0  0  0  0
 38 37  1  0  0  0  0
M  END
>  <minimizedAffinity>
-5.53748274

$$$$

 OpenBabel03242521093D

 38 40  0  0  1  0  0  0  0  0999 V2000
   36.4380   28.8810   39.8240 C   0  0  2  0  0  0  0  0  0  0  0  0
   35.0650   29.0710   40.3280 C   0  0  0  0  0  0  0  0  0  0  0  0
   36.2830   29.0680   41.2550 C   0  0  1  0  0  0  0  0  0  0  0  0
   36.6580   27.8230   39.4870 H   0  0  0  0  0  0  0  0  0  0  0  0
   34.4130   28.1870   40.4740 H   0  0  0  0  0  0  0  0  0  0  0  0
   34.4910   29.9870   40.1580 H   0  0  0  0  0  0  0  0  0  0  0  0
   36.3170   30.0320   41.7790 H   0  0  0  0  0  0  0  0  0  0  0  0
   38.2620   31.9190   38.8180 C   0  0  0  0  0  0  0  0  0  0  0  0
   38.0320   31.8330   37.4620 C   0  0  0  0  0  0  0  0  0  0  0  0
   37.3120   30.8350   36.8400 C   0  0  0  0  0  0  0  0  0  0  0  0
   36.7780   29.8400   37.6380 C   0  0  0  0  0  0  0  0  0  0  0  0
   37.0210   29.9500   38.9800 C   0  0  0  0  0  0  0  0  0  0  0  0
   37.7190   30.9270   39.5220 N   0  0  0  0  0  0  0  0  0  0  0  0
   38.4390   32.6020   36.7980 H   0  0  0  0  0  0  0  0  0  0  0  0
   37.1570   30.8080   35.7740 H   0  0  0  0  0  0  0  0  0  0  0  0
   36.2090   29.0380   37.2110 H   0  0  0  0  0  0  0  0  0  0  0  0
   41.0180   34.1410   40.1230 C   0  0  0  0  0  0  0  0  0  0  0  0
   40.4170   33.0350   39.5120 C   0  0  0  0  0  0  0  0  0  0  0  0
   39.0390   33.0020   39.4280 C   0  0  0  0  0  0  0  0  0  0  0  0
   38.3420   34.0300   39.9370 N   0  0  0  0  0  0  0  0  0  0  0  0
   38.9540   35.0980   40.5290 C   0  0  0  0  0  0  0  0  0  0  0  0
   40.2830   35.1300   40.6090 N   0  0  0  0  0  0  0  0  0  0  0  0
   42.1000   34.0500   40.1270 H   0  0  0  0  0  0  0  0  0  0  0  0
   40.9400   32.1980   39.0950 H   0  0  0  0  0  0  0  0  0  0  0  0
   38.3670   35.9150   40.9320 H   0  0  0  0  0  0  0  0  0  0  0  0
   36.3720   27.9790   42.1370 O   0  0  0  0  0  0  0  0  0  0  0  0
   38.2320   29.5130   42.9860 O   0  0  0  0  0  0  0  0  0  0  0  0
   37.4630   28.2580   43.4110 P   0  0  1  0  0  0  0  0  0  0  0  0
   36.5940   28.6520   44.8050 O   0  0  0  0  0  0  0  0  0  0  0  0
   35.8020   28.0490   44.8190 H   0  0  0  0  0  0  0  0  0  0  0  0
   38.5820   27.0540   43.6310 O   0  0  0  0  0  0  0  0  0  0  0  0
   39.5580   27.0230   42.7010 C   0  0  0  0  0  2  0  0  0  0  0  0
   39.2240   27.0460   41.3210 N   0  0  0  0  0  4  0  0  0  0  0  0
   38.2810   27.5820   41.2730 H   0  0  0  0  0  0  0  0  0  0  0  0
   40.1020   27.8200   40.4760 C   0  0  0  0  0  2  0  0  0  0  0  0
   40.4840   27.2390   39.6120 H   0  0  0  0  0  0  0  0  0  0  0  0
   38.9370   25.7940   40.6940 C   0  0  0  0  0  2  0  0  0  0  0  0
   39.7640   25.3130   40.1710 H   0  0  0  0  0  0  0  0  0  0  0  0
  1  4  1  6  0  0  0
  1  2  1  0  0  0  0
  1  3  1  0  0  0  0
  2  5  1  0  0  0  0
  2  3  1  0  0  0  0
  3  7  1  1  0  0  0
  3 26  1  0  0  0  0
  6  2  1  0  0  0  0
  8 19  1  0  0  0  0
  8 13  1  0  0  0  0
  9  8  2  0  0  0  0
 10  9  1  0  0  0  0
 10 11  2  0  0  0  0
 11 12  1  0  0  0  0
 12 13  2  0  0  0  0
 12  1  1  0  0  0  0
 14  9  1  0  0  0  0
 15 10  1  0  0  0  0
 16 11  1  0  0  0  0
 17 23  1  0  0  0  0
 17 22  1  0  0  0  0
 18 17  2  0  0  0  0
 19 18  1  0  0  0  0
 19 20  2  0  0  0  0
 20 21  1  0  0  0  0
 21 22  2  0  0  0  0
 21 25  1  0  0  0  0
 24 18  1  0  0  0  0
 26 28  1  0  0  0  0
 28 27  2  6  0  0  0
 28 31  1  0  0  0  0
 28 29  1  0  0  0  0
 29 30  1  0  0  0  0
 32 31  1  0  0  0  0
 33 32  1  0  0  0  0
 34 33  1  0  0  0  0
 35 33  1  0  0  0  0
 36 35  1  0  0  0  0
 37 33  1  0  0  0  0
 38 37  1  0  0  0  0
M  END
>  <minimizedAffinity>
-5.53059816

$$$$

 OpenBabel03242521093D

 38 40  0  0  1  0  0  0  0  0999 V2000
   36.7100   30.2790   41.6360 C   0  0  2  0  0  0  0  0  0  0  0  0
   35.9220   30.2560   40.3890 C   0  0  0  0  0  0  0  0  0  0  0  0
   37.2720   30.9710   40.4910 C   0  0  1  0  0  0  0  0  0  0  0  0
   36.2690   30.9390   42.4420 H   0  0  0  0  0  0  0  0  0  0  0  0
   35.0740   30.9590   40.2700 H   0  0  0  0  0  0  0  0  0  0  0  0
   35.8080   29.3590   39.7740 H   0  0  0  0  0  0  0  0  0  0  0  0
   37.9500   30.5300   39.7490 H   0  0  0  0  0  0  0  0  0  0  0  0
   39.1350   27.8280   42.9330 C   0  0  0  0  0  0  0  0  0  0  0  0
   38.3050   26.7270   42.9330 C   0  0  0  0  0  0  0  0  0  0  0  0
   36.9850   26.7290   42.5350 C   0  0  0  0  0  0  0  0  0  0  0  0
   36.4490   27.9270   42.1010 C   0  0  0  0  0  0  0  0  0  0  0  0
   37.2950   29.0030   42.1100 C   0  0  0  0  0  0  0  0  0  0  0  0
   38.5510   28.9450   42.5030 N   0  0  0  0  0  0  0  0  0  0  0  0
   38.6930   25.7620   43.2710 H   0  0  0  0  0  0  0  0  0  0  0  0
   36.3710   25.8420   42.5520 H   0  0  0  0  0  0  0  0  0  0  0  0
   35.4280   27.9900   41.7790 H   0  0  0  0  0  0  0  0  0  0  0  0
   42.4240   26.8700   44.5140 C   0  0  0  0  0  0  0  0  0  0  0  0
   41.0680   26.7900   44.1810 C   0  0  0  0  0  0  0  0  0  0  0  0
   40.5330   27.7720   43.3710 C   0  0  0  0  0  0  0  0  0  0  0  0
   41.3380   28.7560   42.9410 N   0  0  0  0  0  0  0  0  0  0  0  0
   42.6600   28.8100   43.2810 C   0  0  0  0  0  0  0  0  0  0  0  0
   43.1760   27.8630   44.0620 N   0  0  0  0  0  0  0  0  0  0  0  0
   42.7230   26.0440   45.1520 H   0  0  0  0  0  0  0  0  0  0  0  0
   40.3950   26.0210   44.5050 H   0  0  0  0  0  0  0  0  0  0  0  0
   43.2880   29.6160   42.9200 H   0  0  0  0  0  0  0  0  0  0  0  0
   37.2260   32.3720   40.4030 O   0  0  0  0  0  0  0  0  0  0  0  0
   39.7140   32.2440   40.9720 O   0  0  0  0  0  0  0  0  0  0  0  0
   38.7520   33.0580   40.1020 P   0  0  1  0  0  0  0  0  0  0  0  0
   39.1750   32.7790   38.4910 O   0  0  0  0  0  0  0  0  0  0  0  0
   38.3450   32.9120   37.9580 H   0  0  0  0  0  0  0  0  0  0  0  0
   38.8950   34.6420   40.5720 O   0  0  0  0  0  0  0  0  0  0  0  0
   39.9220   35.3040   40.0010 C   0  0  0  0  0  2  0  0  0  0  0  0
   41.2010   34.6910   39.9170 N   0  0  0  0  0  4  0  0  0  0  0  0
   41.0010   33.6250   39.9640 H   0  0  0  0  0  0  0  0  0  0  0  0
   41.8930   34.8550   38.6620 C   0  0  0  0  0  2  0  0  0  0  0  0
   42.9180   35.2600   38.7890 H   0  0  0  0  0  0  0  0  0  0  0  0
   42.1080   34.9160   40.9980 C   0  0  0  0  0  2  0  0  0  0  0  0
   42.8270   35.7260   40.8670 H   0  0  0  0  0  0  0  0  0  0  0  0
  1 12  1  0  0  0  0
  1  4  1  1  0  0  0
  2  3  1  0  0  0  0
  2  1  1  0  0  0  0
  3  7  1  6  0  0  0
  3  1  1  0  0  0  0
  5  2  1  0  0  0  0
  6  2  1  0  0  0  0
  8 19  1  0  0  0  0
  9  8  1  0  0  0  0
  9 14  1  0  0  0  0
 10 15  1  0  0  0  0
 10  9  2  0  0  0  0
 11 12  2  0  0  0  0
 11 10  1  0  0  0  0
 12 13  1  0  0  0  0
 13  8  2  0  0  0  0
 16 11  1  0  0  0  0
 17 23  1  0  0  0  0
 18 24  1  0  0  0  0
 18 17  1  0  0  0  0
 19 18  2  0  0  0  0
 20 21  2  0  0  0  0
 20 19  1  0  0  0  0
 21 22  1  0  0  0  0
 22 17  2  0  0  0  0
 25 21  1  0  0  0  0
 26  3  1  0  0  0  0
 28 26  1  0  0  0  0
 28 31  1  0  0  0  0
 28 27  2  1  0  0  0
 29 28  1  0  0  0  0
 30 29  1  0  0  0  0
 32 31  1  0  0  0  0
 33 34  1  0  0  0  0
 33 32  1  0  0  0  0
 33 37  1  0  0  0  0
 35 36  1  0  0  0  0
 35 33  1  0  0  0  0
 38 37  1  0  0  0  0
M  END
>  <minimizedAffinity>
-5.52884197

$$$$

 OpenBabel03242521093D

 38 40  0  0  1  0  0  0  0  0999 V2000
   37.6330   30.6740   41.0070 C   0  0  2  0  0  0  0  0  0  0  0  0
   36.3060   31.2040   40.6410 C   0  0  0  0  0  0  0  0  0  0  0  0
   37.3590   30.8390   39.5910 C   0  0  1  0  0  0  0  0  0  0  0  0
   38.3210   31.4460   41.4670 H   0  0  0  0  0  0  0  0  0  0  0  0
   36.1210   32.2940   40.7010 H   0  0  0  0  0  0  0  0  0  0  0  0
   35.3860   30.6200   40.7380 H   0  0  0  0  0  0  0  0  0  0  0  0
   36.9330   30.0730   38.9310 H   0  0  0  0  0  0  0  0  0  0  0  0
   37.3310   27.0280   41.4260 C   0  0  0  0  0  0  0  0  0  0  0  0
   37.8160   26.9470   42.7130 C   0  0  0  0  0  0  0  0  0  0  0  0
   38.2450   28.0190   43.4680 C   0  0  0  0  0  0  0  0  0  0  0  0
   38.1840   29.2730   42.8890 C   0  0  0  0  0  0  0  0  0  0  0  0
   37.6990   29.3240   41.6120 C   0  0  0  0  0  0  0  0  0  0  0  0
   37.3030   28.2650   40.9350 N   0  0  0  0  0  0  0  0  0  0  0  0
   37.8790   25.9720   43.2040 H   0  0  0  0  0  0  0  0  0  0  0  0
   38.6180   27.9090   44.4730 H   0  0  0  0  0  0  0  0  0  0  0  0
   38.5040   30.1440   43.4280 H   0  0  0  0  0  0  0  0  0  0  0  0
   36.4240   23.5410   40.3030 C   0  0  0  0  0  0  0  0  0  0  0  0
   36.8740   24.5600   41.1490 C   0  0  0  0  0  0  0  0  0  0  0  0
   36.8900   25.8540   40.6650 C   0  0  0  0  0  0  0  0  0  0  0  0
   36.4750   26.0720   39.4070 N   0  0  0  0  0  0  0  0  0  0  0  0
   36.0400   25.0590   38.6020 C   0  0  0  0  0  0  0  0  0  0  0  0
   36.0230   23.8110   39.0690 N   0  0  0  0  0  0  0  0  0  0  0  0
   36.4580   22.5750   40.7960 H   0  0  0  0  0  0  0  0  0  0  0  0
   37.2120   24.4240   42.1560 H   0  0  0  0  0  0  0  0  0  0  0  0
   35.7100   25.2630   37.5910 H   0  0  0  0  0  0  0  0  0  0  0  0
   37.9000   31.9190   38.8740 O   0  0  0  0  0  0  0  0  0  0  0  0
   39.4730   30.0970   38.0150 O   0  0  0  0  0  0  0  0  0  0  0  0
   39.4690   31.6020   38.3020 P   0  0  1  0  0  0  0  0  0  0  0  0
   39.6890   32.3930   36.8260 O   0  0  0  0  0  0  0  0  0  0  0  0
   39.2570   33.2850   36.9210 H   0  0  0  0  0  0  0  0  0  0  0  0
   40.6720   31.8890   39.4070 O   0  0  0  0  0  0  0  0  0  0  0  0
   40.4780   32.9820   40.1720 C   0  0  0  0  0  2  0  0  0  0  0  0
   40.1070   34.2130   39.5690 N   0  0  0  0  0  4  0  0  0  0  0  0
   39.6700   33.9340   38.6150 H   0  0  0  0  0  0  0  0  0  0  0  0
   39.0500   34.9410   40.2300 C   0  0  0  0  0  2  0  0  0  0  0  0
   39.3310   35.9900   40.4550 H   0  0  0  0  0  0  0  0  0  0  0  0
   41.1570   35.1130   39.2120 C   0  0  0  0  0  2  0  0  0  0  0  0
   41.3960   35.8920   39.9370 H   0  0  0  0  0  0  0  0  0  0  0  0
  1  4  1  1  0  0  0
  1 12  1  0  0  0  0
  2  5  1  0  0  0  0
  2  6  1  0  0  0  0
  2  1  1  0  0  0  0
  3  7  1  6  0  0  0
  3  2  1  0  0  0  0
  3  1  1  0  0  0  0
  8  9  1  0  0  0  0
  9 14  1  0  0  0  0
  9 10  2  0  0  0  0
 10 15  1  0  0  0  0
 11 16  1  0  0  0  0
 11 10  1  0  0  0  0
 12 11  2  0  0  0  0
 13  8  2  0  0  0  0
 13 12  1  0  0  0  0
 17 23  1  0  0  0  0
 17 18  1  0  0  0  0
 18 24  1  0  0  0  0
 19 18  2  0  0  0  0
 19  8  1  0  0  0  0
 20 19  1  0  0  0  0
 21 22  1  0  0  0  0
 21 20  2  0  0  0  0
 22 17  2  0  0  0  0
 25 21  1  0  0  0  0
 26  3  1  0  0  0  0
 28 27  2  6  0  0  0
 28 26  1  0  0  0  0
 28 31  1  0  0  0  0
 29 30  1  0  0  0  0
 29 28  1  0  0  0  0
 31 32  1  0  0  0  0
 33 32  1  0  0  0  0
 33 35  1  0  0  0  0
 34 33  1  0  0  0  0
 35 36  1  0  0  0  0
 37 33  1  0  0  0  0
 37 38  1  0  0  0  0
M  END
>  <minimizedAffinity>
-5.51450968

$$$$

 OpenBabel03242521093D

 38 40  0  0  1  0  0  0  0  0999 V2000
   38.2810   27.9870   43.3380 C   0  0  2  0  0  0  0  0  0  0  0  0
   36.9930   28.1740   44.0320 C   0  0  0  0  0  0  0  0  0  0  0  0
   37.2100   28.6080   42.5800 C   0  0  1  0  0  0  0  0  0  0  0  0
   39.0980   28.6840   43.6970 H   0  0  0  0  0  0  0  0  0  0  0  0
   36.8670   29.0310   44.7220 H   0  0  0  0  0  0  0  0  0  0  0  0
   36.3230   27.3430   44.2740 H   0  0  0  0  0  0  0  0  0  0  0  0
   36.4840   28.0780   41.9520 H   0  0  0  0  0  0  0  0  0  0  0  0
   38.3620   24.5970   41.9000 C   0  0  0  0  0  0  0  0  0  0  0  0
   39.4990   24.1510   42.5380 C   0  0  0  0  0  0  0  0  0  0  0  0
   40.2570   24.8930   43.4200 C   0  0  0  0  0  0  0  0  0  0  0  0
   39.8450   26.1860   43.6850 C   0  0  0  0  0  0  0  0  0  0  0  0
   38.7140   26.6020   43.0390 C   0  0  0  0  0  0  0  0  0  0  0  0
   38.0270   25.8500   42.2040 N   0  0  0  0  0  0  0  0  0  0  0  0
   39.8550   23.1340   42.3530 H   0  0  0  0  0  0  0  0  0  0  0  0
   41.1410   24.5030   43.8970 H   0  0  0  0  0  0  0  0  0  0  0  0
   40.3950   26.8100   44.3620 H   0  0  0  0  0  0  0  0  0  0  0  0
   35.7360   23.1920   39.5830 C   0  0  0  0  0  0  0  0  0  0  0  0
   36.3460   24.0870   40.4680 C   0  0  0  0  0  0  0  0  0  0  0  0
   37.5930   23.7660   40.9680 C   0  0  0  0  0  0  0  0  0  0  0  0
   38.1600   22.6130   40.5810 N   0  0  0  0  0  0  0  0  0  0  0  0
   37.5430   21.7570   39.7150 C   0  0  0  0  0  0  0  0  0  0  0  0
   36.3400   22.0660   39.2330 N   0  0  0  0  0  0  0  0  0  0  0  0
   34.7650   23.5540   39.2630 H   0  0  0  0  0  0  0  0  0  0  0  0
   35.9250   25.0150   40.7990 H   0  0  0  0  0  0  0  0  0  0  0  0
   38.0240   20.8320   39.4190 H   0  0  0  0  0  0  0  0  0  0  0  0
   37.1990   29.9940   42.3540 O   0  0  0  0  0  0  0  0  0  0  0  0
   35.3450   29.6620   40.6260 O   0  0  0  0  0  0  0  0  0  0  0  0
   36.6810   30.3950   40.7850 P   0  0  1  0  0  0  0  0  0  0  0  0
   36.3550   32.0510   40.7180 O   0  0  0  0  0  0  0  0  0  0  0  0
   37.0740   32.4980   41.2410 H   0  0  0  0  0  0  0  0  0  0  0  0
   37.6780   29.8540   39.5750 O   0  0  0  0  0  0  0  0  0  0  0  0
   37.5320   30.5010   38.4000 C   0  0  0  0  0  2  0  0  0  0  0  0
   37.2220   29.7700   37.2220 N   0  0  0  0  0  4  0  0  0  0  0  0
   37.3440   30.4850   36.4130 H   0  0  0  0  0  0  0  0  0  0  0  0
   38.1390   28.7090   36.8830 C   0  0  0  0  0  2  0  0  0  0  0  0
   37.6280   27.7370   36.7280 H   0  0  0  0  0  0  0  0  0  0  0  0
   35.8780   29.3090   37.0700 C   0  0  0  0  0  2  0  0  0  0  0  0
   35.6770   28.2860   37.3890 H   0  0  0  0  0  0  0  0  0  0  0  0
  1  4  1  1  0  0  0
  1  2  1  0  0  0  0
  2  6  1  0  0  0  0
  2  5  1  0  0  0  0
  3  7  1  6  0  0  0
  3  1  1  0  0  0  0
  3  2  1  0  0  0  0
  8 13  2  0  0  0  0
  8  9  1  0  0  0  0
  9 10  2  0  0  0  0
 10 11  1  0  0  0  0
 10 15  1  0  0  0  0
 11 16  1  0  0  0  0
 12  1  1  0  0  0  0
 12 11  2  0  0  0  0
 13 12  1  0  0  0  0
 14  9  1  0  0  0  0
 17 18  1  0  0  0  0
 18 24  1  0  0  0  0
 18 19  2  0  0  0  0
 19  8  1  0  0  0  0
 20 19  1  0  0  0  0
 21 20  2  0  0  0  0
 22 17  2  0  0  0  0
 22 21  1  0  0  0  0
 23 17  1  0  0  0  0
 25 21  1  0  0  0  0
 26  3  1  0  0  0  0
 28 27  2  6  0  0  0
 28 26  1  0  0  0  0
 29 28  1  0  0  0  0
 29 30  1  0  0  0  0
 31 28  1  0  0  0  0
 32 31  1  0  0  0  0
 33 32  1  0  0  0  0
 34 33  1  0  0  0  0
 35 33  1  0  0  0  0
 36 35  1  0  0  0  0
 37 33  1  0  0  0  0
 37 38  1  0  0  0  0
M  END
>  <minimizedAffinity>
-5.46534443

$$$$

 OpenBabel03242521093D

 38 40  0  0  1  0  0  0  0  0999 V2000
   37.1250   27.6820   42.7330 C   0  0  2  0  0  0  0  0  0  0  0  0
   36.9380   27.9780   44.1660 C   0  0  0  0  0  0  0  0  0  0  0  0
   38.3190   27.7210   43.5580 C   0  0  1  0  0  0  0  0  0  0  0  0
   36.7700   26.6510   42.4300 H   0  0  0  0  0  0  0  0  0  0  0  0
   36.6130   27.1680   44.8490 H   0  0  0  0  0  0  0  0  0  0  0  0
   36.6650   28.9700   44.5370 H   0  0  0  0  0  0  0  0  0  0  0  0
   38.9420   28.6060   43.7370 H   0  0  0  0  0  0  0  0  0  0  0  0
   37.4620   30.7920   40.7890 C   0  0  0  0  0  0  0  0  0  0  0  0
   36.3150   30.6650   40.0350 C   0  0  0  0  0  0  0  0  0  0  0  0
   35.4240   29.6160   40.1160 C   0  0  0  0  0  0  0  0  0  0  0  0
   35.7010   28.6110   41.0250 C   0  0  0  0  0  0  0  0  0  0  0  0
   36.8440   28.7630   41.7590 C   0  0  0  0  0  0  0  0  0  0  0  0
   37.6630   29.7880   41.6400 N   0  0  0  0  0  0  0  0  0  0  0  0
   36.0630   31.4410   39.3050 H   0  0  0  0  0  0  0  0  0  0  0  0
   34.5370   29.5580   39.5050 H   0  0  0  0  0  0  0  0  0  0  0  0
   35.0440   27.7700   41.1320 H   0  0  0  0  0  0  0  0  0  0  0  0
   40.4940   33.0340   40.6630 C   0  0  0  0  0  0  0  0  0  0  0  0
   39.7490   31.8610   40.8190 C   0  0  0  0  0  0  0  0  0  0  0  0
   38.3790   31.9290   40.6600 C   0  0  0  0  0  0  0  0  0  0  0  0
   37.8270   33.1170   40.3640 N   0  0  0  0  0  0  0  0  0  0  0  0
   38.5790   34.2480   40.2170 C   0  0  0  0  0  0  0  0  0  0  0  0
   39.9000   34.1820   40.3700 N   0  0  0  0  0  0  0  0  0  0  0  0
   41.5540   32.8510   40.8120 H   0  0  0  0  0  0  0  0  0  0  0  0
   40.1530   30.8970   41.0550 H   0  0  0  0  0  0  0  0  0  0  0  0
   38.1080   35.1940   39.9780 H   0  0  0  0  0  0  0  0  0  0  0  0
   38.9500   26.5340   43.9660 O   0  0  0  0  0  0  0  0  0  0  0  0
   40.7330   27.6230   42.4950 O   0  0  0  0  0  0  0  0  0  0  0  0
   40.5760   26.4570   43.4760 P   0  0  1  0  0  0  0  0  0  0  0  0
   41.5690   26.7810   44.8030 O   0  0  0  0  0  0  0  0  0  0  0  0
   41.1570   26.3140   45.5800 H   0  0  0  0  0  0  0  0  0  0  0  0
   40.9790   25.0740   42.6540 O   0  0  0  0  0  0  0  0  0  0  0  0
   40.4840   25.0060   41.4010 C   0  0  0  0  0  2  0  0  0  0  0  0
   39.0970   25.2080   41.1740 N   0  0  0  0  0  4  0  0  0  0  0  0
   38.7980   25.9390   41.9190 H   0  0  0  0  0  0  0  0  0  0  0  0
   38.7520   25.8350   39.9210 C   0  0  0  0  0  2  0  0  0  0  0  0
   38.0040   25.2540   39.3450 H   0  0  0  0  0  0  0  0  0  0  0  0
   38.2240   24.1020   41.4120 C   0  0  0  0  0  2  0  0  0  0  0  0
   37.9650   23.4930   40.5450 H   0  0  0  0  0  0  0  0  0  0  0  0
  1  4  1  6  0  0  0
  1  3  1  0  0  0  0
  1  2  1  0  0  0  0
  2  6  1  0  0  0  0
  2  5  1  0  0  0  0
  3  7  1  6  0  0  0
  3 26  1  0  0  0  0
  3  2  1  0  0  0  0
  8 13  1  0  0  0  0
  9 10  1  0  0  0  0
  9  8  2  0  0  0  0
 10 11  2  0  0  0  0
 11 16  1  0  0  0  0
 11 12  1  0  0  0  0
 12  1  1  0  0  0  0
 13 12  2  0  0  0  0
 14  9  1  0  0  0  0
 15 10  1  0  0  0  0
 17 23  1  0  0  0  0
 17 18  1  0  0  0  0
 18 24  1  0  0  0  0
 19  8  1  0  0  0  0
 19 18  2  0  0  0  0
 20 19  1  0  0  0  0
 21 20  2  0  0  0  0
 21 22  1  0  0  0  0
 22 17  2  0  0  0  0
 25 21  1  0  0  0  0
 28 27  2  6  0  0  0
 28 26  1  0  0  0  0
 28 29  1  0  0  0  0
 29 30  1  0  0  0  0
 31 28  1  0  0  0  0
 32 31  1  0  0  0  0
 33 32  1  0  0  0  0
 33 37  1  0  0  0  0
 33 34  1  0  0  0  0
 35 33  1  0  0  0  0
 36 35  1  0  0  0  0
 38 37  1  0  0  0  0
M  END
>  <minimizedAffinity>
-5.45082235

$$$$

 OpenBabel03242521093D

 38 40  0  0  1  0  0  0  0  0999 V2000
   38.1870   31.6590   39.7950 C   0  0  2  0  0  0  0  0  0  0  0  0
   36.7490   31.6720   40.1240 C   0  0  0  0  0  0  0  0  0  0  0  0
   37.7820   30.9630   41.0030 C   0  0  1  0  0  0  0  0  0  0  0  0
   38.4470   31.0000   38.9120 H   0  0  0  0  0  0  0  0  0  0  0  0
   36.0680   30.9670   39.6100 H   0  0  0  0  0  0  0  0  0  0  0  0
   36.2300   32.5670   40.4800 H   0  0  0  0  0  0  0  0  0  0  0  0
   37.7380   31.4030   42.0080 H   0  0  0  0  0  0  0  0  0  0  0  0
   40.9610   34.0810   39.8030 C   0  0  0  0  0  0  0  0  0  0  0  0
   40.2140   35.2190   40.0250 C   0  0  0  0  0  0  0  0  0  0  0  0
   38.8440   35.2510   40.1730 C   0  0  0  0  0  0  0  0  0  0  0  0
   38.1640   34.0510   40.0920 C   0  0  0  0  0  0  0  0  0  0  0  0
   38.9290   32.9390   39.8720 C   0  0  0  0  0  0  0  0  0  0  0  0
   40.2390   32.9640   39.7370 N   0  0  0  0  0  0  0  0  0  0  0  0
   40.7180   36.1870   40.0940 H   0  0  0  0  0  0  0  0  0  0  0  0
   38.3000   36.1660   40.3450 H   0  0  0  0  0  0  0  0  0  0  0  0
   37.0970   34.0140   40.2000 H   0  0  0  0  0  0  0  0  0  0  0  0
   44.4860   34.0650   38.4550 C   0  0  0  0  0  0  0  0  0  0  0  0
   43.0870   34.0320   38.4430 C   0  0  0  0  0  0  0  0  0  0  0  0
   42.4190   34.1030   39.6490 C   0  0  0  0  0  0  0  0  0  0  0  0
   43.1420   34.2000   40.7760 N   0  0  0  0  0  0  0  0  0  0  0  0
   44.5080   34.2310   40.7600 C   0  0  0  0  0  0  0  0  0  0  0  0
   45.1520   34.1630   39.5970 N   0  0  0  0  0  0  0  0  0  0  0  0
   44.8910   34.0030   37.4510 H   0  0  0  0  0  0  0  0  0  0  0  0
   42.4780   33.9550   37.5650 H   0  0  0  0  0  0  0  0  0  0  0  0
   45.0660   34.3100   41.6850 H   0  0  0  0  0  0  0  0  0  0  0  0
   37.6950   29.5610   41.0320 O   0  0  0  0  0  0  0  0  0  0  0  0
   39.5170   29.6710   42.8200 O   0  0  0  0  0  0  0  0  0  0  0  0
   38.2300   28.9040   42.5050 P   0  0  1  0  0  0  0  0  0  0  0  0
   37.1130   29.2800   43.7150 O   0  0  0  0  0  0  0  0  0  0  0  0
   36.2120   29.1730   43.3060 H   0  0  0  0  0  0  0  0  0  0  0  0
   38.6290   27.2960   42.4330 O   0  0  0  0  0  0  0  0  0  0  0  0
   37.5720   26.4610   42.3600 C   0  0  0  0  0  2  0  0  0  0  0  0
   37.4190   25.6050   41.2370 N   0  0  0  0  0  4  0  0  0  0  0  0
   38.4340   25.3770   40.9220 H   0  0  0  0  0  0  0  0  0  0  0  0
   36.8450   24.3100   41.5090 C   0  0  0  0  0  2  0  0  0  0  0  0
   35.9720   24.0860   40.8620 H   0  0  0  0  0  0  0  0  0  0  0  0
   36.8170   26.1600   40.0660 C   0  0  0  0  0  2  0  0  0  0  0  0
   35.7450   25.9980   39.9500 H   0  0  0  0  0  0  0  0  0  0  0  0
  1  4  1  6  0  0  0
  1 12  1  0  0  0  0
  1  2  1  0  0  0  0
  1  3  1  0  0  0  0
  2  6  1  0  0  0  0
  2  3  1  0  0  0  0
  3 26  1  0  0  0  0
  3  7  1  1  0  0  0
  5  2  1  0  0  0  0
  8  9  1  0  0  0  0
  9 14  1  0  0  0  0
  9 10  2  0  0  0  0
 10 15  1  0  0  0  0
 11 10  1  0  0  0  0
 11 16  1  0  0  0  0
 12 11  2  0  0  0  0
 13  8  2  0  0  0  0
 13 12  1  0  0  0  0
 17 22  1  0  0  0  0
 18 17  2  0  0  0  0
 18 19  1  0  0  0  0
 19  8  1  0  0  0  0
 19 20  2  0  0  0  0
 21 20  1  0  0  0  0
 21 25  1  0  0  0  0
 22 21  2  0  0  0  0
 23 17  1  0  0  0  0
 24 18  1  0  0  0  0
 26 28  1  0  0  0  0
 28 27  2  1  0  0  0
 28 29  1  0  0  0  0
 30 29  1  0  0  0  0
 31 28  1  0  0  0  0
 32 31  1  0  0  0  0
 33 35  1  0  0  0  0
 33 32  1  0  0  0  0
 34 33  1  0  0  0  0
 36 35  1  0  0  0  0
 37 33  1  0  0  0  0
 38 37  1  0  0  0  0
M  END
>  <minimizedAffinity>
-5.38384914

$$$$
