
 OpenBabel03242513263D

 28 29  0  0  0  0  0  0  0  0999 V2000
   46.5150   34.1140   41.0050 C   0  0  0  0  0  0  0  0  0  0  0  0
   46.9670   34.8710   42.0650 C   0  0  0  0  0  0  0  0  0  0  0  0
   48.1510   35.5340   41.8830 C   0  0  0  0  0  0  0  0  0  0  0  0
   48.8700   35.4600   40.7050 C   0  0  0  0  0  0  0  0  0  0  0  0
   48.4100   34.7080   39.6680 C   0  0  0  0  0  0  0  0  0  0  0  0
   47.2170   34.0200   39.8060 C   0  0  0  0  0  0  0  0  0  0  0  0
   48.5070   36.1360   42.7290 H   0  0  0  0  0  0  0  0  0  0  0  0
   49.8020   36.0110   40.6260 H   0  0  0  0  0  0  0  0  0  0  0  0
   48.9280   34.6110   38.7220 H   0  0  0  0  0  0  0  0  0  0  0  0
   44.5150   35.9330   44.7230 C   0  0  0  0  0  0  0  0  0  0  0  0
   45.2730   35.9140   43.5400 C   0  0  0  0  0  0  0  0  0  0  0  0
   46.1810   34.9140   43.2660 C   0  0  0  0  0  0  0  0  0  0  0  0
   46.2800   33.9560   44.2320 N   0  0  0  0  0  0  0  0  0  0  0  0
   45.5610   33.9700   45.3620 C   0  0  0  0  0  0  0  0  0  0  0  0
   44.6780   34.9540   45.6140 N   0  0  0  0  0  0  0  0  0  0  0  0
   43.8430   36.7790   44.8010 H   0  0  0  0  0  0  0  0  0  0  0  0
   45.1940   36.6830   42.7610 H   0  0  0  0  0  0  0  0  0  0  0  0
   45.6550   33.1970   46.1180 H   0  0  0  0  0  0  0  0  0  0  0  0
   45.3120   33.4200   41.1430 O   0  0  0  0  0  0  0  0  0  0  0  0
   45.2650   32.4590   41.4030 H   0  0  0  0  0  0  0  0  0  0  0  0
   46.6550   33.2200   38.8040 O   0  0  0  0  0  0  0  0  0  0  0  0
   47.0160   33.3170   37.4550 C   0  0  0  0  0  2  0  0  0  0  0  0
   45.8180   33.2570   36.6470 N   0  0  0  0  0  4  0  0  0  0  0  0
   45.6540   34.1910   36.1770 H   0  0  0  0  0  0  0  0  0  0  0  0
   45.9870   32.2910   35.5800 C   0  0  0  0  0  2  0  0  0  0  0  0
   45.0540   31.7300   35.3740 H   0  0  0  0  0  0  0  0  0  0  0  0
   44.6430   32.9460   37.4350 C   0  0  0  0  0  2  0  0  0  0  0  0
   44.1370   32.0140   37.0810 H   0  0  0  0  0  0  0  0  0  0  0  0
  1 19  1  0  0  0  0
  1  2  1  0  0  0  0
  2 12  1  0  0  0  0
  3  2  2  0  0  0  0
  3  7  1  0  0  0  0
  4  3  1  0  0  0  0
  5  6  1  0  0  0  0
  5  4  2  0  0  0  0
  6  1  2  0  0  0  0
  8  4  1  0  0  0  0
  9  5  1  0  0  0  0
 10 16  1  0  0  0  0
 10 15  1  0  0  0  0
 11 10  2  0  0  0  0
 12 11  1  0  0  0  0
 12 13  2  0  0  0  0
 13 14  1  0  0  0  0
 14 15  2  0  0  0  0
 14 18  1  0  0  0  0
 17 11  1  0  0  0  0
 19 20  1  0  0  0  0
 21  6  1  0  0  0  0
 22 21  1  0  0  0  0
 23 27  1  0  0  0  0
 23 22  1  0  0  0  0
 24 23  1  0  0  0  0
 25 23  1  0  0  0  0
 26 25  1  0  0  0  0
 28 27  1  0  0  0  0
M  END
>  <minimizedAffinity>
-5.17316961

>  <minimizedRMSD>
0.254300058

$$$$
