
 OpenBabel03242511173D

 22 24  0  0  0  0  0  0  0  0999 V2000
   36.9110   28.6300   41.0880 C   0  0  0  0  0  0  0  0  0  0  0  0
   37.2040   29.2890   42.2450 N   0  0  0  0  0  0  0  0  0  0  0  0
   37.4730   28.6170   43.3880 C   0  0  0  0  0  3  0  0  0  0  0  0
   37.4360   27.2820   43.3270 N   0  0  0  0  0  0  0  0  0  0  0  0
   37.1570   26.5670   42.2360 C   0  0  0  0  0  0  0  0  0  0  0  0
   37.1270   25.1880   42.2060 C   0  0  0  0  0  3  0  0  0  0  0  0
   36.8250   24.5420   41.0170 C   0  0  0  0  0  0  0  0  0  0  0  0
   36.8100   23.4570   41.0240 H   0  0  0  0  0  0  0  0  0  0  0  0
   36.5590   25.2700   39.8760 C   0  0  0  0  0  0  0  0  0  0  0  0
   36.3260   24.7290   38.9590 H   0  0  0  0  0  0  0  0  0  0  0  0
   36.5770   26.6640   39.8540 C   0  0  0  0  0  3  0  0  0  0  0  0
   36.8830   27.2450   41.0700 C   0  0  0  0  0  0  0  0  0  0  0  0
   36.5870   29.6990   39.6930 S   0  0  0  0  0  0  0  0  0  0  0  0
   38.1900   33.3960   40.1230 C   0  0  0  0  0  0  0  0  0  0  0  0
   37.2420   32.3550   40.0540 C   0  0  0  0  0  0  0  0  0  0  0  0
   37.7290   31.0650   39.7940 C   0  0  0  0  0  0  0  0  0  0  0  0
   39.0580   30.8940   39.6280 N   0  0  0  0  0  0  0  0  0  0  0  0
   39.9440   31.9110   39.7000 C   0  0  0  0  0  0  0  0  0  0  0  0
   39.4960   33.1510   39.9470 N   0  0  0  0  0  0  0  0  0  0  0  0
   37.7800   34.3650   40.3230 H   0  0  0  0  0  0  0  0  0  0  0  0
   36.2010   32.5590   40.1950 H   0  0  0  0  0  0  0  0  0  0  0  0
   41.0110   31.7940   39.5690 H   0  0  0  0  0  0  0  0  0  0  0  0
  1  2  1  0  0  0  0
  2  3  2  0  0  0  0
  4  3  1  0  0  0  0
  5  4  2  0  0  0  0
  6  5  1  0  0  0  0
  7  8  1  0  0  0  0
  7  6  2  0  0  0  0
  9  7  1  0  0  0  0
 10  9  1  0  0  0  0
 11  9  2  0  0  0  0
 11 12  1  0  0  0  0
 12  1  2  0  0  0  0
 12  5  1  0  0  0  0
 13 16  1  0  0  0  0
 13  1  1  0  0  0  0
 14 20  1  0  0  0  0
 15 14  1  0  0  0  0
 15 21  1  0  0  0  0
 16 15  2  0  0  0  0
 17 18  2  0  0  0  0
 17 16  1  0  0  0  0
 18 19  1  0  0  0  0
 19 14  2  0  0  0  0
 22 18  1  0  0  0  0
M  END
>  <minimizedAffinity>
-4.9186554

$$$$

 OpenBabel03242511173D

 22 24  0  0  0  0  0  0  0  0999 V2000
   36.8270   28.6820   42.0430 C   0  0  0  0  0  0  0  0  0  0  0  0
   35.7320   28.6400   41.2310 N   0  0  0  0  0  0  0  0  0  0  0  0
   35.5170   29.5880   40.2910 C   0  0  0  0  0  3  0  0  0  0  0  0
   36.4260   30.5640   40.1980 N   0  0  0  0  0  0  0  0  0  0  0  0
   37.5190   30.6760   40.9550 C   0  0  0  0  0  0  0  0  0  0  0  0
   38.4380   31.6970   40.8340 C   0  0  0  0  0  3  0  0  0  0  0  0
   39.5420   31.7180   41.6720 C   0  0  0  0  0  0  0  0  0  0  0  0
   40.2480   32.5330   41.5540 H   0  0  0  0  0  0  0  0  0  0  0  0
   39.7210   30.7280   42.6170 C   0  0  0  0  0  0  0  0  0  0  0  0
   40.6000   30.7760   43.2580 H   0  0  0  0  0  0  0  0  0  0  0  0
   38.8210   29.6750   42.7780 C   0  0  0  0  0  3  0  0  0  0  0  0
   37.7430   29.7140   41.9130 C   0  0  0  0  0  0  0  0  0  0  0  0
   36.9270   27.3380   43.2170 S   0  0  0  0  0  0  0  0  0  0  0  0
   37.5780   23.7750   41.3990 C   0  0  0  0  0  0  0  0  0  0  0  0
   36.9210   24.8340   42.0580 C   0  0  0  0  0  0  0  0  0  0  0  0
   37.6920   25.9610   42.3830 C   0  0  0  0  0  0  0  0  0  0  0  0
   39.0010   25.9690   42.0510 N   0  0  0  0  0  0  0  0  0  0  0  0
   39.6040   24.9390   41.4180 C   0  0  0  0  0  0  0  0  0  0  0  0
   38.8820   23.8540   41.1010 N   0  0  0  0  0  0  0  0  0  0  0  0
   36.9560   22.9350   41.1690 H   0  0  0  0  0  0  0  0  0  0  0  0
   35.8790   24.7640   42.2930 H   0  0  0  0  0  0  0  0  0  0  0  0
   40.6510   24.9270   41.1440 H   0  0  0  0  0  0  0  0  0  0  0  0
  1 13  1  0  0  0  0
  2  1  2  0  0  0  0
  3  2  1  0  0  0  0
  4  3  2  0  0  0  0
  4  5  1  0  0  0  0
  5 12  1  0  0  0  0
  6  5  2  0  0  0  0
  6  7  1  0  0  0  0
  7  9  2  0  0  0  0
  8  7  1  0  0  0  0
  9 11  1  0  0  0  0
  9 10  1  0  0  0  0
 12  1  1  0  0  0  0
 12 11  2  0  0  0  0
 14 15  1  0  0  0  0
 15 21  1  0  0  0  0
 15 16  2  0  0  0  0
 16 13  1  0  0  0  0
 17 16  1  0  0  0  0
 18 17  2  0  0  0  0
 19 14  2  0  0  0  0
 19 18  1  0  0  0  0
 20 14  1  0  0  0  0
 22 18  1  0  0  0  0
M  END
>  <minimizedAffinity>
-4.88749027

$$$$

 OpenBabel03242511173D

 22 24  0  0  0  0  0  0  0  0999 V2000
   36.6400   28.1070   41.5890 C   0  0  0  0  0  0  0  0  0  0  0  0
   37.0560   28.7760   42.7030 N   0  0  0  0  0  0  0  0  0  0  0  0
   37.9340   28.2220   43.5690 C   0  0  0  0  0  3  0  0  0  0  0  0
   38.3720   26.9920   43.2820 N   0  0  0  0  0  0  0  0  0  0  0  0
   38.0130   26.2740   42.2160 C   0  0  0  0  0  0  0  0  0  0  0  0
   38.4830   25.0050   41.9480 C   0  0  0  0  0  3  0  0  0  0  0  0
   38.0440   24.3460   40.8100 C   0  0  0  0  0  0  0  0  0  0  0  0
   38.4320   23.3500   40.6250 H   0  0  0  0  0  0  0  0  0  0  0  0
   37.1480   24.9520   39.9540 C   0  0  0  0  0  0  0  0  0  0  0  0
   36.8250   24.4050   39.0690 H   0  0  0  0  0  0  0  0  0  0  0  0
   36.6430   26.2320   40.1800 C   0  0  0  0  0  3  0  0  0  0  0  0
   37.1190   26.8330   41.3310 C   0  0  0  0  0  0  0  0  0  0  0  0
   35.4800   29.0130   40.5750 S   0  0  0  0  0  0  0  0  0  0  0  0
   37.4330   31.4440   37.9880 C   0  0  0  0  0  0  0  0  0  0  0  0
   36.7390   30.3320   38.5040 C   0  0  0  0  0  0  0  0  0  0  0  0
   36.3620   30.3840   39.8550 C   0  0  0  0  0  0  0  0  0  0  0  0
   36.6790   31.4820   40.5750 N   0  0  0  0  0  0  0  0  0  0  0  0
   37.3460   32.5350   40.0520 C   0  0  0  0  0  0  0  0  0  0  0  0
   37.7140   32.5010   38.7630 N   0  0  0  0  0  0  0  0  0  0  0  0
   37.7030   31.3650   36.9540 H   0  0  0  0  0  0  0  0  0  0  0  0
   36.5180   29.4910   37.8790 H   0  0  0  0  0  0  0  0  0  0  0  0
   37.6090   33.4220   40.6130 H   0  0  0  0  0  0  0  0  0  0  0  0
  1  2  1  0  0  0  0
  2  3  2  0  0  0  0
  4  3  1  0  0  0  0
  5  4  2  0  0  0  0
  6  5  1  0  0  0  0
  7  6  2  0  0  0  0
  8  7  1  0  0  0  0
  9 11  2  0  0  0  0
  9  7  1  0  0  0  0
 10  9  1  0  0  0  0
 11 12  1  0  0  0  0
 12  1  2  0  0  0  0
 12  5  1  0  0  0  0
 13  1  1  0  0  0  0
 14 15  2  0  0  0  0
 14 19  1  0  0  0  0
 15 16  1  0  0  0  0
 16 17  2  0  0  0  0
 16 13  1  0  0  0  0
 18 17  1  0  0  0  0
 18 22  1  0  0  0  0
 19 18  2  0  0  0  0
 20 14  1  0  0  0  0
 21 15  1  0  0  0  0
M  END
>  <minimizedAffinity>
-4.87111712

$$$$

 OpenBabel03242511173D

 22 24  0  0  0  0  0  0  0  0999 V2000
   37.8290   29.3820   42.4090 C   0  0  0  0  0  0  0  0  0  0  0  0
   38.9280   30.1280   42.7150 N   0  0  0  0  0  0  0  0  0  0  0  0
   39.3800   31.0900   41.8780 C   0  0  0  0  0  3  0  0  0  0  0  0
   38.6990   31.2710   40.7420 N   0  0  0  0  0  0  0  0  0  0  0  0
   37.6180   30.5820   40.3720 C   0  0  0  0  0  0  0  0  0  0  0  0
   36.9370   30.7930   39.1910 C   0  0  0  0  0  3  0  0  0  0  0  0
   35.8230   30.0200   38.9030 C   0  0  0  0  0  0  0  0  0  0  0  0
   35.3070   30.2090   37.9670 H   0  0  0  0  0  0  0  0  0  0  0  0
   35.3990   29.0500   39.7880 C   0  0  0  0  0  0  0  0  0  0  0  0
   34.5190   28.4620   39.5300 H   0  0  0  0  0  0  0  0  0  0  0  0
   36.0520   28.7990   40.9940 C   0  0  0  0  0  3  0  0  0  0  0  0
   37.1540   29.6020   41.2190 C   0  0  0  0  0  0  0  0  0  0  0  0
   37.3970   28.1660   43.6460 S   0  0  0  0  0  0  0  0  0  0  0  0
   40.2090   25.2650   43.3260 C   0  0  0  0  0  0  0  0  0  0  0  0
   39.5760   26.4740   43.6800 C   0  0  0  0  0  0  0  0  0  0  0  0
   38.2590   26.6600   43.2350 C   0  0  0  0  0  0  0  0  0  0  0  0
   37.6770   25.6850   42.5040 N   0  0  0  0  0  0  0  0  0  0  0  0
   38.3080   24.5350   42.1800 C   0  0  0  0  0  0  0  0  0  0  0  0
   39.5680   24.3410   42.5970 N   0  0  0  0  0  0  0  0  0  0  0  0
   41.2120   25.1610   43.6850 H   0  0  0  0  0  0  0  0  0  0  0  0
   40.0950   27.2080   44.2630 H   0  0  0  0  0  0  0  0  0  0  0  0
   37.8590   23.7430   41.5960 H   0  0  0  0  0  0  0  0  0  0  0  0
  1  2  1  0  0  0  0
  1 13  1  0  0  0  0
  3  2  2  0  0  0  0
  4  3  1  0  0  0  0
  5  4  2  0  0  0  0
  5 12  1  0  0  0  0
  6  5  1  0  0  0  0
  7  6  2  0  0  0  0
  7  9  1  0  0  0  0
  8  7  1  0  0  0  0
  9 11  2  0  0  0  0
 10  9  1  0  0  0  0
 11 12  1  0  0  0  0
 12  1  2  0  0  0  0
 14 15  1  0  0  0  0
 14 20  1  0  0  0  0
 15 21  1  0  0  0  0
 16 13  1  0  0  0  0
 16 15  2  0  0  0  0
 17 16  1  0  0  0  0
 18 17  2  0  0  0  0
 18 19  1  0  0  0  0
 19 14  2  0  0  0  0
 22 18  1  0  0  0  0
M  END
>  <minimizedAffinity>
-4.84844494

$$$$

 OpenBabel03242511173D

 22 24  0  0  0  0  0  0  0  0999 V2000
   36.3490   27.7480   40.4700 C   0  0  0  0  0  0  0  0  0  0  0  0
   36.3210   26.8900   39.4100 N   0  0  0  0  0  0  0  0  0  0  0  0
   37.0810   25.7710   39.3920 C   0  0  0  0  0  3  0  0  0  0  0  0
   37.8560   25.5490   40.4580 N   0  0  0  0  0  0  0  0  0  0  0  0
   37.9390   26.3390   41.5300 C   0  0  0  0  0  0  0  0  0  0  0  0
   38.7510   26.0820   42.6150 C   0  0  0  0  0  3  0  0  0  0  0  0
   38.7620   26.9700   43.6790 C   0  0  0  0  0  0  0  0  0  0  0  0
   39.4090   26.7420   44.5190 H   0  0  0  0  0  0  0  0  0  0  0  0
   37.9690   28.0990   43.6540 C   0  0  0  0  0  0  0  0  0  0  0  0
   38.0020   28.7750   44.5080 H   0  0  0  0  0  0  0  0  0  0  0  0
   37.1310   28.4040   42.5820 C   0  0  0  0  0  3  0  0  0  0  0  0
   37.1690   27.4790   41.5540 C   0  0  0  0  0  0  0  0  0  0  0  0
   35.2730   29.1650   40.3000 S   0  0  0  0  0  0  0  0  0  0  0  0
   37.4790   32.5600   40.1360 C   0  0  0  0  0  0  0  0  0  0  0  0
   36.6900   31.5080   40.6410 C   0  0  0  0  0  0  0  0  0  0  0  0
   36.2730   30.5260   39.7300 C   0  0  0  0  0  0  0  0  0  0  0  0
   36.6470   30.6410   38.4370 N   0  0  0  0  0  0  0  0  0  0  0  0
   37.4050   31.6620   37.9800 C   0  0  0  0  0  0  0  0  0  0  0  0
   37.8110   32.6090   38.8380 N   0  0  0  0  0  0  0  0  0  0  0  0
   37.7760   33.2880   40.8620 H   0  0  0  0  0  0  0  0  0  0  0  0
   36.4290   31.4750   41.6790 H   0  0  0  0  0  0  0  0  0  0  0  0
   37.7140   31.7710   36.9490 H   0  0  0  0  0  0  0  0  0  0  0  0
  1 12  1  0  0  0  0
  2  1  2  0  0  0  0
  3  2  1  0  0  0  0
  3  4  2  0  0  0  0
  4  5  1  0  0  0  0
  5 12  2  0  0  0  0
  5  6  1  0  0  0  0
  6  7  2  0  0  0  0
  7  8  1  0  0  0  0
  9  7  1  0  0  0  0
  9 10  1  0  0  0  0
 11  9  2  0  0  0  0
 12 11  1  0  0  0  0
 13  1  1  0  0  0  0
 14 15  1  0  0  0  0
 14 20  1  0  0  0  0
 15 21  1  0  0  0  0
 16 13  1  0  0  0  0
 16 15  2  0  0  0  0
 17 16  1  0  0  0  0
 18 17  2  0  0  0  0
 18 19  1  0  0  0  0
 19 14  2  0  0  0  0
 22 18  1  0  0  0  0
M  END
>  <minimizedAffinity>
-4.81958055

$$$$

 OpenBabel03242511173D

 22 24  0  0  0  0  0  0  0  0999 V2000
   36.6140   29.0900   40.0950 C   0  0  0  0  0  0  0  0  0  0  0  0
   36.7470   29.0580   38.7390 N   0  0  0  0  0  0  0  0  0  0  0  0
   37.0510   27.9110   38.0880 C   0  0  0  0  0  3  0  0  0  0  0  0
   37.2140   26.8170   38.8380 N   0  0  0  0  0  0  0  0  0  0  0  0
   37.1030   26.7670   40.1660 C   0  0  0  0  0  0  0  0  0  0  0  0
   37.2780   25.6200   40.9120 C   0  0  0  0  0  3  0  0  0  0  0  0
   37.1390   25.6790   42.2900 C   0  0  0  0  0  0  0  0  0  0  0  0
   37.2820   24.7610   42.8500 H   0  0  0  0  0  0  0  0  0  0  0  0
   36.8270   26.8710   42.9100 C   0  0  0  0  0  0  0  0  0  0  0  0
   36.7250   26.8800   43.9950 H   0  0  0  0  0  0  0  0  0  0  0  0
   36.6390   28.0580   42.2020 C   0  0  0  0  0  3  0  0  0  0  0  0
   36.7940   27.9310   40.8340 C   0  0  0  0  0  0  0  0  0  0  0  0
   36.2100   30.6990   40.7590 S   0  0  0  0  0  0  0  0  0  0  0  0
   38.8070   33.7110   39.9810 C   0  0  0  0  0  0  0  0  0  0  0  0
   37.6150   32.9610   40.0360 C   0  0  0  0  0  0  0  0  0  0  0  0
   37.6800   31.7020   40.6520 C   0  0  0  0  0  0  0  0  0  0  0  0
   38.8630   31.2850   41.1530 N   0  0  0  0  0  0  0  0  0  0  0  0
   39.9910   32.0260   41.0850 C   0  0  0  0  0  0  0  0  0  0  0  0
   39.9460   33.2310   40.4990 N   0  0  0  0  0  0  0  0  0  0  0  0
   38.7160   34.6650   39.5030 H   0  0  0  0  0  0  0  0  0  0  0  0
   36.7080   33.3500   39.6200 H   0  0  0  0  0  0  0  0  0  0  0  0
   40.9470   31.7090   41.4790 H   0  0  0  0  0  0  0  0  0  0  0  0
  1 13  1  0  0  0  0
  1 12  1  0  0  0  0
  2  1  2  0  0  0  0
  3  2  1  0  0  0  0
  3  4  2  0  0  0  0
  4  5  1  0  0  0  0
  5 12  2  0  0  0  0
  5  6  1  0  0  0  0
  6  7  2  0  0  0  0
  7  8  1  0  0  0  0
  7  9  1  0  0  0  0
  9 10  1  0  0  0  0
 11  9  2  0  0  0  0
 12 11  1  0  0  0  0
 14 15  2  0  0  0  0
 14 19  1  0  0  0  0
 15 16  1  0  0  0  0
 16 13  1  0  0  0  0
 16 17  2  0  0  0  0
 18 17  1  0  0  0  0
 18 22  1  0  0  0  0
 19 18  2  0  0  0  0
 20 14  1  0  0  0  0
 21 15  1  0  0  0  0
M  END
>  <minimizedAffinity>
-4.76777267

$$$$

 OpenBabel03242511173D

 22 24  0  0  0  0  0  0  0  0999 V2000
   38.3960   30.7430   41.3940 C   0  0  0  0  0  0  0  0  0  0  0  0
   37.4230   31.3450   40.6520 N   0  0  0  0  0  0  0  0  0  0  0  0
   36.1980   30.7890   40.5130 C   0  0  0  0  0  3  0  0  0  0  0  0
   35.9900   29.6240   41.1360 N   0  0  0  0  0  0  0  0  0  0  0  0
   36.8880   28.9740   41.8770 C   0  0  0  0  0  0  0  0  0  0  0  0
   36.6410   27.7720   42.5080 C   0  0  0  0  0  3  0  0  0  0  0  0
   37.6470   27.1790   43.2560 C   0  0  0  0  0  0  0  0  0  0  0  0
   37.4230   26.2350   43.7410 H   0  0  0  0  0  0  0  0  0  0  0  0
   38.8810   27.7850   43.3700 C   0  0  0  0  0  0  0  0  0  0  0  0
   39.6480   27.2910   43.9660 H   0  0  0  0  0  0  0  0  0  0  0  0
   39.1800   28.9990   42.7530 C   0  0  0  0  0  3  0  0  0  0  0  0
   38.1360   29.5350   42.0220 C   0  0  0  0  0  0  0  0  0  0  0  0
   39.9410   31.6390   41.4520 S   0  0  0  0  0  0  0  0  0  0  0  0
   41.0000   30.9580   37.6010 C   0  0  0  0  0  0  0  0  0  0  0  0
   40.5530   30.7350   38.9190 C   0  0  0  0  0  0  0  0  0  0  0  0
   40.4980   31.8470   39.7720 C   0  0  0  0  0  0  0  0  0  0  0  0
   40.8690   33.0540   39.2900 N   0  0  0  0  0  0  0  0  0  0  0  0
   41.2940   33.2380   38.0210 C   0  0  0  0  0  0  0  0  0  0  0  0
   41.3540   32.1850   37.1930 N   0  0  0  0  0  0  0  0  0  0  0  0
   41.0280   30.0850   36.9810 H   0  0  0  0  0  0  0  0  0  0  0  0
   40.2730   29.7520   39.2370 H   0  0  0  0  0  0  0  0  0  0  0  0
   41.5960   34.1950   37.6180 H   0  0  0  0  0  0  0  0  0  0  0  0
  1 13  1  0  0  0  0
  1 12  1  0  0  0  0
  2  1  2  0  0  0  0
  3  2  1  0  0  0  0
  3  4  2  0  0  0  0
  4  5  1  0  0  0  0
  5 12  2  0  0  0  0
  5  6  1  0  0  0  0
  6  7  2  0  0  0  0
  7  9  1  0  0  0  0
  7  8  1  0  0  0  0
  9 10  1  0  0  0  0
 11  9  2  0  0  0  0
 12 11  1  0  0  0  0
 14 15  1  0  0  0  0
 15 21  1  0  0  0  0
 15 16  2  0  0  0  0
 16 13  1  0  0  0  0
 17 16  1  0  0  0  0
 18 17  2  0  0  0  0
 19 14  2  0  0  0  0
 19 18  1  0  0  0  0
 20 14  1  0  0  0  0
 22 18  1  0  0  0  0
M  END
>  <minimizedAffinity>
-4.72393084

$$$$

 OpenBabel03242511173D

 22 24  0  0  0  0  0  0  0  0999 V2000
   39.3960   28.9240   40.6850 C   0  0  0  0  0  0  0  0  0  0  0  0
   39.6390   28.2650   39.5160 N   0  0  0  0  0  0  0  0  0  0  0  0
   39.0370   27.0870   39.2340 C   0  0  0  0  0  3  0  0  0  0  0  0
   38.1980   26.6020   40.1550 N   0  0  0  0  0  0  0  0  0  0  0  0
   37.9090   27.1850   41.3190 C   0  0  0  0  0  0  0  0  0  0  0  0
   37.0370   26.6580   42.2490 C   0  0  0  0  0  3  0  0  0  0  0  0
   36.8080   27.3460   43.4310 C   0  0  0  0  0  0  0  0  0  0  0  0
   36.1170   26.9070   44.1430 H   0  0  0  0  0  0  0  0  0  0  0  0
   37.4440   28.5460   43.6740 C   0  0  0  0  0  0  0  0  0  0  0  0
   37.2400   29.0600   44.6130 H   0  0  0  0  0  0  0  0  0  0  0  0
   38.3330   29.1200   42.7670 C   0  0  0  0  0  3  0  0  0  0  0  0
   38.5180   28.3840   41.6120 C   0  0  0  0  0  0  0  0  0  0  0  0
   40.2880   30.4620   40.8640 S   0  0  0  0  0  0  0  0  0  0  0  0
   37.1500   32.5500   39.3760 C   0  0  0  0  0  0  0  0  0  0  0  0
   37.9900   31.4710   39.7180 C   0  0  0  0  0  0  0  0  0  0  0  0
   39.1790   31.7770   40.3980 C   0  0  0  0  0  0  0  0  0  0  0  0
   39.4490   33.0690   40.6840 N   0  0  0  0  0  0  0  0  0  0  0  0
   38.6250   34.0840   40.3430 C   0  0  0  0  0  0  0  0  0  0  0  0
   37.4850   33.8090   39.6920 N   0  0  0  0  0  0  0  0  0  0  0  0
   36.2540   32.2760   38.8580 H   0  0  0  0  0  0  0  0  0  0  0  0
   37.7170   30.4680   39.4620 H   0  0  0  0  0  0  0  0  0  0  0  0
   38.8240   35.1250   40.5630 H   0  0  0  0  0  0  0  0  0  0  0  0
  1 13  1  0  0  0  0
  1 12  1  0  0  0  0
  2  1  2  0  0  0  0
  3  2  1  0  0  0  0
  3  4  2  0  0  0  0
  4  5  1  0  0  0  0
  5 12  2  0  0  0  0
  5  6  1  0  0  0  0
  6  7  2  0  0  0  0
  7  9  1  0  0  0  0
  7  8  1  0  0  0  0
  9 10  1  0  0  0  0
 11  9  2  0  0  0  0
 12 11  1  0  0  0  0
 14 19  2  0  0  0  0
 14 15  1  0  0  0  0
 15 16  2  0  0  0  0
 16 17  1  0  0  0  0
 16 13  1  0  0  0  0
 18 22  1  0  0  0  0
 18 17  2  0  0  0  0
 19 18  1  0  0  0  0
 20 14  1  0  0  0  0
 21 15  1  0  0  0  0
M  END
>  <minimizedAffinity>
-4.66230583

$$$$

 OpenBabel03242511173D

 22 24  0  0  0  0  0  0  0  0999 V2000
   37.9250   26.6230   42.8960 C   0  0  0  0  0  0  0  0  0  0  0  0
   37.0880   25.6920   42.3530 N   0  0  0  0  0  0  0  0  0  0  0  0
   37.5510   24.4950   41.9250 C   0  0  0  0  0  3  0  0  0  0  0  0
   38.8620   24.2710   42.0590 N   0  0  0  0  0  0  0  0  0  0  0  0
   39.7420   25.1290   42.5770 C   0  0  0  0  0  0  0  0  0  0  0  0
   41.0910   24.8670   42.7020 C   0  0  0  0  0  3  0  0  0  0  0  0
   41.9210   25.8290   43.2550 C   0  0  0  0  0  0  0  0  0  0  0  0
   42.9770   25.5950   43.3410 H   0  0  0  0  0  0  0  0  0  0  0  0
   41.4040   27.0360   43.6790 C   0  0  0  0  0  0  0  0  0  0  0  0
   42.0850   27.7690   44.1100 H   0  0  0  0  0  0  0  0  0  0  0  0
   40.0490   27.3490   43.5760 C   0  0  0  0  0  3  0  0  0  0  0  0
   39.2780   26.3480   43.0150 C   0  0  0  0  0  0  0  0  0  0  0  0
   37.1180   28.1360   43.3980 S   0  0  0  0  0  0  0  0  0  0  0  0
   35.6860   29.6340   39.9160 C   0  0  0  0  0  0  0  0  0  0  0  0
   35.8270   28.8190   41.0580 C   0  0  0  0  0  0  0  0  0  0  0  0
   36.8800   29.1230   41.9340 C   0  0  0  0  0  0  0  0  0  0  0  0
   37.6890   30.1650   41.6390 N   0  0  0  0  0  0  0  0  0  0  0  0
   37.5290   30.9280   40.5360 C   0  0  0  0  0  0  0  0  0  0  0  0
   36.5280   30.6520   39.6890 N   0  0  0  0  0  0  0  0  0  0  0  0
   34.8710   29.3700   39.2740 H   0  0  0  0  0  0  0  0  0  0  0  0
   35.1500   28.0080   41.2330 H   0  0  0  0  0  0  0  0  0  0  0  0
   38.1660   31.7660   40.2840 H   0  0  0  0  0  0  0  0  0  0  0  0
  1 12  1  0  0  0  0
  1 13  1  0  0  0  0
  2  1  2  0  0  0  0
  3  4  2  0  0  0  0
  3  2  1  0  0  0  0
  4  5  1  0  0  0  0
  5  6  2  0  0  0  0
  5 12  1  0  0  0  0
  6  7  1  0  0  0  0
  7  8  1  0  0  0  0
  7  9  2  0  0  0  0
  9 10  1  0  0  0  0
 11  9  1  0  0  0  0
 12 11  2  0  0  0  0
 14 15  1  0  0  0  0
 15 21  1  0  0  0  0
 15 16  2  0  0  0  0
 16 13  1  0  0  0  0
 17 16  1  0  0  0  0
 18 17  2  0  0  0  0
 19 14  2  0  0  0  0
 19 18  1  0  0  0  0
 20 14  1  0  0  0  0
 22 18  1  0  0  0  0
M  END
>  <minimizedAffinity>
-4.6449542

$$$$
