
 OpenBabel03252502243D

 37 40  0  0  1  0  0  0  0  0999 V2000
   46.8230   34.5990   42.2890 N   0  0  0  0  0  0  0  0  0  0  0  0
   48.2780   34.5270   42.3540 C   0  0  0  0  0  0  0  0  0  0  0  0
   48.7510   35.3340   41.1480 C   0  0  0  0  0  0  0  0  0  0  0  0
   48.3260   34.6660   39.8750 C   0  0  0  0  0  0  0  0  0  0  0  0
   46.9650   34.0710   39.9060 C   0  0  0  0  0  0  0  0  0  0  0  0
   46.1060   34.4870   41.0490 C   0  0  1  0  0  0  0  0  0  0  0  0
   48.5480   33.4820   42.1470 H   0  0  0  0  0  0  0  0  0  0  0  0
   48.6790   34.9350   43.2760 H   0  0  0  0  0  0  0  0  0  0  0  0
   49.8770   35.2460   41.1900 H   0  0  0  0  0  0  0  0  0  0  0  0
   48.4300   36.3710   41.2510 H   0  0  0  0  0  0  0  0  0  0  0  0
   49.0800   33.9050   39.5370 H   0  0  0  0  0  0  0  0  0  0  0  0
   48.3400   35.4440   39.0730 H   0  0  0  0  0  0  0  0  0  0  0  0
   46.3990   34.2100   38.9580 H   0  0  0  0  0  0  0  0  0  0  0  0
   47.0840   32.9560   39.9880 H   0  0  0  0  0  0  0  0  0  0  0  0
   45.6140   35.4600   40.7960 H   0  0  0  0  0  0  0  0  0  0  0  0
   44.4780   36.0030   44.8430 C   0  0  0  0  0  0  0  0  0  0  0  0
   45.1920   35.8960   43.6450 C   0  0  0  0  0  0  0  0  0  0  0  0
   46.0580   34.7870   43.4770 C   0  0  0  0  0  0  0  0  0  0  0  0
   46.1410   33.8920   44.4960 N   0  0  0  0  0  0  0  0  0  0  0  0
   45.4240   34.0420   45.6430 C   0  0  0  0  0  0  0  0  0  0  0  0
   44.5990   35.0950   45.8050 N   0  0  0  0  0  0  0  0  0  0  0  0
   43.8610   36.8920   44.8300 H   0  0  0  0  0  0  0  0  0  0  0  0
   45.1480   36.5880   42.8190 H   0  0  0  0  0  0  0  0  0  0  0  0
   45.5040   33.3180   46.4420 H   0  0  0  0  0  0  0  0  0  0  0  0
   45.1030   33.5150   41.2110 O   0  0  0  0  0  0  0  0  0  0  0  0
   43.7720   33.6920   40.9320 C   0  0  0  0  0  0  0  0  0  0  0  0
   42.8640   34.4430   41.5740 N   0  0  0  0  0  0  0  0  0  0  0  0
   41.5930   34.5190   41.1840 C   0  0  0  0  0  3  0  0  0  0  0  0
   41.1560   33.8240   40.1010 N   0  0  0  0  0  0  0  0  0  0  0  0
   42.0090   33.0540   39.4150 C   0  0  0  0  0  0  0  0  0  0  0  0
   41.5670   32.3500   38.3180 C   0  0  0  0  0  3  0  0  0  0  0  0
   42.4100   31.5480   37.5860 C   0  0  0  0  0  0  0  0  0  0  0  0
   42.1540   30.9570   36.7090 H   0  0  0  0  0  0  0  0  0  0  0  0
   43.7140   31.4590   37.9710 C   0  0  0  0  0  0  0  0  0  0  0  0
   44.4440   30.8530   37.4530 H   0  0  0  0  0  0  0  0  0  0  0  0
   44.1460   32.1690   39.0710 C   0  0  0  0  0  3  0  0  0  0  0  0
   43.3260   32.9850   39.8300 C   0  0  0  0  0  0  0  0  0  0  0  0
  1  2  1  0  0  0  0
  1 18  1  0  0  0  0
  2  8  1  0  0  0  0
  3  9  1  0  0  0  0
  3 10  1  0  0  0  0
  3  2  1  0  0  0  0
  4  5  1  0  0  0  0
  4  3  1  0  0  0  0
  5 14  1  0  0  0  0
  5  6  1  0  0  0  0
  6 15  1  6  0  0  0
  6 25  1  0  0  0  0
  6  1  1  0  0  0  0
  7  2  1  0  0  0  0
 11  4  1  0  0  0  0
 12  4  1  0  0  0  0
 13  5  1  0  0  0  0
 16 21  1  0  0  0  0
 17 16  2  0  0  0  0
 18 17  1  0  0  0  0
 18 19  2  0  0  0  0
 19 20  1  0  0  0  0
 20 21  2  0  0  0  0
 20 24  1  0  0  0  0
 22 16  1  0  0  0  0
 23 17  1  0  0  0  0
 26 25  1  0  0  0  0
 26 27  1  0  0  0  0
 28 27  2  0  0  0  0
 29 28  1  0  0  0  0
 30 37  1  0  0  0  0
 30 29  2  0  0  0  0
 31 30  1  0  0  0  0
 32 34  1  0  0  0  0
 32 31  2  0  0  0  0
 33 32  1  0  0  0  0
 34 36  2  0  0  0  0
 35 34  1  0  0  0  0
 36 37  1  0  0  0  0
 37 26  2  0  0  0  0
M  END
>  <minimizedAffinity>
-5.96483946

>  <minimizedRMSD>
1.01601291

$$$$
