
 OpenBabel03252506373D

 47 51  0  0  1  0  0  0  0  0999 V2000
   46.6350   30.0620   46.5260 S   0  0  0  0  0  0  0  0  0  0  0  0
   45.6740   30.6580   43.3840 O   0  0  0  0  0  0  0  0  0  0  0  0
   45.0370   30.0660   44.2690 C   0  0  0  0  0  0  0  0  0  0  0  0
   45.1120   29.7820   45.7240 C   0  0  1  0  0  0  0  0  0  0  0  0
   44.6040   28.3630   45.7930 C   0  0  0  0  0  0  0  0  0  0  0  0
   43.3000   28.5780   45.0210 C   0  0  0  0  0  0  0  0  0  0  0  0
   43.8150   29.3930   43.9270 N   0  0  0  0  0  0  0  0  0  0  0  0
   44.2080   30.3590   46.0650 H   0  0  0  0  0  0  0  0  0  0  0  0
   44.3330   28.0410   46.8120 H   0  0  0  0  0  0  0  0  0  0  0  0
   45.2690   27.6660   45.2770 H   0  0  0  0  0  0  0  0  0  0  0  0
   42.6340   29.2070   45.6440 H   0  0  0  0  0  0  0  0  0  0  0  0
   42.8550   27.6330   44.6920 H   0  0  0  0  0  0  0  0  0  0  0  0
   43.0590   29.4110   42.6990 C   0  0  0  0  0  0  0  0  0  0  0  0
   41.7920   28.9440   42.7240 N   0  0  0  0  0  0  0  0  0  0  0  0
   41.0060   28.9250   41.6090 C   0  0  0  0  0  3  0  0  0  0  0  0
   41.4680   29.3720   40.4380 N   0  0  0  0  0  0  0  0  0  0  0  0
   42.7290   29.8450   40.3810 C   0  0  0  0  0  0  0  0  0  0  0  0
   43.2410   30.3160   39.1890 C   0  0  0  0  0  3  0  0  0  0  0  0
   44.5370   30.8080   39.0980 C   0  0  0  0  0  0  0  0  0  0  0  0
   44.9220   31.1740   38.1560 H   0  0  0  0  0  0  0  0  0  0  0  0
   45.3070   30.8120   40.2570 C   0  0  0  0  0  0  0  0  0  0  0  0
   46.3100   31.2040   40.1460 H   0  0  0  0  0  0  0  0  0  0  0  0
   44.8410   30.3500   41.4840 C   0  0  0  0  0  3  0  0  0  0  0  0
   43.5470   29.8770   41.4920 C   0  0  0  0  0  0  0  0  0  0  0  0
   44.4990   35.5480   45.1340 C   0  0  0  0  0  0  0  0  0  0  0  0
   45.1600   35.5430   43.8800 C   0  0  0  0  0  0  0  0  0  0  0  0
   46.0820   34.5820   43.6200 C   0  0  0  0  0  0  0  0  0  0  0  0
   46.3150   33.6710   44.5970 N   0  0  0  0  0  0  0  0  0  0  0  0
   45.6930   33.6800   45.7670 C   0  0  0  0  0  0  0  0  0  0  0  0
   44.7830   34.6110   46.0510 N   0  0  0  0  0  0  0  0  0  0  0  0
   46.0250   32.6650   46.7300 N   0  0  0  0  0  0  0  0  0  0  0  0
   45.2910   32.4080   47.9120 C   0  0  0  0  0  0  0  0  0  0  0  0
   46.3670   32.0630   48.9240 C   0  0  0  0  0  0  0  0  0  0  0  0
   47.6470   31.9570   48.1510 C   0  0  0  0  0  0  0  0  0  0  0  0
   47.1460   31.7550   46.7240 C   0  0  1  0  0  0  0  0  0  0  0  0
   43.7650   36.3160   45.3370 H   0  0  0  0  0  0  0  0  0  0  0  0
   46.5830   34.5700   42.6850 H   0  0  0  0  0  0  0  0  0  0  0  0
   44.8990   33.4120   48.2700 H   0  0  0  0  0  0  0  0  0  0  0  0
   44.5040   31.7350   48.0140 H   0  0  0  0  0  0  0  0  0  0  0  0
   46.1590   31.0580   49.3880 H   0  0  0  0  0  0  0  0  0  0  0  0
   46.4490   32.7670   49.7510 H   0  0  0  0  0  0  0  0  0  0  0  0
   48.2280   31.0870   48.4910 H   0  0  0  0  0  0  0  0  0  0  0  0
   48.2540   32.8810   48.2130 H   0  0  0  0  0  0  0  0  0  0  0  0
   47.9390   32.0420   46.0310 H   0  0  0  0  0  0  0  0  0  0  0  0
   44.8020   36.5800   42.9510 N   0  0  0  0  0  0  0  0  0  0  0  0
   45.5330   36.9430   42.2790 H   0  0  0  0  0  0  0  0  0  0  0  0
   43.8300   36.9340   42.9770 H   0  0  0  0  0  0  0  0  0  0  0  0
  1 35  1  0  0  0  0
  2  3  2  0  0  0  0
  3  4  1  0  0  0  0
  4  5  1  0  0  0  0
  4  8  1  1  0  0  0
  4  1  1  0  0  0  0
  5  9  1  0  0  0  0
  6 11  1  0  0  0  0
  6  5  1  0  0  0  0
  7  3  1  0  0  0  0
  7  6  1  0  0  0  0
 10  5  1  0  0  0  0
 12  6  1  0  0  0  0
 13 14  1  0  0  0  0
 13  7  1  0  0  0  0
 15 14  2  0  0  0  0
 16 15  1  0  0  0  0
 17 16  2  0  0  0  0
 17 24  1  0  0  0  0
 18 17  1  0  0  0  0
 19 18  2  0  0  0  0
 19 21  1  0  0  0  0
 20 19  1  0  0  0  0
 21 23  2  0  0  0  0
 22 21  1  0  0  0  0
 23 24  1  0  0  0  0
 24 13  2  0  0  0  0
 25 36  1  0  0  0  0
 25 30  1  0  0  0  0
 26 25  2  0  0  0  0
 27 26  1  0  0  0  0
 27 28  2  0  0  0  0
 28 29  1  0  0  0  0
 29 30  2  0  0  0  0
 29 31  1  0  0  0  0
 31 32  1  0  0  0  0
 32 39  1  0  0  0  0
 32 38  1  0  0  0  0
 32 33  1  0  0  0  0
 33 40  1  0  0  0  0
 33 41  1  0  0  0  0
 34 43  1  0  0  0  0
 34 42  1  0  0  0  0
 34 33  1  0  0  0  0
 35 44  1  6  0  0  0
 35 31  1  0  0  0  0
 35 34  1  0  0  0  0
 37 27  1  0  0  0  0
 45 47  1  0  0  0  0
 45 26  1  0  0  0  0
 46 45  1  0  0  0  0
M  END
>  <minimizedAffinity>
-5.65823984

>  <minimizedRMSD>
0.22859861

$$$$
