
 OpenBabel03252506213D

 38 41  0  0  0  0  0  0  0  0999 V2000
   45.2270   37.0880   43.4930 C   0  0  0  0  0  0  0  0  0  0  0  0
   44.1790   36.8780   42.5790 C   0  0  0  0  0  0  0  0  0  0  0  0
   44.2920   35.7840   41.7110 C   0  0  0  0  0  0  0  0  0  0  0  0
   45.3920   34.9900   41.7900 N   0  0  0  0  0  0  0  0  0  0  0  0
   46.3760   35.2360   42.6900 C   0  0  0  0  0  0  0  0  0  0  0  0
   46.2850   36.2760   43.5270 N   0  0  0  0  0  0  0  0  0  0  0  0
   43.3180   37.4930   42.5110 H   0  0  0  0  0  0  0  0  0  0  0  0
   43.5250   35.5590   40.9800 H   0  0  0  0  0  0  0  0  0  0  0  0
   48.9410   36.3860   41.5700 Cl  0  0  0  0  0  0  0  0  0  0  0  0
   48.7360   34.7910   42.2090 C   0  0  0  0  0  0  0  0  0  0  0  0
   47.5380   34.3200   42.7060 C   0  0  0  0  0  0  0  0  0  0  0  0
   47.3410   33.0620   43.2180 C   0  0  0  0  0  0  0  0  0  0  0  0
   48.4380   32.2410   43.2190 C   0  0  0  0  0  0  0  0  0  0  0  0
   49.6780   32.5850   42.7560 C   0  0  0  0  0  0  0  0  0  0  0  0
   49.7840   33.8850   42.2530 C   0  0  0  0  0  0  0  0  0  0  0  0
   46.3870   32.7330   43.5970 H   0  0  0  0  0  0  0  0  0  0  0  0
   48.3640   31.2160   43.6110 H   0  0  0  0  0  0  0  0  0  0  0  0
   50.5130   31.9130   42.7740 H   0  0  0  0  0  0  0  0  0  0  0  0
   50.7450   34.2010   41.8780 H   0  0  0  0  0  0  0  0  0  0  0  0
   45.1260   38.2310   44.4120 C   0  0  0  0  0  3  0  0  0  0  0  0
   45.1790   39.4360   43.9240 C   0  0  0  0  0  3  0  0  0  0  0  0
   45.0770   40.6170   44.8150 C   0  0  0  0  0  0  0  0  0  0  0  0
   44.6630   40.3700   45.8110 H   0  0  0  0  0  0  0  0  0  0  0  0
   46.1320   40.9990   44.9480 H   0  0  0  0  0  0  0  0  0  0  0  0
   44.3530   41.6630   44.1240 N   0  0  0  0  0  0  0  0  0  0  0  0
   43.9100   41.4370   43.2170 H   0  0  0  0  0  0  0  0  0  0  0  0
   44.3070   42.9360   44.7570 C   0  0  0  0  0  0  0  0  0  0  0  0
   45.3970   43.4980   45.3000 N   0  0  0  0  0  0  0  0  0  0  0  0
   45.4430   44.6810   45.9080 C   0  0  0  0  0  3  0  0  0  0  0  0
   44.3170   45.3850   45.9950 N   0  0  0  0  0  0  0  0  0  0  0  0
   43.1470   44.9180   45.4810 C   0  0  0  0  0  0  0  0  0  0  0  0
   42.0190   45.7010   45.6090 C   0  0  0  0  0  3  0  0  0  0  0  0
   40.8730   45.1620   45.0660 C   0  0  0  0  0  0  0  0  0  0  0  0
   39.9630   45.7550   45.1500 H   0  0  0  0  0  0  0  0  0  0  0  0
   40.7940   43.9460   44.4340 C   0  0  0  0  0  0  0  0  0  0  0  0
   39.8630   43.5640   44.0210 H   0  0  0  0  0  0  0  0  0  0  0  0
   41.9740   43.2230   44.3490 C   0  0  0  0  0  3  0  0  0  0  0  0
   43.1570   43.6870   44.8630 C   0  0  0  0  0  0  0  0  0  0  0  0
  1  6  1  0  0  0  0
  1 20  1  0  0  0  0
  2  1  2  0  0  0  0
  3  4  2  0  0  0  0
  3  2  1  0  0  0  0
  4  5  1  0  0  0  0
  5 11  1  0  0  0  0
  5  6  2  0  0  0  0
  7  2  1  0  0  0  0
  8  3  1  0  0  0  0
  9 10  1  0  0  0  0
 10 15  2  0  0  0  0
 10 11  1  0  0  0  0
 11 12  2  0  0  0  0
 12 13  1  0  0  0  0
 12 16  1  0  0  0  0
 13 17  1  0  0  0  0
 14 18  1  0  0  0  0
 14 13  2  0  0  0  0
 15 14  1  0  0  0  0
 19 15  1  0  0  0  0
 21 20  2  0  0  0  0
 21 22  1  0  0  0  0
 22 24  1  0  0  0  0
 22 23  1  0  0  0  0
 25 27  1  0  0  0  0
 25 22  1  0  0  0  0
 26 25  1  0  0  0  0
 27 38  2  0  0  0  0
 27 28  1  0  0  0  0
 28 29  2  0  0  0  0
 29 30  1  0  0  0  0
 31 32  1  0  0  0  0
 31 30  2  0  0  0  0
 33 34  1  0  0  0  0
 33 32  2  0  0  0  0
 35 33  1  0  0  0  0
 36 35  1  0  0  0  0
 37 35  2  0  0  0  0
 37 38  1  0  0  0  0
 38 31  1  0  0  0  0
M  END
>  <minimizedAffinity>
1.08662367

>  <minimizedRMSD>
1.26135778

$$$$
