
 OpenBabel03252507463D

 40 43  0  0  0  0  0  0  0  0999 V2000
   48.4880   33.9690   41.3630 C   0  0  0  0  0  0  0  0  0  0  0  0
   48.8310   32.6870   40.9450 C   0  0  0  0  0  0  0  0  0  0  0  0
   50.0470   32.1220   41.2930 C   0  0  0  0  0  0  0  0  0  0  0  0
   50.8840   32.8990   42.0710 N   0  0  0  0  0  0  0  0  0  0  0  0
   50.5150   34.1380   42.4570 C   0  0  0  0  0  0  0  0  0  0  0  0
   49.3440   34.6490   42.1060 N   0  0  0  0  0  0  0  0  0  0  0  0
   50.3430   31.1270   40.9830 H   0  0  0  0  0  0  0  0  0  0  0  0
   51.2350   34.6730   43.0660 H   0  0  0  0  0  0  0  0  0  0  0  0
   47.1700   34.4600   40.9290 C   0  0  0  0  0  0  0  0  0  0  0  0
   47.3180   35.2420   40.1440 H   0  0  0  0  0  0  0  0  0  0  0  0
   46.5690   33.6690   40.4430 H   0  0  0  0  0  0  0  0  0  0  0  0
   46.3340   34.9810   42.0610 C   0  0  0  0  0  0  0  0  0  0  0  0
   46.5190   34.3240   42.9520 H   0  0  0  0  0  0  0  0  0  0  0  0
   46.6630   35.9980   42.3660 H   0  0  0  0  0  0  0  0  0  0  0  0
   44.8670   34.9420   41.7850 C   0  0  0  0  0  0  0  0  0  0  0  0
   43.9630   35.4710   42.7490 C   0  0  0  0  0  0  0  0  0  0  0  0
   42.3190   35.1960   41.9650 S   0  0  0  0  0  0  0  0  0  0  0  0
   43.1510   34.4060   40.4550 C   0  0  0  0  0  0  0  0  0  0  0  0
   44.2600   34.4690   40.7330 N   0  0  0  0  0  0  0  0  0  0  0  0
   44.2070   35.9200   43.7050 H   0  0  0  0  0  0  0  0  0  0  0  0
   42.4330   33.9220   39.3650 O   0  0  0  0  0  0  0  0  0  0  0  0
   40.4670   34.3260   37.6350 O   0  0  0  0  0  0  0  0  0  0  0  0
   41.5340   35.0420   38.4570 P   0  0  0  0  0  0  0  0  0  0  0  0
   40.7920   36.1230   39.5230 O   0  0  0  0  0  0  0  0  0  0  0  0
   39.9330   35.7570   39.8370 H   0  0  0  0  0  0  0  0  0  0  0  0
   42.5880   35.9310   37.4530 O   0  0  0  0  0  0  0  0  0  0  0  0
   42.1050   36.7360   37.1790 H   0  0  0  0  0  0  0  0  0  0  0  0
   47.7030   31.7200   39.9330 S   0  0  0  0  0  0  0  0  0  0  0  0
   47.8820   32.1560   38.2100 C   0  0  0  0  0  0  0  0  0  0  0  0
   48.6860   33.1800   37.8210 N   0  0  0  0  0  0  0  0  0  0  0  0
   48.7980   33.4810   36.5160 C   0  0  0  0  0  3  0  0  0  0  0  0
   48.1210   32.7750   35.5910 N   0  0  0  0  0  0  0  0  0  0  0  0
   47.3130   31.7490   35.9500 C   0  0  0  0  0  0  0  0  0  0  0  0
   46.6640   31.0880   34.9250 C   0  0  0  0  0  3  0  0  0  0  0  0
   45.8310   30.0380   35.2370 C   0  0  0  0  0  0  0  0  0  0  0  0
   45.3410   29.5470   34.4040 H   0  0  0  0  0  0  0  0  0  0  0  0
   45.6790   29.6850   36.5740 C   0  0  0  0  0  0  0  0  0  0  0  0
   45.0180   28.8570   36.7730 H   0  0  0  0  0  0  0  0  0  0  0  0
   46.3450   30.3690   37.5750 C   0  0  0  0  0  3  0  0  0  0  0  0
   47.1860   31.4260   37.2860 C   0  0  0  0  0  0  0  0  0  0  0  0
  1  6  1  0  0  0  0
  2  3  1  0  0  0  0
  2  1  2  0  0  0  0
  3  4  2  0  0  0  0
  4  5  1  0  0  0  0
  5  8  1  0  0  0  0
  6  5  2  0  0  0  0
  7  3  1  0  0  0  0
  9  1  1  0  0  0  0
  9 12  1  0  0  0  0
 10  9  1  0  0  0  0
 11  9  1  0  0  0  0
 12 14  1  0  0  0  0
 12 13  1  0  0  0  0
 15 12  1  0  0  0  0
 15 16  2  0  0  0  0
 16 20  1  0  0  0  0
 17 16  1  0  0  0  0
 18 19  2  0  0  0  0
 18 17  1  0  0  0  0
 19 15  1  0  0  0  0
 21 18  1  0  0  0  0
 22 23  2  0  0  0  0
 23 21  1  0  0  0  0
 23 24  1  0  0  0  0
 24 25  1  0  0  0  0
 26 23  1  0  0  0  0
 27 26  1  0  0  0  0
 28  2  1  0  0  0  0
 29 28  1  0  0  0  0
 30 29  1  0  0  0  0
 31 30  2  0  0  0  0
 32 33  2  0  0  0  0
 32 31  1  0  0  0  0
 33 40  1  0  0  0  0
 34 35  2  0  0  0  0
 34 33  1  0  0  0  0
 35 37  1  0  0  0  0
 36 35  1  0  0  0  0
 37 38  1  0  0  0  0
 37 39  2  0  0  0  0
 40 39  1  0  0  0  0
 40 29  2  0  0  0  0
M  END
>  <minimizedAffinity>
-5.26821804

>  <minimizedRMSD>
0.780941129

$$$$
