
 OpenBabel03252504333D

 43 46  0  0  0  0  0  0  0  0999 V2000
   41.5690   35.4890   41.5690 C   0  0  0  0  0  0  0  0  0  0  0  0
   41.4980   35.0750   42.6020 H   0  0  0  0  0  0  0  0  0  0  0  0
   41.0080   36.4470   41.5840 H   0  0  0  0  0  0  0  0  0  0  0  0
   41.3710   33.2870   40.5220 C   0  0  0  0  0  0  0  0  0  0  0  0
   40.7420   34.5360   40.7530 C   0  0  0  0  0  0  0  0  0  0  0  0
   39.5130   34.7050   40.2190 C   0  0  0  0  0  0  0  0  0  0  0  0
   38.9890   33.7090   39.5270 N   0  0  0  0  0  0  0  0  0  0  0  0
   39.5640   32.5530   39.3090 C   0  0  0  0  0  0  0  0  0  0  0  0
   40.8160   32.2950   39.8160 N   0  0  0  0  0  0  0  0  0  0  0  0
   42.3680   33.0950   40.9310 H   0  0  0  0  0  0  0  0  0  0  0  0
   39.0570   35.6360   40.3980 H   0  0  0  0  0  0  0  0  0  0  0  0
   39.0730   31.3740   38.5530 C   0  0  0  0  0  0  0  0  0  0  0  0
   39.3680   31.1410   37.2490 N   0  0  0  0  0  0  0  0  0  0  0  0
   38.9570   30.1110   36.5340 C   0  0  0  0  0  3  0  0  0  0  0  0
   38.1650   29.1660   37.1000 N   0  0  0  0  0  0  0  0  0  0  0  0
   37.8000   29.2920   38.4110 C   0  0  0  0  0  0  0  0  0  0  0  0
   36.9970   28.3270   38.9760 C   0  0  0  0  0  3  0  0  0  0  0  0
   36.6120   28.4270   40.2960 C   0  0  0  0  0  0  0  0  0  0  0  0
   35.9860   27.6140   40.6190 H   0  0  0  0  0  0  0  0  0  0  0  0
   37.0740   29.5250   40.9880 C   0  0  0  0  0  0  0  0  0  0  0  0
   36.7430   29.5610   42.0300 H   0  0  0  0  0  0  0  0  0  0  0  0
   37.8770   30.4630   40.3770 C   0  0  0  0  0  3  0  0  0  0  0  0
   38.2720   30.3950   39.0800 C   0  0  0  0  0  0  0  0  0  0  0  0
   42.8150   35.6790   41.0500 O   0  0  0  0  0  0  0  0  0  0  0  0
   44.0370   35.5650   41.6880 C   0  0  0  0  0  3  0  0  0  0  0  0
   44.0080   35.6260   43.0140 C   0  0  0  0  0  3  0  0  0  0  0  0
   45.2130   35.5230   43.9320 C   0  0  0  0  0  0  0  0  0  0  0  0
   46.0370   35.2280   43.2540 H   0  0  0  0  0  0  0  0  0  0  0  0
   45.4190   36.4630   44.4490 H   0  0  0  0  0  0  0  0  0  0  0  0
   44.9460   34.5120   44.8370 O   0  0  0  0  0  0  0  0  0  0  0  0
   45.4890   32.3860   43.3410 O   0  0  0  0  0  0  0  0  0  0  0  0
   45.9300   33.1710   44.5550 P   0  0  1  0  0  0  0  0  0  0  0  0
   47.5330   33.6500   44.2660 O   0  0  0  0  0  0  0  0  0  0  0  0
   47.5870   34.6400   44.4000 H   0  0  0  0  0  0  0  0  0  0  0  0
   45.9390   32.1770   45.9190 O   0  0  0  0  0  0  0  0  0  0  0  0
   46.3260   32.8560   47.0570 C   0  0  0  0  0  0  0  0  0  0  0  0
   47.2370   32.1850   48.0360 C   0  0  0  0  0  0  0  0  0  0  0  0
   45.7530   32.3100   48.3470 C   0  0  0  0  0  0  0  0  0  0  0  0
   46.5290   33.9170   46.9160 H   0  0  0  0  0  0  0  0  0  0  0  0
   47.9740   32.7470   48.6260 H   0  0  0  0  0  0  0  0  0  0  0  0
   47.5440   31.1360   47.8450 H   0  0  0  0  0  0  0  0  0  0  0  0
   45.5440   33.1030   49.1110 H   0  0  0  0  0  0  0  0  0  0  0  0
   45.1100   31.4310   48.3310 H   0  0  0  0  0  0  0  0  0  0  0  0
  1  3  1  0  0  0  0
  1  2  1  0  0  0  0
  4  5  1  0  0  0  0
  4 10  1  0  0  0  0
  5  1  1  0  0  0  0
  6 11  1  0  0  0  0
  6  5  2  0  0  0  0
  7  6  1  0  0  0  0
  8  7  2  0  0  0  0
  8  9  1  0  0  0  0
  9  4  2  0  0  0  0
 12 23  1  0  0  0  0
 12  8  1  0  0  0  0
 13 12  2  0  0  0  0
 14 15  2  0  0  0  0
 14 13  1  0  0  0  0
 15 16  1  0  0  0  0
 16 17  2  0  0  0  0
 16 23  1  0  0  0  0
 17 18  1  0  0  0  0
 18 19  1  0  0  0  0
 18 20  2  0  0  0  0
 20 21  1  0  0  0  0
 22 20  1  0  0  0  0
 23 22  2  0  0  0  0
 24  1  1  0  0  0  0
 24 25  1  0  0  0  0
 25 26  2  0  0  0  0
 26 27  1  0  0  0  0
 27 29  1  0  0  0  0
 27 30  1  0  0  0  0
 28 27  1  0  0  0  0
 32 31  2  6  0  0  0
 32 30  1  0  0  0  0
 32 35  1  0  0  0  0
 33 34  1  0  0  0  0
 33 32  1  0  0  0  0
 35 36  1  0  0  0  0
 36 37  1  0  0  0  0
 36 38  1  0  0  0  0
 37 38  1  0  0  0  0
 37 40  1  0  0  0  0
 38 42  1  0  0  0  0
 39 36  1  0  0  0  0
 41 37  1  0  0  0  0
 43 38  1  0  0  0  0
M  END
>  <minimizedAffinity>
-5.35452271

>  <minimizedRMSD>
2.03004503

$$$$
