
 OpenBabel03252501323D

 27 29  0  0  0  0  0  0  0  0999 V2000
   44.6420   34.6530   41.8710 C   0  0  0  0  0  0  0  0  0  0  0  0
   44.4040   33.4380   42.2620 O   0  0  0  0  0  0  0  0  0  0  0  0
   45.5030   35.3510   42.7360 N   0  0  0  0  0  0  0  0  0  0  0  0
   45.5590   36.2220   42.2450 H   0  0  0  0  0  0  0  0  0  0  0  0
   43.8060   34.4660   40.7260 C   0  0  0  0  0  0  0  0  0  0  0  0
   44.5540   33.7260   39.8890 N   0  0  0  0  0  0  0  0  0  0  0  0
   44.0730   33.3460   38.6690 C   0  0  0  0  0  0  0  0  0  0  0  0
   42.8400   33.7460   38.3690 N   0  0  0  0  0  0  0  0  0  0  0  0
   42.0610   34.4800   39.1670 C   0  0  0  0  0  0  0  0  0  0  0  0
   40.7720   34.9050   38.8650 C   0  0  0  0  0  0  0  0  0  0  0  0
   40.0450   35.6730   39.7810 C   0  0  0  0  0  0  0  0  0  0  0  0
   39.0400   35.9780   39.4920 H   0  0  0  0  0  0  0  0  0  0  0  0
   40.6380   36.0060   41.0040 C   0  0  0  0  0  0  0  0  0  0  0  0
   39.9740   36.5990   41.6170 H   0  0  0  0  0  0  0  0  0  0  0  0
   41.9120   35.5990   41.3270 C   0  0  0  0  0  0  0  0  0  0  0  0
   42.5570   34.8520   40.3810 C   0  0  0  0  0  0  0  0  0  0  0  0
   45.8480   34.5010   43.8340 C   0  0  0  0  0  0  0  0  0  0  0  0
   45.2490   34.5110   45.1020 C   0  0  0  0  0  0  0  0  0  0  0  0
   45.7360   33.6100   46.0290 C   0  0  0  0  0  0  0  0  0  0  0  0
   46.7350   32.7980   45.6600 N   0  0  0  0  0  0  0  0  0  0  0  0
   47.3050   32.7950   44.4380 C   0  0  0  0  0  0  0  0  0  0  0  0
   46.8610   33.6560   43.5070 N   0  0  0  0  0  0  0  0  0  0  0  0
   45.2640   33.6310   47.0010 H   0  0  0  0  0  0  0  0  0  0  0  0
   48.1060   32.1300   44.1720 H   0  0  0  0  0  0  0  0  0  0  0  0
   44.2070   35.4470   45.2880 N   0  0  0  0  0  0  0  0  0  0  0  0
   44.2110   36.4940   45.2360 H   0  0  0  0  0  0  0  0  0  0  0  0
   43.3630   34.8870   45.5020 H   0  0  0  0  0  0  0  0  0  0  0  0
  1  2  2  0  0  0  0
  1  3  1  0  0  0  0
  3 17  1  0  0  0  0
  4  3  1  0  0  0  0
  5  1  1  0  0  0  0
  6  5  2  0  0  0  0
  7  6  1  0  0  0  0
  8  7  2  0  0  0  0
  8  9  1  0  0  0  0
  9 16  1  0  0  0  0
 10  9  2  0  0  0  0
 10 11  1  0  0  0  0
 11 13  2  0  0  0  0
 12 11  1  0  0  0  0
 13 15  1  0  0  0  0
 13 14  1  0  0  0  0
 16  5  1  0  0  0  0
 16 15  2  0  0  0  0
 17 18  1  0  0  0  0
 18 25  1  0  0  0  0
 18 19  2  0  0  0  0
 19 23  1  0  0  0  0
 20 19  1  0  0  0  0
 21 20  2  0  0  0  0
 22 17  2  0  0  0  0
 22 21  1  0  0  0  0
 24 21  1  0  0  0  0
 25 27  1  0  0  0  0
 26 25  1  0  0  0  0
M  END
>  <minimizedAffinity>
-6.17524815

>  <minimizedRMSD>
1.81665373

$$$$
