
 OpenBabel03252501323D

 27 29  0  0  0  0  0  0  0  0999 V2000
   44.6660   34.6320   41.7900 C   0  0  0  0  0  0  0  0  0  0  0  0
   44.2590   33.5160   42.3140 O   0  0  0  0  0  0  0  0  0  0  0  0
   45.6360   35.2840   42.5710 N   0  0  0  0  0  0  0  0  0  0  0  0
   45.8110   36.0780   41.9860 H   0  0  0  0  0  0  0  0  0  0  0  0
   43.7890   34.4480   40.6750 C   0  0  0  0  0  0  0  0  0  0  0  0
   44.5000   33.6920   39.8200 N   0  0  0  0  0  0  0  0  0  0  0  0
   43.9720   33.3100   38.6180 C   0  0  0  0  0  3  0  0  0  0  0  0
   42.7350   33.7250   38.3570 N   0  0  0  0  0  0  0  0  0  0  0  0
   41.9940   34.4750   39.1760 C   0  0  0  0  0  0  0  0  0  0  0  0
   40.7010   34.9140   38.9130 C   0  0  0  0  0  3  0  0  0  0  0  0
   40.0160   35.6990   39.8470 C   0  0  0  0  0  0  0  0  0  0  0  0
   39.0050   36.0150   39.5900 H   0  0  0  0  0  0  0  0  0  0  0  0
   40.6520   36.0330   41.0490 C   0  0  0  0  0  0  0  0  0  0  0  0
   40.0170   36.6390   41.6780 H   0  0  0  0  0  0  0  0  0  0  0  0
   41.9320   35.6100   41.3310 C   0  0  0  0  0  3  0  0  0  0  0  0
   42.5350   34.8490   40.3690 C   0  0  0  0  0  0  0  0  0  0  0  0
   45.8740   34.5170   43.7550 C   0  0  0  0  0  0  0  0  0  0  0  0
   45.1600   34.6180   44.9570 C   0  0  0  0  0  0  0  0  0  0  0  0
   45.5530   33.7880   45.9880 C   0  0  0  0  0  0  0  0  0  0  0  0
   46.5780   32.9520   45.7740 N   0  0  0  0  0  0  0  0  0  0  0  0
   47.2590   32.8610   44.6140 C   0  0  0  0  0  0  0  0  0  0  0  0
   46.9080   33.6520   43.5860 N   0  0  0  0  0  0  0  0  0  0  0  0
   44.9930   33.8780   46.9080 H   0  0  0  0  0  0  0  0  0  0  0  0
   48.0770   32.1790   44.4720 H   0  0  0  0  0  0  0  0  0  0  0  0
   44.1100   35.5630   44.9770 N   0  0  0  0  0  0  0  0  0  0  0  0
   44.1240   36.6040   44.8500 H   0  0  0  0  0  0  0  0  0  0  0  0
   43.2470   35.0190   45.1520 H   0  0  0  0  0  0  0  0  0  0  0  0
  1  2  2  0  0  0  0
  1  3  1  0  0  0  0
  3 17  1  0  0  0  0
  4  3  1  0  0  0  0
  5  1  1  0  0  0  0
  6  5  2  0  0  0  0
  7  6  1  0  0  0  0
  8  7  2  0  0  0  0
  8  9  1  0  0  0  0
  9 16  1  0  0  0  0
 10  9  2  0  0  0  0
 10 11  1  0  0  0  0
 11 13  2  0  0  0  0
 12 11  1  0  0  0  0
 13 15  1  0  0  0  0
 13 14  1  0  0  0  0
 16  5  1  0  0  0  0
 16 15  2  0  0  0  0
 17 18  1  0  0  0  0
 18 25  1  0  0  0  0
 18 19  2  0  0  0  0
 19 23  1  0  0  0  0
 20 19  1  0  0  0  0
 21 20  2  0  0  0  0
 22 17  2  0  0  0  0
 22 21  1  0  0  0  0
 24 21  1  0  0  0  0
 25 27  1  0  0  0  0
 26 25  1  0  0  0  0
M  END
>  <minimizedAffinity>
-6.15359974

>  <minimizedRMSD>
1.90911102

$$$$
