
 OpenBabel03242523303D

 25 27  0  0  0  0  0  0  0  0999 V2000
   46.8370   31.7370   45.4780 S   0  0  0  0  0  0  0  0  0  0  0  0
   45.6200   30.6140   44.8100 C   0  0  0  0  0  0  0  0  0  0  0  0
   45.0500   30.7090   43.5840 N   0  0  0  0  0  0  0  0  0  0  0  0
   44.1370   29.7960   43.1960 C   0  0  0  0  0  3  0  0  0  0  0  0
   43.7640   28.7680   44.0050 N   0  0  0  0  0  0  0  0  0  0  0  0
   44.3050   28.6260   45.2480 C   0  0  0  0  0  0  0  0  0  0  0  0
   43.8940   27.5690   46.0340 C   0  0  0  0  0  3  0  0  0  0  0  0
   44.4680   27.4520   47.3030 C   0  0  0  0  0  0  0  0  0  0  0  0
   44.2270   26.6690   48.0060 H   0  0  0  0  0  0  0  0  0  0  0  0
   45.4020   28.3690   47.7260 C   0  0  0  0  0  0  0  0  0  0  0  0
   45.8790   28.3170   48.7110 H   0  0  0  0  0  0  0  0  0  0  0  0
   45.7720   29.4050   46.8910 C   0  0  0  0  0  3  0  0  0  0  0  0
   45.2350   29.5700   45.6220 C   0  0  0  0  0  0  0  0  0  0  0  0
   45.9770   33.1090   46.3150 C   0  0  0  0  0  0  0  0  0  0  0  0
   46.6070   33.5280   47.1330 H   0  0  0  0  0  0  0  0  0  0  0  0
   45.0390   32.7660   46.7870 H   0  0  0  0  0  0  0  0  0  0  0  0
   44.4980   35.9900   44.4750 C   0  0  0  0  0  0  0  0  0  0  0  0
   45.2030   35.9150   43.2640 C   0  0  0  0  0  0  0  0  0  0  0  0
   46.1580   34.8950   43.1020 C   0  0  0  0  0  0  0  0  0  0  0  0
   46.3630   34.0160   44.1270 N   0  0  0  0  0  0  0  0  0  0  0  0
   45.6520   34.1270   45.2930 C   0  0  0  0  0  0  0  0  0  0  0  0
   44.7480   35.0960   45.4420 N   0  0  0  0  0  0  0  0  0  0  0  0
   43.7760   36.7840   44.5650 H   0  0  0  0  0  0  0  0  0  0  0  0
   45.0840   36.5760   42.4220 H   0  0  0  0  0  0  0  0  0  0  0  0
   46.7380   34.7640   42.2140 H   0  0  0  0  0  0  0  0  0  0  0  0
  1 14  1  0  0  0  0
  2  1  1  0  0  0  0
  2 13  1  0  0  0  0
  3  2  2  0  0  0  0
  4  3  1  0  0  0  0
  4  5  2  0  0  0  0
  5  6  1  0  0  0  0
  6 13  2  0  0  0  0
  6  7  1  0  0  0  0
  7  8  2  0  0  0  0
  8 10  1  0  0  0  0
  8  9  1  0  0  0  0
 10 11  1  0  0  0  0
 12 10  2  0  0  0  0
 13 12  1  0  0  0  0
 14 16  1  0  0  0  0
 14 15  1  0  0  0  0
 17 23  1  0  0  0  0
 17 22  1  0  0  0  0
 18 17  2  0  0  0  0
 19 18  1  0  0  0  0
 19 20  2  0  0  0  0
 20 21  1  0  0  0  0
 21 22  2  0  0  0  0
 21 14  1  0  0  0  0
 24 18  1  0  0  0  0
 25 19  1  0  0  0  0
M  END
>  <minimizedAffinity>
-4.25328875

>  <minimizedRMSD>
0.961415112

$$$$
