
 OpenBabel03242517483D

 46 50  0  0  0  0  0  0  0  0999 V2000
   38.5400   31.7720   41.1560 C   0  0  0  0  0  0  0  0  0  0  0  0
   39.8940   31.7200   40.8130 C   0  0  0  0  0  0  0  0  0  0  0  0
   40.3710   30.5470   40.2780 C   0  0  0  0  0  0  0  0  0  0  0  0
   39.5160   29.5060   40.1090 N   0  0  0  0  0  0  0  0  0  0  0  0
   38.2040   29.5920   40.4540 C   0  0  0  0  0  0  0  0  0  0  0  0
   37.6960   30.7020   40.9750 N   0  0  0  0  0  0  0  0  0  0  0  0
   38.1040   32.6790   41.5870 H   0  0  0  0  0  0  0  0  0  0  0  0
   41.4180   30.4780   40.0020 H   0  0  0  0  0  0  0  0  0  0  0  0
   37.3580   28.4020   40.2320 C   0  0  0  0  0  0  0  0  0  0  0  0
   37.4180   27.7880   41.1640 H   0  0  0  0  0  0  0  0  0  0  0  0
   37.6820   27.7850   39.3970 H   0  0  0  0  0  0  0  0  0  0  0  0
   35.8860   28.8060   40.0740 C   0  0  0  0  0  0  0  0  0  0  0  0
   35.3320   28.5550   41.0020 H   0  0  0  0  0  0  0  0  0  0  0  0
   35.7860   29.8730   39.8570 H   0  0  0  0  0  0  0  0  0  0  0  0
   35.3430   27.9500   38.9850 C   0  0  0  0  0  0  0  0  0  0  0  0
   36.0790   27.1690   38.1740 N   0  0  0  0  0  0  0  0  0  0  0  0
   35.5410   26.4120   37.2040 C   0  0  0  0  0  3  0  0  0  0  0  0
   34.2160   26.3910   36.9850 N   0  0  0  0  0  0  0  0  0  0  0  0
   33.4060   27.1500   37.7590 C   0  0  0  0  0  0  0  0  0  0  0  0
   32.0550   27.0960   37.4970 C   0  0  0  0  0  3  0  0  0  0  0  0
   31.2000   27.8520   38.2620 C   0  0  0  0  0  0  0  0  0  0  0  0
   30.1240   27.8630   38.1160 H   0  0  0  0  0  0  0  0  0  0  0  0
   31.7310   28.6290   39.2560 C   0  0  0  0  0  0  0  0  0  0  0  0
   31.0600   29.2250   39.8580 H   0  0  0  0  0  0  0  0  0  0  0  0
   33.0870   28.6920   39.5300 C   0  0  0  0  0  3  0  0  0  0  0  0
   33.9630   27.9300   38.7600 C   0  0  0  0  0  0  0  0  0  0  0  0
   40.9540   33.1100   41.0580 S   0  0  0  0  0  0  0  0  0  0  0  0
   40.9460   34.1550   39.6300 C   0  0  0  0  0  0  0  0  0  0  0  0
   39.8750   34.2370   38.7510 C   0  0  0  0  0  0  0  0  0  0  0  0
   39.9480   35.0830   37.6540 C   0  0  0  0  0  0  0  0  0  0  0  0
   41.0550   35.8430   37.4130 C   0  0  0  0  0  0  0  0  0  0  0  0
   42.1160   35.7560   38.2930 C   0  0  0  0  0  0  0  0  0  0  0  0
   42.0750   34.9230   39.3950 C   0  0  0  0  0  0  0  0  0  0  0  0
   39.0100   33.6320   38.9520 H   0  0  0  0  0  0  0  0  0  0  0  0
   39.0530   35.0700   37.0280 H   0  0  0  0  0  0  0  0  0  0  0  0
   41.0060   36.4550   36.5450 H   0  0  0  0  0  0  0  0  0  0  0  0
   42.9750   36.3770   38.0660 H   0  0  0  0  0  0  0  0  0  0  0  0
   43.2010   34.8450   40.3110 C   0  0  0  0  0  0  0  0  0  0  0  0
   44.2620   34.0060   40.1630 C   0  0  0  0  0  0  0  0  0  0  0  0
   45.3340   33.9470   41.0550 C   0  0  0  0  0  0  0  0  0  0  0  0
   45.3180   34.7630   42.1200 N   0  0  0  0  0  0  0  0  0  0  0  0
   44.2670   35.6000   42.2750 C   0  0  0  0  0  0  0  0  0  0  0  0
   43.2370   35.6440   41.4020 N   0  0  0  0  0  0  0  0  0  0  0  0
   44.2870   33.3390   39.3010 H   0  0  0  0  0  0  0  0  0  0  0  0
   46.1500   33.2630   40.8870 H   0  0  0  0  0  0  0  0  0  0  0  0
   44.1220   36.3190   43.0970 H   0  0  0  0  0  0  0  0  0  0  0  0
  1  7  1  0  0  0  0
  2 27  1  0  0  0  0
  2  1  2  0  0  0  0
  3  2  1  0  0  0  0
  4  3  2  0  0  0  0
  4  5  1  0  0  0  0
  5  6  2  0  0  0  0
  6  1  1  0  0  0  0
  8  3  1  0  0  0  0
  9  5  1  0  0  0  0
  9 10  1  0  0  0  0
 11  9  1  0  0  0  0
 12  9  1  0  0  0  0
 12 13  1  0  0  0  0
 14 12  1  0  0  0  0
 15 12  1  0  0  0  0
 16 15  2  0  0  0  0
 17 16  1  0  0  0  0
 18 17  2  0  0  0  0
 18 19  1  0  0  0  0
 19 26  1  0  0  0  0
 20 19  2  0  0  0  0
 20 21  1  0  0  0  0
 21 23  2  0  0  0  0
 22 21  1  0  0  0  0
 23 25  1  0  0  0  0
 23 24  1  0  0  0  0
 26 15  1  0  0  0  0
 26 25  2  0  0  0  0
 28 27  1  0  0  0  0
 29 34  1  0  0  0  0
 29 28  2  0  0  0  0
 30 29  1  0  0  0  0
 31 30  2  0  0  0  0
 31 32  1  0  0  0  0
 32 33  2  0  0  0  0
 33 28  1  0  0  0  0
 33 38  1  0  0  0  0
 35 30  1  0  0  0  0
 36 31  1  0  0  0  0
 37 32  1  0  0  0  0
 38 43  1  0  0  0  0
 39 38  2  0  0  0  0
 39 40  1  0  0  0  0
 40 41  2  0  0  0  0
 41 42  1  0  0  0  0
 42 46  1  0  0  0  0
 43 42  2  0  0  0  0
 44 39  1  0  0  0  0
 45 40  1  0  0  0  0
M  END
>  <minimizedAffinity>
-5.90153074

>  <minimizedRMSD>
2.29771042

$$$$
