
 OpenBabel03252501573D

 34 37  0  0  0  0  0  0  0  0999 V2000
   44.2850   35.4730   44.1970 C   0  0  0  0  0  0  0  0  0  0  0  0
   44.9310   35.1450   42.9990 C   0  0  0  0  0  0  0  0  0  0  0  0
   46.0720   34.3460   43.1050 C   0  0  0  0  0  0  0  0  0  0  0  0
   46.4900   33.9360   44.3290 N   0  0  0  0  0  0  0  0  0  0  0  0
   45.8230   34.2860   45.4530 C   0  0  0  0  0  0  0  0  0  0  0  0
   44.7160   35.0560   45.4090 N   0  0  0  0  0  0  0  0  0  0  0  0
   43.3940   36.0850   44.2480 H   0  0  0  0  0  0  0  0  0  0  0  0
   46.3010   33.8670   46.3370 H   0  0  0  0  0  0  0  0  0  0  0  0
   46.7740   33.9930   41.8790 C   0  0  0  0  0  0  0  0  0  0  0  0
   47.4910   34.8240   41.0330 C   0  0  0  0  0  0  0  0  0  0  0  0
   48.0880   34.2870   39.9020 C   0  0  0  0  0  0  0  0  0  0  0  0
   47.9680   32.9500   39.6250 C   0  0  0  0  0  0  0  0  0  0  0  0
   47.2540   32.1140   40.4630 C   0  0  0  0  0  0  0  0  0  0  0  0
   46.6630   32.6560   41.5860 C   0  0  0  0  0  0  0  0  0  0  0  0
   47.5140   35.8550   41.3550 H   0  0  0  0  0  0  0  0  0  0  0  0
   48.6360   34.9800   39.2760 H   0  0  0  0  0  0  0  0  0  0  0  0
   48.4680   32.6450   38.7250 H   0  0  0  0  0  0  0  0  0  0  0  0
   47.2070   31.0770   40.1740 H   0  0  0  0  0  0  0  0  0  0  0  0
   46.1300   31.8970   42.1720 H   0  0  0  0  0  0  0  0  0  0  0  0
   44.3870   35.6470   41.7450 C   0  0  0  0  0  0  0  0  0  0  0  0
   45.0700   35.2410   40.9380 H   0  0  0  0  0  0  0  0  0  0  0  0
   44.4490   36.7510   41.7440 H   0  0  0  0  0  0  0  0  0  0  0  0
   43.0360   35.2230   41.3840 C   0  0  0  0  0  0  0  0  0  0  0  0
   41.8540   35.5540   41.9390 N   0  0  0  0  0  0  0  0  0  0  0  0
   40.6860   35.0680   41.4560 C   0  0  0  0  0  3  0  0  0  0  0  0
   40.6250   34.2260   40.3980 N   0  0  0  0  0  0  0  0  0  0  0  0
   41.8100   33.8720   39.8130 C   0  0  0  0  0  0  0  0  0  0  0  0
   41.6370   33.0050   38.7330 C   0  0  0  0  0  3  0  0  0  0  0  0
   42.8520   32.6490   38.1420 C   0  0  0  0  0  0  0  0  0  0  0  0
   42.7830   31.9700   37.2860 H   0  0  0  0  0  0  0  0  0  0  0  0
   44.0960   33.0780   38.5430 C   0  0  0  0  0  0  0  0  0  0  0  0
   44.9870   32.7530   38.0290 H   0  0  0  0  0  0  0  0  0  0  0  0
   44.1010   33.9190   39.6090 C   0  0  0  0  0  3  0  0  0  0  0  0
   42.9980   34.3670   40.3040 C   0  0  0  0  0  0  0  0  0  0  0  0
  1  7  1  0  0  0  0
  1  6  1  0  0  0  0
  2  3  1  0  0  0  0
  2  1  2  0  0  0  0
  3  4  2  0  0  0  0
  4  5  1  0  0  0  0
  5  8  1  0  0  0  0
  6  5  2  0  0  0  0
  9  3  1  0  0  0  0
 10 15  1  0  0  0  0
 10  9  2  0  0  0  0
 11 10  1  0  0  0  0
 12 11  2  0  0  0  0
 12 13  1  0  0  0  0
 13 14  2  0  0  0  0
 14  9  1  0  0  0  0
 14 19  1  0  0  0  0
 16 11  1  0  0  0  0
 17 12  1  0  0  0  0
 18 13  1  0  0  0  0
 20  2  1  0  0  0  0
 21 20  1  0  0  0  0
 22 20  1  0  0  0  0
 23 20  1  0  0  0  0
 23 24  1  0  0  0  0
 25 24  2  0  0  0  0
 26 25  1  0  0  0  0
 27 34  1  0  0  0  0
 27 26  2  0  0  0  0
 28 27  1  0  0  0  0
 29 31  1  0  0  0  0
 29 28  2  0  0  0  0
 30 29  1  0  0  0  0
 31 33  2  0  0  0  0
 32 31  1  0  0  0  0
 33 34  1  0  0  0  0
 34 23  2  0  0  0  0
M  END
>  <minimizedAffinity>
-5.4821887

>  <minimizedRMSD>
2.02599645

$$$$
