
 OpenBabel03252506463D

 45 49  0  0  1  0  0  0  0  0999 V2000
   49.2040   33.3010   41.2090 N   0  0  1  0  0  0  0  0  0  0  0  0
   50.5070   32.9790   41.7330 C   0  0  0  0  0  0  0  0  0  0  0  0
   51.0580   31.6610   41.2820 C   0  0  0  0  0  0  0  0  0  0  0  0
   50.1880   30.5560   41.8420 C   0  0  0  0  0  0  0  0  0  0  0  0
   48.7470   30.9700   41.8850 C   0  0  0  0  0  0  0  0  0  0  0  0
   48.5150   32.0730   40.8830 C   0  0  2  0  0  0  0  0  0  0  0  0
   50.4800   32.9540   42.8440 H   0  0  0  0  0  0  0  0  0  0  0  0
   51.1730   33.8160   41.4570 H   0  0  0  0  0  0  0  0  0  0  0  0
   52.0870   31.6020   41.7500 H   0  0  0  0  0  0  0  0  0  0  0  0
   51.2480   31.5620   40.2110 H   0  0  0  0  0  0  0  0  0  0  0  0
   50.3610   29.5870   41.3590 H   0  0  0  0  0  0  0  0  0  0  0  0
   50.5040   30.4390   42.9170 H   0  0  0  0  0  0  0  0  0  0  0  0
   48.0410   30.1600   41.6730 H   0  0  0  0  0  0  0  0  0  0  0  0
   48.4530   31.3840   42.8770 H   0  0  0  0  0  0  0  0  0  0  0  0
   47.4290   32.3010   40.9390 H   0  0  0  0  0  0  0  0  0  0  0  0
   48.7600   31.6000   39.5480 N   0  0  0  0  0  0  0  0  0  0  0  0
   49.7580   31.7120   39.2850 H   0  0  0  0  0  0  0  0  0  0  0  0
   47.8360   31.0580   38.6260 C   0  0  0  0  0  0  0  0  0  0  0  0
   46.8990   30.1510   38.9280 N   0  0  0  0  0  0  0  0  0  0  0  0
   46.0090   29.6140   38.1140 C   0  0  0  0  0  3  0  0  0  0  0  0
   46.0170   30.0040   36.8270 N   0  0  0  0  0  0  0  0  0  0  0  0
   46.9090   30.9090   36.3990 C   0  0  0  0  0  0  0  0  0  0  0  0
   46.8970   31.2870   35.0870 C   0  0  0  0  0  3  0  0  0  0  0  0
   47.7850   32.2120   34.5800 C   0  0  0  0  0  0  0  0  0  0  0  0
   47.7170   32.4600   33.5430 H   0  0  0  0  0  0  0  0  0  0  0  0
   48.6970   32.7420   35.4750 C   0  0  0  0  0  0  0  0  0  0  0  0
   49.3880   33.4660   35.0660 H   0  0  0  0  0  0  0  0  0  0  0  0
   48.6870   32.3460   36.7870 C   0  0  0  0  0  3  0  0  0  0  0  0
   47.8090   31.4260   37.3000 C   0  0  0  0  0  0  0  0  0  0  0  0
   47.1930   34.7380   41.9170 C   0  0  1  0  0  0  0  0  0  0  0  0
   48.4170   35.5670   41.8000 C   0  0  0  0  0  0  0  0  0  0  0  0
   48.5320   34.1330   42.1280 C   0  0  2  0  0  0  0  0  0  0  0  0
   46.6220   34.6110   40.9700 H   0  0  0  0  0  0  0  0  0  0  0  0
   48.6620   36.2850   42.6050 H   0  0  0  0  0  0  0  0  0  0  0  0
   48.7600   35.9290   40.7990 H   0  0  0  0  0  0  0  0  0  0  0  0
   48.7360   33.8670   43.2090 H   0  0  0  0  0  0  0  0  0  0  0  0
   45.4890   36.0920   43.1670 C   0  0  0  0  0  0  0  0  0  0  0  0
   46.3000   34.9510   43.0740 C   0  0  0  0  0  0  0  0  0  0  0  0
   46.2240   34.0020   44.1190 C   0  0  0  0  0  0  0  0  0  0  0  0
   45.3770   34.2450   45.1450 N   0  0  0  0  0  0  0  0  0  0  0  0
   44.6060   35.3480   45.2120 C   0  0  0  0  0  0  0  0  0  0  0  0
   44.6540   36.2890   44.2180 N   0  0  0  0  0  0  0  0  0  0  0  0
   45.5490   36.8160   42.3670 H   0  0  0  0  0  0  0  0  0  0  0  0
   46.8360   33.1110   44.0800 H   0  0  0  0  0  0  0  0  0  0  0  0
   43.9750   35.4120   46.0910 H   0  0  0  0  0  0  0  0  0  0  0  0
  1  2  1  1  0  0  0
  1 32  1  0  0  0  0
  2  7  1  0  0  0  0
  3  2  1  0  0  0  0
  3  9  1  0  0  0  0
  3  4  1  0  0  0  0
  4  5  1  0  0  0  0
  4 12  1  0  0  0  0
  5 14  1  0  0  0  0
  6 15  1  1  0  0  0
  6  1  1  0  0  0  0
  6  5  1  0  0  0  0
  8  2  1  0  0  0  0
 10  3  1  0  0  0  0
 11  4  1  0  0  0  0
 13  5  1  0  0  0  0
 16  6  1  0  0  0  0
 17 16  1  0  0  0  0
 18 19  1  0  0  0  0
 18 16  1  0  0  0  0
 20 19  2  0  0  0  0
 21 20  1  0  0  0  0
 22 21  2  0  0  0  0
 22 29  1  0  0  0  0
 23 22  1  0  0  0  0
 24 23  2  0  0  0  0
 24 26  1  0  0  0  0
 25 24  1  0  0  0  0
 26 28  2  0  0  0  0
 27 26  1  0  0  0  0
 28 29  1  0  0  0  0
 29 18  2  0  0  0  0
 30 33  1  6  0  0  0
 30 32  1  0  0  0  0
 30 38  1  0  0  0  0
 31 30  1  0  0  0  0
 31 32  1  0  0  0  0
 31 34  1  0  0  0  0
 32 36  1  1  0  0  0
 35 31  1  0  0  0  0
 37 42  1  0  0  0  0
 38 37  2  0  0  0  0
 38 39  1  0  0  0  0
 39 40  2  0  0  0  0
 40 41  1  0  0  0  0
 41 45  1  0  0  0  0
 42 41  2  0  0  0  0
 43 37  1  0  0  0  0
 44 39  1  0  0  0  0
M  END
>  <minimizedAffinity>
-5.45651579

>  <minimizedRMSD>
1.86631727

$$$$
