
 OpenBabel03252506213D

 38 41  0  0  0  0  0  0  0  0999 V2000
   45.2250   37.1680   43.5170 C   0  0  0  0  0  0  0  0  0  0  0  0
   44.1740   37.0150   42.5950 C   0  0  0  0  0  0  0  0  0  0  0  0
   44.2340   35.9150   41.7290 C   0  0  0  0  0  0  0  0  0  0  0  0
   45.2880   35.0630   41.8160 N   0  0  0  0  0  0  0  0  0  0  0  0
   46.2770   35.2560   42.7230 C   0  0  0  0  0  0  0  0  0  0  0  0
   46.2370   36.3000   43.5580 N   0  0  0  0  0  0  0  0  0  0  0  0
   43.3470   37.6750   42.5200 H   0  0  0  0  0  0  0  0  0  0  0  0
   43.4600   35.7310   40.9920 H   0  0  0  0  0  0  0  0  0  0  0  0
   48.8810   36.2300   41.5290 Cl  0  0  0  0  0  0  0  0  0  0  0  0
   48.6010   34.6670   42.2190 C   0  0  0  0  0  0  0  0  0  0  0  0
   47.3880   34.2780   42.7480 C   0  0  0  0  0  0  0  0  0  0  0  0
   47.1310   33.0470   43.3000 C   0  0  0  0  0  0  0  0  0  0  0  0
   48.1820   32.1680   43.3080 C   0  0  0  0  0  0  0  0  0  0  0  0
   49.4310   32.4290   42.8160 C   0  0  0  0  0  0  0  0  0  0  0  0
   49.5980   33.7060   42.2730 C   0  0  0  0  0  0  0  0  0  0  0  0
   46.1670   32.7830   43.7040 H   0  0  0  0  0  0  0  0  0  0  0  0
   48.0590   31.1610   43.7320 H   0  0  0  0  0  0  0  0  0  0  0  0
   50.2270   31.7140   42.8410 H   0  0  0  0  0  0  0  0  0  0  0  0
   50.5680   33.9580   41.8740 H   0  0  0  0  0  0  0  0  0  0  0  0
   45.1800   38.3160   44.4340 C   0  0  0  0  0  3  0  0  0  0  0  0
   45.0630   39.5130   43.9370 C   0  0  0  0  0  3  0  0  0  0  0  0
   45.0090   40.6980   44.8260 C   0  0  0  0  0  0  0  0  0  0  0  0
   44.2660   40.5930   45.6390 H   0  0  0  0  0  0  0  0  0  0  0  0
   46.0360   40.7880   45.2870 H   0  0  0  0  0  0  0  0  0  0  0  0
   44.8240   41.8840   44.0160 N   0  0  0  0  0  0  0  0  0  0  0  0
   44.8520   41.7840   42.9870 H   0  0  0  0  0  0  0  0  0  0  0  0
   44.6150   43.1080   44.7100 C   0  0  0  0  0  0  0  0  0  0  0  0
   45.6160   43.7550   45.3250 N   0  0  0  0  0  0  0  0  0  0  0  0
   45.5090   44.9010   45.9930 C   0  0  0  0  0  3  0  0  0  0  0  0
   44.3090   45.4720   46.0690 N   0  0  0  0  0  0  0  0  0  0  0  0
   43.2170   44.9080   45.4840 C   0  0  0  0  0  0  0  0  0  0  0  0
   42.0050   45.5570   45.6040 C   0  0  0  0  0  3  0  0  0  0  0  0
   40.9470   44.9260   44.9890 C   0  0  0  0  0  0  0  0  0  0  0  0
   39.9740   45.4100   45.0640 H   0  0  0  0  0  0  0  0  0  0  0  0
   41.0240   43.7450   44.2930 C   0  0  0  0  0  0  0  0  0  0  0  0
   40.1570   43.2870   43.8240 H   0  0  0  0  0  0  0  0  0  0  0  0
   42.2800   43.1600   44.2210 C   0  0  0  0  0  3  0  0  0  0  0  0
   43.3860   43.7210   44.8060 C   0  0  0  0  0  0  0  0  0  0  0  0
  1  6  1  0  0  0  0
  1 20  1  0  0  0  0
  2  1  2  0  0  0  0
  3  4  2  0  0  0  0
  3  2  1  0  0  0  0
  4  5  1  0  0  0  0
  5 11  1  0  0  0  0
  5  6  2  0  0  0  0
  7  2  1  0  0  0  0
  8  3  1  0  0  0  0
  9 10  1  0  0  0  0
 10 15  2  0  0  0  0
 10 11  1  0  0  0  0
 11 12  2  0  0  0  0
 12 13  1  0  0  0  0
 12 16  1  0  0  0  0
 13 17  1  0  0  0  0
 14 18  1  0  0  0  0
 14 13  2  0  0  0  0
 15 14  1  0  0  0  0
 19 15  1  0  0  0  0
 21 20  2  0  0  0  0
 21 22  1  0  0  0  0
 22 24  1  0  0  0  0
 22 23  1  0  0  0  0
 25 27  1  0  0  0  0
 25 22  1  0  0  0  0
 26 25  1  0  0  0  0
 27 38  2  0  0  0  0
 27 28  1  0  0  0  0
 28 29  2  0  0  0  0
 29 30  1  0  0  0  0
 31 32  1  0  0  0  0
 31 30  2  0  0  0  0
 33 34  1  0  0  0  0
 33 32  2  0  0  0  0
 35 33  1  0  0  0  0
 36 35  1  0  0  0  0
 37 35  2  0  0  0  0
 37 38  1  0  0  0  0
 38 31  1  0  0  0  0
M  END
>  <minimizedAffinity>
2.16445279

>  <minimizedRMSD>
1.48785067

$$$$
