
 OpenBabel03252501573D

 34 37  0  0  0  0  0  0  0  0999 V2000
   40.4510   32.0460   41.3720 C   0  0  0  0  0  0  0  0  0  0  0  0
   39.4330   31.1050   41.5640 C   0  0  0  0  0  0  0  0  0  0  0  0
   39.7870   29.9330   42.2390 C   0  0  0  0  0  0  0  0  0  0  0  0
   41.0640   29.7660   42.6640 N   0  0  0  0  0  0  0  0  0  0  0  0
   42.0060   30.7140   42.4480 C   0  0  0  0  0  0  0  0  0  0  0  0
   41.7200   31.8630   41.8020 N   0  0  0  0  0  0  0  0  0  0  0  0
   40.3040   32.9900   40.8640 H   0  0  0  0  0  0  0  0  0  0  0  0
   42.9680   30.4080   42.8570 H   0  0  0  0  0  0  0  0  0  0  0  0
   38.7540   28.9290   42.4480 C   0  0  0  0  0  0  0  0  0  0  0  0
   37.8130   28.8650   43.4640 C   0  0  0  0  0  0  0  0  0  0  0  0
   36.9100   27.8130   43.4860 C   0  0  0  0  0  0  0  0  0  0  0  0
   36.9490   26.8470   42.5130 C   0  0  0  0  0  0  0  0  0  0  0  0
   37.8840   26.9020   41.4970 C   0  0  0  0  0  0  0  0  0  0  0  0
   38.7790   27.9530   41.4830 C   0  0  0  0  0  0  0  0  0  0  0  0
   37.8810   29.6800   44.1690 H   0  0  0  0  0  0  0  0  0  0  0  0
   36.1970   27.8120   44.3000 H   0  0  0  0  0  0  0  0  0  0  0  0
   36.2050   26.0820   42.6300 H   0  0  0  0  0  0  0  0  0  0  0  0
   37.8490   26.1050   40.7740 H   0  0  0  0  0  0  0  0  0  0  0  0
   39.4660   27.8890   40.6300 H   0  0  0  0  0  0  0  0  0  0  0  0
   38.0980   31.3970   41.0600 C   0  0  0  0  0  0  0  0  0  0  0  0
   37.9550   32.5090   41.2200 H   0  0  0  0  0  0  0  0  0  0  0  0
   37.3580   30.8490   41.6710 H   0  0  0  0  0  0  0  0  0  0  0  0
   37.8510   31.1560   39.6400 C   0  0  0  0  0  0  0  0  0  0  0  0
   38.5550   31.5570   38.5640 N   0  0  0  0  0  0  0  0  0  0  0  0
   38.1770   31.2230   37.3080 C   0  0  0  0  0  3  0  0  0  0  0  0
   37.0800   30.4740   37.0480 N   0  0  0  0  0  0  0  0  0  0  0  0
   36.3440   30.0520   38.1210 C   0  0  0  0  0  0  0  0  0  0  0  0
   35.2360   29.2890   37.7460 C   0  0  0  0  0  3  0  0  0  0  0  0
   34.4910   28.8630   38.8480 C   0  0  0  0  0  0  0  0  0  0  0  0
   33.6090   28.2570   38.6200 H   0  0  0  0  0  0  0  0  0  0  0  0
   34.7770   29.1380   40.1650 C   0  0  0  0  0  0  0  0  0  0  0  0
   34.1460   28.7690   40.9590 H   0  0  0  0  0  0  0  0  0  0  0  0
   35.8860   29.8930   40.3690 C   0  0  0  0  0  3  0  0  0  0  0  0
   36.7280   30.3920   39.4000 C   0  0  0  0  0  0  0  0  0  0  0  0
  1  2  2  0  0  0  0
  1  6  1  0  0  0  0
  2  3  1  0  0  0  0
  3  9  1  0  0  0  0
  3  4  2  0  0  0  0
  5  4  1  0  0  0  0
  5  8  1  0  0  0  0
  6  5  2  0  0  0  0
  7  1  1  0  0  0  0
  9 10  1  0  0  0  0
 10 11  2  0  0  0  0
 10 15  1  0  0  0  0
 11 16  1  0  0  0  0
 12 17  1  0  0  0  0
 12 11  1  0  0  0  0
 13 12  2  0  0  0  0
 14 13  1  0  0  0  0
 14  9  2  0  0  0  0
 18 13  1  0  0  0  0
 19 14  1  0  0  0  0
 20 21  1  0  0  0  0
 20  2  1  0  0  0  0
 20 22  1  0  0  0  0
 23 20  1  0  0  0  0
 24 23  2  0  0  0  0
 25 24  1  0  0  0  0
 26 25  2  0  0  0  0
 26 27  1  0  0  0  0
 27 34  1  0  0  0  0
 28 27  2  0  0  0  0
 28 29  1  0  0  0  0
 29 31  2  0  0  0  0
 30 29  1  0  0  0  0
 31 33  1  0  0  0  0
 31 32  1  0  0  0  0
 34 23  1  0  0  0  0
 34 33  2  0  0  0  0
M  END
>  <minimizedAffinity>
-5.92346334

$$$$

 OpenBabel03252501573D

 34 37  0  0  0  0  0  0  0  0999 V2000
   39.6790   32.0920   40.7180 C   0  0  0  0  0  0  0  0  0  0  0  0
   38.7910   31.1170   40.2470 C   0  0  0  0  0  0  0  0  0  0  0  0
   37.5870   31.5800   39.7090 C   0  0  0  0  0  0  0  0  0  0  0  0
   37.3410   32.9130   39.6690 N   0  0  0  0  0  0  0  0  0  0  0  0
   38.2400   33.8080   40.1390 C   0  0  0  0  0  0  0  0  0  0  0  0
   39.4180   33.4170   40.6700 N   0  0  0  0  0  0  0  0  0  0  0  0
   40.6410   31.8620   41.1560 H   0  0  0  0  0  0  0  0  0  0  0  0
   37.8730   34.8270   40.0250 H   0  0  0  0  0  0  0  0  0  0  0  0
   36.6360   30.5920   39.2180 C   0  0  0  0  0  0  0  0  0  0  0  0
   36.5520   30.0390   37.9510 C   0  0  0  0  0  0  0  0  0  0  0  0
   35.5600   29.1070   37.6830 C   0  0  0  0  0  0  0  0  0  0  0  0
   34.6730   28.7390   38.6620 C   0  0  0  0  0  0  0  0  0  0  0  0
   34.7490   29.2870   39.9280 C   0  0  0  0  0  0  0  0  0  0  0  0
   35.7390   30.2130   40.1870 C   0  0  0  0  0  0  0  0  0  0  0  0
   37.3030   30.4060   37.2670 H   0  0  0  0  0  0  0  0  0  0  0  0
   35.5400   28.7060   36.6770 H   0  0  0  0  0  0  0  0  0  0  0  0
   33.9490   28.0130   38.3430 H   0  0  0  0  0  0  0  0  0  0  0  0
   34.0160   28.9460   40.6390 H   0  0  0  0  0  0  0  0  0  0  0  0
   35.7000   30.5710   41.2230 H   0  0  0  0  0  0  0  0  0  0  0  0
   39.1670   29.7140   40.3460 C   0  0  0  0  0  0  0  0  0  0  0  0
   40.2920   29.7140   40.4840 H   0  0  0  0  0  0  0  0  0  0  0  0
   38.9240   29.2110   39.3920 H   0  0  0  0  0  0  0  0  0  0  0  0
   38.6210   28.9510   41.4660 C   0  0  0  0  0  0  0  0  0  0  0  0
   38.5560   29.2700   42.7730 N   0  0  0  0  0  0  0  0  0  0  0  0
   37.9950   28.4330   43.6780 C   0  0  0  0  0  3  0  0  0  0  0  0
   37.4680   27.2340   43.3370 N   0  0  0  0  0  0  0  0  0  0  0  0
   37.5200   26.8820   42.0160 C   0  0  0  0  0  0  0  0  0  0  0  0
   36.9510   25.6300   41.7710 C   0  0  0  0  0  3  0  0  0  0  0  0
   37.0090   25.2790   40.4210 C   0  0  0  0  0  0  0  0  0  0  0  0
   36.5770   24.3080   40.1630 H   0  0  0  0  0  0  0  0  0  0  0  0
   37.5520   26.0460   39.4140 C   0  0  0  0  0  0  0  0  0  0  0  0
   37.5560   25.6980   38.3930 H   0  0  0  0  0  0  0  0  0  0  0  0
   38.0660   27.2370   39.8110 C   0  0  0  0  0  3  0  0  0  0  0  0
   38.0910   27.7340   41.0960 C   0  0  0  0  0  0  0  0  0  0  0  0
  1  7  1  0  0  0  0
  2 20  1  0  0  0  0
  2  1  2  0  0  0  0
  3  2  1  0  0  0  0
  4  3  2  0  0  0  0
  4  5  1  0  0  0  0
  5  6  2  0  0  0  0
  6  1  1  0  0  0  0
  8  5  1  0  0  0  0
  9  3  1  0  0  0  0
  9 14  1  0  0  0  0
 10  9  2  0  0  0  0
 11 10  1  0  0  0  0
 11 12  2  0  0  0  0
 12 13  1  0  0  0  0
 13 14  2  0  0  0  0
 13 18  1  0  0  0  0
 14 19  1  0  0  0  0
 15 10  1  0  0  0  0
 16 11  1  0  0  0  0
 17 12  1  0  0  0  0
 20 21  1  0  0  0  0
 20 23  1  0  0  0  0
 22 20  1  0  0  0  0
 23 24  1  0  0  0  0
 24 25  2  0  0  0  0
 26 25  1  0  0  0  0
 27 26  2  0  0  0  0
 28 27  1  0  0  0  0
 29 28  2  0  0  0  0
 30 29  1  0  0  0  0
 31 33  2  0  0  0  0
 31 29  1  0  0  0  0
 32 31  1  0  0  0  0
 33 34  1  0  0  0  0
 34 23  2  0  0  0  0
 34 27  1  0  0  0  0
M  END
>  <minimizedAffinity>
-5.90345669

$$$$

 OpenBabel03252501573D

 34 37  0  0  0  0  0  0  0  0999 V2000
   35.8520   29.1270   39.0330 C   0  0  0  0  0  0  0  0  0  0  0  0
   36.6150   30.1780   39.5560 C   0  0  0  0  0  0  0  0  0  0  0  0
   37.2380   31.0170   38.6280 C   0  0  0  0  0  0  0  0  0  0  0  0
   37.0800   30.7810   37.3020 N   0  0  0  0  0  0  0  0  0  0  0  0
   36.3280   29.7480   36.8560 C   0  0  0  0  0  0  0  0  0  0  0  0
   35.7050   28.9060   37.7070 N   0  0  0  0  0  0  0  0  0  0  0  0
   35.3220   28.4100   39.6470 H   0  0  0  0  0  0  0  0  0  0  0  0
   36.3150   29.7160   35.7680 H   0  0  0  0  0  0  0  0  0  0  0  0
   38.0470   32.1150   39.1380 C   0  0  0  0  0  0  0  0  0  0  0  0
   37.6340   33.2160   39.8690 C   0  0  0  0  0  0  0  0  0  0  0  0
   38.5720   34.1610   40.2600 C   0  0  0  0  0  0  0  0  0  0  0  0
   39.8920   34.0050   39.9250 C   0  0  0  0  0  0  0  0  0  0  0  0
   40.3130   32.9090   39.1960 C   0  0  0  0  0  0  0  0  0  0  0  0
   39.3740   31.9740   38.8110 C   0  0  0  0  0  0  0  0  0  0  0  0
   36.5730   33.2300   40.0710 H   0  0  0  0  0  0  0  0  0  0  0  0
   38.1950   35.0020   40.8290 H   0  0  0  0  0  0  0  0  0  0  0  0
   40.5270   34.7950   40.2790 H   0  0  0  0  0  0  0  0  0  0  0  0
   41.3660   32.8610   38.9730 H   0  0  0  0  0  0  0  0  0  0  0  0
   39.8270   31.1520   38.2430 H   0  0  0  0  0  0  0  0  0  0  0  0
   36.7120   30.3270   41.0010 C   0  0  0  0  0  0  0  0  0  0  0  0
   35.6650   30.5930   41.3450 H   0  0  0  0  0  0  0  0  0  0  0  0
   37.3880   31.1720   41.2290 H   0  0  0  0  0  0  0  0  0  0  0  0
   37.1060   29.1500   41.7720 C   0  0  0  0  0  0  0  0  0  0  0  0
   36.3680   28.0960   42.1720 N   0  0  0  0  0  0  0  0  0  0  0  0
   36.9140   27.0780   42.8770 C   0  0  0  0  0  3  0  0  0  0  0  0
   38.2210   27.0470   43.2250 N   0  0  0  0  0  0  0  0  0  0  0  0
   38.9970   28.1040   42.8330 C   0  0  0  0  0  0  0  0  0  0  0  0
   40.3260   27.9740   43.2410 C   0  0  0  0  0  3  0  0  0  0  0  0
   41.1100   29.0570   42.8370 C   0  0  0  0  0  0  0  0  0  0  0  0
   42.1640   29.0150   43.1250 H   0  0  0  0  0  0  0  0  0  0  0  0
   40.6680   30.1450   42.1190 C   0  0  0  0  0  0  0  0  0  0  0  0
   41.3430   30.9420   41.8470 H   0  0  0  0  0  0  0  0  0  0  0  0
   39.3500   30.1260   41.7970 C   0  0  0  0  0  3  0  0  0  0  0  0
   38.4410   29.1410   42.1160 C   0  0  0  0  0  0  0  0  0  0  0  0
  1  2  1  0  0  0  0
  1  7  1  0  0  0  0
  2 20  1  0  0  0  0
  3  9  1  0  0  0  0
  3  2  2  0  0  0  0
  4  3  1  0  0  0  0
  5  4  2  0  0  0  0
  5  6  1  0  0  0  0
  6  1  2  0  0  0  0
  8  5  1  0  0  0  0
  9 10  1  0  0  0  0
 10 15  1  0  0  0  0
 10 11  2  0  0  0  0
 11 16  1  0  0  0  0
 12 11  1  0  0  0  0
 12 17  1  0  0  0  0
 13 12  2  0  0  0  0
 14  9  2  0  0  0  0
 14 13  1  0  0  0  0
 18 13  1  0  0  0  0
 19 14  1  0  0  0  0
 20 22  1  0  0  0  0
 20 21  1  0  0  0  0
 20 23  1  0  0  0  0
 23 34  2  0  0  0  0
 23 24  1  0  0  0  0
 24 25  2  0  0  0  0
 25 26  1  0  0  0  0
 27 26  2  0  0  0  0
 27 28  1  0  0  0  0
 29 30  1  0  0  0  0
 29 28  2  0  0  0  0
 31 29  1  0  0  0  0
 32 31  1  0  0  0  0
 33 34  1  0  0  0  0
 33 31  2  0  0  0  0
 34 27  1  0  0  0  0
M  END
>  <minimizedAffinity>
-5.80079699

$$$$

 OpenBabel03252501573D

 34 37  0  0  0  0  0  0  0  0999 V2000
   41.3970   27.3960   43.6800 C   0  0  0  0  0  0  0  0  0  0  0  0
   40.1750   27.0450   43.0930 C   0  0  0  0  0  0  0  0  0  0  0  0
   40.1670   25.8800   42.3210 C   0  0  0  0  0  0  0  0  0  0  0  0
   41.3100   25.1640   42.1790 N   0  0  0  0  0  0  0  0  0  0  0  0
   42.4630   25.5550   42.7720 C   0  0  0  0  0  0  0  0  0  0  0  0
   42.5280   26.6710   43.5270 N   0  0  0  0  0  0  0  0  0  0  0  0
   41.5320   28.2740   44.2980 H   0  0  0  0  0  0  0  0  0  0  0  0
   43.2710   24.8610   42.5480 H   0  0  0  0  0  0  0  0  0  0  0  0
   38.9150   25.4900   41.6890 C   0  0  0  0  0  0  0  0  0  0  0  0
   37.8530   24.7970   42.2460 C   0  0  0  0  0  0  0  0  0  0  0  0
   36.7400   24.5190   41.4650 C   0  0  0  0  0  0  0  0  0  0  0  0
   36.6940   24.9260   40.1570 C   0  0  0  0  0  0  0  0  0  0  0  0
   37.7490   25.6170   39.5930 C   0  0  0  0  0  0  0  0  0  0  0  0
   38.8520   25.8900   40.3770 C   0  0  0  0  0  0  0  0  0  0  0  0
   38.0050   24.5300   43.2820 H   0  0  0  0  0  0  0  0  0  0  0  0
   35.9390   23.9750   41.9510 H   0  0  0  0  0  0  0  0  0  0  0  0
   35.7870   24.6560   39.6490 H   0  0  0  0  0  0  0  0  0  0  0  0
   37.6350   25.9000   38.5600 H   0  0  0  0  0  0  0  0  0  0  0  0
   39.6190   26.4440   39.8210 H   0  0  0  0  0  0  0  0  0  0  0  0
   39.0150   27.8960   43.3180 C   0  0  0  0  0  0  0  0  0  0  0  0
   39.0280   28.1340   44.4250 H   0  0  0  0  0  0  0  0  0  0  0  0
   38.1000   27.3200   43.0870 H   0  0  0  0  0  0  0  0  0  0  0  0
   38.9840   29.1830   42.6260 C   0  0  0  0  0  0  0  0  0  0  0  0
   39.8940   30.1760   42.6150 N   0  0  0  0  0  0  0  0  0  0  0  0
   39.6980   31.3060   41.8960 C   0  0  0  0  0  3  0  0  0  0  0  0
   38.5900   31.5150   41.1480 N   0  0  0  0  0  0  0  0  0  0  0  0
   37.6460   30.5240   41.1400 C   0  0  0  0  0  0  0  0  0  0  0  0
   36.5460   30.8370   40.3400 C   0  0  0  0  0  3  0  0  0  0  0  0
   35.5890   29.8210   40.3370 C   0  0  0  0  0  0  0  0  0  0  0  0
   34.7000   30.0050   39.7260 H   0  0  0  0  0  0  0  0  0  0  0  0
   35.6780   28.6320   41.0260 C   0  0  0  0  0  0  0  0  0  0  0  0
   34.8890   27.8970   40.9690 H   0  0  0  0  0  0  0  0  0  0  0  0
   36.8080   28.4750   41.7590 C   0  0  0  0  0  3  0  0  0  0  0  0
   37.8460   29.3740   41.8720 C   0  0  0  0  0  0  0  0  0  0  0  0
  1  7  1  0  0  0  0
  2 20  1  0  0  0  0
  2  1  2  0  0  0  0
  3  2  1  0  0  0  0
  4  3  2  0  0  0  0
  4  5  1  0  0  0  0
  5  6  2  0  0  0  0
  6  1  1  0  0  0  0
  8  5  1  0  0  0  0
  9 10  1  0  0  0  0
  9  3  1  0  0  0  0
 10 15  1  0  0  0  0
 11 16  1  0  0  0  0
 11 10  2  0  0  0  0
 12 11  1  0  0  0  0
 13 12  2  0  0  0  0
 13 14  1  0  0  0  0
 14  9  2  0  0  0  0
 17 12  1  0  0  0  0
 18 13  1  0  0  0  0
 19 14  1  0  0  0  0
 20 21  1  0  0  0  0
 22 20  1  0  0  0  0
 23 20  1  0  0  0  0
 24 23  1  0  0  0  0
 25 24  2  0  0  0  0
 26 25  1  0  0  0  0
 27 26  2  0  0  0  0
 27 34  1  0  0  0  0
 28 27  1  0  0  0  0
 29 28  2  0  0  0  0
 29 31  1  0  0  0  0
 30 29  1  0  0  0  0
 31 33  2  0  0  0  0
 32 31  1  0  0  0  0
 33 34  1  0  0  0  0
 34 23  2  0  0  0  0
M  END
>  <minimizedAffinity>
-5.77732038

$$$$

 OpenBabel03252501573D

 34 37  0  0  0  0  0  0  0  0999 V2000
   36.9910   26.7660   42.5580 C   0  0  0  0  0  0  0  0  0  0  0  0
   36.8050   27.6730   41.5080 C   0  0  0  0  0  0  0  0  0  0  0  0
   36.7190   27.1290   40.2240 C   0  0  0  0  0  0  0  0  0  0  0  0
   36.8180   25.7870   40.0580 N   0  0  0  0  0  0  0  0  0  0  0  0
   36.9970   24.9590   41.1140 C   0  0  0  0  0  0  0  0  0  0  0  0
   37.0870   25.4300   42.3750 N   0  0  0  0  0  0  0  0  0  0  0  0
   37.0730   27.0620   43.5960 H   0  0  0  0  0  0  0  0  0  0  0  0
   37.0530   23.9210   40.7910 H   0  0  0  0  0  0  0  0  0  0  0  0
   36.5350   28.0450   39.1070 C   0  0  0  0  0  0  0  0  0  0  0  0
   35.3530   28.5900   38.6310 C   0  0  0  0  0  0  0  0  0  0  0  0
   35.3920   29.4480   37.5420 C   0  0  0  0  0  0  0  0  0  0  0  0
   36.5870   29.7510   36.9440 C   0  0  0  0  0  0  0  0  0  0  0  0
   37.7710   29.2120   37.4110 C   0  0  0  0  0  0  0  0  0  0  0  0
   37.7230   28.3600   38.4950 C   0  0  0  0  0  0  0  0  0  0  0  0
   34.4780   28.2770   39.1830 H   0  0  0  0  0  0  0  0  0  0  0  0
   34.4410   29.8450   37.2120 H   0  0  0  0  0  0  0  0  0  0  0  0
   36.4990   30.4230   36.1100 H   0  0  0  0  0  0  0  0  0  0  0  0
   38.6660   29.5000   36.8850 H   0  0  0  0  0  0  0  0  0  0  0  0
   38.7210   28.0010   38.7750 H   0  0  0  0  0  0  0  0  0  0  0  0
   36.7150   29.0940   41.8120 C   0  0  0  0  0  0  0  0  0  0  0  0
   36.2160   29.1530   42.8280 H   0  0  0  0  0  0  0  0  0  0  0  0
   36.0600   29.5790   41.0640 H   0  0  0  0  0  0  0  0  0  0  0  0
   37.9690   29.8340   41.9320 C   0  0  0  0  0  0  0  0  0  0  0  0
   39.0690   29.5510   42.6580 N   0  0  0  0  0  0  0  0  0  0  0  0
   40.1560   30.3570   42.6350 C   0  0  0  0  0  3  0  0  0  0  0  0
   40.2150   31.4880   41.8930 N   0  0  0  0  0  0  0  0  0  0  0  0
   39.1130   31.8010   41.1460 C   0  0  0  0  0  0  0  0  0  0  0  0
   39.2760   32.9820   40.4190 C   0  0  0  0  0  3  0  0  0  0  0  0
   38.1470   33.2950   39.6590 C   0  0  0  0  0  0  0  0  0  0  0  0
   38.2120   34.2110   39.0640 H   0  0  0  0  0  0  0  0  0  0  0  0
   36.9880   32.5550   39.6020 C   0  0  0  0  0  0  0  0  0  0  0  0
   36.1590   32.8690   38.9860 H   0  0  0  0  0  0  0  0  0  0  0  0
   36.9820   31.4330   40.3650 C   0  0  0  0  0  3  0  0  0  0  0  0
   38.0060   30.9810   41.1690 C   0  0  0  0  0  0  0  0  0  0  0  0
  1  7  1  0  0  0  0
  2 20  1  0  0  0  0
  2  1  2  0  0  0  0
  3  2  1  0  0  0  0
  4  3  2  0  0  0  0
  4  5  1  0  0  0  0
  5  6  2  0  0  0  0
  6  1  1  0  0  0  0
  8  5  1  0  0  0  0
  9  3  1  0  0  0  0
 10  9  1  0  0  0  0
 10 15  1  0  0  0  0
 11 10  2  0  0  0  0
 12 13  2  0  0  0  0
 12 11  1  0  0  0  0
 13 14  1  0  0  0  0
 14 19  1  0  0  0  0
 14  9  2  0  0  0  0
 16 11  1  0  0  0  0
 17 12  1  0  0  0  0
 18 13  1  0  0  0  0
 20 23  1  0  0  0  0
 20 21  1  0  0  0  0
 22 20  1  0  0  0  0
 23 24  1  0  0  0  0
 25 24  2  0  0  0  0
 26 25  1  0  0  0  0
 27 34  1  0  0  0  0
 27 26  2  0  0  0  0
 28 27  1  0  0  0  0
 29 28  2  0  0  0  0
 30 29  1  0  0  0  0
 31 29  1  0  0  0  0
 31 33  2  0  0  0  0
 32 31  1  0  0  0  0
 33 34  1  0  0  0  0
 34 23  2  0  0  0  0
M  END
>  <minimizedAffinity>
-5.68627691

$$$$

 OpenBabel03252501573D

 34 37  0  0  0  0  0  0  0  0999 V2000
   37.1200   29.9060   37.7830 C   0  0  0  0  0  0  0  0  0  0  0  0
   37.5400   29.5660   39.0740 C   0  0  0  0  0  0  0  0  0  0  0  0
   36.6070   28.9070   39.8790 C   0  0  0  0  0  0  0  0  0  0  0  0
   35.3720   28.6370   39.3880 N   0  0  0  0  0  0  0  0  0  0  0  0
   35.0230   28.9910   38.1290 C   0  0  0  0  0  0  0  0  0  0  0  0
   35.8840   29.6290   37.3080 N   0  0  0  0  0  0  0  0  0  0  0  0
   37.7480   30.4170   37.0650 H   0  0  0  0  0  0  0  0  0  0  0  0
   33.9990   28.6940   37.9090 H   0  0  0  0  0  0  0  0  0  0  0  0
   37.0080   28.5470   41.2320 C   0  0  0  0  0  0  0  0  0  0  0  0
   37.2580   29.3880   42.3040 C   0  0  0  0  0  0  0  0  0  0  0  0
   37.6360   28.8400   43.5210 C   0  0  0  0  0  0  0  0  0  0  0  0
   37.7610   27.4820   43.6590 C   0  0  0  0  0  0  0  0  0  0  0  0
   37.5140   26.6360   42.5950 C   0  0  0  0  0  0  0  0  0  0  0  0
   37.1380   27.1890   41.3870 C   0  0  0  0  0  0  0  0  0  0  0  0
   37.1270   30.4350   42.0740 H   0  0  0  0  0  0  0  0  0  0  0  0
   37.8190   29.5410   44.3250 H   0  0  0  0  0  0  0  0  0  0  0  0
   38.0590   27.1700   44.6430 H   0  0  0  0  0  0  0  0  0  0  0  0
   37.6350   25.5820   42.7850 H   0  0  0  0  0  0  0  0  0  0  0  0
   36.9670   26.4200   40.6240 H   0  0  0  0  0  0  0  0  0  0  0  0
   38.8920   29.9110   39.4890 C   0  0  0  0  0  0  0  0  0  0  0  0
   39.5600   29.5880   38.6330 H   0  0  0  0  0  0  0  0  0  0  0  0
   39.1520   29.3220   40.3880 H   0  0  0  0  0  0  0  0  0  0  0  0
   39.1820   31.3250   39.7180 C   0  0  0  0  0  0  0  0  0  0  0  0
   38.6410   32.1810   40.6070 N   0  0  0  0  0  0  0  0  0  0  0  0
   39.0490   33.4690   40.6850 C   0  0  0  0  0  3  0  0  0  0  0  0
   40.0150   33.9820   39.8870 N   0  0  0  0  0  0  0  0  0  0  0  0
   40.5830   33.1360   38.9740 C   0  0  0  0  0  0  0  0  0  0  0  0
   41.5660   33.7600   38.2040 C   0  0  0  0  0  3  0  0  0  0  0  0
   42.1410   32.8900   37.2750 C   0  0  0  0  0  0  0  0  0  0  0  0
   42.9210   33.3200   36.6400 H   0  0  0  0  0  0  0  0  0  0  0  0
   41.8090   31.5650   37.1040 C   0  0  0  0  0  0  0  0  0  0  0  0
   42.3050   30.9610   36.3590 H   0  0  0  0  0  0  0  0  0  0  0  0
   40.8360   31.1040   37.9280 C   0  0  0  0  0  3  0  0  0  0  0  0
   40.1680   31.8250   38.8940 C   0  0  0  0  0  0  0  0  0  0  0  0
  1  2  1  0  0  0  0
  2 20  1  0  0  0  0
  2  3  2  0  0  0  0
  3  9  1  0  0  0  0
  4  3  1  0  0  0  0
  5  4  2  0  0  0  0
  6  1  2  0  0  0  0
  6  5  1  0  0  0  0
  7  1  1  0  0  0  0
  8  5  1  0  0  0  0
  9 14  2  0  0  0  0
  9 10  1  0  0  0  0
 10 11  2  0  0  0  0
 11 12  1  0  0  0  0
 11 16  1  0  0  0  0
 12 17  1  0  0  0  0
 13 18  1  0  0  0  0
 13 12  2  0  0  0  0
 14 13  1  0  0  0  0
 15 10  1  0  0  0  0
 19 14  1  0  0  0  0
 20 23  1  0  0  0  0
 20 22  1  0  0  0  0
 21 20  1  0  0  0  0
 23 24  1  0  0  0  0
 24 25  2  0  0  0  0
 26 25  1  0  0  0  0
 27 26  2  0  0  0  0
 28 27  1  0  0  0  0
 29 28  2  0  0  0  0
 30 29  1  0  0  0  0
 31 29  1  0  0  0  0
 31 33  2  0  0  0  0
 32 31  1  0  0  0  0
 33 34  1  0  0  0  0
 34 27  1  0  0  0  0
 34 23  2  0  0  0  0
M  END
>  <minimizedAffinity>
-5.68526173

$$$$

 OpenBabel03252501573D

 34 37  0  0  0  0  0  0  0  0999 V2000
   37.2220   24.8760   42.1020 C   0  0  0  0  0  0  0  0  0  0  0  0
   37.2970   26.2420   41.8000 C   0  0  0  0  0  0  0  0  0  0  0  0
   36.8490   26.6260   40.5340 C   0  0  0  0  0  0  0  0  0  0  0  0
   36.3770   25.6850   39.6780 N   0  0  0  0  0  0  0  0  0  0  0  0
   36.3280   24.3780   40.0270 C   0  0  0  0  0  0  0  0  0  0  0  0
   36.7480   23.9520   41.2360 N   0  0  0  0  0  0  0  0  0  0  0  0
   37.5370   24.4550   43.0470 H   0  0  0  0  0  0  0  0  0  0  0  0
   35.9220   23.7740   39.2180 H   0  0  0  0  0  0  0  0  0  0  0  0
   36.9220   28.0370   40.1840 C   0  0  0  0  0  0  0  0  0  0  0  0
   37.8650   28.6780   39.3980 C   0  0  0  0  0  0  0  0  0  0  0  0
   37.7570   30.0450   39.1870 C   0  0  0  0  0  0  0  0  0  0  0  0
   36.7280   30.7520   39.7520 C   0  0  0  0  0  0  0  0  0  0  0  0
   35.7830   30.1220   40.5380 C   0  0  0  0  0  0  0  0  0  0  0  0
   35.8970   28.7610   40.7430 C   0  0  0  0  0  0  0  0  0  0  0  0
   38.6270   28.0170   39.0090 H   0  0  0  0  0  0  0  0  0  0  0  0
   38.5210   30.4950   38.5650 H   0  0  0  0  0  0  0  0  0  0  0  0
   36.7440   31.8010   39.5230 H   0  0  0  0  0  0  0  0  0  0  0  0
   35.0070   30.7480   40.9460 H   0  0  0  0  0  0  0  0  0  0  0  0
   35.0900   28.3760   41.3780 H   0  0  0  0  0  0  0  0  0  0  0  0
   37.8250   27.1570   42.8030 C   0  0  0  0  0  0  0  0  0  0  0  0
   37.3920   26.8040   43.7890 H   0  0  0  0  0  0  0  0  0  0  0  0
   37.4490   28.1740   42.5910 H   0  0  0  0  0  0  0  0  0  0  0  0
   39.2750   27.1870   42.9840 C   0  0  0  0  0  0  0  0  0  0  0  0
   40.1320   26.1770   43.2300 N   0  0  0  0  0  0  0  0  0  0  0  0
   41.4620   26.3950   43.3570 C   0  0  0  0  0  3  0  0  0  0  0  0
   42.0170   27.6250   43.2480 N   0  0  0  0  0  0  0  0  0  0  0  0
   41.1710   28.6710   42.9980 C   0  0  0  0  0  0  0  0  0  0  0  0
   41.8410   29.8920   42.9030 C   0  0  0  0  0  3  0  0  0  0  0  0
   40.9700   30.9540   42.6490 C   0  0  0  0  0  0  0  0  0  0  0  0
   41.4350   31.9400   42.5620 H   0  0  0  0  0  0  0  0  0  0  0  0
   39.6050   30.8540   42.5000 C   0  0  0  0  0  0  0  0  0  0  0  0
   39.0030   31.7290   42.3050 H   0  0  0  0  0  0  0  0  0  0  0  0
   39.1020   29.6000   42.6200 C   0  0  0  0  0  3  0  0  0  0  0  0
   39.8170   28.4490   42.8690 C   0  0  0  0  0  0  0  0  0  0  0  0
  1  7  1  0  0  0  0
  2  1  1  0  0  0  0
  2 20  1  0  0  0  0
  3  2  2  0  0  0  0
  4  5  2  0  0  0  0
  4  3  1  0  0  0  0
  5  6  1  0  0  0  0
  6  1  2  0  0  0  0
  8  5  1  0  0  0  0
  9  3  1  0  0  0  0
  9 14  1  0  0  0  0
 10  9  2  0  0  0  0
 11 10  1  0  0  0  0
 11 12  2  0  0  0  0
 12 13  1  0  0  0  0
 13 14  2  0  0  0  0
 13 18  1  0  0  0  0
 14 19  1  0  0  0  0
 15 10  1  0  0  0  0
 16 11  1  0  0  0  0
 17 12  1  0  0  0  0
 20 23  1  0  0  0  0
 20 21  1  0  0  0  0
 22 20  1  0  0  0  0
 23 24  1  0  0  0  0
 24 25  2  0  0  0  0
 26 25  1  0  0  0  0
 27 26  2  0  0  0  0
 28 27  1  0  0  0  0
 29 28  2  0  0  0  0
 30 29  1  0  0  0  0
 31 33  2  0  0  0  0
 31 29  1  0  0  0  0
 32 31  1  0  0  0  0
 33 34  1  0  0  0  0
 34 23  2  0  0  0  0
 34 27  1  0  0  0  0
M  END
>  <minimizedAffinity>
-5.67355585

$$$$

 OpenBabel03252501573D

 34 37  0  0  0  0  0  0  0  0999 V2000
   36.5290   24.5100   39.0730 C   0  0  0  0  0  0  0  0  0  0  0  0
   36.7530   25.6390   39.8700 C   0  0  0  0  0  0  0  0  0  0  0  0
   37.5400   25.4500   41.0100 C   0  0  0  0  0  0  0  0  0  0  0  0
   38.0360   24.2180   41.2830 N   0  0  0  0  0  0  0  0  0  0  0  0
   37.7850   23.1630   40.4720 C   0  0  0  0  0  0  0  0  0  0  0  0
   37.0320   23.2880   39.3600 N   0  0  0  0  0  0  0  0  0  0  0  0
   35.9380   24.5260   38.1660 H   0  0  0  0  0  0  0  0  0  0  0  0
   38.2630   22.2600   40.8480 H   0  0  0  0  0  0  0  0  0  0  0  0
   37.7850   26.6010   41.8670 C   0  0  0  0  0  0  0  0  0  0  0  0
   38.8740   27.4570   41.8620 C   0  0  0  0  0  0  0  0  0  0  0  0
   38.9180   28.5030   42.7730 C   0  0  0  0  0  0  0  0  0  0  0  0
   37.8960   28.6850   43.6670 C   0  0  0  0  0  0  0  0  0  0  0  0
   36.8060   27.8360   43.6790 C   0  0  0  0  0  0  0  0  0  0  0  0
   36.7690   26.7980   42.7700 C   0  0  0  0  0  0  0  0  0  0  0  0
   39.6140   27.2130   41.1140 H   0  0  0  0  0  0  0  0  0  0  0  0
   39.7920   29.1410   42.7250 H   0  0  0  0  0  0  0  0  0  0  0  0
   38.0360   29.5230   44.3240 H   0  0  0  0  0  0  0  0  0  0  0  0
   36.0460   28.0470   44.4130 H   0  0  0  0  0  0  0  0  0  0  0  0
   35.8570   26.1980   42.8740 H   0  0  0  0  0  0  0  0  0  0  0  0
   36.1640   26.9100   39.4730 C   0  0  0  0  0  0  0  0  0  0  0  0
   35.9130   27.4400   40.4430 H   0  0  0  0  0  0  0  0  0  0  0  0
   35.2270   26.7130   38.9200 H   0  0  0  0  0  0  0  0  0  0  0  0
   37.0080   27.8300   38.7140 C   0  0  0  0  0  0  0  0  0  0  0  0
   37.7790   27.5990   37.6340 N   0  0  0  0  0  0  0  0  0  0  0  0
   38.4910   28.5900   37.0480 C   0  0  0  0  0  3  0  0  0  0  0  0
   38.4800   29.8660   37.5000 N   0  0  0  0  0  0  0  0  0  0  0  0
   37.7060   30.1320   38.5960 C   0  0  0  0  0  0  0  0  0  0  0  0
   37.7620   31.4730   38.9800 C   0  0  0  0  0  3  0  0  0  0  0  0
   36.9700   31.7360   40.1000 C   0  0  0  0  0  0  0  0  0  0  0  0
   36.9710   32.7720   40.4500 H   0  0  0  0  0  0  0  0  0  0  0  0
   36.2050   30.8130   40.7770 C   0  0  0  0  0  0  0  0  0  0  0  0
   35.6190   31.1010   41.6360 H   0  0  0  0  0  0  0  0  0  0  0  0
   36.2540   29.5510   40.2830 C   0  0  0  0  0  3  0  0  0  0  0  0
   36.9810   29.1230   39.1930 C   0  0  0  0  0  0  0  0  0  0  0  0
  1  6  2  0  0  0  0
  1  2  1  0  0  0  0
  2  3  2  0  0  0  0
  3  4  1  0  0  0  0
  3  9  1  0  0  0  0
  5  8  1  0  0  0  0
  5  4  2  0  0  0  0
  6  5  1  0  0  0  0
  7  1  1  0  0  0  0
  9 14  1  0  0  0  0
 10  9  2  0  0  0  0
 10 11  1  0  0  0  0
 11 12  2  0  0  0  0
 12 13  1  0  0  0  0
 12 17  1  0  0  0  0
 13 18  1  0  0  0  0
 14 19  1  0  0  0  0
 14 13  2  0  0  0  0
 15 10  1  0  0  0  0
 16 11  1  0  0  0  0
 20  2  1  0  0  0  0
 20 21  1  0  0  0  0
 22 20  1  0  0  0  0
 23 34  1  0  0  0  0
 23 20  1  0  0  0  0
 24 23  2  0  0  0  0
 25 26  2  0  0  0  0
 25 24  1  0  0  0  0
 26 27  1  0  0  0  0
 27 28  2  0  0  0  0
 27 34  1  0  0  0  0
 28 29  1  0  0  0  0
 29 30  1  0  0  0  0
 29 31  2  0  0  0  0
 31 32  1  0  0  0  0
 33 31  1  0  0  0  0
 34 33  2  0  0  0  0
M  END
>  <minimizedAffinity>
-5.66657448

$$$$

 OpenBabel03252501573D

 34 37  0  0  0  0  0  0  0  0999 V2000
   35.0700   28.4840   36.9320 C   0  0  0  0  0  0  0  0  0  0  0  0
   35.8110   29.0490   37.9770 C   0  0  0  0  0  0  0  0  0  0  0  0
   36.7790   29.9900   37.6160 C   0  0  0  0  0  0  0  0  0  0  0  0
   36.9530   30.3030   36.3080 N   0  0  0  0  0  0  0  0  0  0  0  0
   36.2050   29.7220   35.3410 C   0  0  0  0  0  0  0  0  0  0  0  0
   35.2570   28.8080   35.6320 N   0  0  0  0  0  0  0  0  0  0  0  0
   34.2930   27.7460   37.0810 H   0  0  0  0  0  0  0  0  0  0  0  0
   36.4830   30.0950   34.3560 H   0  0  0  0  0  0  0  0  0  0  0  0
   37.5740   30.5910   38.6780 C   0  0  0  0  0  0  0  0  0  0  0  0
   38.8370   30.2250   39.1150 C   0  0  0  0  0  0  0  0  0  0  0  0
   39.4260   30.9310   40.1540 C   0  0  0  0  0  0  0  0  0  0  0  0
   38.7640   31.9780   40.7410 C   0  0  0  0  0  0  0  0  0  0  0  0
   37.5040   32.3490   40.3130 C   0  0  0  0  0  0  0  0  0  0  0  0
   36.9250   31.6420   39.2780 C   0  0  0  0  0  0  0  0  0  0  0  0
   39.2560   29.3880   38.5760 H   0  0  0  0  0  0  0  0  0  0  0  0
   40.4130   30.6040   40.4550 H   0  0  0  0  0  0  0  0  0  0  0  0
   39.3130   32.4500   41.5340 H   0  0  0  0  0  0  0  0  0  0  0  0
   37.0510   33.1810   40.8260 H   0  0  0  0  0  0  0  0  0  0  0  0
   35.9310   32.0310   39.0260 H   0  0  0  0  0  0  0  0  0  0  0  0
   35.5330   28.6310   39.3440 C   0  0  0  0  0  0  0  0  0  0  0  0
   34.4290   28.3800   39.3620 H   0  0  0  0  0  0  0  0  0  0  0  0
   35.7160   29.4850   40.0230 H   0  0  0  0  0  0  0  0  0  0  0  0
   36.2280   27.4440   39.8350 C   0  0  0  0  0  0  0  0  0  0  0  0
   36.3490   26.2240   39.2760 N   0  0  0  0  0  0  0  0  0  0  0  0
   37.0520   25.2370   39.8790 C   0  0  0  0  0  3  0  0  0  0  0  0
   37.6730   25.4020   41.0700 N   0  0  0  0  0  0  0  0  0  0  0  0
   37.5670   26.6300   41.6630 C   0  0  0  0  0  0  0  0  0  0  0  0
   38.2420   26.6960   42.8840 C   0  0  0  0  0  3  0  0  0  0  0  0
   38.1290   27.9520   43.4830 C   0  0  0  0  0  0  0  0  0  0  0  0
   38.6380   28.0690   44.4440 H   0  0  0  0  0  0  0  0  0  0  0  0
   37.4440   29.0290   42.9660 C   0  0  0  0  0  0  0  0  0  0  0  0
   37.4070   29.9690   43.4960 H   0  0  0  0  0  0  0  0  0  0  0  0
   36.8400   28.8090   41.7720 C   0  0  0  0  0  3  0  0  0  0  0  0
   36.8520   27.6350   41.0500 C   0  0  0  0  0  0  0  0  0  0  0  0
  1  7  1  0  0  0  0
  1  2  1  0  0  0  0
  2 20  1  0  0  0  0
  3  2  2  0  0  0  0
  3  9  1  0  0  0  0
  4  3  1  0  0  0  0
  5  6  1  0  0  0  0
  5  4  2  0  0  0  0
  6  1  2  0  0  0  0
  8  5  1  0  0  0  0
  9 10  2  0  0  0  0
  9 14  1  0  0  0  0
 10 11  1  0  0  0  0
 11 16  1  0  0  0  0
 11 12  2  0  0  0  0
 12 17  1  0  0  0  0
 13 12  1  0  0  0  0
 13 18  1  0  0  0  0
 14 13  2  0  0  0  0
 15 10  1  0  0  0  0
 19 14  1  0  0  0  0
 20 21  1  0  0  0  0
 20 23  1  0  0  0  0
 20 22  1  0  0  0  0
 23 34  1  0  0  0  0
 24 23  2  0  0  0  0
 24 25  1  0  0  0  0
 25 26  2  0  0  0  0
 26 27  1  0  0  0  0
 27 28  1  0  0  0  0
 28 29  2  0  0  0  0
 29 30  1  0  0  0  0
 31 29  1  0  0  0  0
 31 32  1  0  0  0  0
 33 31  2  0  0  0  0
 34 27  2  0  0  0  0
 34 33  1  0  0  0  0
M  END
>  <minimizedAffinity>
-5.56966305

$$$$
