
 OpenBabel03252506213D

 38 41  0  0  0  0  0  0  0  0999 V2000
   45.0040   35.3000   42.6630 C   0  0  0  0  0  0  0  0  0  0  0  0
   43.8420   35.0040   41.9290 C   0  0  0  0  0  0  0  0  0  0  0  0
   43.9000   33.9210   41.0420 C   0  0  0  0  0  0  0  0  0  0  0  0
   45.0590   33.2190   40.9320 N   0  0  0  0  0  0  0  0  0  0  0  0
   46.1520   33.5460   41.6630 C   0  0  0  0  0  0  0  0  0  0  0  0
   46.1150   34.5770   42.5150 N   0  0  0  0  0  0  0  0  0  0  0  0
   42.9340   35.5450   42.0080 H   0  0  0  0  0  0  0  0  0  0  0  0
   43.0450   33.6320   40.4430 H   0  0  0  0  0  0  0  0  0  0  0  0
   48.1460   34.6320   39.6630 Cl  0  0  0  0  0  0  0  0  0  0  0  0
   48.3180   33.1750   40.5810 C   0  0  0  0  0  0  0  0  0  0  0  0
   47.3720   32.7280   41.4800 C   0  0  0  0  0  0  0  0  0  0  0  0
   47.4770   31.5780   42.2220 C   0  0  0  0  0  0  0  0  0  0  0  0
   48.6180   30.8460   42.0290 C   0  0  0  0  0  0  0  0  0  0  0  0
   49.6300   31.1780   41.1690 C   0  0  0  0  0  0  0  0  0  0  0  0
   49.4360   32.3650   40.4560 C   0  0  0  0  0  0  0  0  0  0  0  0
   46.7120   31.2640   42.9150 H   0  0  0  0  0  0  0  0  0  0  0  0
   48.7790   29.9110   42.5840 H   0  0  0  0  0  0  0  0  0  0  0  0
   50.5080   30.5780   41.0460 H   0  0  0  0  0  0  0  0  0  0  0  0
   50.2080   32.6680   39.7670 H   0  0  0  0  0  0  0  0  0  0  0  0
   44.9620   36.4330   43.5990 C   0  0  0  0  0  3  0  0  0  0  0  0
   45.5120   37.5590   43.2480 C   0  0  0  0  0  3  0  0  0  0  0  0
   45.4880   38.7280   44.1600 C   0  0  0  0  0  0  0  0  0  0  0  0
   44.8490   38.5670   45.0480 H   0  0  0  0  0  0  0  0  0  0  0  0
   46.5540   38.8740   44.5050 H   0  0  0  0  0  0  0  0  0  0  0  0
   45.1440   39.9090   43.3970 N   0  0  0  0  0  0  0  0  0  0  0  0
   45.0650   39.8250   42.3700 H   0  0  0  0  0  0  0  0  0  0  0  0
   44.9390   41.1090   44.1340 C   0  0  0  0  0  0  0  0  0  0  0  0
   44.9080   42.3100   43.5400 N   0  0  0  0  0  0  0  0  0  0  0  0
   44.7200   43.4780   44.1510 C   0  0  0  0  0  3  0  0  0  0  0  0
   44.5460   43.4730   45.4710 N   0  0  0  0  0  0  0  0  0  0  0  0
   44.5570   42.3140   46.1830 C   0  0  0  0  0  0  0  0  0  0  0  0
   44.3710   42.3860   47.5490 C   0  0  0  0  0  3  0  0  0  0  0  0
   44.3960   41.1730   48.2020 C   0  0  0  0  0  0  0  0  0  0  0  0
   44.2520   41.1930   49.2810 H   0  0  0  0  0  0  0  0  0  0  0  0
   44.5880   39.9530   47.6000 C   0  0  0  0  0  0  0  0  0  0  0  0
   44.6000   39.0230   48.1630 H   0  0  0  0  0  0  0  0  0  0  0  0
   44.7670   39.9710   46.2260 C   0  0  0  0  0  3  0  0  0  0  0  0
   44.7560   41.1340   45.4990 C   0  0  0  0  0  0  0  0  0  0  0  0
  1 20  1  0  0  0  0
  2  7  1  0  0  0  0
  2  1  2  0  0  0  0
  3  2  1  0  0  0  0
  4  3  2  0  0  0  0
  4  5  1  0  0  0  0
  5  6  2  0  0  0  0
  6  1  1  0  0  0  0
  8  3  1  0  0  0  0
  9 10  1  0  0  0  0
 10 11  1  0  0  0  0
 11  5  1  0  0  0  0
 11 12  2  0  0  0  0
 12 16  1  0  0  0  0
 13 12  1  0  0  0  0
 13 17  1  0  0  0  0
 14 13  2  0  0  0  0
 15 10  2  0  0  0  0
 15 14  1  0  0  0  0
 18 14  1  0  0  0  0
 19 15  1  0  0  0  0
 21 20  2  0  0  0  0
 21 22  1  0  0  0  0
 22 24  1  0  0  0  0
 22 23  1  0  0  0  0
 25 27  1  0  0  0  0
 25 22  1  0  0  0  0
 26 25  1  0  0  0  0
 27 38  1  0  0  0  0
 28 27  2  0  0  0  0
 28 29  1  0  0  0  0
 29 30  2  0  0  0  0
 30 31  1  0  0  0  0
 31 32  1  0  0  0  0
 32 33  2  0  0  0  0
 33 34  1  0  0  0  0
 35 36  1  0  0  0  0
 35 33  1  0  0  0  0
 37 35  2  0  0  0  0
 38 31  2  0  0  0  0
 38 37  1  0  0  0  0
M  END
>  <minimizedAffinity>
1.02545655

>  <minimizedRMSD>
1.13902688

$$$$
