
 OpenBabel03252502243D

 37 40  0  0  1  0  0  0  0  0999 V2000
   46.7010   34.4860   42.2670 N   0  0  0  0  0  0  0  0  0  0  0  0
   48.1470   34.2990   42.3030 C   0  0  0  0  0  0  0  0  0  0  0  0
   48.6590   35.0650   41.0860 C   0  0  0  0  0  0  0  0  0  0  0  0
   48.1580   34.4310   39.8240 C   0  0  0  0  0  0  0  0  0  0  0  0
   46.7550   33.9450   39.8830 C   0  0  0  0  0  0  0  0  0  0  0  0
   45.9540   34.4280   41.0410 C   0  0  1  0  0  0  0  0  0  0  0  0
   48.3300   33.2360   42.0950 H   0  0  0  0  0  0  0  0  0  0  0  0
   48.5970   34.6760   43.2160 H   0  0  0  0  0  0  0  0  0  0  0  0
   49.7740   34.8880   41.1070 H   0  0  0  0  0  0  0  0  0  0  0  0
   48.4230   36.1240   41.1930 H   0  0  0  0  0  0  0  0  0  0  0  0
   48.8430   33.6120   39.4740 H   0  0  0  0  0  0  0  0  0  0  0  0
   48.2170   35.2040   39.0190 H   0  0  0  0  0  0  0  0  0  0  0  0
   46.1840   34.1270   38.9460 H   0  0  0  0  0  0  0  0  0  0  0  0
   46.7870   32.8240   39.9660 H   0  0  0  0  0  0  0  0  0  0  0  0
   45.5350   35.4370   40.7950 H   0  0  0  0  0  0  0  0  0  0  0  0
   44.4700   36.0400   44.8360 C   0  0  0  0  0  0  0  0  0  0  0  0
   45.1450   35.8720   43.6220 C   0  0  0  0  0  0  0  0  0  0  0  0
   45.9770   34.7350   43.4680 C   0  0  0  0  0  0  0  0  0  0  0  0
   46.0660   33.8740   44.5160 N   0  0  0  0  0  0  0  0  0  0  0  0
   45.3880   34.0820   45.6760 C   0  0  0  0  0  0  0  0  0  0  0  0
   44.5960   35.1620   45.8260 N   0  0  0  0  0  0  0  0  0  0  0  0
   43.8770   36.9450   44.8090 H   0  0  0  0  0  0  0  0  0  0  0  0
   45.0950   36.5370   42.7740 H   0  0  0  0  0  0  0  0  0  0  0  0
   45.4730   33.3850   46.4980 H   0  0  0  0  0  0  0  0  0  0  0  0
   44.8810   33.5390   41.2250 O   0  0  0  0  0  0  0  0  0  0  0  0
   43.5630   33.8190   40.9720 C   0  0  0  0  0  0  0  0  0  0  0  0
   43.0270   34.8800   40.3460 N   0  0  0  0  0  0  0  0  0  0  0  0
   41.7140   35.0190   40.1710 C   0  0  0  0  0  3  0  0  0  0  0  0
   40.8480   34.0760   40.6250 N   0  0  0  0  0  0  0  0  0  0  0  0
   41.3150   32.9920   41.2580 C   0  0  0  0  0  0  0  0  0  0  0  0
   40.4380   32.0360   41.7190 C   0  0  0  0  0  3  0  0  0  0  0  0
   40.8770   30.9090   42.3720 C   0  0  0  0  0  0  0  0  0  0  0  0
   40.2630   30.1040   42.7700 H   0  0  0  0  0  0  0  0  0  0  0  0
   42.2160   30.7500   42.5610 C   0  0  0  0  0  0  0  0  0  0  0  0
   42.6460   29.8960   43.0640 H   0  0  0  0  0  0  0  0  0  0  0  0
   43.0850   31.7140   42.0950 C   0  0  0  0  0  3  0  0  0  0  0  0
   42.6800   32.8600   41.4340 C   0  0  0  0  0  0  0  0  0  0  0  0
  1  2  1  0  0  0  0
  1 18  1  0  0  0  0
  2  8  1  0  0  0  0
  3  9  1  0  0  0  0
  3 10  1  0  0  0  0
  3  2  1  0  0  0  0
  4  5  1  0  0  0  0
  4  3  1  0  0  0  0
  5 14  1  0  0  0  0
  5  6  1  0  0  0  0
  6 15  1  6  0  0  0
  6 25  1  0  0  0  0
  6  1  1  0  0  0  0
  7  2  1  0  0  0  0
 11  4  1  0  0  0  0
 12  4  1  0  0  0  0
 13  5  1  0  0  0  0
 16 21  1  0  0  0  0
 17 16  2  0  0  0  0
 18 17  1  0  0  0  0
 18 19  2  0  0  0  0
 19 20  1  0  0  0  0
 20 21  2  0  0  0  0
 20 24  1  0  0  0  0
 22 16  1  0  0  0  0
 23 17  1  0  0  0  0
 26 25  1  0  0  0  0
 26 37  1  0  0  0  0
 27 26  2  0  0  0  0
 28 27  1  0  0  0  0
 28 29  2  0  0  0  0
 29 30  1  0  0  0  0
 30 37  2  0  0  0  0
 30 31  1  0  0  0  0
 31 32  2  0  0  0  0
 32 34  1  0  0  0  0
 32 33  1  0  0  0  0
 34 35  1  0  0  0  0
 36 34  2  0  0  0  0
 37 36  1  0  0  0  0
M  END
>  <minimizedAffinity>
-6.24598503

>  <minimizedRMSD>
1.29695225

$$$$
