
 OpenBabel03242523113D

 49 54  0  0  1  0  0  0  0  0999 V2000
   45.6030   32.6270   46.5790 C   0  0  0  0  0  0  0  0  0  0  0  0
   46.3030   32.7590   45.3580 C   0  0  0  0  0  0  0  0  0  0  0  0
   47.1880   31.7230   45.1840 C   0  0  0  0  0  0  0  0  0  0  0  0
   47.3990   30.6910   46.0410 C   0  0  0  0  0  0  0  0  0  0  0  0
   46.6700   30.6390   47.2240 C   0  0  0  0  0  0  0  0  0  0  0  0
   45.7580   31.6230   47.4920 C   0  0  0  0  0  0  0  0  0  0  0  0
   47.1150   29.4910   47.8630 O   0  0  0  0  0  0  0  0  0  0  0  0
   48.0650   28.8210   47.0650 C   0  0  2  0  0  0  0  0  0  0  0  0
   48.2730   29.6260   45.9080 O   0  0  0  0  0  0  0  0  0  0  0  0
   44.8160   33.2780   47.0170 H   0  0  0  0  0  0  0  0  0  0  0  0
   47.7160   31.8020   44.2870 H   0  0  0  0  0  0  0  0  0  0  0  0
   45.2590   31.4780   48.4250 H   0  0  0  0  0  0  0  0  0  0  0  0
   49.0390   28.6760   47.5310 H   0  0  0  0  0  0  0  0  0  0  0  0
   45.8610   35.6610   43.0340 C   0  0  0  0  0  0  0  0  0  0  0  0
   46.4000   34.4510   43.4680 C   0  0  0  0  0  0  0  0  0  0  0  0
   45.9790   33.9180   44.6490 C   0  0  0  0  0  0  0  0  0  0  0  0
   45.0360   34.6220   45.3490 N   0  0  0  0  0  0  0  0  0  0  0  0
   44.5190   35.7810   44.9350 C   0  0  0  0  0  0  0  0  0  0  0  0
   44.9290   36.2890   43.7930 N   0  0  0  0  0  0  0  0  0  0  0  0
   46.1890   36.0930   42.0950 H   0  0  0  0  0  0  0  0  0  0  0  0
   43.7760   36.3780   45.4420 H   0  0  0  0  0  0  0  0  0  0  0  0
   47.3670   33.8570   42.6620 N   0  0  0  0  0  0  0  0  0  0  0  0
   48.7590   34.1290   42.8340 C   0  0  0  0  0  0  0  0  0  0  0  0
   49.6740   33.2780   41.9980 C   0  0  0  0  0  0  0  0  0  0  0  0
   49.3060   31.9400   41.8870 N   0  0  0  0  0  0  0  0  0  0  0  0
   47.9670   31.6870   41.6770 C   0  0  0  0  0  0  0  0  0  0  0  0
   47.1390   32.9510   41.6080 C   0  0  0  0  0  0  0  0  0  0  0  0
   48.9300   35.1870   42.5210 H   0  0  0  0  0  0  0  0  0  0  0  0
   49.0880   34.1150   43.9050 H   0  0  0  0  0  0  0  0  0  0  0  0
   49.8060   33.7400   40.9960 H   0  0  0  0  0  0  0  0  0  0  0  0
   50.6960   33.3540   42.4690 H   0  0  0  0  0  0  0  0  0  0  0  0
   49.9410   31.4480   41.2540 H   0  0  0  0  0  0  0  0  0  0  0  0
   47.5700   30.9430   42.3930 H   0  0  0  0  0  0  0  0  0  0  0  0
   47.8340   31.1940   40.6700 H   0  0  0  0  0  0  0  0  0  0  0  0
   46.0760   32.6290   41.4760 H   0  0  0  0  0  0  0  0  0  0  0  0
   47.4250   33.4410   40.6370 H   0  0  0  0  0  0  0  0  0  0  0  0
   47.4650   27.6070   46.6560 O   0  0  0  0  0  0  0  0  0  0  0  0
   46.8280   26.7060   47.4630 C   0  0  0  0  0  0  0  0  0  0  0  0
   47.3730   25.9290   48.4410 N   0  0  0  0  0  0  0  0  0  0  0  0
   46.6120   25.0790   49.1600 C   0  0  0  0  0  0  0  0  0  0  0  0
   45.2860   24.9290   48.9800 N   0  0  0  0  0  0  0  0  0  0  0  0
   44.7030   25.6810   48.0190 C   0  0  0  0  0  0  0  0  0  0  0  0
   43.3410   25.5470   47.8110 C   0  0  0  0  0  0  0  0  0  0  0  0
   42.6910   26.2920   46.8400 C   0  0  0  0  0  0  0  0  0  0  0  0
   41.6270   26.2490   46.6110 H   0  0  0  0  0  0  0  0  0  0  0  0
   43.4310   27.1900   46.0630 C   0  0  0  0  0  0  0  0  0  0  0  0
   43.0050   27.8220   45.2720 H   0  0  0  0  0  0  0  0  0  0  0  0
   44.7820   27.2950   46.2990 C   0  0  0  0  0  0  0  0  0  0  0  0
   45.4690   26.5630   47.2640 C   0  0  0  0  0  0  0  0  0  0  0  0
  1 10  1  0  0  0  0
  1  6  1  0  0  0  0
  2  1  2  0  0  0  0
  3  2  1  0  0  0  0
  3  4  2  0  0  0  0
  4  5  1  0  0  0  0
  5  6  2  0  0  0  0
  5  7  1  0  0  0  0
  6 12  1  0  0  0  0
  8 13  1  1  0  0  0
  8  7  1  0  0  0  0
  9  4  1  0  0  0  0
  9  8  1  0  0  0  0
 11  3  1  0  0  0  0
 14 15  2  0  0  0  0
 14 19  1  0  0  0  0
 15 16  1  0  0  0  0
 16 17  2  0  0  0  0
 16  2  1  0  0  0  0
 18 17  1  0  0  0  0
 18 21  1  0  0  0  0
 19 18  2  0  0  0  0
 20 14  1  0  0  0  0
 22 23  1  0  0  0  0
 22 15  1  0  0  0  0
 23 29  1  0  0  0  0
 24 31  1  0  0  0  0
 24 23  1  0  0  0  0
 25 24  1  0  0  0  0
 26 25  1  0  0  0  0
 26 33  1  0  0  0  0
 27 26  1  0  0  0  0
 27 22  1  0  0  0  0
 28 23  1  0  0  0  0
 30 24  1  0  0  0  0
 32 25  1  0  0  0  0
 34 26  1  0  0  0  0
 35 27  1  0  0  0  0
 36 27  1  0  0  0  0
 37  8  1  0  0  0  0
 37 38  1  0  0  0  0
 38 39  1  0  0  0  0
 39 40  2  0  0  0  0
 41 40  1  0  0  0  0
 42 41  2  0  0  0  0
 43 42  1  0  0  0  0
 44 43  2  0  0  0  0
 45 44  1  0  0  0  0
 46 48  2  0  0  0  0
 46 44  1  0  0  0  0
 47 46  1  0  0  0  0
 48 49  1  0  0  0  0
 49 38  2  0  0  0  0
 49 42  1  0  0  0  0
M  END
>  <minimizedAffinity>
-6.43562889

>  <minimizedRMSD>
4.58065844

$$$$
