
 OpenBabel03242511173D

 22 24  0  0  0  0  0  0  0  0999 V2000
   46.5850   33.8420   40.5070 C   0  0  0  0  0  0  0  0  0  0  0  0
   45.4240   33.2610   40.9210 N   0  0  0  0  0  0  0  0  0  0  0  0
   44.6490   32.5510   40.0700 C   0  0  0  0  0  3  0  0  0  0  0  0
   45.0770   32.4480   38.8070 N   0  0  0  0  0  0  0  0  0  0  0  0
   46.1990   32.9870   38.3270 C   0  0  0  0  0  0  0  0  0  0  0  0
   46.6150   32.8630   37.0160 C   0  0  0  0  0  3  0  0  0  0  0  0
   47.7990   33.4620   36.6200 C   0  0  0  0  0  0  0  0  0  0  0  0
   48.1000   33.3470   35.5840 H   0  0  0  0  0  0  0  0  0  0  0  0
   48.5570   34.1760   37.5250 C   0  0  0  0  0  0  0  0  0  0  0  0
   49.4820   34.6350   37.1790 H   0  0  0  0  0  0  0  0  0  0  0  0
   48.1810   34.3320   38.8600 C   0  0  0  0  0  3  0  0  0  0  0  0
   46.9910   33.7100   39.1890 C   0  0  0  0  0  0  0  0  0  0  0  0
   47.4600   34.7330   41.7850 S   0  0  0  0  0  0  0  0  0  0  0  0
   44.5880   35.9170   44.3880 C   0  0  0  0  0  0  0  0  0  0  0  0
   45.4220   35.8770   43.2520 C   0  0  0  0  0  0  0  0  0  0  0  0
   46.3730   34.8470   43.1930 C   0  0  0  0  0  0  0  0  0  0  0  0
   46.4360   33.9630   44.2130 N   0  0  0  0  0  0  0  0  0  0  0  0
   45.6240   34.0270   45.2910 C   0  0  0  0  0  0  0  0  0  0  0  0
   44.7090   35.0050   45.3630 N   0  0  0  0  0  0  0  0  0  0  0  0
   43.8770   36.7180   44.3950 H   0  0  0  0  0  0  0  0  0  0  0  0
   45.3200   36.6090   42.4770 H   0  0  0  0  0  0  0  0  0  0  0  0
   45.6590   33.3290   46.1170 H   0  0  0  0  0  0  0  0  0  0  0  0
  1  2  1  0  0  0  0
  1 13  1  0  0  0  0
  3  2  2  0  0  0  0
  4  3  1  0  0  0  0
  5  4  2  0  0  0  0
  5 12  1  0  0  0  0
  6  5  1  0  0  0  0
  7  6  2  0  0  0  0
  7  9  1  0  0  0  0
  8  7  1  0  0  0  0
  9 11  2  0  0  0  0
 10  9  1  0  0  0  0
 11 12  1  0  0  0  0
 12  1  2  0  0  0  0
 13 16  1  0  0  0  0
 14 20  1  0  0  0  0
 14 19  1  0  0  0  0
 15 14  2  0  0  0  0
 16 15  1  0  0  0  0
 16 17  2  0  0  0  0
 17 18  1  0  0  0  0
 18 19  2  0  0  0  0
 18 22  1  0  0  0  0
 21 15  1  0  0  0  0
M  END
>  <minimizedAffinity>
-4.68827343

>  <minimizedRMSD>
0.875377953

$$$$
