
 OpenBabel03252508003D

 32 35  0  0  1  0  0  0  0  0999 V2000
   48.0310   30.3800   44.3300 C   0  0  0  0  0  0  0  0  0  0  0  0
   47.3990   31.4280   43.5720 C   0  0  0  0  0  0  0  0  0  0  0  0
   46.4940   32.2320   44.2620 C   0  0  0  0  0  0  0  0  0  0  0  0
   46.2670   31.9860   45.5750 N   0  0  0  0  0  0  0  0  0  0  0  0
   46.9030   30.9680   46.2410 C   0  0  0  0  0  0  0  0  0  0  0  0
   47.7780   30.1610   45.6540 N   0  0  0  0  0  0  0  0  0  0  0  0
   47.6440   31.5410   42.5470 H   0  0  0  0  0  0  0  0  0  0  0  0
   46.0060   33.0230   43.7250 H   0  0  0  0  0  0  0  0  0  0  0  0
   46.6030   30.7640   47.6880 C   0  0  1  0  0  0  0  0  0  0  0  0
   47.7480   30.7720   48.6730 C   0  0  0  0  0  0  0  0  0  0  0  0
   46.8270   31.9520   48.5350 C   0  0  1  0  0  0  0  0  0  0  0  0
   45.7490   30.0980   47.9210 H   0  0  0  0  0  0  0  0  0  0  0  0
   47.6280   30.0890   49.5400 H   0  0  0  0  0  0  0  0  0  0  0  0
   48.7460   30.7690   48.1720 H   0  0  0  0  0  0  0  0  0  0  0  0
   46.1920   32.1260   49.4390 H   0  0  0  0  0  0  0  0  0  0  0  0
   47.5050   33.1240   47.9680 N   0  0  0  0  0  0  0  0  0  0  0  0
   48.5480   33.0500   48.0590 H   0  0  0  0  0  0  0  0  0  0  0  0
   47.2390   33.9560   48.5560 H   0  0  0  0  0  0  0  0  0  0  0  0
   48.9390   29.5370   43.5980 C   0  0  2  0  0  3  0  0  0  0  0  0
   48.5390   28.4070   43.0960 O   0  0  0  0  0  1  0  0  0  0  0  0
   50.3470   29.5900   43.2130 C   0  0  0  0  0  0  0  0  0  0  0  0
   51.2460   28.9990   44.0140 N   0  0  0  0  0  0  0  0  0  0  0  0
   52.5890   28.9950   43.7410 C   0  0  0  0  0  3  0  0  0  0  0  0
   53.0730   29.5840   42.6520 N   0  0  0  0  0  0  0  0  0  0  0  0
   52.2510   30.2140   41.7670 C   0  0  0  0  0  0  0  0  0  0  0  0
   52.7100   30.8320   40.6260 C   0  0  0  0  0  3  0  0  0  0  0  0
   51.8530   31.4580   39.7470 C   0  0  0  0  0  0  0  0  0  0  0  0
   52.3270   31.9020   38.8970 H   0  0  0  0  0  0  0  0  0  0  0  0
   50.4950   31.4320   40.0730 C   0  0  0  0  0  0  0  0  0  0  0  0
   49.8510   31.9280   39.3680 H   0  0  0  0  0  0  0  0  0  0  0  0
   50.0970   30.8030   41.2200 C   0  0  0  0  0  3  0  0  0  0  0  0
   50.9230   30.1740   42.1130 C   0  0  0  0  0  0  0  0  0  0  0  0
  1  6  1  0  0  0  0
  2  3  1  0  0  0  0
  2  1  2  0  0  0  0
  3  4  2  0  0  0  0
  4  5  1  0  0  0  0
  5  9  1  0  0  0  0
  6  5  2  0  0  0  0
  7  2  1  0  0  0  0
  8  3  1  0  0  0  0
  9 12  1  1  0  0  0
  9 11  1  0  0  0  0
  9 10  1  0  0  0  0
 10 13  1  0  0  0  0
 11 10  1  0  0  0  0
 11 15  1  1  0  0  0
 14 10  1  0  0  0  0
 16 17  1  0  0  0  0
 16 11  1  0  0  0  0
 16 18  1  0  0  0  0
 19 20  1  1  0  0  0
 19  1  1  0  0  0  0
 21 19  1  0  0  0  0
 21 22  1  0  0  0  0
 23 22  2  0  0  0  0
 24 23  1  0  0  0  0
 25 32  1  0  0  0  0
 25 24  2  0  0  0  0
 26 25  1  0  0  0  0
 27 29  1  0  0  0  0
 27 26  2  0  0  0  0
 28 27  1  0  0  0  0
 29 31  2  0  0  0  0
 30 29  1  0  0  0  0
 31 32  1  0  0  0  0
 32 21  2  0  0  0  0
M  END
>  <minimizedAffinity>
-3.65018606

>  <minimizedRMSD>
5.97356558

$$$$
