
 OpenBabel03252507463D

 40 43  0  0  0  0  0  0  0  0999 V2000
   48.2460   34.3500   40.5960 C   0  0  0  0  0  0  0  0  0  0  0  0
   48.5710   33.4830   41.6340 C   0  0  0  0  0  0  0  0  0  0  0  0
   49.3290   33.9100   42.7130 C   0  0  0  0  0  0  0  0  0  0  0  0
   49.7340   35.2310   42.6920 N   0  0  0  0  0  0  0  0  0  0  0  0
   49.3980   36.0410   41.6670 C   0  0  0  0  0  0  0  0  0  0  0  0
   48.6720   35.6010   40.6500 N   0  0  0  0  0  0  0  0  0  0  0  0
   49.5980   33.2600   43.5350 H   0  0  0  0  0  0  0  0  0  0  0  0
   49.7600   37.0600   41.7370 H   0  0  0  0  0  0  0  0  0  0  0  0
   47.4370   33.7800   39.5060 C   0  0  0  0  0  0  0  0  0  0  0  0
   47.3520   32.6760   39.6610 H   0  0  0  0  0  0  0  0  0  0  0  0
   46.3970   34.1580   39.5160 H   0  0  0  0  0  0  0  0  0  0  0  0
   47.9790   34.0950   38.1430 C   0  0  0  0  0  0  0  0  0  0  0  0
   47.7610   35.1750   37.9310 H   0  0  0  0  0  0  0  0  0  0  0  0
   49.0880   34.0050   38.1230 H   0  0  0  0  0  0  0  0  0  0  0  0
   47.3480   33.2960   37.0510 C   0  0  0  0  0  0  0  0  0  0  0  0
   45.9300   33.1840   37.0000 C   0  0  0  0  0  0  0  0  0  0  0  0
   45.6530   32.1300   35.5160 S   0  0  0  0  0  0  0  0  0  0  0  0
   47.5230   32.0250   35.2200 C   0  0  0  0  0  0  0  0  0  0  0  0
   47.9380   32.6520   36.0840 N   0  0  0  0  0  0  0  0  0  0  0  0
   45.2090   33.6210   37.6820 H   0  0  0  0  0  0  0  0  0  0  0  0
   48.0810   31.3140   34.1600 O   0  0  0  0  0  0  0  0  0  0  0  0
   48.5450   31.3570   31.5520 O   0  0  0  0  0  0  0  0  0  0  0  0
   48.6240   32.2030   32.8190 P   0  0  0  0  0  0  0  0  0  0  0  0
   47.6430   33.5680   32.6460 O   0  0  0  0  0  0  0  0  0  0  0  0
   46.8420   33.3470   32.1180 H   0  0  0  0  0  0  0  0  0  0  0  0
   50.2210   32.7340   33.1020 O   0  0  0  0  0  0  0  0  0  0  0  0
   50.3910   33.4630   32.4740 H   0  0  0  0  0  0  0  0  0  0  0  0
   48.0170   31.7730   41.6080 S   0  0  0  0  0  0  0  0  0  0  0  0
   47.4780   31.2670   43.2340 C   0  0  0  0  0  0  0  0  0  0  0  0
   46.2650   31.6380   43.7220 N   0  0  0  0  0  0  0  0  0  0  0  0
   45.8910   31.2400   44.9500 C   0  0  0  0  0  3  0  0  0  0  0  0
   46.7100   30.4780   45.7010 N   0  0  0  0  0  0  0  0  0  0  0  0
   47.9250   30.0940   45.2400 C   0  0  0  0  0  0  0  0  0  0  0  0
   48.6870   29.3150   46.0860 C   0  0  0  0  0  3  0  0  0  0  0  0
   49.9290   28.8990   45.6660 C   0  0  0  0  0  0  0  0  0  0  0  0
   50.4940   28.2880   46.3610 H   0  0  0  0  0  0  0  0  0  0  0  0
   50.3650   29.2830   44.4010 C   0  0  0  0  0  0  0  0  0  0  0  0
   51.3420   28.9350   44.1110 H   0  0  0  0  0  0  0  0  0  0  0  0
   49.5740   30.0650   43.5780 C   0  0  0  0  0  3  0  0  0  0  0  0
   48.3250   30.4940   43.9810 C   0  0  0  0  0  0  0  0  0  0  0  0
  1  6  2  0  0  0  0
  1  2  1  0  0  0  0
  2  3  2  0  0  0  0
  3  7  1  0  0  0  0
  4  3  1  0  0  0  0
  5  8  1  0  0  0  0
  5  4  2  0  0  0  0
  6  5  1  0  0  0  0
  9 11  1  0  0  0  0
  9 10  1  0  0  0  0
  9  1  1  0  0  0  0
 12  9  1  0  0  0  0
 13 12  1  0  0  0  0
 14 12  1  0  0  0  0
 15 12  1  0  0  0  0
 16 15  2  0  0  0  0
 16 20  1  0  0  0  0
 17 16  1  0  0  0  0
 18 17  1  0  0  0  0
 18 19  2  0  0  0  0
 19 15  1  0  0  0  0
 21 18  1  0  0  0  0
 22 23  2  0  0  0  0
 23 26  1  0  0  0  0
 23 21  1  0  0  0  0
 24 23  1  0  0  0  0
 25 24  1  0  0  0  0
 27 26  1  0  0  0  0
 28  2  1  0  0  0  0
 28 29  1  0  0  0  0
 29 30  2  0  0  0  0
 29 40  1  0  0  0  0
 30 31  1  0  0  0  0
 31 32  2  0  0  0  0
 33 32  1  0  0  0  0
 33 34  1  0  0  0  0
 35 34  2  0  0  0  0
 35 36  1  0  0  0  0
 37 35  1  0  0  0  0
 38 37  1  0  0  0  0
 39 40  1  0  0  0  0
 39 37  2  0  0  0  0
 40 33  2  0  0  0  0
M  END
>  <minimizedAffinity>
-5.62278271

>  <minimizedRMSD>
7.3922224

$$$$
