
 OpenBabel03252508033D

 45 49  0  0  1  0  0  0  0  0999 V2000
   42.0070   33.3160   41.1970 C   0  0  0  0  0  0  0  0  0  0  0  0
   42.7840   34.4280   41.3310 C   0  0  0  0  0  0  0  0  0  0  0  0
   42.1660   35.6920   41.2200 C   0  0  0  0  0  0  0  0  0  0  0  0
   40.8160   35.8430   40.9840 C   0  0  0  0  0  0  0  0  0  0  0  0
   40.0450   34.7230   40.8520 C   0  0  0  0  0  0  0  0  0  0  0  0
   40.6390   33.5030   40.9570 C   0  0  0  0  0  0  0  0  0  0  0  0
   42.6950   36.6250   41.3030 H   0  0  0  0  0  0  0  0  0  0  0  0
   40.3480   36.8040   40.9010 H   0  0  0  0  0  0  0  0  0  0  0  0
   39.0010   34.7630   40.6690 H   0  0  0  0  0  0  0  0  0  0  0  0
   40.0160   32.5990   40.8500 H   0  0  0  0  0  0  0  0  0  0  0  0
   42.6280   31.7530   41.3520 S   0  0  0  0  0  0  0  0  0  0  0  0
   42.0310   31.0300   40.1480 O   0  0  0  0  0  0  0  0  0  0  0  0
   42.0470   31.1370   42.6050 O   0  0  0  0  0  0  0  0  0  0  0  0
   44.1120   31.1090   41.0120 C   0  0  0  0  0  0  0  0  0  0  0  0
   44.7690   31.0870   39.8300 N   0  0  0  0  0  0  0  0  0  0  0  0
   45.8560   30.4750   39.4480 C   0  0  0  0  0  3  0  0  0  0  0  0
   46.4270   29.7340   40.3850 N   0  0  0  0  0  0  0  0  0  0  0  0
   45.9220   29.6340   41.6170 C   0  0  0  0  0  0  0  0  0  0  0  0
   46.6700   28.7960   42.4470 C   0  0  0  0  0  3  0  0  0  0  0  0
   46.2100   28.6350   43.7370 C   0  0  0  0  0  0  0  0  0  0  0  0
   46.7440   28.0000   44.4250 H   0  0  0  0  0  0  0  0  0  0  0  0
   45.0650   29.2900   44.1390 C   0  0  0  0  0  0  0  0  0  0  0  0
   44.7300   29.1460   45.1560 H   0  0  0  0  0  0  0  0  0  0  0  0
   44.4040   30.0910   43.2400 C   0  0  0  0  0  3  0  0  0  0  0  0
   44.7770   30.3140   41.9370 C   0  0  0  0  0  0  0  0  0  0  0  0
   44.2140   34.3720   41.5630 C   0  0  0  0  0  0  0  0  0  0  0  0
   45.0860   34.2590   40.6330 O   0  0  0  0  0  0  0  0  0  0  0  0
   44.5660   34.4590   42.9500 C   0  0  0  0  0  0  0  0  0  0  0  0
   44.2790   35.7100   43.5720 C   0  0  0  0  0  0  0  0  0  0  0  0
   44.6060   35.8190   44.9220 C   0  0  0  0  0  0  0  0  0  0  0  0
   45.1640   34.7480   45.5460 N   0  0  0  0  0  0  0  0  0  0  0  0
   45.4120   33.5880   44.8950 C   0  0  0  0  0  0  0  0  0  0  0  0
   45.1190   33.4640   43.6440 N   0  0  0  0  0  0  0  0  0  0  0  0
   43.8500   36.5950   43.1740 H   0  0  0  0  0  0  0  0  0  0  0  0
   44.4440   36.7080   45.5210 H   0  0  0  0  0  0  0  0  0  0  0  0
   46.0160   32.4650   45.6570 C   0  0  1  0  0  0  0  0  0  0  0  0
   46.9680   32.7830   46.7920 C   0  0  0  0  0  0  0  0  0  0  0  0
   45.5690   32.3310   47.0510 C   0  0  1  0  0  0  0  0  0  0  0  0
   46.2130   31.5570   45.0850 H   0  0  0  0  0  0  0  0  0  0  0  0
   47.7540   32.0180   46.9820 H   0  0  0  0  0  0  0  0  0  0  0  0
   47.2630   33.8420   46.8750 H   0  0  0  0  0  0  0  0  0  0  0  0
   45.4030   31.3220   47.4700 H   0  0  0  0  0  0  0  0  0  0  0  0
   44.7660   33.3900   47.6550 N   0  0  0  0  0  0  0  0  0  0  0  0
   44.1980   32.9930   48.4610 H   0  0  0  0  0  0  0  0  0  0  0  0
   45.3090   34.1800   48.0180 H   0  0  0  0  0  0  0  0  0  0  0  0
  1  2  1  0  0  0  0
  1 11  1  0  0  0  0
  2 26  1  0  0  0  0
  3  7  1  0  0  0  0
  3  2  2  0  0  0  0
  4  3  1  0  0  0  0
  5  6  1  0  0  0  0
  5  4  2  0  0  0  0
  6  1  2  0  0  0  0
  8  4  1  0  0  0  0
  9  5  1  0  0  0  0
 10  6  1  0  0  0  0
 11 13  2  0  0  0  0
 12 11  2  0  0  0  0
 14 11  1  0  0  0  0
 14 25  1  0  0  0  0
 15 14  2  0  0  0  0
 16 15  1  0  0  0  0
 16 17  2  0  0  0  0
 17 18  1  0  0  0  0
 18 25  2  0  0  0  0
 18 19  1  0  0  0  0
 19 20  2  0  0  0  0
 20 22  1  0  0  0  0
 20 21  1  0  0  0  0
 22 23  1  0  0  0  0
 24 22  2  0  0  0  0
 25 24  1  0  0  0  0
 26 28  1  0  0  0  0
 27 26  2  0  0  0  0
 28 29  2  0  0  0  0
 28 33  1  0  0  0  0
 29 30  1  0  0  0  0
 30 35  1  0  0  0  0
 30 31  2  0  0  0  0
 32 31  1  0  0  0  0
 32 36  1  0  0  0  0
 33 32  2  0  0  0  0
 34 29  1  0  0  0  0
 36 39  1  6  0  0  0
 36 37  1  0  0  0  0
 36 38  1  0  0  0  0
 37 41  1  0  0  0  0
 37 40  1  0  0  0  0
 37 38  1  0  0  0  0
 38 42  1  1  0  0  0
 38 43  1  0  0  0  0
 43 45  1  0  0  0  0
 43 44  1  0  0  0  0
M  END
>  <minimizedAffinity>
-5.93133402

>  <minimizedRMSD>
0.818066955

$$$$
