
 OpenBabel03252506463D

 45 49  0  0  1  0  0  0  0  0999 V2000
   49.4110   33.3630   41.4130 N   0  0  1  0  0  0  0  0  0  0  0  0
   50.6840   33.1000   42.0330 C   0  0  0  0  0  0  0  0  0  0  0  0
   51.2990   31.7820   41.6700 C   0  0  0  0  0  0  0  0  0  0  0  0
   50.4240   30.6740   42.2160 C   0  0  0  0  0  0  0  0  0  0  0  0
   48.9730   31.0470   42.1500 C   0  0  0  0  0  0  0  0  0  0  0  0
   48.7780   32.1040   41.0910 C   0  0  2  0  0  0  0  0  0  0  0  0
   50.5850   33.1150   43.1390 H   0  0  0  0  0  0  0  0  0  0  0  0
   51.3450   33.9450   41.7680 H   0  0  0  0  0  0  0  0  0  0  0  0
   52.2960   31.7710   42.2070 H   0  0  0  0  0  0  0  0  0  0  0  0
   51.5620   31.6490   40.6190 H   0  0  0  0  0  0  0  0  0  0  0  0
   50.6540   29.6930   41.7840 H   0  0  0  0  0  0  0  0  0  0  0  0
   50.6710   30.6070   43.3130 H   0  0  0  0  0  0  0  0  0  0  0  0
   48.3040   30.2100   41.9240 H   0  0  0  0  0  0  0  0  0  0  0  0
   48.6030   31.4890   43.1030 H   0  0  0  0  0  0  0  0  0  0  0  0
   47.6850   32.3030   41.0680 H   0  0  0  0  0  0  0  0  0  0  0  0
   49.1230   31.5890   39.7950 N   0  0  0  0  0  0  0  0  0  0  0  0
   50.0770   31.8840   39.5130 H   0  0  0  0  0  0  0  0  0  0  0  0
   48.3360   30.7970   38.9280 C   0  0  0  0  0  0  0  0  0  0  0  0
   48.3040   29.4590   38.9350 N   0  0  0  0  0  0  0  0  0  0  0  0
   47.5880   28.6690   38.1560 C   0  0  0  0  0  3  0  0  0  0  0  0
   46.7890   29.2440   37.2410 N   0  0  0  0  0  0  0  0  0  0  0  0
   46.7320   30.5790   37.1340 C   0  0  0  0  0  0  0  0  0  0  0  0
   45.9130   31.1380   36.1960 C   0  0  0  0  0  3  0  0  0  0  0  0
   45.8060   32.5030   36.0300 C   0  0  0  0  0  0  0  0  0  0  0  0
   45.1440   32.8690   35.2750 H   0  0  0  0  0  0  0  0  0  0  0  0
   46.5780   33.2840   36.8720 C   0  0  0  0  0  0  0  0  0  0  0  0
   46.4860   34.3520   36.7330 H   0  0  0  0  0  0  0  0  0  0  0  0
   47.3910   32.6980   37.8050 C   0  0  0  0  0  3  0  0  0  0  0  0
   47.5040   31.3420   37.9760 C   0  0  0  0  0  0  0  0  0  0  0  0
   47.2750   34.6770   41.9820 C   0  0  1  0  0  0  0  0  0  0  0  0
   48.4250   35.5950   41.8030 C   0  0  0  0  0  0  0  0  0  0  0  0
   48.6580   34.2090   42.2530 C   0  0  2  0  0  0  0  0  0  0  0  0
   46.7300   34.4210   41.0460 H   0  0  0  0  0  0  0  0  0  0  0  0
   48.5970   36.3970   42.5460 H   0  0  0  0  0  0  0  0  0  0  0  0
   48.7510   35.8990   40.7770 H   0  0  0  0  0  0  0  0  0  0  0  0
   48.8680   34.0540   43.3540 H   0  0  0  0  0  0  0  0  0  0  0  0
   45.5310   36.0470   43.1580 C   0  0  0  0  0  0  0  0  0  0  0  0
   46.3520   34.9100   43.1110 C   0  0  0  0  0  0  0  0  0  0  0  0
   46.2540   33.9830   44.1740 C   0  0  0  0  0  0  0  0  0  0  0  0
   45.3790   34.2440   45.1730 N   0  0  0  0  0  0  0  0  0  0  0  0
   44.6000   35.3430   45.1960 C   0  0  0  0  0  0  0  0  0  0  0  0
   44.6690   36.2610   44.1820 N   0  0  0  0  0  0  0  0  0  0  0  0
   45.6080   36.7540   42.3430 H   0  0  0  0  0  0  0  0  0  0  0  0
   46.8720   33.0950   44.1710 H   0  0  0  0  0  0  0  0  0  0  0  0
   43.9460   35.4220   46.0560 H   0  0  0  0  0  0  0  0  0  0  0  0
  1  2  1  1  0  0  0
  1 32  1  0  0  0  0
  2  7  1  0  0  0  0
  3  2  1  0  0  0  0
  3  9  1  0  0  0  0
  3  4  1  0  0  0  0
  4 12  1  0  0  0  0
  5  4  1  0  0  0  0
  5 14  1  0  0  0  0
  6 15  1  6  0  0  0
  6  1  1  0  0  0  0
  6  5  1  0  0  0  0
  8  2  1  0  0  0  0
 10  3  1  0  0  0  0
 11  4  1  0  0  0  0
 13  5  1  0  0  0  0
 16  6  1  0  0  0  0
 17 16  1  0  0  0  0
 18 19  1  0  0  0  0
 18 16  1  0  0  0  0
 20 19  2  0  0  0  0
 21 20  1  0  0  0  0
 22 21  2  0  0  0  0
 22 29  1  0  0  0  0
 23 22  1  0  0  0  0
 24 23  2  0  0  0  0
 24 26  1  0  0  0  0
 25 24  1  0  0  0  0
 26 28  2  0  0  0  0
 27 26  1  0  0  0  0
 28 29  1  0  0  0  0
 29 18  2  0  0  0  0
 30 33  1  6  0  0  0
 30 32  1  0  0  0  0
 30 38  1  0  0  0  0
 31 30  1  0  0  0  0
 31 32  1  0  0  0  0
 31 34  1  0  0  0  0
 32 36  1  1  0  0  0
 35 31  1  0  0  0  0
 37 42  1  0  0  0  0
 38 37  2  0  0  0  0
 38 39  1  0  0  0  0
 39 40  2  0  0  0  0
 40 41  1  0  0  0  0
 41 45  1  0  0  0  0
 42 41  2  0  0  0  0
 43 37  1  0  0  0  0
 44 39  1  0  0  0  0
M  END
>  <minimizedAffinity>
-5.39693594

>  <minimizedRMSD>
1.63823485

$$$$
