
 OpenBabel03252504333D

 43 46  0  0  0  0  0  0  0  0999 V2000
   41.6110   35.7460   41.1940 C   0  0  0  0  0  0  0  0  0  0  0  0
   41.5460   35.8450   42.3020 H   0  0  0  0  0  0  0  0  0  0  0  0
   41.2240   36.7000   40.7770 H   0  0  0  0  0  0  0  0  0  0  0  0
   40.9220   33.4030   41.3180 C   0  0  0  0  0  0  0  0  0  0  0  0
   40.5780   34.7030   40.8750 C   0  0  0  0  0  0  0  0  0  0  0  0
   39.3950   34.8330   40.2330 C   0  0  0  0  0  0  0  0  0  0  0  0
   38.6530   33.7540   40.0670 N   0  0  0  0  0  0  0  0  0  0  0  0
   38.9640   32.5480   40.4730 C   0  0  0  0  0  0  0  0  0  0  0  0
   40.1490   32.3250   41.1340 N   0  0  0  0  0  0  0  0  0  0  0  0
   41.8690   33.2380   41.8430 H   0  0  0  0  0  0  0  0  0  0  0  0
   39.1510   35.8040   39.9100 H   0  0  0  0  0  0  0  0  0  0  0  0
   38.2140   31.2760   40.3390 C   0  0  0  0  0  0  0  0  0  0  0  0
   37.4530   30.7430   41.3290 N   0  0  0  0  0  0  0  0  0  0  0  0
   36.7680   29.6170   41.2610 C   0  0  0  0  0  3  0  0  0  0  0  0
   36.7880   28.8820   40.1200 N   0  0  0  0  0  0  0  0  0  0  0  0
   37.5210   29.3170   39.0510 C   0  0  0  0  0  0  0  0  0  0  0  0
   37.5330   28.5610   37.9000 C   0  0  0  0  0  3  0  0  0  0  0  0
   38.2620   28.9740   36.8050 C   0  0  0  0  0  0  0  0  0  0  0  0
   38.1910   28.3010   35.9700 H   0  0  0  0  0  0  0  0  0  0  0  0
   38.9550   30.1580   36.9410 C   0  0  0  0  0  0  0  0  0  0  0  0
   39.5170   30.4440   36.0480 H   0  0  0  0  0  0  0  0  0  0  0  0
   38.9090   30.8760   38.1150 C   0  0  0  0  0  3  0  0  0  0  0  0
   38.2030   30.4980   39.2100 C   0  0  0  0  0  0  0  0  0  0  0  0
   42.8300   35.4570   40.6570 O   0  0  0  0  0  0  0  0  0  0  0  0
   44.0440   35.3220   41.3070 C   0  0  0  0  0  3  0  0  0  0  0  0
   44.0470   35.6250   42.6000 C   0  0  0  0  0  3  0  0  0  0  0  0
   45.2510   35.5520   43.5230 C   0  0  0  0  0  0  0  0  0  0  0  0
   46.0730   35.2220   42.8590 H   0  0  0  0  0  0  0  0  0  0  0  0
   45.4630   36.5130   43.9990 H   0  0  0  0  0  0  0  0  0  0  0  0
   44.9750   34.5830   44.4700 O   0  0  0  0  0  0  0  0  0  0  0  0
   45.6510   32.4460   43.0480 O   0  0  0  0  0  0  0  0  0  0  0  0
   45.9880   33.2480   44.2830 P   0  0  1  0  0  0  0  0  0  0  0  0
   47.6060   33.7370   44.1170 O   0  0  0  0  0  0  0  0  0  0  0  0
   47.6410   34.7280   44.2440 H   0  0  0  0  0  0  0  0  0  0  0  0
   45.8950   32.2690   45.6560 O   0  0  0  0  0  0  0  0  0  0  0  0
   46.2060   32.9590   46.8110 C   0  0  0  0  0  0  0  0  0  0  0  0
   47.0610   32.3030   47.8490 C   0  0  0  0  0  0  0  0  0  0  0  0
   45.5600   32.4170   48.0660 C   0  0  0  0  0  0  0  0  0  0  0  0
   46.4080   34.0210   46.6740 H   0  0  0  0  0  0  0  0  0  0  0  0
   47.7550   32.8750   48.4780 H   0  0  0  0  0  0  0  0  0  0  0  0
   47.3880   31.2550   47.6840 H   0  0  0  0  0  0  0  0  0  0  0  0
   45.2970   33.2120   48.8110 H   0  0  0  0  0  0  0  0  0  0  0  0
   44.9260   31.5310   48.0170 H   0  0  0  0  0  0  0  0  0  0  0  0
  1  2  1  0  0  0  0
  3  1  1  0  0  0  0
  4 10  1  0  0  0  0
  5  1  1  0  0  0  0
  5  4  2  0  0  0  0
  6  5  1  0  0  0  0
  7  6  2  0  0  0  0
  7  8  1  0  0  0  0
  8  9  2  0  0  0  0
  9  4  1  0  0  0  0
 11  6  1  0  0  0  0
 12  8  1  0  0  0  0
 12 13  1  0  0  0  0
 14 13  2  0  0  0  0
 15 14  1  0  0  0  0
 16 23  1  0  0  0  0
 16 15  2  0  0  0  0
 17 16  1  0  0  0  0
 18 20  1  0  0  0  0
 18 17  2  0  0  0  0
 19 18  1  0  0  0  0
 20 22  2  0  0  0  0
 21 20  1  0  0  0  0
 22 23  1  0  0  0  0
 23 12  2  0  0  0  0
 24  1  1  0  0  0  0
 24 25  1  0  0  0  0
 25 26  2  0  0  0  0
 26 27  1  0  0  0  0
 27 29  1  0  0  0  0
 27 30  1  0  0  0  0
 28 27  1  0  0  0  0
 32 31  2  6  0  0  0
 32 30  1  0  0  0  0
 32 35  1  0  0  0  0
 33 34  1  0  0  0  0
 33 32  1  0  0  0  0
 35 36  1  0  0  0  0
 36 37  1  0  0  0  0
 36 38  1  0  0  0  0
 37 38  1  0  0  0  0
 37 40  1  0  0  0  0
 38 42  1  0  0  0  0
 39 36  1  0  0  0  0
 41 37  1  0  0  0  0
 43 38  1  0  0  0  0
M  END
>  <minimizedAffinity>
-5.68431187

>  <minimizedRMSD>
0.948037088

$$$$
