
 OpenBabel03252506463D

 45 49  0  0  1  0  0  0  0  0999 V2000
   49.5300   33.4710   41.3660 N   0  0  1  0  0  0  0  0  0  0  0  0
   50.6970   33.0490   42.0960 C   0  0  0  0  0  0  0  0  0  0  0  0
   51.2580   31.7250   41.6730 C   0  0  0  0  0  0  0  0  0  0  0  0
   50.2480   30.6460   41.9990 C   0  0  0  0  0  0  0  0  0  0  0  0
   48.8460   31.1400   41.8060 C   0  0  0  0  0  0  0  0  0  0  0  0
   48.8550   32.3030   40.8460 C   0  0  2  0  0  0  0  0  0  0  0  0
   50.4660   32.9680   43.1800 H   0  0  0  0  0  0  0  0  0  0  0  0
   51.4420   33.8590   41.9960 H   0  0  0  0  0  0  0  0  0  0  0  0
   52.1800   31.5830   42.3150 H   0  0  0  0  0  0  0  0  0  0  0  0
   51.6370   31.6700   40.6510 H   0  0  0  0  0  0  0  0  0  0  0  0
   50.4610   29.6940   41.4970 H   0  0  0  0  0  0  0  0  0  0  0  0
   50.3550   30.4560   43.1040 H   0  0  0  0  0  0  0  0  0  0  0  0
   48.1530   30.3840   41.4200 H   0  0  0  0  0  0  0  0  0  0  0  0
   48.3940   31.5190   42.7510 H   0  0  0  0  0  0  0  0  0  0  0  0
   47.7890   32.5920   40.7180 H   0  0  0  0  0  0  0  0  0  0  0  0
   49.3180   31.8860   39.5520 N   0  0  0  0  0  0  0  0  0  0  0  0
   50.3200   32.1220   39.4150 H   0  0  0  0  0  0  0  0  0  0  0  0
   48.5880   31.2520   38.5210 C   0  0  0  0  0  0  0  0  0  0  0  0
   49.0190   30.1960   37.8190 N   0  0  0  0  0  0  0  0  0  0  0  0
   48.3810   29.5600   36.8530 C   0  0  0  0  0  3  0  0  0  0  0  0
   47.1580   29.9990   36.5110 N   0  0  0  0  0  0  0  0  0  0  0  0
   46.6150   31.0510   37.1410 C   0  0  0  0  0  0  0  0  0  0  0  0
   45.3710   31.4780   36.7740 C   0  0  0  0  0  3  0  0  0  0  0  0
   44.7530   32.5520   37.3780 C   0  0  0  0  0  0  0  0  0  0  0  0
   43.7780   32.8310   37.0400 H   0  0  0  0  0  0  0  0  0  0  0  0
   45.4650   33.1830   38.3840 C   0  0  0  0  0  0  0  0  0  0  0  0
   44.9700   34.0230   38.8510 H   0  0  0  0  0  0  0  0  0  0  0  0
   46.7120   32.7350   38.7330 C   0  0  0  0  0  3  0  0  0  0  0  0
   47.3330   31.6670   38.1370 C   0  0  0  0  0  0  0  0  0  0  0  0
   47.3390   34.6970   41.9210 C   0  0  1  0  0  0  0  0  0  0  0  0
   48.4480   35.6620   41.7300 C   0  0  0  0  0  0  0  0  0  0  0  0
   48.7410   34.2930   42.1960 C   0  0  2  0  0  0  0  0  0  0  0  0
   46.8060   34.4080   40.9880 H   0  0  0  0  0  0  0  0  0  0  0  0
   48.5850   36.4790   42.4640 H   0  0  0  0  0  0  0  0  0  0  0  0
   48.7600   35.9690   40.7010 H   0  0  0  0  0  0  0  0  0  0  0  0
   48.9580   34.1600   43.2990 H   0  0  0  0  0  0  0  0  0  0  0  0
   45.5680   36.0260   43.1040 C   0  0  0  0  0  0  0  0  0  0  0  0
   46.4070   34.9020   43.0480 C   0  0  0  0  0  0  0  0  0  0  0  0
   46.3180   33.9620   44.1000 C   0  0  0  0  0  0  0  0  0  0  0  0
   45.4350   34.1970   45.0970 N   0  0  0  0  0  0  0  0  0  0  0  0
   44.6390   35.2840   45.1290 C   0  0  0  0  0  0  0  0  0  0  0  0
   44.6980   36.2150   44.1270 N   0  0  0  0  0  0  0  0  0  0  0  0
   45.6380   36.7430   42.2980 H   0  0  0  0  0  0  0  0  0  0  0  0
   46.9510   33.0840   44.0890 H   0  0  0  0  0  0  0  0  0  0  0  0
   43.9790   35.3420   45.9870 H   0  0  0  0  0  0  0  0  0  0  0  0
  1  2  1  1  0  0  0
  1 32  1  0  0  0  0
  2  7  1  0  0  0  0
  3  4  1  0  0  0  0
  3  2  1  0  0  0  0
  3  9  1  0  0  0  0
  4 12  1  0  0  0  0
  5  4  1  0  0  0  0
  5 14  1  0  0  0  0
  6 15  1  6  0  0  0
  6  1  1  0  0  0  0
  6  5  1  0  0  0  0
  8  2  1  0  0  0  0
 10  3  1  0  0  0  0
 11  4  1  0  0  0  0
 13  5  1  0  0  0  0
 16  6  1  0  0  0  0
 17 16  1  0  0  0  0
 18 16  1  0  0  0  0
 19 18  2  0  0  0  0
 20 19  1  0  0  0  0
 21 20  2  0  0  0  0
 21 22  1  0  0  0  0
 22 29  1  0  0  0  0
 23 22  2  0  0  0  0
 23 24  1  0  0  0  0
 24 26  2  0  0  0  0
 25 24  1  0  0  0  0
 26 28  1  0  0  0  0
 26 27  1  0  0  0  0
 29 18  1  0  0  0  0
 29 28  2  0  0  0  0
 30 33  1  6  0  0  0
 30 32  1  0  0  0  0
 30 38  1  0  0  0  0
 31 30  1  0  0  0  0
 31 32  1  0  0  0  0
 31 34  1  0  0  0  0
 32 36  1  1  0  0  0
 35 31  1  0  0  0  0
 37 42  1  0  0  0  0
 38 37  2  0  0  0  0
 38 39  1  0  0  0  0
 39 40  2  0  0  0  0
 40 41  1  0  0  0  0
 41 45  1  0  0  0  0
 42 41  2  0  0  0  0
 43 37  1  0  0  0  0
 44 39  1  0  0  0  0
M  END
>  <minimizedAffinity>
-5.40569973

>  <minimizedRMSD>
2.1946094

$$$$
