
 OpenBabel03252508443D

 42 45  0  0  0  0  0  0  0  0999 V2000
   43.8590   35.0800   40.9610 C   0  0  0  0  0  0  0  0  0  0  0  0
   44.1630   34.0470   41.1940 H   0  0  0  0  0  0  0  0  0  0  0  0
   44.4880   35.4400   40.1220 H   0  0  0  0  0  0  0  0  0  0  0  0
   41.9470   34.1460   39.6640 C   0  0  0  0  0  0  0  0  0  0  0  0
   42.4290   35.0800   40.5650 C   0  0  0  0  0  0  0  0  0  0  0  0
   41.5470   36.0000   41.0780 C   0  0  0  0  0  0  0  0  0  0  0  0
   40.2350   35.9940   40.7100 C   0  0  0  0  0  0  0  0  0  0  0  0
   39.7340   35.0790   39.8200 C   0  0  0  0  0  0  0  0  0  0  0  0
   40.6530   34.1640   39.3210 C   0  0  0  0  0  0  0  0  0  0  0  0
   41.8930   36.7400   41.7820 H   0  0  0  0  0  0  0  0  0  0  0  0
   39.5270   36.7140   41.1050 H   0  0  0  0  0  0  0  0  0  0  0  0
   38.7190   34.9850   39.4610 H   0  0  0  0  0  0  0  0  0  0  0  0
   40.3370   33.4070   38.6110 H   0  0  0  0  0  0  0  0  0  0  0  0
   44.0650   31.0790   39.0550 C   0  0  0  0  0  0  0  0  0  0  0  0
   43.0960   31.9160   39.6330 C   0  0  0  0  0  0  0  0  0  0  0  0
   42.9240   33.1840   39.1430 C   0  0  0  0  0  0  0  0  0  0  0  0
   43.7140   33.5790   38.1050 N   0  0  0  0  0  0  0  0  0  0  0  0
   44.6440   32.7630   37.5570 C   0  0  0  0  0  0  0  0  0  0  0  0
   44.8230   31.5230   38.0240 N   0  0  0  0  0  0  0  0  0  0  0  0
   44.2000   30.0810   39.4410 H   0  0  0  0  0  0  0  0  0  0  0  0
   42.4680   31.5980   40.4610 H   0  0  0  0  0  0  0  0  0  0  0  0
   45.2510   33.1170   36.7320 H   0  0  0  0  0  0  0  0  0  0  0  0
   44.1540   35.8870   42.1170 N   0  0  0  0  0  0  0  0  0  0  0  0
   43.4620   36.6240   42.2950 H   0  0  0  0  0  0  0  0  0  0  0  0
   44.4610   34.9450   43.5140 S   0  0  0  0  0  0  0  0  0  0  0  0
   44.0490   33.5240   43.2970 O   0  0  0  0  0  0  0  0  0  0  0  0
   43.1560   33.1380   43.2600 H   0  0  0  0  0  0  0  0  0  0  0  0
   43.7880   35.5030   44.7220 O   0  0  0  0  0  0  0  0  0  0  0  0
   44.1190   36.2580   45.2770 H   0  0  0  0  0  0  0  0  0  0  0  0
   46.1230   34.9810   43.7630 O   0  0  0  0  0  0  0  0  0  0  0  0
   47.0300   34.5170   42.8200 C   0  0  0  0  0  0  0  0  0  0  0  0
   47.4330   35.1940   41.7050 N   0  0  0  0  0  0  0  0  0  0  0  0
   48.3210   34.6430   40.8580 C   0  0  0  0  0  3  0  0  0  0  0  0
   48.8730   33.4180   41.0260 N   0  0  0  0  0  0  0  0  0  0  0  0
   48.4790   32.7380   42.1310 C   0  0  0  0  0  0  0  0  0  0  0  0
   49.0440   31.4880   42.2990 C   0  0  0  0  0  3  0  0  0  0  0  0
   48.7000   30.7170   43.4050 C   0  0  0  0  0  0  0  0  0  0  0  0
   49.1510   29.7260   43.5340 H   0  0  0  0  0  0  0  0  0  0  0  0
   47.7890   31.2170   44.3260 C   0  0  0  0  0  0  0  0  0  0  0  0
   47.5330   30.6000   45.1830 H   0  0  0  0  0  0  0  0  0  0  0  0
   47.2400   32.4770   44.1270 C   0  0  0  0  0  3  0  0  0  0  0  0
   47.5630   33.2630   43.0400 C   0  0  0  0  0  0  0  0  0  0  0  0
  1  2  1  0  0  0  0
  1 23  1  0  0  0  0
  3  1  1  0  0  0  0
  4  5  1  0  0  0  0
  5  1  1  0  0  0  0
  5  6  2  0  0  0  0
  6 10  1  0  0  0  0
  7  6  1  0  0  0  0
  7 11  1  0  0  0  0
  8  7  2  0  0  0  0
  9  4  2  0  0  0  0
  9  8  1  0  0  0  0
 12  8  1  0  0  0  0
 13  9  1  0  0  0  0
 14 20  1  0  0  0  0
 14 15  1  0  0  0  0
 15 21  1  0  0  0  0
 16 15  2  0  0  0  0
 16  4  1  0  0  0  0
 17 16  1  0  0  0  0
 18 19  1  0  0  0  0
 18 17  2  0  0  0  0
 19 14  2  0  0  0  0
 22 18  1  0  0  0  0
 23 24  1  0  0  0  0
 23 25  1  0  0  0  0
 25 30  1  0  0  0  0
 25 28  1  0  0  0  0
 26 25  1  0  0  0  0
 27 26  1  0  0  0  0
 28 29  1  0  0  0  0
 31 42  1  0  0  0  0
 31 30  1  0  0  0  0
 32 31  2  0  0  0  0
 33 34  2  0  0  0  0
 33 32  1  0  0  0  0
 34 35  1  0  0  0  0
 35 36  2  0  0  0  0
 35 42  1  0  0  0  0
 36 37  1  0  0  0  0
 37 38  1  0  0  0  0
 37 39  2  0  0  0  0
 39 40  1  0  0  0  0
 41 39  1  0  0  0  0
 42 41  2  0  0  0  0
M  END
>  <minimizedAffinity>
-6.04039097

>  <minimizedRMSD>
3.19249988

$$$$
