
 OpenBabel03252500453D

 37 40  0  0  1  0  0  0  0  0999 V2000
   37.8820   26.9990   42.9200 C   0  0  1  0  0  0  0  0  0  0  0  0
   36.4760   27.4180   43.3350 C   0  0  0  0  0  0  0  0  0  0  0  0
   36.9720   27.6680   41.9360 C   0  0  1  0  0  0  0  0  0  0  0  0
   37.9410   25.8870   42.8290 H   0  0  0  0  0  0  0  0  0  0  0  0
   36.4160   28.2890   44.0420 H   0  0  0  0  0  0  0  0  0  0  0  0
   35.7000   26.6810   43.5320 H   0  0  0  0  0  0  0  0  0  0  0  0
   36.4540   27.0290   41.1650 H   0  0  0  0  0  0  0  0  0  0  0  0
   38.9920   27.8280   43.4240 C   0  0  0  0  0  0  0  0  0  0  0  0
   39.0220   28.7750   42.8100 H   0  0  0  0  0  0  0  0  0  0  0  0
   38.7860   28.1770   44.4500 H   0  0  0  0  0  0  0  0  0  0  0  0
   40.3270   27.2260   43.2730 C   0  0  0  0  0  0  0  0  0  0  0  0
   40.3130   25.8590   43.1980 C   0  0  0  0  0  0  0  0  0  0  0  0
   41.5140   25.1530   43.0610 C   0  0  0  0  0  0  0  0  0  0  0  0
   42.6590   25.9200   43.0090 N   0  0  0  0  0  0  0  0  0  0  0  0
   42.6470   27.2670   43.0840 C   0  0  0  0  0  0  0  0  0  0  0  0
   41.4840   27.8900   43.2140 N   0  0  0  0  0  0  0  0  0  0  0  0
   39.5460   25.0960   43.2110 H   0  0  0  0  0  0  0  0  0  0  0  0
   41.6900   24.0940   42.9890 H   0  0  0  0  0  0  0  0  0  0  0  0
   43.6120   27.7480   43.0310 H   0  0  0  0  0  0  0  0  0  0  0  0
   37.2840   28.9560   41.5780 O   0  0  0  0  0  0  0  0  0  0  0  0
   34.8320   28.8750   40.5510 O   0  0  0  0  0  0  0  0  0  0  0  0
   36.1080   29.6950   40.6260 P   0  0  1  0  0  0  0  0  0  0  0  0
   35.6750   31.1750   41.3740 O   0  0  0  0  0  0  0  0  0  0  0  0
   34.7130   31.3220   41.3640 H   0  0  0  0  0  0  0  0  0  0  0  0
   36.7430   29.9930   39.0950 O   0  0  0  0  0  0  0  0  0  0  0  0
   37.9290   30.7020   38.9570 C   0  0  0  0  0  0  0  0  0  0  0  0
   37.9670   31.9540   39.4890 N   0  0  0  0  0  0  0  0  0  0  0  0
   39.0740   32.7180   39.4060 C   0  0  0  0  0  3  0  0  0  0  0  0
   40.1930   32.2500   38.7790 N   0  0  0  0  0  0  0  0  0  0  0  0
   40.1570   30.9980   38.2460 C   0  0  0  0  0  0  0  0  0  0  0  0
   41.2860   30.5190   37.6110 C   0  0  0  0  0  3  0  0  0  0  0  0
   41.3130   29.2510   37.0470 C   0  0  0  0  0  0  0  0  0  0  0  0
   42.2050   28.8950   36.5550 H   0  0  0  0  0  0  0  0  0  0  0  0
   40.1460   28.4930   37.1560 C   0  0  0  0  0  0  0  0  0  0  0  0
   40.1820   27.5250   36.7200 H   0  0  0  0  0  0  0  0  0  0  0  0
   39.0030   28.9380   37.7810 C   0  0  0  0  0  3  0  0  0  0  0  0
   39.0400   30.1930   38.3150 C   0  0  0  0  0  0  0  0  0  0  0  0
  1  4  1  6  0  0  0
  1  2  1  0  0  0  0
  1  8  1  0  0  0  0
  2  6  1  0  0  0  0
  2  5  1  0  0  0  0
  3  7  1  6  0  0  0
  3  1  1  0  0  0  0
  3  2  1  0  0  0  0
  8 10  1  0  0  0  0
  9  8  1  0  0  0  0
 11  8  1  0  0  0  0
 12 17  1  0  0  0  0
 12 11  2  0  0  0  0
 13 12  1  0  0  0  0
 14 13  2  0  0  0  0
 14 15  1  0  0  0  0
 15 16  2  0  0  0  0
 16 11  1  0  0  0  0
 18 13  1  0  0  0  0
 19 15  1  0  0  0  0
 20  3  1  0  0  0  0
 22 21  2  6  0  0  0
 22 23  1  0  0  0  0
 22 20  1  0  0  0  0
 24 23  1  0  0  0  0
 25 22  1  0  0  0  0
 26 25  1  0  0  0  0
 26 27  1  0  0  0  0
 28 27  2  0  0  0  0
 29 28  1  0  0  0  0
 30 37  1  0  0  0  0
 30 29  2  0  0  0  0
 31 30  1  0  0  0  0
 32 34  1  0  0  0  0
 32 31  2  0  0  0  0
 33 32  1  0  0  0  0
 34 36  2  0  0  0  0
 35 34  1  0  0  0  0
 36 37  1  0  0  0  0
 37 26  2  0  0  0  0
M  END
>  <minimizedAffinity>
-5.52207613

$$$$

 OpenBabel03252500453D

 37 40  0  0  1  0  0  0  0  0999 V2000
   38.6460   28.2580   38.7680 C   0  0  1  0  0  0  0  0  0  0  0  0
   38.3870   28.9660   37.4420 C   0  0  0  0  0  0  0  0  0  0  0  0
   38.2940   29.7140   38.7450 C   0  0  1  0  0  0  0  0  0  0  0  0
   39.7360   28.0370   38.8770 H   0  0  0  0  0  0  0  0  0  0  0  0
   37.4320   28.6870   36.9190 H   0  0  0  0  0  0  0  0  0  0  0  0
   39.1930   29.1630   36.7370 H   0  0  0  0  0  0  0  0  0  0  0  0
   39.1230   30.4680   38.8790 H   0  0  0  0  0  0  0  0  0  0  0  0
   37.5850   27.3560   39.2500 C   0  0  0  0  0  0  0  0  0  0  0  0
   36.9600   27.9270   39.9960 H   0  0  0  0  0  0  0  0  0  0  0  0
   36.8810   27.1090   38.4380 H   0  0  0  0  0  0  0  0  0  0  0  0
   38.0700   26.1720   39.9780 C   0  0  0  0  0  0  0  0  0  0  0  0
   39.4300   26.0140   39.9370 C   0  0  0  0  0  0  0  0  0  0  0  0
   40.0280   24.9240   40.5800 C   0  0  0  0  0  0  0  0  0  0  0  0
   39.1680   24.0640   41.2310 N   0  0  0  0  0  0  0  0  0  0  0  0
   37.8310   24.2410   41.2580 C   0  0  0  0  0  0  0  0  0  0  0  0
   37.3120   25.2890   40.6320 N   0  0  0  0  0  0  0  0  0  0  0  0
   40.2540   26.5630   39.5030 H   0  0  0  0  0  0  0  0  0  0  0  0
   41.0650   24.6460   40.6500 H   0  0  0  0  0  0  0  0  0  0  0  0
   37.2700   23.4970   41.8020 H   0  0  0  0  0  0  0  0  0  0  0  0
   37.0500   30.0590   39.2090 O   0  0  0  0  0  0  0  0  0  0  0  0
   37.2300   32.5740   40.0580 O   0  0  0  0  0  0  0  0  0  0  0  0
   37.0870   31.1300   40.5070 P   0  0  1  0  0  0  0  0  0  0  0  0
   35.5780   31.0350   41.3160 O   0  0  0  0  0  0  0  0  0  0  0  0
   35.2400   31.9140   41.5630 H   0  0  0  0  0  0  0  0  0  0  0  0
   38.3260   30.6840   41.5570 O   0  0  0  0  0  0  0  0  0  0  0  0
   38.2640   29.4740   42.2360 C   0  0  0  0  0  0  0  0  0  0  0  0
   37.0260   28.9910   42.5270 N   0  0  0  0  0  0  0  0  0  0  0  0
   36.8640   27.8240   43.1820 C   0  0  0  0  0  3  0  0  0  0  0  0
   37.9490   27.0940   43.5730 N   0  0  0  0  0  0  0  0  0  0  0  0
   39.1890   27.5750   43.2830 C   0  0  0  0  0  0  0  0  0  0  0  0
   40.2910   26.8410   43.6750 C   0  0  0  0  0  3  0  0  0  0  0  0
   41.5810   27.2770   43.4090 C   0  0  0  0  0  0  0  0  0  0  0  0
   42.4290   26.6880   43.7240 H   0  0  0  0  0  0  0  0  0  0  0  0
   41.7030   28.4900   42.7290 C   0  0  0  0  0  0  0  0  0  0  0  0
   42.6970   28.8110   42.5320 H   0  0  0  0  0  0  0  0  0  0  0  0
   40.6280   29.2480   42.3230 C   0  0  0  0  0  3  0  0  0  0  0  0
   39.3860   28.7650   42.6140 C   0  0  0  0  0  0  0  0  0  0  0  0
  1  4  1  1  0  0  0
  1  8  1  0  0  0  0
  2  3  1  0  0  0  0
  2  1  1  0  0  0  0
  3  1  1  0  0  0  0
  3  7  1  1  0  0  0
  3 20  1  0  0  0  0
  5  2  1  0  0  0  0
  6  2  1  0  0  0  0
  8 11  1  0  0  0  0
  8  9  1  0  0  0  0
 10  8  1  0  0  0  0
 11 16  1  0  0  0  0
 12 11  2  0  0  0  0
 12 13  1  0  0  0  0
 13 18  1  0  0  0  0
 13 14  2  0  0  0  0
 14 15  1  0  0  0  0
 15 19  1  0  0  0  0
 16 15  2  0  0  0  0
 17 12  1  0  0  0  0
 20 22  1  0  0  0  0
 22 21  2  6  0  0  0
 22 23  1  0  0  0  0
 22 25  1  0  0  0  0
 23 24  1  0  0  0  0
 25 26  1  0  0  0  0
 26 27  2  0  0  0  0
 26 37  1  0  0  0  0
 27 28  1  0  0  0  0
 28 29  2  0  0  0  0
 30 29  1  0  0  0  0
 30 31  1  0  0  0  0
 32 31  2  0  0  0  0
 32 33  1  0  0  0  0
 34 32  1  0  0  0  0
 35 34  1  0  0  0  0
 36 37  1  0  0  0  0
 36 34  2  0  0  0  0
 37 30  2  0  0  0  0
M  END
>  <minimizedAffinity>
-5.42754698

$$$$

 OpenBabel03252500453D

 37 40  0  0  1  0  0  0  0  0999 V2000
   37.1090   27.1620   42.6210 C   0  0  1  0  0  0  0  0  0  0  0  0
   37.1770   28.2580   43.6790 C   0  0  0  0  0  0  0  0  0  0  0  0
   36.7890   28.5800   42.2610 C   0  0  1  0  0  0  0  0  0  0  0  0
   36.2210   26.5080   42.8010 H   0  0  0  0  0  0  0  0  0  0  0  0
   38.2080   28.5370   44.0260 H   0  0  0  0  0  0  0  0  0  0  0  0
   36.4490   28.3110   44.4860 H   0  0  0  0  0  0  0  0  0  0  0  0
   35.7060   28.8760   42.1570 H   0  0  0  0  0  0  0  0  0  0  0  0
   38.3980   26.6540   42.1160 C   0  0  0  0  0  0  0  0  0  0  0  0
   38.8320   27.4370   41.4290 H   0  0  0  0  0  0  0  0  0  0  0  0
   39.1340   26.5710   42.9330 H   0  0  0  0  0  0  0  0  0  0  0  0
   38.2990   25.4330   41.2990 C   0  0  0  0  0  0  0  0  0  0  0  0
   37.0720   24.8280   41.3510 C   0  0  0  0  0  0  0  0  0  0  0  0
   36.8390   23.6520   40.6280 C   0  0  0  0  0  0  0  0  0  0  0  0
   37.9040   23.1800   39.8910 N   0  0  0  0  0  0  0  0  0  0  0  0
   39.1050   23.7940   39.8540 C   0  0  0  0  0  0  0  0  0  0  0  0
   39.2760   24.9050   40.5570 N   0  0  0  0  0  0  0  0  0  0  0  0
   36.1330   25.0370   41.8460 H   0  0  0  0  0  0  0  0  0  0  0  0
   35.9500   23.0500   40.5540 H   0  0  0  0  0  0  0  0  0  0  0  0
   39.8550   23.3220   39.2380 H   0  0  0  0  0  0  0  0  0  0  0  0
   37.6990   29.2410   41.4730 O   0  0  0  0  0  0  0  0  0  0  0  0
   36.7450   30.3070   39.2310 O   0  0  0  0  0  0  0  0  0  0  0  0
   37.0590   30.5870   40.6900 P   0  0  1  0  0  0  0  0  0  0  0  0
   35.5600   30.9680   41.4300 O   0  0  0  0  0  0  0  0  0  0  0  0
   34.8750   31.1890   40.7750 H   0  0  0  0  0  0  0  0  0  0  0  0
   38.1230   31.8820   40.8560 O   0  0  0  0  0  0  0  0  0  0  0  0
   39.4950   31.6640   40.8520 C   0  0  0  0  0  0  0  0  0  0  0  0
   40.0720   31.3350   42.0390 N   0  0  0  0  0  0  0  0  0  0  0  0
   41.3960   31.1030   42.1350 C   0  0  0  0  0  3  0  0  0  0  0  0
   42.1970   31.1960   41.0330 N   0  0  0  0  0  0  0  0  0  0  0  0
   41.6210   31.5260   39.8440 C   0  0  0  0  0  0  0  0  0  0  0  0
   42.4250   31.6210   38.7250 C   0  0  0  0  0  3  0  0  0  0  0  0
   41.8990   31.9530   37.4850 C   0  0  0  0  0  0  0  0  0  0  0  0
   42.5440   32.0220   36.6220 H   0  0  0  0  0  0  0  0  0  0  0  0
   40.5230   32.1840   37.4300 C   0  0  0  0  0  0  0  0  0  0  0  0
   40.1350   32.4370   36.4740 H   0  0  0  0  0  0  0  0  0  0  0  0
   39.6910   32.0980   38.5240 C   0  0  0  0  0  3  0  0  0  0  0  0
   40.2690   31.7680   39.7150 C   0  0  0  0  0  0  0  0  0  0  0  0
  1  4  1  1  0  0  0
  1  2  1  0  0  0  0
  2  5  1  0  0  0  0
  2  6  1  0  0  0  0
  3  7  1  6  0  0  0
  3  1  1  0  0  0  0
  3  2  1  0  0  0  0
  8  1  1  0  0  0  0
  8 10  1  0  0  0  0
  9  8  1  0  0  0  0
 11 12  1  0  0  0  0
 11  8  1  0  0  0  0
 12 17  1  0  0  0  0
 13 12  2  0  0  0  0
 14 13  1  0  0  0  0
 15 14  2  0  0  0  0
 15 16  1  0  0  0  0
 16 11  2  0  0  0  0
 18 13  1  0  0  0  0
 19 15  1  0  0  0  0
 20  3  1  0  0  0  0
 22 21  2  6  0  0  0
 22 25  1  0  0  0  0
 22 23  1  0  0  0  0
 22 20  1  0  0  0  0
 24 23  1  0  0  0  0
 26 25  1  0  0  0  0
 26 27  1  0  0  0  0
 27 28  2  0  0  0  0
 29 28  1  0  0  0  0
 30 29  2  0  0  0  0
 31 30  1  0  0  0  0
 32 31  2  0  0  0  0
 33 32  1  0  0  0  0
 34 32  1  0  0  0  0
 34 36  2  0  0  0  0
 35 34  1  0  0  0  0
 36 37  1  0  0  0  0
 37 30  1  0  0  0  0
 37 26  2  0  0  0  0
M  END
>  <minimizedAffinity>
-5.39132786

$$$$

 OpenBabel03252500453D

 37 40  0  0  1  0  0  0  0  0999 V2000
   38.3230   30.4320   37.3640 C   0  0  1  0  0  0  0  0  0  0  0  0
   37.0640   29.7070   36.8990 C   0  0  0  0  0  0  0  0  0  0  0  0
   37.0300   30.6180   38.0970 C   0  0  1  0  0  0  0  0  0  0  0  0
   38.5830   31.2490   36.6480 H   0  0  0  0  0  0  0  0  0  0  0  0
   37.0490   28.5970   37.0730 H   0  0  0  0  0  0  0  0  0  0  0  0
   36.5640   29.9800   35.9710 H   0  0  0  0  0  0  0  0  0  0  0  0
   36.4410   31.5630   37.9140 H   0  0  0  0  0  0  0  0  0  0  0  0
   39.3340   29.6140   38.0590 C   0  0  0  0  0  0  0  0  0  0  0  0
   38.8370   29.1370   38.9530 H   0  0  0  0  0  0  0  0  0  0  0  0
   39.6450   28.7600   37.4340 H   0  0  0  0  0  0  0  0  0  0  0  0
   40.4690   30.3750   38.6070 C   0  0  0  0  0  0  0  0  0  0  0  0
   41.6150   29.6380   38.7470 C   0  0  0  0  0  0  0  0  0  0  0  0
   42.7710   30.2330   39.2650 C   0  0  0  0  0  0  0  0  0  0  0  0
   42.6610   31.5650   39.6030 N   0  0  0  0  0  0  0  0  0  0  0  0
   41.5210   32.2710   39.4550 C   0  0  0  0  0  0  0  0  0  0  0  0
   40.4520   31.6620   38.9610 N   0  0  0  0  0  0  0  0  0  0  0  0
   41.9010   28.6160   38.5390 H   0  0  0  0  0  0  0  0  0  0  0  0
   43.7450   29.8120   39.4430 H   0  0  0  0  0  0  0  0  0  0  0  0
   41.5670   33.3060   39.7570 H   0  0  0  0  0  0  0  0  0  0  0  0
   36.9340   30.0490   39.3420 O   0  0  0  0  0  0  0  0  0  0  0  0
   37.0600   32.5960   40.0970 O   0  0  0  0  0  0  0  0  0  0  0  0
   37.0130   31.1640   40.6010 P   0  0  1  0  0  0  0  0  0  0  0  0
   35.5680   31.0340   41.5150 O   0  0  0  0  0  0  0  0  0  0  0  0
   35.2090   31.9050   41.7580 H   0  0  0  0  0  0  0  0  0  0  0  0
   38.3390   30.8070   41.5750 O   0  0  0  0  0  0  0  0  0  0  0  0
   38.4070   29.5920   42.2440 C   0  0  0  0  0  0  0  0  0  0  0  0
   37.2280   28.9720   42.5220 N   0  0  0  0  0  0  0  0  0  0  0  0
   37.1920   27.7890   43.1660 C   0  0  0  0  0  3  0  0  0  0  0  0
   38.3480   27.1800   43.5600 N   0  0  0  0  0  0  0  0  0  0  0  0
   39.5290   27.7980   43.2830 C   0  0  0  0  0  0  0  0  0  0  0  0
   40.7030   27.1870   43.6790 C   0  0  0  0  0  3  0  0  0  0  0  0
   41.9380   27.7660   43.4260 C   0  0  0  0  0  0  0  0  0  0  0  0
   42.8450   27.2720   43.7430 H   0  0  0  0  0  0  0  0  0  0  0  0
   41.9310   28.9900   42.7560 C   0  0  0  0  0  0  0  0  0  0  0  0
   42.8840   29.4210   42.5700 H   0  0  0  0  0  0  0  0  0  0  0  0
   40.7810   29.6290   42.3470 C   0  0  0  0  0  3  0  0  0  0  0  0
   39.5980   29.0080   42.6250 C   0  0  0  0  0  0  0  0  0  0  0  0
  1  4  1  6  0  0  0
  1  8  1  0  0  0  0
  1  3  1  0  0  0  0
  2  5  1  0  0  0  0
  2  1  1  0  0  0  0
  2  3  1  0  0  0  0
  3  7  1  6  0  0  0
  3 20  1  0  0  0  0
  6  2  1  0  0  0  0
  8 11  1  0  0  0  0
  8  9  1  0  0  0  0
 10  8  1  0  0  0  0
 11 12  2  0  0  0  0
 11 16  1  0  0  0  0
 12 13  1  0  0  0  0
 13 18  1  0  0  0  0
 13 14  2  0  0  0  0
 15 14  1  0  0  0  0
 15 19  1  0  0  0  0
 16 15  2  0  0  0  0
 17 12  1  0  0  0  0
 20 22  1  0  0  0  0
 22 21  2  6  0  0  0
 22 23  1  0  0  0  0
 22 25  1  0  0  0  0
 23 24  1  0  0  0  0
 25 26  1  0  0  0  0
 26 27  2  0  0  0  0
 26 37  1  0  0  0  0
 27 28  1  0  0  0  0
 28 29  2  0  0  0  0
 30 29  1  0  0  0  0
 30 31  1  0  0  0  0
 32 31  2  0  0  0  0
 32 33  1  0  0  0  0
 34 32  1  0  0  0  0
 35 34  1  0  0  0  0
 36 37  1  0  0  0  0
 36 34  2  0  0  0  0
 37 30  2  0  0  0  0
M  END
>  <minimizedAffinity>
-5.33957911

$$$$

 OpenBabel03252500453D

 37 40  0  0  1  0  0  0  0  0999 V2000
   37.9970   27.1100   42.7470 C   0  0  1  0  0  0  0  0  0  0  0  0
   36.5830   27.5300   43.1350 C   0  0  0  0  0  0  0  0  0  0  0  0
   37.1140   27.7990   41.7520 C   0  0  1  0  0  0  0  0  0  0  0  0
   38.0520   25.9990   42.6410 H   0  0  0  0  0  0  0  0  0  0  0  0
   36.5100   28.3900   43.8530 H   0  0  0  0  0  0  0  0  0  0  0  0
   35.7990   26.7940   43.3020 H   0  0  0  0  0  0  0  0  0  0  0  0
   36.6110   27.1740   40.9590 H   0  0  0  0  0  0  0  0  0  0  0  0
   39.0980   27.9250   43.2910 C   0  0  0  0  0  0  0  0  0  0  0  0
   39.2430   28.8100   42.6050 H   0  0  0  0  0  0  0  0  0  0  0  0
   38.8130   28.3750   44.2560 H   0  0  0  0  0  0  0  0  0  0  0  0
   40.4040   27.2470   43.3300 C   0  0  0  0  0  0  0  0  0  0  0  0
   40.3510   25.9220   42.9890 C   0  0  0  0  0  0  0  0  0  0  0  0
   41.5190   25.1500   42.9910 C   0  0  0  0  0  0  0  0  0  0  0  0
   42.6750   25.8120   43.3480 N   0  0  0  0  0  0  0  0  0  0  0  0
   42.7030   27.1190   43.6800 C   0  0  0  0  0  0  0  0  0  0  0  0
   41.5690   27.8070   43.6630 N   0  0  0  0  0  0  0  0  0  0  0  0
   39.5710   25.2390   42.6790 H   0  0  0  0  0  0  0  0  0  0  0  0
   41.6610   24.1100   42.7550 H   0  0  0  0  0  0  0  0  0  0  0  0
   43.6710   27.5170   43.9390 H   0  0  0  0  0  0  0  0  0  0  0  0
   37.4410   29.0900   41.4210 O   0  0  0  0  0  0  0  0  0  0  0  0
   35.0170   29.0170   40.3280 O   0  0  0  0  0  0  0  0  0  0  0  0
   36.2160   29.9070   40.6050 P   0  0  1  0  0  0  0  0  0  0  0  0
   35.6460   31.1620   41.6240 O   0  0  0  0  0  0  0  0  0  0  0  0
   34.6750   31.2270   41.6170 H   0  0  0  0  0  0  0  0  0  0  0  0
   36.8400   30.5640   39.1850 O   0  0  0  0  0  0  0  0  0  0  0  0
   37.4500   29.7440   38.2450 C   0  0  0  0  0  0  0  0  0  0  0  0
   38.7640   29.4480   38.4430 N   0  0  0  0  0  0  0  0  0  0  0  0
   39.4420   28.6600   37.5860 C   0  0  0  0  0  3  0  0  0  0  0  0
   38.8220   28.1350   36.4890 N   0  0  0  0  0  0  0  0  0  0  0  0
   37.5080   28.4300   36.2890 C   0  0  0  0  0  0  0  0  0  0  0  0
   36.8740   27.9020   35.1810 C   0  0  0  0  0  3  0  0  0  0  0  0
   35.5360   28.1650   34.9220 C   0  0  0  0  0  0  0  0  0  0  0  0
   35.0590   27.7430   34.0500 H   0  0  0  0  0  0  0  0  0  0  0  0
   34.8710   28.9860   35.8340 C   0  0  0  0  0  0  0  0  0  0  0  0
   33.8480   29.1780   35.6230 H   0  0  0  0  0  0  0  0  0  0  0  0
   35.4700   29.5290   36.9490 C   0  0  0  0  0  3  0  0  0  0  0  0
   36.7870   29.2330   37.1480 C   0  0  0  0  0  0  0  0  0  0  0  0
  1  4  1  6  0  0  0
  1  2  1  0  0  0  0
  1  8  1  0  0  0  0
  2  6  1  0  0  0  0
  2  5  1  0  0  0  0
  3  7  1  6  0  0  0
  3  1  1  0  0  0  0
  3  2  1  0  0  0  0
  8 11  1  0  0  0  0
  8 10  1  0  0  0  0
  9  8  1  0  0  0  0
 11 16  1  0  0  0  0
 12 13  1  0  0  0  0
 12 11  2  0  0  0  0
 13 14  2  0  0  0  0
 14 15  1  0  0  0  0
 15 19  1  0  0  0  0
 16 15  2  0  0  0  0
 17 12  1  0  0  0  0
 18 13  1  0  0  0  0
 20  3  1  0  0  0  0
 22 21  2  6  0  0  0
 22 20  1  0  0  0  0
 22 23  1  0  0  0  0
 24 23  1  0  0  0  0
 25 22  1  0  0  0  0
 26 27  1  0  0  0  0
 26 25  1  0  0  0  0
 28 27  2  0  0  0  0
 29 28  1  0  0  0  0
 30 29  2  0  0  0  0
 30 37  1  0  0  0  0
 31 30  1  0  0  0  0
 32 31  2  0  0  0  0
 32 34  1  0  0  0  0
 33 32  1  0  0  0  0
 34 36  2  0  0  0  0
 35 34  1  0  0  0  0
 36 37  1  0  0  0  0
 37 26  2  0  0  0  0
M  END
>  <minimizedAffinity>
-5.33325148

$$$$

 OpenBabel03252500453D

 37 40  0  0  1  0  0  0  0  0999 V2000
   40.2650   30.1190   38.6300 C   0  0  1  0  0  0  0  0  0  0  0  0
   40.9110   31.1110   37.6670 C   0  0  0  0  0  0  0  0  0  0  0  0
   40.2090   31.5900   38.9090 C   0  0  1  0  0  0  0  0  0  0  0  0
   41.0520   29.5610   39.1920 H   0  0  0  0  0  0  0  0  0  0  0  0
   40.3930   31.2390   36.6790 H   0  0  0  0  0  0  0  0  0  0  0  0
   41.9930   31.1820   37.5710 H   0  0  0  0  0  0  0  0  0  0  0  0
   40.9160   32.0170   39.6770 H   0  0  0  0  0  0  0  0  0  0  0  0
   38.9970   29.5080   38.1910 C   0  0  0  0  0  0  0  0  0  0  0  0
   38.1520   30.1290   38.6080 H   0  0  0  0  0  0  0  0  0  0  0  0
   38.8800   29.5900   37.0980 H   0  0  0  0  0  0  0  0  0  0  0  0
   38.7640   28.1460   38.6990 C   0  0  0  0  0  0  0  0  0  0  0  0
   39.7320   27.7020   39.5600 C   0  0  0  0  0  0  0  0  0  0  0  0
   39.6430   26.4190   40.1140 C   0  0  0  0  0  0  0  0  0  0  0  0
   38.5430   25.6770   39.7350 N   0  0  0  0  0  0  0  0  0  0  0  0
   37.6020   26.1370   38.8850 C   0  0  0  0  0  0  0  0  0  0  0  0
   37.7320   27.3590   38.3860 N   0  0  0  0  0  0  0  0  0  0  0  0
   40.6390   28.1180   39.9770 H   0  0  0  0  0  0  0  0  0  0  0  0
   40.3020   25.9130   40.7960 H   0  0  0  0  0  0  0  0  0  0  0  0
   36.7910   25.4570   38.6700 H   0  0  0  0  0  0  0  0  0  0  0  0
   38.9890   32.2030   38.7690 O   0  0  0  0  0  0  0  0  0  0  0  0
   39.2680   34.0820   40.6300 O   0  0  0  0  0  0  0  0  0  0  0  0
   38.4190   32.9030   40.1900 P   0  0  1  0  0  0  0  0  0  0  0  0
   36.8570   33.5380   39.8790 O   0  0  0  0  0  0  0  0  0  0  0  0
   36.7350   34.4190   40.2750 H   0  0  0  0  0  0  0  0  0  0  0  0
   38.3270   31.7240   41.3900 O   0  0  0  0  0  0  0  0  0  0  0  0
   37.4420   30.6630   41.2590 C   0  0  0  0  0  0  0  0  0  0  0  0
   36.3960   30.8320   40.4050 N   0  0  0  0  0  0  0  0  0  0  0  0
   35.4850   29.8580   40.2110 C   0  0  0  0  0  3  0  0  0  0  0  0
   35.5900   28.6690   40.8740 N   0  0  0  0  0  0  0  0  0  0  0  0
   36.6350   28.4990   41.7300 C   0  0  0  0  0  0  0  0  0  0  0  0
   36.7470   27.2980   42.4030 C   0  0  0  0  0  3  0  0  0  0  0  0
   37.7900   27.0630   43.2880 C   0  0  0  0  0  0  0  0  0  0  0  0
   37.8600   26.1170   43.8050 H   0  0  0  0  0  0  0  0  0  0  0  0
   38.7110   28.0970   43.4600 C   0  0  0  0  0  0  0  0  0  0  0  0
   39.5030   27.9020   44.1400 H   0  0  0  0  0  0  0  0  0  0  0  0
   38.6310   29.3060   42.8050 C   0  0  0  0  0  3  0  0  0  0  0  0
   37.5830   29.4760   41.9480 C   0  0  0  0  0  0  0  0  0  0  0  0
  1  3  1  0  0  0  0
  1  4  1  1  0  0  0
  2  1  1  0  0  0  0
  2  3  1  0  0  0  0
  3  7  1  1  0  0  0
  5  2  1  0  0  0  0
  6  2  1  0  0  0  0
  8  9  1  0  0  0  0
  8  1  1  0  0  0  0
  8 11  1  0  0  0  0
 10  8  1  0  0  0  0
 11 12  1  0  0  0  0
 12 17  1  0  0  0  0
 12 13  2  0  0  0  0
 13 18  1  0  0  0  0
 14 13  1  0  0  0  0
 15 14  2  0  0  0  0
 16 11  2  0  0  0  0
 16 15  1  0  0  0  0
 19 15  1  0  0  0  0
 20  3  1  0  0  0  0
 20 22  1  0  0  0  0
 22 21  2  1  0  0  0
 22 25  1  0  0  0  0
 23 22  1  0  0  0  0
 23 24  1  0  0  0  0
 26 25  1  0  0  0  0
 26 37  1  0  0  0  0
 27 26  2  0  0  0  0
 28 27  1  0  0  0  0
 28 29  2  0  0  0  0
 29 30  1  0  0  0  0
 30 37  2  0  0  0  0
 30 31  1  0  0  0  0
 31 32  2  0  0  0  0
 32 34  1  0  0  0  0
 32 33  1  0  0  0  0
 34 35  1  0  0  0  0
 36 34  2  0  0  0  0
 37 36  1  0  0  0  0
M  END
>  <minimizedAffinity>
-5.26839972

$$$$

 OpenBabel03252500453D

 37 40  0  0  1  0  0  0  0  0999 V2000
   39.0330   31.4540   39.6070 C   0  0  1  0  0  0  0  0  0  0  0  0
   39.6960   32.3120   40.6810 C   0  0  0  0  0  0  0  0  0  0  0  0
   39.1750   30.9370   41.0060 C   0  0  1  0  0  0  0  0  0  0  0  0
   39.8000   31.0820   38.8860 H   0  0  0  0  0  0  0  0  0  0  0  0
   39.1030   33.2010   41.0280 H   0  0  0  0  0  0  0  0  0  0  0  0
   40.7640   32.5180   40.6610 H   0  0  0  0  0  0  0  0  0  0  0  0
   39.9980   30.1960   41.2230 H   0  0  0  0  0  0  0  0  0  0  0  0
   37.6670   31.8390   39.2080 C   0  0  0  0  0  0  0  0  0  0  0  0
   37.0520   31.9500   40.1480 H   0  0  0  0  0  0  0  0  0  0  0  0
   37.6590   32.8450   38.7580 H   0  0  0  0  0  0  0  0  0  0  0  0
   36.9590   30.8350   38.3980 C   0  0  0  0  0  0  0  0  0  0  0  0
   37.3790   30.7760   37.0960 C   0  0  0  0  0  0  0  0  0  0  0  0
   36.7850   29.8700   36.2080 C   0  0  0  0  0  0  0  0  0  0  0  0
   35.7880   29.0770   36.7370 N   0  0  0  0  0  0  0  0  0  0  0  0
   35.3920   29.1530   38.0240 C   0  0  0  0  0  0  0  0  0  0  0  0
   35.9840   30.0280   38.8250 N   0  0  0  0  0  0  0  0  0  0  0  0
   38.1270   31.2880   36.5060 H   0  0  0  0  0  0  0  0  0  0  0  0
   36.9850   29.6910   35.1660 H   0  0  0  0  0  0  0  0  0  0  0  0
   34.6020   28.4770   38.3120 H   0  0  0  0  0  0  0  0  0  0  0  0
   38.0270   30.8370   41.7510 O   0  0  0  0  0  0  0  0  0  0  0  0
   37.6810   28.9970   43.6400 O   0  0  0  0  0  0  0  0  0  0  0  0
   37.6150   29.2530   42.1450 P   0  0  1  0  0  0  0  0  0  0  0  0
   35.9790   29.0040   41.6960 O   0  0  0  0  0  0  0  0  0  0  0  0
   35.4840   28.5140   42.3750 H   0  0  0  0  0  0  0  0  0  0  0  0
   38.6080   28.1940   41.2910 O   0  0  0  0  0  0  0  0  0  0  0  0
   38.7650   26.8840   41.7210 C   0  0  0  0  0  0  0  0  0  0  0  0
   39.6800   26.6600   42.7030 N   0  0  0  0  0  0  0  0  0  0  0  0
   39.9020   25.4220   43.1870 C   0  0  0  0  0  3  0  0  0  0  0  0
   39.2090   24.3530   42.6970 N   0  0  0  0  0  0  0  0  0  0  0  0
   38.2930   24.5740   41.7140 C   0  0  0  0  0  0  0  0  0  0  0  0
   37.5880   23.4970   41.2150 C   0  0  0  0  0  3  0  0  0  0  0  0
   36.6410   23.6570   40.2130 C   0  0  0  0  0  0  0  0  0  0  0  0
   36.1000   22.8010   39.8360 H   0  0  0  0  0  0  0  0  0  0  0  0
   36.4420   24.9550   39.7410 C   0  0  0  0  0  0  0  0  0  0  0  0
   35.7140   25.0610   38.9740 H   0  0  0  0  0  0  0  0  0  0  0  0
   37.1260   26.0520   40.2150 C   0  0  0  0  0  3  0  0  0  0  0  0
   38.0430   25.8290   41.2000 C   0  0  0  0  0  0  0  0  0  0  0  0
  1  4  1  6  0  0  0
  1  2  1  0  0  0  0
  1  3  1  0  0  0  0
  2  3  1  0  0  0  0
  2  5  1  0  0  0  0
  3  7  1  1  0  0  0
  3 20  1  0  0  0  0
  6  2  1  0  0  0  0
  8  1  1  0  0  0  0
  8  9  1  0  0  0  0
 10  8  1  0  0  0  0
 11 16  1  0  0  0  0
 11  8  1  0  0  0  0
 12 11  2  0  0  0  0
 13 14  2  0  0  0  0
 13 12  1  0  0  0  0
 14 15  1  0  0  0  0
 15 19  1  0  0  0  0
 15 16  2  0  0  0  0
 17 12  1  0  0  0  0
 18 13  1  0  0  0  0
 20 22  1  0  0  0  0
 22 21  2  1  0  0  0
 23 22  1  0  0  0  0
 23 24  1  0  0  0  0
 25 26  1  0  0  0  0
 25 22  1  0  0  0  0
 26 27  1  0  0  0  0
 27 28  2  0  0  0  0
 29 28  1  0  0  0  0
 30 29  2  0  0  0  0
 31 30  1  0  0  0  0
 32 31  2  0  0  0  0
 33 32  1  0  0  0  0
 34 32  1  0  0  0  0
 34 36  2  0  0  0  0
 35 34  1  0  0  0  0
 36 37  1  0  0  0  0
 37 30  1  0  0  0  0
 37 26  2  0  0  0  0
M  END
>  <minimizedAffinity>
-5.26036072

$$$$

 OpenBabel03252500453D

 37 40  0  0  1  0  0  0  0  0999 V2000
   38.7670   30.5010   38.0300 C   0  0  1  0  0  0  0  0  0  0  0  0
   38.0860   29.3090   37.3650 C   0  0  0  0  0  0  0  0  0  0  0  0
   37.4890   29.9540   38.5880 C   0  0  1  0  0  0  0  0  0  0  0  0
   38.6530   31.4120   37.3930 H   0  0  0  0  0  0  0  0  0  0  0  0
   38.6070   28.3210   37.4850 H   0  0  0  0  0  0  0  0  0  0  0  0
   37.6070   29.4000   36.3920 H   0  0  0  0  0  0  0  0  0  0  0  0
   36.5290   30.5060   38.3700 H   0  0  0  0  0  0  0  0  0  0  0  0
   39.9790   30.2110   38.8170 C   0  0  0  0  0  0  0  0  0  0  0  0
   39.6960   30.2380   39.9090 H   0  0  0  0  0  0  0  0  0  0  0  0
   40.3170   29.1750   38.6490 H   0  0  0  0  0  0  0  0  0  0  0  0
   41.0570   31.2040   38.6720 C   0  0  0  0  0  0  0  0  0  0  0  0
   40.8990   32.0420   37.6010 C   0  0  0  0  0  0  0  0  0  0  0  0
   41.8550   33.0300   37.3380 C   0  0  0  0  0  0  0  0  0  0  0  0
   42.9190   33.0850   38.2130 N   0  0  0  0  0  0  0  0  0  0  0  0
   43.0530   32.2480   39.2630 C   0  0  0  0  0  0  0  0  0  0  0  0
   42.1210   31.3280   39.4700 N   0  0  0  0  0  0  0  0  0  0  0  0
   40.1560   32.1650   36.8250 H   0  0  0  0  0  0  0  0  0  0  0  0
   41.8930   33.7640   36.5520 H   0  0  0  0  0  0  0  0  0  0  0  0
   43.9310   32.3960   39.8720 H   0  0  0  0  0  0  0  0  0  0  0  0
   37.5700   29.2820   39.7820 O   0  0  0  0  0  0  0  0  0  0  0  0
   37.2230   31.5670   41.0980 O   0  0  0  0  0  0  0  0  0  0  0  0
   36.8460   30.0970   41.0650 P   0  0  1  0  0  0  0  0  0  0  0  0
   35.1480   30.0510   40.8300 O   0  0  0  0  0  0  0  0  0  0  0  0
   34.7290   30.9080   41.0220 H   0  0  0  0  0  0  0  0  0  0  0  0
   37.2440   29.3230   42.5070 O   0  0  0  0  0  0  0  0  0  0  0  0
   38.3500   28.4870   42.5690 C   0  0  0  0  0  0  0  0  0  0  0  0
   39.5650   29.0790   42.7310 N   0  0  0  0  0  0  0  0  0  0  0  0
   40.6960   28.3510   42.8020 C   0  0  0  0  0  3  0  0  0  0  0  0
   40.6500   26.9890   42.7120 N   0  0  0  0  0  0  0  0  0  0  0  0
   39.4360   26.3950   42.5490 C   0  0  0  0  0  0  0  0  0  0  0  0
   39.3830   25.0180   42.4570 C   0  0  0  0  0  3  0  0  0  0  0  0
   38.1770   24.3530   42.2910 C   0  0  0  0  0  0  0  0  0  0  0  0
   38.1560   23.2750   42.2210 H   0  0  0  0  0  0  0  0  0  0  0  0
   37.0290   25.1440   42.2220 C   0  0  0  0  0  0  0  0  0  0  0  0
   36.1130   24.6210   42.0940 H   0  0  0  0  0  0  0  0  0  0  0  0
   37.0450   26.5190   42.3100 C   0  0  0  0  0  3  0  0  0  0  0  0
   38.2610   27.1130   42.4730 C   0  0  0  0  0  0  0  0  0  0  0  0
  1  4  1  6  0  0  0
  1  3  1  0  0  0  0
  1  8  1  0  0  0  0
  2  5  1  0  0  0  0
  2  1  1  0  0  0  0
  2  3  1  0  0  0  0
  3  7  1  6  0  0  0
  3 20  1  0  0  0  0
  6  2  1  0  0  0  0
  8  9  1  0  0  0  0
 10  8  1  0  0  0  0
 11  8  1  0  0  0  0
 11 16  1  0  0  0  0
 12 11  2  0  0  0  0
 13 12  1  0  0  0  0
 13 14  2  0  0  0  0
 14 15  1  0  0  0  0
 15 16  2  0  0  0  0
 15 19  1  0  0  0  0
 17 12  1  0  0  0  0
 18 13  1  0  0  0  0
 20 22  1  0  0  0  0
 22 21  2  1  0  0  0
 22 25  1  0  0  0  0
 23 24  1  0  0  0  0
 23 22  1  0  0  0  0
 25 26  1  0  0  0  0
 26 27  1  0  0  0  0
 27 28  2  0  0  0  0
 29 28  1  0  0  0  0
 30 29  2  0  0  0  0
 31 30  1  0  0  0  0
 32 31  2  0  0  0  0
 33 32  1  0  0  0  0
 34 32  1  0  0  0  0
 34 36  2  0  0  0  0
 35 34  1  0  0  0  0
 36 37  1  0  0  0  0
 37 30  1  0  0  0  0
 37 26  2  0  0  0  0
M  END
>  <minimizedAffinity>
-5.25331068

$$$$

 OpenBabel03252500453D

 37 40  0  0  1  0  0  0  0  0999 V2000
   39.9720   32.7960   40.0670 C   0  0  1  0  0  0  0  0  0  0  0  0
   38.9140   33.6990   40.6930 C   0  0  0  0  0  0  0  0  0  0  0  0
   38.8510   32.2050   40.8660 C   0  0  1  0  0  0  0  0  0  0  0  0
   40.9400   32.9000   40.6160 H   0  0  0  0  0  0  0  0  0  0  0  0
   38.1990   34.1820   39.9740 H   0  0  0  0  0  0  0  0  0  0  0  0
   39.1510   34.3520   41.5310 H   0  0  0  0  0  0  0  0  0  0  0  0
   39.0620   31.8750   41.9240 H   0  0  0  0  0  0  0  0  0  0  0  0
   39.8870   32.5950   38.6090 C   0  0  0  0  0  0  0  0  0  0  0  0
   39.1870   31.7310   38.4200 H   0  0  0  0  0  0  0  0  0  0  0  0
   39.3950   33.4540   38.1230 H   0  0  0  0  0  0  0  0  0  0  0  0
   41.1560   32.2140   37.9670 C   0  0  0  0  0  0  0  0  0  0  0  0
   42.1510   33.1450   38.1080 C   0  0  0  0  0  0  0  0  0  0  0  0
   43.4090   32.9170   37.5390 C   0  0  0  0  0  0  0  0  0  0  0  0
   43.5540   31.7270   36.8580 N   0  0  0  0  0  0  0  0  0  0  0  0
   42.5590   30.8240   36.7330 C   0  0  0  0  0  0  0  0  0  0  0  0
   41.3840   31.0870   37.2890 N   0  0  0  0  0  0  0  0  0  0  0  0
   42.2400   34.1060   38.5960 H   0  0  0  0  0  0  0  0  0  0  0  0
   44.2940   33.5300   37.5490 H   0  0  0  0  0  0  0  0  0  0  0  0
   42.8020   29.9330   36.1750 H   0  0  0  0  0  0  0  0  0  0  0  0
   37.8920   31.5100   40.1710 O   0  0  0  0  0  0  0  0  0  0  0  0
   37.8580   30.0470   42.3920 O   0  0  0  0  0  0  0  0  0  0  0  0
   37.1420   30.3060   41.0780 P   0  0  1  0  0  0  0  0  0  0  0  0
   35.5740   30.8580   41.4960 O   0  0  0  0  0  0  0  0  0  0  0  0
   35.3510   30.6570   42.4220 H   0  0  0  0  0  0  0  0  0  0  0  0
   37.0260   28.9060   40.1490 O   0  0  0  0  0  0  0  0  0  0  0  0
   38.0900   28.0160   40.0910 C   0  0  0  0  0  0  0  0  0  0  0  0
   39.1690   28.3890   39.3500 N   0  0  0  0  0  0  0  0  0  0  0  0
   40.2500   27.5930   39.2350 C   0  0  0  0  0  3  0  0  0  0  0  0
   40.2880   26.3810   39.8630 N   0  0  0  0  0  0  0  0  0  0  0  0
   39.2090   26.0060   40.6050 C   0  0  0  0  0  0  0  0  0  0  0  0
   39.2410   24.7820   41.2430 C   0  0  0  0  0  3  0  0  0  0  0  0
   38.1740   24.3420   42.0130 C   0  0  0  0  0  0  0  0  0  0  0  0
   38.2190   23.3810   42.5050 H   0  0  0  0  0  0  0  0  0  0  0  0
   37.0750   25.1970   42.1070 C   0  0  0  0  0  0  0  0  0  0  0  0
   36.2660   24.8470   42.6990 H   0  0  0  0  0  0  0  0  0  0  0  0
   37.0080   26.4240   41.4840 C   0  0  0  0  0  3  0  0  0  0  0  0
   38.0890   26.7990   40.7420 C   0  0  0  0  0  0  0  0  0  0  0  0
  1  4  1  1  0  0  0
  1  2  1  0  0  0  0
  1  3  1  0  0  0  0
  2  3  1  0  0  0  0
  2  6  1  0  0  0  0
  3  7  1  1  0  0  0
  5  2  1  0  0  0  0
  8  1  1  0  0  0  0
  9  8  1  0  0  0  0
 10  8  1  0  0  0  0
 11 12  1  0  0  0  0
 11  8  1  0  0  0  0
 12 17  1  0  0  0  0
 13 18  1  0  0  0  0
 13 12  2  0  0  0  0
 14 13  1  0  0  0  0
 15 14  2  0  0  0  0
 15 16  1  0  0  0  0
 16 11  2  0  0  0  0
 19 15  1  0  0  0  0
 20  3  1  0  0  0  0
 20 22  1  0  0  0  0
 22 23  1  0  0  0  0
 22 21  2  1  0  0  0
 23 24  1  0  0  0  0
 25 22  1  0  0  0  0
 26 25  1  0  0  0  0
 26 37  1  0  0  0  0
 27 26  2  0  0  0  0
 28 27  1  0  0  0  0
 28 29  2  0  0  0  0
 29 30  1  0  0  0  0
 30 37  2  0  0  0  0
 30 31  1  0  0  0  0
 31 32  2  0  0  0  0
 32 34  1  0  0  0  0
 32 33  1  0  0  0  0
 34 35  1  0  0  0  0
 36 34  2  0  0  0  0
 37 36  1  0  0  0  0
M  END
>  <minimizedAffinity>
-5.23416519

$$$$
