
 OpenBabel03242511173D

 22 24  0  0  0  0  0  0  0  0999 V2000
   45.6360   33.9760   40.9710 C   0  0  0  0  0  0  0  0  0  0  0  0
   46.3670   32.8960   40.5720 N   0  0  0  0  0  0  0  0  0  0  0  0
   45.8500   31.9660   39.7390 C   0  0  0  0  0  3  0  0  0  0  0  0
   44.5930   32.1560   39.3270 N   0  0  0  0  0  0  0  0  0  0  0  0
   43.8140   33.1850   39.6700 C   0  0  0  0  0  0  0  0  0  0  0  0
   42.5190   33.3540   39.2280 C   0  0  0  0  0  3  0  0  0  0  0  0
   41.7970   34.4600   39.6470 C   0  0  0  0  0  0  0  0  0  0  0  0
   40.7810   34.5660   39.2820 H   0  0  0  0  0  0  0  0  0  0  0  0
   42.3670   35.3830   40.4980 C   0  0  0  0  0  0  0  0  0  0  0  0
   41.7700   36.2410   40.8070 H   0  0  0  0  0  0  0  0  0  0  0  0
   43.6730   35.2580   40.9740 C   0  0  0  0  0  3  0  0  0  0  0  0
   44.3360   34.1350   40.5190 C   0  0  0  0  0  0  0  0  0  0  0  0
   46.5020   35.0860   42.0710 S   0  0  0  0  0  0  0  0  0  0  0  0
   44.5990   35.1590   45.6480 C   0  0  0  0  0  0  0  0  0  0  0  0
   44.9810   35.5020   44.3360 C   0  0  0  0  0  0  0  0  0  0  0  0
   45.9700   34.7110   43.7310 C   0  0  0  0  0  0  0  0  0  0  0  0
   46.4930   33.6790   44.4290 N   0  0  0  0  0  0  0  0  0  0  0  0
   46.1070   33.3740   45.6870 C   0  0  0  0  0  0  0  0  0  0  0  0
   45.1630   34.1200   46.2800 N   0  0  0  0  0  0  0  0  0  0  0  0
   43.8420   35.7850   46.0740 H   0  0  0  0  0  0  0  0  0  0  0  0
   44.5260   36.3330   43.8380 H   0  0  0  0  0  0  0  0  0  0  0  0
   46.5140   32.5520   46.2620 H   0  0  0  0  0  0  0  0  0  0  0  0
  1 13  1  0  0  0  0
  2  1  1  0  0  0  0
  3  2  2  0  0  0  0
  4  5  2  0  0  0  0
  4  3  1  0  0  0  0
  5 12  1  0  0  0  0
  6  7  2  0  0  0  0
  6  5  1  0  0  0  0
  7  9  1  0  0  0  0
  8  7  1  0  0  0  0
  9 10  1  0  0  0  0
  9 11  2  0  0  0  0
 12  1  2  0  0  0  0
 12 11  1  0  0  0  0
 13 16  1  0  0  0  0
 14 20  1  0  0  0  0
 14 19  1  0  0  0  0
 15 14  2  0  0  0  0
 16 15  1  0  0  0  0
 16 17  2  0  0  0  0
 17 18  1  0  0  0  0
 18 22  1  0  0  0  0
 18 19  2  0  0  0  0
 21 15  1  0  0  0  0
M  END
>  <minimizedAffinity>
-4.29464483

>  <minimizedRMSD>
0.972961307

$$$$
