
 OpenBabel03242519103D

 50 54  0  0  1  0  0  0  0  0999 V2000
   48.0080   32.1410   36.6100 C   0  0  0  0  0  0  0  0  0  0  0  0
   47.5000   32.8210   37.7410 C   0  0  0  0  0  0  0  0  0  0  0  0
   46.1860   33.2180   37.5910 C   0  0  0  0  0  0  0  0  0  0  0  0
   45.3900   33.0150   36.5010 C   0  0  0  0  0  0  0  0  0  0  0  0
   45.9280   32.3460   35.4190 C   0  0  0  0  0  0  0  0  0  0  0  0
   47.2230   31.9290   35.5080 C   0  0  0  0  0  0  0  0  0  0  0  0
   45.6910   33.7570   38.4130 H   0  0  0  0  0  0  0  0  0  0  0  0
   44.3690   33.3520   36.4510 H   0  0  0  0  0  0  0  0  0  0  0  0
   45.2960   32.1860   34.5580 H   0  0  0  0  0  0  0  0  0  0  0  0
   48.3960   31.9610   33.3290 C   0  0  0  0  0  0  0  0  0  0  0  0
   48.4670   33.2130   33.4310 O   0  0  0  0  0  0  0  0  0  0  0  0
   47.7460   31.2550   34.3600 N   0  0  0  0  0  0  0  0  0  0  0  0
   47.5740   30.2360   34.4190 H   0  0  0  0  0  0  0  0  0  0  0  0
   48.8730   31.0100   32.3000 C   0  0  0  0  0  0  0  0  0  0  0  0
   48.1380   30.5100   31.2790 N   0  0  0  0  0  0  0  0  0  0  0  0
   48.5660   29.6660   30.3670 C   0  0  0  0  0  3  0  0  0  0  0  0
   49.8100   29.2170   30.3720 N   0  0  0  0  0  0  0  0  0  0  0  0
   50.6600   29.6400   31.3460 C   0  0  0  0  0  0  0  0  0  0  0  0
   51.9530   29.1700   31.3490 C   0  0  0  0  0  3  0  0  0  0  0  0
   52.8400   29.5760   32.3180 C   0  0  0  0  0  0  0  0  0  0  0  0
   53.8240   29.1410   32.2170 H   0  0  0  0  0  0  0  0  0  0  0  0
   52.3890   30.4680   33.2830 C   0  0  0  0  0  0  0  0  0  0  0  0
   53.1050   30.7580   34.0140 H   0  0  0  0  0  0  0  0  0  0  0  0
   51.0870   30.8940   33.2170 C   0  0  0  0  0  3  0  0  0  0  0  0
   50.1560   30.5230   32.2740 C   0  0  0  0  0  0  0  0  0  0  0  0
   48.2470   33.0770   38.9050 N   0  0  0  0  0  0  0  0  0  0  0  0
   49.2350   33.2520   38.6100 H   0  0  0  0  0  0  0  0  0  0  0  0
   47.4330   34.2790   42.1510 N   0  0  0  0  0  0  0  0  0  0  0  0
   47.2720   34.4350   40.7040 C   0  0  0  0  0  0  0  0  0  0  0  0
   47.8850   33.1250   40.2810 C   0  0  2  0  0  0  0  0  0  0  0  0
   49.1790   33.1170   41.0840 C   0  0  0  0  0  0  0  0  0  0  0  0
   48.7630   33.7710   42.3710 C   0  0  0  0  0  0  0  0  0  0  0  0
   46.2270   34.5670   40.4170 H   0  0  0  0  0  0  0  0  0  0  0  0
   47.9530   35.2460   40.3720 H   0  0  0  0  0  0  0  0  0  0  0  0
   47.2080   32.3120   40.6020 H   0  0  0  0  0  0  0  0  0  0  0  0
   49.5540   32.0870   41.2110 H   0  0  0  0  0  0  0  0  0  0  0  0
   49.9070   33.7480   40.5020 H   0  0  0  0  0  0  0  0  0  0  0  0
   48.6720   32.9590   43.1410 H   0  0  0  0  0  0  0  0  0  0  0  0
   49.4890   34.5340   42.7110 H   0  0  0  0  0  0  0  0  0  0  0  0
   44.7410   35.7310   44.2710 C   0  0  0  0  0  0  0  0  0  0  0  0
   45.5770   35.5720   43.1740 C   0  0  0  0  0  0  0  0  0  0  0  0
   46.5330   34.5430   43.1940 C   0  0  0  0  0  0  0  0  0  0  0  0
   46.5830   33.7500   44.3090 N   0  0  0  0  0  0  0  0  0  0  0  0
   45.7670   33.9130   45.3670 C   0  0  0  0  0  0  0  0  0  0  0  0
   44.8520   34.9040   45.3410 N   0  0  0  0  0  0  0  0  0  0  0  0
   44.0300   36.5400   44.1910 H   0  0  0  0  0  0  0  0  0  0  0  0
   45.5880   36.1510   42.2850 H   0  0  0  0  0  0  0  0  0  0  0  0
   45.8740   33.2420   46.2050 H   0  0  0  0  0  0  0  0  0  0  0  0
   50.4690   31.3190   36.7300 N   0  0  0  0  0  0  0  0  0  0  0  0
   49.3820   31.6890   36.6860 C   0  0  0  0  0  0  0  0  0  0  0  0
  1 50  1  0  0  0  0
  1  2  1  0  0  0  0
  2 26  1  0  0  0  0
  3  2  2  0  0  0  0
  3  7  1  0  0  0  0
  4  3  1  0  0  0  0
  5  6  1  0  0  0  0
  5  4  2  0  0  0  0
  6  1  2  0  0  0  0
  8  4  1  0  0  0  0
  9  5  1  0  0  0  0
 10 11  2  0  0  0  0
 10 12  1  0  0  0  0
 12 13  1  0  0  0  0
 12  6  1  0  0  0  0
 14 10  1  0  0  0  0
 15 14  2  0  0  0  0
 16 17  2  0  0  0  0
 16 15  1  0  0  0  0
 17 18  1  0  0  0  0
 18 19  2  0  0  0  0
 18 25  1  0  0  0  0
 19 20  1  0  0  0  0
 20 22  2  0  0  0  0
 21 20  1  0  0  0  0
 22 23  1  0  0  0  0
 24 22  1  0  0  0  0
 25 14  1  0  0  0  0
 25 24  2  0  0  0  0
 26 30  1  0  0  0  0
 27 26  1  0  0  0  0
 28 32  1  0  0  0  0
 28 42  1  0  0  0  0
 29 28  1  0  0  0  0
 30 35  1  1  0  0  0
 30 29  1  0  0  0  0
 30 31  1  0  0  0  0
 31 36  1  0  0  0  0
 31 32  1  0  0  0  0
 32 39  1  0  0  0  0
 32 38  1  0  0  0  0
 33 29  1  0  0  0  0
 34 29  1  0  0  0  0
 37 31  1  0  0  0  0
 40 45  1  0  0  0  0
 41 42  1  0  0  0  0
 41 40  2  0  0  0  0
 42 43  2  0  0  0  0
 43 44  1  0  0  0  0
 44 48  1  0  0  0  0
 45 44  2  0  0  0  0
 46 40  1  0  0  0  0
 47 41  1  0  0  0  0
 50 49  3  0  0  0  0
M  END
>  <minimizedAffinity>
-6.19793224

>  <minimizedRMSD>
1.49077547

$$$$
