
 OpenBabel03242521093D

 43 47  0  0  1  0  0  0  0  0999 V2000
   36.3530   28.8050   39.8690 C   0  0  2  0  0  0  0  0  0  0  0  0
   34.9850   29.0150   40.3800 C   0  0  0  0  0  0  0  0  0  0  0  0
   36.2150   29.0450   41.2930 C   0  0  1  0  0  0  0  0  0  0  0  0
   36.6140   27.7360   39.5940 H   0  0  0  0  0  0  0  0  0  0  0  0
   34.3470   28.1110   40.5210 H   0  0  0  0  0  0  0  0  0  0  0  0
   34.4020   29.9110   40.1860 H   0  0  0  0  0  0  0  0  0  0  0  0
   36.2780   30.0640   41.7220 H   0  0  0  0  0  0  0  0  0  0  0  0
   38.0840   31.8670   38.7630 C   0  0  0  0  0  0  0  0  0  0  0  0
   37.9260   31.6840   37.4080 C   0  0  0  0  0  0  0  0  0  0  0  0
   37.2860   30.6140   36.8110 C   0  0  0  0  0  0  0  0  0  0  0  0
   36.7620   29.6470   37.6460 C   0  0  0  0  0  0  0  0  0  0  0  0
   36.9270   29.8440   38.9880 C   0  0  0  0  0  0  0  0  0  0  0  0
   37.5520   30.8900   39.5010 N   0  0  0  0  0  0  0  0  0  0  0  0
   38.3330   32.4360   36.7160 H   0  0  0  0  0  0  0  0  0  0  0  0
   37.2110   30.5560   35.7300 H   0  0  0  0  0  0  0  0  0  0  0  0
   36.2670   28.8220   37.1540 H   0  0  0  0  0  0  0  0  0  0  0  0
   38.9920   35.0640   40.5370 C   0  0  0  0  0  0  0  0  0  0  0  0
   38.1670   34.0300   40.0580 C   0  0  0  0  0  0  0  0  0  0  0  0
   38.7780   33.0200   39.3390 C   0  0  0  0  0  0  0  0  0  0  0  0
   40.1140   33.0750   39.1350 N   0  0  0  0  0  0  0  0  0  0  0  0
   40.8770   34.0930   39.6160 C   0  0  0  0  0  0  0  0  0  0  0  0
   40.3010   35.0690   40.3080 N   0  0  0  0  0  0  0  0  0  0  0  0
   38.5100   35.8660   41.1080 H   0  0  0  0  0  0  0  0  0  0  0  0
   37.1190   33.9710   40.2070 H   0  0  0  0  0  0  0  0  0  0  0  0
   41.9350   34.0320   39.3920 H   0  0  0  0  0  0  0  0  0  0  0  0
   36.3100   27.9830   42.2070 O   0  0  0  0  0  0  0  0  0  0  0  0
   38.1790   29.5300   43.0050 O   0  0  0  0  0  0  0  0  0  0  0  0
   37.4190   28.2690   43.4400 P   0  0  1  0  0  0  0  0  0  0  0  0
   36.6390   28.6430   44.8700 O   0  0  0  0  0  0  0  0  0  0  0  0
   37.0420   28.1730   45.6370 H   0  0  0  0  0  0  0  0  0  0  0  0
   38.5950   27.0780   43.6010 O   0  0  0  0  0  0  0  0  0  0  0  0
   39.4100   26.7910   42.5160 C   0  0  0  0  0  0  0  0  0  0  0  0
   40.4880   27.4700   42.0850 N   0  0  0  0  0  0  0  0  0  0  0  0
   41.1710   27.0560   41.0100 C   0  0  0  0  0  3  0  0  0  0  0  0
   40.8090   25.9410   40.3130 N   0  0  0  0  0  0  0  0  0  0  0  0
   39.7370   25.2450   40.7210 C   0  0  0  0  0  0  0  0  0  0  0  0
   39.4340   24.1320   39.9670 C   0  0  0  0  0  3  0  0  0  0  0  0
   38.3390   23.3800   40.3460 C   0  0  0  0  0  0  0  0  0  0  0  0
   38.0740   22.5060   39.7800 H   0  0  0  0  0  0  0  0  0  0  0  0
   37.5890   23.7470   41.4420 C   0  0  0  0  0  0  0  0  0  0  0  0
   36.7200   23.1850   41.7750 H   0  0  0  0  0  0  0  0  0  0  0  0
   37.9240   24.8660   42.1700 C   0  0  0  0  0  3  0  0  0  0  0  0
   39.0070   25.6530   41.8370 C   0  0  0  0  0  0  0  0  0  0  0  0
  1  4  1  6  0  0  0
  1  2  1  0  0  0  0
  1  3  1  0  0  0  0
  2  5  1  0  0  0  0
  2  3  1  0  0  0  0
  3  7  1  1  0  0  0
  3 26  1  0  0  0  0
  6  2  1  0  0  0  0
  8 19  1  0  0  0  0
  8 13  1  0  0  0  0
  9  8  2  0  0  0  0
 10  9  1  0  0  0  0
 10 11  2  0  0  0  0
 11 12  1  0  0  0  0
 12 13  2  0  0  0  0
 12  1  1  0  0  0  0
 14  9  1  0  0  0  0
 15 10  1  0  0  0  0
 16 11  1  0  0  0  0
 17 23  1  0  0  0  0
 18 24  1  0  0  0  0
 18 17  2  0  0  0  0
 19 18  1  0  0  0  0
 20 19  2  0  0  0  0
 20 21  1  0  0  0  0
 21 22  2  0  0  0  0
 22 17  1  0  0  0  0
 25 21  1  0  0  0  0
 26 28  1  0  0  0  0
 28 27  2  6  0  0  0
 28 31  1  0  0  0  0
 28 29  1  0  0  0  0
 29 30  1  0  0  0  0
 32 31  1  0  0  0  0
 33 32  1  0  0  0  0
 34 33  2  0  0  0  0
 35 36  2  0  0  0  0
 35 34  1  0  0  0  0
 36 43  1  0  0  0  0
 37 38  2  0  0  0  0
 37 36  1  0  0  0  0
 38 40  1  0  0  0  0
 39 38  1  0  0  0  0
 40 41  1  0  0  0  0
 40 42  2  0  0  0  0
 43 42  1  0  0  0  0
 43 32  2  0  0  0  0
M  END
>  <minimizedAffinity>
-7.0366621

$$$$

 OpenBabel03242521093D

 43 47  0  0  1  0  0  0  0  0999 V2000
   36.5840   28.8340   41.9920 C   0  0  2  0  0  0  0  0  0  0  0  0
   35.6320   28.8490   40.8660 C   0  0  0  0  0  0  0  0  0  0  0  0
   36.8660   29.7550   40.9070 C   0  0  1  0  0  0  0  0  0  0  0  0
   36.2200   29.3270   42.9470 H   0  0  0  0  0  0  0  0  0  0  0  0
   34.6710   29.3950   41.0150 H   0  0  0  0  0  0  0  0  0  0  0  0
   35.5460   28.0430   40.1410 H   0  0  0  0  0  0  0  0  0  0  0  0
   37.5090   29.4710   40.0520 H   0  0  0  0  0  0  0  0  0  0  0  0
   37.8530   25.3910   41.6360 C   0  0  0  0  0  0  0  0  0  0  0  0
   38.8870   25.4850   42.5400 C   0  0  0  0  0  0  0  0  0  0  0  0
   39.2140   26.6120   43.2720 C   0  0  0  0  0  0  0  0  0  0  0  0
   38.4360   27.7360   43.0800 C   0  0  0  0  0  0  0  0  0  0  0  0
   37.4130   27.6250   42.1800 C   0  0  0  0  0  0  0  0  0  0  0  0
   37.1500   26.5180   41.5070 N   0  0  0  0  0  0  0  0  0  0  0  0
   39.5260   24.6070   42.7150 H   0  0  0  0  0  0  0  0  0  0  0  0
   40.0500   26.5910   43.9630 H   0  0  0  0  0  0  0  0  0  0  0  0
   38.7120   28.6020   43.6630 H   0  0  0  0  0  0  0  0  0  0  0  0
   37.9500   21.9870   40.0220 C   0  0  0  0  0  0  0  0  0  0  0  0
   38.3970   23.0770   40.7930 C   0  0  0  0  0  0  0  0  0  0  0  0
   37.5580   24.1700   40.8830 C   0  0  0  0  0  0  0  0  0  0  0  0
   36.3690   24.1410   40.2390 N   0  0  0  0  0  0  0  0  0  0  0  0
   35.9730   23.0670   39.5040 C   0  0  0  0  0  0  0  0  0  0  0  0
   36.7710   22.0110   39.4090 N   0  0  0  0  0  0  0  0  0  0  0  0
   38.6140   21.1190   39.9490 H   0  0  0  0  0  0  0  0  0  0  0  0
   39.3250   23.1180   41.3040 H   0  0  0  0  0  0  0  0  0  0  0  0
   35.0010   23.1550   39.0320 H   0  0  0  0  0  0  0  0  0  0  0  0
   36.5980   31.1260   41.0500 O   0  0  0  0  0  0  0  0  0  0  0  0
   37.0550   31.3780   38.5500 O   0  0  0  0  0  0  0  0  0  0  0  0
   37.3580   32.0730   39.8840 P   0  0  1  0  0  0  0  0  0  0  0  0
   36.6670   33.5930   39.8060 O   0  0  0  0  0  0  0  0  0  0  0  0
   37.3520   34.3000   39.7470 H   0  0  0  0  0  0  0  0  0  0  0  0
   39.0350   32.0960   39.9980 O   0  0  0  0  0  0  0  0  0  0  0  0
   39.6920   33.3170   39.9540 C   0  0  0  0  0  0  0  0  0  0  0  0
   39.4530   34.4150   40.6930 N   0  0  0  0  0  0  0  0  0  0  0  0
   40.1850   35.5240   40.5260 C   0  0  0  0  0  3  0  0  0  0  0  0
   41.1930   35.5900   39.6100 N   0  0  0  0  0  0  0  0  0  0  0  0
   41.4520   34.5080   38.8590 C   0  0  0  0  0  0  0  0  0  0  0  0
   42.4850   34.6510   37.9560 C   0  0  0  0  0  3  0  0  0  0  0  0
   42.7920   33.5650   37.1590 C   0  0  0  0  0  0  0  0  0  0  0  0
   43.5910   33.6420   36.4430 H   0  0  0  0  0  0  0  0  0  0  0  0
   42.0810   32.3920   37.2760 C   0  0  0  0  0  0  0  0  0  0  0  0
   42.2890   31.5140   36.6690 H   0  0  0  0  0  0  0  0  0  0  0  0
   41.0570   32.2890   38.1900 C   0  0  0  0  0  3  0  0  0  0  0  0
   40.7070   33.3400   39.0120 C   0  0  0  0  0  0  0  0  0  0  0  0
  1 12  1  0  0  0  0
  1  4  1  1  0  0  0
  2  3  1  0  0  0  0
  2  5  1  0  0  0  0
  2  1  1  0  0  0  0
  3  7  1  6  0  0  0
  3 26  1  0  0  0  0
  3  1  1  0  0  0  0
  6  2  1  0  0  0  0
  8  9  1  0  0  0  0
  9 14  1  0  0  0  0
  9 10  2  0  0  0  0
 10 15  1  0  0  0  0
 11 10  1  0  0  0  0
 11 16  1  0  0  0  0
 12 11  2  0  0  0  0
 13  8  2  0  0  0  0
 13 12  1  0  0  0  0
 17 18  1  0  0  0  0
 18 19  2  0  0  0  0
 18 24  1  0  0  0  0
 19  8  1  0  0  0  0
 20 19  1  0  0  0  0
 21 20  2  0  0  0  0
 22 21  1  0  0  0  0
 22 17  2  0  0  0  0
 23 17  1  0  0  0  0
 25 21  1  0  0  0  0
 28 27  2  6  0  0  0
 28 31  1  0  0  0  0
 28 26  1  0  0  0  0
 29 28  1  0  0  0  0
 30 29  1  0  0  0  0
 32 31  1  0  0  0  0
 32 33  1  0  0  0  0
 34 33  2  0  0  0  0
 35 34  1  0  0  0  0
 36 43  1  0  0  0  0
 36 35  2  0  0  0  0
 37 36  1  0  0  0  0
 38 40  1  0  0  0  0
 38 37  2  0  0  0  0
 39 38  1  0  0  0  0
 40 42  2  0  0  0  0
 41 40  1  0  0  0  0
 42 43  1  0  0  0  0
 43 32  2  0  0  0  0
M  END
>  <minimizedAffinity>
-6.94413948

$$$$

 OpenBabel03242521093D

 43 47  0  0  1  0  0  0  0  0999 V2000
   37.1470   27.7890   42.8260 C   0  0  2  0  0  0  0  0  0  0  0  0
   36.8580   28.1000   44.2390 C   0  0  0  0  0  0  0  0  0  0  0  0
   38.2880   27.9860   43.7010 C   0  0  1  0  0  0  0  0  0  0  0  0
   36.9710   26.7110   42.5170 H   0  0  0  0  0  0  0  0  0  0  0  0
   36.5620   27.2510   44.8990 H   0  0  0  0  0  0  0  0  0  0  0  0
   36.4530   29.0510   44.5740 H   0  0  0  0  0  0  0  0  0  0  0  0
   38.7630   28.9790   43.8250 H   0  0  0  0  0  0  0  0  0  0  0  0
   37.2860   30.8400   40.7610 C   0  0  0  0  0  0  0  0  0  0  0  0
   36.1550   30.6030   40.0130 C   0  0  0  0  0  0  0  0  0  0  0  0
   35.3310   29.4980   40.1290 C   0  0  0  0  0  0  0  0  0  0  0  0
   35.6740   28.5540   41.0760 C   0  0  0  0  0  0  0  0  0  0  0  0
   36.7990   28.8050   41.8110 C   0  0  0  0  0  0  0  0  0  0  0  0
   37.5490   29.8820   41.6530 N   0  0  0  0  0  0  0  0  0  0  0  0
   35.8550   31.3370   39.2500 H   0  0  0  0  0  0  0  0  0  0  0  0
   34.4590   29.3980   39.4920 H   0  0  0  0  0  0  0  0  0  0  0  0
   35.0150   27.7000   41.1460 H   0  0  0  0  0  0  0  0  0  0  0  0
   38.6210   34.2870   40.0320 C   0  0  0  0  0  0  0  0  0  0  0  0
   37.6730   33.2530   40.1360 C   0  0  0  0  0  0  0  0  0  0  0  0
   38.1240   32.0290   40.5900 C   0  0  0  0  0  0  0  0  0  0  0  0
   39.4300   31.8860   40.9060 N   0  0  0  0  0  0  0  0  0  0  0  0
   40.3170   32.9110   40.7910 C   0  0  0  0  0  0  0  0  0  0  0  0
   39.8960   34.0930   40.3560 N   0  0  0  0  0  0  0  0  0  0  0  0
   38.2660   35.2590   39.6720 H   0  0  0  0  0  0  0  0  0  0  0  0
   36.6450   33.3460   39.8930 H   0  0  0  0  0  0  0  0  0  0  0  0
   41.3380   32.6820   41.0730 H   0  0  0  0  0  0  0  0  0  0  0  0
   39.0220   26.8870   44.1730 O   0  0  0  0  0  0  0  0  0  0  0  0
   40.9370   28.2550   43.1820 O   0  0  0  0  0  0  0  0  0  0  0  0
   40.5760   26.8050   43.5340 P   0  0  1  0  0  0  0  0  0  0  0  0
   41.6720   26.3010   44.6910 O   0  0  0  0  0  0  0  0  0  0  0  0
   42.2970   25.6300   44.3300 H   0  0  0  0  0  0  0  0  0  0  0  0
   40.6840   25.9590   42.0850 O   0  0  0  0  0  0  0  0  0  0  0  0
   39.9260   26.3850   41.0040 C   0  0  0  0  0  0  0  0  0  0  0  0
   40.1610   27.4270   40.1850 N   0  0  0  0  0  0  0  0  0  0  0  0
   39.3230   27.7060   39.1780 C   0  0  0  0  0  3  0  0  0  0  0  0
   38.2080   26.9580   38.9410 N   0  0  0  0  0  0  0  0  0  0  0  0
   37.9500   25.9130   39.7430 C   0  0  0  0  0  0  0  0  0  0  0  0
   36.8060   25.2050   39.4410 C   0  0  0  0  0  3  0  0  0  0  0  0
   36.4960   24.1200   40.2370 C   0  0  0  0  0  0  0  0  0  0  0  0
   35.6100   23.5460   40.0290 H   0  0  0  0  0  0  0  0  0  0  0  0
   37.3120   23.7740   41.2910 C   0  0  0  0  0  0  0  0  0  0  0  0
   37.1060   22.9280   41.9420 H   0  0  0  0  0  0  0  0  0  0  0  0
   38.4450   24.5060   41.5600 C   0  0  0  0  0  3  0  0  0  0  0  0
   38.8050   25.5990   40.7990 C   0  0  0  0  0  0  0  0  0  0  0  0
  1  4  1  6  0  0  0
  1  3  1  0  0  0  0
  1  2  1  0  0  0  0
  2  6  1  0  0  0  0
  2  5  1  0  0  0  0
  3  7  1  6  0  0  0
  3 26  1  0  0  0  0
  3  2  1  0  0  0  0
  8 13  1  0  0  0  0
  9 10  1  0  0  0  0
  9  8  2  0  0  0  0
 10 11  2  0  0  0  0
 11 16  1  0  0  0  0
 11 12  1  0  0  0  0
 12  1  1  0  0  0  0
 13 12  2  0  0  0  0
 14  9  1  0  0  0  0
 15 10  1  0  0  0  0
 17 18  2  0  0  0  0
 17 22  1  0  0  0  0
 18 19  1  0  0  0  0
 19  8  1  0  0  0  0
 19 20  2  0  0  0  0
 21 20  1  0  0  0  0
 21 25  1  0  0  0  0
 22 21  2  0  0  0  0
 23 17  1  0  0  0  0
 24 18  1  0  0  0  0
 28 27  2  6  0  0  0
 28 26  1  0  0  0  0
 28 29  1  0  0  0  0
 30 29  1  0  0  0  0
 31 28  1  0  0  0  0
 32 31  1  0  0  0  0
 33 32  2  0  0  0  0
 34 33  1  0  0  0  0
 35 34  2  0  0  0  0
 35 36  1  0  0  0  0
 36 43  1  0  0  0  0
 37 36  2  0  0  0  0
 37 38  1  0  0  0  0
 38 40  2  0  0  0  0
 39 38  1  0  0  0  0
 40 42  1  0  0  0  0
 40 41  1  0  0  0  0
 43 32  1  0  0  0  0
 43 42  2  0  0  0  0
M  END
>  <minimizedAffinity>
-6.74313402

$$$$

 OpenBabel03242521093D

 43 47  0  0  1  0  0  0  0  0999 V2000
   36.4800   28.9130   41.8180 C   0  0  2  0  0  0  0  0  0  0  0  0
   35.6220   28.7140   40.6350 C   0  0  0  0  0  0  0  0  0  0  0  0
   36.7490   29.7520   40.6660 C   0  0  1  0  0  0  0  0  0  0  0  0
   35.9930   29.4510   42.6910 H   0  0  0  0  0  0  0  0  0  0  0  0
   34.6020   29.1620   40.6620 H   0  0  0  0  0  0  0  0  0  0  0  0
   35.6780   27.8380   39.9940 H   0  0  0  0  0  0  0  0  0  0  0  0
   37.4830   29.4600   39.8900 H   0  0  0  0  0  0  0  0  0  0  0  0
   38.3320   25.7270   41.7100 C   0  0  0  0  0  0  0  0  0  0  0  0
   39.0620   25.9030   42.8630 C   0  0  0  0  0  0  0  0  0  0  0  0
   39.0000   27.0080   43.6940 C   0  0  0  0  0  0  0  0  0  0  0  0
   38.1300   28.0180   43.3330 C   0  0  0  0  0  0  0  0  0  0  0  0
   37.4130   27.8270   42.1860 C   0  0  0  0  0  0  0  0  0  0  0  0
   37.5170   26.7460   41.4310 N   0  0  0  0  0  0  0  0  0  0  0  0
   39.7640   25.1160   43.1780 H   0  0  0  0  0  0  0  0  0  0  0  0
   39.6160   27.0570   44.5850 H   0  0  0  0  0  0  0  0  0  0  0  0
   38.1010   28.8690   43.9980 H   0  0  0  0  0  0  0  0  0  0  0  0
   38.0990   22.2690   40.2320 C   0  0  0  0  0  0  0  0  0  0  0  0
   37.8880   23.3060   41.1590 C   0  0  0  0  0  0  0  0  0  0  0  0
   38.4450   24.5350   40.8660 C   0  0  0  0  0  0  0  0  0  0  0  0
   39.1540   24.6800   39.7240 N   0  0  0  0  0  0  0  0  0  0  0  0
   39.3350   23.6510   38.8520 C   0  0  0  0  0  0  0  0  0  0  0  0
   38.8050   22.4650   39.1230 N   0  0  0  0  0  0  0  0  0  0  0  0
   37.6580   21.2920   40.4620 H   0  0  0  0  0  0  0  0  0  0  0  0
   37.3360   23.2110   42.0600 H   0  0  0  0  0  0  0  0  0  0  0  0
   39.9200   23.8830   37.9700 H   0  0  0  0  0  0  0  0  0  0  0  0
   36.3310   31.0920   40.6470 O   0  0  0  0  0  0  0  0  0  0  0  0
   37.2250   31.7090   38.3360 O   0  0  0  0  0  0  0  0  0  0  0  0
   37.3850   32.1030   39.8110 P   0  0  1  0  0  0  0  0  0  0  0  0
   36.9090   33.7000   39.9390 O   0  0  0  0  0  0  0  0  0  0  0  0
   37.6760   34.2930   40.1180 H   0  0  0  0  0  0  0  0  0  0  0  0
   39.0090   31.8490   40.1620 O   0  0  0  0  0  0  0  0  0  0  0  0
   39.8830   31.5700   39.1220 C   0  0  0  0  0  0  0  0  0  0  0  0
   40.0210   30.4170   38.4420 N   0  0  0  0  0  0  0  0  0  0  0  0
   40.9210   30.3110   37.4550 C   0  0  0  0  0  3  0  0  0  0  0  0
   41.7270   31.3520   37.1000 N   0  0  0  0  0  0  0  0  0  0  0  0
   41.6100   32.5120   37.7630 C   0  0  0  0  0  0  0  0  0  0  0  0
   42.4580   33.5170   37.3480 C   0  0  0  0  0  3  0  0  0  0  0  0
   42.3770   34.7330   37.9990 C   0  0  0  0  0  0  0  0  0  0  0  0
   43.0240   35.5380   37.7010 H   0  0  0  0  0  0  0  0  0  0  0  0
   41.4750   34.9150   39.0240 C   0  0  0  0  0  0  0  0  0  0  0  0
   41.3780   35.8540   39.5620 H   0  0  0  0  0  0  0  0  0  0  0  0
   40.6450   33.8870   39.4090 C   0  0  0  0  0  3  0  0  0  0  0  0
   40.6820   32.6530   38.7940 C   0  0  0  0  0  0  0  0  0  0  0  0
  1 12  1  0  0  0  0
  1  4  1  1  0  0  0
  2  5  1  0  0  0  0
  2  3  1  0  0  0  0
  2  1  1  0  0  0  0
  3  7  1  6  0  0  0
  3  1  1  0  0  0  0
  6  2  1  0  0  0  0
  8  9  1  0  0  0  0
  9 14  1  0  0  0  0
  9 10  2  0  0  0  0
 10 15  1  0  0  0  0
 11 10  1  0  0  0  0
 11 16  1  0  0  0  0
 12 11  2  0  0  0  0
 13  8  2  0  0  0  0
 13 12  1  0  0  0  0
 17 23  1  0  0  0  0
 17 18  1  0  0  0  0
 18 24  1  0  0  0  0
 19 18  2  0  0  0  0
 19  8  1  0  0  0  0
 20 19  1  0  0  0  0
 21 22  1  0  0  0  0
 21 20  2  0  0  0  0
 22 17  2  0  0  0  0
 25 21  1  0  0  0  0
 26  3  1  0  0  0  0
 28 27  2  6  0  0  0
 28 29  1  0  0  0  0
 28 31  1  0  0  0  0
 28 26  1  0  0  0  0
 29 30  1  0  0  0  0
 32 31  1  0  0  0  0
 33 32  2  0  0  0  0
 34 33  1  0  0  0  0
 35 34  2  0  0  0  0
 35 36  1  0  0  0  0
 36 43  1  0  0  0  0
 37 36  2  0  0  0  0
 37 38  1  0  0  0  0
 38 40  2  0  0  0  0
 39 38  1  0  0  0  0
 40 42  1  0  0  0  0
 40 41  1  0  0  0  0
 43 32  1  0  0  0  0
 43 42  2  0  0  0  0
M  END
>  <minimizedAffinity>
-6.67240047

$$$$

 OpenBabel03242521093D

 43 47  0  0  1  0  0  0  0  0999 V2000
   35.8360   29.3810   37.8580 C   0  0  2  0  0  0  0  0  0  0  0  0
   36.6030   29.9220   36.7210 C   0  0  0  0  0  0  0  0  0  0  0  0
   37.0760   30.0660   38.1710 C   0  0  1  0  0  0  0  0  0  0  0  0
   34.8970   29.9560   38.1330 H   0  0  0  0  0  0  0  0  0  0  0  0
   36.2460   30.8780   36.2710 H   0  0  0  0  0  0  0  0  0  0  0  0
   37.1410   29.3010   36.0090 H   0  0  0  0  0  0  0  0  0  0  0  0
   38.0370   29.5230   38.2560 H   0  0  0  0  0  0  0  0  0  0  0  0
   36.4630   25.9400   39.0230 C   0  0  0  0  0  0  0  0  0  0  0  0
   35.5650   25.3030   38.1970 C   0  0  0  0  0  0  0  0  0  0  0  0
   34.7480   25.9220   37.2690 C   0  0  0  0  0  0  0  0  0  0  0  0
   34.8430   27.2960   37.1630 C   0  0  0  0  0  0  0  0  0  0  0  0
   35.7400   27.9120   37.9900 C   0  0  0  0  0  0  0  0  0  0  0  0
   36.4940   27.2640   38.8610 N   0  0  0  0  0  0  0  0  0  0  0  0
   35.4650   24.2090   38.2570 H   0  0  0  0  0  0  0  0  0  0  0  0
   34.0690   25.3350   36.6600 H   0  0  0  0  0  0  0  0  0  0  0  0
   34.1940   27.7550   36.4310 H   0  0  0  0  0  0  0  0  0  0  0  0
   37.7740   23.7940   41.8290 C   0  0  0  0  0  0  0  0  0  0  0  0
   36.8220   24.3920   40.9830 C   0  0  0  0  0  0  0  0  0  0  0  0
   37.2990   25.2300   39.9930 C   0  0  0  0  0  0  0  0  0  0  0  0
   38.6320   25.4310   39.8890 N   0  0  0  0  0  0  0  0  0  0  0  0
   39.5200   24.8330   40.7280 C   0  0  0  0  0  0  0  0  0  0  0  0
   39.0740   24.0260   41.6830 N   0  0  0  0  0  0  0  0  0  0  0  0
   37.3980   23.1280   42.6140 H   0  0  0  0  0  0  0  0  0  0  0  0
   35.7740   24.2470   41.0490 H   0  0  0  0  0  0  0  0  0  0  0  0
   40.5640   25.0670   40.5520 H   0  0  0  0  0  0  0  0  0  0  0  0
   37.0580   31.3740   38.6810 O   0  0  0  0  0  0  0  0  0  0  0  0
   37.8550   32.8310   40.6210 O   0  0  0  0  0  0  0  0  0  0  0  0
   37.2740   31.4370   40.3480 P   0  0  1  0  0  0  0  0  0  0  0  0
   35.8060   31.3610   41.1440 O   0  0  0  0  0  0  0  0  0  0  0  0
   35.8430   30.7490   41.9160 H   0  0  0  0  0  0  0  0  0  0  0  0
   38.4210   30.3590   40.9380 O   0  0  0  0  0  0  0  0  0  0  0  0
   37.9960   29.2780   41.6980 C   0  0  0  0  0  0  0  0  0  0  0  0
   36.7430   28.8090   41.8430 N   0  0  0  0  0  0  0  0  0  0  0  0
   36.4990   27.7460   42.6210 C   0  0  0  0  0  3  0  0  0  0  0  0
   37.4950   27.1010   43.2920 N   0  0  0  0  0  0  0  0  0  0  0  0
   38.7530   27.5500   43.1650 C   0  0  0  0  0  0  0  0  0  0  0  0
   39.7050   26.8470   43.8730 C   0  0  0  0  0  3  0  0  0  0  0  0
   41.0170   27.2690   43.7760 C   0  0  0  0  0  0  0  0  0  0  0  0
   41.7850   26.7440   44.3160 H   0  0  0  0  0  0  0  0  0  0  0  0
   41.3420   28.3560   42.9940 C   0  0  0  0  0  0  0  0  0  0  0  0
   42.3610   28.7210   42.8890 H   0  0  0  0  0  0  0  0  0  0  0  0
   40.3630   29.0310   42.3020 C   0  0  0  0  0  3  0  0  0  0  0  0
   39.0380   28.6530   42.3620 C   0  0  0  0  0  0  0  0  0  0  0  0
  1 12  1  0  0  0  0
  1  4  1  1  0  0  0
  1  3  1  0  0  0  0
  2  1  1  0  0  0  0
  2  3  1  0  0  0  0
  3  7  1  1  0  0  0
  3 26  1  0  0  0  0
  5  2  1  0  0  0  0
  6  2  1  0  0  0  0
  8 19  1  0  0  0  0
  9 14  1  0  0  0  0
  9  8  2  0  0  0  0
 10  9  1  0  0  0  0
 11 10  2  0  0  0  0
 11 12  1  0  0  0  0
 12 13  2  0  0  0  0
 13  8  1  0  0  0  0
 15 10  1  0  0  0  0
 16 11  1  0  0  0  0
 17 23  1  0  0  0  0
 18 24  1  0  0  0  0
 18 17  2  0  0  0  0
 19 18  1  0  0  0  0
 20 19  2  0  0  0  0
 20 21  1  0  0  0  0
 21 22  2  0  0  0  0
 22 17  1  0  0  0  0
 25 21  1  0  0  0  0
 26 28  1  0  0  0  0
 28 27  2  1  0  0  0
 28 31  1  0  0  0  0
 28 29  1  0  0  0  0
 29 30  1  0  0  0  0
 31 32  1  0  0  0  0
 32 33  2  0  0  0  0
 32 43  1  0  0  0  0
 33 34  1  0  0  0  0
 34 35  2  0  0  0  0
 36 35  1  0  0  0  0
 36 37  1  0  0  0  0
 38 37  2  0  0  0  0
 38 39  1  0  0  0  0
 40 38  1  0  0  0  0
 41 40  1  0  0  0  0
 42 43  1  0  0  0  0
 42 40  2  0  0  0  0
 43 36  2  0  0  0  0
M  END
>  <minimizedAffinity>
-6.57206249

$$$$

 OpenBabel03242521093D

 43 47  0  0  1  0  0  0  0  0999 V2000
   37.6300   31.6880   39.1700 C   0  0  2  0  0  0  0  0  0  0  0  0
   38.2740   31.4060   37.8730 C   0  0  0  0  0  0  0  0  0  0  0  0
   39.0310   32.0440   39.0410 C   0  0  1  0  0  0  0  0  0  0  0  0
   36.9180   32.5720   39.1810 H   0  0  0  0  0  0  0  0  0  0  0  0
   38.0680   32.1130   37.0350 H   0  0  0  0  0  0  0  0  0  0  0  0
   38.5100   30.4040   37.5250 H   0  0  0  0  0  0  0  0  0  0  0  0
   39.8400   31.3440   39.3280 H   0  0  0  0  0  0  0  0  0  0  0  0
   37.8230   28.8200   41.4770 C   0  0  0  0  0  0  0  0  0  0  0  0
   36.4860   28.4890   41.4660 C   0  0  0  0  0  0  0  0  0  0  0  0
   35.5020   29.1460   40.7500 C   0  0  0  0  0  0  0  0  0  0  0  0
   35.8950   30.2230   39.9820 C   0  0  0  0  0  0  0  0  0  0  0  0
   37.2250   30.5380   40.0040 C   0  0  0  0  0  0  0  0  0  0  0  0
   38.1210   29.8710   40.7120 N   0  0  0  0  0  0  0  0  0  0  0  0
   36.1410   27.6350   42.0680 H   0  0  0  0  0  0  0  0  0  0  0  0
   34.4720   28.8110   40.8050 H   0  0  0  0  0  0  0  0  0  0  0  0
   35.1070   30.7190   39.4330 H   0  0  0  0  0  0  0  0  0  0  0  0
   39.6260   26.6760   43.9970 C   0  0  0  0  0  0  0  0  0  0  0  0
   38.5390   27.3060   43.3640 C   0  0  0  0  0  0  0  0  0  0  0  0
   38.8210   28.0890   42.2610 C   0  0  0  0  0  0  0  0  0  0  0  0
   40.1040   28.2120   41.8540 N   0  0  0  0  0  0  0  0  0  0  0  0
   41.1280   27.5860   42.4940 C   0  0  0  0  0  0  0  0  0  0  0  0
   40.8690   26.8300   43.5540 N   0  0  0  0  0  0  0  0  0  0  0  0
   39.4050   26.0540   44.8720 H   0  0  0  0  0  0  0  0  0  0  0  0
   37.5270   27.2220   43.6690 H   0  0  0  0  0  0  0  0  0  0  0  0
   42.1140   27.7560   42.0790 H   0  0  0  0  0  0  0  0  0  0  0  0
   39.4110   33.3820   38.8510 O   0  0  0  0  0  0  0  0  0  0  0  0
   38.8690   35.5290   40.1230 O   0  0  0  0  0  0  0  0  0  0  0  0
   39.6450   34.2160   40.2940 P   0  0  1  0  0  0  0  0  0  0  0  0
   38.9420   33.4020   41.5740 O   0  0  0  0  0  0  0  0  0  0  0  0
   39.5350   33.3830   42.3610 H   0  0  0  0  0  0  0  0  0  0  0  0
   41.2370   34.6770   40.5770 O   0  0  0  0  0  0  0  0  0  0  0  0
   42.1110   33.7550   41.1340 C   0  0  0  0  0  0  0  0  0  0  0  0
   42.1140   32.4180   40.9840 N   0  0  0  0  0  0  0  0  0  0  0  0
   43.0360   31.6640   41.5970 C   0  0  0  0  0  3  0  0  0  0  0  0
   44.0010   32.2110   42.3910 N   0  0  0  0  0  0  0  0  0  0  0  0
   44.0200   33.5420   42.5570 C   0  0  0  0  0  0  0  0  0  0  0  0
   45.0240   34.0200   43.3730 C   0  0  0  0  0  3  0  0  0  0  0  0
   45.0880   35.3850   43.5770 C   0  0  0  0  0  0  0  0  0  0  0  0
   45.8580   35.7920   44.2080 H   0  0  0  0  0  0  0  0  0  0  0  0
   44.1720   36.2220   42.9780 C   0  0  0  0  0  0  0  0  0  0  0  0
   44.1860   37.3010   43.1110 H   0  0  0  0  0  0  0  0  0  0  0  0
   43.1850   35.7060   42.1710 C   0  0  0  0  0  3  0  0  0  0  0  0
   43.0730   34.3520   41.9310 C   0  0  0  0  0  0  0  0  0  0  0  0
  1  4  1  1  0  0  0
  1 12  1  0  0  0  0
  2  3  1  0  0  0  0
  2  1  1  0  0  0  0
  3  1  1  0  0  0  0
  3  7  1  1  0  0  0
  5  2  1  0  0  0  0
  6  2  1  0  0  0  0
  8 19  1  0  0  0  0
  9  8  1  0  0  0  0
  9 14  1  0  0  0  0
 10 15  1  0  0  0  0
 10  9  2  0  0  0  0
 11 12  2  0  0  0  0
 11 10  1  0  0  0  0
 12 13  1  0  0  0  0
 13  8  2  0  0  0  0
 16 11  1  0  0  0  0
 17 23  1  0  0  0  0
 18 24  1  0  0  0  0
 18 17  2  0  0  0  0
 19 18  1  0  0  0  0
 20 19  2  0  0  0  0
 20 21  1  0  0  0  0
 21 22  2  0  0  0  0
 22 17  1  0  0  0  0
 25 21  1  0  0  0  0
 26  3  1  0  0  0  0
 26 28  1  0  0  0  0
 28 27  2  6  0  0  0
 28 31  1  0  0  0  0
 28 29  1  0  0  0  0
 29 30  1  0  0  0  0
 31 32  1  0  0  0  0
 32 43  1  0  0  0  0
 33 32  2  0  0  0  0
 33 34  1  0  0  0  0
 34 35  2  0  0  0  0
 35 36  1  0  0  0  0
 36 37  1  0  0  0  0
 37 38  2  0  0  0  0
 38 39  1  0  0  0  0
 40 41  1  0  0  0  0
 40 38  1  0  0  0  0
 42 40  2  0  0  0  0
 43 42  1  0  0  0  0
 43 36  2  0  0  0  0
M  END
>  <minimizedAffinity>
-6.51382542

$$$$

 OpenBabel03242521093D

 43 47  0  0  1  0  0  0  0  0999 V2000
   37.1820   27.7430   42.7940 C   0  0  2  0  0  0  0  0  0  0  0  0
   36.8790   28.0240   44.2100 C   0  0  0  0  0  0  0  0  0  0  0  0
   38.3140   27.9310   43.6820 C   0  0  1  0  0  0  0  0  0  0  0  0
   37.0150   26.6710   42.4620 H   0  0  0  0  0  0  0  0  0  0  0  0
   36.5830   27.1610   44.8510 H   0  0  0  0  0  0  0  0  0  0  0  0
   36.4650   28.9660   44.5600 H   0  0  0  0  0  0  0  0  0  0  0  0
   38.7810   28.9240   43.8290 H   0  0  0  0  0  0  0  0  0  0  0  0
   37.3380   30.8170   40.7650 C   0  0  0  0  0  0  0  0  0  0  0  0
   36.1940   30.6060   40.0290 C   0  0  0  0  0  0  0  0  0  0  0  0
   35.3560   29.5120   40.1420 C   0  0  0  0  0  0  0  0  0  0  0  0
   35.6970   28.5510   41.0730 C   0  0  0  0  0  0  0  0  0  0  0  0
   36.8350   28.7760   41.7960 C   0  0  0  0  0  0  0  0  0  0  0  0
   37.5990   29.8450   41.6400 N   0  0  0  0  0  0  0  0  0  0  0  0
   35.8950   31.3530   39.2780 H   0  0  0  0  0  0  0  0  0  0  0  0
   34.4740   29.4330   39.5160 H   0  0  0  0  0  0  0  0  0  0  0  0
   35.0270   27.7060   41.1410 H   0  0  0  0  0  0  0  0  0  0  0  0
   38.7090   34.2630   40.0950 C   0  0  0  0  0  0  0  0  0  0  0  0
   37.7450   33.2430   40.2070 C   0  0  0  0  0  0  0  0  0  0  0  0
   38.1910   31.9950   40.5970 C   0  0  0  0  0  0  0  0  0  0  0  0
   39.5080   31.8180   40.8470 N   0  0  0  0  0  0  0  0  0  0  0  0
   40.4090   32.8300   40.7280 C   0  0  0  0  0  0  0  0  0  0  0  0
   39.9920   34.0330   40.3540 N   0  0  0  0  0  0  0  0  0  0  0  0
   38.3570   35.2540   39.7860 H   0  0  0  0  0  0  0  0  0  0  0  0
   36.7090   33.3640   40.0130 H   0  0  0  0  0  0  0  0  0  0  0  0
   41.4370   32.5720   40.9550 H   0  0  0  0  0  0  0  0  0  0  0  0
   39.0510   26.8270   44.1390 O   0  0  0  0  0  0  0  0  0  0  0  0
   40.9440   28.2580   43.1950 O   0  0  0  0  0  0  0  0  0  0  0  0
   40.6310   26.8000   43.5590 P   0  0  1  0  0  0  0  0  0  0  0  0
   41.7020   26.3610   44.7650 O   0  0  0  0  0  0  0  0  0  0  0  0
   42.3680   25.7110   44.4390 H   0  0  0  0  0  0  0  0  0  0  0  0
   40.8280   25.9370   42.1300 O   0  0  0  0  0  0  0  0  0  0  0  0
   39.7200   25.3310   41.5560 C   0  0  0  0  0  0  0  0  0  0  0  0
   39.1350   24.1710   41.9040 N   0  0  0  0  0  0  0  0  0  0  0  0
   38.0610   23.7210   41.2410 C   0  0  0  0  0  3  0  0  0  0  0  0
   37.5190   24.4100   40.1970 N   0  0  0  0  0  0  0  0  0  0  0  0
   38.0840   25.5710   39.8290 C   0  0  0  0  0  0  0  0  0  0  0  0
   37.4810   26.2090   38.7660 C   0  0  0  0  0  3  0  0  0  0  0  0
   38.0240   27.4080   38.3480 C   0  0  0  0  0  0  0  0  0  0  0  0
   37.5790   27.9330   37.5210 H   0  0  0  0  0  0  0  0  0  0  0  0
   39.1290   27.9320   38.9820 C   0  0  0  0  0  0  0  0  0  0  0  0
   39.5880   28.8720   38.6860 H   0  0  0  0  0  0  0  0  0  0  0  0
   39.7020   27.2640   40.0400 C   0  0  0  0  0  3  0  0  0  0  0  0
   39.2020   26.0630   40.5010 C   0  0  0  0  0  0  0  0  0  0  0  0
  1  4  1  6  0  0  0
  1  3  1  0  0  0  0
  1  2  1  0  0  0  0
  2  6  1  0  0  0  0
  2  5  1  0  0  0  0
  3  7  1  6  0  0  0
  3 26  1  0  0  0  0
  3  2  1  0  0  0  0
  8 13  1  0  0  0  0
  9 10  1  0  0  0  0
  9  8  2  0  0  0  0
 10 11  2  0  0  0  0
 11 16  1  0  0  0  0
 11 12  1  0  0  0  0
 12  1  1  0  0  0  0
 13 12  2  0  0  0  0
 14  9  1  0  0  0  0
 15 10  1  0  0  0  0
 17 18  2  0  0  0  0
 17 22  1  0  0  0  0
 18 19  1  0  0  0  0
 19  8  1  0  0  0  0
 19 20  2  0  0  0  0
 21 20  1  0  0  0  0
 21 25  1  0  0  0  0
 22 21  2  0  0  0  0
 23 17  1  0  0  0  0
 24 18  1  0  0  0  0
 28 27  2  6  0  0  0
 28 26  1  0  0  0  0
 28 29  1  0  0  0  0
 30 29  1  0  0  0  0
 31 28  1  0  0  0  0
 32 33  1  0  0  0  0
 32 31  1  0  0  0  0
 34 33  2  0  0  0  0
 35 34  1  0  0  0  0
 36 35  2  0  0  0  0
 36 43  1  0  0  0  0
 37 36  1  0  0  0  0
 38 37  2  0  0  0  0
 38 40  1  0  0  0  0
 39 38  1  0  0  0  0
 40 42  2  0  0  0  0
 41 40  1  0  0  0  0
 42 43  1  0  0  0  0
 43 32  2  0  0  0  0
M  END
>  <minimizedAffinity>
-6.4676137

$$$$

 OpenBabel03242521093D

 43 47  0  0  1  0  0  0  0  0999 V2000
   37.9660   27.0010   39.1720 C   0  0  2  0  0  0  0  0  0  0  0  0
   37.4680   26.3140   37.9650 C   0  0  0  0  0  0  0  0  0  0  0  0
   37.3680   25.6930   39.3620 C   0  0  1  0  0  0  0  0  0  0  0  0
   39.0950   27.0260   39.2900 H   0  0  0  0  0  0  0  0  0  0  0  0
   38.2220   25.8210   37.3100 H   0  0  0  0  0  0  0  0  0  0  0  0
   36.5810   26.6260   37.4200 H   0  0  0  0  0  0  0  0  0  0  0  0
   36.2910   25.5710   39.5880 H   0  0  0  0  0  0  0  0  0  0  0  0
   37.3110   30.5090   40.0980 C   0  0  0  0  0  0  0  0  0  0  0  0
   35.9810   30.3650   40.4230 C   0  0  0  0  0  0  0  0  0  0  0  0
   35.2620   29.1850   40.3600 C   0  0  0  0  0  0  0  0  0  0  0  0
   35.9360   28.0580   39.9340 C   0  0  0  0  0  0  0  0  0  0  0  0
   37.2560   28.2190   39.6170 C   0  0  0  0  0  0  0  0  0  0  0  0
   37.8900   29.3760   39.6970 N   0  0  0  0  0  0  0  0  0  0  0  0
   35.4150   31.2440   40.7650 H   0  0  0  0  0  0  0  0  0  0  0  0
   34.2130   29.1690   40.6370 H   0  0  0  0  0  0  0  0  0  0  0  0
   35.3520   27.1500   39.8930 H   0  0  0  0  0  0  0  0  0  0  0  0
   38.2930   34.1460   40.0330 C   0  0  0  0  0  0  0  0  0  0  0  0
   37.4600   33.0200   39.9030 C   0  0  0  0  0  0  0  0  0  0  0  0
   38.0200   31.7880   40.1800 C   0  0  0  0  0  0  0  0  0  0  0  0
   39.3170   31.7260   40.5560 N   0  0  0  0  0  0  0  0  0  0  0  0
   40.0900   32.8400   40.6710 C   0  0  0  0  0  0  0  0  0  0  0  0
   39.5620   34.0290   40.4060 N   0  0  0  0  0  0  0  0  0  0  0  0
   37.8500   35.1250   39.8140 H   0  0  0  0  0  0  0  0  0  0  0  0
   36.4410   33.0480   39.6090 H   0  0  0  0  0  0  0  0  0  0  0  0
   41.1150   32.6700   40.9790 H   0  0  0  0  0  0  0  0  0  0  0  0
   38.1760   24.5650   39.5750 O   0  0  0  0  0  0  0  0  0  0  0  0
   36.2640   23.9180   41.1400 O   0  0  0  0  0  0  0  0  0  0  0  0
   37.7780   23.7210   40.9750 P   0  0  1  0  0  0  0  0  0  0  0  0
   38.0330   22.0810   40.7780 O   0  0  0  0  0  0  0  0  0  0  0  0
   38.4770   21.6860   41.5640 H   0  0  0  0  0  0  0  0  0  0  0  0
   38.4590   24.3480   42.3780 O   0  0  0  0  0  0  0  0  0  0  0  0
   39.3930   25.3680   42.2700 C   0  0  0  0  0  0  0  0  0  0  0  0
   40.6720   25.2820   41.8600 N   0  0  0  0  0  0  0  0  0  0  0  0
   41.4490   26.3720   41.8130 C   0  0  0  0  0  3  0  0  0  0  0  0
   40.9850   27.6030   42.1740 N   0  0  0  0  0  0  0  0  0  0  0  0
   39.7140   27.7160   42.5880 C   0  0  0  0  0  0  0  0  0  0  0  0
   39.3180   28.9900   42.9360 C   0  0  0  0  0  3  0  0  0  0  0  0
   38.0170   29.1610   43.3680 C   0  0  0  0  0  0  0  0  0  0  0  0
   37.6750   30.1420   43.6480 H   0  0  0  0  0  0  0  0  0  0  0  0
   37.1610   28.0840   43.4420 C   0  0  0  0  0  0  0  0  0  0  0  0
   36.1300   28.1730   43.7760 H   0  0  0  0  0  0  0  0  0  0  0  0
   37.5940   26.8280   43.0850 C   0  0  0  0  0  3  0  0  0  0  0  0
   38.8820   26.5990   42.6460 C   0  0  0  0  0  0  0  0  0  0  0  0
  1  4  1  1  0  0  0
  1  3  1  0  0  0  0
  1 12  1  0  0  0  0
  2  1  1  0  0  0  0
  2  3  1  0  0  0  0
  3 26  1  0  0  0  0
  3  7  1  1  0  0  0
  5  2  1  0  0  0  0
  6  2  1  0  0  0  0
  8 19  1  0  0  0  0
  8  9  1  0  0  0  0
  9 14  1  0  0  0  0
 10  9  2  0  0  0  0
 10 15  1  0  0  0  0
 11 10  1  0  0  0  0
 12 13  1  0  0  0  0
 12 11  2  0  0  0  0
 13  8  2  0  0  0  0
 16 11  1  0  0  0  0
 17 22  1  0  0  0  0
 18 17  2  0  0  0  0
 18 19  1  0  0  0  0
 19 20  2  0  0  0  0
 20 21  1  0  0  0  0
 21 25  1  0  0  0  0
 22 21  2  0  0  0  0
 23 17  1  0  0  0  0
 24 18  1  0  0  0  0
 26 28  1  0  0  0  0
 28 27  2  1  0  0  0
 28 31  1  0  0  0  0
 29 28  1  0  0  0  0
 29 30  1  0  0  0  0
 32 31  1  0  0  0  0
 32 43  1  0  0  0  0
 33 32  2  0  0  0  0
 34 33  1  0  0  0  0
 34 35  2  0  0  0  0
 35 36  1  0  0  0  0
 36 43  2  0  0  0  0
 36 37  1  0  0  0  0
 37 38  2  0  0  0  0
 38 40  1  0  0  0  0
 38 39  1  0  0  0  0
 40 41  1  0  0  0  0
 42 40  2  0  0  0  0
 43 42  1  0  0  0  0
M  END
>  <minimizedAffinity>
-6.44515133

$$$$

 OpenBabel03242521093D

 43 47  0  0  1  0  0  0  0  0999 V2000
   36.5490   29.1080   41.7140 C   0  0  2  0  0  0  0  0  0  0  0  0
   35.6710   28.8300   40.5620 C   0  0  0  0  0  0  0  0  0  0  0  0
   36.7750   29.8900   40.5140 C   0  0  1  0  0  0  0  0  0  0  0  0
   36.0690   29.6820   42.5680 H   0  0  0  0  0  0  0  0  0  0  0  0
   34.6420   29.2580   40.5880 H   0  0  0  0  0  0  0  0  0  0  0  0
   35.7310   27.9220   39.9670 H   0  0  0  0  0  0  0  0  0  0  0  0
   37.4990   29.5720   39.7380 H   0  0  0  0  0  0  0  0  0  0  0  0
   39.6480   27.4910   42.8870 C   0  0  0  0  0  0  0  0  0  0  0  0
   39.2100   26.1880   42.8140 C   0  0  0  0  0  0  0  0  0  0  0  0
   37.9530   25.7840   42.4050 C   0  0  0  0  0  0  0  0  0  0  0  0
   37.0610   26.7730   42.0390 C   0  0  0  0  0  0  0  0  0  0  0  0
   37.5120   28.0620   42.1180 C   0  0  0  0  0  0  0  0  0  0  0  0
   38.7290   28.3860   42.5190 N   0  0  0  0  0  0  0  0  0  0  0  0
   39.8970   25.3760   43.0990 H   0  0  0  0  0  0  0  0  0  0  0  0
   37.6990   24.7300   42.3800 H   0  0  0  0  0  0  0  0  0  0  0  0
   36.0860   26.4320   41.7240 H   0  0  0  0  0  0  0  0  0  0  0  0
   43.0770   27.5790   44.4470 C   0  0  0  0  0  0  0  0  0  0  0  0
   41.8130   27.0610   44.1090 C   0  0  0  0  0  0  0  0  0  0  0  0
   40.9930   27.8600   43.3350 C   0  0  0  0  0  0  0  0  0  0  0  0
   41.4360   29.0770   42.9470 N   0  0  0  0  0  0  0  0  0  0  0  0
   42.6670   29.5410   43.2950 C   0  0  0  0  0  0  0  0  0  0  0  0
   43.4640   28.7830   44.0390 N   0  0  0  0  0  0  0  0  0  0  0  0
   43.7300   26.9480   45.0600 H   0  0  0  0  0  0  0  0  0  0  0  0
   41.4470   26.1110   44.4040 H   0  0  0  0  0  0  0  0  0  0  0  0
   42.9160   30.5300   42.9280 H   0  0  0  0  0  0  0  0  0  0  0  0
   36.3290   31.2180   40.4340 O   0  0  0  0  0  0  0  0  0  0  0  0
   37.3000   31.8950   38.1710 O   0  0  0  0  0  0  0  0  0  0  0  0
   37.4220   32.2390   39.6620 P   0  0  1  0  0  0  0  0  0  0  0  0
   36.9660   33.8380   39.8290 O   0  0  0  0  0  0  0  0  0  0  0  0
   37.7360   34.4130   40.0490 H   0  0  0  0  0  0  0  0  0  0  0  0
   39.0310   31.9490   40.0510 O   0  0  0  0  0  0  0  0  0  0  0  0
   39.9170   31.6190   39.0360 C   0  0  0  0  0  0  0  0  0  0  0  0
   40.0310   30.4470   38.3840 N   0  0  0  0  0  0  0  0  0  0  0  0
   40.9470   30.2900   37.4190 C   0  0  0  0  0  3  0  0  0  0  0  0
   41.7930   31.2960   37.0580 N   0  0  0  0  0  0  0  0  0  0  0  0
   41.7000   32.4750   37.6930 C   0  0  0  0  0  0  0  0  0  0  0  0
   42.5880   33.4430   37.2740 C   0  0  0  0  0  3  0  0  0  0  0  0
   42.5330   34.6750   37.8960 C   0  0  0  0  0  0  0  0  0  0  0  0
   43.2120   35.4520   37.5940 H   0  0  0  0  0  0  0  0  0  0  0  0
   41.6160   34.9080   38.8980 C   0  0  0  0  0  0  0  0  0  0  0  0
   41.5390   35.8620   39.4130 H   0  0  0  0  0  0  0  0  0  0  0  0
   40.7470   33.9160   39.2880 C   0  0  0  0  0  3  0  0  0  0  0  0
   40.7560   32.6670   38.7010 C   0  0  0  0  0  0  0  0  0  0  0  0
  1 12  1  0  0  0  0
  1  4  1  1  0  0  0
  2  5  1  0  0  0  0
  2  1  1  0  0  0  0
  3  7  1  6  0  0  0
  3  2  1  0  0  0  0
  3  1  1  0  0  0  0
  6  2  1  0  0  0  0
  8 19  1  0  0  0  0
  9  8  1  0  0  0  0
  9 14  1  0  0  0  0
 10  9  2  0  0  0  0
 11 12  2  0  0  0  0
 11 10  1  0  0  0  0
 12 13  1  0  0  0  0
 13  8  2  0  0  0  0
 15 10  1  0  0  0  0
 16 11  1  0  0  0  0
 17 23  1  0  0  0  0
 18 24  1  0  0  0  0
 18 17  1  0  0  0  0
 19 18  2  0  0  0  0
 20 21  2  0  0  0  0
 20 19  1  0  0  0  0
 21 22  1  0  0  0  0
 22 17  2  0  0  0  0
 25 21  1  0  0  0  0
 26  3  1  0  0  0  0
 28 27  2  6  0  0  0
 28 29  1  0  0  0  0
 28 31  1  0  0  0  0
 28 26  1  0  0  0  0
 29 30  1  0  0  0  0
 32 31  1  0  0  0  0
 33 32  2  0  0  0  0
 34 33  1  0  0  0  0
 35 34  2  0  0  0  0
 35 36  1  0  0  0  0
 36 43  1  0  0  0  0
 37 36  2  0  0  0  0
 37 38  1  0  0  0  0
 38 40  2  0  0  0  0
 39 38  1  0  0  0  0
 40 42  1  0  0  0  0
 40 41  1  0  0  0  0
 43 32  1  0  0  0  0
 43 42  2  0  0  0  0
M  END
>  <minimizedAffinity>
-6.42783689

$$$$
