
 OpenBabel03252502243D

 37 40  0  0  1  0  0  0  0  0999 V2000
   46.6590   34.4650   42.2870 N   0  0  0  0  0  0  0  0  0  0  0  0
   48.0920   34.2030   42.3250 C   0  0  0  0  0  0  0  0  0  0  0  0
   48.6490   34.9620   41.1240 C   0  0  0  0  0  0  0  0  0  0  0  0
   48.1210   34.3770   39.8480 C   0  0  0  0  0  0  0  0  0  0  0  0
   46.6940   33.9640   39.8940 C   0  0  0  0  0  0  0  0  0  0  0  0
   45.9150   34.4680   41.0580 C   0  0  1  0  0  0  0  0  0  0  0  0
   48.2210   33.1350   42.0990 H   0  0  0  0  0  0  0  0  0  0  0  0
   48.5570   34.5410   43.2460 H   0  0  0  0  0  0  0  0  0  0  0  0
   49.7530   34.7280   41.1450 H   0  0  0  0  0  0  0  0  0  0  0  0
   48.4670   36.0300   41.2480 H   0  0  0  0  0  0  0  0  0  0  0  0
   48.7640   33.5300   39.4870 H   0  0  0  0  0  0  0  0  0  0  0  0
   48.2240   35.1600   39.0580 H   0  0  0  0  0  0  0  0  0  0  0  0
   46.1380   34.1910   38.9590 H   0  0  0  0  0  0  0  0  0  0  0  0
   46.6680   32.8410   39.9580 H   0  0  0  0  0  0  0  0  0  0  0  0
   45.5490   35.5010   40.8280 H   0  0  0  0  0  0  0  0  0  0  0  0
   44.4960   36.0870   44.8730 C   0  0  0  0  0  0  0  0  0  0  0  0
   45.1670   35.9050   43.6590 C   0  0  0  0  0  0  0  0  0  0  0  0
   45.9430   34.7310   43.4900 C   0  0  0  0  0  0  0  0  0  0  0  0
   45.9860   33.8500   44.5250 N   0  0  0  0  0  0  0  0  0  0  0  0
   45.3150   34.0740   45.6860 C   0  0  0  0  0  0  0  0  0  0  0  0
   44.5750   35.1890   45.8500 N   0  0  0  0  0  0  0  0  0  0  0  0
   43.9470   37.0190   44.8590 H   0  0  0  0  0  0  0  0  0  0  0  0
   45.1520   36.5830   42.8210 H   0  0  0  0  0  0  0  0  0  0  0  0
   45.3630   33.3610   46.4970 H   0  0  0  0  0  0  0  0  0  0  0  0
   44.7960   33.6320   41.2230 O   0  0  0  0  0  0  0  0  0  0  0  0
   43.4970   33.9810   40.9590 C   0  0  0  0  0  0  0  0  0  0  0  0
   42.7220   34.8910   41.5730 N   0  0  0  0  0  0  0  0  0  0  0  0
   41.4640   35.1240   41.2020 C   0  0  0  0  0  3  0  0  0  0  0  0
   40.9040   34.4420   40.1690 N   0  0  0  0  0  0  0  0  0  0  0  0
   41.6220   33.5210   39.5140 C   0  0  0  0  0  0  0  0  0  0  0  0
   41.0550   32.8280   38.4670 C   0  0  0  0  0  3  0  0  0  0  0  0
   41.7560   31.8760   37.7690 C   0  0  0  0  0  0  0  0  0  0  0  0
   41.3950   31.2800   36.9320 H   0  0  0  0  0  0  0  0  0  0  0  0
   43.0440   31.6220   38.1330 C   0  0  0  0  0  0  0  0  0  0  0  0
   43.6660   30.8910   37.6380 H   0  0  0  0  0  0  0  0  0  0  0  0
   43.6010   32.3220   39.1820 C   0  0  0  0  0  3  0  0  0  0  0  0
   42.9260   33.2870   39.9070 C   0  0  0  0  0  0  0  0  0  0  0  0
  1  2  1  0  0  0  0
  1 18  1  0  0  0  0
  2  8  1  0  0  0  0
  3  9  1  0  0  0  0
  3 10  1  0  0  0  0
  3  2  1  0  0  0  0
  4  5  1  0  0  0  0
  4  3  1  0  0  0  0
  5 14  1  0  0  0  0
  5  6  1  0  0  0  0
  6 15  1  6  0  0  0
  6 25  1  0  0  0  0
  6  1  1  0  0  0  0
  7  2  1  0  0  0  0
 11  4  1  0  0  0  0
 12  4  1  0  0  0  0
 13  5  1  0  0  0  0
 16 21  1  0  0  0  0
 17 16  2  0  0  0  0
 18 17  1  0  0  0  0
 18 19  2  0  0  0  0
 19 20  1  0  0  0  0
 20 21  2  0  0  0  0
 20 24  1  0  0  0  0
 22 16  1  0  0  0  0
 23 17  1  0  0  0  0
 26 25  1  0  0  0  0
 26 27  1  0  0  0  0
 28 27  2  0  0  0  0
 29 28  1  0  0  0  0
 30 37  1  0  0  0  0
 30 29  2  0  0  0  0
 31 30  1  0  0  0  0
 32 34  1  0  0  0  0
 32 31  2  0  0  0  0
 33 32  1  0  0  0  0
 34 36  2  0  0  0  0
 35 34  1  0  0  0  0
 36 37  1  0  0  0  0
 37 26  2  0  0  0  0
M  END
>  <minimizedAffinity>
-5.97498322

>  <minimizedRMSD>
1.27404726

$$$$
