
 OpenBabel03252506463D

 45 49  0  0  1  0  0  0  0  0999 V2000
   49.5860   33.5160   41.3910 N   0  0  1  0  0  0  0  0  0  0  0  0
   50.7240   33.0640   42.1510 C   0  0  0  0  0  0  0  0  0  0  0  0
   51.2840   31.7440   41.7160 C   0  0  0  0  0  0  0  0  0  0  0  0
   50.2520   30.6690   41.9830 C   0  0  0  0  0  0  0  0  0  0  0  0
   48.8620   31.1830   41.7550 C   0  0  0  0  0  0  0  0  0  0  0  0
   48.9170   32.3680   40.8230 C   0  0  2  0  0  0  0  0  0  0  0  0
   50.4550   32.9620   43.2240 H   0  0  0  0  0  0  0  0  0  0  0  0
   51.4800   33.8670   42.0940 H   0  0  0  0  0  0  0  0  0  0  0  0
   52.1820   31.5770   42.3860 H   0  0  0  0  0  0  0  0  0  0  0  0
   51.6960   31.7070   40.7060 H   0  0  0  0  0  0  0  0  0  0  0  0
   50.4710   29.7260   41.4680 H   0  0  0  0  0  0  0  0  0  0  0  0
   50.3200   30.4530   43.0860 H   0  0  0  0  0  0  0  0  0  0  0  0
   48.1750   30.4440   41.3290 H   0  0  0  0  0  0  0  0  0  0  0  0
   48.3830   31.5460   42.6930 H   0  0  0  0  0  0  0  0  0  0  0  0
   47.8590   32.6710   40.6660 H   0  0  0  0  0  0  0  0  0  0  0  0
   49.4180   31.9740   39.5350 N   0  0  0  0  0  0  0  0  0  0  0  0
   50.3240   31.4750   39.6200 H   0  0  0  0  0  0  0  0  0  0  0  0
   48.8470   32.2040   38.2630 C   0  0  0  0  0  0  0  0  0  0  0  0
   47.7030   32.8630   38.0480 N   0  0  0  0  0  0  0  0  0  0  0  0
   47.1260   33.1140   36.8870 C   0  0  0  0  0  3  0  0  0  0  0  0
   47.7330   32.6670   35.7740 N   0  0  0  0  0  0  0  0  0  0  0  0
   48.8880   31.9920   35.8570 C   0  0  0  0  0  0  0  0  0  0  0  0
   49.4840   31.5490   34.7100 C   0  0  0  0  0  3  0  0  0  0  0  0
   50.6710   30.8490   34.7210 C   0  0  0  0  0  0  0  0  0  0  0  0
   51.0800   30.5330   33.7860 H   0  0  0  0  0  0  0  0  0  0  0  0
   51.2330   30.6140   35.9650 C   0  0  0  0  0  0  0  0  0  0  0  0
   52.1640   30.0630   35.9610 H   0  0  0  0  0  0  0  0  0  0  0  0
   50.6140   31.0690   37.0980 C   0  0  0  0  0  3  0  0  0  0  0  0
   49.4330   31.7670   37.0970 C   0  0  0  0  0  0  0  0  0  0  0  0
   47.3710   34.7060   41.9290 C   0  0  1  0  0  0  0  0  0  0  0  0
   48.4640   35.6890   41.7390 C   0  0  0  0  0  0  0  0  0  0  0  0
   48.7790   34.3280   42.2130 C   0  0  2  0  0  0  0  0  0  0  0  0
   46.8480   34.4020   40.9950 H   0  0  0  0  0  0  0  0  0  0  0  0
   48.5830   36.5130   42.4690 H   0  0  0  0  0  0  0  0  0  0  0  0
   48.7760   35.9960   40.7090 H   0  0  0  0  0  0  0  0  0  0  0  0
   48.9930   34.2050   43.3180 H   0  0  0  0  0  0  0  0  0  0  0  0
   45.5800   36.0160   43.1020 C   0  0  0  0  0  0  0  0  0  0  0  0
   46.4300   34.9010   43.0500 C   0  0  0  0  0  0  0  0  0  0  0  0
   46.3430   33.9580   44.1000 C   0  0  0  0  0  0  0  0  0  0  0  0
   45.4510   34.1830   45.0910 N   0  0  0  0  0  0  0  0  0  0  0  0
   44.6440   35.2620   45.1200 C   0  0  0  0  0  0  0  0  0  0  0  0
   44.7010   36.1950   44.1190 N   0  0  0  0  0  0  0  0  0  0  0  0
   45.6490   36.7350   42.2980 H   0  0  0  0  0  0  0  0  0  0  0  0
   46.9840   33.0860   44.0920 H   0  0  0  0  0  0  0  0  0  0  0  0
   43.9790   35.3130   45.9730 H   0  0  0  0  0  0  0  0  0  0  0  0
  1  2  1  1  0  0  0
  1 32  1  0  0  0  0
  2  7  1  0  0  0  0
  3  4  1  0  0  0  0
  3  2  1  0  0  0  0
  3  9  1  0  0  0  0
  4 12  1  0  0  0  0
  5  4  1  0  0  0  0
  5 14  1  0  0  0  0
  6 15  1  6  0  0  0
  6  1  1  0  0  0  0
  6  5  1  0  0  0  0
  8  2  1  0  0  0  0
 10  3  1  0  0  0  0
 11  4  1  0  0  0  0
 13  5  1  0  0  0  0
 16 17  1  0  0  0  0
 16  6  1  0  0  0  0
 18 16  1  0  0  0  0
 19 18  1  0  0  0  0
 20 19  2  0  0  0  0
 21 22  2  0  0  0  0
 21 20  1  0  0  0  0
 22 29  1  0  0  0  0
 23 24  2  0  0  0  0
 23 22  1  0  0  0  0
 24 26  1  0  0  0  0
 25 24  1  0  0  0  0
 26 28  2  0  0  0  0
 27 26  1  0  0  0  0
 29 28  1  0  0  0  0
 29 18  2  0  0  0  0
 30 33  1  6  0  0  0
 30 32  1  0  0  0  0
 30 38  1  0  0  0  0
 31 30  1  0  0  0  0
 31 32  1  0  0  0  0
 31 34  1  0  0  0  0
 32 36  1  1  0  0  0
 35 31  1  0  0  0  0
 37 42  1  0  0  0  0
 38 37  2  0  0  0  0
 38 39  1  0  0  0  0
 39 40  2  0  0  0  0
 40 41  1  0  0  0  0
 41 45  1  0  0  0  0
 42 41  2  0  0  0  0
 43 37  1  0  0  0  0
 44 39  1  0  0  0  0
M  END
>  <minimizedAffinity>
-5.99185801

>  <minimizedRMSD>
2.51448631

$$$$
