
 OpenBabel03252506483D

 45 49  0  0  1  0  0  0  0  0999 V2000
   39.6880   33.0190   40.1730 N   0  0  1  0  0  0  0  0  0  0  0  0
   38.5600   33.8730   39.9020 C   0  0  0  0  0  0  0  0  0  0  0  0
   37.2550   33.1560   39.7360 C   0  0  0  0  0  0  0  0  0  0  0  0
   37.3310   32.2950   38.4930 C   0  0  0  0  0  0  0  0  0  0  0  0
   38.7070   31.7270   38.3120 C   0  0  0  0  0  0  0  0  0  0  0  0
   39.4160   31.7020   39.6430 C   0  0  2  0  0  0  0  0  0  0  0  0
   38.7310   34.4520   38.9690 H   0  0  0  0  0  0  0  0  0  0  0  0
   38.5190   34.6120   40.7230 H   0  0  0  0  0  0  0  0  0  0  0  0
   36.4920   33.9780   39.5760 H   0  0  0  0  0  0  0  0  0  0  0  0
   36.8870   32.6210   40.6130 H   0  0  0  0  0  0  0  0  0  0  0  0
   36.5280   31.5500   38.4380 H   0  0  0  0  0  0  0  0  0  0  0  0
   37.1750   32.9990   37.6280 H   0  0  0  0  0  0  0  0  0  0  0  0
   38.7220   30.7130   37.8960 H   0  0  0  0  0  0  0  0  0  0  0  0
   39.3370   32.3480   37.6340 H   0  0  0  0  0  0  0  0  0  0  0  0
   40.4050   31.2370   39.4440 H   0  0  0  0  0  0  0  0  0  0  0  0
   38.7360   30.8290   40.5590 N   0  0  0  0  0  0  0  0  0  0  0  0
   37.7090   30.9710   40.5240 H   0  0  0  0  0  0  0  0  0  0  0  0
   39.2960   29.8840   41.4490 C   0  0  0  0  0  0  0  0  0  0  0  0
   40.5850   29.8410   41.8050 N   0  0  0  0  0  0  0  0  0  0  0  0
   41.1610   28.9890   42.6320 C   0  0  0  0  0  3  0  0  0  0  0  0
   40.3920   28.0440   43.2010 N   0  0  0  0  0  0  0  0  0  0  0  0
   39.0820   27.9820   42.9240 C   0  0  0  0  0  0  0  0  0  0  0  0
   38.3220   27.0120   43.5130 C   0  0  0  0  0  3  0  0  0  0  0  0
   36.9690   26.8900   43.2750 C   0  0  0  0  0  0  0  0  0  0  0  0
   36.4370   26.1070   43.7710 H   0  0  0  0  0  0  0  0  0  0  0  0
   36.4160   27.8080   42.3990 C   0  0  0  0  0  0  0  0  0  0  0  0
   35.3550   27.7030   42.2200 H   0  0  0  0  0  0  0  0  0  0  0  0
   37.2000   28.7710   41.8220 C   0  0  0  0  0  3  0  0  0  0  0  0
   38.5460   28.9000   42.0530 C   0  0  0  0  0  0  0  0  0  0  0  0
   41.9230   34.2460   40.5060 C   0  0  1  0  0  0  0  0  0  0  0  0
   40.9590   35.0990   39.7710 C   0  0  0  0  0  0  0  0  0  0  0  0
   40.8570   33.6300   39.6760 C   0  0  2  0  0  0  0  0  0  0  0  0
   41.8540   34.3110   41.6150 H   0  0  0  0  0  0  0  0  0  0  0  0
   41.2950   35.6350   38.8630 H   0  0  0  0  0  0  0  0  0  0  0  0
   40.1700   35.6680   40.3240 H   0  0  0  0  0  0  0  0  0  0  0  0
   41.2510   33.1460   38.7310 H   0  0  0  0  0  0  0  0  0  0  0  0
   44.3930   34.3060   40.9460 C   0  0  0  0  0  0  0  0  0  0  0  0
   43.3240   34.1990   40.0430 C   0  0  0  0  0  0  0  0  0  0  0  0
   43.6340   34.0270   38.6740 C   0  0  0  0  0  0  0  0  0  0  0  0
   44.9360   33.9770   38.3130 N   0  0  0  0  0  0  0  0  0  0  0  0
   45.9460   34.0810   39.1990 C   0  0  0  0  0  0  0  0  0  0  0  0
   45.6830   34.2480   40.5320 N   0  0  0  0  0  0  0  0  0  0  0  0
   44.1540   34.4370   41.9920 H   0  0  0  0  0  0  0  0  0  0  0  0
   42.8340   33.9420   37.9500 H   0  0  0  0  0  0  0  0  0  0  0  0
   46.9390   34.0220   38.7690 H   0  0  0  0  0  0  0  0  0  0  0  0
  1  2  1  6  0  0  0
  2  8  1  0  0  0  0
  3  2  1  0  0  0  0
  3 10  1  0  0  0  0
  4  3  1  0  0  0  0
  5  4  1  0  0  0  0
  5  6  1  0  0  0  0
  6 15  1  6  0  0  0
  6  1  1  0  0  0  0
  6 16  1  0  0  0  0
  7  2  1  0  0  0  0
  9  3  1  0  0  0  0
 11  4  1  0  0  0  0
 12  4  1  0  0  0  0
 13  5  1  0  0  0  0
 14  5  1  0  0  0  0
 16 18  1  0  0  0  0
 17 16  1  0  0  0  0
 18 19  2  0  0  0  0
 18 29  1  0  0  0  0
 19 20  1  0  0  0  0
 20 21  2  0  0  0  0
 22 21  1  0  0  0  0
 22 23  1  0  0  0  0
 24 23  2  0  0  0  0
 24 25  1  0  0  0  0
 26 24  1  0  0  0  0
 27 26  1  0  0  0  0
 28 29  1  0  0  0  0
 28 26  2  0  0  0  0
 29 22  2  0  0  0  0
 30 33  1  1  0  0  0
 31 35  1  0  0  0  0
 31 30  1  0  0  0  0
 32 36  1  6  0  0  0
 32 31  1  0  0  0  0
 32  1  1  0  0  0  0
 32 30  1  0  0  0  0
 34 31  1  0  0  0  0
 37 43  1  0  0  0  0
 38 30  1  0  0  0  0
 38 37  2  0  0  0  0
 39 38  1  0  0  0  0
 40 39  2  0  0  0  0
 40 41  1  0  0  0  0
 41 42  2  0  0  0  0
 42 37  1  0  0  0  0
 44 39  1  0  0  0  0
 45 41  1  0  0  0  0
M  END
>  <minimizedAffinity>
-6.37655592

$$$$

 OpenBabel03252506483D

 45 49  0  0  1  0  0  0  0  0999 V2000
   37.7360   30.6990   40.3380 N   0  0  1  0  0  0  0  0  0  0  0  0
   36.3450   30.9810   40.5870 C   0  0  0  0  0  0  0  0  0  0  0  0
   35.4540   29.7760   40.6100 C   0  0  0  0  0  0  0  0  0  0  0  0
   35.4310   29.1660   39.2240 C   0  0  0  0  0  0  0  0  0  0  0  0
   36.7660   29.2950   38.5540 C   0  0  0  0  0  0  0  0  0  0  0  0
   37.8370   29.4590   39.6030 C   0  0  2  0  0  0  0  0  0  0  0  0
   35.9450   31.6630   39.8070 H   0  0  0  0  0  0  0  0  0  0  0  0
   36.3020   31.5380   41.5410 H   0  0  0  0  0  0  0  0  0  0  0  0
   34.4270   30.1810   40.8590 H   0  0  0  0  0  0  0  0  0  0  0  0
   35.6510   29.0490   41.4000 H   0  0  0  0  0  0  0  0  0  0  0  0
   35.0180   28.1500   39.2100 H   0  0  0  0  0  0  0  0  0  0  0  0
   34.7260   29.8070   38.6250 H   0  0  0  0  0  0  0  0  0  0  0  0
   37.0340   28.4410   37.9210 H   0  0  0  0  0  0  0  0  0  0  0  0
   36.8290   30.1950   37.9000 H   0  0  0  0  0  0  0  0  0  0  0  0
   38.7960   29.5070   39.0430 H   0  0  0  0  0  0  0  0  0  0  0  0
   37.9130   28.2890   40.4330 N   0  0  0  0  0  0  0  0  0  0  0  0
   37.1240   27.6400   40.2450 H   0  0  0  0  0  0  0  0  0  0  0  0
   38.8760   27.9730   41.4180 C   0  0  0  0  0  0  0  0  0  0  0  0
   39.7300   28.8500   41.9590 N   0  0  0  0  0  0  0  0  0  0  0  0
   40.6430   28.6150   42.8830 C   0  0  0  0  0  3  0  0  0  0  0  0
   40.7530   27.3620   43.3570 N   0  0  0  0  0  0  0  0  0  0  0  0
   39.9520   26.3920   42.8950 C   0  0  0  0  0  0  0  0  0  0  0  0
   40.0830   25.1260   43.3920 C   0  0  0  0  0  3  0  0  0  0  0  0
   39.2940   24.0810   42.9620 C   0  0  0  0  0  0  0  0  0  0  0  0
   39.4520   23.1170   43.3960 H   0  0  0  0  0  0  0  0  0  0  0  0
   38.3540   24.3810   41.9930 C   0  0  0  0  0  0  0  0  0  0  0  0
   37.7410   23.5540   41.6630 H   0  0  0  0  0  0  0  0  0  0  0  0
   38.2420   25.6580   41.5110 C   0  0  0  0  0  3  0  0  0  0  0  0
   39.0230   26.7040   41.9320 C   0  0  0  0  0  0  0  0  0  0  0  0
   39.4480   32.6160   40.2550 C   0  0  1  0  0  0  0  0  0  0  0  0
   38.0640   33.1470   40.2840 C   0  0  0  0  0  0  0  0  0  0  0  0
   38.3250   31.8130   39.7080 C   0  0  2  0  0  0  0  0  0  0  0  0
   39.8930   32.4150   41.2560 H   0  0  0  0  0  0  0  0  0  0  0  0
   37.7790   33.9490   39.5780 H   0  0  0  0  0  0  0  0  0  0  0  0
   37.5090   33.2260   41.2520 H   0  0  0  0  0  0  0  0  0  0  0  0
   38.3420   31.7360   38.5780 H   0  0  0  0  0  0  0  0  0  0  0  0
   40.8950   34.5330   39.5310 C   0  0  0  0  0  0  0  0  0  0  0  0
   40.4230   33.2280   39.3310 C   0  0  0  0  0  0  0  0  0  0  0  0
   40.9250   32.5090   38.2210 C   0  0  0  0  0  0  0  0  0  0  0  0
   41.8280   33.1180   37.4190 N   0  0  0  0  0  0  0  0  0  0  0  0
   42.2680   34.3730   37.6320 C   0  0  0  0  0  0  0  0  0  0  0  0
   41.8030   35.0990   38.6960 N   0  0  0  0  0  0  0  0  0  0  0  0
   40.5100   35.0810   40.3800 H   0  0  0  0  0  0  0  0  0  0  0  0
   40.5820   31.4990   38.0370 H   0  0  0  0  0  0  0  0  0  0  0  0
   42.9910   34.7330   36.9090 H   0  0  0  0  0  0  0  0  0  0  0  0
  1  2  1  6  0  0  0
  2  3  1  0  0  0  0
  2  8  1  0  0  0  0
  3  9  1  0  0  0  0
  3 10  1  0  0  0  0
  4  3  1  0  0  0  0
  5  4  1  0  0  0  0
  5  6  1  0  0  0  0
  6 15  1  6  0  0  0
  6  1  1  0  0  0  0
  6 16  1  0  0  0  0
  7  2  1  0  0  0  0
 11  4  1  0  0  0  0
 12  4  1  0  0  0  0
 13  5  1  0  0  0  0
 14  5  1  0  0  0  0
 16 18  1  0  0  0  0
 17 16  1  0  0  0  0
 18 29  2  0  0  0  0
 18 19  1  0  0  0  0
 19 20  2  0  0  0  0
 20 21  1  0  0  0  0
 22 21  2  0  0  0  0
 22 23  1  0  0  0  0
 24 23  2  0  0  0  0
 24 25  1  0  0  0  0
 26 24  1  0  0  0  0
 27 26  1  0  0  0  0
 28 29  1  0  0  0  0
 28 26  2  0  0  0  0
 29 22  1  0  0  0  0
 30 31  1  0  0  0  0
 30 33  1  1  0  0  0
 31 35  1  0  0  0  0
 32 36  1  6  0  0  0
 32 30  1  0  0  0  0
 32 31  1  0  0  0  0
 32  1  1  0  0  0  0
 34 31  1  0  0  0  0
 37 43  1  0  0  0  0
 38 37  1  0  0  0  0
 38 30  1  0  0  0  0
 39 38  2  0  0  0  0
 40 41  2  0  0  0  0
 40 39  1  0  0  0  0
 41 42  1  0  0  0  0
 42 37  2  0  0  0  0
 44 39  1  0  0  0  0
 45 41  1  0  0  0  0
M  END
>  <minimizedAffinity>
-6.22631407

$$$$

 OpenBabel03252506483D

 45 49  0  0  1  0  0  0  0  0999 V2000
   33.8370   28.2330   37.5480 N   0  0  1  0  0  0  0  0  0  0  0  0
   34.1410   26.8740   37.1800 C   0  0  0  0  0  0  0  0  0  0  0  0
   35.3750   26.3120   37.8160 C   0  0  0  0  0  0  0  0  0  0  0  0
   36.5760   27.0760   37.3010 C   0  0  0  0  0  0  0  0  0  0  0  0
   36.2450   28.5220   37.0850 C   0  0  0  0  0  0  0  0  0  0  0  0
   35.0610   28.8960   37.9410 C   0  0  2  0  0  0  0  0  0  0  0  0
   34.2810   26.7940   36.0810 H   0  0  0  0  0  0  0  0  0  0  0  0
   33.2460   26.2730   37.4240 H   0  0  0  0  0  0  0  0  0  0  0  0
   35.4270   25.2410   37.4510 H   0  0  0  0  0  0  0  0  0  0  0  0
   35.3540   26.2190   38.9040 H   0  0  0  0  0  0  0  0  0  0  0  0
   37.4810   26.9070   37.8980 H   0  0  0  0  0  0  0  0  0  0  0  0
   36.7850   26.6550   36.2780 H   0  0  0  0  0  0  0  0  0  0  0  0
   37.0660   29.2100   37.3190 H   0  0  0  0  0  0  0  0  0  0  0  0
   35.9510   28.7390   36.0330 H   0  0  0  0  0  0  0  0  0  0  0  0
   34.8970   29.9800   37.7640 H   0  0  0  0  0  0  0  0  0  0  0  0
   35.3810   28.7580   39.3340 N   0  0  0  0  0  0  0  0  0  0  0  0
   34.7590   28.0690   39.7990 H   0  0  0  0  0  0  0  0  0  0  0  0
   36.3740   29.4360   40.0770 C   0  0  0  0  0  0  0  0  0  0  0  0
   37.0040   30.5460   39.6750 N   0  0  0  0  0  0  0  0  0  0  0  0
   37.9320   31.2230   40.3260 C   0  0  0  0  0  3  0  0  0  0  0  0
   38.3090   30.7720   41.5350 N   0  0  0  0  0  0  0  0  0  0  0  0
   37.7510   29.6680   42.0490 C   0  0  0  0  0  0  0  0  0  0  0  0
   38.1520   29.2300   43.2790 C   0  0  0  0  0  3  0  0  0  0  0  0
   37.6210   28.1020   43.8690 C   0  0  0  0  0  0  0  0  0  0  0  0
   37.9830   27.8190   44.8340 H   0  0  0  0  0  0  0  0  0  0  0  0
   36.6540   27.4300   43.1440 C   0  0  0  0  0  0  0  0  0  0  0  0
   36.2450   26.5470   43.6160 H   0  0  0  0  0  0  0  0  0  0  0  0
   36.2690   27.8890   41.9130 C   0  0  0  0  0  3  0  0  0  0  0  0
   36.7910   29.0100   41.3190 C   0  0  0  0  0  0  0  0  0  0  0  0
   31.6810   29.1240   36.4680 C   0  0  1  0  0  0  0  0  0  0  0  0
   32.2460   28.0090   35.6720 C   0  0  0  0  0  0  0  0  0  0  0  0
   33.1400   28.8510   36.4900 C   0  0  2  0  0  0  0  0  0  0  0  0
   31.0020   28.8130   37.2940 H   0  0  0  0  0  0  0  0  0  0  0  0
   32.3260   28.1160   34.5740 H   0  0  0  0  0  0  0  0  0  0  0  0
   32.0630   26.9480   35.9760 H   0  0  0  0  0  0  0  0  0  0  0  0
   33.7490   29.6350   35.9460 H   0  0  0  0  0  0  0  0  0  0  0  0
   31.1400   30.3700   34.3570 C   0  0  0  0  0  0  0  0  0  0  0  0
   31.1750   30.3170   35.7590 C   0  0  0  0  0  0  0  0  0  0  0  0
   30.6940   31.4390   36.4720 C   0  0  0  0  0  0  0  0  0  0  0  0
   30.2300   32.4960   35.7670 N   0  0  0  0  0  0  0  0  0  0  0  0
   30.2050   32.5230   34.4200 C   0  0  0  0  0  0  0  0  0  0  0  0
   30.6630   31.4540   33.6970 N   0  0  0  0  0  0  0  0  0  0  0  0
   31.5080   29.5100   33.8150 H   0  0  0  0  0  0  0  0  0  0  0  0
   30.7070   31.4330   37.5540 H   0  0  0  0  0  0  0  0  0  0  0  0
   29.8060   33.4340   33.9890 H   0  0  0  0  0  0  0  0  0  0  0  0
  1  2  1  6  0  0  0
  1  6  1  0  0  0  0
  2  8  1  0  0  0  0
  2  3  1  0  0  0  0
  3 10  1  0  0  0  0
  4  3  1  0  0  0  0
  4 11  1  0  0  0  0
  5  4  1  0  0  0  0
  5 13  1  0  0  0  0
  5  6  1  0  0  0  0
  6 15  1  6  0  0  0
  6 16  1  0  0  0  0
  7  2  1  0  0  0  0
  9  3  1  0  0  0  0
 12  4  1  0  0  0  0
 14  5  1  0  0  0  0
 16 17  1  0  0  0  0
 16 18  1  0  0  0  0
 18 29  1  0  0  0  0
 19 18  2  0  0  0  0
 19 20  1  0  0  0  0
 20 21  2  0  0  0  0
 21 22  1  0  0  0  0
 22 23  1  0  0  0  0
 23 24  2  0  0  0  0
 24 25  1  0  0  0  0
 26 27  1  0  0  0  0
 26 24  1  0  0  0  0
 28 26  2  0  0  0  0
 29 28  1  0  0  0  0
 29 22  2  0  0  0  0
 30 32  1  0  0  0  0
 30 33  1  1  0  0  0
 31 35  1  0  0  0  0
 31 30  1  0  0  0  0
 31 32  1  0  0  0  0
 32 36  1  6  0  0  0
 32  1  1  0  0  0  0
 34 31  1  0  0  0  0
 37 38  1  0  0  0  0
 38 30  1  0  0  0  0
 38 39  2  0  0  0  0
 39 44  1  0  0  0  0
 40 39  1  0  0  0  0
 41 40  2  0  0  0  0
 42 37  2  0  0  0  0
 42 41  1  0  0  0  0
 43 37  1  0  0  0  0
 45 41  1  0  0  0  0
M  END
>  <minimizedAffinity>
-6.07479525

$$$$

 OpenBabel03252506483D

 45 49  0  0  1  0  0  0  0  0999 V2000
   39.3870   28.9070   41.7570 N   0  0  1  0  0  0  0  0  0  0  0  0
   39.9780   28.3460   42.9450 C   0  0  0  0  0  0  0  0  0  0  0  0
   39.2620   27.1520   43.4990 C   0  0  0  0  0  0  0  0  0  0  0  0
   37.8930   27.5880   43.9780 C   0  0  0  0  0  0  0  0  0  0  0  0
   37.3250   28.6570   43.0920 C   0  0  0  0  0  0  0  0  0  0  0  0
   37.9790   28.5800   41.7360 C   0  0  2  0  0  0  0  0  0  0  0  0
   40.0110   29.1060   43.7550 H   0  0  0  0  0  0  0  0  0  0  0  0
   41.0290   28.1120   42.6950 H   0  0  0  0  0  0  0  0  0  0  0  0
   39.8840   26.8280   44.3880 H   0  0  0  0  0  0  0  0  0  0  0  0
   39.2360   26.2690   42.8580 H   0  0  0  0  0  0  0  0  0  0  0  0
   37.2130   26.7470   44.1570 H   0  0  0  0  0  0  0  0  0  0  0  0
   38.0660   28.0790   44.9760 H   0  0  0  0  0  0  0  0  0  0  0  0
   36.2400   28.5940   42.9530 H   0  0  0  0  0  0  0  0  0  0  0  0
   37.5270   29.6820   43.4790 H   0  0  0  0  0  0  0  0  0  0  0  0
   37.4870   29.3660   41.1230 H   0  0  0  0  0  0  0  0  0  0  0  0
   37.6790   27.3270   41.1010 N   0  0  0  0  0  0  0  0  0  0  0  0
   38.0670   26.5280   41.6380 H   0  0  0  0  0  0  0  0  0  0  0  0
   36.9750   27.1000   39.8960 C   0  0  0  0  0  0  0  0  0  0  0  0
   36.7140   28.0370   38.9770 N   0  0  0  0  0  0  0  0  0  0  0  0
   36.0690   27.8840   37.8350 C   0  0  0  0  0  3  0  0  0  0  0  0
   35.6090   26.6570   37.5310 N   0  0  0  0  0  0  0  0  0  0  0  0
   35.8080   25.6330   38.3720 C   0  0  0  0  0  0  0  0  0  0  0  0
   35.3310   24.3970   38.0400 C   0  0  0  0  0  3  0  0  0  0  0  0
   35.4990   23.2980   38.8570 C   0  0  0  0  0  0  0  0  0  0  0  0
   35.0990   22.3620   38.5330 H   0  0  0  0  0  0  0  0  0  0  0  0
   36.1810   23.5150   40.0410 C   0  0  0  0  0  0  0  0  0  0  0  0
   36.3070   22.6470   40.6730 H   0  0  0  0  0  0  0  0  0  0  0  0
   36.6500   24.7640   40.3500 C   0  0  0  0  0  3  0  0  0  0  0  0
   36.4870   25.8620   39.5440 C   0  0  0  0  0  0  0  0  0  0  0  0
   40.0300   31.0450   40.4810 C   0  0  1  0  0  0  0  0  0  0  0  0
   41.0770   30.6860   41.4660 C   0  0  0  0  0  0  0  0  0  0  0  0
   39.6770   30.2860   41.7080 C   0  0  2  0  0  0  0  0  0  0  0  0
   40.1360   30.5570   39.4860 H   0  0  0  0  0  0  0  0  0  0  0  0
   41.4930   31.4730   42.1240 H   0  0  0  0  0  0  0  0  0  0  0  0
   41.8370   29.9010   41.2230 H   0  0  0  0  0  0  0  0  0  0  0  0
   39.0900   30.8980   42.4570 H   0  0  0  0  0  0  0  0  0  0  0  0
   38.3020   32.8170   40.0610 C   0  0  0  0  0  0  0  0  0  0  0  0
   39.6260   32.4600   40.3600 C   0  0  0  0  0  0  0  0  0  0  0  0
   40.5590   33.5040   40.5590 C   0  0  0  0  0  0  0  0  0  0  0  0
   40.1260   34.7800   40.4490 N   0  0  0  0  0  0  0  0  0  0  0  0
   38.8480   35.0980   40.1620 C   0  0  0  0  0  0  0  0  0  0  0  0
   37.9180   34.1140   39.9630 N   0  0  0  0  0  0  0  0  0  0  0  0
   37.5900   32.0170   39.9100 H   0  0  0  0  0  0  0  0  0  0  0  0
   41.5890   33.2650   40.7900 H   0  0  0  0  0  0  0  0  0  0  0  0
   38.6430   36.1610   40.1060 H   0  0  0  0  0  0  0  0  0  0  0  0
  1  2  1  1  0  0  0
  2  3  1  0  0  0  0
  2  7  1  0  0  0  0
  3  4  1  0  0  0  0
  3  9  1  0  0  0  0
  4 11  1  0  0  0  0
  4 12  1  0  0  0  0
  5 14  1  0  0  0  0
  5  4  1  0  0  0  0
  6 15  1  6  0  0  0
  6  1  1  0  0  0  0
  6  5  1  0  0  0  0
  8  2  1  0  0  0  0
 10  3  1  0  0  0  0
 13  5  1  0  0  0  0
 16 17  1  0  0  0  0
 16  6  1  0  0  0  0
 18 16  1  0  0  0  0
 19 18  2  0  0  0  0
 20 19  1  0  0  0  0
 21 20  2  0  0  0  0
 21 22  1  0  0  0  0
 22 29  1  0  0  0  0
 23 22  2  0  0  0  0
 23 24  1  0  0  0  0
 24 26  2  0  0  0  0
 25 24  1  0  0  0  0
 26 28  1  0  0  0  0
 26 27  1  0  0  0  0
 29 18  1  0  0  0  0
 29 28  2  0  0  0  0
 30 33  1  6  0  0  0
 30 31  1  0  0  0  0
 30 32  1  0  0  0  0
 31 32  1  0  0  0  0
 31 34  1  0  0  0  0
 32  1  1  0  0  0  0
 32 36  1  1  0  0  0
 35 31  1  0  0  0  0
 37 38  1  0  0  0  0
 38 30  1  0  0  0  0
 38 39  2  0  0  0  0
 39 44  1  0  0  0  0
 40 39  1  0  0  0  0
 41 40  2  0  0  0  0
 42 37  2  0  0  0  0
 42 41  1  0  0  0  0
 43 37  1  0  0  0  0
 45 41  1  0  0  0  0
M  END
>  <minimizedAffinity>
-5.99977684

$$$$

 OpenBabel03252506483D

 45 49  0  0  1  0  0  0  0  0999 V2000
   37.4180   29.6210   40.8590 N   0  0  1  0  0  0  0  0  0  0  0  0
   37.2160   29.1240   42.1950 C   0  0  0  0  0  0  0  0  0  0  0  0
   38.4410   29.1290   43.0590 C   0  0  0  0  0  0  0  0  0  0  0  0
   39.4420   28.1500   42.4840 C   0  0  0  0  0  0  0  0  0  0  0  0
   39.3890   28.1400   40.9850 C   0  0  0  0  0  0  0  0  0  0  0  0
   38.8060   29.4430   40.4980 C   0  0  2  0  0  0  0  0  0  0  0  0
   36.8480   28.0760   42.1650 H   0  0  0  0  0  0  0  0  0  0  0  0
   36.4020   29.7270   42.6370 H   0  0  0  0  0  0  0  0  0  0  0  0
   38.0850   28.7530   44.0670 H   0  0  0  0  0  0  0  0  0  0  0  0
   38.8680   30.1090   43.2780 H   0  0  0  0  0  0  0  0  0  0  0  0
   40.4510   28.2770   42.8960 H   0  0  0  0  0  0  0  0  0  0  0  0
   39.0890   27.1310   42.8080 H   0  0  0  0  0  0  0  0  0  0  0  0
   40.3630   27.9990   40.5030 H   0  0  0  0  0  0  0  0  0  0  0  0
   38.7290   27.3350   40.5880 H   0  0  0  0  0  0  0  0  0  0  0  0
   38.8330   29.3840   39.3880 H   0  0  0  0  0  0  0  0  0  0  0  0
   39.6540   30.5430   40.8650 N   0  0  0  0  0  0  0  0  0  0  0  0
   40.4910   30.2180   41.3850 H   0  0  0  0  0  0  0  0  0  0  0  0
   39.4580   31.9210   40.6190 C   0  0  0  0  0  0  0  0  0  0  0  0
   38.2960   32.4730   40.2520 N   0  0  0  0  0  0  0  0  0  0  0  0
   38.0530   33.7490   40.0150 C   0  0  0  0  0  3  0  0  0  0  0  0
   39.0690   34.6200   40.1500 N   0  0  0  0  0  0  0  0  0  0  0  0
   40.2850   34.1890   40.5130 C   0  0  0  0  0  0  0  0  0  0  0  0
   41.3000   35.0940   40.6420 C   0  0  0  0  0  3  0  0  0  0  0  0
   42.5750   34.7210   41.0130 C   0  0  0  0  0  0  0  0  0  0  0  0
   43.3200   35.4830   41.0940 H   0  0  0  0  0  0  0  0  0  0  0  0
   42.7750   33.3730   41.2480 C   0  0  0  0  0  0  0  0  0  0  0  0
   43.7780   33.0920   41.5380 H   0  0  0  0  0  0  0  0  0  0  0  0
   41.7400   32.4860   41.1120 C   0  0  0  0  0  3  0  0  0  0  0  0
   40.4690   32.8470   40.7440 C   0  0  0  0  0  0  0  0  0  0  0  0
   35.5550   29.7100   39.0890 C   0  0  1  0  0  0  0  0  0  0  0  0
   35.0630   29.0860   40.3400 C   0  0  0  0  0  0  0  0  0  0  0  0
   36.4950   29.0010   39.9930 C   0  0  2  0  0  0  0  0  0  0  0  0
   35.4780   30.8200   39.0590 H   0  0  0  0  0  0  0  0  0  0  0  0
   34.4780   28.1480   40.2820 H   0  0  0  0  0  0  0  0  0  0  0  0
   34.7450   29.7230   41.2030 H   0  0  0  0  0  0  0  0  0  0  0  0
   36.8640   28.0180   39.5700 H   0  0  0  0  0  0  0  0  0  0  0  0
   34.0050   28.3520   37.6560 C   0  0  0  0  0  0  0  0  0  0  0  0
   35.1850   29.0970   37.7970 C   0  0  0  0  0  0  0  0  0  0  0  0
   36.0030   29.2570   36.6550 C   0  0  0  0  0  0  0  0  0  0  0  0
   35.6040   28.6850   35.4960 N   0  0  0  0  0  0  0  0  0  0  0  0
   34.4660   27.9730   35.3850 C   0  0  0  0  0  0  0  0  0  0  0  0
   33.6500   27.7980   36.4710 N   0  0  0  0  0  0  0  0  0  0  0  0
   33.3820   28.2310   38.5310 H   0  0  0  0  0  0  0  0  0  0  0  0
   36.9210   29.8260   36.7280 H   0  0  0  0  0  0  0  0  0  0  0  0
   34.2720   27.5730   34.3970 H   0  0  0  0  0  0  0  0  0  0  0  0
  1  2  1  1  0  0  0
  2  8  1  0  0  0  0
  2  3  1  0  0  0  0
  3 10  1  0  0  0  0
  3  9  1  0  0  0  0
  4 12  1  0  0  0  0
  4 11  1  0  0  0  0
  4  3  1  0  0  0  0
  5  4  1  0  0  0  0
  6 15  1  6  0  0  0
  6  1  1  0  0  0  0
  6 16  1  0  0  0  0
  6  5  1  0  0  0  0
  7  2  1  0  0  0  0
 13  5  1  0  0  0  0
 14  5  1  0  0  0  0
 16 17  1  0  0  0  0
 18 29  1  0  0  0  0
 18 16  1  0  0  0  0
 19 18  2  0  0  0  0
 20 21  2  0  0  0  0
 20 19  1  0  0  0  0
 21 22  1  0  0  0  0
 22 23  2  0  0  0  0
 22 29  1  0  0  0  0
 23 24  1  0  0  0  0
 24 25  1  0  0  0  0
 24 26  2  0  0  0  0
 26 27  1  0  0  0  0
 28 26  1  0  0  0  0
 29 28  2  0  0  0  0
 30 33  1  1  0  0  0
 30 32  1  0  0  0  0
 30 31  1  0  0  0  0
 31 35  1  0  0  0  0
 32 36  1  6  0  0  0
 32 31  1  0  0  0  0
 32  1  1  0  0  0  0
 34 31  1  0  0  0  0
 37 38  1  0  0  0  0
 37 43  1  0  0  0  0
 38 30  1  0  0  0  0
 39 44  1  0  0  0  0
 39 38  2  0  0  0  0
 40 39  1  0  0  0  0
 41 40  2  0  0  0  0
 41 42  1  0  0  0  0
 42 37  2  0  0  0  0
 45 41  1  0  0  0  0
M  END
>  <minimizedAffinity>
-5.85966063

$$$$

 OpenBabel03252506483D

 45 49  0  0  1  0  0  0  0  0999 V2000
   37.1940   28.8200   41.4390 N   0  0  1  0  0  0  0  0  0  0  0  0
   36.7700   30.1040   41.9350 C   0  0  0  0  0  0  0  0  0  0  0  0
   36.1990   31.0210   40.8960 C   0  0  0  0  0  0  0  0  0  0  0  0
   37.2950   31.3840   39.9170 C   0  0  0  0  0  0  0  0  0  0  0  0
   38.2260   30.2300   39.6940 C   0  0  0  0  0  0  0  0  0  0  0  0
   37.5160   28.9440   40.0350 C   0  0  2  0  0  0  0  0  0  0  0  0
   37.6260   30.6390   42.4010 H   0  0  0  0  0  0  0  0  0  0  0  0
   36.0470   29.9060   42.7470 H   0  0  0  0  0  0  0  0  0  0  0  0
   35.8860   31.9470   41.4690 H   0  0  0  0  0  0  0  0  0  0  0  0
   35.2800   30.6850   40.4140 H   0  0  0  0  0  0  0  0  0  0  0  0
   36.9120   31.8350   38.9930 H   0  0  0  0  0  0  0  0  0  0  0  0
   37.9080   32.1760   40.4300 H   0  0  0  0  0  0  0  0  0  0  0  0
   38.6050   30.1500   38.6690 H   0  0  0  0  0  0  0  0  0  0  0  0
   39.1240   30.2750   40.3520 H   0  0  0  0  0  0  0  0  0  0  0  0
   38.2440   28.1340   39.8110 H   0  0  0  0  0  0  0  0  0  0  0  0
   36.3990   28.7360   39.1570 N   0  0  0  0  0  0  0  0  0  0  0  0
   35.5140   28.6330   39.6890 H   0  0  0  0  0  0  0  0  0  0  0  0
   36.3960   28.6460   37.7470 C   0  0  0  0  0  0  0  0  0  0  0  0
   37.4840   28.4460   36.9930 N   0  0  0  0  0  0  0  0  0  0  0  0
   37.5420   28.3480   35.6770 C   0  0  0  0  0  3  0  0  0  0  0  0
   36.3930   28.4550   34.9860 N   0  0  0  0  0  0  0  0  0  0  0  0
   35.2340   28.6560   35.6280 C   0  0  0  0  0  0  0  0  0  0  0  0
   34.0810   28.7620   34.9030 C   0  0  0  0  0  3  0  0  0  0  0  0
   32.8540   28.9690   35.4970 C   0  0  0  0  0  0  0  0  0  0  0  0
   31.9940   29.0410   34.8670 H   0  0  0  0  0  0  0  0  0  0  0  0
   32.8500   29.0650   36.8770 C   0  0  0  0  0  0  0  0  0  0  0  0
   31.8830   29.2270   37.3320 H   0  0  0  0  0  0  0  0  0  0  0  0
   34.0200   28.9550   37.5810 C   0  0  0  0  0  3  0  0  0  0  0  0
   35.2450   28.7500   36.9990 C   0  0  0  0  0  0  0  0  0  0  0  0
   38.3970   26.9350   42.7080 C   0  0  1  0  0  0  0  0  0  0  0  0
   37.9250   27.9810   43.6450 C   0  0  0  0  0  0  0  0  0  0  0  0
   38.2430   28.3380   42.2490 C   0  0  2  0  0  0  0  0  0  0  0  0
   37.6500   26.1440   42.4740 H   0  0  0  0  0  0  0  0  0  0  0  0
   38.6130   28.3570   44.4260 H   0  0  0  0  0  0  0  0  0  0  0  0
   36.8590   27.9960   43.9850 H   0  0  0  0  0  0  0  0  0  0  0  0
   39.2310   28.8580   42.0630 H   0  0  0  0  0  0  0  0  0  0  0  0
   40.3400   25.5530   41.9210 C   0  0  0  0  0  0  0  0  0  0  0  0
   39.7510   26.3750   42.8940 C   0  0  0  0  0  0  0  0  0  0  0  0
   40.5060   26.6640   44.0540 C   0  0  0  0  0  0  0  0  0  0  0  0
   41.7450   26.1340   44.1610 N   0  0  0  0  0  0  0  0  0  0  0  0
   42.2900   25.3480   43.2120 C   0  0  0  0  0  0  0  0  0  0  0  0
   41.5890   25.0480   42.0750 N   0  0  0  0  0  0  0  0  0  0  0  0
   39.7610   25.3340   41.0340 H   0  0  0  0  0  0  0  0  0  0  0  0
   40.0820   27.2940   44.8260 H   0  0  0  0  0  0  0  0  0  0  0  0
   43.2910   24.9950   43.4300 H   0  0  0  0  0  0  0  0  0  0  0  0
  1  2  1  1  0  0  0
  1 32  1  0  0  0  0
  2  7  1  0  0  0  0
  2  8  1  0  0  0  0
  3  9  1  0  0  0  0
  3  2  1  0  0  0  0
  4 12  1  0  0  0  0
  4  3  1  0  0  0  0
  5  4  1  0  0  0  0
  5  6  1  0  0  0  0
  5 14  1  0  0  0  0
  6 15  1  6  0  0  0
  6  1  1  0  0  0  0
 10  3  1  0  0  0  0
 11  4  1  0  0  0  0
 13  5  1  0  0  0  0
 16 17  1  0  0  0  0
 16  6  1  0  0  0  0
 18 16  1  0  0  0  0
 19 18  2  0  0  0  0
 20 19  1  0  0  0  0
 21 22  1  0  0  0  0
 21 20  2  0  0  0  0
 22 29  1  0  0  0  0
 23 24  1  0  0  0  0
 23 22  2  0  0  0  0
 24 26  2  0  0  0  0
 25 24  1  0  0  0  0
 26 27  1  0  0  0  0
 26 28  1  0  0  0  0
 29 28  2  0  0  0  0
 29 18  1  0  0  0  0
 30 33  1  6  0  0  0
 30 38  1  0  0  0  0
 30 31  1  0  0  0  0
 31 35  1  0  0  0  0
 31 34  1  0  0  0  0
 32 36  1  6  0  0  0
 32 30  1  0  0  0  0
 32 31  1  0  0  0  0
 37 42  2  0  0  0  0
 37 38  1  0  0  0  0
 38 39  2  0  0  0  0
 39 40  1  0  0  0  0
 39 44  1  0  0  0  0
 41 45  1  0  0  0  0
 41 40  2  0  0  0  0
 42 41  1  0  0  0  0
 43 37  1  0  0  0  0
M  END
>  <minimizedAffinity>
-5.856534

$$$$

 OpenBabel03252506483D

 45 49  0  0  1  0  0  0  0  0999 V2000
   36.8960   29.5890   38.4650 N   0  0  1  0  0  0  0  0  0  0  0  0
   37.1210   30.9710   38.8060 C   0  0  0  0  0  0  0  0  0  0  0  0
   37.4860   31.2130   40.2390 C   0  0  0  0  0  0  0  0  0  0  0  0
   36.3040   30.8410   41.1080 C   0  0  0  0  0  0  0  0  0  0  0  0
   35.5690   29.6600   40.5470 C   0  0  0  0  0  0  0  0  0  0  0  0
   36.4970   28.8730   39.6560 C   0  0  2  0  0  0  0  0  0  0  0  0
   36.2090   31.5720   38.6000 H   0  0  0  0  0  0  0  0  0  0  0  0
   37.9010   31.3420   38.1170 H   0  0  0  0  0  0  0  0  0  0  0  0
   37.6650   32.3290   40.3060 H   0  0  0  0  0  0  0  0  0  0  0  0
   38.4270   30.7730   40.5740 H   0  0  0  0  0  0  0  0  0  0  0  0
   36.5660   30.7430   42.1690 H   0  0  0  0  0  0  0  0  0  0  0  0
   35.5900   31.7080   41.0340 H   0  0  0  0  0  0  0  0  0  0  0  0
   35.1650   28.9810   41.3060 H   0  0  0  0  0  0  0  0  0  0  0  0
   34.7060   29.9600   39.9100 H   0  0  0  0  0  0  0  0  0  0  0  0
   35.9060   27.9990   39.3090 H   0  0  0  0  0  0  0  0  0  0  0  0
   37.5950   28.3420   40.4160 N   0  0  0  0  0  0  0  0  0  0  0  0
   38.3700   29.0280   40.4900 H   0  0  0  0  0  0  0  0  0  0  0  0
   37.7150   27.0640   41.0070 C   0  0  0  0  0  0  0  0  0  0  0  0
   36.9420   26.0120   40.7150 N   0  0  0  0  0  0  0  0  0  0  0  0
   37.0110   24.7970   41.2290 C   0  0  0  0  0  3  0  0  0  0  0  0
   37.9570   24.5570   42.1540 N   0  0  0  0  0  0  0  0  0  0  0  0
   38.7960   25.5320   42.5320 C   0  0  0  0  0  0  0  0  0  0  0  0
   39.7480   25.2620   43.4730 C   0  0  0  0  0  3  0  0  0  0  0  0
   40.6440   26.2170   43.9090 C   0  0  0  0  0  0  0  0  0  0  0  0
   41.3620   25.9350   44.6490 H   0  0  0  0  0  0  0  0  0  0  0  0
   40.5270   27.4720   43.3390 C   0  0  0  0  0  0  0  0  0  0  0  0
   41.2330   28.2110   43.6880 H   0  0  0  0  0  0  0  0  0  0  0  0
   39.5640   27.7160   42.3970 C   0  0  0  0  0  3  0  0  0  0  0  0
   38.6690   26.7730   41.9570 C   0  0  0  0  0  0  0  0  0  0  0  0
   34.9830   28.4410   37.1870 C   0  0  1  0  0  0  0  0  0  0  0  0
   36.2080   28.5040   36.3550 C   0  0  0  0  0  0  0  0  0  0  0  0
   35.9780   29.5230   37.3980 C   0  0  2  0  0  0  0  0  0  0  0  0
   34.9150   27.5530   37.8550 H   0  0  0  0  0  0  0  0  0  0  0  0
   36.1300   28.8390   35.3030 H   0  0  0  0  0  0  0  0  0  0  0  0
   37.0250   27.7520   36.4950 H   0  0  0  0  0  0  0  0  0  0  0  0
   35.6130   30.5380   37.0530 H   0  0  0  0  0  0  0  0  0  0  0  0
   32.5830   29.1640   37.3320 C   0  0  0  0  0  0  0  0  0  0  0  0
   33.6840   28.7600   36.5610 C   0  0  0  0  0  0  0  0  0  0  0  0
   33.5120   28.6830   35.1590 C   0  0  0  0  0  0  0  0  0  0  0  0
   32.3030   29.0010   34.6430 N   0  0  0  0  0  0  0  0  0  0  0  0
   31.2610   29.3880   35.4040 C   0  0  0  0  0  0  0  0  0  0  0  0
   31.3910   29.4730   36.7650 N   0  0  0  0  0  0  0  0  0  0  0  0
   32.7170   29.2220   38.4030 H   0  0  0  0  0  0  0  0  0  0  0  0
   34.3400   28.3740   34.5340 H   0  0  0  0  0  0  0  0  0  0  0  0
   30.3540   29.6130   34.8560 H   0  0  0  0  0  0  0  0  0  0  0  0
  1  2  1  1  0  0  0
  1  6  1  0  0  0  0
  2  3  1  0  0  0  0
  3  9  1  0  0  0  0
  3 10  1  0  0  0  0
  3  4  1  0  0  0  0
  4 11  1  0  0  0  0
  5  4  1  0  0  0  0
  5 13  1  0  0  0  0
  6 15  1  6  0  0  0
  6 16  1  0  0  0  0
  6  5  1  0  0  0  0
  7  2  1  0  0  0  0
  8  2  1  0  0  0  0
 12  4  1  0  0  0  0
 14  5  1  0  0  0  0
 16 17  1  0  0  0  0
 16 18  1  0  0  0  0
 18 29  1  0  0  0  0
 19 18  2  0  0  0  0
 19 20  1  0  0  0  0
 20 21  2  0  0  0  0
 21 22  1  0  0  0  0
 22 23  1  0  0  0  0
 23 24  2  0  0  0  0
 24 25  1  0  0  0  0
 26 27  1  0  0  0  0
 26 24  1  0  0  0  0
 28 26  2  0  0  0  0
 29 28  1  0  0  0  0
 29 22  2  0  0  0  0
 30 32  1  0  0  0  0
 30 33  1  1  0  0  0
 31 35  1  0  0  0  0
 31 30  1  0  0  0  0
 31 32  1  0  0  0  0
 32 36  1  6  0  0  0
 32  1  1  0  0  0  0
 34 31  1  0  0  0  0
 37 43  1  0  0  0  0
 38 30  1  0  0  0  0
 38 37  2  0  0  0  0
 39 38  1  0  0  0  0
 40 39  2  0  0  0  0
 40 41  1  0  0  0  0
 41 42  2  0  0  0  0
 42 37  1  0  0  0  0
 44 39  1  0  0  0  0
 45 41  1  0  0  0  0
M  END
>  <minimizedAffinity>
-5.85250235

$$$$

 OpenBabel03252506483D

 45 49  0  0  1  0  0  0  0  0999 V2000
   37.6760   30.7710   38.9120 N   0  0  1  0  0  0  0  0  0  0  0  0
   36.8470   30.9740   37.7520 C   0  0  0  0  0  0  0  0  0  0  0  0
   36.4900   29.7230   37.0090 C   0  0  0  0  0  0  0  0  0  0  0  0
   37.7540   29.1340   36.4190 C   0  0  0  0  0  0  0  0  0  0  0  0
   38.9250   29.3440   37.3310 C   0  0  0  0  0  0  0  0  0  0  0  0
   38.4300   29.5500   38.7400 C   0  0  2  0  0  0  0  0  0  0  0  0
   37.3550   31.6460   37.0270 H   0  0  0  0  0  0  0  0  0  0  0  0
   35.9470   31.5140   38.0980 H   0  0  0  0  0  0  0  0  0  0  0  0
   35.8110   30.0690   36.1710 H   0  0  0  0  0  0  0  0  0  0  0  0
   35.8860   28.9960   37.5550 H   0  0  0  0  0  0  0  0  0  0  0  0
   37.6270   28.0980   36.0830 H   0  0  0  0  0  0  0  0  0  0  0  0
   37.9700   29.7450   35.4980 H   0  0  0  0  0  0  0  0  0  0  0  0
   39.6420   28.5160   37.3380 H   0  0  0  0  0  0  0  0  0  0  0  0
   39.5100   30.2560   37.0700 H   0  0  0  0  0  0  0  0  0  0  0  0
   39.3430   29.6580   39.3640 H   0  0  0  0  0  0  0  0  0  0  0  0
   37.7550   28.3730   39.2140 N   0  0  0  0  0  0  0  0  0  0  0  0
   37.1270   27.9790   38.4870 H   0  0  0  0  0  0  0  0  0  0  0  0
   37.8450   27.7620   40.4850 C   0  0  0  0  0  0  0  0  0  0  0  0
   38.3570   28.3430   41.5770 N   0  0  0  0  0  0  0  0  0  0  0  0
   38.4620   27.8250   42.7870 C   0  0  0  0  0  3  0  0  0  0  0  0
   38.0110   26.5730   42.9780 N   0  0  0  0  0  0  0  0  0  0  0  0
   37.4740   25.8850   41.9610 C   0  0  0  0  0  0  0  0  0  0  0  0
   37.0230   24.6150   42.1820 C   0  0  0  0  0  3  0  0  0  0  0  0
   36.4600   23.8500   41.1820 C   0  0  0  0  0  0  0  0  0  0  0  0
   36.1280   22.8640   41.4270 H   0  0  0  0  0  0  0  0  0  0  0  0
   36.3750   24.4390   39.9340 C   0  0  0  0  0  0  0  0  0  0  0  0
   35.9320   23.8300   39.1580 H   0  0  0  0  0  0  0  0  0  0  0  0
   36.8340   25.7150   39.7390 C   0  0  0  0  0  3  0  0  0  0  0  0
   37.3960   26.4830   40.7270 C   0  0  0  0  0  0  0  0  0  0  0  0
   38.8410   32.4680   40.4540 C   0  0  1  0  0  0  0  0  0  0  0  0
   37.7800   33.1250   39.6540 C   0  0  0  0  0  0  0  0  0  0  0  0
   38.4570   31.9250   39.1260 C   0  0  2  0  0  0  0  0  0  0  0  0
   38.4940   32.0130   41.4080 H   0  0  0  0  0  0  0  0  0  0  0  0
   38.0000   34.0860   39.1500 H   0  0  0  0  0  0  0  0  0  0  0  0
   36.7090   33.0550   39.9700 H   0  0  0  0  0  0  0  0  0  0  0  0
   39.2480   32.0880   38.3320 H   0  0  0  0  0  0  0  0  0  0  0  0
   41.2780   32.4670   41.0550 C   0  0  0  0  0  0  0  0  0  0  0  0
   40.1380   33.1550   40.6110 C   0  0  0  0  0  0  0  0  0  0  0  0
   40.2770   34.5280   40.3040 C   0  0  0  0  0  0  0  0  0  0  0  0
   41.4950   35.0990   40.4540 N   0  0  0  0  0  0  0  0  0  0  0  0
   42.5750   34.4170   40.8810 C   0  0  0  0  0  0  0  0  0  0  0  0
   42.4770   33.0860   41.1880 N   0  0  0  0  0  0  0  0  0  0  0  0
   41.1680   31.4170   41.2900 H   0  0  0  0  0  0  0  0  0  0  0  0
   39.4190   35.0900   39.9590 H   0  0  0  0  0  0  0  0  0  0  0  0
   43.4850   35.0010   40.9530 H   0  0  0  0  0  0  0  0  0  0  0  0
  1  2  1  6  0  0  0
  1 32  1  0  0  0  0
  2  8  1  0  0  0  0
  3 10  1  0  0  0  0
  3  2  1  0  0  0  0
  4  3  1  0  0  0  0
  4  5  1  0  0  0  0
  5 13  1  0  0  0  0
  5  6  1  0  0  0  0
  6  1  1  0  0  0  0
  6 16  1  0  0  0  0
  6 15  1  1  0  0  0
  7  2  1  0  0  0  0
  9  3  1  0  0  0  0
 11  4  1  0  0  0  0
 12  4  1  0  0  0  0
 14  5  1  0  0  0  0
 16 18  1  0  0  0  0
 17 16  1  0  0  0  0
 18 29  2  0  0  0  0
 18 19  1  0  0  0  0
 19 20  2  0  0  0  0
 20 21  1  0  0  0  0
 22 23  1  0  0  0  0
 22 21  2  0  0  0  0
 24 25  1  0  0  0  0
 24 23  2  0  0  0  0
 26 24  1  0  0  0  0
 27 26  1  0  0  0  0
 28 26  2  0  0  0  0
 28 29  1  0  0  0  0
 29 22  1  0  0  0  0
 30 38  1  0  0  0  0
 30 33  1  1  0  0  0
 31 35  1  0  0  0  0
 31 30  1  0  0  0  0
 32 36  1  6  0  0  0
 32 31  1  0  0  0  0
 32 30  1  0  0  0  0
 34 31  1  0  0  0  0
 37 42  1  0  0  0  0
 37 43  1  0  0  0  0
 38 37  2  0  0  0  0
 39 40  2  0  0  0  0
 39 38  1  0  0  0  0
 40 41  1  0  0  0  0
 41 45  1  0  0  0  0
 41 42  2  0  0  0  0
 44 39  1  0  0  0  0
M  END
>  <minimizedAffinity>
-5.84269619

$$$$

 OpenBabel03252506483D

 45 49  0  0  1  0  0  0  0  0999 V2000
   39.2490   31.0880   37.9220 N   0  0  1  0  0  0  0  0  0  0  0  0
   38.1300   31.5310   37.1300 C   0  0  0  0  0  0  0  0  0  0  0  0
   36.9190   30.6520   37.2080 C   0  0  0  0  0  0  0  0  0  0  0  0
   37.2550   29.3090   36.5950 C   0  0  0  0  0  0  0  0  0  0  0  0
   38.6750   28.9240   36.8820 C   0  0  0  0  0  0  0  0  0  0  0  0
   39.1530   29.6580   38.1090 C   0  0  2  0  0  0  0  0  0  0  0  0
   38.4160   31.5900   36.0580 H   0  0  0  0  0  0  0  0  0  0  0  0
   37.9060   32.5640   37.4500 H   0  0  0  0  0  0  0  0  0  0  0  0
   36.1420   31.1730   36.5690 H   0  0  0  0  0  0  0  0  0  0  0  0
   36.4460   30.5740   38.1890 H   0  0  0  0  0  0  0  0  0  0  0  0
   36.5210   28.5310   36.8380 H   0  0  0  0  0  0  0  0  0  0  0  0
   37.2000   29.4640   35.4810 H   0  0  0  0  0  0  0  0  0  0  0  0
   38.8240   27.8510   37.0450 H   0  0  0  0  0  0  0  0  0  0  0  0
   39.3680   29.2090   36.0570 H   0  0  0  0  0  0  0  0  0  0  0  0
   40.1900   29.2980   38.2860 H   0  0  0  0  0  0  0  0  0  0  0  0
   38.3880   29.2670   39.2610 N   0  0  0  0  0  0  0  0  0  0  0  0
   37.5550   28.7110   38.9900 H   0  0  0  0  0  0  0  0  0  0  0  0
   38.6360   29.5640   40.6200 C   0  0  0  0  0  0  0  0  0  0  0  0
   39.4730   30.5140   41.0540 N   0  0  0  0  0  0  0  0  0  0  0  0
   39.7390   30.8380   42.3060 C   0  0  0  0  0  3  0  0  0  0  0  0
   39.1120   30.1570   43.2810 N   0  0  0  0  0  0  0  0  0  0  0  0
   38.2470   29.1790   42.9740 C   0  0  0  0  0  0  0  0  0  0  0  0
   37.6240   28.5010   43.9820 C   0  0  0  0  0  3  0  0  0  0  0  0
   36.7230   27.4850   43.7400 C   0  0  0  0  0  0  0  0  0  0  0  0
   36.2730   26.9990   44.5790 H   0  0  0  0  0  0  0  0  0  0  0  0
   36.4820   27.1850   42.4110 C   0  0  0  0  0  0  0  0  0  0  0  0
   35.7740   26.3870   42.2330 H   0  0  0  0  0  0  0  0  0  0  0  0
   37.1200   27.8800   41.4190 C   0  0  0  0  0  3  0  0  0  0  0  0
   38.0170   28.8920   41.6500 C   0  0  0  0  0  0  0  0  0  0  0  0
   41.7940   31.4540   37.9270 C   0  0  1  0  0  0  0  0  0  0  0  0
   41.0770   32.7490   37.8540 C   0  0  0  0  0  0  0  0  0  0  0  0
   40.4430   31.5300   37.3160 C   0  0  2  0  0  0  0  0  0  0  0  0
   41.9630   31.0700   38.9580 H   0  0  0  0  0  0  0  0  0  0  0  0
   41.4050   33.5070   37.1180 H   0  0  0  0  0  0  0  0  0  0  0  0
   40.6620   33.2180   38.7810 H   0  0  0  0  0  0  0  0  0  0  0  0
   40.4540   31.3970   36.1920 H   0  0  0  0  0  0  0  0  0  0  0  0
   44.1480   31.9910   37.2420 C   0  0  0  0  0  0  0  0  0  0  0  0
   42.9730   31.2460   37.0620 C   0  0  0  0  0  0  0  0  0  0  0  0
   42.9590   30.2760   36.0330 C   0  0  0  0  0  0  0  0  0  0  0  0
   44.0750   30.1220   35.2840 N   0  0  0  0  0  0  0  0  0  0  0  0
   45.1930   30.8490   35.4760 C   0  0  0  0  0  0  0  0  0  0  0  0
   45.2410   31.7970   36.4630 N   0  0  0  0  0  0  0  0  0  0  0  0
   44.1560   32.7320   38.0300 H   0  0  0  0  0  0  0  0  0  0  0  0
   42.0690   29.6840   35.8660 H   0  0  0  0  0  0  0  0  0  0  0  0
   46.0090   30.6180   34.8020 H   0  0  0  0  0  0  0  0  0  0  0  0
  1  2  1  6  0  0  0
  1  6  1  0  0  0  0
  2  3  1  0  0  0  0
  2  8  1  0  0  0  0
  3 10  1  0  0  0  0
  4 11  1  0  0  0  0
  4  5  1  0  0  0  0
  4  3  1  0  0  0  0
  5 13  1  0  0  0  0
  5  6  1  0  0  0  0
  6 15  1  1  0  0  0
  6 16  1  0  0  0  0
  7  2  1  0  0  0  0
  9  3  1  0  0  0  0
 12  4  1  0  0  0  0
 14  5  1  0  0  0  0
 16 18  1  0  0  0  0
 17 16  1  0  0  0  0
 18 19  2  0  0  0  0
 18 29  1  0  0  0  0
 19 20  1  0  0  0  0
 20 21  2  0  0  0  0
 22 21  1  0  0  0  0
 22 23  1  0  0  0  0
 24 23  2  0  0  0  0
 24 25  1  0  0  0  0
 26 24  1  0  0  0  0
 27 26  1  0  0  0  0
 28 29  1  0  0  0  0
 28 26  2  0  0  0  0
 29 22  2  0  0  0  0
 30 33  1  1  0  0  0
 31 30  1  0  0  0  0
 31 35  1  0  0  0  0
 32 36  1  6  0  0  0
 32 31  1  0  0  0  0
 32  1  1  0  0  0  0
 32 30  1  0  0  0  0
 34 31  1  0  0  0  0
 37 43  1  0  0  0  0
 38 37  1  0  0  0  0
 38 30  1  0  0  0  0
 39 38  2  0  0  0  0
 40 41  2  0  0  0  0
 40 39  1  0  0  0  0
 41 42  1  0  0  0  0
 42 37  2  0  0  0  0
 44 39  1  0  0  0  0
 45 41  1  0  0  0  0
M  END
>  <minimizedAffinity>
-5.8002696

$$$$
