
 OpenBabel03252501493D

 36 39  0  0  0  0  0  0  0  0999 V2000
   31.9360   29.5920   37.3460 C   0  0  0  0  0  0  0  0  0  0  0  0
   33.2320   29.0760   37.0810 C   0  0  0  0  0  0  0  0  0  0  0  0
   33.7300   29.1180   35.7750 C   0  0  0  0  0  0  0  0  0  0  0  0
   32.9310   29.6600   34.8120 N   0  0  0  0  0  0  0  0  0  0  0  0
   31.7180   30.1370   35.0920 C   0  0  0  0  0  0  0  0  0  0  0  0
   31.2450   30.0970   36.3350 N   0  0  0  0  0  0  0  0  0  0  0  0
   31.5720   29.5490   38.3700 H   0  0  0  0  0  0  0  0  0  0  0  0
   34.7130   28.7260   35.5790 H   0  0  0  0  0  0  0  0  0  0  0  0
   31.3100   32.8710   34.8660 F   0  0  0  0  0  0  0  0  0  0  0  0
   30.7310   32.0730   33.9240 C   0  0  0  0  0  0  0  0  0  0  0  0
   30.9190   30.6990   34.0150 C   0  0  0  0  0  0  0  0  0  0  0  0
   30.3580   29.8370   33.0900 C   0  0  0  0  0  0  0  0  0  0  0  0
   29.5950   30.3960   32.0640 C   0  0  0  0  0  0  0  0  0  0  0  0
   29.4000   31.7720   31.9650 C   0  0  0  0  0  0  0  0  0  0  0  0
   29.9820   32.6290   32.9160 C   0  0  0  0  0  0  0  0  0  0  0  0
   30.4800   28.7640   33.1270 H   0  0  0  0  0  0  0  0  0  0  0  0
   29.1370   29.7520   31.3190 H   0  0  0  0  0  0  0  0  0  0  0  0
   28.8070   32.2110   31.1660 H   0  0  0  0  0  0  0  0  0  0  0  0
   29.8660   33.7040   32.8900 H   0  0  0  0  0  0  0  0  0  0  0  0
   34.0770   28.4960   38.1420 C   0  0  0  0  0  3  0  0  0  0  0  0
   35.2780   27.9690   37.8890 C   0  0  0  0  0  3  0  0  0  0  0  0
   36.1030   27.3890   39.0010 C   0  0  0  0  0  0  0  0  0  0  0  0
   35.4750   26.7870   39.6880 H   0  0  0  0  0  0  0  0  0  0  0  0
   36.8450   26.6650   38.5890 H   0  0  0  0  0  0  0  0  0  0  0  0
   36.8360   28.3930   39.7750 C   0  0  0  0  0  0  0  0  0  0  0  0
   37.3640   29.4920   39.1570 N   0  0  0  0  0  0  0  0  0  0  0  0
   38.0410   30.4440   39.8260 C   0  0  0  0  0  3  0  0  0  0  0  0
   38.2640   30.4010   41.1710 N   0  0  0  0  0  0  0  0  0  0  0  0
   37.7590   29.3310   41.8120 C   0  0  0  0  0  0  0  0  0  0  0  0
   37.9740   29.2630   43.1830 C   0  0  0  0  0  3  0  0  0  0  0  0
   37.4790   28.1870   43.8910 C   0  0  0  0  0  0  0  0  0  0  0  0
   37.6700   28.1740   44.9550 H   0  0  0  0  0  0  0  0  0  0  0  0
   36.7880   27.2230   43.1910 C   0  0  0  0  0  0  0  0  0  0  0  0
   36.4260   26.4050   43.8060 H   0  0  0  0  0  0  0  0  0  0  0  0
   36.5580   27.2550   41.8430 C   0  0  0  0  0  3  0  0  0  0  0  0
   37.0630   28.3510   41.1350 C   0  0  0  0  0  0  0  0  0  0  0  0
  1  7  1  0  0  0  0
  2  1  1  0  0  0  0
  2 20  1  0  0  0  0
  3  2  2  0  0  0  0
  4  5  2  0  0  0  0
  4  3  1  0  0  0  0
  5  6  1  0  0  0  0
  6  1  2  0  0  0  0
  8  3  1  0  0  0  0
 10 11  1  0  0  0  0
 10  9  1  0  0  0  0
 11  5  1  0  0  0  0
 12 16  1  0  0  0  0
 12 11  2  0  0  0  0
 13 12  1  0  0  0  0
 14 13  2  0  0  0  0
 14 15  1  0  0  0  0
 15 10  2  0  0  0  0
 17 13  1  0  0  0  0
 18 14  1  0  0  0  0
 19 15  1  0  0  0  0
 21 20  2  0  0  0  0
 21 22  1  0  0  0  0
 22 23  1  0  0  0  0
 22 25  1  0  0  0  0
 24 22  1  0  0  0  0
 25 36  1  0  0  0  0
 26 25  2  0  0  0  0
 26 27  1  0  0  0  0
 27 28  2  0  0  0  0
 28 29  1  0  0  0  0
 29 30  1  0  0  0  0
 30 31  2  0  0  0  0
 31 32  1  0  0  0  0
 33 34  1  0  0  0  0
 33 31  1  0  0  0  0
 35 33  2  0  0  0  0
 36 29  2  0  0  0  0
 36 35  1  0  0  0  0
M  END
>  <minimizedAffinity>
-6.5003953

$$$$

 OpenBabel03252501493D

 36 39  0  0  0  0  0  0  0  0999 V2000
   36.1860   29.8280   38.6570 C   0  0  0  0  0  0  0  0  0  0  0  0
   35.5450   28.7980   37.9210 C   0  0  0  0  0  0  0  0  0  0  0  0
   35.5980   27.4830   38.3940 C   0  0  0  0  0  0  0  0  0  0  0  0
   36.2750   27.2590   39.5570 N   0  0  0  0  0  0  0  0  0  0  0  0
   36.8670   28.2470   40.2270 C   0  0  0  0  0  0  0  0  0  0  0  0
   36.8160   29.4980   39.7750 N   0  0  0  0  0  0  0  0  0  0  0  0
   36.1290   30.8410   38.2690 H   0  0  0  0  0  0  0  0  0  0  0  0
   35.1100   26.7060   37.8320 H   0  0  0  0  0  0  0  0  0  0  0  0
   39.5820   27.6750   40.2370 F   0  0  0  0  0  0  0  0  0  0  0  0
   38.9340   27.6520   41.4360 C   0  0  0  0  0  0  0  0  0  0  0  0
   37.5730   27.9350   41.4590 C   0  0  0  0  0  0  0  0  0  0  0  0
   36.8610   27.9280   42.6450 C   0  0  0  0  0  0  0  0  0  0  0  0
   37.5560   27.6260   43.8160 C   0  0  0  0  0  0  0  0  0  0  0  0
   38.9190   27.3410   43.8030 C   0  0  0  0  0  0  0  0  0  0  0  0
   39.6240   27.3550   42.5860 C   0  0  0  0  0  0  0  0  0  0  0  0
   35.8030   28.1410   42.7030 H   0  0  0  0  0  0  0  0  0  0  0  0
   37.0310   27.6090   44.7660 H   0  0  0  0  0  0  0  0  0  0  0  0
   39.4650   27.1050   44.7140 H   0  0  0  0  0  0  0  0  0  0  0  0
   40.6820   27.1420   42.5140 H   0  0  0  0  0  0  0  0  0  0  0  0
   34.8180   29.0680   36.6650 C   0  0  0  0  0  3  0  0  0  0  0  0
   33.5240   28.7740   36.5130 C   0  0  0  0  0  3  0  0  0  0  0  0
   32.8260   29.0660   35.2160 C   0  0  0  0  0  0  0  0  0  0  0  0
   33.5560   29.1790   34.3890 H   0  0  0  0  0  0  0  0  0  0  0  0
   32.1930   28.1970   34.9180 H   0  0  0  0  0  0  0  0  0  0  0  0
   31.9680   30.2520   35.2650 C   0  0  0  0  0  0  0  0  0  0  0  0
   31.9520   31.1370   34.2230 N   0  0  0  0  0  0  0  0  0  0  0  0
   31.1780   32.2380   34.2200 C   0  0  0  0  0  3  0  0  0  0  0  0
   30.3430   32.5710   35.2460 N   0  0  0  0  0  0  0  0  0  0  0  0
   30.3320   31.7210   36.2890 C   0  0  0  0  0  0  0  0  0  0  0  0
   29.4910   32.0390   37.3480 C   0  0  0  0  0  3  0  0  0  0  0  0
   29.4420   31.2040   38.4440 C   0  0  0  0  0  0  0  0  0  0  0  0
   28.7730   31.4890   39.2450 H   0  0  0  0  0  0  0  0  0  0  0  0
   30.2400   30.0820   38.4310 C   0  0  0  0  0  0  0  0  0  0  0  0
   30.1530   29.4680   39.3230 H   0  0  0  0  0  0  0  0  0  0  0  0
   31.0800   29.7370   37.4090 C   0  0  0  0  0  3  0  0  0  0  0  0
   31.1220   30.5900   36.3010 C   0  0  0  0  0  0  0  0  0  0  0  0
  1  6  1  0  0  0  0
  2  3  1  0  0  0  0
  2  1  2  0  0  0  0
  3  4  2  0  0  0  0
  4  5  1  0  0  0  0
  5 11  1  0  0  0  0
  6  5  2  0  0  0  0
  7  1  1  0  0  0  0
  8  3  1  0  0  0  0
  9 10  1  0  0  0  0
 10 11  2  0  0  0  0
 10 15  1  0  0  0  0
 11 12  1  0  0  0  0
 12 16  1  0  0  0  0
 12 13  2  0  0  0  0
 13 17  1  0  0  0  0
 14 13  1  0  0  0  0
 14 18  1  0  0  0  0
 15 14  2  0  0  0  0
 19 15  1  0  0  0  0
 20  2  1  0  0  0  0
 21 20  2  0  0  0  0
 22 25  1  0  0  0  0
 22 21  1  0  0  0  0
 23 22  1  0  0  0  0
 24 22  1  0  0  0  0
 25 36  1  0  0  0  0
 26 25  2  0  0  0  0
 27 26  1  0  0  0  0
 27 28  2  0  0  0  0
 28 29  1  0  0  0  0
 29 36  2  0  0  0  0
 29 30  1  0  0  0  0
 30 31  2  0  0  0  0
 31 32  1  0  0  0  0
 33 31  1  0  0  0  0
 33 34  1  0  0  0  0
 35 33  2  0  0  0  0
 36 35  1  0  0  0  0
M  END
>  <minimizedAffinity>
-6.27164793

$$$$

 OpenBabel03252501493D

 36 39  0  0  0  0  0  0  0  0999 V2000
   35.4500   28.8100   40.1260 C   0  0  0  0  0  0  0  0  0  0  0  0
   35.7910   28.6120   38.7630 C   0  0  0  0  0  0  0  0  0  0  0  0
   36.9680   27.9270   38.4440 C   0  0  0  0  0  0  0  0  0  0  0  0
   37.7370   27.4800   39.4780 N   0  0  0  0  0  0  0  0  0  0  0  0
   37.3910   27.6820   40.7490 C   0  0  0  0  0  0  0  0  0  0  0  0
   36.2710   28.3340   41.0510 N   0  0  0  0  0  0  0  0  0  0  0  0
   34.5300   29.3450   40.3480 H   0  0  0  0  0  0  0  0  0  0  0  0
   37.2210   27.7790   37.4090 H   0  0  0  0  0  0  0  0  0  0  0  0
   37.3490   25.0160   41.5130 F   0  0  0  0  0  0  0  0  0  0  0  0
   38.2190   25.8390   42.1640 C   0  0  0  0  0  0  0  0  0  0  0  0
   38.2600   27.1790   41.8010 C   0  0  0  0  0  0  0  0  0  0  0  0
   39.1230   28.0630   42.4240 C   0  0  0  0  0  0  0  0  0  0  0  0
   39.9480   27.5620   43.4300 C   0  0  0  0  0  0  0  0  0  0  0  0
   39.9150   26.2200   43.8020 C   0  0  0  0  0  0  0  0  0  0  0  0
   39.0300   25.3380   43.1540 C   0  0  0  0  0  0  0  0  0  0  0  0
   39.1830   29.1130   42.1700 H   0  0  0  0  0  0  0  0  0  0  0  0
   40.6380   28.2260   43.9430 H   0  0  0  0  0  0  0  0  0  0  0  0
   40.5570   25.8250   44.5850 H   0  0  0  0  0  0  0  0  0  0  0  0
   38.9600   24.2880   43.3990 H   0  0  0  0  0  0  0  0  0  0  0  0
   34.9400   29.1050   37.6620 C   0  0  0  0  0  3  0  0  0  0  0  0
   33.7000   28.6500   37.4610 C   0  0  0  0  0  3  0  0  0  0  0  0
   32.8710   29.1810   36.3270 C   0  0  0  0  0  0  0  0  0  0  0  0
   33.4800   29.8200   35.6560 H   0  0  0  0  0  0  0  0  0  0  0  0
   32.5250   28.3410   35.6810 H   0  0  0  0  0  0  0  0  0  0  0  0
   31.6900   29.9290   36.7630 C   0  0  0  0  0  0  0  0  0  0  0  0
   31.2040   29.7770   38.0310 N   0  0  0  0  0  0  0  0  0  0  0  0
   30.1250   30.4450   38.4780 C   0  0  0  0  0  3  0  0  0  0  0  0
   29.4200   31.3300   37.7150 N   0  0  0  0  0  0  0  0  0  0  0  0
   29.8710   31.5050   36.4600 C   0  0  0  0  0  0  0  0  0  0  0  0
   29.1690   32.3990   35.6610 C   0  0  0  0  0  3  0  0  0  0  0  0
   29.5870   32.6160   34.3640 C   0  0  0  0  0  0  0  0  0  0  0  0
   29.0120   33.3200   33.7780 H   0  0  0  0  0  0  0  0  0  0  0  0
   30.6930   31.9240   33.9220 C   0  0  0  0  0  0  0  0  0  0  0  0
   30.9680   32.1400   32.8940 H   0  0  0  0  0  0  0  0  0  0  0  0
   31.4070   31.0360   34.6780 C   0  0  0  0  0  3  0  0  0  0  0  0
   30.9760   30.8240   35.9920 C   0  0  0  0  0  0  0  0  0  0  0  0
  1  7  1  0  0  0  0
  1  6  1  0  0  0  0
  2  1  2  0  0  0  0
  3  2  1  0  0  0  0
  3  4  2  0  0  0  0
  4  5  1  0  0  0  0
  5  6  2  0  0  0  0
  5 11  1  0  0  0  0
  8  3  1  0  0  0  0
  9 10  1  0  0  0  0
 10 15  1  0  0  0  0
 11 10  2  0  0  0  0
 11 12  1  0  0  0  0
 12 13  2  0  0  0  0
 13 14  1  0  0  0  0
 13 17  1  0  0  0  0
 14 18  1  0  0  0  0
 15 19  1  0  0  0  0
 15 14  2  0  0  0  0
 16 12  1  0  0  0  0
 20  2  1  0  0  0  0
 21 20  2  0  0  0  0
 22 25  1  0  0  0  0
 22 21  1  0  0  0  0
 23 22  1  0  0  0  0
 24 22  1  0  0  0  0
 25 26  1  0  0  0  0
 26 27  2  0  0  0  0
 28 27  1  0  0  0  0
 29 28  2  0  0  0  0
 30 29  1  0  0  0  0
 31 30  2  0  0  0  0
 32 31  1  0  0  0  0
 33 31  1  0  0  0  0
 33 35  2  0  0  0  0
 34 33  1  0  0  0  0
 35 36  1  0  0  0  0
 36 29  1  0  0  0  0
 36 25  2  0  0  0  0
M  END
>  <minimizedAffinity>
-6.21051979

$$$$

 OpenBabel03252501493D

 36 39  0  0  0  0  0  0  0  0999 V2000
   33.6940   29.2190   35.6210 C   0  0  0  0  0  0  0  0  0  0  0  0
   33.1750   29.1230   36.9380 C   0  0  0  0  0  0  0  0  0  0  0  0
   31.8720   29.5630   37.1940 C   0  0  0  0  0  0  0  0  0  0  0  0
   31.1600   30.0690   36.1470 N   0  0  0  0  0  0  0  0  0  0  0  0
   31.6760   30.1470   34.9200 C   0  0  0  0  0  0  0  0  0  0  0  0
   32.9160   29.7270   34.6780 N   0  0  0  0  0  0  0  0  0  0  0  0
   34.7080   28.8690   35.4480 H   0  0  0  0  0  0  0  0  0  0  0  0
   31.4830   29.4880   38.1950 H   0  0  0  0  0  0  0  0  0  0  0  0
   31.1860   32.8710   34.7310 F   0  0  0  0  0  0  0  0  0  0  0  0
   30.6310   32.0680   33.7790 C   0  0  0  0  0  0  0  0  0  0  0  0
   30.8610   30.7000   33.8500 C   0  0  0  0  0  0  0  0  0  0  0  0
   30.3250   29.8340   32.9130 C   0  0  0  0  0  0  0  0  0  0  0  0
   29.5460   30.3840   31.8950 C   0  0  0  0  0  0  0  0  0  0  0  0
   29.3090   31.7550   31.8150 C   0  0  0  0  0  0  0  0  0  0  0  0
   29.8650   32.6160   32.7790 C   0  0  0  0  0  0  0  0  0  0  0  0
   30.4800   28.7640   32.9350 H   0  0  0  0  0  0  0  0  0  0  0  0
   29.1070   29.7370   31.1410 H   0  0  0  0  0  0  0  0  0  0  0  0
   28.7030   32.1870   31.0230 H   0  0  0  0  0  0  0  0  0  0  0  0
   29.7170   33.6870   32.7670 H   0  0  0  0  0  0  0  0  0  0  0  0
   33.9660   28.5700   38.0550 C   0  0  0  0  0  3  0  0  0  0  0  0
   35.2990   28.6450   38.0910 C   0  0  0  0  0  3  0  0  0  0  0  0
   36.0620   28.0670   39.2470 C   0  0  0  0  0  0  0  0  0  0  0  0
   37.0100   28.6170   39.4110 H   0  0  0  0  0  0  0  0  0  0  0  0
   35.4870   28.2060   40.1920 H   0  0  0  0  0  0  0  0  0  0  0  0
   36.3530   26.6390   39.1040 C   0  0  0  0  0  0  0  0  0  0  0  0
   36.1630   26.0110   37.9050 N   0  0  0  0  0  0  0  0  0  0  0  0
   36.4200   24.7030   37.7240 C   0  0  0  0  0  3  0  0  0  0  0  0
   36.8910   23.8860   38.7110 N   0  0  0  0  0  0  0  0  0  0  0  0
   37.0900   24.4720   39.9060 C   0  0  0  0  0  0  0  0  0  0  0  0
   37.5670   23.6610   40.9290 C   0  0  0  0  0  3  0  0  0  0  0  0
   37.7870   24.2080   42.1760 C   0  0  0  0  0  0  0  0  0  0  0  0
   38.1590   23.5420   42.9420 H   0  0  0  0  0  0  0  0  0  0  0  0
   37.5190   25.5480   42.3440 C   0  0  0  0  0  0  0  0  0  0  0  0
   37.7140   25.9160   43.3470 H   0  0  0  0  0  0  0  0  0  0  0  0
   37.0480   26.3760   41.3620 C   0  0  0  0  0  3  0  0  0  0  0  0
   36.8290   25.8120   40.1010 C   0  0  0  0  0  0  0  0  0  0  0  0
  1  2  1  0  0  0  0
  2  3  2  0  0  0  0
  2 20  1  0  0  0  0
  3  8  1  0  0  0  0
  4  3  1  0  0  0  0
  5  4  2  0  0  0  0
  6  5  1  0  0  0  0
  6  1  2  0  0  0  0
  7  1  1  0  0  0  0
 10 11  1  0  0  0  0
 10  9  1  0  0  0  0
 11  5  1  0  0  0  0
 12 16  1  0  0  0  0
 12 11  2  0  0  0  0
 13 12  1  0  0  0  0
 14 13  2  0  0  0  0
 14 15  1  0  0  0  0
 15 10  2  0  0  0  0
 17 13  1  0  0  0  0
 18 14  1  0  0  0  0
 19 15  1  0  0  0  0
 20 21  2  0  0  0  0
 21 22  1  0  0  0  0
 22 23  1  0  0  0  0
 22 24  1  0  0  0  0
 25 22  1  0  0  0  0
 25 36  1  0  0  0  0
 26 25  2  0  0  0  0
 27 26  1  0  0  0  0
 27 28  2  0  0  0  0
 28 29  1  0  0  0  0
 29 36  2  0  0  0  0
 29 30  1  0  0  0  0
 30 31  2  0  0  0  0
 31 33  1  0  0  0  0
 31 32  1  0  0  0  0
 33 34  1  0  0  0  0
 35 33  2  0  0  0  0
 36 35  1  0  0  0  0
M  END
>  <minimizedAffinity>
-5.91517687

$$$$

 OpenBabel03252501493D

 36 39  0  0  0  0  0  0  0  0999 V2000
   37.2720   29.8940   37.9760 C   0  0  0  0  0  0  0  0  0  0  0  0
   36.0200   29.3930   38.4190 C   0  0  0  0  0  0  0  0  0  0  0  0
   35.8700   29.0130   39.7560 C   0  0  0  0  0  0  0  0  0  0  0  0
   36.9520   29.1470   40.5750 N   0  0  0  0  0  0  0  0  0  0  0  0
   38.1160   29.6200   40.1290 C   0  0  0  0  0  0  0  0  0  0  0  0
   38.2580   29.9810   38.8560 N   0  0  0  0  0  0  0  0  0  0  0  0
   37.3630   30.1830   36.9320 H   0  0  0  0  0  0  0  0  0  0  0  0
   34.9190   28.6350   40.0870 H   0  0  0  0  0  0  0  0  0  0  0  0
   38.6860   32.0060   41.4250 F   0  0  0  0  0  0  0  0  0  0  0  0
   39.4920   30.9400   41.6940 C   0  0  0  0  0  0  0  0  0  0  0  0
   39.2290   29.7330   41.0580 C   0  0  0  0  0  0  0  0  0  0  0  0
   40.0120   28.6160   41.2900 C   0  0  0  0  0  0  0  0  0  0  0  0
   41.0740   28.7450   42.1850 C   0  0  0  0  0  0  0  0  0  0  0  0
   41.3470   29.9500   42.8270 C   0  0  0  0  0  0  0  0  0  0  0  0
   40.5370   31.0730   42.5760 C   0  0  0  0  0  0  0  0  0  0  0  0
   39.8390   27.6600   40.8150 H   0  0  0  0  0  0  0  0  0  0  0  0
   41.7120   27.8900   42.3920 H   0  0  0  0  0  0  0  0  0  0  0  0
   42.1740   30.0540   43.5250 H   0  0  0  0  0  0  0  0  0  0  0  0
   40.7000   32.0340   43.0450 H   0  0  0  0  0  0  0  0  0  0  0  0
   34.8630   29.2600   37.5120 C   0  0  0  0  0  3  0  0  0  0  0  0
   33.6990   28.7420   37.9130 C   0  0  0  0  0  3  0  0  0  0  0  0
   32.5490   28.6260   36.9540 C   0  0  0  0  0  0  0  0  0  0  0  0
   32.9080   28.6090   35.9050 H   0  0  0  0  0  0  0  0  0  0  0  0
   32.0330   27.6470   37.0930 H   0  0  0  0  0  0  0  0  0  0  0  0
   31.5500   29.6860   37.1030 C   0  0  0  0  0  0  0  0  0  0  0  0
   30.8920   29.8540   38.2890 N   0  0  0  0  0  0  0  0  0  0  0  0
   29.9690   30.8160   38.4760 C   0  0  0  0  0  3  0  0  0  0  0  0
   29.6060   31.7070   37.5080 N   0  0  0  0  0  0  0  0  0  0  0  0
   30.2360   31.5710   36.3260 C   0  0  0  0  0  0  0  0  0  0  0  0
   29.8830   32.4640   35.3220 C   0  0  0  0  0  3  0  0  0  0  0  0
   30.4950   32.3700   34.0890 C   0  0  0  0  0  0  0  0  0  0  0  0
   30.1900   33.0850   33.3380 H   0  0  0  0  0  0  0  0  0  0  0  0
   31.4360   31.3800   33.9160 C   0  0  0  0  0  0  0  0  0  0  0  0
   31.8790   31.3610   32.9240 H   0  0  0  0  0  0  0  0  0  0  0  0
   31.8080   30.4830   34.8790 C   0  0  0  0  0  3  0  0  0  0  0  0
   31.1830   30.5880   36.1260 C   0  0  0  0  0  0  0  0  0  0  0  0
  1  2  2  0  0  0  0
  1  6  1  0  0  0  0
  2  3  1  0  0  0  0
  3  8  1  0  0  0  0
  3  4  2  0  0  0  0
  5  4  1  0  0  0  0
  5 11  1  0  0  0  0
  6  5  2  0  0  0  0
  7  1  1  0  0  0  0
  9 10  1  0  0  0  0
 10 15  1  0  0  0  0
 11 12  1  0  0  0  0
 11 10  2  0  0  0  0
 12 13  2  0  0  0  0
 13 17  1  0  0  0  0
 13 14  1  0  0  0  0
 14 18  1  0  0  0  0
 15 14  2  0  0  0  0
 15 19  1  0  0  0  0
 16 12  1  0  0  0  0
 20 21  2  0  0  0  0
 20  2  1  0  0  0  0
 22 24  1  0  0  0  0
 22 25  1  0  0  0  0
 22 21  1  0  0  0  0
 23 22  1  0  0  0  0
 25 26  1  0  0  0  0
 26 27  2  0  0  0  0
 28 27  1  0  0  0  0
 29 28  2  0  0  0  0
 30 29  1  0  0  0  0
 31 30  2  0  0  0  0
 32 31  1  0  0  0  0
 33 31  1  0  0  0  0
 33 35  2  0  0  0  0
 34 33  1  0  0  0  0
 35 36  1  0  0  0  0
 36 29  1  0  0  0  0
 36 25  2  0  0  0  0
M  END
>  <minimizedAffinity>
-5.68771982

$$$$

 OpenBabel03252501493D

 36 39  0  0  0  0  0  0  0  0999 V2000
   36.6790   28.7450   41.7960 C   0  0  0  0  0  0  0  0  0  0  0  0
   37.1550   27.8170   40.8340 C   0  0  0  0  0  0  0  0  0  0  0  0
   37.8790   28.2850   39.7320 C   0  0  0  0  0  0  0  0  0  0  0  0
   38.0900   29.6290   39.6410 N   0  0  0  0  0  0  0  0  0  0  0  0
   37.6290   30.4760   40.5610 C   0  0  0  0  0  0  0  0  0  0  0  0
   36.9400   30.0300   41.6090 N   0  0  0  0  0  0  0  0  0  0  0  0
   36.1200   28.3560   42.6440 H   0  0  0  0  0  0  0  0  0  0  0  0
   38.2380   27.5770   39.0060 H   0  0  0  0  0  0  0  0  0  0  0  0
   39.7250   31.7260   41.8800 F   0  0  0  0  0  0  0  0  0  0  0  0
   38.9460   32.4990   41.0700 C   0  0  0  0  0  0  0  0  0  0  0  0
   37.8890   31.8970   40.3980 C   0  0  0  0  0  0  0  0  0  0  0  0
   37.0640   32.6290   39.5630 C   0  0  0  0  0  0  0  0  0  0  0  0
   37.3300   33.9910   39.4200 C   0  0  0  0  0  0  0  0  0  0  0  0
   38.3870   34.6030   40.0890 C   0  0  0  0  0  0  0  0  0  0  0  0
   39.2140   33.8390   40.9340 C   0  0  0  0  0  0  0  0  0  0  0  0
   36.2320   32.1980   39.0240 H   0  0  0  0  0  0  0  0  0  0  0  0
   36.7040   34.5980   38.7730 H   0  0  0  0  0  0  0  0  0  0  0  0
   38.5980   35.6640   39.9800 H   0  0  0  0  0  0  0  0  0  0  0  0
   40.0490   34.2590   41.4780 H   0  0  0  0  0  0  0  0  0  0  0  0
   36.9150   26.3660   40.9580 C   0  0  0  0  0  3  0  0  0  0  0  0
   37.7030   25.5720   41.6870 C   0  0  0  0  0  3  0  0  0  0  0  0
   37.4190   24.1010   41.7830 C   0  0  0  0  0  0  0  0  0  0  0  0
   38.0500   23.6250   42.5600 H   0  0  0  0  0  0  0  0  0  0  0  0
   36.3720   23.9350   42.1280 H   0  0  0  0  0  0  0  0  0  0  0  0
   37.5940   23.3850   40.5170 C   0  0  0  0  0  0  0  0  0  0  0  0
   38.8450   23.0510   40.0790 N   0  0  0  0  0  0  0  0  0  0  0  0
   39.0560   22.3900   38.9260 C   0  0  0  0  0  3  0  0  0  0  0  0
   38.0500   21.9940   38.0920 N   0  0  0  0  0  0  0  0  0  0  0  0
   36.8040   22.3070   38.4930 C   0  0  0  0  0  0  0  0  0  0  0  0
   35.7620   21.9170   37.6610 C   0  0  0  0  0  3  0  0  0  0  0  0
   34.4640   22.2130   38.0220 C   0  0  0  0  0  0  0  0  0  0  0  0
   33.6840   21.8910   37.3450 H   0  0  0  0  0  0  0  0  0  0  0  0
   34.2660   22.8900   39.2050 C   0  0  0  0  0  0  0  0  0  0  0  0
   33.2230   23.0910   39.4290 H   0  0  0  0  0  0  0  0  0  0  0  0
   35.2650   23.2900   40.0480 C   0  0  0  0  0  3  0  0  0  0  0  0
   36.5780   22.9840   39.6730 C   0  0  0  0  0  0  0  0  0  0  0  0
  1  7  1  0  0  0  0
  2 20  1  0  0  0  0
  2  1  2  0  0  0  0
  3  2  1  0  0  0  0
  4  3  2  0  0  0  0
  4  5  1  0  0  0  0
  5  6  2  0  0  0  0
  6  1  1  0  0  0  0
  8  3  1  0  0  0  0
 10  9  1  0  0  0  0
 11  5  1  0  0  0  0
 11 10  2  0  0  0  0
 12 11  1  0  0  0  0
 13 12  2  0  0  0  0
 13 14  1  0  0  0  0
 14 15  2  0  0  0  0
 15 10  1  0  0  0  0
 15 19  1  0  0  0  0
 16 12  1  0  0  0  0
 17 13  1  0  0  0  0
 18 14  1  0  0  0  0
 20 21  2  0  0  0  0
 21 22  1  0  0  0  0
 22 24  1  0  0  0  0
 22 23  1  0  0  0  0
 25 22  1  0  0  0  0
 26 25  1  0  0  0  0
 27 26  2  0  0  0  0
 28 29  2  0  0  0  0
 28 27  1  0  0  0  0
 29 36  1  0  0  0  0
 30 31  2  0  0  0  0
 30 29  1  0  0  0  0
 31 33  1  0  0  0  0
 32 31  1  0  0  0  0
 33 34  1  0  0  0  0
 33 35  2  0  0  0  0
 36 35  1  0  0  0  0
 36 25  2  0  0  0  0
M  END
>  <minimizedAffinity>
-5.68473387

$$$$

 OpenBabel03252501493D

 36 39  0  0  0  0  0  0  0  0999 V2000
   39.5790   29.4000   40.0400 C   0  0  0  0  0  0  0  0  0  0  0  0
   38.7880   30.4980   40.4680 C   0  0  0  0  0  0  0  0  0  0  0  0
   37.5130   30.2600   40.9920 C   0  0  0  0  0  0  0  0  0  0  0  0
   37.0920   28.9650   41.0630 N   0  0  0  0  0  0  0  0  0  0  0  0
   37.8580   27.9540   40.6520 C   0  0  0  0  0  0  0  0  0  0  0  0
   39.0710   28.1810   40.1540 N   0  0  0  0  0  0  0  0  0  0  0  0
   40.5660   29.6110   39.6380 H   0  0  0  0  0  0  0  0  0  0  0  0
   36.9180   31.0960   41.3150 H   0  0  0  0  0  0  0  0  0  0  0  0
   37.9280   26.5560   43.0470 F   0  0  0  0  0  0  0  0  0  0  0  0
   37.3910   25.9200   41.9670 C   0  0  0  0  0  0  0  0  0  0  0  0
   37.3440   26.5980   40.7550 C   0  0  0  0  0  0  0  0  0  0  0  0
   36.8100   26.0060   39.6240 C   0  0  0  0  0  0  0  0  0  0  0  0
   36.3220   24.7050   39.7430 C   0  0  0  0  0  0  0  0  0  0  0  0
   36.3650   24.0160   40.9540 C   0  0  0  0  0  0  0  0  0  0  0  0
   36.9110   24.6380   42.0910 C   0  0  0  0  0  0  0  0  0  0  0  0
   36.7570   26.5000   38.6640 H   0  0  0  0  0  0  0  0  0  0  0  0
   35.8960   24.2060   38.8770 H   0  0  0  0  0  0  0  0  0  0  0  0
   35.9850   23.0020   41.0510 H   0  0  0  0  0  0  0  0  0  0  0  0
   36.9710   24.1550   43.0570 H   0  0  0  0  0  0  0  0  0  0  0  0
   39.2680   31.8910   40.3820 C   0  0  0  0  0  3  0  0  0  0  0  0
   40.5660   32.1940   40.2970 C   0  0  0  0  0  3  0  0  0  0  0  0
   41.0080   33.6260   40.2120 C   0  0  0  0  0  0  0  0  0  0  0  0
   40.3670   34.1980   39.5110 H   0  0  0  0  0  0  0  0  0  0  0  0
   40.8670   34.1290   41.1980 H   0  0  0  0  0  0  0  0  0  0  0  0
   42.4100   33.7870   39.8210 C   0  0  0  0  0  0  0  0  0  0  0  0
   42.8210   33.4400   38.5640 N   0  0  0  0  0  0  0  0  0  0  0  0
   44.0970   33.5740   38.1570 C   0  0  0  0  0  3  0  0  0  0  0  0
   45.0920   34.0620   38.9530 N   0  0  0  0  0  0  0  0  0  0  0  0
   44.7220   34.4140   40.1980 C   0  0  0  0  0  0  0  0  0  0  0  0
   45.7180   34.9120   41.0300 C   0  0  0  0  0  3  0  0  0  0  0  0
   45.3950   35.2860   42.3180 C   0  0  0  0  0  0  0  0  0  0  0  0
   46.2000   35.6690   42.9300 H   0  0  0  0  0  0  0  0  0  0  0  0
   44.0860   35.1440   42.7180 C   0  0  0  0  0  0  0  0  0  0  0  0
   43.9000   35.4560   43.7410 H   0  0  0  0  0  0  0  0  0  0  0  0
   43.0800   34.6560   41.9290 C   0  0  0  0  0  3  0  0  0  0  0  0
   43.4170   34.2800   40.6240 C   0  0  0  0  0  0  0  0  0  0  0  0
  1  6  2  0  0  0  0
  1  2  1  0  0  0  0
  2  3  2  0  0  0  0
  3  4  1  0  0  0  0
  3  8  1  0  0  0  0
  5 11  1  0  0  0  0
  5  4  2  0  0  0  0
  6  5  1  0  0  0  0
  7  1  1  0  0  0  0
 10 15  1  0  0  0  0
 10  9  1  0  0  0  0
 11 10  2  0  0  0  0
 12 13  2  0  0  0  0
 12 11  1  0  0  0  0
 13 14  1  0  0  0  0
 14 18  1  0  0  0  0
 14 15  2  0  0  0  0
 15 19  1  0  0  0  0
 16 12  1  0  0  0  0
 17 13  1  0  0  0  0
 20  2  1  0  0  0  0
 21 20  2  0  0  0  0
 22 21  1  0  0  0  0
 22 24  1  0  0  0  0
 23 22  1  0  0  0  0
 25 22  1  0  0  0  0
 25 36  1  0  0  0  0
 26 25  2  0  0  0  0
 27 26  1  0  0  0  0
 27 28  2  0  0  0  0
 28 29  1  0  0  0  0
 29 36  2  0  0  0  0
 29 30  1  0  0  0  0
 30 31  2  0  0  0  0
 31 33  1  0  0  0  0
 31 32  1  0  0  0  0
 33 34  1  0  0  0  0
 35 33  2  0  0  0  0
 36 35  1  0  0  0  0
M  END
>  <minimizedAffinity>
-5.6801405

$$$$

 OpenBabel03252501493D

 36 39  0  0  0  0  0  0  0  0999 V2000
   33.4420   29.2820   35.6320 C   0  0  0  0  0  0  0  0  0  0  0  0
   32.8670   29.2430   36.9290 C   0  0  0  0  0  0  0  0  0  0  0  0
   31.5420   29.6560   37.1040 C   0  0  0  0  0  0  0  0  0  0  0  0
   30.8640   30.0820   36.0000 N   0  0  0  0  0  0  0  0  0  0  0  0
   31.4310   30.1080   34.7940 C   0  0  0  0  0  0  0  0  0  0  0  0
   32.6920   29.7140   34.6290 N   0  0  0  0  0  0  0  0  0  0  0  0
   34.4720   28.9550   35.5230 H   0  0  0  0  0  0  0  0  0  0  0  0
   31.1120   29.6230   38.0890 H   0  0  0  0  0  0  0  0  0  0  0  0
   30.8840   32.8020   34.4260 F   0  0  0  0  0  0  0  0  0  0  0  0
   30.3900   31.9320   33.5000 C   0  0  0  0  0  0  0  0  0  0  0  0
   30.6490   30.5760   33.6610 C   0  0  0  0  0  0  0  0  0  0  0  0
   30.1750   29.6450   32.7550 C   0  0  0  0  0  0  0  0  0  0  0  0
   29.4270   30.1140   31.6760 C   0  0  0  0  0  0  0  0  0  0  0  0
   29.1610   31.4710   31.5050 C   0  0  0  0  0  0  0  0  0  0  0  0
   29.6540   32.4010   32.4390 C   0  0  0  0  0  0  0  0  0  0  0  0
   30.3550   28.5820   32.8460 H   0  0  0  0  0  0  0  0  0  0  0  0
   29.0360   29.4130   30.9440 H   0  0  0  0  0  0  0  0  0  0  0  0
   28.5780   31.8400   30.6650 H   0  0  0  0  0  0  0  0  0  0  0  0
   29.4800   33.4650   32.3590 H   0  0  0  0  0  0  0  0  0  0  0  0
   33.6230   28.7760   38.1080 C   0  0  0  0  0  3  0  0  0  0  0  0
   34.9500   28.8940   38.1970 C   0  0  0  0  0  3  0  0  0  0  0  0
   35.6770   28.4040   39.4150 C   0  0  0  0  0  0  0  0  0  0  0  0
   35.1980   28.7820   40.3410 H   0  0  0  0  0  0  0  0  0  0  0  0
   35.5960   27.2940   39.4880 H   0  0  0  0  0  0  0  0  0  0  0  0
   37.0990   28.7540   39.4320 C   0  0  0  0  0  0  0  0  0  0  0  0
   38.0450   27.8180   39.1180 N   0  0  0  0  0  0  0  0  0  0  0  0
   39.3620   28.0930   39.1150 C   0  0  0  0  0  3  0  0  0  0  0  0
   39.8740   29.3190   39.4240 N   0  0  0  0  0  0  0  0  0  0  0  0
   38.9700   30.2650   39.7390 C   0  0  0  0  0  0  0  0  0  0  0  0
   39.4670   31.5230   40.0610 C   0  0  0  0  0  3  0  0  0  0  0  0
   38.5850   32.5300   40.3940 C   0  0  0  0  0  0  0  0  0  0  0  0
   39.0140   33.4930   40.6360 H   0  0  0  0  0  0  0  0  0  0  0  0
   37.2410   32.2330   40.3910 C   0  0  0  0  0  0  0  0  0  0  0  0
   36.6020   33.0690   40.6610 H   0  0  0  0  0  0  0  0  0  0  0  0
   36.7160   31.0080   40.0820 C   0  0  0  0  0  3  0  0  0  0  0  0
   37.6180   29.9930   39.7450 C   0  0  0  0  0  0  0  0  0  0  0  0
  1  2  1  0  0  0  0
  2  3  2  0  0  0  0
  2 20  1  0  0  0  0
  3  8  1  0  0  0  0
  4  3  1  0  0  0  0
  5  4  2  0  0  0  0
  6  5  1  0  0  0  0
  6  1  2  0  0  0  0
  7  1  1  0  0  0  0
 10 11  1  0  0  0  0
 10  9  1  0  0  0  0
 11  5  1  0  0  0  0
 12 16  1  0  0  0  0
 12 11  2  0  0  0  0
 13 12  1  0  0  0  0
 14 13  2  0  0  0  0
 14 15  1  0  0  0  0
 15 10  2  0  0  0  0
 17 13  1  0  0  0  0
 18 14  1  0  0  0  0
 19 15  1  0  0  0  0
 20 21  2  0  0  0  0
 21 22  1  0  0  0  0
 22 25  1  0  0  0  0
 22 24  1  0  0  0  0
 22 23  1  0  0  0  0
 25 36  1  0  0  0  0
 26 25  2  0  0  0  0
 27 26  1  0  0  0  0
 27 28  2  0  0  0  0
 28 29  1  0  0  0  0
 29 36  2  0  0  0  0
 29 30  1  0  0  0  0
 30 31  2  0  0  0  0
 31 32  1  0  0  0  0
 33 31  1  0  0  0  0
 33 34  1  0  0  0  0
 35 33  2  0  0  0  0
 36 35  1  0  0  0  0
M  END
>  <minimizedAffinity>
-5.57794189

$$$$

 OpenBabel03252501493D

 36 39  0  0  0  0  0  0  0  0999 V2000
   38.8090   29.1940   42.7080 C   0  0  0  0  0  0  0  0  0  0  0  0
   38.4950   28.2690   41.6790 C   0  0  0  0  0  0  0  0  0  0  0  0
   38.4770   28.7030   40.3490 C   0  0  0  0  0  0  0  0  0  0  0  0
   38.7680   30.0140   40.1100 N   0  0  0  0  0  0  0  0  0  0  0  0
   39.0590   30.8600   41.0990 C   0  0  0  0  0  0  0  0  0  0  0  0
   39.0760   30.4450   42.3630 N   0  0  0  0  0  0  0  0  0  0  0  0
   38.8170   28.8320   43.7320 H   0  0  0  0  0  0  0  0  0  0  0  0
   38.2390   27.9970   39.5730 H   0  0  0  0  0  0  0  0  0  0  0  0
   37.0480   32.6690   40.4850 F   0  0  0  0  0  0  0  0  0  0  0  0
   38.3300   33.1310   40.4680 C   0  0  0  0  0  0  0  0  0  0  0  0
   39.3570   32.2450   40.7710 C   0  0  0  0  0  0  0  0  0  0  0  0
   40.6790   32.6540   40.7700 C   0  0  0  0  0  0  0  0  0  0  0  0
   40.9440   33.9870   40.4530 C   0  0  0  0  0  0  0  0  0  0  0  0
   39.9210   34.8820   40.1480 C   0  0  0  0  0  0  0  0  0  0  0  0
   38.5840   34.4440   40.1550 C   0  0  0  0  0  0  0  0  0  0  0  0
   41.5050   31.9960   41.0000 H   0  0  0  0  0  0  0  0  0  0  0  0
   41.9690   34.3450   40.4410 H   0  0  0  0  0  0  0  0  0  0  0  0
   40.1240   35.9220   39.9000 H   0  0  0  0  0  0  0  0  0  0  0  0
   37.7500   35.0930   39.9270 H   0  0  0  0  0  0  0  0  0  0  0  0
   38.1850   26.8540   41.9640 C   0  0  0  0  0  3  0  0  0  0  0  0
   37.2300   26.1870   41.3110 C   0  0  0  0  0  3  0  0  0  0  0  0
   36.9500   24.7490   41.6360 C   0  0  0  0  0  0  0  0  0  0  0  0
   37.4550   24.4490   42.5760 H   0  0  0  0  0  0  0  0  0  0  0  0
   35.8630   24.6080   41.8410 H   0  0  0  0  0  0  0  0  0  0  0  0
   37.3310   23.8200   40.5690 C   0  0  0  0  0  0  0  0  0  0  0  0
   38.6490   23.5730   40.3050 N   0  0  0  0  0  0  0  0  0  0  0  0
   39.0480   22.7260   39.3390 C   0  0  0  0  0  3  0  0  0  0  0  0
   38.1820   22.0390   38.5380 N   0  0  0  0  0  0  0  0  0  0  0  0
   36.8750   22.2580   38.7710 C   0  0  0  0  0  0  0  0  0  0  0  0
   35.9730   21.5720   37.9680 C   0  0  0  0  0  3  0  0  0  0  0  0
   34.6200   21.7600   38.1600 C   0  0  0  0  0  0  0  0  0  0  0  0
   33.9530   21.2060   37.5140 H   0  0  0  0  0  0  0  0  0  0  0  0
   34.2290   22.6300   39.1530 C   0  0  0  0  0  0  0  0  0  0  0  0
   33.1520   22.7320   39.2530 H   0  0  0  0  0  0  0  0  0  0  0  0
   35.0870   23.3230   39.9620 C   0  0  0  0  0  3  0  0  0  0  0  0
   36.4570   23.1250   39.7590 C   0  0  0  0  0  0  0  0  0  0  0  0
  1  7  1  0  0  0  0
  2 20  1  0  0  0  0
  2  1  2  0  0  0  0
  3  2  1  0  0  0  0
  4  3  2  0  0  0  0
  4  5  1  0  0  0  0
  5  6  2  0  0  0  0
  6  1  1  0  0  0  0
  8  3  1  0  0  0  0
 10  9  1  0  0  0  0
 10 11  1  0  0  0  0
 11  5  1  0  0  0  0
 12 11  2  0  0  0  0
 12 16  1  0  0  0  0
 13 12  1  0  0  0  0
 14 15  1  0  0  0  0
 14 13  2  0  0  0  0
 15 10  2  0  0  0  0
 17 13  1  0  0  0  0
 18 14  1  0  0  0  0
 19 15  1  0  0  0  0
 21 22  1  0  0  0  0
 21 20  2  0  0  0  0
 22 24  1  0  0  0  0
 22 23  1  0  0  0  0
 25 22  1  0  0  0  0
 26 25  1  0  0  0  0
 27 26  2  0  0  0  0
 28 29  2  0  0  0  0
 28 27  1  0  0  0  0
 29 36  1  0  0  0  0
 30 31  2  0  0  0  0
 30 29  1  0  0  0  0
 31 33  1  0  0  0  0
 32 31  1  0  0  0  0
 33 34  1  0  0  0  0
 33 35  2  0  0  0  0
 36 35  1  0  0  0  0
 36 25  2  0  0  0  0
M  END
>  <minimizedAffinity>
-5.56064606

$$$$
