
 OpenBabel03252507463D

 40 43  0  0  0  0  0  0  0  0999 V2000
   48.4310   33.8930   41.4110 C   0  0  0  0  0  0  0  0  0  0  0  0
   48.9600   32.6670   41.0200 C   0  0  0  0  0  0  0  0  0  0  0  0
   50.2420   32.2910   41.3860 C   0  0  0  0  0  0  0  0  0  0  0  0
   50.9520   33.1960   42.1510 N   0  0  0  0  0  0  0  0  0  0  0  0
   50.4030   34.3760   42.5110 C   0  0  0  0  0  0  0  0  0  0  0  0
   49.1740   34.7050   42.1440 N   0  0  0  0  0  0  0  0  0  0  0  0
   50.6810   31.3440   41.0970 H   0  0  0  0  0  0  0  0  0  0  0  0
   51.0340   35.0220   43.1110 H   0  0  0  0  0  0  0  0  0  0  0  0
   47.0590   34.1790   40.9610 C   0  0  0  0  0  0  0  0  0  0  0  0
   47.1050   34.6970   39.9720 H   0  0  0  0  0  0  0  0  0  0  0  0
   46.4770   33.2560   40.7810 H   0  0  0  0  0  0  0  0  0  0  0  0
   46.2690   34.9800   41.9540 C   0  0  0  0  0  0  0  0  0  0  0  0
   46.4520   34.5390   42.9700 H   0  0  0  0  0  0  0  0  0  0  0  0
   46.6410   36.0270   42.0110 H   0  0  0  0  0  0  0  0  0  0  0  0
   44.7950   34.9380   41.7160 C   0  0  0  0  0  0  0  0  0  0  0  0
   43.9140   35.4440   42.7120 C   0  0  0  0  0  0  0  0  0  0  0  0
   42.2520   35.1730   41.9680 S   0  0  0  0  0  0  0  0  0  0  0  0
   43.0480   34.4150   40.4230 C   0  0  0  0  0  0  0  0  0  0  0  0
   44.1640   34.4790   40.6720 N   0  0  0  0  0  0  0  0  0  0  0  0
   44.1810   35.8780   43.6690 H   0  0  0  0  0  0  0  0  0  0  0  0
   42.3040   33.9450   39.3430 O   0  0  0  0  0  0  0  0  0  0  0  0
   40.3820   34.4080   37.5790 O   0  0  0  0  0  0  0  0  0  0  0  0
   41.4620   35.0900   38.4130 P   0  0  0  0  0  0  0  0  0  0  0  0
   40.7440   36.2080   39.4590 O   0  0  0  0  0  0  0  0  0  0  0  0
   39.8680   35.8760   39.7620 H   0  0  0  0  0  0  0  0  0  0  0  0
   42.5640   35.9310   37.4190 O   0  0  0  0  0  0  0  0  0  0  0  0
   42.1160   36.7510   37.1310 H   0  0  0  0  0  0  0  0  0  0  0  0
   47.9910   31.5270   40.0230 S   0  0  0  0  0  0  0  0  0  0  0  0
   48.0810   31.9770   38.2970 C   0  0  0  0  0  0  0  0  0  0  0  0
   47.1670   32.8100   37.7350 N   0  0  0  0  0  0  0  0  0  0  0  0
   47.2650   33.1280   36.4330 C   0  0  0  0  0  3  0  0  0  0  0  0
   48.2630   32.6270   35.6810 N   0  0  0  0  0  0  0  0  0  0  0  0
   49.1890   31.7930   36.2140 C   0  0  0  0  0  0  0  0  0  0  0  0
   50.1710   31.3360   35.3580 C   0  0  0  0  0  3  0  0  0  0  0  0
   51.1350   30.4870   35.8510 C   0  0  0  0  0  0  0  0  0  0  0  0
   51.8870   30.1510   35.1460 H   0  0  0  0  0  0  0  0  0  0  0  0
   51.0810   30.1260   37.1930 C   0  0  0  0  0  0  0  0  0  0  0  0
   51.8540   29.4600   37.5370 H   0  0  0  0  0  0  0  0  0  0  0  0
   50.0810   30.6040   38.0230 C   0  0  0  0  0  3  0  0  0  0  0  0
   49.1040   31.4570   37.5490 C   0  0  0  0  0  0  0  0  0  0  0  0
  1  6  1  0  0  0  0
  2  3  1  0  0  0  0
  2  1  2  0  0  0  0
  3  4  2  0  0  0  0
  4  5  1  0  0  0  0
  5  8  1  0  0  0  0
  6  5  2  0  0  0  0
  7  3  1  0  0  0  0
  9  1  1  0  0  0  0
  9 12  1  0  0  0  0
 10  9  1  0  0  0  0
 11  9  1  0  0  0  0
 12 14  1  0  0  0  0
 12 13  1  0  0  0  0
 15 12  1  0  0  0  0
 15 16  2  0  0  0  0
 16 20  1  0  0  0  0
 17 16  1  0  0  0  0
 18 19  2  0  0  0  0
 18 17  1  0  0  0  0
 19 15  1  0  0  0  0
 21 18  1  0  0  0  0
 22 23  2  0  0  0  0
 23 21  1  0  0  0  0
 23 24  1  0  0  0  0
 24 25  1  0  0  0  0
 26 23  1  0  0  0  0
 27 26  1  0  0  0  0
 28  2  1  0  0  0  0
 29 28  1  0  0  0  0
 30 29  1  0  0  0  0
 31 30  2  0  0  0  0
 32 33  2  0  0  0  0
 32 31  1  0  0  0  0
 33 40  1  0  0  0  0
 34 35  2  0  0  0  0
 34 33  1  0  0  0  0
 35 37  1  0  0  0  0
 36 35  1  0  0  0  0
 37 38  1  0  0  0  0
 37 39  2  0  0  0  0
 40 39  1  0  0  0  0
 40 29  2  0  0  0  0
M  END
>  <minimizedAffinity>
-5.12835646

>  <minimizedRMSD>
0.917299211

$$$$
