
 OpenBabel03252508003D

 32 35  0  0  1  0  0  0  0  0999 V2000
   46.6810   34.6620   43.1790 C   0  0  0  0  0  0  0  0  0  0  0  0
   45.6280   35.6400   43.2700 C   0  0  0  0  0  0  0  0  0  0  0  0
   44.7560   35.5100   44.3480 C   0  0  0  0  0  0  0  0  0  0  0  0
   44.9440   34.4960   45.2270 N   0  0  0  0  0  0  0  0  0  0  0  0
   45.9700   33.5950   45.0820 C   0  0  0  0  0  0  0  0  0  0  0  0
   46.8410   33.6520   44.0840 N   0  0  0  0  0  0  0  0  0  0  0  0
   45.5640   36.3970   42.5320 H   0  0  0  0  0  0  0  0  0  0  0  0
   43.9600   36.2240   44.4450 H   0  0  0  0  0  0  0  0  0  0  0  0
   46.1140   32.5090   46.0950 C   0  0  1  0  0  0  0  0  0  0  0  0
   46.8300   32.8160   47.3890 C   0  0  0  0  0  0  0  0  0  0  0  0
   45.3310   32.7140   47.3300 C   0  0  1  0  0  0  0  0  0  0  0  0
   46.2200   31.4810   45.6970 H   0  0  0  0  0  0  0  0  0  0  0  0
   47.4140   31.9740   47.8140 H   0  0  0  0  0  0  0  0  0  0  0  0
   47.3320   33.8140   47.3760 H   0  0  0  0  0  0  0  0  0  0  0  0
   44.9260   31.8350   47.8900 H   0  0  0  0  0  0  0  0  0  0  0  0
   44.6750   34.0050   47.5620 N   0  0  0  0  0  0  0  0  0  0  0  0
   45.3170   34.6870   48.0360 H   0  0  0  0  0  0  0  0  0  0  0  0
   43.8950   33.8430   48.2500 H   0  0  0  0  0  0  0  0  0  0  0  0
   47.5560   34.7880   42.0430 C   0  0  2  0  0  3  0  0  0  0  0  0
   48.2460   35.8730   41.8520 O   0  0  0  0  0  1  0  0  0  0  0  0
   47.9360   33.9520   40.9080 C   0  0  0  0  0  0  0  0  0  0  0  0
   47.1530   33.9660   39.8180 N   0  0  0  0  0  0  0  0  0  0  0  0
   47.4230   33.2160   38.7040 C   0  0  0  0  0  3  0  0  0  0  0  0
   48.4900   32.4250   38.6480 N   0  0  0  0  0  0  0  0  0  0  0  0
   49.3550   32.3310   39.6970 C   0  0  0  0  0  0  0  0  0  0  0  0
   50.4730   31.5300   39.6770 C   0  0  0  0  0  3  0  0  0  0  0  0
   51.3330   31.4590   40.7510 C   0  0  0  0  0  0  0  0  0  0  0  0
   52.1650   30.8020   40.6190 H   0  0  0  0  0  0  0  0  0  0  0  0
   51.0110   32.2440   41.8600 C   0  0  0  0  0  0  0  0  0  0  0  0
   51.7000   32.1700   42.6840 H   0  0  0  0  0  0  0  0  0  0  0  0
   49.8870   33.0230   41.8230 C   0  0  0  0  0  3  0  0  0  0  0  0
   49.0150   33.1130   40.7720 C   0  0  0  0  0  0  0  0  0  0  0  0
  1  2  2  0  0  0  0
  1  6  1  0  0  0  0
  2  3  1  0  0  0  0
  3  8  1  0  0  0  0
  3  4  2  0  0  0  0
  5  4  1  0  0  0  0
  5  9  1  0  0  0  0
  6  5  2  0  0  0  0
  7  2  1  0  0  0  0
  9 12  1  6  0  0  0
  9 11  1  0  0  0  0
  9 10  1  0  0  0  0
 10 13  1  0  0  0  0
 11 10  1  0  0  0  0
 11 16  1  0  0  0  0
 11 15  1  1  0  0  0
 14 10  1  0  0  0  0
 16 17  1  0  0  0  0
 16 18  1  0  0  0  0
 19 20  1  6  0  0  0
 19  1  1  0  0  0  0
 21 19  1  0  0  0  0
 22 21  2  0  0  0  0
 23 22  1  0  0  0  0
 24 23  2  0  0  0  0
 24 25  1  0  0  0  0
 25 32  1  0  0  0  0
 26 25  2  0  0  0  0
 26 27  1  0  0  0  0
 27 29  2  0  0  0  0
 28 27  1  0  0  0  0
 29 30  1  0  0  0  0
 31 29  1  0  0  0  0
 32 21  1  0  0  0  0
 32 31  2  0  0  0  0
M  END
>  <minimizedAffinity>
-6.16127682

>  <minimizedRMSD>
1.98380172

$$$$
