
 OpenBabel03252506213D

 38 41  0  0  0  0  0  0  0  0999 V2000
   45.4480   35.1840   42.4570 C   0  0  0  0  0  0  0  0  0  0  0  0
   44.6060   34.6910   41.4440 C   0  0  0  0  0  0  0  0  0  0  0  0
   45.0970   33.6450   40.6520 C   0  0  0  0  0  0  0  0  0  0  0  0
   46.3440   33.1630   40.8940 N   0  0  0  0  0  0  0  0  0  0  0  0
   47.1170   33.6730   41.8840 C   0  0  0  0  0  0  0  0  0  0  0  0
   46.6650   34.6720   42.6500 N   0  0  0  0  0  0  0  0  0  0  0  0
   43.6320   35.0610   41.2480 H   0  0  0  0  0  0  0  0  0  0  0  0
   44.5060   33.2140   39.8520 H   0  0  0  0  0  0  0  0  0  0  0  0
   49.4020   35.6570   41.8660 Cl  0  0  0  0  0  0  0  0  0  0  0  0
   49.5430   33.9460   42.0800 C   0  0  0  0  0  0  0  0  0  0  0  0
   48.4630   33.0880   42.0770 C   0  0  0  0  0  0  0  0  0  0  0  0
   48.5400   31.7270   42.2420 C   0  0  0  0  0  0  0  0  0  0  0  0
   49.8000   31.2200   42.4200 C   0  0  0  0  0  0  0  0  0  0  0  0
   50.9500   31.9600   42.4420 C   0  0  0  0  0  0  0  0  0  0  0  0
   50.7740   33.3350   42.2650 C   0  0  0  0  0  0  0  0  0  0  0  0
   47.6690   31.0920   42.2330 H   0  0  0  0  0  0  0  0  0  0  0  0
   49.9490   30.1390   42.5580 H   0  0  0  0  0  0  0  0  0  0  0  0
   51.9190   31.5250   42.5830 H   0  0  0  0  0  0  0  0  0  0  0  0
   51.6540   33.9590   42.2770 H   0  0  0  0  0  0  0  0  0  0  0  0
   44.9500   36.2810   43.2980 C   0  0  0  0  0  3  0  0  0  0  0  0
   45.5840   37.4190   43.2870 C   0  0  0  0  0  3  0  0  0  0  0  0
   45.1130   38.5530   44.1180 C   0  0  0  0  0  0  0  0  0  0  0  0
   44.0720   38.4250   44.4700 H   0  0  0  0  0  0  0  0  0  0  0  0
   45.7960   38.5850   45.0170 H   0  0  0  0  0  0  0  0  0  0  0  0
   45.3380   39.7870   43.3950 N   0  0  0  0  0  0  0  0  0  0  0  0
   45.7200   39.7310   42.4350 H   0  0  0  0  0  0  0  0  0  0  0  0
   45.0130   40.9940   44.0730 C   0  0  0  0  0  0  0  0  0  0  0  0
   44.8930   42.1630   43.4260 N   0  0  0  0  0  0  0  0  0  0  0  0
   44.5910   43.3330   43.9810 C   0  0  0  0  0  3  0  0  0  0  0  0
   44.3840   43.3700   45.2950 N   0  0  0  0  0  0  0  0  0  0  0  0
   44.4780   42.2480   46.0590 C   0  0  0  0  0  0  0  0  0  0  0  0
   44.2520   42.3600   47.4150 C   0  0  0  0  0  3  0  0  0  0  0  0
   44.3650   41.1830   48.1210 C   0  0  0  0  0  0  0  0  0  0  0  0
   44.1930   41.2360   49.1960 H   0  0  0  0  0  0  0  0  0  0  0  0
   44.6760   39.9600   47.5790 C   0  0  0  0  0  0  0  0  0  0  0  0
   44.7540   39.0590   48.1830 H   0  0  0  0  0  0  0  0  0  0  0  0
   44.8870   39.9360   46.2090 C   0  0  0  0  0  3  0  0  0  0  0  0
   44.7940   41.0610   45.4310 C   0  0  0  0  0  0  0  0  0  0  0  0
  1  6  1  0  0  0  0
  1 20  1  0  0  0  0
  2  1  2  0  0  0  0
  3  4  2  0  0  0  0
  3  2  1  0  0  0  0
  4  5  1  0  0  0  0
  5 11  1  0  0  0  0
  5  6  2  0  0  0  0
  7  2  1  0  0  0  0
  8  3  1  0  0  0  0
  9 10  1  0  0  0  0
 10 15  1  0  0  0  0
 11 10  2  0  0  0  0
 11 12  1  0  0  0  0
 12 13  2  0  0  0  0
 13 14  1  0  0  0  0
 13 17  1  0  0  0  0
 14 18  1  0  0  0  0
 15 19  1  0  0  0  0
 15 14  2  0  0  0  0
 16 12  1  0  0  0  0
 21 20  2  0  0  0  0
 21 22  1  0  0  0  0
 22 23  1  0  0  0  0
 22 24  1  0  0  0  0
 25 27  1  0  0  0  0
 25 22  1  0  0  0  0
 26 25  1  0  0  0  0
 27 38  1  0  0  0  0
 28 29  1  0  0  0  0
 28 27  2  0  0  0  0
 29 30  2  0  0  0  0
 30 31  1  0  0  0  0
 31 32  1  0  0  0  0
 32 33  2  0  0  0  0
 33 34  1  0  0  0  0
 35 33  1  0  0  0  0
 35 36  1  0  0  0  0
 37 35  2  0  0  0  0
 38 31  2  0  0  0  0
 38 37  1  0  0  0  0
M  END
>  <minimizedAffinity>
0.36286521

>  <minimizedRMSD>
1.26614082

$$$$
