
 OpenBabel03252506133D

 39 42  0  0  0  0  0  0  0  0999 V2000
   45.0830   33.4310   41.2290 F   0  0  0  0  0  0  0  0  0  0  0  0
   46.2770   34.0160   41.0830 C   0  0  0  0  0  0  0  0  0  0  0  0
   46.7770   34.7790   42.1170 C   0  0  0  0  0  0  0  0  0  0  0  0
   48.0160   35.4220   42.0480 C   0  0  0  0  0  0  0  0  0  0  0  0
   48.7890   35.2950   40.8930 C   0  0  0  0  0  0  0  0  0  0  0  0
   48.2420   34.5170   39.8830 C   0  0  0  0  0  0  0  0  0  0  0  0
   47.0400   33.8850   39.9340 C   0  0  0  0  0  0  0  0  0  0  0  0
   48.3480   36.0130   42.9090 H   0  0  0  0  0  0  0  0  0  0  0  0
   49.7180   35.8080   40.9050 H   0  0  0  0  0  0  0  0  0  0  0  0
   48.9480   34.5010   39.0570 H   0  0  0  0  0  0  0  0  0  0  0  0
   45.4540   34.1530   45.4800 C   0  0  0  0  0  0  0  0  0  0  0  0
   44.5810   35.2500   45.6560 C   0  0  0  0  0  0  0  0  0  0  0  0
   44.4520   36.2050   44.6120 C   0  0  0  0  0  0  0  0  0  0  0  0
   45.1970   35.9880   43.4870 N   0  0  0  0  0  0  0  0  0  0  0  0
   46.0110   34.9410   43.3540 C   0  0  0  0  0  0  0  0  0  0  0  0
   46.1350   34.0370   44.3410 N   0  0  0  0  0  0  0  0  0  0  0  0
   44.0170   35.3700   46.5660 H   0  0  0  0  0  0  0  0  0  0  0  0
   43.7910   37.0550   44.7200 H   0  0  0  0  0  0  0  0  0  0  0  0
   45.5650   33.2200   46.5310 N   0  0  0  0  0  0  0  0  0  0  0  0
   45.0420   32.3630   46.2370 H   0  0  0  0  0  0  0  0  0  0  0  0
   46.0360   33.2480   47.4570 H   0  0  0  0  0  0  0  0  0  0  0  0
   46.6090   33.1470   38.8720 O   0  0  0  0  0  0  0  0  0  0  0  0
   47.8530   34.6010   37.0450 O   0  0  0  0  0  0  0  0  0  0  0  0
   46.9280   33.4340   37.2420 P   0  0  2  0  0  0  0  0  0  0  0  0
   45.4360   33.7170   36.4510 O   0  0  0  0  0  0  0  0  0  0  0  0
   45.5950   34.0100   35.5020 H   0  0  0  0  0  0  0  0  0  0  0  0
   47.5790   32.0850   36.4610 O   0  0  0  0  0  0  0  0  0  0  0  0
   47.0600   31.4280   35.3800 C   0  0  0  0  0  0  0  0  0  0  0  0
   45.9180   30.7290   35.2660 N   0  0  0  0  0  0  0  0  0  0  0  0
   45.5460   30.1360   34.1250 C   0  0  0  0  0  3  0  0  0  0  0  0
   46.3230   30.2160   33.0100 N   0  0  0  0  0  0  0  0  0  0  0  0
   47.4780   30.9000   33.0570 C   0  0  0  0  0  0  0  0  0  0  0  0
   48.2200   30.9430   31.8920 C   0  0  0  0  0  3  0  0  0  0  0  0
   49.4140   31.6350   31.8990 C   0  0  0  0  0  0  0  0  0  0  0  0
   50.0830   31.7420   31.0550 H   0  0  0  0  0  0  0  0  0  0  0  0
   49.8290   32.2600   33.0610 C   0  0  0  0  0  0  0  0  0  0  0  0
   50.7660   32.8200   33.1200 H   0  0  0  0  0  0  0  0  0  0  0  0
   49.0520   32.1860   34.1930 C   0  0  0  0  0  3  0  0  0  0  0  0
   47.8380   31.4970   34.2310 C   0  0  0  0  0  0  0  0  0  0  0  0
  2  1  1  0  0  0  0
  2  3  1  0  0  0  0
  3 15  1  0  0  0  0
  4  3  2  0  0  0  0
  4  8  1  0  0  0  0
  5  9  1  0  0  0  0
  5  4  1  0  0  0  0
  6  7  1  0  0  0  0
  6  5  2  0  0  0  0
  7  2  2  0  0  0  0
 10  6  1  0  0  0  0
 11 12  1  0  0  0  0
 11 19  1  0  0  0  0
 12 17  1  0  0  0  0
 13 18  1  0  0  0  0
 13 12  2  0  0  0  0
 14 13  1  0  0  0  0
 15 14  2  0  0  0  0
 15 16  1  0  0  0  0
 16 11  2  0  0  0  0
 19 21  1  0  0  0  0
 20 19  1  0  0  0  0
 22  7  1  0  0  0  0
 24 23  2  6  0  0  0
 24 22  1  0  0  0  0
 25 24  1  0  0  0  0
 26 25  1  0  0  0  0
 27 24  1  0  0  0  0
 28 27  1  0  0  0  0
 29 28  1  0  0  0  0
 30 29  2  0  0  0  0
 31 32  2  0  0  0  0
 31 30  1  0  0  0  0
 32 39  1  0  0  0  0
 33 34  2  0  0  0  0
 33 32  1  0  0  0  0
 34 36  1  0  0  0  0
 35 34  1  0  0  0  0
 36 37  1  0  0  0  0
 36 38  2  0  0  0  0
 38 39  1  0  0  0  0
 39 28  2  0  0  0  0
M  END
>  <minimizedAffinity>
-7.32858753

>  <minimizedRMSD>
1.35180688

$$$$
