
 OpenBabel03252506383D

 47 51  0  0  1  0  0  0  0  0999 V2000
   46.6790   30.0250   46.5460 S   0  0  0  0  0  0  0  0  0  0  0  0
   45.5120   30.5970   43.4700 O   0  0  0  0  0  0  0  0  0  0  0  0
   44.9350   30.0130   44.4000 C   0  0  0  0  0  0  0  0  0  0  0  0
   45.1060   29.7400   45.8490 C   0  0  1  0  0  0  0  0  0  0  0  0
   44.6040   28.3220   45.9630 C   0  0  0  0  0  0  0  0  0  0  0  0
   43.2510   28.5320   45.2770 C   0  0  0  0  0  0  0  0  0  0  0  0
   43.6930   29.3380   44.1440 N   0  0  0  0  0  0  0  0  0  0  0  0
   44.2270   30.3210   46.2450 H   0  0  0  0  0  0  0  0  0  0  0  0
   44.4010   28.0090   47.0000 H   0  0  0  0  0  0  0  0  0  0  0  0
   45.2330   27.6210   45.4090 H   0  0  0  0  0  0  0  0  0  0  0  0
   42.6290   29.1670   45.9380 H   0  0  0  0  0  0  0  0  0  0  0  0
   42.7850   27.5850   44.9860 H   0  0  0  0  0  0  0  0  0  0  0  0
   42.8570   29.3470   42.9700 C   0  0  0  0  0  0  0  0  0  0  0  0
   41.5880   29.7930   43.0940 N   0  0  0  0  0  0  0  0  0  0  0  0
   40.7300   29.8350   42.0340 C   0  0  0  0  0  3  0  0  0  0  0  0
   41.1190   29.4330   40.8220 N   0  0  0  0  0  0  0  0  0  0  0  0
   42.3800   28.9830   40.6650 C   0  0  0  0  0  0  0  0  0  0  0  0
   42.8170   28.5590   39.4270 C   0  0  0  0  0  3  0  0  0  0  0  0
   44.1110   28.0890   39.2350 C   0  0  0  0  0  0  0  0  0  0  0  0
   44.4370   27.7600   38.2580 H   0  0  0  0  0  0  0  0  0  0  0  0
   44.9570   28.0600   40.3390 C   0  0  0  0  0  0  0  0  0  0  0  0
   45.9550   27.6890   40.1490 H   0  0  0  0  0  0  0  0  0  0  0  0
   44.5670   28.4770   41.6090 C   0  0  0  0  0  3  0  0  0  0  0  0
   43.2700   28.9280   41.7190 C   0  0  0  0  0  0  0  0  0  0  0  0
   44.5180   35.5000   45.1490 C   0  0  0  0  0  0  0  0  0  0  0  0
   45.1820   35.4990   43.8970 C   0  0  0  0  0  0  0  0  0  0  0  0
   46.1090   34.5430   43.6400 C   0  0  0  0  0  0  0  0  0  0  0  0
   46.3450   33.6330   44.6160 N   0  0  0  0  0  0  0  0  0  0  0  0
   45.7200   33.6380   45.7850 C   0  0  0  0  0  0  0  0  0  0  0  0
   44.8040   34.5650   46.0670 N   0  0  0  0  0  0  0  0  0  0  0  0
   46.0550   32.6240   46.7480 N   0  0  0  0  0  0  0  0  0  0  0  0
   45.3190   32.3640   47.9290 C   0  0  0  0  0  0  0  0  0  0  0  0
   46.3940   32.0250   48.9440 C   0  0  0  0  0  0  0  0  0  0  0  0
   47.6770   31.9250   48.1740 C   0  0  0  0  0  0  0  0  0  0  0  0
   47.1800   31.7210   46.7450 C   0  0  1  0  0  0  0  0  0  0  0  0
   43.7780   36.2640   45.3500 H   0  0  0  0  0  0  0  0  0  0  0  0
   46.6130   34.5340   42.7060 H   0  0  0  0  0  0  0  0  0  0  0  0
   44.9210   33.3650   48.2860 H   0  0  0  0  0  0  0  0  0  0  0  0
   44.5350   31.6860   48.0280 H   0  0  0  0  0  0  0  0  0  0  0  0
   46.1900   31.0190   49.4070 H   0  0  0  0  0  0  0  0  0  0  0  0
   46.4700   32.7290   49.7710 H   0  0  0  0  0  0  0  0  0  0  0  0
   48.2610   31.0580   48.5150 H   0  0  0  0  0  0  0  0  0  0  0  0
   48.2790   32.8530   48.2380 H   0  0  0  0  0  0  0  0  0  0  0  0
   47.9740   32.0120   46.0550 H   0  0  0  0  0  0  0  0  0  0  0  0
   44.8200   36.5340   42.9670 N   0  0  0  0  0  0  0  0  0  0  0  0
   45.5520   36.9010   42.2970 H   0  0  0  0  0  0  0  0  0  0  0  0
   43.8460   36.8830   42.9910 H   0  0  0  0  0  0  0  0  0  0  0  0
  1 35  1  0  0  0  0
  2  3  2  0  0  0  0
  3  4  1  0  0  0  0
  4  5  1  0  0  0  0
  4  8  1  1  0  0  0
  4  1  1  0  0  0  0
  5  9  1  0  0  0  0
  6 11  1  0  0  0  0
  6  5  1  0  0  0  0
  7  3  1  0  0  0  0
  7  6  1  0  0  0  0
 10  5  1  0  0  0  0
 12  6  1  0  0  0  0
 13 14  1  0  0  0  0
 13  7  1  0  0  0  0
 15 14  2  0  0  0  0
 16 15  1  0  0  0  0
 17 16  2  0  0  0  0
 17 24  1  0  0  0  0
 18 17  1  0  0  0  0
 19 18  2  0  0  0  0
 19 21  1  0  0  0  0
 20 19  1  0  0  0  0
 21 23  2  0  0  0  0
 22 21  1  0  0  0  0
 23 24  1  0  0  0  0
 24 13  2  0  0  0  0
 25 36  1  0  0  0  0
 25 30  1  0  0  0  0
 26 25  2  0  0  0  0
 27 26  1  0  0  0  0
 27 28  2  0  0  0  0
 28 29  1  0  0  0  0
 29 30  2  0  0  0  0
 29 31  1  0  0  0  0
 31 32  1  0  0  0  0
 32 39  1  0  0  0  0
 32 38  1  0  0  0  0
 32 33  1  0  0  0  0
 33 40  1  0  0  0  0
 33 41  1  0  0  0  0
 34 43  1  0  0  0  0
 34 42  1  0  0  0  0
 34 33  1  0  0  0  0
 35 44  1  6  0  0  0
 35 31  1  0  0  0  0
 35 34  1  0  0  0  0
 37 27  1  0  0  0  0
 45 47  1  0  0  0  0
 45 26  1  0  0  0  0
 46 45  1  0  0  0  0
M  END
>  <minimizedAffinity>
-5.63187075

>  <minimizedRMSD>
0.166230604

$$$$
