
 OpenBabel03252500483D

 31 34  0  0  0  0  0  0  0  0999 V2000
   44.4810   35.1070   46.0060 C   0  0  0  0  0  0  0  0  0  0  0  0
   45.1630   35.1840   44.7700 C   0  0  0  0  0  0  0  0  0  0  0  0
   46.1770   34.2610   44.4780 C   0  0  0  0  0  0  0  0  0  0  0  0
   46.4560   33.3160   45.4310 N   0  0  0  0  0  0  0  0  0  0  0  0
   45.7900   33.2690   46.6010 C   0  0  0  0  0  0  0  0  0  0  0  0
   44.8190   34.1500   46.8820 N   0  0  0  0  0  0  0  0  0  0  0  0
   43.6970   35.7850   46.2830 H   0  0  0  0  0  0  0  0  0  0  0  0
   46.6950   34.3200   43.5340 H   0  0  0  0  0  0  0  0  0  0  0  0
   46.1350   32.2470   47.5820 C   0  0  0  0  0  0  0  0  0  0  0  0
   47.4120   31.9960   47.9760 C   0  0  0  0  0  0  0  0  0  0  0  0
   47.7840   31.0500   48.8910 C   0  0  0  0  0  0  0  0  0  0  0  0
   46.7760   30.3330   49.4190 N   0  0  0  0  0  0  0  0  0  0  0  0
   45.5140   30.5750   49.0350 C   0  0  0  0  0  0  0  0  0  0  0  0
   45.1300   31.5090   48.1310 N   0  0  0  0  0  0  0  0  0  0  0  0
   48.2020   32.6140   47.5100 H   0  0  0  0  0  0  0  0  0  0  0  0
   48.8160   30.9060   49.1550 H   0  0  0  0  0  0  0  0  0  0  0  0
   44.6910   29.9810   49.4750 H   0  0  0  0  0  0  0  0  0  0  0  0
   44.7860   36.2520   43.8750 C   0  0  0  0  0  0  0  0  0  0  0  0
   44.0350   35.8940   42.9000 O   0  0  0  0  0  0  0  0  0  0  0  0
   45.0180   37.6820   43.7500 C   0  0  0  0  0  0  0  0  0  0  0  0
   45.3330   38.1350   42.5250 N   0  0  0  0  0  0  0  0  0  0  0  0
   45.5690   39.4690   42.2980 C   0  0  0  0  0  3  0  0  0  0  0  0
   45.5020   40.3860   43.2720 N   0  0  0  0  0  0  0  0  0  0  0  0
   45.1930   39.9980   44.5180 C   0  0  0  0  0  0  0  0  0  0  0  0
   45.1150   40.8960   45.5620 C   0  0  0  0  0  3  0  0  0  0  0  0
   44.8000   40.4920   46.8610 C   0  0  0  0  0  0  0  0  0  0  0  0
   44.7600   41.2600   47.6170 H   0  0  0  0  0  0  0  0  0  0  0  0
   44.5700   39.1380   47.0440 C   0  0  0  0  0  0  0  0  0  0  0  0
   44.3290   38.8710   48.0700 H   0  0  0  0  0  0  0  0  0  0  0  0
   44.6590   38.2820   45.9780 C   0  0  0  0  0  3  0  0  0  0  0  0
   44.9630   38.6600   44.7080 C   0  0  0  0  0  0  0  0  0  0  0  0
  1  7  1  0  0  0  0
  1  6  1  0  0  0  0
  2  1  2  0  0  0  0
  3  2  1  0  0  0  0
  3  4  2  0  0  0  0
  4  5  1  0  0  0  0
  5  6  2  0  0  0  0
  5  9  1  0  0  0  0
  8  3  1  0  0  0  0
  9 10  2  0  0  0  0
  9 14  1  0  0  0  0
 10 11  1  0  0  0  0
 11 16  1  0  0  0  0
 11 12  2  0  0  0  0
 13 12  1  0  0  0  0
 13 17  1  0  0  0  0
 14 13  2  0  0  0  0
 15 10  1  0  0  0  0
 18  2  1  0  0  0  0
 19 18  2  0  0  0  0
 20 18  1  0  0  0  0
 20 31  1  0  0  0  0
 21 20  2  0  0  0  0
 22 21  1  0  0  0  0
 22 23  2  0  0  0  0
 23 24  1  0  0  0  0
 24 31  2  0  0  0  0
 24 25  1  0  0  0  0
 25 26  2  0  0  0  0
 26 28  1  0  0  0  0
 26 27  1  0  0  0  0
 28 29  1  0  0  0  0
 30 28  2  0  0  0  0
 31 30  1  0  0  0  0
M  END
>  <minimizedAffinity>
2.28381538

>  <minimizedRMSD>
1.60245717

$$$$
