
 OpenBabel03242511173D

 22 24  0  0  0  0  0  0  0  0999 V2000
   46.5810   33.8460   40.4870 C   0  0  0  0  0  0  0  0  0  0  0  0
   45.4040   33.2870   40.8910 N   0  0  0  0  0  0  0  0  0  0  0  0
   44.6170   32.6030   40.0290 C   0  0  0  0  0  3  0  0  0  0  0  0
   45.0490   32.5020   38.7680 N   0  0  0  0  0  0  0  0  0  0  0  0
   46.1850   33.0190   38.2960 C   0  0  0  0  0  0  0  0  0  0  0  0
   46.6030   32.8970   36.9880 C   0  0  0  0  0  3  0  0  0  0  0  0
   47.8030   33.4730   36.6020 C   0  0  0  0  0  0  0  0  0  0  0  0
   48.1060   33.3610   35.5670 H   0  0  0  0  0  0  0  0  0  0  0  0
   48.5720   34.1640   37.5170 C   0  0  0  0  0  0  0  0  0  0  0  0
   49.5090   34.6030   37.1790 H   0  0  0  0  0  0  0  0  0  0  0  0
   48.1940   34.3150   38.8510 C   0  0  0  0  0  3  0  0  0  0  0  0
   46.9890   33.7160   39.1690 C   0  0  0  0  0  0  0  0  0  0  0  0
   47.4690   34.7070   41.7760 S   0  0  0  0  0  0  0  0  0  0  0  0
   44.6040   36.0740   44.2950 C   0  0  0  0  0  0  0  0  0  0  0  0
   45.4620   35.9760   43.1810 C   0  0  0  0  0  0  0  0  0  0  0  0
   46.3550   34.8940   43.1550 C   0  0  0  0  0  0  0  0  0  0  0  0
   46.3430   34.0180   44.1830 N   0  0  0  0  0  0  0  0  0  0  0  0
   45.5090   34.1370   45.2390 C   0  0  0  0  0  0  0  0  0  0  0  0
   44.6490   35.1660   45.2800 N   0  0  0  0  0  0  0  0  0  0  0  0
   43.9390   36.9120   44.2780 H   0  0  0  0  0  0  0  0  0  0  0  0
   45.4210   36.7050   42.3980 H   0  0  0  0  0  0  0  0  0  0  0  0
   45.4850   33.4460   46.0710 H   0  0  0  0  0  0  0  0  0  0  0  0
  1  2  1  0  0  0  0
  1 13  1  0  0  0  0
  3  2  2  0  0  0  0
  4  3  1  0  0  0  0
  5  4  2  0  0  0  0
  5 12  1  0  0  0  0
  6  5  1  0  0  0  0
  7  6  2  0  0  0  0
  7  9  1  0  0  0  0
  8  7  1  0  0  0  0
  9 11  2  0  0  0  0
 10  9  1  0  0  0  0
 11 12  1  0  0  0  0
 12  1  2  0  0  0  0
 13 16  1  0  0  0  0
 14 19  1  0  0  0  0
 15 14  2  0  0  0  0
 16 15  1  0  0  0  0
 16 17  2  0  0  0  0
 17 18  1  0  0  0  0
 18 19  2  0  0  0  0
 18 22  1  0  0  0  0
 20 14  1  0  0  0  0
 21 15  1  0  0  0  0
M  END
>  <minimizedAffinity>
-4.67323685

>  <minimizedRMSD>
1.66754234

$$$$
