
 OpenBabel03242523303D

 25 27  0  0  0  0  0  0  0  0999 V2000
   46.1320   31.6990   44.2500 S   0  0  0  0  0  0  0  0  0  0  0  0
   47.6770   31.2130   43.5000 C   0  0  0  0  0  0  0  0  0  0  0  0
   48.0920   29.9380   43.3040 N   0  0  0  0  0  0  0  0  0  0  0  0
   49.2860   29.7020   42.7270 C   0  0  0  0  0  3  0  0  0  0  0  0
   50.1010   30.7160   42.3270 N   0  0  0  0  0  0  0  0  0  0  0  0
   49.7330   32.0170   42.5000 C   0  0  0  0  0  0  0  0  0  0  0  0
   50.5940   33.0100   42.0800 C   0  0  0  0  0  3  0  0  0  0  0  0
   50.1870   34.3340   42.2720 C   0  0  0  0  0  0  0  0  0  0  0  0
   50.7720   35.1950   41.9860 H   0  0  0  0  0  0  0  0  0  0  0  0
   48.9730   34.6050   42.8590 C   0  0  0  0  0  0  0  0  0  0  0  0
   48.6130   35.6270   43.0290 H   0  0  0  0  0  0  0  0  0  0  0  0
   48.1560   33.5650   43.2580 C   0  0  0  0  0  3  0  0  0  0  0  0
   48.5080   32.2340   43.0920 C   0  0  0  0  0  0  0  0  0  0  0  0
   44.8370   31.7310   42.9680 C   0  0  0  0  0  0  0  0  0  0  0  0
   43.9070   31.2380   43.3350 H   0  0  0  0  0  0  0  0  0  0  0  0
   45.1510   31.1740   42.0670 H   0  0  0  0  0  0  0  0  0  0  0  0
   44.0390   34.8610   41.1140 C   0  0  0  0  0  0  0  0  0  0  0  0
   44.2260   35.8160   42.1240 C   0  0  0  0  0  0  0  0  0  0  0  0
   44.6160   35.3780   43.4040 C   0  0  0  0  0  0  0  0  0  0  0  0
   44.7980   34.0420   43.6140 N   0  0  0  0  0  0  0  0  0  0  0  0
   44.6040   33.1430   42.5980 C   0  0  0  0  0  0  0  0  0  0  0  0
   44.2340   33.5630   41.3880 N   0  0  0  0  0  0  0  0  0  0  0  0
   43.7410   35.2320   40.1480 H   0  0  0  0  0  0  0  0  0  0  0  0
   44.1000   36.8810   42.0180 H   0  0  0  0  0  0  0  0  0  0  0  0
   44.7810   36.0360   44.2290 H   0  0  0  0  0  0  0  0  0  0  0  0
  2  1  1  0  0  0  0
  3  2  1  0  0  0  0
  4  3  2  0  0  0  0
  5  6  2  0  0  0  0
  5  4  1  0  0  0  0
  6 13  1  0  0  0  0
  7  8  2  0  0  0  0
  7  6  1  0  0  0  0
  8 10  1  0  0  0  0
  9  8  1  0  0  0  0
 10 11  1  0  0  0  0
 10 12  2  0  0  0  0
 13 12  1  0  0  0  0
 13  2  2  0  0  0  0
 14 15  1  0  0  0  0
 14  1  1  0  0  0  0
 16 14  1  0  0  0  0
 17 22  2  0  0  0  0
 17 18  1  0  0  0  0
 18 19  2  0  0  0  0
 19 20  1  0  0  0  0
 19 25  1  0  0  0  0
 21 14  1  0  0  0  0
 21 20  2  0  0  0  0
 22 21  1  0  0  0  0
 23 17  1  0  0  0  0
 24 18  1  0  0  0  0
M  END
>  <minimizedAffinity>
-3.88358784

>  <minimizedRMSD>
4.26822567

$$$$
