
 OpenBabel03252504323D

 43 46  0  0  0  0  0  0  0  0999 V2000
   41.6170   35.7460   41.1860 C   0  0  0  0  0  0  0  0  0  0  0  0
   41.5500   35.8510   42.2930 H   0  0  0  0  0  0  0  0  0  0  0  0
   41.2330   36.6980   40.7630 H   0  0  0  0  0  0  0  0  0  0  0  0
   40.9290   33.4020   41.3080 C   0  0  0  0  0  0  0  0  0  0  0  0
   40.5830   34.7040   40.8690 C   0  0  0  0  0  0  0  0  0  0  0  0
   39.3980   34.8350   40.2330 C   0  0  0  0  0  0  0  0  0  0  0  0
   38.6550   33.7560   40.0670 N   0  0  0  0  0  0  0  0  0  0  0  0
   38.9680   32.5490   40.4690 C   0  0  0  0  0  0  0  0  0  0  0  0
   40.1550   32.3250   41.1260 N   0  0  0  0  0  0  0  0  0  0  0  0
   41.8780   33.2370   41.8290 H   0  0  0  0  0  0  0  0  0  0  0  0
   39.1520   35.8060   39.9120 H   0  0  0  0  0  0  0  0  0  0  0  0
   38.2170   31.2770   40.3370 C   0  0  0  0  0  0  0  0  0  0  0  0
   37.4560   30.7460   41.3280 N   0  0  0  0  0  0  0  0  0  0  0  0
   36.7710   29.6210   41.2600 C   0  0  0  0  0  0  0  0  0  0  0  0
   36.7900   28.8840   40.1210 N   0  0  0  0  0  0  0  0  0  0  0  0
   37.5220   29.3180   39.0510 C   0  0  0  0  0  0  0  0  0  0  0  0
   37.5330   28.5630   37.9000 C   0  0  0  0  0  0  0  0  0  0  0  0
   38.2620   28.9740   36.8040 C   0  0  0  0  0  0  0  0  0  0  0  0
   38.1900   28.3010   35.9700 H   0  0  0  0  0  0  0  0  0  0  0  0
   38.9550   30.1570   36.9390 C   0  0  0  0  0  0  0  0  0  0  0  0
   39.5170   30.4430   36.0460 H   0  0  0  0  0  0  0  0  0  0  0  0
   38.9110   30.8760   38.1130 C   0  0  0  0  0  0  0  0  0  0  0  0
   38.2040   30.4990   39.2080 C   0  0  0  0  0  0  0  0  0  0  0  0
   42.8380   35.4520   40.6540 O   0  0  0  0  0  0  0  0  0  0  0  0
   44.0480   35.3110   41.3090 C   0  0  0  0  0  0  0  0  0  0  0  0
   44.0540   35.6420   42.5950 C   0  0  0  0  0  0  0  0  0  0  0  0
   45.2550   35.5700   43.5210 C   0  0  0  0  0  0  0  0  0  0  0  0
   46.0810   35.2470   42.8590 H   0  0  0  0  0  0  0  0  0  0  0  0
   45.4620   36.5290   44.0030 H   0  0  0  0  0  0  0  0  0  0  0  0
   44.9810   34.5960   44.4630 O   0  0  0  0  0  0  0  0  0  0  0  0
   45.6580   32.4670   43.0280 O   0  0  0  0  0  0  0  0  0  0  0  0
   45.9940   33.2620   44.2680 P   0  0  1  0  0  0  0  0  0  0  0  0
   47.6120   33.7530   44.1050 O   0  0  0  0  0  0  0  0  0  0  0  0
   47.6460   34.7440   44.2380 H   0  0  0  0  0  0  0  0  0  0  0  0
   45.9020   32.2750   45.6350 O   0  0  0  0  0  0  0  0  0  0  0  0
   46.1960   32.9620   46.7960 C   0  0  0  0  0  0  0  0  0  0  0  0
   47.0560   32.3130   47.8340 C   0  0  0  0  0  0  0  0  0  0  0  0
   45.5520   32.4010   48.0440 C   0  0  0  0  0  0  0  0  0  0  0  0
   46.3820   34.0280   46.6670 H   0  0  0  0  0  0  0  0  0  0  0  0
   47.7380   32.8920   48.4710 H   0  0  0  0  0  0  0  0  0  0  0  0
   47.4000   31.2710   47.6640 H   0  0  0  0  0  0  0  0  0  0  0  0
   45.2730   33.1870   48.7930 H   0  0  0  0  0  0  0  0  0  0  0  0
   44.9330   31.5060   47.9860 H   0  0  0  0  0  0  0  0  0  0  0  0
  1  2  1  0  0  0  0
  3  1  1  0  0  0  0
  4 10  1  0  0  0  0
  5  1  1  0  0  0  0
  5  4  2  0  0  0  0
  6  5  1  0  0  0  0
  7  6  2  0  0  0  0
  7  8  1  0  0  0  0
  8  9  2  0  0  0  0
  9  4  1  0  0  0  0
 11  6  1  0  0  0  0
 12  8  1  0  0  0  0
 12 13  1  0  0  0  0
 14 13  2  0  0  0  0
 15 14  1  0  0  0  0
 16 23  1  0  0  0  0
 16 15  2  0  0  0  0
 17 16  1  0  0  0  0
 18 20  1  0  0  0  0
 18 17  2  0  0  0  0
 19 18  1  0  0  0  0
 20 22  2  0  0  0  0
 21 20  1  0  0  0  0
 22 23  1  0  0  0  0
 23 12  2  0  0  0  0
 24  1  1  0  0  0  0
 24 25  1  0  0  0  0
 25 26  2  0  0  0  0
 26 27  1  0  0  0  0
 27 29  1  0  0  0  0
 27 30  1  0  0  0  0
 28 27  1  0  0  0  0
 32 31  2  6  0  0  0
 32 30  1  0  0  0  0
 32 35  1  0  0  0  0
 33 34  1  0  0  0  0
 33 32  1  0  0  0  0
 35 36  1  0  0  0  0
 36 37  1  0  0  0  0
 36 38  1  0  0  0  0
 37 38  1  0  0  0  0
 37 40  1  0  0  0  0
 38 42  1  0  0  0  0
 39 36  1  0  0  0  0
 41 37  1  0  0  0  0
 43 38  1  0  0  0  0
M  END
>  <minimizedAffinity>
-5.68821669

>  <minimizedRMSD>
1.15577853

$$$$
