
 OpenBabel03242523303D

 25 27  0  0  0  0  0  0  0  0999 V2000
   47.3060   31.5830   44.9500 S   0  0  0  0  0  0  0  0  0  0  0  0
   47.1800   30.8660   43.3200 C   0  0  0  0  0  0  0  0  0  0  0  0
   46.2580   29.9510   42.9320 N   0  0  0  0  0  0  0  0  0  0  0  0
   46.2700   29.4820   41.6690 C   0  0  0  0  0  3  0  0  0  0  0  0
   47.1890   29.9020   40.7570 N   0  0  0  0  0  0  0  0  0  0  0  0
   48.1380   30.8200   41.0940 C   0  0  0  0  0  0  0  0  0  0  0  0
   49.0490   31.2140   40.1370 C   0  0  0  0  0  3  0  0  0  0  0  0
   50.0100   32.1570   40.5150 C   0  0  0  0  0  0  0  0  0  0  0  0
   50.7730   32.5410   39.8570 H   0  0  0  0  0  0  0  0  0  0  0  0
   50.0230   32.6530   41.7980 C   0  0  0  0  0  0  0  0  0  0  0  0
   50.7560   33.3930   42.1390 H   0  0  0  0  0  0  0  0  0  0  0  0
   49.0820   32.2170   42.7120 C   0  0  0  0  0  3  0  0  0  0  0  0
   48.1060   31.2850   42.3910 C   0  0  0  0  0  0  0  0  0  0  0  0
   45.8570   32.6500   45.2390 C   0  0  0  0  0  0  0  0  0  0  0  0
   46.0400   33.3390   46.0960 H   0  0  0  0  0  0  0  0  0  0  0  0
   44.9660   32.0540   45.5040 H   0  0  0  0  0  0  0  0  0  0  0  0
   44.3830   33.8290   42.0280 C   0  0  0  0  0  0  0  0  0  0  0  0
   45.2560   34.8790   41.7110 C   0  0  0  0  0  0  0  0  0  0  0  0
   46.3180   35.1630   42.5900 C   0  0  0  0  0  0  0  0  0  0  0  0
   46.4600   34.4050   43.7170 N   0  0  0  0  0  0  0  0  0  0  0  0
   45.5830   33.3870   43.9870 C   0  0  0  0  0  0  0  0  0  0  0  0
   44.5780   33.1230   43.1520 N   0  0  0  0  0  0  0  0  0  0  0  0
   43.5810   33.6400   41.3340 H   0  0  0  0  0  0  0  0  0  0  0  0
   45.1960   35.5090   40.8390 H   0  0  0  0  0  0  0  0  0  0  0  0
   47.0290   35.9430   42.4260 H   0  0  0  0  0  0  0  0  0  0  0  0
  1 14  1  0  0  0  0
  2  1  1  0  0  0  0
  3  2  1  0  0  0  0
  4  3  2  0  0  0  0
  5  6  2  0  0  0  0
  5  4  1  0  0  0  0
  6 13  1  0  0  0  0
  7  8  2  0  0  0  0
  7  6  1  0  0  0  0
  8 10  1  0  0  0  0
  9  8  1  0  0  0  0
 10 11  1  0  0  0  0
 10 12  2  0  0  0  0
 13 12  1  0  0  0  0
 13  2  2  0  0  0  0
 14 16  1  0  0  0  0
 14 15  1  0  0  0  0
 17 22  1  0  0  0  0
 18 17  2  0  0  0  0
 18 19  1  0  0  0  0
 19 20  2  0  0  0  0
 20 21  1  0  0  0  0
 21 14  1  0  0  0  0
 22 21  2  0  0  0  0
 23 17  1  0  0  0  0
 24 18  1  0  0  0  0
 25 19  1  0  0  0  0
M  END
>  <minimizedAffinity>
-2.94987202

>  <minimizedRMSD>
5.04324007

$$$$
