
 OpenBabel03252507463D

 40 43  0  0  0  0  0  0  0  0999 V2000
   48.4980   33.9610   41.3490 C   0  0  0  0  0  0  0  0  0  0  0  0
   48.7980   32.6700   40.9280 C   0  0  0  0  0  0  0  0  0  0  0  0
   49.9950   32.0640   41.2720 C   0  0  0  0  0  0  0  0  0  0  0  0
   50.8600   32.8130   42.0470 N   0  0  0  0  0  0  0  0  0  0  0  0
   50.5330   34.0640   42.4360 C   0  0  0  0  0  0  0  0  0  0  0  0
   49.3790   34.6130   42.0890 N   0  0  0  0  0  0  0  0  0  0  0  0
   50.2570   31.0610   40.9600 H   0  0  0  0  0  0  0  0  0  0  0  0
   51.2730   34.5740   43.0420 H   0  0  0  0  0  0  0  0  0  0  0  0
   47.1950   34.4960   40.9200 C   0  0  0  0  0  0  0  0  0  0  0  0
   47.3690   35.3080   40.1710 H   0  0  0  0  0  0  0  0  0  0  0  0
   46.5860   33.7380   40.3930 H   0  0  0  0  0  0  0  0  0  0  0  0
   46.3540   34.9840   42.0620 C   0  0  0  0  0  0  0  0  0  0  0  0
   46.5430   34.3070   42.9380 H   0  0  0  0  0  0  0  0  0  0  0  0
   46.6760   35.9960   42.3920 H   0  0  0  0  0  0  0  0  0  0  0  0
   44.8870   34.9420   41.7830 C   0  0  0  0  0  0  0  0  0  0  0  0
   43.9800   35.4680   42.7450 C   0  0  0  0  0  0  0  0  0  0  0  0
   42.3390   35.1890   41.9590 S   0  0  0  0  0  0  0  0  0  0  0  0
   43.1760   34.4010   40.4500 C   0  0  0  0  0  0  0  0  0  0  0  0
   44.2850   34.4670   40.7300 N   0  0  0  0  0  0  0  0  0  0  0  0
   44.2210   35.9180   43.7020 H   0  0  0  0  0  0  0  0  0  0  0  0
   42.4610   33.9150   39.3580 O   0  0  0  0  0  0  0  0  0  0  0  0
   40.4830   34.3070   37.6400 O   0  0  0  0  0  0  0  0  0  0  0  0
   41.5480   35.0300   38.4590 P   0  0  0  0  0  0  0  0  0  0  0  0
   40.8030   36.1020   39.5310 O   0  0  0  0  0  0  0  0  0  0  0  0
   39.9490   35.7280   39.8490 H   0  0  0  0  0  0  0  0  0  0  0  0
   42.5900   35.9300   37.4510 O   0  0  0  0  0  0  0  0  0  0  0  0
   42.0990   36.7310   37.1820 H   0  0  0  0  0  0  0  0  0  0  0  0
   47.6340   31.7410   39.9200 S   0  0  0  0  0  0  0  0  0  0  0  0
   47.8340   32.1590   38.1940 C   0  0  0  0  0  0  0  0  0  0  0  0
   48.9930   32.6920   37.7280 N   0  0  0  0  0  0  0  0  0  0  0  0
   49.1110   32.9940   36.4240 C   0  0  0  0  0  3  0  0  0  0  0  0
   48.0870   32.7730   35.5750 N   0  0  0  0  0  0  0  0  0  0  0  0
   46.9200   32.2430   36.0140 C   0  0  0  0  0  0  0  0  0  0  0  0
   45.9350   32.0560   35.0650 C   0  0  0  0  0  3  0  0  0  0  0  0
   44.7300   31.5210   35.4590 C   0  0  0  0  0  0  0  0  0  0  0  0
   43.9840   31.3910   34.6840 H   0  0  0  0  0  0  0  0  0  0  0  0
   44.5560   31.1890   36.7990 C   0  0  0  0  0  0  0  0  0  0  0  0
   43.5980   30.7730   37.0640 H   0  0  0  0  0  0  0  0  0  0  0  0
   45.5660   31.3900   37.7230 C   0  0  0  0  0  3  0  0  0  0  0  0
   46.7820   31.9260   37.3500 C   0  0  0  0  0  0  0  0  0  0  0  0
  1  6  1  0  0  0  0
  2  3  1  0  0  0  0
  2  1  2  0  0  0  0
  3  4  2  0  0  0  0
  4  5  1  0  0  0  0
  5  8  1  0  0  0  0
  6  5  2  0  0  0  0
  7  3  1  0  0  0  0
  9  1  1  0  0  0  0
  9 12  1  0  0  0  0
 10  9  1  0  0  0  0
 11  9  1  0  0  0  0
 12 14  1  0  0  0  0
 12 13  1  0  0  0  0
 15 12  1  0  0  0  0
 15 16  2  0  0  0  0
 16 20  1  0  0  0  0
 17 16  1  0  0  0  0
 18 19  2  0  0  0  0
 18 17  1  0  0  0  0
 19 15  1  0  0  0  0
 21 18  1  0  0  0  0
 22 23  2  0  0  0  0
 23 21  1  0  0  0  0
 23 24  1  0  0  0  0
 24 25  1  0  0  0  0
 26 23  1  0  0  0  0
 27 26  1  0  0  0  0
 28  2  1  0  0  0  0
 29 28  1  0  0  0  0
 30 29  1  0  0  0  0
 31 30  2  0  0  0  0
 32 33  2  0  0  0  0
 32 31  1  0  0  0  0
 33 40  1  0  0  0  0
 34 35  2  0  0  0  0
 34 33  1  0  0  0  0
 35 37  1  0  0  0  0
 36 35  1  0  0  0  0
 37 38  1  0  0  0  0
 37 39  2  0  0  0  0
 40 39  1  0  0  0  0
 40 29  2  0  0  0  0
M  END
>  <minimizedAffinity>
-5.32768059

>  <minimizedRMSD>
0.408399731

$$$$
