
 OpenBabel03252507463D

 40 43  0  0  0  0  0  0  0  0999 V2000
   48.3580   33.9510   41.5600 C   0  0  0  0  0  0  0  0  0  0  0  0
   48.9360   32.7060   41.3360 C   0  0  0  0  0  0  0  0  0  0  0  0
   50.2330   32.4350   41.7430 C   0  0  0  0  0  0  0  0  0  0  0  0
   50.9040   33.4630   42.3770 N   0  0  0  0  0  0  0  0  0  0  0  0
   50.3080   34.6570   42.5770 C   0  0  0  0  0  0  0  0  0  0  0  0
   49.0660   34.8840   42.1740 N   0  0  0  0  0  0  0  0  0  0  0  0
   50.7100   31.4760   41.5830 H   0  0  0  0  0  0  0  0  0  0  0  0
   50.9110   35.4030   43.0820 H   0  0  0  0  0  0  0  0  0  0  0  0
   46.9760   34.1180   41.0820 C   0  0  0  0  0  0  0  0  0  0  0  0
   47.0030   34.4560   40.0170 H   0  0  0  0  0  0  0  0  0  0  0  0
   46.4190   33.1630   41.0710 H   0  0  0  0  0  0  0  0  0  0  0  0
   46.1700   35.0590   41.9280 C   0  0  0  0  0  0  0  0  0  0  0  0
   46.3460   34.7870   43.0030 H   0  0  0  0  0  0  0  0  0  0  0  0
   46.5330   36.1050   41.8210 H   0  0  0  0  0  0  0  0  0  0  0  0
   44.6990   34.9660   41.6870 C   0  0  0  0  0  0  0  0  0  0  0  0
   43.7980   35.3810   42.7080 C   0  0  0  0  0  0  0  0  0  0  0  0
   42.1480   35.0780   41.9500 S   0  0  0  0  0  0  0  0  0  0  0  0
   42.9730   34.4360   40.3680 C   0  0  0  0  0  0  0  0  0  0  0  0
   44.0860   34.5350   40.6210 N   0  0  0  0  0  0  0  0  0  0  0  0
   44.0480   35.7760   43.6870 H   0  0  0  0  0  0  0  0  0  0  0  0
   42.2480   33.9920   39.2650 O   0  0  0  0  0  0  0  0  0  0  0  0
   40.3100   34.4930   37.5300 O   0  0  0  0  0  0  0  0  0  0  0  0
   41.4050   35.1550   38.3600 P   0  0  0  0  0  0  0  0  0  0  0  0
   40.7090   36.2650   39.4270 O   0  0  0  0  0  0  0  0  0  0  0  0
   39.8340   35.9370   39.7370 H   0  0  0  0  0  0  0  0  0  0  0  0
   42.5030   35.9990   37.3630 O   0  0  0  0  0  0  0  0  0  0  0  0
   42.0580   36.8260   37.0910 H   0  0  0  0  0  0  0  0  0  0  0  0
   48.0160   31.4040   40.5050 S   0  0  0  0  0  0  0  0  0  0  0  0
   48.9070   30.8300   39.0680 C   0  0  0  0  0  0  0  0  0  0  0  0
   49.7230   29.7450   39.1300 N   0  0  0  0  0  0  0  0  0  0  0  0
   50.3800   29.3410   38.0290 C   0  0  0  0  0  3  0  0  0  0  0  0
   50.2340   30.0020   36.8650 N   0  0  0  0  0  0  0  0  0  0  0  0
   49.4280   31.0870   36.7740 C   0  0  0  0  0  0  0  0  0  0  0  0
   49.3480   31.6940   35.5360 C   0  0  0  0  0  3  0  0  0  0  0  0
   48.5430   32.7990   35.3910 C   0  0  0  0  0  0  0  0  0  0  0  0
   48.5080   33.2450   34.4040 H   0  0  0  0  0  0  0  0  0  0  0  0
   47.8410   33.2610   36.5000 C   0  0  0  0  0  0  0  0  0  0  0  0
   47.2210   34.1280   36.3420 H   0  0  0  0  0  0  0  0  0  0  0  0
   47.9440   32.6280   37.7260 C   0  0  0  0  0  3  0  0  0  0  0  0
   48.7460   31.5170   37.8950 C   0  0  0  0  0  0  0  0  0  0  0  0
  1  6  1  0  0  0  0
  2  1  2  0  0  0  0
  2  3  1  0  0  0  0
  3  4  2  0  0  0  0
  4  5  1  0  0  0  0
  5  8  1  0  0  0  0
  6  5  2  0  0  0  0
  7  3  1  0  0  0  0
  9  1  1  0  0  0  0
  9 12  1  0  0  0  0
 10  9  1  0  0  0  0
 11  9  1  0  0  0  0
 12 13  1  0  0  0  0
 14 12  1  0  0  0  0
 15 12  1  0  0  0  0
 15 16  2  0  0  0  0
 16 20  1  0  0  0  0
 17 16  1  0  0  0  0
 18 19  2  0  0  0  0
 18 17  1  0  0  0  0
 19 15  1  0  0  0  0
 21 18  1  0  0  0  0
 22 23  2  0  0  0  0
 23 21  1  0  0  0  0
 23 24  1  0  0  0  0
 24 25  1  0  0  0  0
 26 23  1  0  0  0  0
 27 26  1  0  0  0  0
 28  2  1  0  0  0  0
 29 30  1  0  0  0  0
 29 28  1  0  0  0  0
 31 30  2  0  0  0  0
 32 31  1  0  0  0  0
 33 32  2  0  0  0  0
 33 40  1  0  0  0  0
 34 33  1  0  0  0  0
 35 34  2  0  0  0  0
 35 37  1  0  0  0  0
 36 35  1  0  0  0  0
 37 39  2  0  0  0  0
 38 37  1  0  0  0  0
 39 40  1  0  0  0  0
 40 29  2  0  0  0  0
M  END
>  <minimizedAffinity>
-4.99266481

>  <minimizedRMSD>
1.88037777

$$$$
