
 OpenBabel03252500043D

 48 52  0  0  0  0  0  0  0  0999 V2000
   44.5520   35.2640   45.1250 C   0  0  0  0  0  0  0  0  0  0  0  0
   45.1470   35.2870   43.8860 C   0  0  0  0  0  0  0  0  0  0  0  0
   46.2030   34.4070   43.5920 C   0  0  0  0  0  0  0  0  0  0  0  0
   46.5330   33.5920   44.6170 N   0  0  0  0  0  0  0  0  0  0  0  0
   45.9660   33.5660   45.8030 C   0  0  0  0  0  0  0  0  0  0  0  0
   44.9770   34.4110   46.0370 N   0  0  0  0  0  0  0  0  0  0  0  0
   43.7460   35.9620   45.2950 H   0  0  0  0  0  0  0  0  0  0  0  0
   46.9050   34.3160   42.3620 C   0  0  0  0  0  0  0  0  0  0  0  0
   47.8410   35.3070   42.0840 C   0  0  0  0  0  0  0  0  0  0  0  0
   48.6070   35.3760   40.9440 C   0  0  0  0  0  0  0  0  0  0  0  0
   48.4820   34.4250   39.9800 C   0  0  0  0  0  0  0  0  0  0  0  0
   47.5750   33.4090   40.1810 C   0  0  0  0  0  0  0  0  0  0  0  0
   47.3980   32.4220   39.2520 C   0  0  0  0  0  0  0  0  0  0  0  0
   46.5070   31.3970   39.4150 C   0  0  0  0  0  0  0  0  0  0  0  0
   45.7520   31.3830   40.6050 C   0  0  0  0  0  0  0  0  0  0  0  0
   45.9600   32.3930   41.5140 C   0  0  0  0  0  0  0  0  0  0  0  0
   46.8310   33.3940   41.3510 C   0  0  0  0  0  0  0  0  0  0  0  0
   48.0260   36.1230   42.7890 H   0  0  0  0  0  0  0  0  0  0  0  0
   49.3190   36.1600   40.7690 H   0  0  0  0  0  0  0  0  0  0  0  0
   49.0580   34.4500   39.0890 H   0  0  0  0  0  0  0  0  0  0  0  0
   47.9840   32.4660   38.3660 H   0  0  0  0  0  0  0  0  0  0  0  0
   46.4000   30.6350   38.6520 H   0  0  0  0  0  0  0  0  0  0  0  0
   45.0710   30.5650   40.6900 H   0  0  0  0  0  0  0  0  0  0  0  0
   45.1300   32.2430   42.6470 N   0  0  0  0  0  0  0  0  0  0  0  0
   44.2400   32.5650   43.0440 H   0  0  0  0  0  0  0  0  0  0  0  0
   45.6490   31.5440   43.2580 H   0  0  0  0  0  0  0  0  0  0  0  0
   46.5370   32.5540   46.7470 C   0  0  0  0  0  0  0  0  0  0  0  0
   45.5640   31.9600   47.4900 F   0  0  0  0  0  0  0  0  0  0  0  0
   47.4960   33.1360   47.5570 F   0  0  0  0  0  0  0  0  0  0  0  0
   47.2700   31.6020   46.0000 F   0  0  0  0  0  0  0  0  0  0  0  0
   44.7850   36.1980   42.7640 C   0  0  0  0  0  0  0  0  0  0  0  0
   45.6370   36.8860   42.5240 H   0  0  0  0  0  0  0  0  0  0  0  0
   44.0010   36.8280   43.1630 H   0  0  0  0  0  0  0  0  0  0  0  0
   44.4270   35.5110   41.5060 C   0  0  0  0  0  0  0  0  0  0  0  0
   45.0110   34.6260   41.2630 H   0  0  0  0  0  0  0  0  0  0  0  0
   44.7710   36.2050   40.6760 H   0  0  0  0  0  0  0  0  0  0  0  0
   42.9860   35.1820   41.3450 C   0  0  0  0  0  0  0  0  0  0  0  0
   41.9120   35.5560   42.0530 N   0  0  0  0  0  0  0  0  0  0  0  0
   40.6520   35.2440   41.8610 C   0  0  0  0  0  0  0  0  0  0  0  0
   40.3060   34.4470   40.8400 N   0  0  0  0  0  0  0  0  0  0  0  0
   41.2950   33.9920   40.0380 C   0  0  0  0  0  0  0  0  0  0  0  0
   40.8780   33.1730   39.0120 C   0  0  0  0  0  0  0  0  0  0  0  0
   41.8340   32.6650   38.1590 C   0  0  0  0  0  0  0  0  0  0  0  0
   41.5200   32.0270   37.3560 H   0  0  0  0  0  0  0  0  0  0  0  0
   43.1620   32.9830   38.3490 C   0  0  0  0  0  0  0  0  0  0  0  0
   43.8820   32.5730   37.6720 H   0  0  0  0  0  0  0  0  0  0  0  0
   43.4880   33.8110   39.4030 C   0  0  0  0  0  0  0  0  0  0  0  0
   42.5980   34.3630   40.3030 C   0  0  0  0  0  0  0  0  0  0  0  0
  1  7  1  0  0  0  0
  1  6  1  0  0  0  0
  2  1  2  0  0  0  0
  3  2  1  0  0  0  0
  3  4  2  0  0  0  0
  4  5  1  0  0  0  0
  5  6  2  0  0  0  0
  5 27  1  0  0  0  0
  8  3  1  0  0  0  0
  9  8  1  0  0  0  0
  9 18  1  0  0  0  0
 10  9  2  0  0  0  0
 11 12  2  0  0  0  0
 11 10  1  0  0  0  0
 12 17  1  0  0  0  0
 13 14  2  0  0  0  0
 13 12  1  0  0  0  0
 14 15  1  0  0  0  0
 15 23  1  0  0  0  0
 15 16  2  0  0  0  0
 16 24  1  0  0  0  0
 17 16  1  0  0  0  0
 17  8  2  0  0  0  0
 19 10  1  0  0  0  0
 20 11  1  0  0  0  0
 21 13  1  0  0  0  0
 22 14  1  0  0  0  0
 24 25  1  0  0  0  0
 24 26  1  0  0  0  0
 27 28  1  0  0  0  0
 27 29  1  0  0  0  0
 30 27  1  0  0  0  0
 31 33  1  0  0  0  0
 31  2  1  0  0  0  0
 32 31  1  0  0  0  0
 34 31  1  0  0  0  0
 35 34  1  0  0  0  0
 36 34  1  0  0  0  0
 37 34  1  0  0  0  0
 37 38  1  0  0  0  0
 39 38  2  0  0  0  0
 40 39  1  0  0  0  0
 41 48  1  0  0  0  0
 41 40  2  0  0  0  0
 42 41  1  0  0  0  0
 43 45  1  0  0  0  0
 43 42  2  0  0  0  0
 44 43  1  0  0  0  0
 45 47  2  0  0  0  0
 46 45  1  0  0  0  0
 47 48  1  0  0  0  0
 48 37  2  0  0  0  0
M  END
>  <minimizedAffinity>
-7.33414745

>  <minimizedRMSD>
1.85695124

$$$$
