
 OpenBabel03242523303D

 25 27  0  0  0  0  0  0  0  0999 V2000
   46.8370   31.7360   45.4780 S   0  0  0  0  0  0  0  0  0  0  0  0
   45.6200   30.6140   44.8100 C   0  0  0  0  0  0  0  0  0  0  0  0
   45.0490   30.7080   43.5840 N   0  0  0  0  0  0  0  0  0  0  0  0
   44.1380   29.7960   43.1960 C   0  0  0  0  0  3  0  0  0  0  0  0
   43.7650   28.7680   44.0060 N   0  0  0  0  0  0  0  0  0  0  0  0
   44.3060   28.6260   45.2480 C   0  0  0  0  0  0  0  0  0  0  0  0
   43.8940   27.5690   46.0330 C   0  0  0  0  0  3  0  0  0  0  0  0
   44.4680   27.4510   47.3030 C   0  0  0  0  0  0  0  0  0  0  0  0
   44.2270   26.6690   48.0050 H   0  0  0  0  0  0  0  0  0  0  0  0
   45.4020   28.3690   47.7260 C   0  0  0  0  0  0  0  0  0  0  0  0
   45.8780   28.3170   48.7110 H   0  0  0  0  0  0  0  0  0  0  0  0
   45.7720   29.4050   46.8920 C   0  0  0  0  0  3  0  0  0  0  0  0
   45.2360   29.5710   45.6230 C   0  0  0  0  0  0  0  0  0  0  0  0
   45.9770   33.1090   46.3150 C   0  0  0  0  0  0  0  0  0  0  0  0
   46.6070   33.5270   47.1340 H   0  0  0  0  0  0  0  0  0  0  0  0
   45.0390   32.7660   46.7870 H   0  0  0  0  0  0  0  0  0  0  0  0
   44.4980   35.9900   44.4760 C   0  0  0  0  0  0  0  0  0  0  0  0
   45.2020   35.9150   43.2650 C   0  0  0  0  0  0  0  0  0  0  0  0
   46.1580   34.8940   43.1020 C   0  0  0  0  0  0  0  0  0  0  0  0
   46.3630   34.0160   44.1270 N   0  0  0  0  0  0  0  0  0  0  0  0
   45.6520   34.1270   45.2930 C   0  0  0  0  0  0  0  0  0  0  0  0
   44.7480   35.0950   45.4430 N   0  0  0  0  0  0  0  0  0  0  0  0
   43.7760   36.7830   44.5660 H   0  0  0  0  0  0  0  0  0  0  0  0
   45.0830   36.5760   42.4230 H   0  0  0  0  0  0  0  0  0  0  0  0
   46.7370   34.7630   42.2150 H   0  0  0  0  0  0  0  0  0  0  0  0
  1 14  1  0  0  0  0
  2  1  1  0  0  0  0
  2 13  1  0  0  0  0
  3  2  2  0  0  0  0
  4  3  1  0  0  0  0
  4  5  2  0  0  0  0
  5  6  1  0  0  0  0
  6 13  2  0  0  0  0
  6  7  1  0  0  0  0
  7  8  2  0  0  0  0
  8 10  1  0  0  0  0
  8  9  1  0  0  0  0
 10 11  1  0  0  0  0
 12 10  2  0  0  0  0
 13 12  1  0  0  0  0
 14 16  1  0  0  0  0
 14 15  1  0  0  0  0
 17 23  1  0  0  0  0
 17 22  1  0  0  0  0
 18 17  2  0  0  0  0
 19 18  1  0  0  0  0
 19 20  2  0  0  0  0
 20 21  1  0  0  0  0
 21 22  2  0  0  0  0
 21 14  1  0  0  0  0
 24 18  1  0  0  0  0
 25 19  1  0  0  0  0
M  END
>  <minimizedAffinity>
-4.25318527

>  <minimizedRMSD>
1.5297488

$$$$
