
 OpenBabel03252508033D

 45 49  0  0  1  0  0  0  0  0999 V2000
   44.7930   33.2330   39.9650 C   0  0  0  0  0  0  0  0  0  0  0  0
   45.5540   32.9270   41.0540 C   0  0  0  0  0  0  0  0  0  0  0  0
   46.8600   32.4380   40.8390 C   0  0  0  0  0  0  0  0  0  0  0  0
   47.3920   32.2600   39.5790 C   0  0  0  0  0  0  0  0  0  0  0  0
   46.6220   32.5700   38.4940 C   0  0  0  0  0  0  0  0  0  0  0  0
   45.3610   33.0410   38.6990 C   0  0  0  0  0  0  0  0  0  0  0  0
   47.5340   32.1620   41.6320 H   0  0  0  0  0  0  0  0  0  0  0  0
   48.3850   31.8900   39.4180 H   0  0  0  0  0  0  0  0  0  0  0  0
   46.9640   32.4580   37.4960 H   0  0  0  0  0  0  0  0  0  0  0  0
   44.7390   33.2900   37.8230 H   0  0  0  0  0  0  0  0  0  0  0  0
   43.2320   33.8650   40.1000 S   0  0  0  0  0  0  0  0  0  0  0  0
   43.4840   35.2990   40.5540 O   0  0  0  0  0  0  0  0  0  0  0  0
   42.5230   33.1360   41.2190 O   0  0  0  0  0  0  0  0  0  0  0  0
   42.1510   34.4040   38.9710 C   0  0  0  0  0  0  0  0  0  0  0  0
   42.1370   35.5900   38.3180 N   0  0  0  0  0  0  0  0  0  0  0  0
   41.2490   36.1450   37.5420 C   0  0  0  0  0  3  0  0  0  0  0  0
   40.1560   35.4220   37.3520 N   0  0  0  0  0  0  0  0  0  0  0  0
   39.9910   34.2220   37.9140 C   0  0  0  0  0  0  0  0  0  0  0  0
   38.7660   33.6330   37.5950 C   0  0  0  0  0  3  0  0  0  0  0  0
   38.5150   32.3930   38.1420 C   0  0  0  0  0  0  0  0  0  0  0  0
   37.5860   31.8870   37.9330 H   0  0  0  0  0  0  0  0  0  0  0  0
   39.4600   31.8050   38.9580 C   0  0  0  0  0  0  0  0  0  0  0  0
   39.2380   30.8330   39.3710 H   0  0  0  0  0  0  0  0  0  0  0  0
   40.6340   32.4740   39.2080 C   0  0  0  0  0  3  0  0  0  0  0  0
   40.9760   33.7100   38.7170 C   0  0  0  0  0  0  0  0  0  0  0  0
   45.0790   33.0640   42.4170 C   0  0  0  0  0  0  0  0  0  0  0  0
   44.8570   34.1870   42.9880 O   0  0  0  0  0  0  0  0  0  0  0  0
   44.8760   31.8060   43.0750 C   0  0  0  0  0  0  0  0  0  0  0  0
   45.7560   31.5440   44.1670 C   0  0  0  0  0  0  0  0  0  0  0  0
   45.5760   30.3300   44.8280 C   0  0  0  0  0  0  0  0  0  0  0  0
   44.5930   29.4940   44.3990 N   0  0  0  0  0  0  0  0  0  0  0  0
   43.7930   29.8050   43.3540 C   0  0  0  0  0  0  0  0  0  0  0  0
   43.9420   30.9220   42.7250 N   0  0  0  0  0  0  0  0  0  0  0  0
   46.5450   32.1260   44.5710 H   0  0  0  0  0  0  0  0  0  0  0  0
   46.1700   29.9990   45.6720 H   0  0  0  0  0  0  0  0  0  0  0  0
   42.7380   28.8360   42.9590 C   0  0  1  0  0  0  0  0  0  0  0  0
   41.7790   29.2150   41.8480 C   0  0  0  0  0  0  0  0  0  0  0  0
   42.8890   28.2430   41.6240 C   0  0  1  0  0  0  0  0  0  0  0  0
   42.3410   28.2140   43.7630 H   0  0  0  0  0  0  0  0  0  0  0  0
   40.7640   28.7650   41.9220 H   0  0  0  0  0  0  0  0  0  0  0  0
   41.8440   30.2620   41.5090 H   0  0  0  0  0  0  0  0  0  0  0  0
   42.6420   27.1750   41.4770 H   0  0  0  0  0  0  0  0  0  0  0  0
   43.8930   28.7760   40.7080 N   0  0  0  0  0  0  0  0  0  0  0  0
   44.1620   28.0300   39.9990 H   0  0  0  0  0  0  0  0  0  0  0  0
   43.5930   29.6060   40.1860 H   0  0  0  0  0  0  0  0  0  0  0  0
  1 11  1  0  0  0  0
  1  2  1  0  0  0  0
  2 26  1  0  0  0  0
  3  2  2  0  0  0  0
  3  7  1  0  0  0  0
  4  3  1  0  0  0  0
  5  6  1  0  0  0  0
  5  4  2  0  0  0  0
  6  1  2  0  0  0  0
  8  4  1  0  0  0  0
  9  5  1  0  0  0  0
 10  6  1  0  0  0  0
 11 12  2  0  0  0  0
 11 13  2  0  0  0  0
 14 11  1  0  0  0  0
 15 14  2  0  0  0  0
 16 15  1  0  0  0  0
 17 16  2  0  0  0  0
 17 18  1  0  0  0  0
 18 25  1  0  0  0  0
 19 18  2  0  0  0  0
 19 20  1  0  0  0  0
 20 22  2  0  0  0  0
 21 20  1  0  0  0  0
 22 24  1  0  0  0  0
 22 23  1  0  0  0  0
 25 14  1  0  0  0  0
 25 24  2  0  0  0  0
 26 27  2  0  0  0  0
 26 28  1  0  0  0  0
 28 29  1  0  0  0  0
 29 34  1  0  0  0  0
 29 30  2  0  0  0  0
 30 35  1  0  0  0  0
 31 30  1  0  0  0  0
 32 31  2  0  0  0  0
 33 28  2  0  0  0  0
 33 32  1  0  0  0  0
 36 32  1  0  0  0  0
 36 39  1  1  0  0  0
 37 40  1  0  0  0  0
 37 36  1  0  0  0  0
 38 42  1  6  0  0  0
 38 37  1  0  0  0  0
 38 36  1  0  0  0  0
 41 37  1  0  0  0  0
 43 38  1  0  0  0  0
 44 43  1  0  0  0  0
 45 43  1  0  0  0  0
M  END
>  <minimizedAffinity>
-5.06338358

>  <minimizedRMSD>
6.36497736

$$$$
