
 OpenBabel03242515153D

 37 40  0  0  0  0  0  0  0  0999 V2000
   36.9470   30.1050   38.2540 C   0  0  0  0  0  0  0  0  0  0  0  0
   38.1820   29.6930   37.8390 C   0  0  0  0  0  0  0  0  0  0  0  0
   39.0830   30.6620   38.1780 C   0  0  0  0  0  0  0  0  0  0  0  0
   38.4100   31.6430   38.7840 N   0  0  0  0  0  0  0  0  0  0  0  0
   37.1150   31.2920   38.8240 N   0  0  0  0  0  0  0  0  0  0  0  0
   38.3530   28.7530   37.3360 H   0  0  0  0  0  0  0  0  0  0  0  0
   40.1350   30.5820   37.9610 H   0  0  0  0  0  0  0  0  0  0  0  0
   39.0850   32.8030   39.2570 C   0  0  0  0  0  0  0  0  0  0  0  0
   38.5660   33.5770   40.2310 N   0  0  0  0  0  0  0  0  0  0  0  0
   39.1750   34.6830   40.7040 C   0  0  0  0  0  3  0  0  0  0  0  0
   40.3640   35.0990   40.2320 N   0  0  0  0  0  0  0  0  0  0  0  0
   40.9440   34.3630   39.2500 C   0  0  0  0  0  0  0  0  0  0  0  0
   42.1690   34.7140   38.7030 C   0  0  0  0  0  3  0  0  0  0  0  0
   42.7750   33.9770   37.7010 C   0  0  0  0  0  0  0  0  0  0  0  0
   43.7380   34.2750   37.2890 H   0  0  0  0  0  0  0  0  0  0  0  0
   42.1230   32.8510   37.2410 C   0  0  0  0  0  0  0  0  0  0  0  0
   42.5890   32.2590   36.4510 H   0  0  0  0  0  0  0  0  0  0  0  0
   40.8970   32.4510   37.7490 C   0  0  0  0  0  3  0  0  0  0  0  0
   40.3140   33.2160   38.7570 C   0  0  0  0  0  0  0  0  0  0  0  0
   35.6280   29.4480   38.1420 C   0  0  0  0  0  0  0  0  0  0  0  0
   34.9200   30.1060   37.5710 H   0  0  0  0  0  0  0  0  0  0  0  0
   35.6990   28.4770   37.6080 H   0  0  0  0  0  0  0  0  0  0  0  0
   35.0950   29.1100   39.5090 C   0  0  0  0  0  0  0  0  0  0  0  0
   34.0470   28.7700   39.3750 H   0  0  0  0  0  0  0  0  0  0  0  0
   35.0650   29.9750   40.1960 H   0  0  0  0  0  0  0  0  0  0  0  0
   37.1060   26.0790   40.4590 C   0  0  0  0  0  0  0  0  0  0  0  0
   37.4390   26.4280   41.7940 C   0  0  0  0  0  0  0  0  0  0  0  0
   36.9690   27.6450   42.2750 C   0  0  0  0  0  0  0  0  0  0  0  0
   36.2300   28.4040   41.4340 N   0  0  0  0  0  0  0  0  0  0  0  0
   35.9280   28.0480   40.1710 C   0  0  0  0  0  0  0  0  0  0  0  0
   36.3720   26.8840   39.6950 N   0  0  0  0  0  0  0  0  0  0  0  0
   37.4440   25.1470   40.0340 H   0  0  0  0  0  0  0  0  0  0  0  0
   38.0410   25.6860   42.3070 H   0  0  0  0  0  0  0  0  0  0  0  0
   37.3290   27.9700   43.6450 C   0  0  0  0  0  0  0  0  0  0  0  0
   38.3550   27.1140   44.0620 F   0  0  0  0  0  0  0  0  0  0  0  0
   36.2420   27.6220   44.4300 F   0  0  0  0  0  0  0  0  0  0  0  0
   37.7310   29.2660   43.8090 F   0  0  0  0  0  0  0  0  0  0  0  0
  1  5  2  0  0  0  0
  2  3  2  0  0  0  0
  2  1  1  0  0  0  0
  3  4  1  0  0  0  0
  4  5  1  0  0  0  0
  4  8  1  0  0  0  0
  6  2  1  0  0  0  0
  7  3  1  0  0  0  0
  8  9  1  0  0  0  0
  9 10  2  0  0  0  0
 11 10  1  0  0  0  0
 12 11  2  0  0  0  0
 13 12  1  0  0  0  0
 14 13  2  0  0  0  0
 15 14  1  0  0  0  0
 16 14  1  0  0  0  0
 16 18  2  0  0  0  0
 17 16  1  0  0  0  0
 18 19  1  0  0  0  0
 19 12  1  0  0  0  0
 19  8  2  0  0  0  0
 20  1  1  0  0  0  0
 20 23  1  0  0  0  0
 21 20  1  0  0  0  0
 22 20  1  0  0  0  0
 23 30  1  0  0  0  0
 23 25  1  0  0  0  0
 24 23  1  0  0  0  0
 26 27  1  0  0  0  0
 27 28  2  0  0  0  0
 27 33  1  0  0  0  0
 28 34  1  0  0  0  0
 29 28  1  0  0  0  0
 30 29  2  0  0  0  0
 31 30  1  0  0  0  0
 31 26  2  0  0  0  0
 32 26  1  0  0  0  0
 34 37  1  0  0  0  0
 34 35  1  0  0  0  0
 34 36  1  0  0  0  0
M  END
>  <minimizedAffinity>
-7.07905245

$$$$

 OpenBabel03242515153D

 37 40  0  0  0  0  0  0  0  0999 V2000
   38.6760   33.5990   39.8380 C   0  0  0  0  0  0  0  0  0  0  0  0
   39.0990   34.5810   40.6900 C   0  0  0  0  0  0  0  0  0  0  0  0
   40.4530   34.7000   40.5530 C   0  0  0  0  0  0  0  0  0  0  0  0
   40.8450   33.8090   39.6390 N   0  0  0  0  0  0  0  0  0  0  0  0
   39.7570   33.1480   39.2130 N   0  0  0  0  0  0  0  0  0  0  0  0
   38.4310   35.1320   41.3350 H   0  0  0  0  0  0  0  0  0  0  0  0
   41.0360   35.4080   41.1170 H   0  0  0  0  0  0  0  0  0  0  0  0
   42.2170   33.6950   39.2780 C   0  0  0  0  0  0  0  0  0  0  0  0
   42.5960   33.1640   38.0980 N   0  0  0  0  0  0  0  0  0  0  0  0
   43.8850   33.0390   37.7220 C   0  0  0  0  0  3  0  0  0  0  0  0
   44.9000   33.4410   38.5070 N   0  0  0  0  0  0  0  0  0  0  0  0
   44.5870   33.9850   39.7110 C   0  0  0  0  0  0  0  0  0  0  0  0
   45.5660   34.4280   40.5870 C   0  0  0  0  0  3  0  0  0  0  0  0
   45.2660   34.9850   41.8170 C   0  0  0  0  0  0  0  0  0  0  0  0
   46.0550   35.3240   42.4880 H   0  0  0  0  0  0  0  0  0  0  0  0
   43.9370   35.0980   42.1710 C   0  0  0  0  0  0  0  0  0  0  0  0
   43.6850   35.5350   43.1380 H   0  0  0  0  0  0  0  0  0  0  0  0
   42.9140   34.6730   41.3360 C   0  0  0  0  0  3  0  0  0  0  0  0
   43.2520   34.1160   40.1040 C   0  0  0  0  0  0  0  0  0  0  0  0
   37.3220   33.0670   39.5840 C   0  0  0  0  0  0  0  0  0  0  0  0
   36.7640   32.9630   40.5520 H   0  0  0  0  0  0  0  0  0  0  0  0
   36.7350   33.7390   38.9220 H   0  0  0  0  0  0  0  0  0  0  0  0
   37.4050   31.7570   38.8460 C   0  0  0  0  0  0  0  0  0  0  0  0
   38.4760   31.5820   38.6130 H   0  0  0  0  0  0  0  0  0  0  0  0
   36.8660   31.7610   37.8810 H   0  0  0  0  0  0  0  0  0  0  0  0
   35.4250   28.9230   40.3210 C   0  0  0  0  0  0  0  0  0  0  0  0
   36.2050   28.6700   41.4800 C   0  0  0  0  0  0  0  0  0  0  0  0
   37.3300   29.4630   41.6800 C   0  0  0  0  0  0  0  0  0  0  0  0
   37.5950   30.4140   40.7570 N   0  0  0  0  0  0  0  0  0  0  0  0
   36.8370   30.6320   39.6660 C   0  0  0  0  0  0  0  0  0  0  0  0
   35.7550   29.8810   39.4590 N   0  0  0  0  0  0  0  0  0  0  0  0
   34.5410   28.3380   40.1160 H   0  0  0  0  0  0  0  0  0  0  0  0
   35.8280   27.8640   42.0990 H   0  0  0  0  0  0  0  0  0  0  0  0
   38.1060   29.1770   42.8760 C   0  0  0  0  0  0  0  0  0  0  0  0
   38.9570   28.0950   42.6190 F   0  0  0  0  0  0  0  0  0  0  0  0
   37.2110   28.7010   43.8200 F   0  0  0  0  0  0  0  0  0  0  0  0
   38.8480   30.2390   43.3090 F   0  0  0  0  0  0  0  0  0  0  0  0
  1  2  1  0  0  0  0
  2  6  1  0  0  0  0
  3  2  2  0  0  0  0
  3  7  1  0  0  0  0
  4  3  1  0  0  0  0
  5  4  1  0  0  0  0
  5  1  2  0  0  0  0
  8  4  1  0  0  0  0
  8 19  1  0  0  0  0
  9  8  2  0  0  0  0
 10  9  1  0  0  0  0
 10 11  2  0  0  0  0
 11 12  1  0  0  0  0
 12 19  2  0  0  0  0
 12 13  1  0  0  0  0
 13 14  2  0  0  0  0
 14 16  1  0  0  0  0
 14 15  1  0  0  0  0
 16 17  1  0  0  0  0
 18 16  2  0  0  0  0
 19 18  1  0  0  0  0
 20  1  1  0  0  0  0
 20 21  1  0  0  0  0
 22 20  1  0  0  0  0
 23 20  1  0  0  0  0
 23 30  1  0  0  0  0
 24 23  1  0  0  0  0
 25 23  1  0  0  0  0
 26 27  1  0  0  0  0
 27 28  2  0  0  0  0
 27 33  1  0  0  0  0
 28 34  1  0  0  0  0
 29 28  1  0  0  0  0
 30 29  2  0  0  0  0
 31 30  1  0  0  0  0
 31 26  2  0  0  0  0
 32 26  1  0  0  0  0
 34 37  1  0  0  0  0
 34 36  1  0  0  0  0
 35 34  1  0  0  0  0
M  END
>  <minimizedAffinity>
-6.75210667

$$$$

 OpenBabel03242515153D

 37 40  0  0  0  0  0  0  0  0999 V2000
   37.2670   29.7200   39.1130 C   0  0  0  0  0  0  0  0  0  0  0  0
   38.4770   29.2850   38.6500 C   0  0  0  0  0  0  0  0  0  0  0  0
   39.3540   30.3290   38.7240 C   0  0  0  0  0  0  0  0  0  0  0  0
   38.6920   31.3760   39.2210 N   0  0  0  0  0  0  0  0  0  0  0  0
   37.4270   30.9930   39.4530 N   0  0  0  0  0  0  0  0  0  0  0  0
   38.6480   28.2780   38.2990 H   0  0  0  0  0  0  0  0  0  0  0  0
   40.3830   30.2490   38.4180 H   0  0  0  0  0  0  0  0  0  0  0  0
   39.3480   32.6240   39.4180 C   0  0  0  0  0  0  0  0  0  0  0  0
   38.8830   33.5380   40.2940 N   0  0  0  0  0  0  0  0  0  0  0  0
   39.4760   34.7300   40.5060 C   0  0  0  0  0  3  0  0  0  0  0  0
   40.5920   35.0980   39.8510 N   0  0  0  0  0  0  0  0  0  0  0  0
   41.1130   34.2240   38.9540 C   0  0  0  0  0  0  0  0  0  0  0  0
   42.2600   34.5170   38.2320 C   0  0  0  0  0  3  0  0  0  0  0  0
   42.8060   33.6370   37.3130 C   0  0  0  0  0  0  0  0  0  0  0  0
   43.7080   33.8930   36.7590 H   0  0  0  0  0  0  0  0  0  0  0  0
   42.1730   32.4260   37.1210 C   0  0  0  0  0  0  0  0  0  0  0  0
   42.5920   31.7220   36.3990 H   0  0  0  0  0  0  0  0  0  0  0  0
   41.0230   32.0780   37.8140 C   0  0  0  0  0  3  0  0  0  0  0  0
   40.5000   32.9870   38.7310 C   0  0  0  0  0  0  0  0  0  0  0  0
   35.9800   29.0070   39.2510 C   0  0  0  0  0  0  0  0  0  0  0  0
   35.2340   29.4220   38.5230 H   0  0  0  0  0  0  0  0  0  0  0  0
   36.0900   27.9210   39.0480 H   0  0  0  0  0  0  0  0  0  0  0  0
   35.4830   29.0960   40.6700 C   0  0  0  0  0  0  0  0  0  0  0  0
   34.5560   28.4880   40.7290 H   0  0  0  0  0  0  0  0  0  0  0  0
   35.2120   30.1210   40.9780 H   0  0  0  0  0  0  0  0  0  0  0  0
   38.1140   28.6310   43.3140 C   0  0  0  0  0  0  0  0  0  0  0  0
   38.3070   27.2290   43.2090 C   0  0  0  0  0  0  0  0  0  0  0  0
   37.5460   26.5460   42.2660 C   0  0  0  0  0  0  0  0  0  0  0  0
   36.6810   27.2700   41.5200 N   0  0  0  0  0  0  0  0  0  0  0  0
   36.5180   28.6010   41.6420 C   0  0  0  0  0  0  0  0  0  0  0  0
   37.2400   29.2700   42.5420 N   0  0  0  0  0  0  0  0  0  0  0  0
   38.6770   29.2110   44.0290 H   0  0  0  0  0  0  0  0  0  0  0  0
   39.0480   26.8320   43.8950 H   0  0  0  0  0  0  0  0  0  0  0  0
   37.7690   25.1110   42.1850 C   0  0  0  0  0  0  0  0  0  0  0  0
   37.9530   24.7540   40.8440 F   0  0  0  0  0  0  0  0  0  0  0  0
   36.5770   24.5080   42.5490 F   0  0  0  0  0  0  0  0  0  0  0  0
   38.8450   24.6870   42.9130 F   0  0  0  0  0  0  0  0  0  0  0  0
  1 20  1  0  0  0  0
  1  5  2  0  0  0  0
  2  3  2  0  0  0  0
  2  1  1  0  0  0  0
  3  4  1  0  0  0  0
  4  8  1  0  0  0  0
  4  5  1  0  0  0  0
  6  2  1  0  0  0  0
  7  3  1  0  0  0  0
  8  9  1  0  0  0  0
  9 10  2  0  0  0  0
 11 10  1  0  0  0  0
 12 11  2  0  0  0  0
 13 12  1  0  0  0  0
 14 13  2  0  0  0  0
 15 14  1  0  0  0  0
 16 14  1  0  0  0  0
 16 18  2  0  0  0  0
 17 16  1  0  0  0  0
 18 19  1  0  0  0  0
 19 12  1  0  0  0  0
 19  8  2  0  0  0  0
 20 23  1  0  0  0  0
 21 20  1  0  0  0  0
 22 20  1  0  0  0  0
 23 24  1  0  0  0  0
 23 25  1  0  0  0  0
 23 30  1  0  0  0  0
 26 32  1  0  0  0  0
 27 26  1  0  0  0  0
 27 33  1  0  0  0  0
 28 27  2  0  0  0  0
 29 30  2  0  0  0  0
 29 28  1  0  0  0  0
 30 31  1  0  0  0  0
 31 26  2  0  0  0  0
 34 28  1  0  0  0  0
 34 36  1  0  0  0  0
 34 37  1  0  0  0  0
 35 34  1  0  0  0  0
M  END
>  <minimizedAffinity>
-6.67999315

$$$$

 OpenBabel03242515153D

 37 40  0  0  0  0  0  0  0  0999 V2000
   36.6750   30.4240   40.9030 C   0  0  0  0  0  0  0  0  0  0  0  0
   35.7580   29.4440   40.6450 C   0  0  0  0  0  0  0  0  0  0  0  0
   36.2570   28.2660   41.1240 C   0  0  0  0  0  0  0  0  0  0  0  0
   37.4520   28.5240   41.6610 N   0  0  0  0  0  0  0  0  0  0  0  0
   37.6930   29.8370   41.5210 N   0  0  0  0  0  0  0  0  0  0  0  0
   34.8190   29.6300   40.1450 H   0  0  0  0  0  0  0  0  0  0  0  0
   35.7260   27.3330   41.0460 H   0  0  0  0  0  0  0  0  0  0  0  0
   38.2250   27.4830   42.2490 C   0  0  0  0  0  0  0  0  0  0  0  0
   39.1800   27.7410   43.1650 N   0  0  0  0  0  0  0  0  0  0  0  0
   39.9320   26.7810   43.7420 C   0  0  0  0  0  3  0  0  0  0  0  0
   39.7800   25.4790   43.4420 N   0  0  0  0  0  0  0  0  0  0  0  0
   38.8340   25.1500   42.5260 C   0  0  0  0  0  0  0  0  0  0  0  0
   38.6050   23.8340   42.1550 C   0  0  0  0  0  3  0  0  0  0  0  0
   37.6460   23.4800   41.2230 C   0  0  0  0  0  0  0  0  0  0  0  0
   37.4870   22.4370   40.9490 H   0  0  0  0  0  0  0  0  0  0  0  0
   36.8940   24.4860   40.6520 C   0  0  0  0  0  0  0  0  0  0  0  0
   36.1330   24.2220   39.9160 H   0  0  0  0  0  0  0  0  0  0  0  0
   37.0770   25.8200   40.9840 C   0  0  0  0  0  3  0  0  0  0  0  0
   38.0520   26.1420   41.9260 C   0  0  0  0  0  0  0  0  0  0  0  0
   36.6450   31.8700   40.6020 C   0  0  0  0  0  0  0  0  0  0  0  0
   35.5840   32.2330   40.5740 H   0  0  0  0  0  0  0  0  0  0  0  0
   37.1890   32.4590   41.3700 H   0  0  0  0  0  0  0  0  0  0  0  0
   37.3630   32.1480   39.3070 C   0  0  0  0  0  0  0  0  0  0  0  0
   36.6190   32.5870   38.6100 H   0  0  0  0  0  0  0  0  0  0  0  0
   37.7600   31.2400   38.8200 H   0  0  0  0  0  0  0  0  0  0  0  0
   39.7810   34.8200   40.3770 C   0  0  0  0  0  0  0  0  0  0  0  0
   40.8750   34.4980   39.5330 C   0  0  0  0  0  0  0  0  0  0  0  0
   40.7240   33.4160   38.6730 C   0  0  0  0  0  0  0  0  0  0  0  0
   39.5460   32.7530   38.7050 N   0  0  0  0  0  0  0  0  0  0  0  0
   38.5230   33.0820   39.5180 C   0  0  0  0  0  0  0  0  0  0  0  0
   38.6530   34.1160   40.3490 N   0  0  0  0  0  0  0  0  0  0  0  0
   39.8430   35.6500   41.0650 H   0  0  0  0  0  0  0  0  0  0  0  0
   41.7340   35.1490   39.6550 H   0  0  0  0  0  0  0  0  0  0  0  0
   41.8640   33.1140   37.8220 C   0  0  0  0  0  0  0  0  0  0  0  0
   42.2440   34.2770   37.1410 F   0  0  0  0  0  0  0  0  0  0  0  0
   41.4010   32.2630   36.8330 F   0  0  0  0  0  0  0  0  0  0  0  0
   42.9390   32.6250   38.5090 F   0  0  0  0  0  0  0  0  0  0  0  0
  1  5  2  0  0  0  0
  2  1  1  0  0  0  0
  2  3  2  0  0  0  0
  3  4  1  0  0  0  0
  4  8  1  0  0  0  0
  5  4  1  0  0  0  0
  6  2  1  0  0  0  0
  7  3  1  0  0  0  0
  8  9  1  0  0  0  0
  9 10  2  0  0  0  0
 11 10  1  0  0  0  0
 12 11  2  0  0  0  0
 13 12  1  0  0  0  0
 14 13  2  0  0  0  0
 15 14  1  0  0  0  0
 16 18  2  0  0  0  0
 16 14  1  0  0  0  0
 17 16  1  0  0  0  0
 18 19  1  0  0  0  0
 19  8  2  0  0  0  0
 19 12  1  0  0  0  0
 20  1  1  0  0  0  0
 20 22  1  0  0  0  0
 21 20  1  0  0  0  0
 23 30  1  0  0  0  0
 23 20  1  0  0  0  0
 24 23  1  0  0  0  0
 25 23  1  0  0  0  0
 26 32  1  0  0  0  0
 27 33  1  0  0  0  0
 27 26  2  0  0  0  0
 28 29  2  0  0  0  0
 28 27  1  0  0  0  0
 29 30  1  0  0  0  0
 30 31  2  0  0  0  0
 31 26  1  0  0  0  0
 34 37  1  0  0  0  0
 34 28  1  0  0  0  0
 35 34  1  0  0  0  0
 36 34  1  0  0  0  0
M  END
>  <minimizedAffinity>
-6.64704609

$$$$

 OpenBabel03242515153D

 37 40  0  0  0  0  0  0  0  0999 V2000
   37.3760   29.0520   37.8990 C   0  0  0  0  0  0  0  0  0  0  0  0
   36.6640   30.1330   38.3380 C   0  0  0  0  0  0  0  0  0  0  0  0
   37.5240   31.1890   38.4370 C   0  0  0  0  0  0  0  0  0  0  0  0
   38.7330   30.7590   38.0670 N   0  0  0  0  0  0  0  0  0  0  0  0
   38.6290   29.4610   37.7430 N   0  0  0  0  0  0  0  0  0  0  0  0
   35.6060   30.0960   38.5530 H   0  0  0  0  0  0  0  0  0  0  0  0
   37.2120   32.1660   38.7650 H   0  0  0  0  0  0  0  0  0  0  0  0
   39.8490   31.6430   38.0660 C   0  0  0  0  0  0  0  0  0  0  0  0
   40.9390   31.4050   37.3090 N   0  0  0  0  0  0  0  0  0  0  0  0
   42.0150   32.2180   37.2830 C   0  0  0  0  0  3  0  0  0  0  0  0
   42.0780   33.3420   38.0190 N   0  0  0  0  0  0  0  0  0  0  0  0
   41.0120   33.6410   38.8050 C   0  0  0  0  0  0  0  0  0  0  0  0
   40.9880   34.7780   39.5980 C   0  0  0  0  0  3  0  0  0  0  0  0
   39.9100   35.0980   40.4050 C   0  0  0  0  0  0  0  0  0  0  0  0
   39.9170   35.9980   41.0190 H   0  0  0  0  0  0  0  0  0  0  0  0
   38.8260   34.2450   40.4080 C   0  0  0  0  0  0  0  0  0  0  0  0
   37.9690   34.4840   41.0390 H   0  0  0  0  0  0  0  0  0  0  0  0
   38.7940   33.0930   39.6350 C   0  0  0  0  0  3  0  0  0  0  0  0
   39.8960   32.8000   38.8350 C   0  0  0  0  0  0  0  0  0  0  0  0
   36.9440   27.6670   37.6210 C   0  0  0  0  0  0  0  0  0  0  0  0
   36.3700   27.6300   36.6580 H   0  0  0  0  0  0  0  0  0  0  0  0
   37.8100   26.9780   37.5300 H   0  0  0  0  0  0  0  0  0  0  0  0
   36.1330   27.1320   38.7720 C   0  0  0  0  0  0  0  0  0  0  0  0
   35.5120   26.3010   38.3750 H   0  0  0  0  0  0  0  0  0  0  0  0
   35.4350   27.8730   39.2010 H   0  0  0  0  0  0  0  0  0  0  0  0
   38.6490   25.4590   41.0090 C   0  0  0  0  0  0  0  0  0  0  0  0
   38.3830   26.1510   42.2190 C   0  0  0  0  0  0  0  0  0  0  0  0
   37.3870   27.1210   42.1970 C   0  0  0  0  0  0  0  0  0  0  0  0
   36.7470   27.3320   41.0250 N   0  0  0  0  0  0  0  0  0  0  0  0
   37.0200   26.6590   39.8910 C   0  0  0  0  0  0  0  0  0  0  0  0
   37.9720   25.7260   39.8950 N   0  0  0  0  0  0  0  0  0  0  0  0
   39.4110   24.6960   40.9680 H   0  0  0  0  0  0  0  0  0  0  0  0
   39.0030   25.8380   43.0520 H   0  0  0  0  0  0  0  0  0  0  0  0
   37.1410   27.8100   43.4540 C   0  0  0  0  0  0  0  0  0  0  0  0
   38.0550   27.3510   44.4110 F   0  0  0  0  0  0  0  0  0  0  0  0
   35.9080   27.3710   43.9080 F   0  0  0  0  0  0  0  0  0  0  0  0
   37.2380   29.1690   43.3570 F   0  0  0  0  0  0  0  0  0  0  0  0
  1  2  1  0  0  0  0
  2  3  2  0  0  0  0
  2  6  1  0  0  0  0
  3  7  1  0  0  0  0
  4  3  1  0  0  0  0
  5  1  2  0  0  0  0
  5  4  1  0  0  0  0
  8  4  1  0  0  0  0
  8 19  1  0  0  0  0
  9  8  2  0  0  0  0
 10  9  1  0  0  0  0
 10 11  2  0  0  0  0
 11 12  1  0  0  0  0
 12 19  2  0  0  0  0
 12 13  1  0  0  0  0
 13 14  2  0  0  0  0
 14 16  1  0  0  0  0
 14 15  1  0  0  0  0
 16 17  1  0  0  0  0
 18 16  2  0  0  0  0
 19 18  1  0  0  0  0
 20  1  1  0  0  0  0
 20 23  1  0  0  0  0
 21 20  1  0  0  0  0
 22 20  1  0  0  0  0
 23 25  1  0  0  0  0
 23 30  1  0  0  0  0
 24 23  1  0  0  0  0
 26 27  1  0  0  0  0
 27 33  1  0  0  0  0
 28 27  2  0  0  0  0
 28 34  1  0  0  0  0
 29 28  1  0  0  0  0
 30 31  1  0  0  0  0
 30 29  2  0  0  0  0
 31 26  2  0  0  0  0
 32 26  1  0  0  0  0
 34 36  1  0  0  0  0
 34 35  1  0  0  0  0
 37 34  1  0  0  0  0
M  END
>  <minimizedAffinity>
-6.4744606

$$$$

 OpenBabel03242515153D

 37 40  0  0  0  0  0  0  0  0999 V2000
   38.8710   31.9600   38.4580 C   0  0  0  0  0  0  0  0  0  0  0  0
   39.2460   30.7560   37.9290 C   0  0  0  0  0  0  0  0  0  0  0  0
   40.5930   30.7980   37.7080 C   0  0  0  0  0  0  0  0  0  0  0  0
   41.0270   32.0000   38.0940 N   0  0  0  0  0  0  0  0  0  0  0  0
   39.9720   32.6950   38.5470 N   0  0  0  0  0  0  0  0  0  0  0  0
   38.5510   29.9510   37.7410 H   0  0  0  0  0  0  0  0  0  0  0  0
   41.1420   29.9690   37.2930 H   0  0  0  0  0  0  0  0  0  0  0  0
   42.4040   32.3450   37.9840 C   0  0  0  0  0  0  0  0  0  0  0  0
   42.9520   33.3190   38.7380 N   0  0  0  0  0  0  0  0  0  0  0  0
   44.2510   33.6740   38.6620 C   0  0  0  0  0  3  0  0  0  0  0  0
   45.1060   33.0710   37.8170 N   0  0  0  0  0  0  0  0  0  0  0  0
   44.6190   32.0800   37.0280 C   0  0  0  0  0  0  0  0  0  0  0  0
   45.4260   31.4020   36.1270 C   0  0  0  0  0  3  0  0  0  0  0  0
   44.9470   30.3890   35.3160 C   0  0  0  0  0  0  0  0  0  0  0  0
   45.6030   29.8720   34.6160 H   0  0  0  0  0  0  0  0  0  0  0  0
   43.6130   30.0520   35.4190 C   0  0  0  0  0  0  0  0  0  0  0  0
   43.2210   29.2550   34.7860 H   0  0  0  0  0  0  0  0  0  0  0  0
   42.7580   30.6940   36.3020 C   0  0  0  0  0  3  0  0  0  0  0  0
   43.2730   31.7100   37.1040 C   0  0  0  0  0  0  0  0  0  0  0  0
   37.5420   32.4500   38.8800 C   0  0  0  0  0  0  0  0  0  0  0  0
   37.4500   33.5450   38.6560 H   0  0  0  0  0  0  0  0  0  0  0  0
   36.7230   31.9210   38.3480 H   0  0  0  0  0  0  0  0  0  0  0  0
   37.3170   32.1590   40.3400 C   0  0  0  0  0  0  0  0  0  0  0  0
   36.6670   32.9670   40.7370 H   0  0  0  0  0  0  0  0  0  0  0  0
   38.2450   32.1740   40.9400 H   0  0  0  0  0  0  0  0  0  0  0  0
   35.3060   28.9880   40.1850 C   0  0  0  0  0  0  0  0  0  0  0  0
   35.8560   28.3060   41.3010 C   0  0  0  0  0  0  0  0  0  0  0  0
   36.8550   28.9550   42.0200 C   0  0  0  0  0  0  0  0  0  0  0  0
   37.2250   30.1850   41.6010 N   0  0  0  0  0  0  0  0  0  0  0  0
   36.6850   30.8090   40.5360 C   0  0  0  0  0  0  0  0  0  0  0  0
   35.7270   30.2010   39.8370 N   0  0  0  0  0  0  0  0  0  0  0  0
   34.5280   28.5320   39.5910 H   0  0  0  0  0  0  0  0  0  0  0  0
   35.4250   27.3260   41.4770 H   0  0  0  0  0  0  0  0  0  0  0  0
   37.3960   28.2270   43.1570 C   0  0  0  0  0  0  0  0  0  0  0  0
   38.0060   29.1360   44.0300 F   0  0  0  0  0  0  0  0  0  0  0  0
   38.4380   27.4560   42.6690 F   0  0  0  0  0  0  0  0  0  0  0  0
   36.4550   27.5110   43.8410 F   0  0  0  0  0  0  0  0  0  0  0  0
  1  5  2  0  0  0  0
  1 20  1  0  0  0  0
  2  1  1  0  0  0  0
  3  2  2  0  0  0  0
  3  4  1  0  0  0  0
  4  5  1  0  0  0  0
  6  2  1  0  0  0  0
  7  3  1  0  0  0  0
  8  4  1  0  0  0  0
  8  9  1  0  0  0  0
 10  9  2  0  0  0  0
 11 10  1  0  0  0  0
 12 19  1  0  0  0  0
 12 11  2  0  0  0  0
 13 12  1  0  0  0  0
 14 16  1  0  0  0  0
 14 13  2  0  0  0  0
 15 14  1  0  0  0  0
 16 18  2  0  0  0  0
 17 16  1  0  0  0  0
 18 19  1  0  0  0  0
 19  8  2  0  0  0  0
 20 23  1  0  0  0  0
 21 20  1  0  0  0  0
 22 20  1  0  0  0  0
 23 30  1  0  0  0  0
 23 24  1  0  0  0  0
 23 25  1  0  0  0  0
 26 27  1  0  0  0  0
 27 33  1  0  0  0  0
 27 28  2  0  0  0  0
 28 34  1  0  0  0  0
 29 28  1  0  0  0  0
 30 29  2  0  0  0  0
 31 26  2  0  0  0  0
 31 30  1  0  0  0  0
 32 26  1  0  0  0  0
 34 37  1  0  0  0  0
 34 35  1  0  0  0  0
 36 34  1  0  0  0  0
M  END
>  <minimizedAffinity>
-6.46934271

$$$$

 OpenBabel03242515153D

 37 40  0  0  0  0  0  0  0  0999 V2000
   37.7420   29.4690   41.9940 C   0  0  0  0  0  0  0  0  0  0  0  0
   38.9490   29.4820   42.6350 C   0  0  0  0  0  0  0  0  0  0  0  0
   39.5850   30.6460   42.3050 C   0  0  0  0  0  0  0  0  0  0  0  0
   38.7830   31.3240   41.4820 N   0  0  0  0  0  0  0  0  0  0  0  0
   37.6680   30.5990   41.3020 N   0  0  0  0  0  0  0  0  0  0  0  0
   39.2860   28.6820   43.2770 H   0  0  0  0  0  0  0  0  0  0  0  0
   40.5610   30.9030   42.6810 H   0  0  0  0  0  0  0  0  0  0  0  0
   39.1770   32.5900   40.9640 C   0  0  0  0  0  0  0  0  0  0  0  0
   38.2720   33.4850   40.5190 N   0  0  0  0  0  0  0  0  0  0  0  0
   38.6070   34.6930   40.0210 C   0  0  0  0  0  3  0  0  0  0  0  0
   39.8860   35.0980   39.9320 N   0  0  0  0  0  0  0  0  0  0  0  0
   40.8480   34.2430   40.3630 C   0  0  0  0  0  0  0  0  0  0  0  0
   42.1940   34.5750   40.3110 C   0  0  0  0  0  3  0  0  0  0  0  0
   43.1880   33.7170   40.7460 C   0  0  0  0  0  0  0  0  0  0  0  0
   44.2390   34.0020   40.6930 H   0  0  0  0  0  0  0  0  0  0  0  0
   42.8110   32.4890   41.2500 C   0  0  0  0  0  0  0  0  0  0  0  0
   43.5840   31.8020   41.5970 H   0  0  0  0  0  0  0  0  0  0  0  0
   41.4810   32.1030   41.3270 C   0  0  0  0  0  3  0  0  0  0  0  0
   40.5050   32.9900   40.8800 C   0  0  0  0  0  0  0  0  0  0  0  0
   36.6650   28.4580   41.9980 C   0  0  0  0  0  0  0  0  0  0  0  0
   36.7950   27.7630   42.8690 H   0  0  0  0  0  0  0  0  0  0  0  0
   35.6630   28.9280   42.0820 H   0  0  0  0  0  0  0  0  0  0  0  0
   36.6430   27.7130   40.6890 C   0  0  0  0  0  0  0  0  0  0  0  0
   37.3240   28.2500   39.9970 H   0  0  0  0  0  0  0  0  0  0  0  0
   35.6490   27.6960   40.2090 H   0  0  0  0  0  0  0  0  0  0  0  0
   37.1520   23.9900   40.5880 C   0  0  0  0  0  0  0  0  0  0  0  0
   38.1930   23.8690   41.5460 C   0  0  0  0  0  0  0  0  0  0  0  0
   38.6460   25.0370   42.1510 C   0  0  0  0  0  0  0  0  0  0  0  0
   38.0590   26.1980   41.7820 N   0  0  0  0  0  0  0  0  0  0  0  0
   37.0720   26.2830   40.8700 C   0  0  0  0  0  0  0  0  0  0  0  0
   36.6270   25.1730   40.2800 N   0  0  0  0  0  0  0  0  0  0  0  0
   36.7620   23.1170   40.0880 H   0  0  0  0  0  0  0  0  0  0  0  0
   38.5310   22.8510   41.7050 H   0  0  0  0  0  0  0  0  0  0  0  0
   39.7120   24.8770   43.1260 C   0  0  0  0  0  0  0  0  0  0  0  0
   40.9280   24.7220   42.4490 F   0  0  0  0  0  0  0  0  0  0  0  0
   39.4980   23.6570   43.7450 F   0  0  0  0  0  0  0  0  0  0  0  0
   39.8140   25.9250   43.9960 F   0  0  0  0  0  0  0  0  0  0  0  0
  1 20  1  0  0  0  0
  1  2  1  0  0  0  0
  2  6  1  0  0  0  0
  3  2  2  0  0  0  0
  3  7  1  0  0  0  0
  4  3  1  0  0  0  0
  5  4  1  0  0  0  0
  5  1  2  0  0  0  0
  8  4  1  0  0  0  0
  9  8  2  0  0  0  0
 10  9  1  0  0  0  0
 11 10  2  0  0  0  0
 11 12  1  0  0  0  0
 12 19  1  0  0  0  0
 13 12  2  0  0  0  0
 13 14  1  0  0  0  0
 14 16  2  0  0  0  0
 15 14  1  0  0  0  0
 16 18  1  0  0  0  0
 16 17  1  0  0  0  0
 19  8  1  0  0  0  0
 19 18  2  0  0  0  0
 20 22  1  0  0  0  0
 20 21  1  0  0  0  0
 23 30  1  0  0  0  0
 23 20  1  0  0  0  0
 24 23  1  0  0  0  0
 25 23  1  0  0  0  0
 26 27  1  0  0  0  0
 27 33  1  0  0  0  0
 27 28  2  0  0  0  0
 28 34  1  0  0  0  0
 29 28  1  0  0  0  0
 30 29  2  0  0  0  0
 31 26  2  0  0  0  0
 31 30  1  0  0  0  0
 32 26  1  0  0  0  0
 34 36  1  0  0  0  0
 34 37  1  0  0  0  0
 35 34  1  0  0  0  0
M  END
>  <minimizedAffinity>
-6.38809824

$$$$

 OpenBabel03242515153D

 37 40  0  0  0  0  0  0  0  0999 V2000
   38.8480   32.0720   39.0020 C   0  0  0  0  0  0  0  0  0  0  0  0
   39.7070   31.3700   38.2030 C   0  0  0  0  0  0  0  0  0  0  0  0
   40.9780   31.7730   38.4980 C   0  0  0  0  0  0  0  0  0  0  0  0
   40.8940   32.7010   39.4540 N   0  0  0  0  0  0  0  0  0  0  0  0
   39.5970   32.8730   39.7510 N   0  0  0  0  0  0  0  0  0  0  0  0
   39.3770   30.6360   37.4830 H   0  0  0  0  0  0  0  0  0  0  0  0
   41.8470   31.3710   38.0050 H   0  0  0  0  0  0  0  0  0  0  0  0
   42.0680   33.3160   39.9740 C   0  0  0  0  0  0  0  0  0  0  0  0
   42.0840   33.8950   41.1920 N   0  0  0  0  0  0  0  0  0  0  0  0
   43.1750   34.4870   41.7180 C   0  0  0  0  0  3  0  0  0  0  0  0
   44.3440   34.5430   41.0560 N   0  0  0  0  0  0  0  0  0  0  0  0
   44.3970   33.9790   39.8220 C   0  0  0  0  0  0  0  0  0  0  0  0
   45.5600   33.9880   39.0660 C   0  0  0  0  0  3  0  0  0  0  0  0
   45.6330   33.4180   37.8080 C   0  0  0  0  0  0  0  0  0  0  0  0
   46.5590   33.4400   37.2340 H   0  0  0  0  0  0  0  0  0  0  0  0
   44.4970   32.8210   37.3000 C   0  0  0  0  0  0  0  0  0  0  0  0
   44.5390   32.3670   36.3090 H   0  0  0  0  0  0  0  0  0  0  0  0
   43.3070   32.7800   38.0100 C   0  0  0  0  0  3  0  0  0  0  0  0
   43.2680   33.3640   39.2740 C   0  0  0  0  0  0  0  0  0  0  0  0
   37.3750   32.0310   39.0960 C   0  0  0  0  0  0  0  0  0  0  0  0
   36.9470   33.0370   38.8440 H   0  0  0  0  0  0  0  0  0  0  0  0
   36.9400   31.2890   38.3940 H   0  0  0  0  0  0  0  0  0  0  0  0
   36.9510   31.5740   40.4670 C   0  0  0  0  0  0  0  0  0  0  0  0
   35.9710   32.0490   40.6810 H   0  0  0  0  0  0  0  0  0  0  0  0
   37.6410   31.8910   41.2700 H   0  0  0  0  0  0  0  0  0  0  0  0
   36.6200   27.8820   39.8420 C   0  0  0  0  0  0  0  0  0  0  0  0
   36.7370   27.4070   41.1740 C   0  0  0  0  0  0  0  0  0  0  0  0
   36.9180   28.3520   42.1780 C   0  0  0  0  0  0  0  0  0  0  0  0
   36.9670   29.6520   41.8090 N   0  0  0  0  0  0  0  0  0  0  0  0
   36.8530   30.0750   40.5350 C   0  0  0  0  0  0  0  0  0  0  0  0
   36.6800   29.1810   39.5610 N   0  0  0  0  0  0  0  0  0  0  0  0
   36.4790   27.1930   39.0230 H   0  0  0  0  0  0  0  0  0  0  0  0
   36.6710   26.3280   41.2650 H   0  0  0  0  0  0  0  0  0  0  0  0
   37.0340   27.8300   43.5300 C   0  0  0  0  0  0  0  0  0  0  0  0
   37.3190   28.8870   44.4030 F   0  0  0  0  0  0  0  0  0  0  0  0
   38.1720   27.0420   43.5500 F   0  0  0  0  0  0  0  0  0  0  0  0
   35.9100   27.1840   43.9610 F   0  0  0  0  0  0  0  0  0  0  0  0
  1 20  1  0  0  0  0
  1  5  2  0  0  0  0
  2  3  2  0  0  0  0
  2  1  1  0  0  0  0
  3  4  1  0  0  0  0
  4  5  1  0  0  0  0
  4  8  1  0  0  0  0
  6  2  1  0  0  0  0
  7  3  1  0  0  0  0
  8  9  1  0  0  0  0
  9 10  2  0  0  0  0
 11 10  1  0  0  0  0
 12 11  2  0  0  0  0
 13 12  1  0  0  0  0
 14 13  2  0  0  0  0
 15 14  1  0  0  0  0
 16 14  1  0  0  0  0
 16 18  2  0  0  0  0
 17 16  1  0  0  0  0
 18 19  1  0  0  0  0
 19 12  1  0  0  0  0
 19  8  2  0  0  0  0
 20 23  1  0  0  0  0
 21 20  1  0  0  0  0
 22 20  1  0  0  0  0
 23 30  1  0  0  0  0
 23 24  1  0  0  0  0
 23 25  1  0  0  0  0
 26 27  1  0  0  0  0
 27 33  1  0  0  0  0
 27 28  2  0  0  0  0
 28 34  1  0  0  0  0
 29 28  1  0  0  0  0
 30 29  2  0  0  0  0
 31 26  2  0  0  0  0
 31 30  1  0  0  0  0
 32 26  1  0  0  0  0
 34 36  1  0  0  0  0
 34 37  1  0  0  0  0
 34 35  1  0  0  0  0
M  END
>  <minimizedAffinity>
-6.37246561

$$$$

 OpenBabel03242515153D

 37 40  0  0  0  0  0  0  0  0999 V2000
   37.7180   29.3380   41.9580 C   0  0  0  0  0  0  0  0  0  0  0  0
   38.9160   29.3760   42.6140 C   0  0  0  0  0  0  0  0  0  0  0  0
   39.5280   30.5560   42.3010 C   0  0  0  0  0  0  0  0  0  0  0  0
   38.7200   31.2210   41.4710 N   0  0  0  0  0  0  0  0  0  0  0  0
   37.6260   30.4700   41.2720 N   0  0  0  0  0  0  0  0  0  0  0  0
   39.2640   28.5800   43.2560 H   0  0  0  0  0  0  0  0  0  0  0  0
   40.4930   30.8340   42.6900 H   0  0  0  0  0  0  0  0  0  0  0  0
   39.0900   32.4990   40.9660 C   0  0  0  0  0  0  0  0  0  0  0  0
   38.1700   33.3750   40.5150 N   0  0  0  0  0  0  0  0  0  0  0  0
   38.4820   34.5940   40.0280 C   0  0  0  0  0  3  0  0  0  0  0  0
   39.7520   35.0300   39.9590 N   0  0  0  0  0  0  0  0  0  0  0  0
   40.7290   34.1960   40.3970 C   0  0  0  0  0  0  0  0  0  0  0  0
   42.0670   34.5600   40.3650 C   0  0  0  0  0  3  0  0  0  0  0  0
   43.0760   33.7240   40.8070 C   0  0  0  0  0  0  0  0  0  0  0  0
   44.1190   34.0340   40.7700 H   0  0  0  0  0  0  0  0  0  0  0  0
   42.7210   32.4840   41.2980 C   0  0  0  0  0  0  0  0  0  0  0  0
   43.5060   31.8130   41.6510 H   0  0  0  0  0  0  0  0  0  0  0  0
   41.4000   32.0650   41.3560 C   0  0  0  0  0  3  0  0  0  0  0  0
   40.4090   32.9320   40.9020 C   0  0  0  0  0  0  0  0  0  0  0  0
   36.6650   28.3010   41.9410 C   0  0  0  0  0  0  0  0  0  0  0  0
   35.6560   28.7800   42.0390 H   0  0  0  0  0  0  0  0  0  0  0  0
   36.6790   27.7200   40.9950 H   0  0  0  0  0  0  0  0  0  0  0  0
   36.9110   27.2900   43.0300 C   0  0  0  0  0  0  0  0  0  0  0  0
   35.9180   26.9930   43.4280 H   0  0  0  0  0  0  0  0  0  0  0  0
   37.4880   27.6920   43.8820 H   0  0  0  0  0  0  0  0  0  0  0  0
   39.3710   24.5660   42.2200 C   0  0  0  0  0  0  0  0  0  0  0  0
   38.6110   23.8390   41.2670 C   0  0  0  0  0  0  0  0  0  0  0  0
   37.3370   24.3120   40.9680 C   0  0  0  0  0  0  0  0  0  0  0  0
   36.9200   25.4280   41.6070 N   0  0  0  0  0  0  0  0  0  0  0  0
   37.6640   26.0990   42.5080 C   0  0  0  0  0  0  0  0  0  0  0  0
   38.8870   25.6580   42.8060 N   0  0  0  0  0  0  0  0  0  0  0  0
   40.3650   24.2450   42.4900 H   0  0  0  0  0  0  0  0  0  0  0  0
   39.1200   22.9700   40.8660 H   0  0  0  0  0  0  0  0  0  0  0  0
   36.5860   23.5430   39.9880 C   0  0  0  0  0  0  0  0  0  0  0  0
   35.2350   23.5360   40.3540 F   0  0  0  0  0  0  0  0  0  0  0  0
   36.9950   22.2270   40.1260 F   0  0  0  0  0  0  0  0  0  0  0  0
   36.7040   24.0250   38.7150 F   0  0  0  0  0  0  0  0  0  0  0  0
  1  2  1  0  0  0  0
  2  6  1  0  0  0  0
  3  2  2  0  0  0  0
  3  7  1  0  0  0  0
  4  3  1  0  0  0  0
  5  4  1  0  0  0  0
  5  1  2  0  0  0  0
  8  4  1  0  0  0  0
  9  8  2  0  0  0  0
 10  9  1  0  0  0  0
 11 10  2  0  0  0  0
 11 12  1  0  0  0  0
 12 19  1  0  0  0  0
 13 12  2  0  0  0  0
 13 14  1  0  0  0  0
 14 16  2  0  0  0  0
 15 14  1  0  0  0  0
 16 18  1  0  0  0  0
 16 17  1  0  0  0  0
 19  8  1  0  0  0  0
 19 18  2  0  0  0  0
 20  1  1  0  0  0  0
 20 21  1  0  0  0  0
 20 23  1  0  0  0  0
 22 20  1  0  0  0  0
 23 24  1  0  0  0  0
 23 25  1  0  0  0  0
 26 32  1  0  0  0  0
 26 31  1  0  0  0  0
 27 26  2  0  0  0  0
 28 27  1  0  0  0  0
 28 29  2  0  0  0  0
 29 30  1  0  0  0  0
 30 31  2  0  0  0  0
 30 23  1  0  0  0  0
 33 27  1  0  0  0  0
 34 36  1  0  0  0  0
 34 35  1  0  0  0  0
 34 28  1  0  0  0  0
 37 34  1  0  0  0  0
M  END
>  <minimizedAffinity>
-6.30960655

$$$$
