
 OpenBabel03242511173D

 22 24  0  0  0  0  0  0  0  0999 V2000
   46.6640   32.9950   41.0130 C   0  0  0  0  0  0  0  0  0  0  0  0
   47.9010   33.4370   40.6410 N   0  0  0  0  0  0  0  0  0  0  0  0
   48.1870   33.7190   39.3490 C   0  0  0  0  0  3  0  0  0  0  0  0
   47.2020   33.5450   38.4610 N   0  0  0  0  0  0  0  0  0  0  0  0
   45.9720   33.1170   38.7450 C   0  0  0  0  0  0  0  0  0  0  0  0
   44.9770   32.9470   37.8050 C   0  0  0  0  0  3  0  0  0  0  0  0
   43.7300   32.4970   38.2080 C   0  0  0  0  0  0  0  0  0  0  0  0
   42.9680   32.3740   37.4460 H   0  0  0  0  0  0  0  0  0  0  0  0
   43.4840   32.2230   39.5380 C   0  0  0  0  0  0  0  0  0  0  0  0
   42.4930   31.8710   39.8200 H   0  0  0  0  0  0  0  0  0  0  0  0
   44.4550   32.3780   40.5280 C   0  0  0  0  0  3  0  0  0  0  0  0
   45.6740   32.8290   40.0580 C   0  0  0  0  0  0  0  0  0  0  0  0
   46.4920   32.6790   42.7630 S   0  0  0  0  0  0  0  0  0  0  0  0
   45.1060   36.4370   43.3810 C   0  0  0  0  0  0  0  0  0  0  0  0
   45.6900   35.3190   42.7510 C   0  0  0  0  0  0  0  0  0  0  0  0
   45.7650   34.1330   43.4960 C   0  0  0  0  0  0  0  0  0  0  0  0
   45.2800   34.1260   44.7570 N   0  0  0  0  0  0  0  0  0  0  0  0
   44.7250   35.2140   45.3350 C   0  0  0  0  0  0  0  0  0  0  0  0
   44.6450   36.3560   44.6370 N   0  0  0  0  0  0  0  0  0  0  0  0
   45.0670   37.3220   42.7800 H   0  0  0  0  0  0  0  0  0  0  0  0
   46.0560   35.3910   41.7470 H   0  0  0  0  0  0  0  0  0  0  0  0
   44.3310   35.2280   46.3430 H   0  0  0  0  0  0  0  0  0  0  0  0
  1 13  1  0  0  0  0
  2  1  1  0  0  0  0
  3  2  2  0  0  0  0
  4  5  2  0  0  0  0
  4  3  1  0  0  0  0
  5 12  1  0  0  0  0
  6  7  2  0  0  0  0
  6  5  1  0  0  0  0
  7  9  1  0  0  0  0
  8  7  1  0  0  0  0
  9 10  1  0  0  0  0
  9 11  2  0  0  0  0
 12 11  1  0  0  0  0
 12  1  2  0  0  0  0
 13 16  1  0  0  0  0
 14 19  1  0  0  0  0
 15 14  2  0  0  0  0
 15 16  1  0  0  0  0
 16 17  2  0  0  0  0
 17 18  1  0  0  0  0
 18 22  1  0  0  0  0
 19 18  2  0  0  0  0
 20 14  1  0  0  0  0
 21 15  1  0  0  0  0
M  END
>  <minimizedAffinity>
-3.91493726

>  <minimizedRMSD>
2.23824

$$$$
