
 OpenBabel03242519253D

 43 47  0  0  0  0  0  0  0  0999 V2000
   47.9080   33.9070   42.8790 C   0  0  0  0  0  0  0  0  0  0  0  0
   48.5140   35.1360   42.6130 C   0  0  0  0  0  0  0  0  0  0  0  0
   49.8740   35.1900   42.2730 C   0  0  0  0  0  0  0  0  0  0  0  0
   50.5310   33.9890   42.2260 N   0  0  0  0  0  0  0  0  0  0  0  0
   49.9080   32.7980   42.4930 C   0  0  0  0  0  0  0  0  0  0  0  0
   48.6220   32.7800   42.8110 N   0  0  0  0  0  0  0  0  0  0  0  0
   48.0910   36.1300   42.6230 H   0  0  0  0  0  0  0  0  0  0  0  0
   50.4170   36.0980   42.0530 H   0  0  0  0  0  0  0  0  0  0  0  0
   50.7330   31.5980   42.4020 C   0  0  0  0  0  0  0  0  0  0  0  0
   51.4140   31.4350   41.2220 N   0  0  0  0  0  0  0  0  0  0  0  0
   52.1200   30.2800   41.3120 C   0  0  0  0  0  0  0  0  0  0  0  0
   51.8640   29.7510   42.5390 N   0  0  0  0  0  0  0  0  0  0  0  0
   51.0300   30.5500   43.1890 N   0  0  0  0  0  0  0  0  0  0  0  0
   52.7540   29.9200   40.4900 H   0  0  0  0  0  0  0  0  0  0  0  0
   52.4320   28.5310   42.9990 C   0  0  0  0  0  0  0  0  0  0  0  0
   51.8180   27.4210   42.5480 N   0  0  0  0  0  0  0  0  0  0  0  0
   52.2390   26.1690   42.8960 C   0  0  0  0  0  0  0  0  0  0  0  0
   53.3120   26.0100   43.7250 N   0  0  0  0  0  0  0  0  0  0  0  0
   53.9420   27.1070   44.1890 C   0  0  0  0  0  0  0  0  0  0  0  0
   55.0370   27.0230   45.0330 C   0  0  0  0  0  0  0  0  0  0  0  0
   55.6770   28.1710   45.5040 C   0  0  0  0  0  0  0  0  0  0  0  0
   56.5140   27.9720   46.1530 H   0  0  0  0  0  0  0  0  0  0  0  0
   55.1970   29.4030   45.1120 C   0  0  0  0  0  0  0  0  0  0  0  0
   55.7390   30.2250   45.5130 H   0  0  0  0  0  0  0  0  0  0  0  0
   54.1070   29.5290   44.2700 C   0  0  0  0  0  0  0  0  0  0  0  0
   53.5160   28.3630   43.8370 C   0  0  0  0  0  0  0  0  0  0  0  0
   46.4750   33.9710   43.2310 C   0  0  0  0  0  0  0  0  0  0  0  0
   45.7230   34.9710   42.4750 C   0  0  0  0  0  0  0  0  0  0  0  0
   45.2490   36.1220   43.2860 C   0  0  0  0  0  0  0  0  0  0  0  0
   44.4430   35.6840   44.5020 C   0  0  0  0  0  0  0  0  0  0  0  0
   44.9930   34.4590   45.1900 C   0  0  0  0  0  0  0  0  0  0  0  0
   46.4080   34.1700   44.7540 C   0  0  0  0  0  0  0  0  0  0  0  0
   46.0770   32.9220   43.0980 H   0  0  0  0  0  0  0  0  0  0  0  0
   46.2290   35.3830   41.5780 H   0  0  0  0  0  0  0  0  0  0  0  0
   44.8020   34.4810   42.0650 H   0  0  0  0  0  0  0  0  0  0  0  0
   44.5200   36.7100   42.6580 H   0  0  0  0  0  0  0  0  0  0  0  0
   46.0200   36.8100   43.6660 H   0  0  0  0  0  0  0  0  0  0  0  0
   43.3700   35.4820   44.2400 H   0  0  0  0  0  0  0  0  0  0  0  0
   44.3980   36.5340   45.2130 H   0  0  0  0  0  0  0  0  0  0  0  0
   45.0560   34.6640   46.2880 H   0  0  0  0  0  0  0  0  0  0  0  0
   44.3640   33.5610   45.0900 H   0  0  0  0  0  0  0  0  0  0  0  0
   46.7290   33.2360   45.2280 H   0  0  0  0  0  0  0  0  0  0  0  0
   47.0640   35.0300   44.9890 H   0  0  0  0  0  0  0  0  0  0  0  0
  1 27  1  0  0  0  0
  2  7  1  0  0  0  0
  2  1  2  0  0  0  0
  3  2  1  0  0  0  0
  4  3  2  0  0  0  0
  4  5  1  0  0  0  0
  5  6  2  0  0  0  0
  6  1  1  0  0  0  0
  8  3  1  0  0  0  0
  9  5  1  0  0  0  0
  9 13  2  0  0  0  0
 10 11  2  0  0  0  0
 10  9  1  0  0  0  0
 11 12  1  0  0  0  0
 12 15  1  0  0  0  0
 12 13  1  0  0  0  0
 14 11  1  0  0  0  0
 15 26  1  0  0  0  0
 16 17  1  0  0  0  0
 16 15  2  0  0  0  0
 17 18  2  0  0  0  0
 18 19  1  0  0  0  0
 19 20  1  0  0  0  0
 20 21  2  0  0  0  0
 21 22  1  0  0  0  0
 23 21  1  0  0  0  0
 23 24  1  0  0  0  0
 25 23  2  0  0  0  0
 26 19  2  0  0  0  0
 26 25  1  0  0  0  0
 27 32  1  0  0  0  0
 28 27  1  0  0  0  0
 28 29  1  0  0  0  0
 29 37  1  0  0  0  0
 29 30  1  0  0  0  0
 30 31  1  0  0  0  0
 30 39  1  0  0  0  0
 31 40  1  0  0  0  0
 32 43  1  0  0  0  0
 32 31  1  0  0  0  0
 32 42  1  0  0  0  0
 33 27  1  0  0  0  0
 34 28  1  0  0  0  0
 35 28  1  0  0  0  0
 36 29  1  0  0  0  0
 38 30  1  0  0  0  0
 41 31  1  0  0  0  0
M  END
>  <minimizedAffinity>
-4.68804598

>  <minimizedRMSD>
1.208709

$$$$
