
 OpenBabel03242523403D

 40 45  0  0  1  0  0  0  0  0999 V2000
   44.5630   35.5240   45.1150 C   0  0  0  0  0  0  0  0  0  0  0  0
   44.2980   35.6170   43.7310 C   0  0  0  0  0  0  0  0  0  0  0  0
   44.7800   34.6060   42.9130 C   0  0  0  0  0  0  0  0  0  0  0  0
   45.4720   33.6090   43.5250 N   0  0  0  0  0  0  0  0  0  0  0  0
   45.7120   33.5500   44.8790 C   0  0  0  0  0  0  0  0  0  0  0  0
   45.2410   34.5050   45.5630 N   0  0  0  0  0  0  0  0  0  0  0  0
   44.2050   36.2890   45.7920 H   0  0  0  0  0  0  0  0  0  0  0  0
   43.7340   36.4840   43.4300 H   0  0  0  0  0  0  0  0  0  0  0  0
   46.4820   32.3600   44.9180 C   0  0  2  0  0  0  0  0  0  0  0  0
   46.7680   31.1130   44.8760 N   0  0  1  0  0  0  0  0  0  0  0  0
   47.8350   30.4480   44.7110 C   0  0  0  0  0  0  0  0  0  0  0  0
   47.8670   30.1830   46.0190 N   0  0  0  0  0  0  0  0  0  0  0  0
   47.0750   30.9110   46.8510 C   0  0  2  0  0  0  0  0  0  0  0  0
   47.0440   30.4840   48.2100 C   0  0  0  0  0  0  0  0  0  0  0  0
   46.2410   31.1640   49.0540 C   0  0  0  0  0  0  0  0  0  0  0  0
   45.4500   32.2340   48.7030 C   0  0  0  0  0  0  0  0  0  0  0  0
   45.5680   32.5510   47.3520 C   0  0  0  0  0  0  0  0  0  0  0  0
   46.3220   32.0000   46.3180 C   0  0  1  0  0  0  0  0  0  0  0  0
   47.5530   32.8530   44.9300 H   0  0  0  0  0  0  0  0  0  0  0  0
   45.9480   30.5840   44.4370 H   0  0  0  0  0  0  0  0  0  0  0  0
   47.8210   29.5290   44.0750 H   0  0  0  0  0  0  0  0  0  0  0  0
   48.7500   31.0090   44.3690 H   0  0  0  0  0  0  0  0  0  0  0  0
   48.5320   29.4030   46.3080 H   0  0  0  0  0  0  0  0  0  0  0  0
   47.6220   29.6660   48.5730 H   0  0  0  0  0  0  0  0  0  0  0  0
   46.2200   30.8330   50.1050 H   0  0  0  0  0  0  0  0  0  0  0  0
   44.8290   32.7500   49.3800 H   0  0  0  0  0  0  0  0  0  0  0  0
   44.8990   33.3750   47.1390 H   0  0  0  0  0  0  0  0  0  0  0  0
   44.4340   34.6860   41.2020 S   0  0  0  0  0  0  0  0  0  0  0  0
   42.8800   33.8470   40.9120 C   0  0  0  0  0  0  0  0  0  0  0  0
   42.5060   32.8150   41.6900 N   0  0  0  0  0  0  0  0  0  0  0  0
   41.3260   32.1540   41.4940 C   0  0  0  0  0  0  0  0  0  0  0  0
   40.4870   32.5320   40.4860 N   0  0  0  0  0  0  0  0  0  0  0  0
   40.8170   33.5570   39.6820 C   0  0  0  0  0  0  0  0  0  0  0  0
   40.0220   33.9990   38.6400 C   0  0  0  0  0  0  0  0  0  0  0  0
   40.3460   35.0440   37.8090 C   0  0  0  0  0  0  0  0  0  0  0  0
   39.7090   35.3760   36.9970 H   0  0  0  0  0  0  0  0  0  0  0  0
   41.5440   35.7000   38.0250 C   0  0  0  0  0  0  0  0  0  0  0  0
   41.8500   36.5430   37.3880 H   0  0  0  0  0  0  0  0  0  0  0  0
   42.3470   35.2720   39.0580 C   0  0  0  0  0  0  0  0  0  0  0  0
   42.0270   34.2250   39.8950 C   0  0  0  0  0  0  0  0  0  0  0  0
  1  6  1  0  0  0  0
  1  7  1  0  0  0  0
  2  1  2  0  0  0  0
  3  4  2  0  0  0  0
  3  2  1  0  0  0  0
  4  5  1  0  0  0  0
  5  9  1  0  0  0  0
  5  6  2  0  0  0  0
  8  2  1  0  0  0  0
  9 19  1  1  0  0  0
  9 18  1  0  0  0  0
 10 20  1  6  0  0  0
 10  9  1  0  0  0  0
 10 18  1  0  0  0  0
 11 10  1  0  0  0  0
 11 12  1  0  0  0  0
 12 23  1  0  0  0  0
 12 13  1  0  0  0  0
 13 14  1  6  0  0  0
 14 24  1  0  0  0  0
 14 15  2  0  0  0  0
 15 25  1  0  0  0  0
 16 15  1  0  0  0  0
 16 26  1  0  0  0  0
 17 16  2  0  0  0  0
 18 13  1  0  0  0  0
 18 17  1  1  0  0  0
 21 11  1  0  0  0  0
 22 11  1  0  0  0  0
 27 17  1  0  0  0  0
 28  3  1  0  0  0  0
 29 28  1  0  0  0  0
 29 30  1  0  0  0  0
 31 30  2  0  0  0  0
 32 31  1  0  0  0  0
 33 40  1  0  0  0  0
 33 32  2  0  0  0  0
 34 33  1  0  0  0  0
 35 37  1  0  0  0  0
 35 34  2  0  0  0  0
 36 35  1  0  0  0  0
 37 39  2  0  0  0  0
 38 37  1  0  0  0  0
 39 40  1  0  0  0  0
 40 29  2  0  0  0  0
M  END
>  <minimizedAffinity>
-7.27849436

>  <minimizedRMSD>
0.459708691

$$$$
