
 OpenBabel03242519043D

 35 38  0  0  1  0  0  0  0  0999 V2000
   37.5690   30.4620   39.4190 N   0  0  0  0  0  0  0  0  0  0  0  0
   36.6260   29.6060   40.0970 C   0  0  0  0  0  0  0  0  0  0  0  0
   37.3910   28.3200   40.0080 C   0  0  2  0  0  0  0  0  0  0  0  0
   37.7430   28.2710   38.5460 C   0  0  0  0  0  0  0  0  0  0  0  0
   37.9960   29.7350   38.2340 C   0  0  0  0  0  0  0  0  0  0  0  0
   36.3930   29.9370   41.1210 H   0  0  0  0  0  0  0  0  0  0  0  0
   35.7410   29.5190   39.4430 H   0  0  0  0  0  0  0  0  0  0  0  0
   38.3090   28.3150   40.6280 H   0  0  0  0  0  0  0  0  0  0  0  0
   36.9890   27.8000   37.9060 H   0  0  0  0  0  0  0  0  0  0  0  0
   38.7440   27.7770   38.4730 H   0  0  0  0  0  0  0  0  0  0  0  0
   37.2660   30.0140   37.4350 H   0  0  0  0  0  0  0  0  0  0  0  0
   39.0350   29.9500   37.9440 H   0  0  0  0  0  0  0  0  0  0  0  0
   36.5540   27.1650   40.2800 N   0  0  0  0  0  0  0  0  0  0  0  0
   35.5880   27.2200   39.9440 H   0  0  0  0  0  0  0  0  0  0  0  0
   37.1800   26.1040   40.9780 C   0  0  0  0  0  0  0  0  0  0  0  0
   36.7870   24.8430   40.7790 N   0  0  0  0  0  0  0  0  0  0  0  0
   37.3770   23.8260   41.4380 C   0  0  0  0  0  3  0  0  0  0  0  0
   38.3820   23.9820   42.3270 N   0  0  0  0  0  0  0  0  0  0  0  0
   38.8010   25.2470   42.5500 C   0  0  0  0  0  0  0  0  0  0  0  0
   39.8260   25.4160   43.4550 C   0  0  0  0  0  3  0  0  0  0  0  0
   40.2510   26.7080   43.6800 C   0  0  0  0  0  0  0  0  0  0  0  0
   41.0530   26.8980   44.3820 H   0  0  0  0  0  0  0  0  0  0  0  0
   39.6940   27.8090   43.0400 C   0  0  0  0  0  0  0  0  0  0  0  0
   40.0390   28.8010   43.2290 H   0  0  0  0  0  0  0  0  0  0  0  0
   38.6720   27.5420   42.1480 C   0  0  0  0  0  3  0  0  0  0  0  0
   38.2050   26.2940   41.8810 C   0  0  0  0  0  0  0  0  0  0  0  0
   37.9580   34.1280   39.9030 C   0  0  0  0  0  0  0  0  0  0  0  0
   37.3580   32.9280   39.5360 C   0  0  0  0  0  0  0  0  0  0  0  0
   38.0480   31.7430   39.7400 C   0  0  0  0  0  0  0  0  0  0  0  0
   39.3080   31.8300   40.3040 N   0  0  0  0  0  0  0  0  0  0  0  0
   39.8740   33.0010   40.6530 C   0  0  0  0  0  0  0  0  0  0  0  0
   39.1900   34.1610   40.4500 N   0  0  0  0  0  0  0  0  0  0  0  0
   37.3820   35.0250   39.7260 H   0  0  0  0  0  0  0  0  0  0  0  0
   36.3770   32.8550   39.0980 H   0  0  0  0  0  0  0  0  0  0  0  0
   40.8690   32.9440   41.0870 H   0  0  0  0  0  0  0  0  0  0  0  0
  1 29  1  0  0  0  0
  1  2  1  0  0  0  0
  2  6  1  0  0  0  0
  3  2  1  0  0  0  0
  3 13  1  0  0  0  0
  3  8  1  1  0  0  0
  4  3  1  0  0  0  0
  5  4  1  0  0  0  0
  5  1  1  0  0  0  0
  7  2  1  0  0  0  0
  9  4  1  0  0  0  0
 10  4  1  0  0  0  0
 11  5  1  0  0  0  0
 12  5  1  0  0  0  0
 13 15  1  0  0  0  0
 14 13  1  0  0  0  0
 15 26  1  0  0  0  0
 16 15  2  0  0  0  0
 16 17  1  0  0  0  0
 17 18  2  0  0  0  0
 18 19  1  0  0  0  0
 19 20  1  0  0  0  0
 20 21  2  0  0  0  0
 21 22  1  0  0  0  0
 23 24  1  0  0  0  0
 23 21  1  0  0  0  0
 25 23  2  0  0  0  0
 26 25  1  0  0  0  0
 26 19  2  0  0  0  0
 27 32  1  0  0  0  0
 28 29  1  0  0  0  0
 28 27  2  0  0  0  0
 29 30  2  0  0  0  0
 30 31  1  0  0  0  0
 31 35  1  0  0  0  0
 32 31  2  0  0  0  0
 33 27  1  0  0  0  0
 34 28  1  0  0  0  0
M  END
>  <minimizedAffinity>
-5.55942392

$$$$

 OpenBabel03242519043D

 35 38  0  0  1  0  0  0  0  0999 V2000
   37.5890   26.7770   42.1660 N   0  0  0  0  0  0  0  0  0  0  0  0
   36.6800   27.8650   41.9060 C   0  0  0  0  0  0  0  0  0  0  0  0
   37.6900   28.9540   41.7030 C   0  0  2  0  0  0  0  0  0  0  0  0
   38.5620   28.7960   42.9190 C   0  0  0  0  0  0  0  0  0  0  0  0
   38.5780   27.2900   43.1020 C   0  0  0  0  0  0  0  0  0  0  0  0
   36.0150   27.6840   41.0480 H   0  0  0  0  0  0  0  0  0  0  0  0
   36.1450   28.0720   42.8500 H   0  0  0  0  0  0  0  0  0  0  0  0
   38.2880   28.8270   40.7780 H   0  0  0  0  0  0  0  0  0  0  0  0
   38.2260   29.3520   43.8020 H   0  0  0  0  0  0  0  0  0  0  0  0
   39.6020   29.0660   42.6070 H   0  0  0  0  0  0  0  0  0  0  0  0
   38.1540   27.0940   44.1180 H   0  0  0  0  0  0  0  0  0  0  0  0
   39.5730   26.8410   42.9710 H   0  0  0  0  0  0  0  0  0  0  0  0
   37.0940   30.2760   41.7790 N   0  0  0  0  0  0  0  0  0  0  0  0
   36.6640   30.5250   42.6750 H   0  0  0  0  0  0  0  0  0  0  0  0
   37.1810   31.0570   40.6010 C   0  0  0  0  0  0  0  0  0  0  0  0
   37.2410   32.3890   40.6800 N   0  0  0  0  0  0  0  0  0  0  0  0
   37.3240   33.1420   39.5640 C   0  0  0  0  0  3  0  0  0  0  0  0
   37.3540   32.6370   38.3120 N   0  0  0  0  0  0  0  0  0  0  0  0
   37.2940   31.2910   38.2010 C   0  0  0  0  0  0  0  0  0  0  0  0
   37.3250   30.7680   36.9270 C   0  0  0  0  0  3  0  0  0  0  0  0
   37.2640   29.3950   36.8160 C   0  0  0  0  0  0  0  0  0  0  0  0
   37.2830   28.9300   35.8380 H   0  0  0  0  0  0  0  0  0  0  0  0
   37.1760   28.5510   37.9170 C   0  0  0  0  0  0  0  0  0  0  0  0
   37.1310   27.4910   37.8090 H   0  0  0  0  0  0  0  0  0  0  0  0
   37.1530   29.1670   39.1550 C   0  0  0  0  0  3  0  0  0  0  0  0
   37.2090   30.5130   39.3350 C   0  0  0  0  0  0  0  0  0  0  0  0
   38.4960   23.2530   41.4000 C   0  0  0  0  0  0  0  0  0  0  0  0
   38.6000   24.5240   41.9540 C   0  0  0  0  0  0  0  0  0  0  0  0
   37.6140   25.4590   41.6780 C   0  0  0  0  0  0  0  0  0  0  0  0
   36.5740   25.0630   40.8580 N   0  0  0  0  0  0  0  0  0  0  0  0
   36.4890   23.8270   40.3300 C   0  0  0  0  0  0  0  0  0  0  0  0
   37.4620   22.9140   40.6050 N   0  0  0  0  0  0  0  0  0  0  0  0
   39.2880   22.5580   41.6430 H   0  0  0  0  0  0  0  0  0  0  0  0
   39.4080   24.8380   42.5940 H   0  0  0  0  0  0  0  0  0  0  0  0
   35.6260   23.6310   39.6990 H   0  0  0  0  0  0  0  0  0  0  0  0
  1  5  1  0  0  0  0
  2  1  1  0  0  0  0
  2  7  1  0  0  0  0
  3  8  1  6  0  0  0
  3 13  1  0  0  0  0
  3  2  1  0  0  0  0
  3  4  1  0  0  0  0
  4  5  1  0  0  0  0
  4  9  1  0  0  0  0
  5 11  1  0  0  0  0
  6  2  1  0  0  0  0
 10  4  1  0  0  0  0
 12  5  1  0  0  0  0
 13 14  1  0  0  0  0
 15 16  1  0  0  0  0
 15 13  1  0  0  0  0
 17 16  2  0  0  0  0
 18 17  1  0  0  0  0
 19 18  2  0  0  0  0
 19 26  1  0  0  0  0
 20 19  1  0  0  0  0
 21 20  2  0  0  0  0
 21 23  1  0  0  0  0
 22 21  1  0  0  0  0
 23 25  2  0  0  0  0
 24 23  1  0  0  0  0
 25 26  1  0  0  0  0
 26 15  2  0  0  0  0
 27 33  1  0  0  0  0
 27 28  1  0  0  0  0
 28 34  1  0  0  0  0
 29 28  2  0  0  0  0
 29  1  1  0  0  0  0
 30 29  1  0  0  0  0
 31 32  1  0  0  0  0
 31 30  2  0  0  0  0
 32 27  2  0  0  0  0
 35 31  1  0  0  0  0
M  END
>  <minimizedAffinity>
-5.32231569

$$$$

 OpenBabel03242519043D

 35 38  0  0  1  0  0  0  0  0999 V2000
   37.1920   27.8980   41.7380 N   0  0  0  0  0  0  0  0  0  0  0  0
   36.6230   29.1190   41.2230 C   0  0  0  0  0  0  0  0  0  0  0  0
   37.8740   29.9450   41.1800 C   0  0  2  0  0  0  0  0  0  0  0  0
   38.4270   29.7390   42.5630 C   0  0  0  0  0  0  0  0  0  0  0  0
   38.0660   28.2900   42.8340 C   0  0  0  0  0  0  0  0  0  0  0  0
   36.1180   28.9900   40.2530 H   0  0  0  0  0  0  0  0  0  0  0  0
   35.9730   29.5310   42.0140 H   0  0  0  0  0  0  0  0  0  0  0  0
   38.5980   29.6000   40.4160 H   0  0  0  0  0  0  0  0  0  0  0  0
   38.0570   30.4420   43.3170 H   0  0  0  0  0  0  0  0  0  0  0  0
   39.5420   29.7510   42.4680 H   0  0  0  0  0  0  0  0  0  0  0  0
   37.4160   28.2960   43.7440 H   0  0  0  0  0  0  0  0  0  0  0  0
   38.9390   27.6320   42.9480 H   0  0  0  0  0  0  0  0  0  0  0  0
   37.5890   31.3630   41.0450 N   0  0  0  0  0  0  0  0  0  0  0  0
   36.6890   31.6780   41.4200 H   0  0  0  0  0  0  0  0  0  0  0  0
   38.5940   32.1330   40.4120 C   0  0  0  0  0  0  0  0  0  0  0  0
   38.7600   33.4190   40.7350 N   0  0  0  0  0  0  0  0  0  0  0  0
   39.7140   34.1610   40.1380 C   0  0  0  0  0  3  0  0  0  0  0  0
   40.5570   33.6910   39.1940 N   0  0  0  0  0  0  0  0  0  0  0  0
   40.4120   32.3940   38.8450 C   0  0  0  0  0  0  0  0  0  0  0  0
   41.2690   31.9060   37.8830 C   0  0  0  0  0  3  0  0  0  0  0  0
   41.1180   30.5820   37.5290 C   0  0  0  0  0  0  0  0  0  0  0  0
   41.7650   30.1470   36.7770 H   0  0  0  0  0  0  0  0  0  0  0  0
   40.1600   29.7520   38.0980 C   0  0  0  0  0  0  0  0  0  0  0  0
   40.0610   28.7290   37.8100 H   0  0  0  0  0  0  0  0  0  0  0  0
   39.3460   30.3290   39.0560 C   0  0  0  0  0  3  0  0  0  0  0  0
   39.4400   31.6260   39.4500 C   0  0  0  0  0  0  0  0  0  0  0  0
   36.9850   24.1870   41.6430 C   0  0  0  0  0  0  0  0  0  0  0  0
   37.1960   25.4580   42.1670 C   0  0  0  0  0  0  0  0  0  0  0  0
   37.0150   26.5600   41.3460 C   0  0  0  0  0  0  0  0  0  0  0  0
   36.6310   26.3240   40.0390 N   0  0  0  0  0  0  0  0  0  0  0  0
   36.4310   25.0860   39.5480 C   0  0  0  0  0  0  0  0  0  0  0  0
   36.6110   24.0080   40.3600 N   0  0  0  0  0  0  0  0  0  0  0  0
   37.1370   23.3580   42.3200 H   0  0  0  0  0  0  0  0  0  0  0  0
   37.4950   25.6470   43.1840 H   0  0  0  0  0  0  0  0  0  0  0  0
   36.1310   25.0240   38.5050 H   0  0  0  0  0  0  0  0  0  0  0  0
  1  5  1  0  0  0  0
  2  1  1  0  0  0  0
  2  7  1  0  0  0  0
  3  8  1  6  0  0  0
  3  2  1  0  0  0  0
  3  4  1  0  0  0  0
  4  5  1  0  0  0  0
  4  9  1  0  0  0  0
  5 12  1  0  0  0  0
  5 11  1  0  0  0  0
  6  2  1  0  0  0  0
 10  4  1  0  0  0  0
 13  3  1  0  0  0  0
 13 14  1  0  0  0  0
 15 16  1  0  0  0  0
 15 13  1  0  0  0  0
 17 16  2  0  0  0  0
 18 17  1  0  0  0  0
 19 18  2  0  0  0  0
 19 26  1  0  0  0  0
 20 19  1  0  0  0  0
 21 20  2  0  0  0  0
 21 23  1  0  0  0  0
 22 21  1  0  0  0  0
 23 25  2  0  0  0  0
 24 23  1  0  0  0  0
 25 26  1  0  0  0  0
 26 15  2  0  0  0  0
 27 28  1  0  0  0  0
 27 33  1  0  0  0  0
 28 34  1  0  0  0  0
 29  1  1  0  0  0  0
 29 28  2  0  0  0  0
 30 29  1  0  0  0  0
 31 30  2  0  0  0  0
 31 32  1  0  0  0  0
 32 27  2  0  0  0  0
 35 31  1  0  0  0  0
M  END
>  <minimizedAffinity>
-5.29788637

$$$$

 OpenBabel03242519043D

 35 38  0  0  1  0  0  0  0  0999 V2000
   40.8350   33.0580   39.2530 N   0  0  0  0  0  0  0  0  0  0  0  0
   39.5180   33.2860   39.7950 C   0  0  0  0  0  0  0  0  0  0  0  0
   38.9610   31.9060   39.6120 C   0  0  2  0  0  0  0  0  0  0  0  0
   39.2920   31.6290   38.1720 C   0  0  0  0  0  0  0  0  0  0  0  0
   40.6410   32.3080   38.0220 C   0  0  0  0  0  0  0  0  0  0  0  0
   39.5310   33.6470   40.8350 H   0  0  0  0  0  0  0  0  0  0  0  0
   38.9930   33.9580   39.0950 H   0  0  0  0  0  0  0  0  0  0  0  0
   39.4370   31.1530   40.2720 H   0  0  0  0  0  0  0  0  0  0  0  0
   38.5380   31.9660   37.4530 H   0  0  0  0  0  0  0  0  0  0  0  0
   39.5040   30.5330   38.0960 H   0  0  0  0  0  0  0  0  0  0  0  0
   40.5140   33.0780   37.2210 H   0  0  0  0  0  0  0  0  0  0  0  0
   41.4630   31.6110   37.8040 H   0  0  0  0  0  0  0  0  0  0  0  0
   37.5140   31.8800   39.7270 N   0  0  0  0  0  0  0  0  0  0  0  0
   37.0210   32.7100   39.3840 H   0  0  0  0  0  0  0  0  0  0  0  0
   36.9650   30.7080   40.3000 C   0  0  0  0  0  0  0  0  0  0  0  0
   35.7480   30.2900   39.9410 N   0  0  0  0  0  0  0  0  0  0  0  0
   35.2150   29.1750   40.4810 C   0  0  0  0  0  3  0  0  0  0  0  0
   35.8400   28.4070   41.3990 N   0  0  0  0  0  0  0  0  0  0  0  0
   37.0740   28.8050   41.7820 C   0  0  0  0  0  0  0  0  0  0  0  0
   37.7180   28.0270   42.7180 C   0  0  0  0  0  3  0  0  0  0  0  0
   38.9770   28.4360   43.1080 C   0  0  0  0  0  0  0  0  0  0  0  0
   39.5280   27.8610   43.8420 H   0  0  0  0  0  0  0  0  0  0  0  0
   39.5930   29.5730   42.5980 C   0  0  0  0  0  0  0  0  0  0  0  0
   40.5680   29.8700   42.9130 H   0  0  0  0  0  0  0  0  0  0  0  0
   38.8690   30.2900   41.6630 C   0  0  0  0  0  3  0  0  0  0  0  0
   37.6270   29.9430   41.2370 C   0  0  0  0  0  0  0  0  0  0  0  0
   44.4120   34.0330   39.5330 C   0  0  0  0  0  0  0  0  0  0  0  0
   43.2150   33.6680   38.9270 C   0  0  0  0  0  0  0  0  0  0  0  0
   42.1050   33.4320   39.7240 C   0  0  0  0  0  0  0  0  0  0  0  0
   42.2610   33.5770   41.0900 N   0  0  0  0  0  0  0  0  0  0  0  0
   43.4280   33.9310   41.6600 C   0  0  0  0  0  0  0  0  0  0  0  0
   44.5140   34.1600   40.8710 N   0  0  0  0  0  0  0  0  0  0  0  0
   45.2500   34.2060   38.8720 H   0  0  0  0  0  0  0  0  0  0  0  0
   43.0880   33.5540   37.8640 H   0  0  0  0  0  0  0  0  0  0  0  0
   43.4300   34.0130   42.7440 H   0  0  0  0  0  0  0  0  0  0  0  0
  1 29  1  0  0  0  0
  1  2  1  0  0  0  0
  2  6  1  0  0  0  0
  3 13  1  0  0  0  0
  3  2  1  0  0  0  0
  3  8  1  1  0  0  0
  4  3  1  0  0  0  0
  5  4  1  0  0  0  0
  5  1  1  0  0  0  0
  7  2  1  0  0  0  0
  9  4  1  0  0  0  0
 10  4  1  0  0  0  0
 11  5  1  0  0  0  0
 12  5  1  0  0  0  0
 13 15  1  0  0  0  0
 14 13  1  0  0  0  0
 15 26  1  0  0  0  0
 16 15  2  0  0  0  0
 16 17  1  0  0  0  0
 17 18  2  0  0  0  0
 18 19  1  0  0  0  0
 19 20  1  0  0  0  0
 20 21  2  0  0  0  0
 21 22  1  0  0  0  0
 23 24  1  0  0  0  0
 23 21  1  0  0  0  0
 25 23  2  0  0  0  0
 26 25  1  0  0  0  0
 26 19  2  0  0  0  0
 27 32  1  0  0  0  0
 28 27  2  0  0  0  0
 28 29  1  0  0  0  0
 29 30  2  0  0  0  0
 30 31  1  0  0  0  0
 31 35  1  0  0  0  0
 32 31  2  0  0  0  0
 33 27  1  0  0  0  0
 34 28  1  0  0  0  0
M  END
>  <minimizedAffinity>
-5.29666471

$$$$

 OpenBabel03242519043D

 35 38  0  0  1  0  0  0  0  0999 V2000
   34.0400   28.6670   38.2590 N   0  0  0  0  0  0  0  0  0  0  0  0
   34.0440   28.9860   39.6660 C   0  0  0  0  0  0  0  0  0  0  0  0
   35.5240   29.1420   39.8530 C   0  0  2  0  0  0  0  0  0  0  0  0
   36.0480   27.8780   39.2270 C   0  0  0  0  0  0  0  0  0  0  0  0
   35.0930   27.6830   38.0640 C   0  0  0  0  0  0  0  0  0  0  0  0
   33.4490   29.8780   39.9130 H   0  0  0  0  0  0  0  0  0  0  0  0
   33.7300   28.0750   40.2040 H   0  0  0  0  0  0  0  0  0  0  0  0
   35.9370   30.0310   39.3360 H   0  0  0  0  0  0  0  0  0  0  0  0
   36.1110   27.0200   39.9050 H   0  0  0  0  0  0  0  0  0  0  0  0
   37.0320   28.1350   38.7600 H   0  0  0  0  0  0  0  0  0  0  0  0
   34.6050   26.6900   38.2250 H   0  0  0  0  0  0  0  0  0  0  0  0
   35.5770   27.7550   37.0790 H   0  0  0  0  0  0  0  0  0  0  0  0
   35.9050   29.1100   41.2530 N   0  0  0  0  0  0  0  0  0  0  0  0
   35.2790   28.5930   41.8780 H   0  0  0  0  0  0  0  0  0  0  0  0
   37.0970   29.7990   41.5810 C   0  0  0  0  0  0  0  0  0  0  0  0
   37.8540   29.3870   42.6010 N   0  0  0  0  0  0  0  0  0  0  0  0
   38.9920   30.0360   42.9210 C   0  0  0  0  0  3  0  0  0  0  0  0
   39.4530   31.1220   42.2640 N   0  0  0  0  0  0  0  0  0  0  0  0
   38.7080   31.5630   41.2270 C   0  0  0  0  0  0  0  0  0  0  0  0
   39.1710   32.6700   40.5510 C   0  0  0  0  0  3  0  0  0  0  0  0
   38.4080   33.1180   39.4920 C   0  0  0  0  0  0  0  0  0  0  0  0
   38.7250   33.9850   38.9260 H   0  0  0  0  0  0  0  0  0  0  0  0
   37.2240   32.5040   39.1010 C   0  0  0  0  0  0  0  0  0  0  0  0
   36.6500   32.8660   38.2780 H   0  0  0  0  0  0  0  0  0  0  0  0
   36.8400   31.3990   39.8390 C   0  0  0  0  0  3  0  0  0  0  0  0
   37.5430   30.9060   40.8910 C   0  0  0  0  0  0  0  0  0  0  0  0
   32.7020   29.6580   34.9340 C   0  0  0  0  0  0  0  0  0  0  0  0
   33.6000   29.1570   35.8700 C   0  0  0  0  0  0  0  0  0  0  0  0
   33.2370   29.1420   37.2080 C   0  0  0  0  0  0  0  0  0  0  0  0
   31.9870   29.6340   37.5330 N   0  0  0  0  0  0  0  0  0  0  0  0
   31.1290   30.1170   36.6130 C   0  0  0  0  0  0  0  0  0  0  0  0
   31.4930   30.1280   35.3010 N   0  0  0  0  0  0  0  0  0  0  0  0
   33.0290   29.6500   33.9040 H   0  0  0  0  0  0  0  0  0  0  0  0
   34.5760   28.7720   35.6220 H   0  0  0  0  0  0  0  0  0  0  0  0
   30.1740   30.4770   36.9870 H   0  0  0  0  0  0  0  0  0  0  0  0
  1  2  1  0  0  0  0
  2  3  1  0  0  0  0
  2  6  1  0  0  0  0
  2  7  1  0  0  0  0
  3  8  1  6  0  0  0
  3 13  1  0  0  0  0
  4  3  1  0  0  0  0
  4  9  1  0  0  0  0
  5 11  1  0  0  0  0
  5  1  1  0  0  0  0
  5  4  1  0  0  0  0
 10  4  1  0  0  0  0
 12  5  1  0  0  0  0
 13 15  1  0  0  0  0
 13 14  1  0  0  0  0
 15 16  1  0  0  0  0
 16 17  2  0  0  0  0
 18 17  1  0  0  0  0
 19 18  2  0  0  0  0
 20 19  1  0  0  0  0
 21 20  2  0  0  0  0
 22 21  1  0  0  0  0
 23 21  1  0  0  0  0
 23 25  2  0  0  0  0
 24 23  1  0  0  0  0
 25 26  1  0  0  0  0
 26 19  1  0  0  0  0
 26 15  2  0  0  0  0
 27 32  2  0  0  0  0
 27 28  1  0  0  0  0
 28 29  2  0  0  0  0
 29 30  1  0  0  0  0
 29  1  1  0  0  0  0
 31 35  1  0  0  0  0
 31 30  2  0  0  0  0
 32 31  1  0  0  0  0
 33 27  1  0  0  0  0
 34 28  1  0  0  0  0
M  END
>  <minimizedAffinity>
-5.28418732

$$$$

 OpenBabel03242519043D

 35 38  0  0  1  0  0  0  0  0999 V2000
   37.0170   30.5690   41.0810 N   0  0  0  0  0  0  0  0  0  0  0  0
   37.2900   29.6020   42.1150 C   0  0  0  0  0  0  0  0  0  0  0  0
   37.1030   28.3540   41.3060 C   0  0  2  0  0  0  0  0  0  0  0  0
   35.7710   28.6060   40.6550 C   0  0  0  0  0  0  0  0  0  0  0  0
   35.8260   30.0990   40.3910 C   0  0  0  0  0  0  0  0  0  0  0  0
   38.2880   29.7160   42.5680 H   0  0  0  0  0  0  0  0  0  0  0  0
   36.4610   29.6620   42.8400 H   0  0  0  0  0  0  0  0  0  0  0  0
   37.8890   28.2100   40.5380 H   0  0  0  0  0  0  0  0  0  0  0  0
   34.9030   28.2860   41.2430 H   0  0  0  0  0  0  0  0  0  0  0  0
   35.8100   28.1260   39.6450 H   0  0  0  0  0  0  0  0  0  0  0  0
   34.9650   30.5460   40.9470 H   0  0  0  0  0  0  0  0  0  0  0  0
   35.8120   30.3580   39.3230 H   0  0  0  0  0  0  0  0  0  0  0  0
   36.9500   27.1770   42.1420 N   0  0  0  0  0  0  0  0  0  0  0  0
   36.4490   27.3150   43.0250 H   0  0  0  0  0  0  0  0  0  0  0  0
   37.5130   25.9830   41.6310 C   0  0  0  0  0  0  0  0  0  0  0  0
   36.9740   24.8000   41.9370 N   0  0  0  0  0  0  0  0  0  0  0  0
   37.5030   23.6570   41.4550 C   0  0  0  0  0  3  0  0  0  0  0  0
   38.5850   23.6050   40.6490 N   0  0  0  0  0  0  0  0  0  0  0  0
   39.1530   24.7870   40.3230 C   0  0  0  0  0  0  0  0  0  0  0  0
   40.2580   24.7440   39.5010 C   0  0  0  0  0  3  0  0  0  0  0  0
   40.8350   25.9520   39.1690 C   0  0  0  0  0  0  0  0  0  0  0  0
   41.7060   25.9760   38.5270 H   0  0  0  0  0  0  0  0  0  0  0  0
   40.3500   27.1720   39.6260 C   0  0  0  0  0  0  0  0  0  0  0  0
   40.8120   28.0950   39.3560 H   0  0  0  0  0  0  0  0  0  0  0  0
   39.2370   27.1160   40.4450 C   0  0  0  0  0  3  0  0  0  0  0  0
   38.6200   25.9610   40.8100 C   0  0  0  0  0  0  0  0  0  0  0  0
   37.9220   33.9040   39.7060 C   0  0  0  0  0  0  0  0  0  0  0  0
   37.1380   32.7910   39.9890 C   0  0  0  0  0  0  0  0  0  0  0  0
   37.6880   31.7510   40.7220 C   0  0  0  0  0  0  0  0  0  0  0  0
   39.0020   31.8870   41.1310 N   0  0  0  0  0  0  0  0  0  0  0  0
   39.7470   32.9730   40.8480 C   0  0  0  0  0  0  0  0  0  0  0  0
   39.1990   33.9900   40.1270 N   0  0  0  0  0  0  0  0  0  0  0  0
   37.4500   34.6890   39.1320 H   0  0  0  0  0  0  0  0  0  0  0  0
   36.1140   32.6790   39.6720 H   0  0  0  0  0  0  0  0  0  0  0  0
   40.7680   32.9680   41.2230 H   0  0  0  0  0  0  0  0  0  0  0  0
  1  2  1  0  0  0  0
  2  6  1  0  0  0  0
  2  7  1  0  0  0  0
  3  8  1  6  0  0  0
  3  2  1  0  0  0  0
  3 13  1  0  0  0  0
  4  9  1  0  0  0  0
  4  3  1  0  0  0  0
  5  4  1  0  0  0  0
  5 11  1  0  0  0  0
  5  1  1  0  0  0  0
 10  4  1  0  0  0  0
 12  5  1  0  0  0  0
 13 14  1  0  0  0  0
 15 16  1  0  0  0  0
 15 13  1  0  0  0  0
 17 16  2  0  0  0  0
 18 17  1  0  0  0  0
 19 18  2  0  0  0  0
 19 26  1  0  0  0  0
 20 19  1  0  0  0  0
 21 20  2  0  0  0  0
 21 23  1  0  0  0  0
 22 21  1  0  0  0  0
 23 25  2  0  0  0  0
 24 23  1  0  0  0  0
 25 26  1  0  0  0  0
 26 15  2  0  0  0  0
 27 28  2  0  0  0  0
 27 32  1  0  0  0  0
 28 29  1  0  0  0  0
 29  1  1  0  0  0  0
 29 30  2  0  0  0  0
 31 30  1  0  0  0  0
 31 35  1  0  0  0  0
 32 31  2  0  0  0  0
 33 27  1  0  0  0  0
 34 28  1  0  0  0  0
M  END
>  <minimizedAffinity>
-5.24255657

$$$$

 OpenBabel03242519043D

 35 38  0  0  1  0  0  0  0  0999 V2000
   37.8090   30.6110   38.3950 N   0  0  0  0  0  0  0  0  0  0  0  0
   36.5640   29.9290   38.1460 C   0  0  0  0  0  0  0  0  0  0  0  0
   37.0420   28.5200   38.3320 C   0  0  2  0  0  0  0  0  0  0  0  0
   38.2630   28.4900   37.4550 C   0  0  0  0  0  0  0  0  0  0  0  0
   38.8250   29.8860   37.6490 C   0  0  0  0  0  0  0  0  0  0  0  0
   35.7530   30.2370   38.8230 H   0  0  0  0  0  0  0  0  0  0  0  0
   36.3290   30.0660   37.0760 H   0  0  0  0  0  0  0  0  0  0  0  0
   37.3130   28.2870   39.3820 H   0  0  0  0  0  0  0  0  0  0  0  0
   38.0720   28.2250   36.4090 H   0  0  0  0  0  0  0  0  0  0  0  0
   38.9970   27.8050   37.9480 H   0  0  0  0  0  0  0  0  0  0  0  0
   38.8430   30.3590   36.6360 H   0  0  0  0  0  0  0  0  0  0  0  0
   39.8120   29.9000   38.1340 H   0  0  0  0  0  0  0  0  0  0  0  0
   36.1080   27.5480   37.7920 N   0  0  0  0  0  0  0  0  0  0  0  0
   35.5050   27.8780   37.0330 H   0  0  0  0  0  0  0  0  0  0  0  0
   36.1500   26.2620   38.3840 C   0  0  0  0  0  0  0  0  0  0  0  0
   35.8380   25.1810   37.6650 N   0  0  0  0  0  0  0  0  0  0  0  0
   35.8740   23.9520   38.2180 C   0  0  0  0  0  3  0  0  0  0  0  0
   36.2160   23.7110   39.5020 N   0  0  0  0  0  0  0  0  0  0  0  0
   36.5370   24.7860   40.2550 C   0  0  0  0  0  0  0  0  0  0  0  0
   36.8880   24.5490   41.5660 C   0  0  0  0  0  3  0  0  0  0  0  0
   37.2140   25.6490   42.3310 C   0  0  0  0  0  0  0  0  0  0  0  0
   37.4970   25.5210   43.3690 H   0  0  0  0  0  0  0  0  0  0  0  0
   37.2010   26.9470   41.8340 C   0  0  0  0  0  0  0  0  0  0  0  0
   37.4570   27.7840   42.4440 H   0  0  0  0  0  0  0  0  0  0  0  0
   36.8360   27.0860   40.5070 C   0  0  0  0  0  3  0  0  0  0  0  0
   36.5030   26.0470   39.6990 C   0  0  0  0  0  0  0  0  0  0  0  0
   37.7590   33.9540   40.0230 C   0  0  0  0  0  0  0  0  0  0  0  0
   37.3510   32.9100   39.2010 C   0  0  0  0  0  0  0  0  0  0  0  0
   38.1000   31.7440   39.1750 C   0  0  0  0  0  0  0  0  0  0  0  0
   39.2240   31.6920   39.9800 N   0  0  0  0  0  0  0  0  0  0  0  0
   39.6050   32.7140   40.7710 C   0  0  0  0  0  0  0  0  0  0  0  0
   38.8630   33.8560   40.7900 N   0  0  0  0  0  0  0  0  0  0  0  0
   37.1430   34.8420   40.0110 H   0  0  0  0  0  0  0  0  0  0  0  0
   36.4770   32.9450   38.5730 H   0  0  0  0  0  0  0  0  0  0  0  0
   40.5060   32.5580   41.3590 H   0  0  0  0  0  0  0  0  0  0  0  0
  1 29  1  0  0  0  0
  2  3  1  0  0  0  0
  2  1  1  0  0  0  0
  2  6  1  0  0  0  0
  3  8  1  1  0  0  0
  4  5  1  0  0  0  0
  4 10  1  0  0  0  0
  4  3  1  0  0  0  0
  5 12  1  0  0  0  0
  5  1  1  0  0  0  0
  7  2  1  0  0  0  0
  9  4  1  0  0  0  0
 11  5  1  0  0  0  0
 13  3  1  0  0  0  0
 13 15  1  0  0  0  0
 14 13  1  0  0  0  0
 15 26  1  0  0  0  0
 16 17  1  0  0  0  0
 16 15  2  0  0  0  0
 17 18  2  0  0  0  0
 18 19  1  0  0  0  0
 19 20  1  0  0  0  0
 20 21  2  0  0  0  0
 21 22  1  0  0  0  0
 23 21  1  0  0  0  0
 23 24  1  0  0  0  0
 25 23  2  0  0  0  0
 26 19  2  0  0  0  0
 26 25  1  0  0  0  0
 27 32  1  0  0  0  0
 28 27  2  0  0  0  0
 29 28  1  0  0  0  0
 29 30  2  0  0  0  0
 30 31  1  0  0  0  0
 31 32  2  0  0  0  0
 31 35  1  0  0  0  0
 33 27  1  0  0  0  0
 34 28  1  0  0  0  0
M  END
>  <minimizedAffinity>
-5.18579626

$$$$

 OpenBabel03242519043D

 35 38  0  0  1  0  0  0  0  0999 V2000
   38.6340   29.9200   41.5060 N   0  0  0  0  0  0  0  0  0  0  0  0
   39.4490   28.8290   41.0320 C   0  0  0  0  0  0  0  0  0  0  0  0
   38.4930   27.7060   41.3000 C   0  0  2  0  0  0  0  0  0  0  0  0
   38.1020   27.9680   42.7290 C   0  0  0  0  0  0  0  0  0  0  0  0
   38.0710   29.4840   42.7740 C   0  0  0  0  0  0  0  0  0  0  0  0
   39.7560   28.9360   39.9800 H   0  0  0  0  0  0  0  0  0  0  0  0
   40.2940   28.7280   41.7350 H   0  0  0  0  0  0  0  0  0  0  0  0
   37.6000   27.7280   40.6440 H   0  0  0  0  0  0  0  0  0  0  0  0
   38.7590   27.5100   43.4770 H   0  0  0  0  0  0  0  0  0  0  0  0
   37.0360   27.6470   42.8340 H   0  0  0  0  0  0  0  0  0  0  0  0
   38.8160   29.7880   43.5500 H   0  0  0  0  0  0  0  0  0  0  0  0
   37.0720   29.8980   42.9700 H   0  0  0  0  0  0  0  0  0  0  0  0
   39.1480   26.4100   41.2710 N   0  0  0  0  0  0  0  0  0  0  0  0
   40.1160   26.3880   41.6060 H   0  0  0  0  0  0  0  0  0  0  0  0
   38.3640   25.3370   40.7810 C   0  0  0  0  0  0  0  0  0  0  0  0
   38.5700   24.0950   41.2280 N   0  0  0  0  0  0  0  0  0  0  0  0
   37.8290   23.0670   40.7690 C   0  0  0  0  0  3  0  0  0  0  0  0
   36.8480   23.1930   39.8490 N   0  0  0  0  0  0  0  0  0  0  0  0
   36.6170   24.4380   39.3780 C   0  0  0  0  0  0  0  0  0  0  0  0
   35.6170   24.5760   38.4410 C   0  0  0  0  0  3  0  0  0  0  0  0
   35.3840   25.8480   37.9620 C   0  0  0  0  0  0  0  0  0  0  0  0
   34.6100   26.0130   37.2230 H   0  0  0  0  0  0  0  0  0  0  0  0
   36.1040   26.9590   38.3850 C   0  0  0  0  0  0  0  0  0  0  0  0
   35.9060   27.9340   38.0020 H   0  0  0  0  0  0  0  0  0  0  0  0
   37.0860   26.7230   39.3290 C   0  0  0  0  0  3  0  0  0  0  0  0
   37.3680   25.4960   39.8420 C   0  0  0  0  0  0  0  0  0  0  0  0
   37.1510   32.7740   39.6390 C   0  0  0  0  0  0  0  0  0  0  0  0
   37.2920   31.4780   40.1220 C   0  0  0  0  0  0  0  0  0  0  0  0
   38.3660   31.1820   40.9470 C   0  0  0  0  0  0  0  0  0  0  0  0
   39.2430   32.2090   41.2430 N   0  0  0  0  0  0  0  0  0  0  0  0
   39.0910   33.4600   40.7670 C   0  0  0  0  0  0  0  0  0  0  0  0
   38.0340   33.7430   39.9560 N   0  0  0  0  0  0  0  0  0  0  0  0
   36.2990   32.9580   39.0000 H   0  0  0  0  0  0  0  0  0  0  0  0
   36.6120   30.6740   39.8950 H   0  0  0  0  0  0  0  0  0  0  0  0
   39.8440   34.1850   41.0670 H   0  0  0  0  0  0  0  0  0  0  0  0
  1  5  1  0  0  0  0
  2  3  1  0  0  0  0
  2  1  1  0  0  0  0
  2  7  1  0  0  0  0
  3  8  1  6  0  0  0
  3  4  1  0  0  0  0
  4  5  1  0  0  0  0
  4 10  1  0  0  0  0
  4  9  1  0  0  0  0
  5 12  1  0  0  0  0
  5 11  1  0  0  0  0
  6  2  1  0  0  0  0
 13  3  1  0  0  0  0
 13 14  1  0  0  0  0
 15 16  1  0  0  0  0
 15 13  1  0  0  0  0
 17 16  2  0  0  0  0
 18 17  1  0  0  0  0
 19 26  1  0  0  0  0
 19 18  2  0  0  0  0
 20 19  1  0  0  0  0
 21 23  1  0  0  0  0
 21 20  2  0  0  0  0
 22 21  1  0  0  0  0
 23 25  2  0  0  0  0
 24 23  1  0  0  0  0
 25 26  1  0  0  0  0
 26 15  2  0  0  0  0
 27 32  2  0  0  0  0
 27 28  1  0  0  0  0
 28 29  2  0  0  0  0
 29 30  1  0  0  0  0
 29  1  1  0  0  0  0
 31 35  1  0  0  0  0
 31 30  2  0  0  0  0
 32 31  1  0  0  0  0
 33 27  1  0  0  0  0
 34 28  1  0  0  0  0
M  END
>  <minimizedAffinity>
-5.1331439

$$$$

 OpenBabel03242519043D

 35 38  0  0  1  0  0  0  0  0999 V2000
   36.9340   29.8370   38.3260 N   0  0  0  0  0  0  0  0  0  0  0  0
   38.2530   29.3370   38.6270 C   0  0  0  0  0  0  0  0  0  0  0  0
   38.0370   29.0010   40.0730 C   0  0  2  0  0  0  0  0  0  0  0  0
   37.4280   30.2720   40.5970 C   0  0  0  0  0  0  0  0  0  0  0  0
   36.5740   30.7200   39.4240 C   0  0  0  0  0  0  0  0  0  0  0  0
   38.5550   28.4890   37.9940 H   0  0  0  0  0  0  0  0  0  0  0  0
   38.9430   30.1980   38.5800 H   0  0  0  0  0  0  0  0  0  0  0  0
   37.3460   28.1480   40.2230 H   0  0  0  0  0  0  0  0  0  0  0  0
   38.1490   31.0220   40.9390 H   0  0  0  0  0  0  0  0  0  0  0  0
   36.7010   29.9750   41.3940 H   0  0  0  0  0  0  0  0  0  0  0  0
   36.9540   31.7290   39.1300 H   0  0  0  0  0  0  0  0  0  0  0  0
   35.4970   30.7260   39.6410 H   0  0  0  0  0  0  0  0  0  0  0  0
   39.2890   28.8080   40.7820 N   0  0  0  0  0  0  0  0  0  0  0  0
   40.0430   29.4620   40.5520 H   0  0  0  0  0  0  0  0  0  0  0  0
   39.3110   27.7370   41.7080 C   0  0  0  0  0  0  0  0  0  0  0  0
   40.0880   27.7990   42.7920 N   0  0  0  0  0  0  0  0  0  0  0  0
   40.1160   26.7850   43.6790 C   0  0  0  0  0  3  0  0  0  0  0  0
   39.3880   25.6540   43.5580 N   0  0  0  0  0  0  0  0  0  0  0  0
   38.5920   25.5610   42.4700 C   0  0  0  0  0  0  0  0  0  0  0  0
   37.8460   24.4110   42.3380 C   0  0  0  0  0  3  0  0  0  0  0  0
   37.0340   24.3190   41.2270 C   0  0  0  0  0  0  0  0  0  0  0  0
   36.4260   23.4360   41.0730 H   0  0  0  0  0  0  0  0  0  0  0  0
   36.9500   25.3220   40.2680 C   0  0  0  0  0  0  0  0  0  0  0  0
   36.3150   25.2300   39.4160 H   0  0  0  0  0  0  0  0  0  0  0  0
   37.7360   26.4390   40.4850 C   0  0  0  0  0  3  0  0  0  0  0  0
   38.5560   26.5930   41.5570 C   0  0  0  0  0  0  0  0  0  0  0  0
   34.0570   28.9110   36.1600 C   0  0  0  0  0  0  0  0  0  0  0  0
   34.7870   29.1060   37.3270 C   0  0  0  0  0  0  0  0  0  0  0  0
   36.0820   29.5920   37.2350 C   0  0  0  0  0  0  0  0  0  0  0  0
   36.5740   29.8560   35.9700 N   0  0  0  0  0  0  0  0  0  0  0  0
   35.8530   29.6610   34.8490 C   0  0  0  0  0  0  0  0  0  0  0  0
   34.5810   29.1840   34.9480 N   0  0  0  0  0  0  0  0  0  0  0  0
   33.0520   28.5310   36.2800 H   0  0  0  0  0  0  0  0  0  0  0  0
   34.4090   28.9020   38.3140 H   0  0  0  0  0  0  0  0  0  0  0  0
   36.3450   29.9040   33.9110 H   0  0  0  0  0  0  0  0  0  0  0  0
  1  2  1  0  0  0  0
  1  5  1  0  0  0  0
  2  3  1  0  0  0  0
  3  8  1  1  0  0  0
  3  4  1  0  0  0  0
  3 13  1  0  0  0  0
  4  9  1  0  0  0  0
  4 10  1  0  0  0  0
  5 12  1  0  0  0  0
  5  4  1  0  0  0  0
  6  2  1  0  0  0  0
  7  2  1  0  0  0  0
 11  5  1  0  0  0  0
 13 15  1  0  0  0  0
 14 13  1  0  0  0  0
 15 16  1  0  0  0  0
 16 17  2  0  0  0  0
 18 17  1  0  0  0  0
 19 18  2  0  0  0  0
 20 19  1  0  0  0  0
 21 20  2  0  0  0  0
 22 21  1  0  0  0  0
 23 25  2  0  0  0  0
 23 21  1  0  0  0  0
 24 23  1  0  0  0  0
 25 26  1  0  0  0  0
 26 15  2  0  0  0  0
 26 19  1  0  0  0  0
 27 33  1  0  0  0  0
 27 28  1  0  0  0  0
 28 34  1  0  0  0  0
 29 28  2  0  0  0  0
 29  1  1  0  0  0  0
 30 29  1  0  0  0  0
 31 32  1  0  0  0  0
 31 30  2  0  0  0  0
 32 27  2  0  0  0  0
 35 31  1  0  0  0  0
M  END
>  <minimizedAffinity>
-5.01499462

$$$$
