
 OpenBabel03252506373D

 47 51  0  0  1  0  0  0  0  0999 V2000
   46.6610   30.0700   46.4620 S   0  0  0  0  0  0  0  0  0  0  0  0
   45.5780   30.7690   43.3830 O   0  0  0  0  0  0  0  0  0  0  0  0
   44.9830   30.1300   44.2650 C   0  0  0  0  0  0  0  0  0  0  0  0
   45.1160   29.7910   45.7040 C   0  0  1  0  0  0  0  0  0  0  0  0
   44.6370   28.3610   45.7340 C   0  0  0  0  0  0  0  0  0  0  0  0
   43.3020   28.5810   45.0170 C   0  0  0  0  0  0  0  0  0  0  0  0
   43.7630   29.4470   43.9390 N   0  0  0  0  0  0  0  0  0  0  0  0
   44.2140   30.3370   46.0990 H   0  0  0  0  0  0  0  0  0  0  0  0
   44.4080   27.9940   46.7490 H   0  0  0  0  0  0  0  0  0  0  0  0
   45.2950   27.6980   45.1680 H   0  0  0  0  0  0  0  0  0  0  0  0
   42.6480   29.1720   45.6880 H   0  0  0  0  0  0  0  0  0  0  0  0
   42.8620   27.6410   44.6670 H   0  0  0  0  0  0  0  0  0  0  0  0
   42.9630   29.4990   42.7400 C   0  0  0  0  0  0  0  0  0  0  0  0
   41.6310   29.3020   42.8540 N   0  0  0  0  0  0  0  0  0  0  0  0
   40.8020   29.3340   41.7720 C   0  0  0  0  0  3  0  0  0  0  0  0
   41.2820   29.5630   40.5460 N   0  0  0  0  0  0  0  0  0  0  0  0
   42.6070   29.7640   40.4000 C   0  0  0  0  0  0  0  0  0  0  0  0
   43.1400   30.0030   39.1500 C   0  0  0  0  0  3  0  0  0  0  0  0
   44.5010   30.2140   38.9690 C   0  0  0  0  0  0  0  0  0  0  0  0
   44.9020   30.4010   37.9820 H   0  0  0  0  0  0  0  0  0  0  0  0
   45.3150   30.1740   40.0950 C   0  0  0  0  0  0  0  0  0  0  0  0
   46.3680   30.3420   39.9140 H   0  0  0  0  0  0  0  0  0  0  0  0
   44.8300   29.9360   41.3780 C   0  0  0  0  0  3  0  0  0  0  0  0
   43.4710   29.7370   41.4770 C   0  0  0  0  0  0  0  0  0  0  0  0
   44.4960   35.5590   45.1310 C   0  0  0  0  0  0  0  0  0  0  0  0
   45.1590   35.5730   43.8790 C   0  0  0  0  0  0  0  0  0  0  0  0
   46.0870   34.6210   43.6100 C   0  0  0  0  0  0  0  0  0  0  0  0
   46.3230   33.6990   44.5760 N   0  0  0  0  0  0  0  0  0  0  0  0
   45.6990   33.6910   45.7450 C   0  0  0  0  0  0  0  0  0  0  0  0
   44.7830   34.6130   46.0380 N   0  0  0  0  0  0  0  0  0  0  0  0
   46.0360   32.6660   46.6960 N   0  0  0  0  0  0  0  0  0  0  0  0
   45.3010   32.3910   47.8740 C   0  0  0  0  0  0  0  0  0  0  0  0
   46.3770   32.0410   48.8840 C   0  0  0  0  0  0  0  0  0  0  0  0
   47.6590   31.9510   48.1110 C   0  0  0  0  0  0  0  0  0  0  0  0
   47.1610   31.7630   46.6810 C   0  0  1  0  0  0  0  0  0  0  0  0
   43.7560   36.3200   45.3420 H   0  0  0  0  0  0  0  0  0  0  0  0
   46.5900   34.6220   42.6750 H   0  0  0  0  0  0  0  0  0  0  0  0
   44.9030   33.3880   48.2430 H   0  0  0  0  0  0  0  0  0  0  0  0
   44.5170   31.7120   47.9660 H   0  0  0  0  0  0  0  0  0  0  0  0
   46.1740   31.0290   49.3350 H   0  0  0  0  0  0  0  0  0  0  0  0
   46.4540   32.7350   49.7190 H   0  0  0  0  0  0  0  0  0  0  0  0
   48.2440   31.0800   48.4420 H   0  0  0  0  0  0  0  0  0  0  0  0
   48.2610   32.8780   48.1860 H   0  0  0  0  0  0  0  0  0  0  0  0
   47.9540   32.0630   45.9940 H   0  0  0  0  0  0  0  0  0  0  0  0
   44.7960   36.6190   42.9620 N   0  0  0  0  0  0  0  0  0  0  0  0
   45.5270   36.9940   42.2950 H   0  0  0  0  0  0  0  0  0  0  0  0
   43.8220   36.9670   42.9900 H   0  0  0  0  0  0  0  0  0  0  0  0
  1 35  1  0  0  0  0
  2  3  2  0  0  0  0
  3  4  1  0  0  0  0
  4  5  1  0  0  0  0
  4  8  1  1  0  0  0
  4  1  1  0  0  0  0
  5  9  1  0  0  0  0
  6 11  1  0  0  0  0
  6  5  1  0  0  0  0
  7  3  1  0  0  0  0
  7  6  1  0  0  0  0
 10  5  1  0  0  0  0
 12  6  1  0  0  0  0
 13 14  1  0  0  0  0
 13  7  1  0  0  0  0
 15 14  2  0  0  0  0
 16 15  1  0  0  0  0
 17 16  2  0  0  0  0
 17 24  1  0  0  0  0
 18 17  1  0  0  0  0
 19 18  2  0  0  0  0
 19 21  1  0  0  0  0
 20 19  1  0  0  0  0
 21 23  2  0  0  0  0
 22 21  1  0  0  0  0
 23 24  1  0  0  0  0
 24 13  2  0  0  0  0
 25 36  1  0  0  0  0
 25 30  1  0  0  0  0
 26 25  2  0  0  0  0
 27 26  1  0  0  0  0
 27 28  2  0  0  0  0
 28 29  1  0  0  0  0
 29 30  2  0  0  0  0
 29 31  1  0  0  0  0
 31 32  1  0  0  0  0
 32 39  1  0  0  0  0
 32 38  1  0  0  0  0
 32 33  1  0  0  0  0
 33 40  1  0  0  0  0
 33 41  1  0  0  0  0
 34 43  1  0  0  0  0
 34 42  1  0  0  0  0
 34 33  1  0  0  0  0
 35 44  1  6  0  0  0
 35 31  1  0  0  0  0
 35 34  1  0  0  0  0
 37 27  1  0  0  0  0
 45 47  1  0  0  0  0
 45 26  1  0  0  0  0
 46 45  1  0  0  0  0
M  END
>  <minimizedAffinity>
-5.65434456

>  <minimizedRMSD>
0.297348082

$$$$
