
 OpenBabel03252507223D

 50 54  0  0  1  0  0  0  0  0999 V2000
   44.6800   33.7820   41.1460 C   0  0  0  0  0  0  0  0  0  0  0  0
   44.7580   33.8400   42.4030 O   0  0  0  0  0  0  0  0  0  0  0  0
   45.8030   33.6030   40.3000 N   0  0  0  0  0  0  0  0  0  0  0  0
   45.9890   32.7230   39.1340 C   0  0  0  0  0  0  0  0  0  0  0  0
   46.5200   33.5340   37.9650 C   0  0  0  0  0  0  0  0  0  0  0  0
   47.8840   34.0600   38.2860 C   0  0  0  0  0  0  0  0  0  0  0  0
   48.1510   33.9250   39.7730 C   0  0  0  0  0  0  0  0  0  0  0  0
   46.9730   34.3840   40.5970 C   0  0  2  0  0  0  0  0  0  0  0  0
   44.9510   32.4230   38.8230 H   0  0  0  0  0  0  0  0  0  0  0  0
   46.6170   31.8540   39.3620 H   0  0  0  0  0  0  0  0  0  0  0  0
   46.4940   32.8670   37.0860 H   0  0  0  0  0  0  0  0  0  0  0  0
   45.8400   34.3910   37.8170 H   0  0  0  0  0  0  0  0  0  0  0  0
   48.6230   33.3740   37.7810 H   0  0  0  0  0  0  0  0  0  0  0  0
   48.1000   35.0640   37.8980 H   0  0  0  0  0  0  0  0  0  0  0  0
   49.0610   34.4670   40.0330 H   0  0  0  0  0  0  0  0  0  0  0  0
   48.3170   32.8450   39.9720 H   0  0  0  0  0  0  0  0  0  0  0  0
   46.7520   35.4250   40.2520 H   0  0  0  0  0  0  0  0  0  0  0  0
   43.0010   35.1600   40.0110 C   0  0  0  0  0  0  0  0  0  0  0  0
   43.3750   33.9050   40.5390 C   0  0  0  0  0  0  0  0  0  0  0  0
   42.4950   32.8430   40.4630 C   0  0  0  0  0  0  0  0  0  0  0  0
   41.2980   33.0440   39.8790 N   0  0  0  0  0  0  0  0  0  0  0  0
   40.9230   34.2480   39.3660 C   0  0  0  0  0  0  0  0  0  0  0  0
   41.7900   35.2870   39.4440 N   0  0  0  0  0  0  0  0  0  0  0  0
   43.6910   35.9930   40.0710 H   0  0  0  0  0  0  0  0  0  0  0  0
   39.9420   34.3380   38.9100 H   0  0  0  0  0  0  0  0  0  0  0  0
   42.9060   31.5600   41.0150 C   0  0  0  0  0  0  0  0  0  0  0  0
   43.5240   30.6410   40.2280 C   0  0  0  0  0  0  0  0  0  0  0  0
   43.9000   29.4330   40.7900 C   0  0  0  0  0  0  0  0  0  0  0  0
   43.6700   29.1220   42.1240 C   0  0  0  0  0  0  0  0  0  0  0  0
   43.0380   30.0920   42.8780 C   0  0  0  0  0  0  0  0  0  0  0  0
   42.6830   31.2540   42.3140 N   0  0  0  0  0  0  0  0  0  0  0  0
   43.7470   30.7840   39.1840 H   0  0  0  0  0  0  0  0  0  0  0  0
   44.3960   28.6860   40.1810 H   0  0  0  0  0  0  0  0  0  0  0  0
   43.9520   28.1900   42.5890 H   0  0  0  0  0  0  0  0  0  0  0  0
   42.7960   29.9850   43.9310 H   0  0  0  0  0  0  0  0  0  0  0  0
   47.3740   34.3680   42.0330 C   0  0  0  0  0  0  0  0  0  0  0  0
   46.5860   33.8510   42.6070 H   0  0  0  0  0  0  0  0  0  0  0  0
   47.5690   35.3280   42.5130 H   0  0  0  0  0  0  0  0  0  0  0  0
   48.6100   33.4860   42.2180 C   0  0  0  0  0  0  0  0  0  0  0  0
   49.8610   34.0260   42.1290 N   0  0  0  0  0  0  0  0  0  0  0  0
   50.9680   33.2880   42.3180 C   0  0  0  0  0  3  0  0  0  0  0  0
   50.8880   31.9580   42.6100 N   0  0  0  0  0  0  0  0  0  0  0  0
   49.6590   31.3930   42.7040 C   0  0  0  0  0  0  0  0  0  0  0  0
   49.6110   30.0440   42.9930 C   0  0  0  0  0  3  0  0  0  0  0  0
   48.3700   29.4480   43.0850 C   0  0  0  0  0  0  0  0  0  0  0  0
   48.3050   28.3870   43.3130 H   0  0  0  0  0  0  0  0  0  0  0  0
   47.2260   30.1920   42.8930 C   0  0  0  0  0  0  0  0  0  0  0  0
   46.2640   29.6840   42.9730 H   0  0  0  0  0  0  0  0  0  0  0  0
   47.2640   31.5600   42.6000 C   0  0  0  0  0  3  0  0  0  0  0  0
   48.5160   32.1290   42.5150 C   0  0  0  0  0  0  0  0  0  0  0  0
  1  2  2  0  0  0  0
  3  8  1  0  0  0  0
  3  1  1  0  0  0  0
  4 10  1  0  0  0  0
  4  3  1  0  0  0  0
  5  6  1  0  0  0  0
  5  4  1  0  0  0  0
  6  7  1  0  0  0  0
  7 16  1  0  0  0  0
  7 15  1  0  0  0  0
  7  8  1  0  0  0  0
  8 17  1  6  0  0  0
  8 36  1  0  0  0  0
  9  4  1  0  0  0  0
 11  5  1  0  0  0  0
 12  5  1  0  0  0  0
 13  6  1  0  0  0  0
 14  6  1  0  0  0  0
 18 24  1  0  0  0  0
 18 19  1  0  0  0  0
 19  1  1  0  0  0  0
 20 19  2  0  0  0  0
 20 26  1  0  0  0  0
 21 20  1  0  0  0  0
 22 23  1  0  0  0  0
 22 21  2  0  0  0  0
 23 18  2  0  0  0  0
 25 22  1  0  0  0  0
 26 31  1  0  0  0  0
 27 28  1  0  0  0  0
 27 26  2  0  0  0  0
 28 29  2  0  0  0  0
 29 34  1  0  0  0  0
 29 30  1  0  0  0  0
 30 35  1  0  0  0  0
 31 30  2  0  0  0  0
 32 27  1  0  0  0  0
 33 28  1  0  0  0  0
 36 39  1  0  0  0  0
 36 38  1  0  0  0  0
 36 37  1  0  0  0  0
 39 50  1  0  0  0  0
 40 39  2  0  0  0  0
 40 41  1  0  0  0  0
 41 42  2  0  0  0  0
 42 43  1  0  0  0  0
 43 44  1  0  0  0  0
 44 45  2  0  0  0  0
 45 46  1  0  0  0  0
 47 48  1  0  0  0  0
 47 45  1  0  0  0  0
 49 47  2  0  0  0  0
 50 49  1  0  0  0  0
 50 43  2  0  0  0  0
M  END
>  <minimizedAffinity>
-4.93155479

>  <minimizedRMSD>
4.66452456

$$$$
