
 OpenBabel03252500443D

 37 40  0  0  1  0  0  0  0  0999 V2000
   47.6780   35.2590   41.8030 C   0  0  1  0  0  0  0  0  0  0  0  0
   49.2000   35.2130   41.7120 C   0  0  0  0  0  0  0  0  0  0  0  0
   48.3480   34.9920   40.4900 C   0  0  1  0  0  0  0  0  0  0  0  0
   47.3340   36.3110   41.9530 H   0  0  0  0  0  0  0  0  0  0  0  0
   49.6890   34.3210   42.1890 H   0  0  0  0  0  0  0  0  0  0  0  0
   49.8010   36.1130   41.8220 H   0  0  0  0  0  0  0  0  0  0  0  0
   48.4210   35.8350   39.7450 H   0  0  0  0  0  0  0  0  0  0  0  0
   47.0210   34.0970   42.4290 C   0  0  0  0  0  0  0  0  0  0  0  0
   46.3060   33.6580   41.6740 H   0  0  0  0  0  0  0  0  0  0  0  0
   47.7480   33.2900   42.6170 H   0  0  0  0  0  0  0  0  0  0  0  0
   46.1940   34.4180   43.6040 C   0  0  0  0  0  0  0  0  0  0  0  0
   45.4130   35.5320   43.4450 C   0  0  0  0  0  0  0  0  0  0  0  0
   44.5810   35.9590   44.4870 C   0  0  0  0  0  0  0  0  0  0  0  0
   44.6140   35.1930   45.6340 N   0  0  0  0  0  0  0  0  0  0  0  0
   45.3920   34.0990   45.7670 C   0  0  0  0  0  0  0  0  0  0  0  0
   46.1630   33.7360   44.7510 N   0  0  0  0  0  0  0  0  0  0  0  0
   45.2410   36.2420   42.6480 H   0  0  0  0  0  0  0  0  0  0  0  0
   43.9110   36.7990   44.5370 H   0  0  0  0  0  0  0  0  0  0  0  0
   45.3250   33.5880   46.7150 H   0  0  0  0  0  0  0  0  0  0  0  0
   48.2480   33.7170   39.9900 O   0  0  0  0  0  0  0  0  0  0  0  0
   48.5880   35.0070   37.6890 O   0  0  0  0  0  0  0  0  0  0  0  0
   48.4080   33.6360   38.3170 P   0  0  1  0  0  0  0  0  0  0  0  0
   49.8410   32.7630   37.9630 O   0  0  0  0  0  0  0  0  0  0  0  0
   50.3530   33.1760   37.2460 H   0  0  0  0  0  0  0  0  0  0  0  0
   47.0760   32.8300   37.6730 O   0  0  0  0  0  0  0  0  0  0  0  0
   47.0750   32.4370   36.3410 C   0  0  0  0  0  0  0  0  0  0  0  0
   48.2000   32.6930   35.6200 N   0  0  0  0  0  0  0  0  0  0  0  0
   48.2940   32.3480   34.3200 C   0  0  0  0  0  0  0  0  0  0  0  0
   47.2530   31.7290   33.6910 N   0  0  0  0  0  0  0  0  0  0  0  0
   46.1260   31.4720   34.4110 C   0  0  0  0  0  0  0  0  0  0  0  0
   45.0680   30.8460   33.7810 C   0  0  0  0  0  0  0  0  0  0  0  0
   43.8930   30.5580   34.4590 C   0  0  0  0  0  0  0  0  0  0  0  0
   43.0780   30.0670   33.9480 H   0  0  0  0  0  0  0  0  0  0  0  0
   43.8370   30.9320   35.8020 C   0  0  0  0  0  0  0  0  0  0  0  0
   42.9320   30.7040   36.3090 H   0  0  0  0  0  0  0  0  0  0  0  0
   44.8710   31.5570   36.4630 C   0  0  0  0  0  0  0  0  0  0  0  0
   46.0000   31.8130   35.7410 C   0  0  0  0  0  0  0  0  0  0  0  0
  1  4  1  1  0  0  0
  1  8  1  0  0  0  0
  2  1  1  0  0  0  0
  2  6  1  0  0  0  0
  2  5  1  0  0  0  0
  3  7  1  6  0  0  0
  3  2  1  0  0  0  0
  3  1  1  0  0  0  0
  8 10  1  0  0  0  0
  8 11  1  0  0  0  0
  9  8  1  0  0  0  0
 11 16  1  0  0  0  0
 12 11  2  0  0  0  0
 12 13  1  0  0  0  0
 13 18  1  0  0  0  0
 13 14  2  0  0  0  0
 14 15  1  0  0  0  0
 15 19  1  0  0  0  0
 16 15  2  0  0  0  0
 17 12  1  0  0  0  0
 20  3  1  0  0  0  0
 22 21  2  6  0  0  0
 22 20  1  0  0  0  0
 23 22  1  0  0  0  0
 24 23  1  0  0  0  0
 25 22  1  0  0  0  0
 26 25  1  0  0  0  0
 27 26  2  0  0  0  0
 28 27  1  0  0  0  0
 29 28  2  0  0  0  0
 29 30  1  0  0  0  0
 30 37  1  0  0  0  0
 31 30  2  0  0  0  0
 31 32  1  0  0  0  0
 32 34  2  0  0  0  0
 33 32  1  0  0  0  0
 34 35  1  0  0  0  0
 34 36  1  0  0  0  0
 37 26  1  0  0  0  0
 37 36  2  0  0  0  0
M  END
>  <minimizedAffinity>
-5.82399464

>  <minimizedRMSD>
2.50739217

$$$$
