
 OpenBabel03252508003D

 32 35  0  0  1  0  0  0  0  0999 V2000
   46.3590   34.7620   43.2250 C   0  0  0  0  0  0  0  0  0  0  0  0
   45.3810   35.7870   43.4790 C   0  0  0  0  0  0  0  0  0  0  0  0
   44.6420   35.6600   44.6540 C   0  0  0  0  0  0  0  0  0  0  0  0
   44.8820   34.6050   45.4680 N   0  0  0  0  0  0  0  0  0  0  0  0
   45.8310   33.6590   45.1680 C   0  0  0  0  0  0  0  0  0  0  0  0
   46.5740   33.7110   44.0700 N   0  0  0  0  0  0  0  0  0  0  0  0
   45.2680   36.5750   42.7790 H   0  0  0  0  0  0  0  0  0  0  0  0
   43.9050   36.4090   44.8720 H   0  0  0  0  0  0  0  0  0  0  0  0
   46.0390   32.5290   46.1190 C   0  0  1  0  0  0  0  0  0  0  0  0
   46.8330   32.7800   47.3790 C   0  0  0  0  0  0  0  0  0  0  0  0
   45.3330   32.6740   47.4080 C   0  0  1  0  0  0  0  0  0  0  0  0
   46.1230   31.5210   45.6690 H   0  0  0  0  0  0  0  0  0  0  0  0
   47.4440   31.9230   47.7290 H   0  0  0  0  0  0  0  0  0  0  0  0
   47.3310   33.7800   47.3810 H   0  0  0  0  0  0  0  0  0  0  0  0
   44.9650   31.7690   47.9510 H   0  0  0  0  0  0  0  0  0  0  0  0
   44.6910   33.9510   47.7380 N   0  0  0  0  0  0  0  0  0  0  0  0
   45.3590   34.6130   48.2030 H   0  0  0  0  0  0  0  0  0  0  0  0
   43.9540   33.7530   48.4650 H   0  0  0  0  0  0  0  0  0  0  0  0
   47.0930   34.8870   41.9930 C   0  0  2  0  0  3  0  0  0  0  0  0
   48.1080   35.6940   41.9030 O   0  0  0  0  0  1  0  0  0  0  0  0
   47.0160   34.3030   40.6570 C   0  0  0  0  0  0  0  0  0  0  0  0
   48.1180   34.3160   39.8930 N   0  0  0  0  0  0  0  0  0  0  0  0
   48.1470   33.7940   38.6270 C   0  0  0  0  0  3  0  0  0  0  0  0
   47.0660   33.2410   38.0850 N   0  0  0  0  0  0  0  0  0  0  0  0
   45.8900   33.1730   38.7710 C   0  0  0  0  0  0  0  0  0  0  0  0
   44.7510   32.6040   38.2470 C   0  0  0  0  0  3  0  0  0  0  0  0
   43.5770   32.5460   38.9670 C   0  0  0  0  0  0  0  0  0  0  0  0
   42.7600   32.0800   38.4550 H   0  0  0  0  0  0  0  0  0  0  0  0
   43.6030   33.0900   40.2510 C   0  0  0  0  0  0  0  0  0  0  0  0
   42.6720   33.0300   40.7890 H   0  0  0  0  0  0  0  0  0  0  0  0
   44.7650   33.6420   40.7180 C   0  0  0  0  0  3  0  0  0  0  0  0
   45.9450   33.7160   40.0290 C   0  0  0  0  0  0  0  0  0  0  0  0
  1  2  2  0  0  0  0
  1  6  1  0  0  0  0
  2  3  1  0  0  0  0
  3  8  1  0  0  0  0
  3  4  2  0  0  0  0
  5  4  1  0  0  0  0
  5  9  1  0  0  0  0
  6  5  2  0  0  0  0
  7  2  1  0  0  0  0
  9 12  1  6  0  0  0
  9 10  1  0  0  0  0
  9 11  1  0  0  0  0
 10 14  1  0  0  0  0
 10 11  1  0  0  0  0
 10 13  1  0  0  0  0
 11 16  1  0  0  0  0
 11 15  1  1  0  0  0
 16 17  1  0  0  0  0
 16 18  1  0  0  0  0
 19 20  1  6  0  0  0
 19  1  1  0  0  0  0
 21 19  1  0  0  0  0
 22 21  2  0  0  0  0
 23 22  1  0  0  0  0
 24 23  2  0  0  0  0
 24 25  1  0  0  0  0
 25 32  1  0  0  0  0
 26 25  2  0  0  0  0
 26 27  1  0  0  0  0
 27 29  2  0  0  0  0
 28 27  1  0  0  0  0
 29 31  1  0  0  0  0
 29 30  1  0  0  0  0
 32 21  1  0  0  0  0
 32 31  2  0  0  0  0
M  END
>  <minimizedAffinity>
-6.19730234

>  <minimizedRMSD>
0.95520252

$$$$
