
 OpenBabel03252506383D

 47 51  0  0  1  0  0  0  0  0999 V2000
   46.5430   30.1140   46.4940 S   0  0  0  0  0  0  0  0  0  0  0  0
   46.0990   30.6610   43.2300 O   0  0  0  0  0  0  0  0  0  0  0  0
   45.3210   30.0940   44.0140 C   0  0  0  0  0  0  0  0  0  0  0  0
   45.1610   29.8370   45.4670 C   0  0  1  0  0  0  0  0  0  0  0  0
   44.6280   28.4260   45.4790 C   0  0  0  0  0  0  0  0  0  0  0  0
   43.4650   28.6420   44.5070 C   0  0  0  0  0  0  0  0  0  0  0  0
   44.1580   29.4290   43.4940 N   0  0  0  0  0  0  0  0  0  0  0  0
   44.2240   30.4320   45.6510 H   0  0  0  0  0  0  0  0  0  0  0  0
   44.1940   28.1280   46.4480 H   0  0  0  0  0  0  0  0  0  0  0  0
   45.3550   27.7120   45.0860 H   0  0  0  0  0  0  0  0  0  0  0  0
   42.7190   29.2910   45.0070 H   0  0  0  0  0  0  0  0  0  0  0  0
   43.0630   27.6970   44.1290 H   0  0  0  0  0  0  0  0  0  0  0  0
   43.6060   29.4330   42.1620 C   0  0  0  0  0  0  0  0  0  0  0  0
   44.3770   28.9750   41.1510 N   0  0  0  0  0  0  0  0  0  0  0  0
   43.9320   28.9440   39.8620 C   0  0  0  0  0  3  0  0  0  0  0  0
   42.7050   29.3690   39.5490 N   0  0  0  0  0  0  0  0  0  0  0  0
   41.9120   29.8310   40.5360 C   0  0  0  0  0  0  0  0  0  0  0  0
   40.6390   30.2800   40.2520 C   0  0  0  0  0  3  0  0  0  0  0  0
   39.7980   30.7620   41.2470 C   0  0  0  0  0  0  0  0  0  0  0  0
   38.8030   31.1090   41.0060 H   0  0  0  0  0  0  0  0  0  0  0  0
   40.2860   30.7780   42.5510 C   0  0  0  0  0  0  0  0  0  0  0  0
   39.6020   31.1610   43.2970 H   0  0  0  0  0  0  0  0  0  0  0  0
   41.5610   30.3390   42.8920 C   0  0  0  0  0  3  0  0  0  0  0  0
   42.3330   29.8750   41.8500 C   0  0  0  0  0  0  0  0  0  0  0  0
   44.4910   35.6340   45.1120 C   0  0  0  0  0  0  0  0  0  0  0  0
   45.1400   35.6160   43.8520 C   0  0  0  0  0  0  0  0  0  0  0  0
   46.0420   34.6390   43.5860 C   0  0  0  0  0  0  0  0  0  0  0  0
   46.2680   33.7250   44.5610 N   0  0  0  0  0  0  0  0  0  0  0  0
   45.6580   33.7470   45.7380 C   0  0  0  0  0  0  0  0  0  0  0  0
   44.7670   34.6950   46.0280 N   0  0  0  0  0  0  0  0  0  0  0  0
   45.9810   32.7270   46.6990 N   0  0  0  0  0  0  0  0  0  0  0  0
   45.2540   32.4860   47.8880 C   0  0  0  0  0  0  0  0  0  0  0  0
   46.3330   32.1240   48.8910 C   0  0  0  0  0  0  0  0  0  0  0  0
   47.6040   31.9940   48.1060 C   0  0  0  0  0  0  0  0  0  0  0  0
   47.0850   31.7980   46.6840 C   0  0  1  0  0  0  0  0  0  0  0  0
   43.7720   36.4160   45.3210 H   0  0  0  0  0  0  0  0  0  0  0  0
   46.5340   34.6160   42.6460 H   0  0  0  0  0  0  0  0  0  0  0  0
   44.8830   33.4970   48.2480 H   0  0  0  0  0  0  0  0  0  0  0  0
   44.4560   31.8270   47.9990 H   0  0  0  0  0  0  0  0  0  0  0  0
   46.1120   31.1240   49.3590 H   0  0  0  0  0  0  0  0  0  0  0  0
   46.4360   32.8270   49.7160 H   0  0  0  0  0  0  0  0  0  0  0  0
   48.1730   31.1140   48.4420 H   0  0  0  0  0  0  0  0  0  0  0  0
   48.2280   32.9070   48.1610 H   0  0  0  0  0  0  0  0  0  0  0  0
   47.8770   32.0700   45.9840 H   0  0  0  0  0  0  0  0  0  0  0  0
   44.7910   36.6580   42.9250 N   0  0  0  0  0  0  0  0  0  0  0  0
   45.5220   37.0060   42.2450 H   0  0  0  0  0  0  0  0  0  0  0  0
   43.8250   37.0290   42.9600 H   0  0  0  0  0  0  0  0  0  0  0  0
  1 35  1  0  0  0  0
  2  3  2  0  0  0  0
  3  4  1  0  0  0  0
  4  5  1  0  0  0  0
  4  8  1  1  0  0  0
  4  1  1  0  0  0  0
  5  9  1  0  0  0  0
  6 11  1  0  0  0  0
  6  5  1  0  0  0  0
  7  3  1  0  0  0  0
  7  6  1  0  0  0  0
 10  5  1  0  0  0  0
 12  6  1  0  0  0  0
 13  7  1  0  0  0  0
 14 13  2  0  0  0  0
 15 14  1  0  0  0  0
 16 15  2  0  0  0  0
 16 17  1  0  0  0  0
 17 24  1  0  0  0  0
 18 17  2  0  0  0  0
 18 19  1  0  0  0  0
 19 21  2  0  0  0  0
 20 19  1  0  0  0  0
 21 23  1  0  0  0  0
 21 22  1  0  0  0  0
 24 13  1  0  0  0  0
 24 23  2  0  0  0  0
 25 36  1  0  0  0  0
 25 30  1  0  0  0  0
 26 25  2  0  0  0  0
 27 26  1  0  0  0  0
 27 28  2  0  0  0  0
 28 29  1  0  0  0  0
 29 30  2  0  0  0  0
 29 31  1  0  0  0  0
 31 32  1  0  0  0  0
 32 39  1  0  0  0  0
 32 38  1  0  0  0  0
 32 33  1  0  0  0  0
 33 40  1  0  0  0  0
 33 41  1  0  0  0  0
 34 43  1  0  0  0  0
 34 42  1  0  0  0  0
 34 33  1  0  0  0  0
 35 44  1  6  0  0  0
 35 31  1  0  0  0  0
 35 34  1  0  0  0  0
 37 27  1  0  0  0  0
 45 47  1  0  0  0  0
 45 26  1  0  0  0  0
 46 45  1  0  0  0  0
M  END
>  <minimizedAffinity>
-6.02656555

>  <minimizedRMSD>
0.84230262

$$$$
