
 OpenBabel03252502243D

 37 40  0  0  1  0  0  0  0  0999 V2000
   46.8220   34.5990   42.2880 N   0  0  0  0  0  0  0  0  0  0  0  0
   48.2770   34.5270   42.3520 C   0  0  0  0  0  0  0  0  0  0  0  0
   48.7510   35.3330   41.1460 C   0  0  0  0  0  0  0  0  0  0  0  0
   48.3250   34.6650   39.8730 C   0  0  0  0  0  0  0  0  0  0  0  0
   46.9630   34.0700   39.9050 C   0  0  0  0  0  0  0  0  0  0  0  0
   46.1050   34.4860   41.0480 C   0  0  1  0  0  0  0  0  0  0  0  0
   48.5470   33.4810   42.1460 H   0  0  0  0  0  0  0  0  0  0  0  0
   48.6780   34.9350   43.2740 H   0  0  0  0  0  0  0  0  0  0  0  0
   49.8760   35.2450   41.1880 H   0  0  0  0  0  0  0  0  0  0  0  0
   48.4300   36.3700   41.2490 H   0  0  0  0  0  0  0  0  0  0  0  0
   49.0790   33.9030   39.5360 H   0  0  0  0  0  0  0  0  0  0  0  0
   48.3390   35.4430   39.0710 H   0  0  0  0  0  0  0  0  0  0  0  0
   46.3980   34.2090   38.9570 H   0  0  0  0  0  0  0  0  0  0  0  0
   47.0820   32.9550   39.9880 H   0  0  0  0  0  0  0  0  0  0  0  0
   45.6130   35.4600   40.7950 H   0  0  0  0  0  0  0  0  0  0  0  0
   44.4780   36.0050   44.8420 C   0  0  0  0  0  0  0  0  0  0  0  0
   45.1920   35.8970   43.6440 C   0  0  0  0  0  0  0  0  0  0  0  0
   46.0580   34.7880   43.4760 C   0  0  0  0  0  0  0  0  0  0  0  0
   46.1400   33.8920   44.4950 N   0  0  0  0  0  0  0  0  0  0  0  0
   45.4240   34.0420   45.6420 C   0  0  0  0  0  0  0  0  0  0  0  0
   44.5990   35.0960   45.8050 N   0  0  0  0  0  0  0  0  0  0  0  0
   43.8620   36.8940   44.8290 H   0  0  0  0  0  0  0  0  0  0  0  0
   45.1480   36.5890   42.8180 H   0  0  0  0  0  0  0  0  0  0  0  0
   45.5040   33.3190   46.4410 H   0  0  0  0  0  0  0  0  0  0  0  0
   45.1020   33.5140   41.2100 O   0  0  0  0  0  0  0  0  0  0  0  0
   43.7710   33.6920   40.9320 C   0  0  0  0  0  0  0  0  0  0  0  0
   42.8640   34.4440   41.5740 N   0  0  0  0  0  0  0  0  0  0  0  0
   41.5920   34.5190   41.1830 C   0  0  0  0  0  3  0  0  0  0  0  0
   41.1540   33.8240   40.1010 N   0  0  0  0  0  0  0  0  0  0  0  0
   42.0080   33.0540   39.4150 C   0  0  0  0  0  0  0  0  0  0  0  0
   41.5650   32.3500   38.3170 C   0  0  0  0  0  3  0  0  0  0  0  0
   42.4080   31.5490   37.5860 C   0  0  0  0  0  0  0  0  0  0  0  0
   42.1510   30.9580   36.7080 H   0  0  0  0  0  0  0  0  0  0  0  0
   43.7110   31.4600   37.9690 C   0  0  0  0  0  0  0  0  0  0  0  0
   44.4410   30.8540   37.4520 H   0  0  0  0  0  0  0  0  0  0  0  0
   44.1440   32.1690   39.0710 C   0  0  0  0  0  3  0  0  0  0  0  0
   43.3240   32.9850   39.8300 C   0  0  0  0  0  0  0  0  0  0  0  0
  1  2  1  0  0  0  0
  1 18  1  0  0  0  0
  2  8  1  0  0  0  0
  3  9  1  0  0  0  0
  3 10  1  0  0  0  0
  3  2  1  0  0  0  0
  4  5  1  0  0  0  0
  4  3  1  0  0  0  0
  5 14  1  0  0  0  0
  5  6  1  0  0  0  0
  6 15  1  6  0  0  0
  6 25  1  0  0  0  0
  6  1  1  0  0  0  0
  7  2  1  0  0  0  0
 11  4  1  0  0  0  0
 12  4  1  0  0  0  0
 13  5  1  0  0  0  0
 16 21  1  0  0  0  0
 17 16  2  0  0  0  0
 18 17  1  0  0  0  0
 18 19  2  0  0  0  0
 19 20  1  0  0  0  0
 20 21  2  0  0  0  0
 20 24  1  0  0  0  0
 22 16  1  0  0  0  0
 23 17  1  0  0  0  0
 26 25  1  0  0  0  0
 26 27  1  0  0  0  0
 28 27  2  0  0  0  0
 29 28  1  0  0  0  0
 30 37  1  0  0  0  0
 30 29  2  0  0  0  0
 31 30  1  0  0  0  0
 32 34  1  0  0  0  0
 32 31  2  0  0  0  0
 33 32  1  0  0  0  0
 34 36  2  0  0  0  0
 35 34  1  0  0  0  0
 36 37  1  0  0  0  0
 37 26  2  0  0  0  0
M  END
>  <minimizedAffinity>
-5.96514082

>  <minimizedRMSD>
0.51327157

$$$$
