
 OpenBabel03252506213D

 38 41  0  0  0  0  0  0  0  0999 V2000
   45.0300   35.4310   42.6470 C   0  0  0  0  0  0  0  0  0  0  0  0
   43.8560   35.1780   41.9160 C   0  0  0  0  0  0  0  0  0  0  0  0
   43.8720   34.0950   41.0260 C   0  0  0  0  0  0  0  0  0  0  0  0
   45.0040   33.3520   40.9130 N   0  0  0  0  0  0  0  0  0  0  0  0
   46.1100   33.6380   41.6420 C   0  0  0  0  0  0  0  0  0  0  0  0
   46.1130   34.6680   42.4950 N   0  0  0  0  0  0  0  0  0  0  0  0
   42.9680   35.7530   41.9980 H   0  0  0  0  0  0  0  0  0  0  0  0
   43.0050   33.8400   40.4290 H   0  0  0  0  0  0  0  0  0  0  0  0
   48.1440   34.6590   39.6470 Cl  0  0  0  0  0  0  0  0  0  0  0  0
   48.2610   33.1920   40.5580 C   0  0  0  0  0  0  0  0  0  0  0  0
   47.2990   32.7750   41.4540 C   0  0  0  0  0  0  0  0  0  0  0  0
   47.3600   31.6180   42.1900 C   0  0  0  0  0  0  0  0  0  0  0  0
   48.4740   30.8450   41.9930 C   0  0  0  0  0  0  0  0  0  0  0  0
   49.4970   31.1440   41.1360 C   0  0  0  0  0  0  0  0  0  0  0  0
   49.3480   32.3410   40.4290 C   0  0  0  0  0  0  0  0  0  0  0  0
   46.5840   31.3300   42.8820 H   0  0  0  0  0  0  0  0  0  0  0  0
   48.5990   29.9020   42.5440 H   0  0  0  0  0  0  0  0  0  0  0  0
   50.3530   30.5120   41.0090 H   0  0  0  0  0  0  0  0  0  0  0  0
   50.1310   32.6180   39.7410 H   0  0  0  0  0  0  0  0  0  0  0  0
   45.0310   36.5630   43.5850 C   0  0  0  0  0  3  0  0  0  0  0  0
   45.6100   37.6730   43.2290 C   0  0  0  0  0  3  0  0  0  0  0  0
   45.6310   38.8410   44.1420 C   0  0  0  0  0  0  0  0  0  0  0  0
   45.2000   38.6170   45.1360 H   0  0  0  0  0  0  0  0  0  0  0  0
   46.7190   39.1120   44.2750 H   0  0  0  0  0  0  0  0  0  0  0  0
   45.0110   39.9670   43.4770 N   0  0  0  0  0  0  0  0  0  0  0  0
   44.6980   39.8480   42.4980 H   0  0  0  0  0  0  0  0  0  0  0  0
   44.8800   41.1650   44.2330 C   0  0  0  0  0  0  0  0  0  0  0  0
   44.8960   42.3750   43.6560 N   0  0  0  0  0  0  0  0  0  0  0  0
   44.7780   43.5410   44.2860 C   0  0  0  0  0  3  0  0  0  0  0  0
   44.6300   43.5250   45.6090 N   0  0  0  0  0  0  0  0  0  0  0  0
   44.5990   42.3580   46.3050 C   0  0  0  0  0  0  0  0  0  0  0  0
   44.4430   42.4190   47.6750 C   0  0  0  0  0  3  0  0  0  0  0  0
   44.4220   41.1970   48.3110 C   0  0  0  0  0  0  0  0  0  0  0  0
   44.3010   41.2090   49.3940 H   0  0  0  0  0  0  0  0  0  0  0  0
   44.5410   39.9780   47.6900 C   0  0  0  0  0  0  0  0  0  0  0  0
   44.5180   39.0400   48.2400 H   0  0  0  0  0  0  0  0  0  0  0  0
   44.6940   40.0070   46.3130 C   0  0  0  0  0  3  0  0  0  0  0  0
   44.7260   41.1800   45.6020 C   0  0  0  0  0  0  0  0  0  0  0  0
  1 20  1  0  0  0  0
  2  7  1  0  0  0  0
  2  1  2  0  0  0  0
  3  2  1  0  0  0  0
  4  3  2  0  0  0  0
  4  5  1  0  0  0  0
  5  6  2  0  0  0  0
  6  1  1  0  0  0  0
  8  3  1  0  0  0  0
  9 10  1  0  0  0  0
 10 11  1  0  0  0  0
 11  5  1  0  0  0  0
 11 12  2  0  0  0  0
 12 16  1  0  0  0  0
 13 12  1  0  0  0  0
 13 17  1  0  0  0  0
 14 13  2  0  0  0  0
 15 10  2  0  0  0  0
 15 14  1  0  0  0  0
 18 14  1  0  0  0  0
 19 15  1  0  0  0  0
 21 20  2  0  0  0  0
 21 22  1  0  0  0  0
 22 24  1  0  0  0  0
 22 23  1  0  0  0  0
 25 22  1  0  0  0  0
 25 27  1  0  0  0  0
 26 25  1  0  0  0  0
 27 38  1  0  0  0  0
 28 27  2  0  0  0  0
 28 29  1  0  0  0  0
 29 30  2  0  0  0  0
 30 31  1  0  0  0  0
 31 32  1  0  0  0  0
 32 33  2  0  0  0  0
 33 34  1  0  0  0  0
 35 36  1  0  0  0  0
 35 33  1  0  0  0  0
 37 35  2  0  0  0  0
 38 31  2  0  0  0  0
 38 37  1  0  0  0  0
M  END
>  <minimizedAffinity>
1.4932425

>  <minimizedRMSD>
1.12796342

$$$$
