
 OpenBabel03252504323D

 43 46  0  0  0  0  0  0  0  0999 V2000
   41.6190   35.7510   41.1850 C   0  0  0  0  0  0  0  0  0  0  0  0
   41.5500   35.8570   42.2930 H   0  0  0  0  0  0  0  0  0  0  0  0
   41.2350   36.7030   40.7620 H   0  0  0  0  0  0  0  0  0  0  0  0
   40.9290   33.4080   41.3130 C   0  0  0  0  0  0  0  0  0  0  0  0
   40.5850   34.7080   40.8690 C   0  0  0  0  0  0  0  0  0  0  0  0
   39.4020   34.8380   40.2290 C   0  0  0  0  0  0  0  0  0  0  0  0
   38.6590   33.7590   40.0640 N   0  0  0  0  0  0  0  0  0  0  0  0
   38.9700   32.5540   40.4710 C   0  0  0  0  0  0  0  0  0  0  0  0
   40.1550   32.3310   41.1310 N   0  0  0  0  0  0  0  0  0  0  0  0
   41.8760   33.2440   41.8370 H   0  0  0  0  0  0  0  0  0  0  0  0
   39.1580   35.8080   39.9040 H   0  0  0  0  0  0  0  0  0  0  0  0
   38.2190   31.2820   40.3400 C   0  0  0  0  0  0  0  0  0  0  0  0
   37.4590   30.7520   41.3310 N   0  0  0  0  0  0  0  0  0  0  0  0
   36.7730   29.6270   41.2650 C   0  0  0  0  0  3  0  0  0  0  0  0
   36.7910   28.8890   40.1260 N   0  0  0  0  0  0  0  0  0  0  0  0
   37.5230   29.3210   39.0550 C   0  0  0  0  0  0  0  0  0  0  0  0
   37.5330   28.5650   37.9060 C   0  0  0  0  0  3  0  0  0  0  0  0
   38.2610   28.9750   36.8090 C   0  0  0  0  0  0  0  0  0  0  0  0
   38.1890   28.3010   35.9750 H   0  0  0  0  0  0  0  0  0  0  0  0
   38.9560   30.1590   36.9420 C   0  0  0  0  0  0  0  0  0  0  0  0
   39.5170   30.4440   36.0490 H   0  0  0  0  0  0  0  0  0  0  0  0
   38.9110   30.8790   38.1150 C   0  0  0  0  0  3  0  0  0  0  0  0
   38.2060   30.5020   39.2120 C   0  0  0  0  0  0  0  0  0  0  0  0
   42.8400   35.4560   40.6550 O   0  0  0  0  0  0  0  0  0  0  0  0
   44.0510   35.3200   41.3110 C   0  0  0  0  0  3  0  0  0  0  0  0
   44.0490   35.6280   42.6020 C   0  0  0  0  0  3  0  0  0  0  0  0
   45.2490   35.5550   43.5310 C   0  0  0  0  0  0  0  0  0  0  0  0
   46.0740   35.2300   42.8700 H   0  0  0  0  0  0  0  0  0  0  0  0
   45.4560   36.5150   44.0110 H   0  0  0  0  0  0  0  0  0  0  0  0
   44.9710   34.5820   44.4730 O   0  0  0  0  0  0  0  0  0  0  0  0
   45.6420   32.4460   43.0470 O   0  0  0  0  0  0  0  0  0  0  0  0
   45.9840   33.2470   44.2820 P   0  0  1  0  0  0  0  0  0  0  0  0
   47.6010   33.7380   44.1100 O   0  0  0  0  0  0  0  0  0  0  0  0
   47.6360   34.7290   44.2360 H   0  0  0  0  0  0  0  0  0  0  0  0
   45.8970   32.2680   45.6540 O   0  0  0  0  0  0  0  0  0  0  0  0
   46.2050   32.9590   46.8090 C   0  0  0  0  0  0  0  0  0  0  0  0
   47.0600   32.3050   47.8490 C   0  0  0  0  0  0  0  0  0  0  0  0
   45.5580   32.4170   48.0640 C   0  0  0  0  0  0  0  0  0  0  0  0
   46.4060   34.0220   46.6720 H   0  0  0  0  0  0  0  0  0  0  0  0
   47.7520   32.8790   48.4790 H   0  0  0  0  0  0  0  0  0  0  0  0
   47.3890   31.2580   47.6850 H   0  0  0  0  0  0  0  0  0  0  0  0
   45.2930   33.2130   48.8080 H   0  0  0  0  0  0  0  0  0  0  0  0
   44.9260   31.5310   48.0150 H   0  0  0  0  0  0  0  0  0  0  0  0
  1  2  1  0  0  0  0
  3  1  1  0  0  0  0
  4 10  1  0  0  0  0
  5  1  1  0  0  0  0
  5  4  2  0  0  0  0
  6  5  1  0  0  0  0
  7  6  2  0  0  0  0
  7  8  1  0  0  0  0
  8  9  2  0  0  0  0
  9  4  1  0  0  0  0
 11  6  1  0  0  0  0
 12  8  1  0  0  0  0
 12 13  1  0  0  0  0
 14 13  2  0  0  0  0
 15 14  1  0  0  0  0
 16 23  1  0  0  0  0
 16 15  2  0  0  0  0
 17 16  1  0  0  0  0
 18 20  1  0  0  0  0
 18 17  2  0  0  0  0
 19 18  1  0  0  0  0
 20 22  2  0  0  0  0
 21 20  1  0  0  0  0
 22 23  1  0  0  0  0
 23 12  2  0  0  0  0
 24  1  1  0  0  0  0
 24 25  1  0  0  0  0
 25 26  2  0  0  0  0
 26 27  1  0  0  0  0
 27 29  1  0  0  0  0
 27 30  1  0  0  0  0
 28 27  1  0  0  0  0
 32 31  2  6  0  0  0
 32 30  1  0  0  0  0
 32 35  1  0  0  0  0
 33 34  1  0  0  0  0
 33 32  1  0  0  0  0
 35 36  1  0  0  0  0
 36 37  1  0  0  0  0
 36 38  1  0  0  0  0
 37 38  1  0  0  0  0
 37 40  1  0  0  0  0
 38 42  1  0  0  0  0
 39 36  1  0  0  0  0
 41 37  1  0  0  0  0
 43 38  1  0  0  0  0
M  END
>  <minimizedAffinity>
-5.68645191

>  <minimizedRMSD>
0.648075581

$$$$
