
 OpenBabel03252507483D

 40 43  0  0  0  0  0  0  0  0999 V2000
   36.6030   30.3670   39.0450 C   0  0  0  0  0  0  0  0  0  0  0  0
   36.2090   29.0530   39.2770 C   0  0  0  0  0  0  0  0  0  0  0  0
   36.1880   28.1200   38.2530 C   0  0  0  0  0  0  0  0  0  0  0  0
   36.5780   28.5690   37.0060 N   0  0  0  0  0  0  0  0  0  0  0  0
   36.9540   29.8530   36.8210 C   0  0  0  0  0  0  0  0  0  0  0  0
   36.9620   30.7200   37.8220 N   0  0  0  0  0  0  0  0  0  0  0  0
   35.8870   27.0900   38.4020 H   0  0  0  0  0  0  0  0  0  0  0  0
   37.2430   30.1140   35.8090 H   0  0  0  0  0  0  0  0  0  0  0  0
   36.5840   31.2640   40.2110 C   0  0  0  0  0  0  0  0  0  0  0  0
   35.5240   31.5460   40.4310 H   0  0  0  0  0  0  0  0  0  0  0  0
   36.9480   30.7650   41.1290 H   0  0  0  0  0  0  0  0  0  0  0  0
   37.4420   32.4810   40.0320 C   0  0  0  0  0  0  0  0  0  0  0  0
   37.3690   32.7940   38.9560 H   0  0  0  0  0  0  0  0  0  0  0  0
   37.0460   33.3390   40.6200 H   0  0  0  0  0  0  0  0  0  0  0  0
   38.8870   32.2410   40.3220 C   0  0  0  0  0  0  0  0  0  0  0  0
   39.2770   31.8380   41.6300 C   0  0  0  0  0  0  0  0  0  0  0  0
   41.1050   31.6760   41.4820 S   0  0  0  0  0  0  0  0  0  0  0  0
   41.0210   32.1880   39.6580 C   0  0  0  0  0  0  0  0  0  0  0  0
   39.8980   32.3540   39.5080 N   0  0  0  0  0  0  0  0  0  0  0  0
   38.6350   31.6730   42.4880 H   0  0  0  0  0  0  0  0  0  0  0  0
   42.1500   32.2850   38.8480 O   0  0  0  0  0  0  0  0  0  0  0  0
   42.6910   31.4360   36.3980 O   0  0  0  0  0  0  0  0  0  0  0  0
   41.9040   32.4830   37.1800 P   0  0  0  0  0  0  0  0  0  0  0  0
   40.2550   32.3060   36.8550 O   0  0  0  0  0  0  0  0  0  0  0  0
   40.0320   31.3550   36.7290 H   0  0  0  0  0  0  0  0  0  0  0  0
   42.3640   34.0620   36.7240 O   0  0  0  0  0  0  0  0  0  0  0  0
   41.9470   34.2380   35.8580 H   0  0  0  0  0  0  0  0  0  0  0  0
   35.7120   28.5220   40.9210 S   0  0  0  0  0  0  0  0  0  0  0  0
   37.1240   27.9230   41.8370 C   0  0  0  0  0  0  0  0  0  0  0  0
   37.8830   28.7620   42.5900 N   0  0  0  0  0  0  0  0  0  0  0  0
   38.9380   28.2780   43.2670 C   0  0  0  0  0  3  0  0  0  0  0  0
   39.2500   26.9690   43.2020 N   0  0  0  0  0  0  0  0  0  0  0  0
   38.5120   26.1110   42.4590 C   0  0  0  0  0  0  0  0  0  0  0  0
   38.9150   24.7910   42.4590 C   0  0  0  0  0  3  0  0  0  0  0  0
   38.1990   23.8790   41.7190 C   0  0  0  0  0  0  0  0  0  0  0  0
   38.5480   22.8530   41.7480 H   0  0  0  0  0  0  0  0  0  0  0  0
   37.0950   24.3270   41.0000 C   0  0  0  0  0  0  0  0  0  0  0  0
   36.5620   23.5810   40.4350 H   0  0  0  0  0  0  0  0  0  0  0  0
   36.7190   25.6590   41.0220 C   0  0  0  0  0  3  0  0  0  0  0  0
   37.4240   26.5900   41.7570 C   0  0  0  0  0  0  0  0  0  0  0  0
  1  2  1  0  0  0  0
  1  9  1  0  0  0  0
  2 28  1  0  0  0  0
  3  7  1  0  0  0  0
  3  2  2  0  0  0  0
  4  3  1  0  0  0  0
  5  4  2  0  0  0  0
  5  6  1  0  0  0  0
  6  1  2  0  0  0  0
  8  5  1  0  0  0  0
  9 10  1  0  0  0  0
  9 11  1  0  0  0  0
 12  9  1  0  0  0  0
 12 15  1  0  0  0  0
 12 14  1  0  0  0  0
 13 12  1  0  0  0  0
 15 16  2  0  0  0  0
 16 20  1  0  0  0  0
 17 16  1  0  0  0  0
 18 17  1  0  0  0  0
 19 18  2  0  0  0  0
 19 15  1  0  0  0  0
 21 18  1  0  0  0  0
 22 23  2  0  0  0  0
 23 21  1  0  0  0  0
 24 23  1  0  0  0  0
 25 24  1  0  0  0  0
 26 23  1  0  0  0  0
 27 26  1  0  0  0  0
 28 29  1  0  0  0  0
 29 30  1  0  0  0  0
 30 31  2  0  0  0  0
 32 31  1  0  0  0  0
 33 32  2  0  0  0  0
 34 33  1  0  0  0  0
 35 36  1  0  0  0  0
 35 34  2  0  0  0  0
 37 39  2  0  0  0  0
 37 35  1  0  0  0  0
 38 37  1  0  0  0  0
 39 40  1  0  0  0  0
 40 29  2  0  0  0  0
 40 33  1  0  0  0  0
M  END
>  <minimizedAffinity>
-6.51381302

$$$$

 OpenBabel03252507483D

 40 43  0  0  0  0  0  0  0  0999 V2000
   36.6260   29.4700   40.2150 C   0  0  0  0  0  0  0  0  0  0  0  0
   36.7460   28.2740   40.9140 C   0  0  0  0  0  0  0  0  0  0  0  0
   36.5790   27.0530   40.2790 C   0  0  0  0  0  0  0  0  0  0  0  0
   36.2910   27.0990   38.9290 N   0  0  0  0  0  0  0  0  0  0  0  0
   36.1830   28.2810   38.2850 C   0  0  0  0  0  0  0  0  0  0  0  0
   36.3490   29.4310   38.9230 N   0  0  0  0  0  0  0  0  0  0  0  0
   36.6660   26.1060   40.7960 H   0  0  0  0  0  0  0  0  0  0  0  0
   35.9560   28.2190   37.2270 H   0  0  0  0  0  0  0  0  0  0  0  0
   36.8250   30.7000   40.9990 C   0  0  0  0  0  0  0  0  0  0  0  0
   36.0120   30.7760   41.7620 H   0  0  0  0  0  0  0  0  0  0  0  0
   37.7680   30.6790   41.5780 H   0  0  0  0  0  0  0  0  0  0  0  0
   36.8870   31.9360   40.1500 C   0  0  0  0  0  0  0  0  0  0  0  0
   36.6360   31.6380   39.0970 H   0  0  0  0  0  0  0  0  0  0  0  0
   36.1030   32.6660   40.4490 H   0  0  0  0  0  0  0  0  0  0  0  0
   38.2380   32.5700   40.1170 C   0  0  0  0  0  0  0  0  0  0  0  0
   38.4470   33.8010   40.8000 C   0  0  0  0  0  0  0  0  0  0  0  0
   40.2220   34.1600   40.4680 S   0  0  0  0  0  0  0  0  0  0  0  0
   40.3730   32.5650   39.4540 C   0  0  0  0  0  0  0  0  0  0  0  0
   39.3140   32.1370   39.5210 N   0  0  0  0  0  0  0  0  0  0  0  0
   37.7210   34.3700   41.3690 H   0  0  0  0  0  0  0  0  0  0  0  0
   41.5610   32.1670   38.8450 O   0  0  0  0  0  0  0  0  0  0  0  0
   42.4910   31.1930   36.5630 O   0  0  0  0  0  0  0  0  0  0  0  0
   41.6740   32.3360   37.1590 P   0  0  0  0  0  0  0  0  0  0  0  0
   40.1140   32.3100   36.5110 O   0  0  0  0  0  0  0  0  0  0  0  0
   39.8250   31.3820   36.3530 H   0  0  0  0  0  0  0  0  0  0  0  0
   42.3750   33.8470   36.7880 O   0  0  0  0  0  0  0  0  0  0  0  0
   42.1590   34.0360   35.8540 H   0  0  0  0  0  0  0  0  0  0  0  0
   37.1220   28.2730   42.6720 S   0  0  0  0  0  0  0  0  0  0  0  0
   38.7820   27.6770   42.9550 C   0  0  0  0  0  0  0  0  0  0  0  0
   39.0270   26.3640   43.2020 N   0  0  0  0  0  0  0  0  0  0  0  0
   40.2890   25.9490   43.4090 C   0  0  0  0  0  3  0  0  0  0  0  0
   41.3110   26.8260   43.3770 N   0  0  0  0  0  0  0  0  0  0  0  0
   41.0950   28.1410   43.1330 C   0  0  0  0  0  0  0  0  0  0  0  0
   42.2090   28.9550   43.1200 C   0  0  0  0  0  3  0  0  0  0  0  0
   42.0450   30.3000   42.8780 C   0  0  0  0  0  0  0  0  0  0  0  0
   42.9450   30.9040   42.8760 H   0  0  0  0  0  0  0  0  0  0  0  0
   40.7580   30.7810   42.6550 C   0  0  0  0  0  0  0  0  0  0  0  0
   40.6740   31.8390   42.4690 H   0  0  0  0  0  0  0  0  0  0  0  0
   39.6630   29.9360   42.6750 C   0  0  0  0  0  3  0  0  0  0  0  0
   39.8060   28.5840   42.9170 C   0  0  0  0  0  0  0  0  0  0  0  0
  1  2  1  0  0  0  0
  1  9  1  0  0  0  0
  2 28  1  0  0  0  0
  3  7  1  0  0  0  0
  3  2  2  0  0  0  0
  4  3  1  0  0  0  0
  5  6  1  0  0  0  0
  5  4  2  0  0  0  0
  6  1  2  0  0  0  0
  8  5  1  0  0  0  0
  9 11  1  0  0  0  0
  9 10  1  0  0  0  0
 12 14  1  0  0  0  0
 12  9  1  0  0  0  0
 13 12  1  0  0  0  0
 15 12  1  0  0  0  0
 15 16  2  0  0  0  0
 16 20  1  0  0  0  0
 17 16  1  0  0  0  0
 18 19  2  0  0  0  0
 18 17  1  0  0  0  0
 19 15  1  0  0  0  0
 21 18  1  0  0  0  0
 22 23  2  0  0  0  0
 23 21  1  0  0  0  0
 24 23  1  0  0  0  0
 25 24  1  0  0  0  0
 26 23  1  0  0  0  0
 27 26  1  0  0  0  0
 28 29  1  0  0  0  0
 29 30  1  0  0  0  0
 30 31  2  0  0  0  0
 32 31  1  0  0  0  0
 33 32  2  0  0  0  0
 34 33  1  0  0  0  0
 35 34  2  0  0  0  0
 36 35  1  0  0  0  0
 37 39  2  0  0  0  0
 37 35  1  0  0  0  0
 38 37  1  0  0  0  0
 39 40  1  0  0  0  0
 40 29  2  0  0  0  0
 40 33  1  0  0  0  0
M  END
>  <minimizedAffinity>
-6.24850655

$$$$

 OpenBabel03252507483D

 40 43  0  0  0  0  0  0  0  0999 V2000
   37.2210   29.9600   41.3810 C   0  0  0  0  0  0  0  0  0  0  0  0
   38.0690   29.6430   42.4370 C   0  0  0  0  0  0  0  0  0  0  0  0
   39.2150   30.3830   42.6830 C   0  0  0  0  0  0  0  0  0  0  0  0
   39.4580   31.4380   41.8260 N   0  0  0  0  0  0  0  0  0  0  0  0
   38.6110   31.7150   40.8120 C   0  0  0  0  0  0  0  0  0  0  0  0
   37.5240   30.9870   40.6050 N   0  0  0  0  0  0  0  0  0  0  0  0
   39.8930   30.1610   43.4970 H   0  0  0  0  0  0  0  0  0  0  0  0
   38.8840   32.5610   40.1920 H   0  0  0  0  0  0  0  0  0  0  0  0
   36.0360   29.1020   41.2220 C   0  0  0  0  0  0  0  0  0  0  0  0
   36.3740   28.0510   41.0450 H   0  0  0  0  0  0  0  0  0  0  0  0
   35.4240   29.0600   42.1420 H   0  0  0  0  0  0  0  0  0  0  0  0
   35.1150   29.5650   40.1320 C   0  0  0  0  0  0  0  0  0  0  0  0
   34.0640   29.3430   40.4570 H   0  0  0  0  0  0  0  0  0  0  0  0
   35.1630   30.6700   40.0100 H   0  0  0  0  0  0  0  0  0  0  0  0
   35.3300   28.8640   38.8310 C   0  0  0  0  0  0  0  0  0  0  0  0
   35.8800   27.5510   38.8300 C   0  0  0  0  0  0  0  0  0  0  0  0
   35.9460   27.1340   37.0380 S   0  0  0  0  0  0  0  0  0  0  0  0
   35.2110   28.8260   36.5990 C   0  0  0  0  0  0  0  0  0  0  0  0
   35.0740   29.3030   37.6310 N   0  0  0  0  0  0  0  0  0  0  0  0
   36.1790   26.9610   39.6890 H   0  0  0  0  0  0  0  0  0  0  0  0
   34.9650   29.2250   35.2870 O   0  0  0  0  0  0  0  0  0  0  0  0
   35.5900   31.2070   33.6440 O   0  0  0  0  0  0  0  0  0  0  0  0
   36.1900   30.0850   34.4850 P   0  0  0  0  0  0  0  0  0  0  0  0
   37.2300   30.7440   35.6430 O   0  0  0  0  0  0  0  0  0  0  0  0
   36.8860   31.6130   35.9540 H   0  0  0  0  0  0  0  0  0  0  0  0
   37.0930   29.0090   33.5160 O   0  0  0  0  0  0  0  0  0  0  0  0
   37.9390   29.4560   33.3120 H   0  0  0  0  0  0  0  0  0  0  0  0
   37.7020   28.2570   43.5220 S   0  0  0  0  0  0  0  0  0  0  0  0
   38.8310   26.9080   43.2120 C   0  0  0  0  0  0  0  0  0  0  0  0
   40.1070   26.9340   43.6800 N   0  0  0  0  0  0  0  0  0  0  0  0
   40.9300   25.9020   43.4280 C   0  0  0  0  0  3  0  0  0  0  0  0
   40.5000   24.8430   42.7140 N   0  0  0  0  0  0  0  0  0  0  0  0
   39.2340   24.7900   42.2360 C   0  0  0  0  0  0  0  0  0  0  0  0
   38.8940   23.6620   41.5170 C   0  0  0  0  0  3  0  0  0  0  0  0
   37.6190   23.5600   41.0090 C   0  0  0  0  0  0  0  0  0  0  0  0
   37.3930   22.6580   40.4510 H   0  0  0  0  0  0  0  0  0  0  0  0
   36.7260   24.6010   41.2410 C   0  0  0  0  0  0  0  0  0  0  0  0
   35.7390   24.4810   40.8260 H   0  0  0  0  0  0  0  0  0  0  0  0
   37.1020   25.7190   41.9660 C   0  0  0  0  0  3  0  0  0  0  0  0
   38.3760   25.8410   42.4850 C   0  0  0  0  0  0  0  0  0  0  0  0
  1  2  1  0  0  0  0
  2  3  2  0  0  0  0
  2 28  1  0  0  0  0
  3  7  1  0  0  0  0
  4  3  1  0  0  0  0
  5  4  2  0  0  0  0
  6  5  1  0  0  0  0
  6  1  2  0  0  0  0
  8  5  1  0  0  0  0
  9  1  1  0  0  0  0
  9 11  1  0  0  0  0
 10  9  1  0  0  0  0
 12 13  1  0  0  0  0
 12  9  1  0  0  0  0
 14 12  1  0  0  0  0
 15 12  1  0  0  0  0
 16 15  2  0  0  0  0
 16 20  1  0  0  0  0
 17 16  1  0  0  0  0
 18 17  1  0  0  0  0
 18 19  2  0  0  0  0
 19 15  1  0  0  0  0
 21 18  1  0  0  0  0
 22 23  2  0  0  0  0
 23 21  1  0  0  0  0
 23 24  1  0  0  0  0
 24 25  1  0  0  0  0
 26 23  1  0  0  0  0
 27 26  1  0  0  0  0
 29 28  1  0  0  0  0
 29 30  1  0  0  0  0
 31 30  2  0  0  0  0
 32 31  1  0  0  0  0
 33 40  1  0  0  0  0
 33 32  2  0  0  0  0
 34 33  1  0  0  0  0
 35 37  1  0  0  0  0
 35 34  2  0  0  0  0
 36 35  1  0  0  0  0
 37 39  2  0  0  0  0
 38 37  1  0  0  0  0
 39 40  1  0  0  0  0
 40 29  2  0  0  0  0
M  END
>  <minimizedAffinity>
-6.20105124

$$$$

 OpenBabel03252507483D

 40 43  0  0  0  0  0  0  0  0999 V2000
   36.5300   29.9510   38.6250 C   0  0  0  0  0  0  0  0  0  0  0  0
   35.8420   29.8010   39.8240 C   0  0  0  0  0  0  0  0  0  0  0  0
   34.5620   29.2700   39.8540 C   0  0  0  0  0  0  0  0  0  0  0  0
   34.0210   28.9060   38.6370 N   0  0  0  0  0  0  0  0  0  0  0  0
   34.7210   29.0670   37.4930 C   0  0  0  0  0  0  0  0  0  0  0  0
   35.9430   29.5780   37.5000 N   0  0  0  0  0  0  0  0  0  0  0  0
   34.0020   29.1410   40.7710 H   0  0  0  0  0  0  0  0  0  0  0  0
   34.2160   28.7520   36.5870 H   0  0  0  0  0  0  0  0  0  0  0  0
   37.8810   30.5260   38.7210 C   0  0  0  0  0  0  0  0  0  0  0  0
   38.3480   30.1880   39.6790 H   0  0  0  0  0  0  0  0  0  0  0  0
   38.5510   30.1530   37.9230 H   0  0  0  0  0  0  0  0  0  0  0  0
   37.8950   32.0220   38.6100 C   0  0  0  0  0  0  0  0  0  0  0  0
   37.8040   32.2830   37.5220 H   0  0  0  0  0  0  0  0  0  0  0  0
   37.0010   32.4670   39.1000 H   0  0  0  0  0  0  0  0  0  0  0  0
   39.1580   32.6460   39.1070 C   0  0  0  0  0  0  0  0  0  0  0  0
   39.0840   33.7500   40.0010 C   0  0  0  0  0  0  0  0  0  0  0  0
   40.8550   34.1470   40.3110 S   0  0  0  0  0  0  0  0  0  0  0  0
   41.3910   32.7350   39.1640 C   0  0  0  0  0  0  0  0  0  0  0  0
   40.3840   32.3070   38.8240 N   0  0  0  0  0  0  0  0  0  0  0  0
   38.1910   34.2240   40.3900 H   0  0  0  0  0  0  0  0  0  0  0  0
   42.7270   32.4330   38.9120 O   0  0  0  0  0  0  0  0  0  0  0  0
   44.6040   34.1450   38.1610 O   0  0  0  0  0  0  0  0  0  0  0  0
   43.4880   33.2500   37.6320 P   0  0  0  0  0  0  0  0  0  0  0  0
   44.1380   32.1040   36.5740 O   0  0  0  0  0  0  0  0  0  0  0  0
   45.0360   31.8330   36.8750 H   0  0  0  0  0  0  0  0  0  0  0  0
   42.3270   34.1610   36.7740 O   0  0  0  0  0  0  0  0  0  0  0  0
   42.7200   34.3690   35.9030 H   0  0  0  0  0  0  0  0  0  0  0  0
   36.5950   30.2930   41.3800 S   0  0  0  0  0  0  0  0  0  0  0  0
   37.5390   28.9430   42.0710 C   0  0  0  0  0  0  0  0  0  0  0  0
   36.9540   27.7510   42.3610 N   0  0  0  0  0  0  0  0  0  0  0  0
   37.6940   26.7550   42.8800 C   0  0  0  0  0  3  0  0  0  0  0  0
   39.0080   26.9320   43.1160 N   0  0  0  0  0  0  0  0  0  0  0  0
   39.6160   28.1090   42.8370 C   0  0  0  0  0  0  0  0  0  0  0  0
   40.9660   28.1870   43.1150 C   0  0  0  0  0  3  0  0  0  0  0  0
   41.6310   29.3620   42.8510 C   0  0  0  0  0  0  0  0  0  0  0  0
   42.6890   29.3810   43.0840 H   0  0  0  0  0  0  0  0  0  0  0  0
   40.9120   30.4250   42.3120 C   0  0  0  0  0  0  0  0  0  0  0  0
   41.4710   31.3260   42.1190 H   0  0  0  0  0  0  0  0  0  0  0  0
   39.5590   30.3120   42.0450 C   0  0  0  0  0  3  0  0  0  0  0  0
   38.8720   29.1420   42.3040 C   0  0  0  0  0  0  0  0  0  0  0  0
  1  9  1  0  0  0  0
  1  2  1  0  0  0  0
  2  3  2  0  0  0  0
  2 28  1  0  0  0  0
  3  7  1  0  0  0  0
  4  3  1  0  0  0  0
  5  6  1  0  0  0  0
  5  4  2  0  0  0  0
  6  1  2  0  0  0  0
  8  5  1  0  0  0  0
  9 10  1  0  0  0  0
 11  9  1  0  0  0  0
 12  9  1  0  0  0  0
 12 14  1  0  0  0  0
 12 15  1  0  0  0  0
 13 12  1  0  0  0  0
 15 16  2  0  0  0  0
 16 17  1  0  0  0  0
 16 20  1  0  0  0  0
 18 17  1  0  0  0  0
 19 15  1  0  0  0  0
 19 18  2  0  0  0  0
 21 18  1  0  0  0  0
 23 22  2  0  0  0  0
 23 21  1  0  0  0  0
 24 25  1  0  0  0  0
 24 23  1  0  0  0  0
 26 23  1  0  0  0  0
 27 26  1  0  0  0  0
 28 29  1  0  0  0  0
 29 40  2  0  0  0  0
 29 30  1  0  0  0  0
 30 31  2  0  0  0  0
 31 32  1  0  0  0  0
 33 34  1  0  0  0  0
 33 32  2  0  0  0  0
 35 36  1  0  0  0  0
 35 34  2  0  0  0  0
 37 35  1  0  0  0  0
 38 37  1  0  0  0  0
 39 40  1  0  0  0  0
 39 37  2  0  0  0  0
 40 33  1  0  0  0  0
M  END
>  <minimizedAffinity>
-6.20093489

$$$$

 OpenBabel03252507483D

 40 43  0  0  0  0  0  0  0  0999 V2000
   36.7180   30.0660   39.2180 C   0  0  0  0  0  0  0  0  0  0  0  0
   37.6670   30.2150   40.2240 C   0  0  0  0  0  0  0  0  0  0  0  0
   38.8730   30.8520   39.9830 C   0  0  0  0  0  0  0  0  0  0  0  0
   39.0710   31.3240   38.6990 N   0  0  0  0  0  0  0  0  0  0  0  0
   38.1250   31.1610   37.7500 C   0  0  0  0  0  0  0  0  0  0  0  0
   36.9820   30.5460   38.0140 N   0  0  0  0  0  0  0  0  0  0  0  0
   39.6310   30.9830   40.7440 H   0  0  0  0  0  0  0  0  0  0  0  0
   38.3680   31.5640   36.7730 H   0  0  0  0  0  0  0  0  0  0  0  0
   35.4760   29.3720   39.5970 C   0  0  0  0  0  0  0  0  0  0  0  0
   35.4970   29.1720   40.6960 H   0  0  0  0  0  0  0  0  0  0  0  0
   34.5800   30.0000   39.4310 H   0  0  0  0  0  0  0  0  0  0  0  0
   35.2470   28.1090   38.8210 C   0  0  0  0  0  0  0  0  0  0  0  0
   36.1980   27.8680   38.2730 H   0  0  0  0  0  0  0  0  0  0  0  0
   35.0690   27.2480   39.5020 H   0  0  0  0  0  0  0  0  0  0  0  0
   34.1680   28.2260   37.7950 C   0  0  0  0  0  0  0  0  0  0  0  0
   34.1380   27.3080   36.7080 C   0  0  0  0  0  0  0  0  0  0  0  0
   32.6640   27.8530   35.7490 S   0  0  0  0  0  0  0  0  0  0  0  0
   32.3420   29.2410   37.0010 C   0  0  0  0  0  0  0  0  0  0  0  0
   33.1970   29.0930   37.7480 N   0  0  0  0  0  0  0  0  0  0  0  0
   34.8280   26.4950   36.5130 H   0  0  0  0  0  0  0  0  0  0  0  0
   31.2780   30.1330   36.8830 O   0  0  0  0  0  0  0  0  0  0  0  0
   28.9770   29.4330   37.9950 O   0  0  0  0  0  0  0  0  0  0  0  0
   30.2280   30.2800   38.2090 P   0  0  0  0  0  0  0  0  0  0  0  0
   31.0360   29.7510   39.5960 O   0  0  0  0  0  0  0  0  0  0  0  0
   30.9450   28.7750   39.6910 H   0  0  0  0  0  0  0  0  0  0  0  0
   29.8240   31.9240   38.4290 O   0  0  0  0  0  0  0  0  0  0  0  0
   29.4780   32.0100   39.3400 H   0  0  0  0  0  0  0  0  0  0  0  0
   37.3560   29.5800   41.8780 S   0  0  0  0  0  0  0  0  0  0  0  0
   38.6250   28.4130   42.3460 C   0  0  0  0  0  0  0  0  0  0  0  0
   39.8390   28.8320   42.7890 N   0  0  0  0  0  0  0  0  0  0  0  0
   40.7720   27.9260   43.1330 C   0  0  0  0  0  3  0  0  0  0  0  0
   40.5110   26.6080   43.0400 N   0  0  0  0  0  0  0  0  0  0  0  0
   39.3100   26.1620   42.6010 C   0  0  0  0  0  0  0  0  0  0  0  0
   39.1440   24.7940   42.5440 C   0  0  0  0  0  3  0  0  0  0  0  0
   37.9420   24.2890   42.1040 C   0  0  0  0  0  0  0  0  0  0  0  0
   37.8530   23.2090   42.0740 H   0  0  0  0  0  0  0  0  0  0  0  0
   36.9420   25.1840   41.7360 C   0  0  0  0  0  0  0  0  0  0  0  0
   36.0160   24.7480   41.3980 H   0  0  0  0  0  0  0  0  0  0  0  0
   37.1420   26.5510   41.8060 C   0  0  0  0  0  3  0  0  0  0  0  0
   38.3410   27.0780   42.2440 C   0  0  0  0  0  0  0  0  0  0  0  0
  1  9  1  0  0  0  0
  1  2  1  0  0  0  0
  2 28  1  0  0  0  0
  3  2  2  0  0  0  0
  3  7  1  0  0  0  0
  4  3  1  0  0  0  0
  5  6  1  0  0  0  0
  5  4  2  0  0  0  0
  6  1  2  0  0  0  0
  8  5  1  0  0  0  0
  9 10  1  0  0  0  0
 11  9  1  0  0  0  0
 12 14  1  0  0  0  0
 12  9  1  0  0  0  0
 13 12  1  0  0  0  0
 15 12  1  0  0  0  0
 16 15  2  0  0  0  0
 17 16  1  0  0  0  0
 17 18  1  0  0  0  0
 18 19  2  0  0  0  0
 19 15  1  0  0  0  0
 20 16  1  0  0  0  0
 21 18  1  0  0  0  0
 21 23  1  0  0  0  0
 22 23  2  0  0  0  0
 23 26  1  0  0  0  0
 23 24  1  0  0  0  0
 24 25  1  0  0  0  0
 26 27  1  0  0  0  0
 28 29  1  0  0  0  0
 29 30  1  0  0  0  0
 30 31  2  0  0  0  0
 32 31  1  0  0  0  0
 33 32  2  0  0  0  0
 34 33  1  0  0  0  0
 35 34  2  0  0  0  0
 36 35  1  0  0  0  0
 37 39  2  0  0  0  0
 37 35  1  0  0  0  0
 38 37  1  0  0  0  0
 39 40  1  0  0  0  0
 40 29  2  0  0  0  0
 40 33  1  0  0  0  0
M  END
>  <minimizedAffinity>
-6.02836037

$$$$

 OpenBabel03252507483D

 40 43  0  0  0  0  0  0  0  0999 V2000
   38.8660   28.3650   42.8000 C   0  0  0  0  0  0  0  0  0  0  0  0
   37.8500   27.6700   42.1510 C   0  0  0  0  0  0  0  0  0  0  0  0
   37.8150   26.2850   42.1540 C   0  0  0  0  0  0  0  0  0  0  0  0
   38.8360   25.6470   42.8320 N   0  0  0  0  0  0  0  0  0  0  0  0
   39.8040   26.3570   43.4490 C   0  0  0  0  0  0  0  0  0  0  0  0
   39.8080   27.6810   43.4270 N   0  0  0  0  0  0  0  0  0  0  0  0
   37.0380   25.7160   41.6590 H   0  0  0  0  0  0  0  0  0  0  0  0
   40.5630   25.7710   43.9550 H   0  0  0  0  0  0  0  0  0  0  0  0
   38.7950   29.8330   42.7260 C   0  0  0  0  0  0  0  0  0  0  0  0
   37.8810   30.1210   42.1500 H   0  0  0  0  0  0  0  0  0  0  0  0
   38.6690   30.2960   43.7230 H   0  0  0  0  0  0  0  0  0  0  0  0
   40.0260   30.4530   42.1340 C   0  0  0  0  0  0  0  0  0  0  0  0
   40.6480   30.8500   42.9800 H   0  0  0  0  0  0  0  0  0  0  0  0
   40.6580   29.6880   41.6320 H   0  0  0  0  0  0  0  0  0  0  0  0
   39.7360   31.6030   41.2250 C   0  0  0  0  0  0  0  0  0  0  0  0
   38.3840   31.9350   40.9310 C   0  0  0  0  0  0  0  0  0  0  0  0
   38.5520   33.3800   39.8020 S   0  0  0  0  0  0  0  0  0  0  0  0
   40.4420   33.2810   39.9270 C   0  0  0  0  0  0  0  0  0  0  0  0
   40.5890   32.3890   40.6300 N   0  0  0  0  0  0  0  0  0  0  0  0
   37.4900   31.4420   41.2950 H   0  0  0  0  0  0  0  0  0  0  0  0
   41.2900   34.1610   39.2590 O   0  0  0  0  0  0  0  0  0  0  0  0
   43.8730   33.7490   38.8390 O   0  0  0  0  0  0  0  0  0  0  0  0
   42.4870   33.4900   38.2580 P   0  0  0  0  0  0  0  0  0  0  0  0
   42.2240   31.8240   38.1510 O   0  0  0  0  0  0  0  0  0  0  0  0
   42.6590   31.3610   38.9030 H   0  0  0  0  0  0  0  0  0  0  0  0
   42.3470   34.1480   36.6900 O   0  0  0  0  0  0  0  0  0  0  0  0
   42.8300   33.5490   36.0890 H   0  0  0  0  0  0  0  0  0  0  0  0
   36.5450   28.5520   41.2840 S   0  0  0  0  0  0  0  0  0  0  0  0
   36.9670   28.7510   39.5590 C   0  0  0  0  0  0  0  0  0  0  0  0
   38.2620   28.8100   39.1530 N   0  0  0  0  0  0  0  0  0  0  0  0
   38.5440   28.9600   37.8470 C   0  0  0  0  0  3  0  0  0  0  0  0
   37.5530   29.0540   36.9400 N   0  0  0  0  0  0  0  0  0  0  0  0
   36.2540   28.9970   37.3170 C   0  0  0  0  0  0  0  0  0  0  0  0
   35.3150   29.1020   36.3110 C   0  0  0  0  0  3  0  0  0  0  0  0
   33.9800   29.0520   36.6410 C   0  0  0  0  0  0  0  0  0  0  0  0
   33.2760   29.1370   35.8210 H   0  0  0  0  0  0  0  0  0  0  0  0
   33.6330   28.8960   37.9800 C   0  0  0  0  0  0  0  0  0  0  0  0
   32.5780   28.8610   38.1950 H   0  0  0  0  0  0  0  0  0  0  0  0
   34.6010   28.7950   38.9630 C   0  0  0  0  0  3  0  0  0  0  0  0
   35.9460   28.8440   38.6540 C   0  0  0  0  0  0  0  0  0  0  0  0
  1  6  1  0  0  0  0
  2  3  1  0  0  0  0
  2  1  2  0  0  0  0
  3  4  2  0  0  0  0
  4  5  1  0  0  0  0
  5  8  1  0  0  0  0
  6  5  2  0  0  0  0
  7  3  1  0  0  0  0
  9  1  1  0  0  0  0
  9 11  1  0  0  0  0
 10  9  1  0  0  0  0
 12  9  1  0  0  0  0
 12 13  1  0  0  0  0
 14 12  1  0  0  0  0
 15 12  1  0  0  0  0
 16 15  2  0  0  0  0
 16 20  1  0  0  0  0
 17 18  1  0  0  0  0
 17 16  1  0  0  0  0
 18 19  2  0  0  0  0
 19 15  1  0  0  0  0
 21 18  1  0  0  0  0
 23 22  2  0  0  0  0
 23 21  1  0  0  0  0
 24 23  1  0  0  0  0
 24 25  1  0  0  0  0
 26 23  1  0  0  0  0
 27 26  1  0  0  0  0
 28  2  1  0  0  0  0
 29 28  1  0  0  0  0
 30 29  1  0  0  0  0
 31 30  2  0  0  0  0
 32 33  2  0  0  0  0
 32 31  1  0  0  0  0
 33 40  1  0  0  0  0
 34 35  2  0  0  0  0
 34 33  1  0  0  0  0
 35 37  1  0  0  0  0
 36 35  1  0  0  0  0
 37 38  1  0  0  0  0
 37 39  2  0  0  0  0
 40 39  1  0  0  0  0
 40 29  2  0  0  0  0
M  END
>  <minimizedAffinity>
-5.94427538

$$$$

 OpenBabel03252507483D

 40 43  0  0  0  0  0  0  0  0999 V2000
   37.1930   26.1300   41.6640 C   0  0  0  0  0  0  0  0  0  0  0  0
   37.5810   26.2680   40.3360 C   0  0  0  0  0  0  0  0  0  0  0  0
   37.8560   25.1600   39.5510 C   0  0  0  0  0  0  0  0  0  0  0  0
   37.7230   23.9280   40.1620 N   0  0  0  0  0  0  0  0  0  0  0  0
   37.3430   23.8350   41.4540 C   0  0  0  0  0  0  0  0  0  0  0  0
   37.0870   24.9150   42.1770 N   0  0  0  0  0  0  0  0  0  0  0  0
   38.1600   25.2350   38.5150 H   0  0  0  0  0  0  0  0  0  0  0  0
   37.2650   22.8280   41.8480 H   0  0  0  0  0  0  0  0  0  0  0  0
   36.9280   27.3800   42.3950 C   0  0  0  0  0  0  0  0  0  0  0  0
   36.7030   28.1880   41.6560 H   0  0  0  0  0  0  0  0  0  0  0  0
   36.0260   27.3080   43.0320 H   0  0  0  0  0  0  0  0  0  0  0  0
   38.0500   27.7790   43.3070 C   0  0  0  0  0  0  0  0  0  0  0  0
   37.5960   28.1310   44.2720 H   0  0  0  0  0  0  0  0  0  0  0  0
   38.6780   26.9010   43.5760 H   0  0  0  0  0  0  0  0  0  0  0  0
   38.8800   28.9010   42.7760 C   0  0  0  0  0  0  0  0  0  0  0  0
   40.2990   28.7930   42.8060 C   0  0  0  0  0  0  0  0  0  0  0  0
   40.8490   30.3850   42.0630 S   0  0  0  0  0  0  0  0  0  0  0  0
   39.0440   30.9240   41.8400 C   0  0  0  0  0  0  0  0  0  0  0  0
   38.4720   30.0270   42.2620 N   0  0  0  0  0  0  0  0  0  0  0  0
   40.8890   27.9640   43.1810 H   0  0  0  0  0  0  0  0  0  0  0  0
   38.6860   32.1480   41.2790 O   0  0  0  0  0  0  0  0  0  0  0  0
   37.7690   31.4270   38.9000 O   0  0  0  0  0  0  0  0  0  0  0  0
   37.3880   32.1590   40.1830 P   0  0  0  0  0  0  0  0  0  0  0  0
   36.0710   31.3830   40.9030 O   0  0  0  0  0  0  0  0  0  0  0  0
   36.1260   30.4110   40.7570 H   0  0  0  0  0  0  0  0  0  0  0  0
   36.9380   33.7720   39.8580 O   0  0  0  0  0  0  0  0  0  0  0  0
   36.0370   33.7420   39.4790 H   0  0  0  0  0  0  0  0  0  0  0  0
   37.7390   27.8970   39.5920 S   0  0  0  0  0  0  0  0  0  0  0  0
   36.1990   28.3870   38.8300 C   0  0  0  0  0  0  0  0  0  0  0  0
   35.0970   28.6550   39.5780 N   0  0  0  0  0  0  0  0  0  0  0  0
   33.9540   29.0210   38.9730 C   0  0  0  0  0  3  0  0  0  0  0  0
   33.8930   29.1220   37.6310 N   0  0  0  0  0  0  0  0  0  0  0  0
   34.9770   28.8610   36.8610 C   0  0  0  0  0  0  0  0  0  0  0  0
   34.8100   28.9950   35.4970 C   0  0  0  0  0  3  0  0  0  0  0  0
   35.8800   28.7400   34.6710 C   0  0  0  0  0  0  0  0  0  0  0  0
   35.7070   28.8570   33.6070 H   0  0  0  0  0  0  0  0  0  0  0  0
   37.0880   28.3580   35.2470 C   0  0  0  0  0  0  0  0  0  0  0  0
   37.9000   28.1690   34.5640 H   0  0  0  0  0  0  0  0  0  0  0  0
   37.2190   28.2340   36.6190 C   0  0  0  0  0  3  0  0  0  0  0  0
   36.1580   28.4840   37.4660 C   0  0  0  0  0  0  0  0  0  0  0  0
  1  6  1  0  0  0  0
  1  9  1  0  0  0  0
  2  1  2  0  0  0  0
  3  4  2  0  0  0  0
  3  2  1  0  0  0  0
  4  5  1  0  0  0  0
  5  8  1  0  0  0  0
  5  6  2  0  0  0  0
  7  3  1  0  0  0  0
  9 11  1  0  0  0  0
  9 12  1  0  0  0  0
 10  9  1  0  0  0  0
 12 14  1  0  0  0  0
 12 13  1  0  0  0  0
 15 16  2  0  0  0  0
 15 12  1  0  0  0  0
 16 20  1  0  0  0  0
 17 16  1  0  0  0  0
 18 17  1  0  0  0  0
 18 19  2  0  0  0  0
 19 15  1  0  0  0  0
 21 18  1  0  0  0  0
 22 23  2  0  0  0  0
 23 24  1  0  0  0  0
 23 21  1  0  0  0  0
 25 24  1  0  0  0  0
 26 23  1  0  0  0  0
 27 26  1  0  0  0  0
 28  2  1  0  0  0  0
 29 30  1  0  0  0  0
 29 28  1  0  0  0  0
 31 30  2  0  0  0  0
 32 31  1  0  0  0  0
 33 40  1  0  0  0  0
 33 32  2  0  0  0  0
 34 33  1  0  0  0  0
 35 37  1  0  0  0  0
 35 34  2  0  0  0  0
 36 35  1  0  0  0  0
 37 39  2  0  0  0  0
 38 37  1  0  0  0  0
 39 40  1  0  0  0  0
 40 29  2  0  0  0  0
M  END
>  <minimizedAffinity>
-5.87740517

$$$$

 OpenBabel03252507483D

 40 43  0  0  0  0  0  0  0  0999 V2000
   40.5470   28.5670   42.9140 C   0  0  0  0  0  0  0  0  0  0  0  0
   39.2960   27.9960   43.1230 C   0  0  0  0  0  0  0  0  0  0  0  0
   39.1690   26.6720   43.5120 C   0  0  0  0  0  0  0  0  0  0  0  0
   40.3460   25.9670   43.6790 N   0  0  0  0  0  0  0  0  0  0  0  0
   41.5410   26.5570   43.4670 C   0  0  0  0  0  0  0  0  0  0  0  0
   41.6270   27.8250   43.0950 N   0  0  0  0  0  0  0  0  0  0  0  0
   38.2110   26.1990   43.6820 H   0  0  0  0  0  0  0  0  0  0  0  0
   42.4090   25.9260   43.6230 H   0  0  0  0  0  0  0  0  0  0  0  0
   40.5530   29.9800   42.5030 C   0  0  0  0  0  0  0  0  0  0  0  0
   40.4780   30.0310   41.3890 H   0  0  0  0  0  0  0  0  0  0  0  0
   39.6690   30.5290   42.8800 H   0  0  0  0  0  0  0  0  0  0  0  0
   41.7520   30.7340   42.9990 C   0  0  0  0  0  0  0  0  0  0  0  0
   41.5010   31.1430   44.0140 H   0  0  0  0  0  0  0  0  0  0  0  0
   42.6160   30.0510   43.1570 H   0  0  0  0  0  0  0  0  0  0  0  0
   42.1240   31.8960   42.1380 C   0  0  0  0  0  0  0  0  0  0  0  0
   43.2560   32.6850   42.4860 C   0  0  0  0  0  0  0  0  0  0  0  0
   43.2960   33.9560   41.1540 S   0  0  0  0  0  0  0  0  0  0  0  0
   41.7580   33.1890   40.3510 C   0  0  0  0  0  0  0  0  0  0  0  0
   41.5320   32.3150   41.0560 N   0  0  0  0  0  0  0  0  0  0  0  0
   43.9180   32.5520   43.3340 H   0  0  0  0  0  0  0  0  0  0  0  0
   41.1810   33.6950   39.1890 O   0  0  0  0  0  0  0  0  0  0  0  0
   42.5030   34.0020   36.9140 O   0  0  0  0  0  0  0  0  0  0  0  0
   41.6610   33.0110   37.7110 P   0  0  0  0  0  0  0  0  0  0  0  0
   42.5760   31.6270   38.0330 O   0  0  0  0  0  0  0  0  0  0  0  0
   43.5200   31.8680   38.1760 H   0  0  0  0  0  0  0  0  0  0  0  0
   40.2780   32.5360   36.8320 O   0  0  0  0  0  0  0  0  0  0  0  0
   40.5800   31.9000   36.1540 H   0  0  0  0  0  0  0  0  0  0  0  0
   37.7980   28.9610   42.8910 S   0  0  0  0  0  0  0  0  0  0  0  0
   37.2610   28.8800   41.1890 C   0  0  0  0  0  0  0  0  0  0  0  0
   36.8290   27.7150   40.6410 N   0  0  0  0  0  0  0  0  0  0  0  0
   36.4320   27.6890   39.3570 C   0  0  0  0  0  3  0  0  0  0  0  0
   36.4610   28.8100   38.6100 N   0  0  0  0  0  0  0  0  0  0  0  0
   36.8880   29.9850   39.1300 C   0  0  0  0  0  0  0  0  0  0  0  0
   36.8780   31.0740   38.2820 C   0  0  0  0  0  3  0  0  0  0  0  0
   37.3030   32.2910   38.7620 C   0  0  0  0  0  0  0  0  0  0  0  0
   37.2790   33.1200   38.0630 H   0  0  0  0  0  0  0  0  0  0  0  0
   37.7240   32.3730   40.0860 C   0  0  0  0  0  0  0  0  0  0  0  0
   38.0470   33.3450   40.4210 H   0  0  0  0  0  0  0  0  0  0  0  0
   37.7200   31.2610   40.9090 C   0  0  0  0  0  3  0  0  0  0  0  0
   37.2990   30.0300   40.4470 C   0  0  0  0  0  0  0  0  0  0  0  0
  1  6  2  0  0  0  0
  1  2  1  0  0  0  0
  2  3  2  0  0  0  0
  3  4  1  0  0  0  0
  3  7  1  0  0  0  0
  5  8  1  0  0  0  0
  5  4  2  0  0  0  0
  6  5  1  0  0  0  0
  9 11  1  0  0  0  0
  9  1  1  0  0  0  0
  9 12  1  0  0  0  0
 10  9  1  0  0  0  0
 12 14  1  0  0  0  0
 12 13  1  0  0  0  0
 15 16  2  0  0  0  0
 15 12  1  0  0  0  0
 16 20  1  0  0  0  0
 17 16  1  0  0  0  0
 18 19  2  0  0  0  0
 18 17  1  0  0  0  0
 19 15  1  0  0  0  0
 21 18  1  0  0  0  0
 22 23  2  0  0  0  0
 23 24  1  0  0  0  0
 23 21  1  0  0  0  0
 24 25  1  0  0  0  0
 26 23  1  0  0  0  0
 27 26  1  0  0  0  0
 28  2  1  0  0  0  0
 29 28  1  0  0  0  0
 30 29  1  0  0  0  0
 31 30  2  0  0  0  0
 32 33  2  0  0  0  0
 32 31  1  0  0  0  0
 33 40  1  0  0  0  0
 34 35  2  0  0  0  0
 34 33  1  0  0  0  0
 35 37  1  0  0  0  0
 36 35  1  0  0  0  0
 37 38  1  0  0  0  0
 37 39  2  0  0  0  0
 40 39  1  0  0  0  0
 40 29  2  0  0  0  0
M  END
>  <minimizedAffinity>
-5.81547546

$$$$

 OpenBabel03252507483D

 40 43  0  0  0  0  0  0  0  0999 V2000
   40.3840   31.9610   41.4330 C   0  0  0  0  0  0  0  0  0  0  0  0
   39.7710   32.8930   40.6030 C   0  0  0  0  0  0  0  0  0  0  0  0
   40.5110   33.8580   39.9390 C   0  0  0  0  0  0  0  0  0  0  0  0
   41.8760   33.8350   40.1500 N   0  0  0  0  0  0  0  0  0  0  0  0
   42.4350   32.9140   40.9620 C   0  0  0  0  0  0  0  0  0  0  0  0
   41.6980   32.0050   41.5830 N   0  0  0  0  0  0  0  0  0  0  0  0
   40.0630   34.5970   39.2860 H   0  0  0  0  0  0  0  0  0  0  0  0
   43.5120   32.9730   41.0670 H   0  0  0  0  0  0  0  0  0  0  0  0
   39.4930   30.9870   42.0830 C   0  0  0  0  0  0  0  0  0  0  0  0
   39.6400   31.0470   43.1890 H   0  0  0  0  0  0  0  0  0  0  0  0
   38.4250   31.2230   41.9170 H   0  0  0  0  0  0  0  0  0  0  0  0
   39.6900   29.5850   41.5870 C   0  0  0  0  0  0  0  0  0  0  0  0
   39.6330   29.6090   40.4660 H   0  0  0  0  0  0  0  0  0  0  0  0
   40.7120   29.2160   41.8260 H   0  0  0  0  0  0  0  0  0  0  0  0
   38.6420   28.6320   42.0600 C   0  0  0  0  0  0  0  0  0  0  0  0
   37.9210   28.9240   43.2510 C   0  0  0  0  0  0  0  0  0  0  0  0
   36.7790   27.4880   43.4040 S   0  0  0  0  0  0  0  0  0  0  0  0
   37.4850   26.7350   41.8130 C   0  0  0  0  0  0  0  0  0  0  0  0
   38.2720   27.5090   41.5100 N   0  0  0  0  0  0  0  0  0  0  0  0
   38.0350   29.7890   43.8950 H   0  0  0  0  0  0  0  0  0  0  0  0
   37.0350   25.5270   41.2850 O   0  0  0  0  0  0  0  0  0  0  0  0
   37.5150   23.0370   40.5180 O   0  0  0  0  0  0  0  0  0  0  0  0
   38.1470   24.2450   41.2020 P   0  0  0  0  0  0  0  0  0  0  0  0
   39.4900   24.7570   40.3140 O   0  0  0  0  0  0  0  0  0  0  0  0
   39.3330   24.6230   39.3510 H   0  0  0  0  0  0  0  0  0  0  0  0
   38.6740   23.8520   42.7770 O   0  0  0  0  0  0  0  0  0  0  0  0
   39.5010   23.3400   42.6770 H   0  0  0  0  0  0  0  0  0  0  0  0
   37.9890   32.8760   40.3650 S   0  0  0  0  0  0  0  0  0  0  0  0
   37.5550   31.8400   38.9760 C   0  0  0  0  0  0  0  0  0  0  0  0
   38.0810   32.0600   37.7420 N   0  0  0  0  0  0  0  0  0  0  0  0
   37.7330   31.2610   36.7190 C   0  0  0  0  0  3  0  0  0  0  0  0
   36.8660   30.2470   36.9060 N   0  0  0  0  0  0  0  0  0  0  0  0
   36.3270   30.0060   38.1250 C   0  0  0  0  0  0  0  0  0  0  0  0
   35.4510   28.9430   38.2120 C   0  0  0  0  0  3  0  0  0  0  0  0
   34.8750   28.6560   39.4280 C   0  0  0  0  0  0  0  0  0  0  0  0
   34.1930   27.8130   39.4520 H   0  0  0  0  0  0  0  0  0  0  0  0
   35.2010   29.4520   40.5220 C   0  0  0  0  0  0  0  0  0  0  0  0
   34.7290   29.1930   41.4550 H   0  0  0  0  0  0  0  0  0  0  0  0
   36.0850   30.5100   40.3990 C   0  0  0  0  0  3  0  0  0  0  0  0
   36.6730   30.8160   39.1880 C   0  0  0  0  0  0  0  0  0  0  0  0
  1  6  1  0  0  0  0
  1  9  1  0  0  0  0
  2  1  2  0  0  0  0
  3  4  2  0  0  0  0
  3  2  1  0  0  0  0
  4  5  1  0  0  0  0
  5  8  1  0  0  0  0
  5  6  2  0  0  0  0
  7  3  1  0  0  0  0
  9 10  1  0  0  0  0
 11  9  1  0  0  0  0
 12 14  1  0  0  0  0
 12 15  1  0  0  0  0
 12  9  1  0  0  0  0
 13 12  1  0  0  0  0
 15 16  2  0  0  0  0
 16 17  1  0  0  0  0
 16 20  1  0  0  0  0
 18 17  1  0  0  0  0
 19 18  2  0  0  0  0
 19 15  1  0  0  0  0
 21 18  1  0  0  0  0
 22 23  2  0  0  0  0
 23 21  1  0  0  0  0
 23 26  1  0  0  0  0
 24 23  1  0  0  0  0
 25 24  1  0  0  0  0
 27 26  1  0  0  0  0
 28  2  1  0  0  0  0
 29 40  1  0  0  0  0
 29 28  1  0  0  0  0
 30 29  2  0  0  0  0
 31 32  2  0  0  0  0
 31 30  1  0  0  0  0
 32 33  1  0  0  0  0
 33 34  2  0  0  0  0
 33 40  1  0  0  0  0
 34 35  1  0  0  0  0
 35 36  1  0  0  0  0
 35 37  2  0  0  0  0
 37 38  1  0  0  0  0
 39 37  1  0  0  0  0
 40 39  2  0  0  0  0
M  END
>  <minimizedAffinity>
-5.80581427

$$$$
