
 OpenBabel03252501483D

 36 39  0  0  0  0  0  0  0  0999 V2000
   44.0890   33.5300   40.5990 C   0  0  0  0  0  0  0  0  0  0  0  0
   44.3840   34.6970   41.3490 C   0  0  0  0  0  0  0  0  0  0  0  0
   43.3990   35.6770   41.5070 C   0  0  0  0  0  0  0  0  0  0  0  0
   42.1870   35.4530   40.9220 N   0  0  0  0  0  0  0  0  0  0  0  0
   41.9400   34.3460   40.2220 C   0  0  0  0  0  0  0  0  0  0  0  0
   42.8780   33.4140   40.0720 N   0  0  0  0  0  0  0  0  0  0  0  0
   44.8710   32.7830   40.4920 H   0  0  0  0  0  0  0  0  0  0  0  0
   43.6280   36.5600   42.0780 H   0  0  0  0  0  0  0  0  0  0  0  0
   39.7450   33.5820   41.7360 F   0  0  0  0  0  0  0  0  0  0  0  0
   39.5430   33.7920   40.4040 C   0  0  0  0  0  0  0  0  0  0  0  0
   40.6260   34.1750   39.6230 C   0  0  0  0  0  0  0  0  0  0  0  0
   40.4840   34.4020   38.2650 C   0  0  0  0  0  0  0  0  0  0  0  0
   39.2160   34.2330   37.7100 C   0  0  0  0  0  0  0  0  0  0  0  0
   38.1240   33.8490   38.4840 C   0  0  0  0  0  0  0  0  0  0  0  0
   38.2910   33.6230   39.8630 C   0  0  0  0  0  0  0  0  0  0  0  0
   41.3020   34.7000   37.6240 H   0  0  0  0  0  0  0  0  0  0  0  0
   39.0650   34.4010   36.6470 H   0  0  0  0  0  0  0  0  0  0  0  0
   37.1340   33.7160   38.0540 H   0  0  0  0  0  0  0  0  0  0  0  0
   37.4810   33.3250   40.5140 H   0  0  0  0  0  0  0  0  0  0  0  0
   45.7030   34.9140   41.9750 C   0  0  0  0  0  0  0  0  0  0  0  0
   46.8430   34.8330   41.2830 C   0  0  0  0  0  0  0  0  0  0  0  0
   48.1620   35.0610   41.9620 C   0  0  0  0  0  0  0  0  0  0  0  0
   48.5920   36.0420   41.6740 H   0  0  0  0  0  0  0  0  0  0  0  0
   48.0170   35.1290   43.0660 H   0  0  0  0  0  0  0  0  0  0  0  0
   49.1470   34.0100   41.7010 C   0  0  0  0  0  0  0  0  0  0  0  0
   50.1920   33.8120   42.5600 N   0  0  0  0  0  0  0  0  0  0  0  0
   51.1190   32.8570   42.3660 C   0  0  0  0  0  0  0  0  0  0  0  0
   51.1050   32.0030   41.3010 N   0  0  0  0  0  0  0  0  0  0  0  0
   50.0900   32.1690   40.4340 C   0  0  0  0  0  0  0  0  0  0  0  0
   50.0550   31.3130   39.3400 C   0  0  0  0  0  0  0  0  0  0  0  0
   49.0370   31.4400   38.4180 C   0  0  0  0  0  0  0  0  0  0  0  0
   49.0470   30.7530   37.5830 H   0  0  0  0  0  0  0  0  0  0  0  0
   48.0960   32.4220   38.6320 C   0  0  0  0  0  0  0  0  0  0  0  0
   47.3230   32.4680   37.8710 H   0  0  0  0  0  0  0  0  0  0  0  0
   48.0990   33.2830   39.6950 C   0  0  0  0  0  0  0  0  0  0  0  0
   49.1350   33.1460   40.6260 C   0  0  0  0  0  0  0  0  0  0  0  0
  1  2  1  0  0  0  0
  2  3  2  0  0  0  0
  2 20  1  0  0  0  0
  3  8  1  0  0  0  0
  4  3  1  0  0  0  0
  5  4  2  0  0  0  0
  6  5  1  0  0  0  0
  6  1  2  0  0  0  0
  7  1  1  0  0  0  0
 10  9  1  0  0  0  0
 11  5  1  0  0  0  0
 11 10  2  0  0  0  0
 12 11  1  0  0  0  0
 13 12  2  0  0  0  0
 13 14  1  0  0  0  0
 14 15  2  0  0  0  0
 15 10  1  0  0  0  0
 15 19  1  0  0  0  0
 16 12  1  0  0  0  0
 17 13  1  0  0  0  0
 18 14  1  0  0  0  0
 21 22  1  0  0  0  0
 21 20  2  0  0  0  0
 22 24  1  0  0  0  0
 23 22  1  0  0  0  0
 25 22  1  0  0  0  0
 25 26  1  0  0  0  0
 27 26  2  0  0  0  0
 28 27  1  0  0  0  0
 29 36  1  0  0  0  0
 29 28  2  0  0  0  0
 30 29  1  0  0  0  0
 31 33  1  0  0  0  0
 31 30  2  0  0  0  0
 32 31  1  0  0  0  0
 33 35  2  0  0  0  0
 34 33  1  0  0  0  0
 35 36  1  0  0  0  0
 36 25  2  0  0  0  0
M  END
>  <minimizedAffinity>
-6.50713539

>  <minimizedRMSD>
0.829190254

$$$$
