
 OpenBabel03252506153D

 42 45  0  0  0  0  0  0  0  0999 V2000
   45.3510   33.4360   41.1610 F   0  0  0  0  0  0  0  0  0  0  0  0
   46.5050   34.0890   41.0590 C   0  0  0  0  0  0  0  0  0  0  0  0
   46.9190   34.8500   42.1320 C   0  0  0  0  0  0  0  0  0  0  0  0
   48.1250   35.5820   42.1320 C   0  0  0  0  0  0  0  0  0  0  0  0
   48.9370   35.5300   40.9870 C   0  0  0  0  0  0  0  0  0  0  0  0
   48.4740   34.7560   39.9460 C   0  0  0  0  0  0  0  0  0  0  0  0
   47.3230   34.0540   39.9370 C   0  0  0  0  0  0  0  0  0  0  0  0
   48.3890   36.1620   43.0170 H   0  0  0  0  0  0  0  0  0  0  0  0
   49.8480   36.1050   41.0330 H   0  0  0  0  0  0  0  0  0  0  0  0
   49.2070   34.8070   39.1360 H   0  0  0  0  0  0  0  0  0  0  0  0
   45.5060   33.9720   45.3970 C   0  0  0  0  0  0  0  0  0  0  0  0
   44.6180   35.0520   45.6330 C   0  0  0  0  0  0  0  0  0  0  0  0
   44.5130   36.0830   44.6530 C   0  0  0  0  0  0  0  0  0  0  0  0
   45.2920   35.9560   43.5340 N   0  0  0  0  0  0  0  0  0  0  0  0
   46.1080   34.9310   43.3540 C   0  0  0  0  0  0  0  0  0  0  0  0
   46.2160   33.9490   44.2730 N   0  0  0  0  0  0  0  0  0  0  0  0
   44.0060   35.1630   46.5000 H   0  0  0  0  0  0  0  0  0  0  0  0
   43.8490   36.9180   44.7990 H   0  0  0  0  0  0  0  0  0  0  0  0
   45.5810   32.9780   46.3860 N   0  0  0  0  0  0  0  0  0  0  0  0
   44.8950   32.2470   46.0490 H   0  0  0  0  0  0  0  0  0  0  0  0
   46.1670   32.9410   47.2620 H   0  0  0  0  0  0  0  0  0  0  0  0
   46.9690   33.3210   38.8420 O   0  0  0  0  0  0  0  0  0  0  0  0
   48.0720   34.8010   36.9470 O   0  0  0  0  0  0  0  0  0  0  0  0
   47.6490   33.3860   37.3160 P   0  0  2  0  0  0  0  0  0  0  0  0
   46.5360   32.8220   36.1600 O   0  0  0  0  0  0  0  0  0  0  0  0
   45.2880   32.3130   36.4900 C   0  0  0  0  0  0  0  0  0  0  0  0
   44.5950   32.6430   37.6150 N   0  0  0  0  0  0  0  0  0  0  0  0
   43.3760   32.0950   37.8570 C   0  0  0  0  0  0  0  0  0  0  0  0
   42.8230   31.2180   36.9980 N   0  0  0  0  0  0  0  0  0  0  0  0
   43.4640   30.8580   35.8720 C   0  0  0  0  0  0  0  0  0  0  0  0
   42.9210   29.9500   34.9570 C   0  0  0  0  0  0  0  0  0  0  0  0
   43.6040   29.5910   33.7950 C   0  0  0  0  0  0  0  0  0  0  0  0
   43.1700   28.8890   33.0990 H   0  0  0  0  0  0  0  0  0  0  0  0
   44.8560   30.1350   33.5190 C   0  0  0  0  0  0  0  0  0  0  0  0
   45.4320   29.9030   32.6450 H   0  0  0  0  0  0  0  0  0  0  0  0
   45.3310   31.0220   34.4610 C   0  0  0  0  0  0  0  0  0  0  0  0
   44.7030   31.4140   35.6250 C   0  0  0  0  0  0  0  0  0  0  0  0
   49.0010   32.3780   37.1510 O   0  0  0  0  0  0  0  0  0  0  0  0
   48.6310   31.0300   37.3450 C   0  0  0  0  0  0  0  0  0  0  0  0
   48.3010   30.5670   36.0740 F   0  0  0  0  0  0  0  0  0  0  0  0
   49.7050   30.2900   37.7850 F   0  0  0  0  0  0  0  0  0  0  0  0
   47.6090   30.8610   38.2360 F   0  0  0  0  0  0  0  0  0  0  0  0
  2  1  1  0  0  0  0
  2  3  1  0  0  0  0
  3 15  1  0  0  0  0
  4  3  2  0  0  0  0
  4  8  1  0  0  0  0
  5  9  1  0  0  0  0
  5  4  1  0  0  0  0
  6  5  2  0  0  0  0
  7  6  1  0  0  0  0
  7  2  2  0  0  0  0
 10  6  1  0  0  0  0
 11 12  1  0  0  0  0
 11 19  1  0  0  0  0
 12 17  1  0  0  0  0
 13 18  1  0  0  0  0
 13 12  2  0  0  0  0
 14 13  1  0  0  0  0
 15 14  2  0  0  0  0
 15 16  1  0  0  0  0
 16 11  2  0  0  0  0
 19 21  1  0  0  0  0
 20 19  1  0  0  0  0
 22  7  1  0  0  0  0
 24 23  2  6  0  0  0
 24 22  1  0  0  0  0
 25 26  1  0  0  0  0
 25 24  1  0  0  0  0
 26 27  1  0  0  0  0
 27 28  2  0  0  0  0
 29 28  1  0  0  0  0
 30 29  2  0  0  0  0
 31 30  1  0  0  0  0
 32 31  2  0  0  0  0
 33 32  1  0  0  0  0
 34 32  1  0  0  0  0
 34 36  2  0  0  0  0
 35 34  1  0  0  0  0
 36 37  1  0  0  0  0
 37 30  1  0  0  0  0
 37 26  2  0  0  0  0
 38 24  1  0  0  0  0
 38 39  1  0  0  0  0
 39 41  1  0  0  0  0
 39 42  1  0  0  0  0
 40 39  1  0  0  0  0
M  END
>  <minimizedAffinity>
-6.36798143

>  <minimizedRMSD>
1.2501477

$$$$
