
 OpenBabel03242519093D

 50 54  0  0  1  0  0  0  0  0999 V2000
   48.8340   32.3200   37.0780 C   0  0  0  0  0  0  0  0  0  0  0  0
   48.1180   33.0040   38.0870 C   0  0  0  0  0  0  0  0  0  0  0  0
   46.8030   33.2530   37.7460 C   0  0  0  0  0  0  0  0  0  0  0  0
   46.1820   32.9090   36.5800 C   0  0  0  0  0  0  0  0  0  0  0  0
   46.9210   32.2400   35.6230 C   0  0  0  0  0  0  0  0  0  0  0  0
   48.2270   31.9660   35.9030 C   0  0  0  0  0  0  0  0  0  0  0  0
   46.1540   33.7820   38.4590 H   0  0  0  0  0  0  0  0  0  0  0  0
   45.1490   33.1340   36.3780 H   0  0  0  0  0  0  0  0  0  0  0  0
   46.4270   31.9680   34.7020 H   0  0  0  0  0  0  0  0  0  0  0  0
   49.3940   31.9610   33.7210 C   0  0  0  0  0  0  0  0  0  0  0  0
   49.0810   33.1730   33.5960 O   0  0  0  0  0  0  0  0  0  0  0  0
   48.9600   31.2880   34.8800 N   0  0  0  0  0  0  0  0  0  0  0  0
   49.1020   30.2920   35.1240 H   0  0  0  0  0  0  0  0  0  0  0  0
   50.1640   31.0310   32.8650 C   0  0  0  0  0  0  0  0  0  0  0  0
   51.5060   30.8580   32.8860 N   0  0  0  0  0  0  0  0  0  0  0  0
   52.1870   30.0320   32.1240 C   0  0  0  0  0  0  0  0  0  0  0  0
   51.5840   29.2650   31.2290 N   0  0  0  0  0  0  0  0  0  0  0  0
   50.2320   29.3390   31.1010 C   0  0  0  0  0  0  0  0  0  0  0  0
   49.6100   28.5410   30.1690 C   0  0  0  0  0  0  0  0  0  0  0  0
   48.2450   28.5880   30.0120 C   0  0  0  0  0  0  0  0  0  0  0  0
   47.8720   27.9160   29.2510 H   0  0  0  0  0  0  0  0  0  0  0  0
   47.5250   29.4600   30.8160 C   0  0  0  0  0  0  0  0  0  0  0  0
   46.4730   29.4670   30.6640 H   0  0  0  0  0  0  0  0  0  0  0  0
   48.2120   30.2260   31.7240 C   0  0  0  0  0  0  0  0  0  0  0  0
   49.5730   30.2220   31.9250 C   0  0  0  0  0  0  0  0  0  0  0  0
   48.6750   33.4010   39.3160 N   0  0  0  0  0  0  0  0  0  0  0  0
   49.6450   33.7440   39.1230 H   0  0  0  0  0  0  0  0  0  0  0  0
   47.5110   34.4860   42.4960 N   0  0  0  0  0  0  0  0  0  0  0  0
   47.5170   34.7010   41.0470 C   0  0  0  0  0  0  0  0  0  0  0  0
   48.1600   33.4000   40.6430 C   0  0  2  0  0  0  0  0  0  0  0  0
   49.3550   33.3420   41.5860 C   0  0  0  0  0  0  0  0  0  0  0  0
   48.8020   33.9510   42.8430 C   0  0  0  0  0  0  0  0  0  0  0  0
   46.5130   34.8590   40.6500 H   0  0  0  0  0  0  0  0  0  0  0  0
   48.2390   35.5150   40.8280 H   0  0  0  0  0  0  0  0  0  0  0  0
   47.4440   32.5850   40.8530 H   0  0  0  0  0  0  0  0  0  0  0  0
   49.7030   32.3020   41.7130 H   0  0  0  0  0  0  0  0  0  0  0  0
   50.1510   33.9850   41.1160 H   0  0  0  0  0  0  0  0  0  0  0  0
   48.6170   33.1110   43.5640 H   0  0  0  0  0  0  0  0  0  0  0  0
   49.4930   34.6890   43.2940 H   0  0  0  0  0  0  0  0  0  0  0  0
   44.5820   35.8640   44.3310 C   0  0  0  0  0  0  0  0  0  0  0  0
   45.5320   35.7320   43.3270 C   0  0  0  0  0  0  0  0  0  0  0  0
   46.5010   34.7220   43.4400 C   0  0  0  0  0  0  0  0  0  0  0  0
   46.4510   33.9210   44.5490 N   0  0  0  0  0  0  0  0  0  0  0  0
   45.5260   34.0570   45.5160 C   0  0  0  0  0  0  0  0  0  0  0  0
   44.5980   35.0290   45.4010 N   0  0  0  0  0  0  0  0  0  0  0  0
   43.8660   36.6590   44.1830 H   0  0  0  0  0  0  0  0  0  0  0  0
   45.6230   36.3190   42.4490 H   0  0  0  0  0  0  0  0  0  0  0  0
   45.5580   33.3810   46.3560 H   0  0  0  0  0  0  0  0  0  0  0  0
   51.3250   31.7670   37.5650 N   0  0  0  0  0  0  0  0  0  0  0  0
   50.2230   32.0180   37.3580 C   0  0  0  0  0  0  0  0  0  0  0  0
  1 50  1  0  0  0  0
  1  2  1  0  0  0  0
  2 26  1  0  0  0  0
  3  2  2  0  0  0  0
  3  7  1  0  0  0  0
  4  3  1  0  0  0  0
  5  6  1  0  0  0  0
  5  4  2  0  0  0  0
  6  1  2  0  0  0  0
  8  4  1  0  0  0  0
  9  5  1  0  0  0  0
 10 12  1  0  0  0  0
 11 10  2  0  0  0  0
 12 13  1  0  0  0  0
 12  6  1  0  0  0  0
 14 15  1  0  0  0  0
 14 10  1  0  0  0  0
 16 15  2  0  0  0  0
 17 16  1  0  0  0  0
 18 17  2  0  0  0  0
 18 25  1  0  0  0  0
 19 18  1  0  0  0  0
 20 19  2  0  0  0  0
 20 22  1  0  0  0  0
 21 20  1  0  0  0  0
 22 24  2  0  0  0  0
 23 22  1  0  0  0  0
 24 25  1  0  0  0  0
 25 14  2  0  0  0  0
 26 30  1  0  0  0  0
 27 26  1  0  0  0  0
 28 32  1  0  0  0  0
 28 42  1  0  0  0  0
 29 28  1  0  0  0  0
 30 35  1  1  0  0  0
 30 29  1  0  0  0  0
 30 31  1  0  0  0  0
 31 36  1  0  0  0  0
 31 32  1  0  0  0  0
 32 39  1  0  0  0  0
 32 38  1  0  0  0  0
 33 29  1  0  0  0  0
 34 29  1  0  0  0  0
 37 31  1  0  0  0  0
 40 45  1  0  0  0  0
 41 42  1  0  0  0  0
 41 40  2  0  0  0  0
 42 43  2  0  0  0  0
 43 44  1  0  0  0  0
 44 48  1  0  0  0  0
 45 44  2  0  0  0  0
 46 40  1  0  0  0  0
 47 41  1  0  0  0  0
 50 49  3  0  0  0  0
M  END
>  <minimizedAffinity>
-6.42204142

>  <minimizedRMSD>
0.365919143

$$$$
