
 OpenBabel03242511163D

 22 24  0  0  0  0  0  0  0  0999 V2000
   45.4660   34.4750   41.2020 C   0  0  0  0  0  0  0  0  0  0  0  0
   46.2580   33.7430   40.3670 N   0  0  0  0  0  0  0  0  0  0  0  0
   45.7440   33.0970   39.2960 C   0  0  0  0  0  3  0  0  0  0  0  0
   44.4260   33.2130   39.0970 N   0  0  0  0  0  0  0  0  0  0  0  0
   43.5870   33.9080   39.8650 C   0  0  0  0  0  0  0  0  0  0  0  0
   42.2310   34.0080   39.6330 C   0  0  0  0  0  3  0  0  0  0  0  0
   41.4470   34.7580   40.4950 C   0  0  0  0  0  0  0  0  0  0  0  0
   40.3850   34.8190   40.2870 H   0  0  0  0  0  0  0  0  0  0  0  0
   42.0170   35.4000   41.5760 C   0  0  0  0  0  0  0  0  0  0  0  0
   41.3720   35.9810   42.2330 H   0  0  0  0  0  0  0  0  0  0  0  0
   43.3820   35.3300   41.8540 C   0  0  0  0  0  3  0  0  0  0  0  0
   44.1050   34.5680   40.9570 C   0  0  0  0  0  0  0  0  0  0  0  0
   46.3380   35.2480   42.5560 S   0  0  0  0  0  0  0  0  0  0  0  0
   45.5630   33.3940   46.0750 C   0  0  0  0  0  0  0  0  0  0  0  0
   45.5240   34.3400   45.0310 C   0  0  0  0  0  0  0  0  0  0  0  0
   46.3380   34.0940   43.9160 C   0  0  0  0  0  0  0  0  0  0  0  0
   47.1040   32.9810   43.9040 N   0  0  0  0  0  0  0  0  0  0  0  0
   47.1220   32.0920   44.9200 C   0  0  0  0  0  0  0  0  0  0  0  0
   46.3490   32.3110   45.9940 N   0  0  0  0  0  0  0  0  0  0  0  0
   44.9270   33.6170   46.9080 H   0  0  0  0  0  0  0  0  0  0  0  0
   44.8930   35.2020   45.1030 H   0  0  0  0  0  0  0  0  0  0  0  0
   47.7280   31.1960   44.9290 H   0  0  0  0  0  0  0  0  0  0  0  0
  1 13  1  0  0  0  0
  2  1  2  0  0  0  0
  3  2  1  0  0  0  0
  4  3  2  0  0  0  0
  4  5  1  0  0  0  0
  5 12  1  0  0  0  0
  6  5  2  0  0  0  0
  6  7  1  0  0  0  0
  7  9  2  0  0  0  0
  8  7  1  0  0  0  0
  9 11  1  0  0  0  0
  9 10  1  0  0  0  0
 12  1  1  0  0  0  0
 12 11  2  0  0  0  0
 13 16  1  0  0  0  0
 14 20  1  0  0  0  0
 15 21  1  0  0  0  0
 15 14  2  0  0  0  0
 16 15  1  0  0  0  0
 17 16  2  0  0  0  0
 17 18  1  0  0  0  0
 18 22  1  0  0  0  0
 18 19  2  0  0  0  0
 19 14  1  0  0  0  0
M  END
>  <minimizedAffinity>
-4.34071016

>  <minimizedRMSD>
2.12060857

$$$$
