
 OpenBabel03242511173D

 22 24  0  0  0  0  0  0  0  0999 V2000
   45.5430   34.0650   40.5380 C   0  0  0  0  0  0  0  0  0  0  0  0
   44.2800   34.5290   40.7660 N   0  0  0  0  0  0  0  0  0  0  0  0
   43.2470   34.1790   39.9670 C   0  0  0  0  0  3  0  0  0  0  0  0
   43.5230   33.3600   38.9470 N   0  0  0  0  0  0  0  0  0  0  0  0
   44.7290   32.8640   38.6590 C   0  0  0  0  0  0  0  0  0  0  0  0
   44.9820   32.0190   37.5980 C   0  0  0  0  0  3  0  0  0  0  0  0
   46.2730   31.5620   37.3880 C   0  0  0  0  0  0  0  0  0  0  0  0
   46.4420   30.8990   36.5460 H   0  0  0  0  0  0  0  0  0  0  0  0
   47.2960   31.9470   38.2310 C   0  0  0  0  0  0  0  0  0  0  0  0
   48.2980   31.5670   38.0350 H   0  0  0  0  0  0  0  0  0  0  0  0
   47.0930   32.7990   39.3160 C   0  0  0  0  0  3  0  0  0  0  0  0
   45.7840   33.2170   39.4690 C   0  0  0  0  0  0  0  0  0  0  0  0
   46.7640   34.6450   41.7070 S   0  0  0  0  0  0  0  0  0  0  0  0
   44.5300   36.0200   44.7960 C   0  0  0  0  0  0  0  0  0  0  0  0
   45.1490   35.9390   43.5320 C   0  0  0  0  0  0  0  0  0  0  0  0
   45.9510   34.8150   43.2840 C   0  0  0  0  0  0  0  0  0  0  0  0
   46.0830   33.8850   44.2560 N   0  0  0  0  0  0  0  0  0  0  0  0
   45.4770   33.9900   45.4580 C   0  0  0  0  0  0  0  0  0  0  0  0
   44.7070   35.0580   45.7120 N   0  0  0  0  0  0  0  0  0  0  0  0
   43.9270   36.8930   44.9460 H   0  0  0  0  0  0  0  0  0  0  0  0
   45.0020   36.7120   42.8050 H   0  0  0  0  0  0  0  0  0  0  0  0
   45.5710   33.2560   46.2480 H   0  0  0  0  0  0  0  0  0  0  0  0
  1  2  1  0  0  0  0
  1 13  1  0  0  0  0
  3  2  2  0  0  0  0
  4  3  1  0  0  0  0
  5  4  2  0  0  0  0
  5 12  1  0  0  0  0
  6  5  1  0  0  0  0
  7  6  2  0  0  0  0
  7  9  1  0  0  0  0
  8  7  1  0  0  0  0
  9 11  2  0  0  0  0
 10  9  1  0  0  0  0
 11 12  1  0  0  0  0
 12  1  2  0  0  0  0
 13 16  1  0  0  0  0
 14 20  1  0  0  0  0
 14 19  1  0  0  0  0
 15 14  2  0  0  0  0
 16 15  1  0  0  0  0
 16 17  2  0  0  0  0
 17 18  1  0  0  0  0
 18 19  2  0  0  0  0
 18 22  1  0  0  0  0
 21 15  1  0  0  0  0
M  END
>  <minimizedAffinity>
-4.25648928

>  <minimizedRMSD>
1.77969325

$$$$
