
 OpenBabel03252508033D

 45 49  0  0  1  0  0  0  0  0999 V2000
   42.0740   33.2460   41.1450 C   0  0  0  0  0  0  0  0  0  0  0  0
   42.8060   34.3820   41.3250 C   0  0  0  0  0  0  0  0  0  0  0  0
   42.1380   35.6230   41.2650 C   0  0  0  0  0  0  0  0  0  0  0  0
   40.7820   35.7300   41.0330 C   0  0  0  0  0  0  0  0  0  0  0  0
   40.0570   34.5860   40.8530 C   0  0  0  0  0  0  0  0  0  0  0  0
   40.7000   33.3870   40.9110 C   0  0  0  0  0  0  0  0  0  0  0  0
   42.6280   36.5730   41.3870 H   0  0  0  0  0  0  0  0  0  0  0  0
   40.2760   36.6740   40.9880 H   0  0  0  0  0  0  0  0  0  0  0  0
   39.0120   34.5920   40.6710 H   0  0  0  0  0  0  0  0  0  0  0  0
   40.1140   32.4650   40.7650 H   0  0  0  0  0  0  0  0  0  0  0  0
   42.7570   31.7040   41.2370 S   0  0  0  0  0  0  0  0  0  0  0  0
   41.7620   30.8450   40.4630 O   0  0  0  0  0  0  0  0  0  0  0  0
   42.7320   31.2630   42.6830 O   0  0  0  0  0  0  0  0  0  0  0  0
   44.0120   30.9950   40.4270 C   0  0  0  0  0  0  0  0  0  0  0  0
   44.4780   31.2760   39.1880 N   0  0  0  0  0  0  0  0  0  0  0  0
   45.3490   30.6710   38.4280 C   0  0  0  0  0  3  0  0  0  0  0  0
   45.8770   29.5790   38.9580 N   0  0  0  0  0  0  0  0  0  0  0  0
   45.5390   29.1450   40.1750 C   0  0  0  0  0  0  0  0  0  0  0  0
   46.2020   27.9720   40.5410 C   0  0  0  0  0  3  0  0  0  0  0  0
   45.9030   27.4550   41.7840 C   0  0  0  0  0  0  0  0  0  0  0  0
   46.3830   26.5510   42.1220 H   0  0  0  0  0  0  0  0  0  0  0  0
   44.9880   28.1020   42.5870 C   0  0  0  0  0  0  0  0  0  0  0  0
   44.7750   27.6750   43.5570 H   0  0  0  0  0  0  0  0  0  0  0  0
   44.3910   29.2510   42.1300 C   0  0  0  0  0  3  0  0  0  0  0  0
   44.6160   29.8420   40.9100 C   0  0  0  0  0  0  0  0  0  0  0  0
   44.2370   34.3740   41.5580 C   0  0  0  0  0  0  0  0  0  0  0  0
   45.1130   34.3060   40.6270 O   0  0  0  0  0  0  0  0  0  0  0  0
   44.5850   34.4530   42.9470 C   0  0  0  0  0  0  0  0  0  0  0  0
   44.3070   35.7060   43.5710 C   0  0  0  0  0  0  0  0  0  0  0  0
   44.6300   35.8080   44.9230 C   0  0  0  0  0  0  0  0  0  0  0  0
   45.1770   34.7290   45.5460 N   0  0  0  0  0  0  0  0  0  0  0  0
   45.4160   33.5700   44.8920 C   0  0  0  0  0  0  0  0  0  0  0  0
   45.1260   33.4520   43.6400 N   0  0  0  0  0  0  0  0  0  0  0  0
   43.8880   36.5960   43.1740 H   0  0  0  0  0  0  0  0  0  0  0  0
   44.4750   36.6960   45.5240 H   0  0  0  0  0  0  0  0  0  0  0  0
   46.0070   32.4390   45.6530 C   0  0  1  0  0  0  0  0  0  0  0  0
   46.9680   32.7440   46.7840 C   0  0  0  0  0  0  0  0  0  0  0  0
   45.5640   32.3130   47.0480 C   0  0  1  0  0  0  0  0  0  0  0  0
   46.1900   31.5270   45.0810 H   0  0  0  0  0  0  0  0  0  0  0  0
   47.7440   31.9690   46.9710 H   0  0  0  0  0  0  0  0  0  0  0  0
   47.2780   33.7990   46.8640 H   0  0  0  0  0  0  0  0  0  0  0  0
   45.3850   31.3060   47.4690 H   0  0  0  0  0  0  0  0  0  0  0  0
   44.7790   33.3840   47.6540 N   0  0  0  0  0  0  0  0  0  0  0  0
   44.2080   32.9950   48.4630 H   0  0  0  0  0  0  0  0  0  0  0  0
   45.3340   34.1660   48.0150 H   0  0  0  0  0  0  0  0  0  0  0  0
  1 11  1  0  0  0  0
  1  2  1  0  0  0  0
  2 26  1  0  0  0  0
  3  2  2  0  0  0  0
  3  7  1  0  0  0  0
  4  3  1  0  0  0  0
  5  6  1  0  0  0  0
  5  4  2  0  0  0  0
  6  1  2  0  0  0  0
  8  4  1  0  0  0  0
  9  5  1  0  0  0  0
 10  6  1  0  0  0  0
 11 13  2  0  0  0  0
 12 11  2  0  0  0  0
 14 25  1  0  0  0  0
 14 11  1  0  0  0  0
 15 14  2  0  0  0  0
 16 17  2  0  0  0  0
 16 15  1  0  0  0  0
 17 18  1  0  0  0  0
 18 19  2  0  0  0  0
 18 25  1  0  0  0  0
 19 20  1  0  0  0  0
 20 21  1  0  0  0  0
 20 22  2  0  0  0  0
 22 23  1  0  0  0  0
 24 22  1  0  0  0  0
 25 24  2  0  0  0  0
 26 28  1  0  0  0  0
 27 26  2  0  0  0  0
 28 29  2  0  0  0  0
 28 33  1  0  0  0  0
 29 30  1  0  0  0  0
 30 35  1  0  0  0  0
 30 31  2  0  0  0  0
 32 31  1  0  0  0  0
 32 36  1  0  0  0  0
 33 32  2  0  0  0  0
 34 29  1  0  0  0  0
 36 39  1  6  0  0  0
 36 37  1  0  0  0  0
 36 38  1  0  0  0  0
 37 41  1  0  0  0  0
 37 40  1  0  0  0  0
 37 38  1  0  0  0  0
 38 42  1  1  0  0  0
 38 43  1  0  0  0  0
 43 45  1  0  0  0  0
 43 44  1  0  0  0  0
M  END
>  <minimizedAffinity>
-5.70894337

>  <minimizedRMSD>
1.1931951

$$$$
