
 OpenBabel03252507463D

 40 43  0  0  0  0  0  0  0  0999 V2000
   48.4660   33.9920   41.4630 C   0  0  0  0  0  0  0  0  0  0  0  0
   49.0120   32.7970   41.0050 C   0  0  0  0  0  0  0  0  0  0  0  0
   50.2880   32.4040   41.3750 C   0  0  0  0  0  0  0  0  0  0  0  0
   50.9730   33.2610   42.2150 N   0  0  0  0  0  0  0  0  0  0  0  0
   50.4090   34.4120   42.6380 C   0  0  0  0  0  0  0  0  0  0  0  0
   49.1860   34.7580   42.2650 N   0  0  0  0  0  0  0  0  0  0  0  0
   50.7400   31.4810   41.0360 H   0  0  0  0  0  0  0  0  0  0  0  0
   51.0220   35.0200   43.2940 H   0  0  0  0  0  0  0  0  0  0  0  0
   47.1030   34.3000   41.0020 C   0  0  0  0  0  0  0  0  0  0  0  0
   47.1690   34.8910   40.0550 H   0  0  0  0  0  0  0  0  0  0  0  0
   46.5350   33.3880   40.7370 H   0  0  0  0  0  0  0  0  0  0  0  0
   46.2800   35.0160   42.0310 C   0  0  0  0  0  0  0  0  0  0  0  0
   46.4550   34.5120   43.0190 H   0  0  0  0  0  0  0  0  0  0  0  0
   46.6290   36.0640   42.1640 H   0  0  0  0  0  0  0  0  0  0  0  0
   44.8110   34.9610   41.7650 C   0  0  0  0  0  0  0  0  0  0  0  0
   43.9070   35.4580   42.7440 C   0  0  0  0  0  0  0  0  0  0  0  0
   42.2610   35.1730   41.9680 S   0  0  0  0  0  0  0  0  0  0  0  0
   43.0940   34.4240   40.4380 C   0  0  0  0  0  0  0  0  0  0  0  0
   44.2040   34.4980   40.7090 N   0  0  0  0  0  0  0  0  0  0  0  0
   44.1510   35.8940   43.7070 H   0  0  0  0  0  0  0  0  0  0  0  0
   42.3750   33.9490   39.3440 O   0  0  0  0  0  0  0  0  0  0  0  0
   40.4220   34.3830   37.6070 O   0  0  0  0  0  0  0  0  0  0  0  0
   41.5020   35.0810   38.4270 P   0  0  0  0  0  0  0  0  0  0  0  0
   40.7820   36.1860   39.4830 O   0  0  0  0  0  0  0  0  0  0  0  0
   39.9150   35.8400   39.7980 H   0  0  0  0  0  0  0  0  0  0  0  0
   42.5780   35.9400   37.4180 O   0  0  0  0  0  0  0  0  0  0  0  0
   42.1120   36.7530   37.1380 H   0  0  0  0  0  0  0  0  0  0  0  0
   48.0740   31.7200   39.9130 S   0  0  0  0  0  0  0  0  0  0  0  0
   48.3250   32.1900   38.2080 C   0  0  0  0  0  0  0  0  0  0  0  0
   47.9880   33.4280   37.7600 N   0  0  0  0  0  0  0  0  0  0  0  0
   48.1910   33.7490   36.4710 C   0  0  0  0  0  3  0  0  0  0  0  0
   48.7270   32.8520   35.6200 N   0  0  0  0  0  0  0  0  0  0  0  0
   49.0720   31.6120   36.0390 C   0  0  0  0  0  0  0  0  0  0  0  0
   49.6130   30.7680   35.0880 C   0  0  0  0  0  3  0  0  0  0  0  0
   49.9820   29.4970   35.4630 C   0  0  0  0  0  0  0  0  0  0  0  0
   50.4010   28.8680   34.6870 H   0  0  0  0  0  0  0  0  0  0  0  0
   49.7920   29.1140   36.7870 C   0  0  0  0  0  0  0  0  0  0  0  0
   50.0930   28.1090   37.0370 H   0  0  0  0  0  0  0  0  0  0  0  0
   49.2470   29.9850   37.7140 C   0  0  0  0  0  3  0  0  0  0  0  0
   48.8710   31.2650   37.3600 C   0  0  0  0  0  0  0  0  0  0  0  0
  1  6  1  0  0  0  0
  2  3  1  0  0  0  0
  2  1  2  0  0  0  0
  3  4  2  0  0  0  0
  4  5  1  0  0  0  0
  5  8  1  0  0  0  0
  6  5  2  0  0  0  0
  7  3  1  0  0  0  0
  9  1  1  0  0  0  0
  9 12  1  0  0  0  0
 10  9  1  0  0  0  0
 11  9  1  0  0  0  0
 12 14  1  0  0  0  0
 12 13  1  0  0  0  0
 15 12  1  0  0  0  0
 15 16  2  0  0  0  0
 16 20  1  0  0  0  0
 17 16  1  0  0  0  0
 18 19  2  0  0  0  0
 18 17  1  0  0  0  0
 19 15  1  0  0  0  0
 21 18  1  0  0  0  0
 22 23  2  0  0  0  0
 23 21  1  0  0  0  0
 23 24  1  0  0  0  0
 24 25  1  0  0  0  0
 26 23  1  0  0  0  0
 27 26  1  0  0  0  0
 28  2  1  0  0  0  0
 29 28  1  0  0  0  0
 30 29  1  0  0  0  0
 31 30  2  0  0  0  0
 32 33  2  0  0  0  0
 32 31  1  0  0  0  0
 33 40  1  0  0  0  0
 34 35  2  0  0  0  0
 34 33  1  0  0  0  0
 35 37  1  0  0  0  0
 36 35  1  0  0  0  0
 37 38  1  0  0  0  0
 37 39  2  0  0  0  0
 40 39  1  0  0  0  0
 40 29  2  0  0  0  0
M  END
>  <minimizedAffinity>
-5.12638807

>  <minimizedRMSD>
0.230688825

$$$$
