
 OpenBabel03242523313D

 25 27  0  0  0  0  0  0  0  0999 V2000
   39.4450   31.6540   41.4920 S   0  0  0  0  0  0  0  0  0  0  0  0
   37.9670   30.6760   41.2850 C   0  0  0  0  0  0  0  0  0  0  0  0
   36.8820   31.0310   40.5550 N   0  0  0  0  0  0  0  0  0  0  0  0
   35.8220   30.2020   40.4810 C   0  0  0  0  0  3  0  0  0  0  0  0
   35.8050   29.0020   41.1230 N   0  0  0  0  0  0  0  0  0  0  0  0
   36.8690   28.5950   41.8720 C   0  0  0  0  0  0  0  0  0  0  0  0
   36.8050   27.3720   42.5050 C   0  0  0  0  0  3  0  0  0  0  0  0
   37.9130   26.9840   43.2660 C   0  0  0  0  0  0  0  0  0  0  0  0
   37.9800   26.0530   43.8060 H   0  0  0  0  0  0  0  0  0  0  0  0
   39.0090   27.8100   43.3600 C   0  0  0  0  0  0  0  0  0  0  0  0
   39.8980   27.5490   43.9430 H   0  0  0  0  0  0  0  0  0  0  0  0
   39.0110   29.0240   42.7000 C   0  0  0  0  0  3  0  0  0  0  0  0
   37.9410   29.4590   41.9330 C   0  0  0  0  0  0  0  0  0  0  0  0
   39.2250   33.2450   40.6290 C   0  0  0  0  0  0  0  0  0  0  0  0
   39.3760   34.0980   41.3310 H   0  0  0  0  0  0  0  0  0  0  0  0
   38.2010   33.3460   40.2300 H   0  0  0  0  0  0  0  0  0  0  0  0
   42.0160   34.1380   38.3290 C   0  0  0  0  0  0  0  0  0  0  0  0
   41.8440   33.1740   37.3260 C   0  0  0  0  0  0  0  0  0  0  0  0
   40.7920   32.2480   37.4520 C   0  0  0  0  0  0  0  0  0  0  0  0
   39.9780   32.3220   38.5450 N   0  0  0  0  0  0  0  0  0  0  0  0
   40.1820   33.2820   39.5020 C   0  0  0  0  0  0  0  0  0  0  0  0
   41.1800   34.1560   39.3790 N   0  0  0  0  0  0  0  0  0  0  0  0
   42.8310   34.8300   38.2000 H   0  0  0  0  0  0  0  0  0  0  0  0
   42.4520   33.0660   36.4420 H   0  0  0  0  0  0  0  0  0  0  0  0
   40.5890   31.4820   36.7350 H   0  0  0  0  0  0  0  0  0  0  0  0
  2  1  1  0  0  0  0
  2 13  1  0  0  0  0
  3  2  2  0  0  0  0
  4  3  1  0  0  0  0
  4  5  2  0  0  0  0
  5  6  1  0  0  0  0
  6 13  2  0  0  0  0
  6  7  1  0  0  0  0
  7  8  2  0  0  0  0
  8 10  1  0  0  0  0
  8  9  1  0  0  0  0
 10 11  1  0  0  0  0
 12 10  2  0  0  0  0
 13 12  1  0  0  0  0
 14 15  1  0  0  0  0
 14  1  1  0  0  0  0
 16 14  1  0  0  0  0
 17 22  1  0  0  0  0
 18 19  1  0  0  0  0
 18 17  2  0  0  0  0
 19 20  2  0  0  0  0
 20 21  1  0  0  0  0
 21 14  1  0  0  0  0
 22 21  2  0  0  0  0
 23 17  1  0  0  0  0
 24 18  1  0  0  0  0
 25 19  1  0  0  0  0
M  END
>  <minimizedAffinity>
-5.02725887

$$$$

 OpenBabel03242523313D

 25 27  0  0  0  0  0  0  0  0999 V2000
   36.4440   29.6490   39.4790 S   0  0  0  0  0  0  0  0  0  0  0  0
   36.8630   28.8360   41.0120 C   0  0  0  0  0  0  0  0  0  0  0  0
   37.1820   29.4580   42.1730 N   0  0  0  0  0  0  0  0  0  0  0  0
   37.4840   28.7280   43.2650 C   0  0  0  0  0  3  0  0  0  0  0  0
   37.4780   27.3670   43.2400 N   0  0  0  0  0  0  0  0  0  0  0  0
   37.1640   26.6900   42.0990 C   0  0  0  0  0  0  0  0  0  0  0  0
   37.1730   25.3110   42.1230 C   0  0  0  0  0  3  0  0  0  0  0  0
   36.8470   24.6470   40.9350 C   0  0  0  0  0  0  0  0  0  0  0  0
   36.8210   23.5740   40.8300 H   0  0  0  0  0  0  0  0  0  0  0  0
   36.5350   25.3670   39.8050 C   0  0  0  0  0  0  0  0  0  0  0  0
   36.2740   24.8900   38.8540 H   0  0  0  0  0  0  0  0  0  0  0  0
   36.5440   26.7470   39.8470 C   0  0  0  0  0  3  0  0  0  0  0  0
   36.8590   27.4570   40.9960 C   0  0  0  0  0  0  0  0  0  0  0  0
   37.9770   30.2370   38.6860 C   0  0  0  0  0  0  0  0  0  0  0  0
   37.8690   30.2410   37.5770 H   0  0  0  0  0  0  0  0  0  0  0  0
   38.8270   29.5710   38.9150 H   0  0  0  0  0  0  0  0  0  0  0  0
   39.6490   33.2080   40.1850 C   0  0  0  0  0  0  0  0  0  0  0  0
   38.6020   34.1400   40.1520 C   0  0  0  0  0  0  0  0  0  0  0  0
   37.3590   33.7420   39.6250 C   0  0  0  0  0  0  0  0  0  0  0  0
   37.2200   32.4630   39.1650 N   0  0  0  0  0  0  0  0  0  0  0  0
   38.2700   31.5850   39.2170 C   0  0  0  0  0  0  0  0  0  0  0  0
   39.4450   31.9680   39.7170 N   0  0  0  0  0  0  0  0  0  0  0  0
   40.5850   33.5480   40.5950 H   0  0  0  0  0  0  0  0  0  0  0  0
   38.6510   35.1590   40.5000 H   0  0  0  0  0  0  0  0  0  0  0  0
   36.5100   34.3850   39.5620 H   0  0  0  0  0  0  0  0  0  0  0  0
  1  2  1  0  0  0  0
  2  3  1  0  0  0  0
  3  4  2  0  0  0  0
  5  4  1  0  0  0  0
  6  7  1  0  0  0  0
  6  5  2  0  0  0  0
  8  7  2  0  0  0  0
  9  8  1  0  0  0  0
 10 12  2  0  0  0  0
 10  8  1  0  0  0  0
 11 10  1  0  0  0  0
 12 13  1  0  0  0  0
 13  2  2  0  0  0  0
 13  6  1  0  0  0  0
 14 16  1  0  0  0  0
 14 21  1  0  0  0  0
 14  1  1  0  0  0  0
 15 14  1  0  0  0  0
 17 23  1  0  0  0  0
 18 17  1  0  0  0  0
 18 24  1  0  0  0  0
 19 18  2  0  0  0  0
 20 21  2  0  0  0  0
 20 19  1  0  0  0  0
 21 22  1  0  0  0  0
 22 17  2  0  0  0  0
 25 19  1  0  0  0  0
M  END
>  <minimizedAffinity>
-4.89164066

$$$$

 OpenBabel03242523313D

 25 27  0  0  0  0  0  0  0  0999 V2000
   37.3040   29.2920   42.1690 S   0  0  0  0  0  0  0  0  0  0  0  0
   38.6790   28.2290   42.5760 C   0  0  0  0  0  0  0  0  0  0  0  0
   39.9090   28.6440   42.9640 N   0  0  0  0  0  0  0  0  0  0  0  0
   40.8670   27.7380   43.2400 C   0  0  0  0  0  3  0  0  0  0  0  0
   40.6380   26.4010   43.1410 N   0  0  0  0  0  0  0  0  0  0  0  0
   39.4190   25.9270   42.7540 C   0  0  0  0  0  0  0  0  0  0  0  0
   39.2350   24.5640   42.6660 C   0  0  0  0  0  3  0  0  0  0  0  0
   37.9730   24.1110   42.2650 C   0  0  0  0  0  0  0  0  0  0  0  0
   37.7100   23.0700   42.1600 H   0  0  0  0  0  0  0  0  0  0  0  0
   36.9760   25.0130   41.9770 C   0  0  0  0  0  0  0  0  0  0  0  0
   35.9740   24.7050   41.6600 H   0  0  0  0  0  0  0  0  0  0  0  0
   37.2240   26.3680   42.0850 C   0  0  0  0  0  3  0  0  0  0  0  0
   38.4550   26.8720   42.4770 C   0  0  0  0  0  0  0  0  0  0  0  0
   37.3630   29.6790   40.3890 C   0  0  0  0  0  0  0  0  0  0  0  0
   36.4130   29.3810   39.8890 H   0  0  0  0  0  0  0  0  0  0  0  0
   38.1700   29.1190   39.8840 H   0  0  0  0  0  0  0  0  0  0  0  0
   37.2280   33.2640   39.3880 C   0  0  0  0  0  0  0  0  0  0  0  0
   38.2900   33.7850   40.1420 C   0  0  0  0  0  0  0  0  0  0  0  0
   39.0230   32.9130   40.9680 C   0  0  0  0  0  0  0  0  0  0  0  0
   38.6740   31.5930   41.0050 N   0  0  0  0  0  0  0  0  0  0  0  0
   37.6280   31.1270   40.2510 C   0  0  0  0  0  0  0  0  0  0  0  0
   36.9370   31.9570   39.4700 N   0  0  0  0  0  0  0  0  0  0  0  0
   36.6890   33.9600   38.7680 H   0  0  0  0  0  0  0  0  0  0  0  0
   38.6120   34.8130   40.1540 H   0  0  0  0  0  0  0  0  0  0  0  0
   39.8450   33.2230   41.5740 H   0  0  0  0  0  0  0  0  0  0  0  0
  1  2  1  0  0  0  0
  2  3  1  0  0  0  0
  3  4  2  0  0  0  0
  5  4  1  0  0  0  0
  6  5  2  0  0  0  0
  7  6  1  0  0  0  0
  8  7  2  0  0  0  0
  9  8  1  0  0  0  0
 10 12  2  0  0  0  0
 10  8  1  0  0  0  0
 11 10  1  0  0  0  0
 12 13  1  0  0  0  0
 13  2  2  0  0  0  0
 13  6  1  0  0  0  0
 14  1  1  0  0  0  0
 15 14  1  0  0  0  0
 16 14  1  0  0  0  0
 17 22  2  0  0  0  0
 17 18  1  0  0  0  0
 18 24  1  0  0  0  0
 18 19  2  0  0  0  0
 19 20  1  0  0  0  0
 19 25  1  0  0  0  0
 21 14  1  0  0  0  0
 21 20  2  0  0  0  0
 22 21  1  0  0  0  0
 23 17  1  0  0  0  0
M  END
>  <minimizedAffinity>
-4.88549805

$$$$

 OpenBabel03242523313D

 25 27  0  0  0  0  0  0  0  0999 V2000
   37.8580   27.7770   43.6640 S   0  0  0  0  0  0  0  0  0  0  0  0
   38.2020   29.2090   42.6560 C   0  0  0  0  0  0  0  0  0  0  0  0
   39.2430   30.0610   42.8230 N   0  0  0  0  0  0  0  0  0  0  0  0
   39.3910   31.1120   41.9940 C   0  0  0  0  0  3  0  0  0  0  0  0
   38.5170   31.3510   40.9790 N   0  0  0  0  0  0  0  0  0  0  0  0
   37.4520   30.5280   40.7650 C   0  0  0  0  0  0  0  0  0  0  0  0
   36.5930   30.8120   39.7240 C   0  0  0  0  0  3  0  0  0  0  0  0
   35.5090   29.9480   39.5320 C   0  0  0  0  0  0  0  0  0  0  0  0
   34.7710   30.0670   38.7540 H   0  0  0  0  0  0  0  0  0  0  0  0
   35.3340   28.8670   40.3640 C   0  0  0  0  0  0  0  0  0  0  0  0
   34.5010   28.1640   40.2510 H   0  0  0  0  0  0  0  0  0  0  0  0
   36.2300   28.6360   41.3880 C   0  0  0  0  0  3  0  0  0  0  0  0
   37.3210   29.4600   41.6250 C   0  0  0  0  0  0  0  0  0  0  0  0
   39.1070   26.4960   43.3140 C   0  0  0  0  0  0  0  0  0  0  0  0
   39.4760   26.0370   44.2600 H   0  0  0  0  0  0  0  0  0  0  0  0
   39.9910   26.9250   42.8100 H   0  0  0  0  0  0  0  0  0  0  0  0
   36.6740   24.3600   41.4730 C   0  0  0  0  0  0  0  0  0  0  0  0
   37.5460   23.5810   40.6980 C   0  0  0  0  0  0  0  0  0  0  0  0
   38.9310   23.7980   40.8170 C   0  0  0  0  0  0  0  0  0  0  0  0
   39.3750   24.7570   41.6820 N   0  0  0  0  0  0  0  0  0  0  0  0
   38.4870   25.4950   42.4200 C   0  0  0  0  0  0  0  0  0  0  0  0
   37.1760   25.2860   42.3030 N   0  0  0  0  0  0  0  0  0  0  0  0
   35.6210   24.1670   41.3560 H   0  0  0  0  0  0  0  0  0  0  0  0
   37.2570   22.8110   40.0020 H   0  0  0  0  0  0  0  0  0  0  0  0
   39.6650   23.2510   40.2670 H   0  0  0  0  0  0  0  0  0  0  0  0
  2  3  1  0  0  0  0
  2  1  1  0  0  0  0
  4  3  2  0  0  0  0
  5  4  1  0  0  0  0
  6  5  2  0  0  0  0
  6 13  1  0  0  0  0
  7  6  1  0  0  0  0
  8  7  2  0  0  0  0
  8 10  1  0  0  0  0
  9  8  1  0  0  0  0
 10 12  2  0  0  0  0
 11 10  1  0  0  0  0
 12 13  1  0  0  0  0
 13  2  2  0  0  0  0
 14  1  1  0  0  0  0
 14 15  1  0  0  0  0
 16 14  1  0  0  0  0
 17 22  1  0  0  0  0
 18 19  1  0  0  0  0
 18 17  2  0  0  0  0
 19 20  2  0  0  0  0
 20 21  1  0  0  0  0
 21 14  1  0  0  0  0
 22 21  2  0  0  0  0
 23 17  1  0  0  0  0
 24 18  1  0  0  0  0
 25 19  1  0  0  0  0
M  END
>  <minimizedAffinity>
-4.71125174

$$$$

 OpenBabel03242523313D

 25 27  0  0  0  0  0  0  0  0999 V2000
   36.9090   29.4130   41.4520 S   0  0  0  0  0  0  0  0  0  0  0  0
   36.6440   28.1870   40.1830 C   0  0  0  0  0  0  0  0  0  0  0  0
   36.3540   28.4460   38.8840 N   0  0  0  0  0  0  0  0  0  0  0  0
   36.1730   27.4270   38.0210 C   0  0  0  0  0  3  0  0  0  0  0  0
   36.2720   26.1290   38.4140 N   0  0  0  0  0  0  0  0  0  0  0  0
   36.5600   25.8100   39.7080 C   0  0  0  0  0  0  0  0  0  0  0  0
   36.6490   24.4800   40.0600 C   0  0  0  0  0  3  0  0  0  0  0  0
   36.9460   24.1880   41.3960 C   0  0  0  0  0  0  0  0  0  0  0  0
   37.0410   23.1880   41.7890 H   0  0  0  0  0  0  0  0  0  0  0  0
   37.1370   25.2070   42.2990 C   0  0  0  0  0  0  0  0  0  0  0  0
   37.3710   25.0260   43.3540 H   0  0  0  0  0  0  0  0  0  0  0  0
   37.0350   26.5200   41.8830 C   0  0  0  0  0  3  0  0  0  0  0  0
   36.7420   26.8680   40.5730 C   0  0  0  0  0  0  0  0  0  0  0  0
   36.3410   31.0320   40.8370 C   0  0  0  0  0  0  0  0  0  0  0  0
   35.5930   31.4770   41.5320 H   0  0  0  0  0  0  0  0  0  0  0  0
   35.8390   30.9350   39.8580 H   0  0  0  0  0  0  0  0  0  0  0  0
   38.6400   33.8420   40.0070 C   0  0  0  0  0  0  0  0  0  0  0  0
   39.8560   33.3340   40.4840 C   0  0  0  0  0  0  0  0  0  0  0  0
   39.8680   32.0560   41.0740 C   0  0  0  0  0  0  0  0  0  0  0  0
   38.6970   31.3600   41.1600 N   0  0  0  0  0  0  0  0  0  0  0  0
   37.5310   31.8960   40.6790 C   0  0  0  0  0  0  0  0  0  0  0  0
   37.5240   33.1070   40.1210 N   0  0  0  0  0  0  0  0  0  0  0  0
   38.6680   34.8230   39.5620 H   0  0  0  0  0  0  0  0  0  0  0  0
   40.8100   33.8340   40.4440 H   0  0  0  0  0  0  0  0  0  0  0  0
   40.7480   31.5920   41.4630 H   0  0  0  0  0  0  0  0  0  0  0  0
  2 13  1  0  0  0  0
  2  1  1  0  0  0  0
  3  2  2  0  0  0  0
  4  5  2  0  0  0  0
  4  3  1  0  0  0  0
  5  6  1  0  0  0  0
  6  7  2  0  0  0  0
  6 13  1  0  0  0  0
  7  8  1  0  0  0  0
  8  9  1  0  0  0  0
  8 10  2  0  0  0  0
 10 11  1  0  0  0  0
 12 10  1  0  0  0  0
 13 12  2  0  0  0  0
 14  1  1  0  0  0  0
 14 15  1  0  0  0  0
 16 14  1  0  0  0  0
 17 22  2  0  0  0  0
 17 18  1  0  0  0  0
 18 19  2  0  0  0  0
 19 20  1  0  0  0  0
 19 25  1  0  0  0  0
 21 14  1  0  0  0  0
 21 20  2  0  0  0  0
 22 21  1  0  0  0  0
 23 17  1  0  0  0  0
 24 18  1  0  0  0  0
M  END
>  <minimizedAffinity>
-4.67737961

$$$$

 OpenBabel03242523313D

 25 27  0  0  0  0  0  0  0  0999 V2000
   39.8820   28.9810   39.7100 S   0  0  0  0  0  0  0  0  0  0  0  0
   40.3140   30.6620   40.1230 C   0  0  0  0  0  0  0  0  0  0  0  0
   41.5150   31.0750   40.5960 N   0  0  0  0  0  0  0  0  0  0  0  0
   41.7150   32.3780   40.8750 C   0  0  0  0  0  3  0  0  0  0  0  0
   40.7370   33.3070   40.6940 N   0  0  0  0  0  0  0  0  0  0  0  0
   39.5100   32.9480   40.2220 C   0  0  0  0  0  0  0  0  0  0  0  0
   38.5510   33.9250   40.0580 C   0  0  0  0  0  3  0  0  0  0  0  0
   37.3020   33.5230   39.5720 C   0  0  0  0  0  0  0  0  0  0  0  0
   36.4740   34.1940   39.4030 H   0  0  0  0  0  0  0  0  0  0  0  0
   37.0690   32.1990   39.2790 C   0  0  0  0  0  0  0  0  0  0  0  0
   36.1080   31.8390   38.8960 H   0  0  0  0  0  0  0  0  0  0  0  0
   38.0720   31.2680   39.4650 C   0  0  0  0  0  3  0  0  0  0  0  0
   39.3280   31.6100   39.9440 C   0  0  0  0  0  0  0  0  0  0  0  0
   40.2540   27.9080   41.1360 C   0  0  0  0  0  0  0  0  0  0  0  0
   41.1340   28.2950   41.7010 H   0  0  0  0  0  0  0  0  0  0  0  0
   40.5160   26.8860   40.8110 H   0  0  0  0  0  0  0  0  0  0  0  0
   37.5540   28.6650   43.5880 C   0  0  0  0  0  0  0  0  0  0  0  0
   36.7500   27.5240   43.4500 C   0  0  0  0  0  0  0  0  0  0  0  0
   37.1400   26.5310   42.5330 C   0  0  0  0  0  0  0  0  0  0  0  0
   38.2860   26.7130   41.8120 N   0  0  0  0  0  0  0  0  0  0  0  0
   39.0410   27.8440   41.9800 C   0  0  0  0  0  0  0  0  0  0  0  0
   38.6680   28.7830   42.8490 N   0  0  0  0  0  0  0  0  0  0  0  0
   37.2250   29.4050   44.2980 H   0  0  0  0  0  0  0  0  0  0  0  0
   35.8390   27.3240   43.9890 H   0  0  0  0  0  0  0  0  0  0  0  0
   36.5890   25.6320   42.3650 H   0  0  0  0  0  0  0  0  0  0  0  0
  1  2  1  0  0  0  0
  1 14  1  0  0  0  0
  2  3  1  0  0  0  0
  3  4  2  0  0  0  0
  5  4  1  0  0  0  0
  6  5  2  0  0  0  0
  7  6  1  0  0  0  0
  8  7  2  0  0  0  0
  9  8  1  0  0  0  0
 10 12  2  0  0  0  0
 10  8  1  0  0  0  0
 11 10  1  0  0  0  0
 12 13  1  0  0  0  0
 13  2  2  0  0  0  0
 13  6  1  0  0  0  0
 14 15  1  0  0  0  0
 14 21  1  0  0  0  0
 16 14  1  0  0  0  0
 17 23  1  0  0  0  0
 18 17  1  0  0  0  0
 18 24  1  0  0  0  0
 19 18  2  0  0  0  0
 20 21  2  0  0  0  0
 20 19  1  0  0  0  0
 21 22  1  0  0  0  0
 22 17  2  0  0  0  0
 25 19  1  0  0  0  0
M  END
>  <minimizedAffinity>
-4.64264393

$$$$

 OpenBabel03242523313D

 25 27  0  0  0  0  0  0  0  0999 V2000
   39.7590   28.9010   41.7560 S   0  0  0  0  0  0  0  0  0  0  0  0
   38.4660   30.0400   41.2910 C   0  0  0  0  0  0  0  0  0  0  0  0
   37.1400   29.7630   41.2720 N   0  0  0  0  0  0  0  0  0  0  0  0
   36.2600   30.7120   40.8960 C   0  0  0  0  0  3  0  0  0  0  0  0
   36.6660   31.9580   40.5290 N   0  0  0  0  0  0  0  0  0  0  0  0
   37.9880   32.2910   40.5280 C   0  0  0  0  0  0  0  0  0  0  0  0
   38.3500   33.5660   40.1470 C   0  0  0  0  0  3  0  0  0  0  0  0
   39.7140   33.8760   40.1580 C   0  0  0  0  0  0  0  0  0  0  0  0
   40.1190   34.8370   39.8800 H   0  0  0  0  0  0  0  0  0  0  0  0
   40.6340   32.9260   40.5370 C   0  0  0  0  0  0  0  0  0  0  0  0
   41.7110   33.1230   40.5610 H   0  0  0  0  0  0  0  0  0  0  0  0
   40.2070   31.6670   40.9090 C   0  0  0  0  0  3  0  0  0  0  0  0
   38.8680   31.3050   40.9170 C   0  0  0  0  0  0  0  0  0  0  0  0
   39.2560   28.0260   43.2750 C   0  0  0  0  0  0  0  0  0  0  0  0
   38.4830   28.6090   43.8270 H   0  0  0  0  0  0  0  0  0  0  0  0
   40.1080   27.9030   43.9670 H   0  0  0  0  0  0  0  0  0  0  0  0
   37.1710   25.2040   42.0270 C   0  0  0  0  0  0  0  0  0  0  0  0
   38.0480   24.1270   42.2210 C   0  0  0  0  0  0  0  0  0  0  0  0
   39.3190   24.3820   42.7670 C   0  0  0  0  0  0  0  0  0  0  0  0
   39.6520   25.6660   43.0880 N   0  0  0  0  0  0  0  0  0  0  0  0
   38.7630   26.6890   42.8810 C   0  0  0  0  0  0  0  0  0  0  0  0
   37.5600   26.4430   42.3630 N   0  0  0  0  0  0  0  0  0  0  0  0
   36.2070   24.9720   41.6070 H   0  0  0  0  0  0  0  0  0  0  0  0
   37.8420   23.0950   41.9900 H   0  0  0  0  0  0  0  0  0  0  0  0
   40.0480   23.6220   42.9490 H   0  0  0  0  0  0  0  0  0  0  0  0
  1 14  1  0  0  0  0
  2  1  1  0  0  0  0
  3  2  1  0  0  0  0
  4  3  2  0  0  0  0
  5  4  1  0  0  0  0
  6  5  2  0  0  0  0
  6 13  1  0  0  0  0
  7  8  2  0  0  0  0
  7  6  1  0  0  0  0
  8 10  1  0  0  0  0
  9  8  1  0  0  0  0
 10 11  1  0  0  0  0
 10 12  2  0  0  0  0
 12 13  1  0  0  0  0
 13  2  2  0  0  0  0
 14 15  1  0  0  0  0
 14 16  1  0  0  0  0
 17 18  2  0  0  0  0
 17 22  1  0  0  0  0
 18 19  1  0  0  0  0
 19 25  1  0  0  0  0
 19 20  2  0  0  0  0
 21 20  1  0  0  0  0
 21 14  1  0  0  0  0
 22 21  2  0  0  0  0
 23 17  1  0  0  0  0
 24 18  1  0  0  0  0
M  END
>  <minimizedAffinity>
-4.56475735

$$$$

 OpenBabel03242523313D

 25 27  0  0  0  0  0  0  0  0999 V2000
   37.7150   30.3220   39.1250 S   0  0  0  0  0  0  0  0  0  0  0  0
   38.5210   31.8570   39.5470 C   0  0  0  0  0  0  0  0  0  0  0  0
   38.1030   32.7340   40.4930 N   0  0  0  0  0  0  0  0  0  0  0  0
   38.8010   33.8650   40.7150 C   0  0  0  0  0  3  0  0  0  0  0  0
   39.9270   34.1610   40.0110 N   0  0  0  0  0  0  0  0  0  0  0  0
   40.3920   33.3160   39.0480 C   0  0  0  0  0  0  0  0  0  0  0  0
   41.5360   33.6610   38.3600 C   0  0  0  0  0  3  0  0  0  0  0  0
   41.9860   32.7720   37.3770 C   0  0  0  0  0  0  0  0  0  0  0  0
   42.8670   32.9320   36.7740 H   0  0  0  0  0  0  0  0  0  0  0  0
   41.2940   31.6100   37.1290 C   0  0  0  0  0  0  0  0  0  0  0  0
   41.6090   30.8850   36.3700 H   0  0  0  0  0  0  0  0  0  0  0  0
   40.1540   31.3220   37.8530 C   0  0  0  0  0  3  0  0  0  0  0  0
   39.6630   32.1660   38.8380 C   0  0  0  0  0  0  0  0  0  0  0  0
   36.3340   30.0430   40.2830 C   0  0  0  0  0  0  0  0  0  0  0  0
   35.4600   29.5980   39.7530 H   0  0  0  0  0  0  0  0  0  0  0  0
   35.9830   30.9920   40.7230 H   0  0  0  0  0  0  0  0  0  0  0  0
   37.8580   28.7460   43.4240 C   0  0  0  0  0  0  0  0  0  0  0  0
   37.6650   27.3670   43.2570 C   0  0  0  0  0  0  0  0  0  0  0  0
   37.0250   26.9120   42.0900 C   0  0  0  0  0  0  0  0  0  0  0  0
   36.6170   27.8280   41.1630 N   0  0  0  0  0  0  0  0  0  0  0  0
   36.8270   29.1670   41.3670 C   0  0  0  0  0  0  0  0  0  0  0  0
   37.4330   29.5930   42.4750 N   0  0  0  0  0  0  0  0  0  0  0  0
   38.3500   29.0590   44.3300 H   0  0  0  0  0  0  0  0  0  0  0  0
   37.9650   26.5990   43.9500 H   0  0  0  0  0  0  0  0  0  0  0  0
   36.8390   25.8810   41.8810 H   0  0  0  0  0  0  0  0  0  0  0  0
  1  2  1  0  0  0  0
  1 14  1  0  0  0  0
  2  3  1  0  0  0  0
  3  4  2  0  0  0  0
  5  4  1  0  0  0  0
  6  5  2  0  0  0  0
  7  6  1  0  0  0  0
  8  7  2  0  0  0  0
  9  8  1  0  0  0  0
 10  8  1  0  0  0  0
 10 12  2  0  0  0  0
 11 10  1  0  0  0  0
 12 13  1  0  0  0  0
 13  6  1  0  0  0  0
 13  2  2  0  0  0  0
 14 16  1  0  0  0  0
 14 21  1  0  0  0  0
 15 14  1  0  0  0  0
 17 23  1  0  0  0  0
 18 17  1  0  0  0  0
 18 24  1  0  0  0  0
 19 18  2  0  0  0  0
 20 21  2  0  0  0  0
 20 19  1  0  0  0  0
 21 22  1  0  0  0  0
 22 17  2  0  0  0  0
 25 19  1  0  0  0  0
M  END
>  <minimizedAffinity>
-4.54956818

$$$$

 OpenBabel03242523313D

 25 27  0  0  0  0  0  0  0  0999 V2000
   36.8780   27.4240   43.1020 S   0  0  0  0  0  0  0  0  0  0  0  0
   36.6860   28.7430   41.9150 C   0  0  0  0  0  0  0  0  0  0  0  0
   35.6470   28.8880   41.0570 N   0  0  0  0  0  0  0  0  0  0  0  0
   35.6210   29.9300   40.2040 C   0  0  0  0  0  3  0  0  0  0  0  0
   36.6180   30.8560   40.1740 N   0  0  0  0  0  0  0  0  0  0  0  0
   37.6880   30.7590   41.0140 C   0  0  0  0  0  0  0  0  0  0  0  0
   38.6740   31.7200   40.9460 C   0  0  0  0  0  3  0  0  0  0  0  0
   39.7570   31.5920   41.8220 C   0  0  0  0  0  0  0  0  0  0  0  0
   40.5880   32.2790   41.8610 H   0  0  0  0  0  0  0  0  0  0  0  0
   39.8100   30.5380   42.7040 C   0  0  0  0  0  0  0  0  0  0  0  0
   40.6380   30.3960   43.4070 H   0  0  0  0  0  0  0  0  0  0  0  0
   38.7900   29.6070   42.7230 C   0  0  0  0  0  3  0  0  0  0  0  0
   37.6920   29.6850   41.8780 C   0  0  0  0  0  0  0  0  0  0  0  0
   37.4410   25.9240   42.2310 C   0  0  0  0  0  0  0  0  0  0  0  0
   37.1620   25.9670   41.1530 H   0  0  0  0  0  0  0  0  0  0  0  0
   36.9610   25.0180   42.6420 H   0  0  0  0  0  0  0  0  0  0  0  0
   40.8820   25.9910   43.6560 C   0  0  0  0  0  0  0  0  0  0  0  0
   41.6280   25.5460   42.5540 C   0  0  0  0  0  0  0  0  0  0  0  0
   40.9500   25.2360   41.3610 C   0  0  0  0  0  0  0  0  0  0  0  0
   39.5930   25.3780   41.3190 N   0  0  0  0  0  0  0  0  0  0  0  0
   38.9030   25.8160   42.4200 C   0  0  0  0  0  0  0  0  0  0  0  0
   39.5500   26.1090   43.5480 N   0  0  0  0  0  0  0  0  0  0  0  0
   41.4330   26.2190   44.5520 H   0  0  0  0  0  0  0  0  0  0  0  0
   42.6970   25.4160   42.5270 H   0  0  0  0  0  0  0  0  0  0  0  0
   41.4390   24.8920   40.4760 H   0  0  0  0  0  0  0  0  0  0  0  0
  2  1  1  0  0  0  0
  3  2  2  0  0  0  0
  4  3  1  0  0  0  0
  5  4  2  0  0  0  0
  5  6  1  0  0  0  0
  6 13  1  0  0  0  0
  7  6  2  0  0  0  0
  7  8  1  0  0  0  0
  8  9  1  0  0  0  0
  8 10  2  0  0  0  0
 10 12  1  0  0  0  0
 10 11  1  0  0  0  0
 13  2  1  0  0  0  0
 13 12  2  0  0  0  0
 14 21  1  0  0  0  0
 14 16  1  0  0  0  0
 14  1  1  0  0  0  0
 15 14  1  0  0  0  0
 17 23  1  0  0  0  0
 18 17  2  0  0  0  0
 19 18  1  0  0  0  0
 20 19  2  0  0  0  0
 20 21  1  0  0  0  0
 21 22  2  0  0  0  0
 22 17  1  0  0  0  0
 24 18  1  0  0  0  0
 25 19  1  0  0  0  0
M  END
>  <minimizedAffinity>
-4.51821995

$$$$
