
 OpenBabel03242511163D

 22 24  0  0  0  0  0  0  0  0999 V2000
   46.7730   33.0590   40.9890 C   0  0  0  0  0  0  0  0  0  0  0  0
   47.9840   33.5310   40.5730 N   0  0  0  0  0  0  0  0  0  0  0  0
   48.2210   33.8080   39.2720 C   0  0  0  0  0  3  0  0  0  0  0  0
   47.2150   33.5960   38.4160 N   0  0  0  0  0  0  0  0  0  0  0  0
   46.0060   33.1380   38.7440 C   0  0  0  0  0  0  0  0  0  0  0  0
   44.9860   32.9310   37.8380 C   0  0  0  0  0  3  0  0  0  0  0  0
   43.7670   32.4510   38.2850 C   0  0  0  0  0  0  0  0  0  0  0  0
   42.9850   32.2990   37.5490 H   0  0  0  0  0  0  0  0  0  0  0  0
   43.5710   32.1830   39.6250 C   0  0  0  0  0  0  0  0  0  0  0  0
   42.5990   31.8070   39.9410 H   0  0  0  0  0  0  0  0  0  0  0  0
   44.5690   32.3760   40.5810 C   0  0  0  0  0  3  0  0  0  0  0  0
   45.7580   32.8550   40.0680 C   0  0  0  0  0  0  0  0  0  0  0  0
   46.6650   32.7570   42.7470 S   0  0  0  0  0  0  0  0  0  0  0  0
   45.1270   36.4530   43.3810 C   0  0  0  0  0  0  0  0  0  0  0  0
   45.7680   35.3660   42.7510 C   0  0  0  0  0  0  0  0  0  0  0  0
   45.8680   34.1730   43.4820 C   0  0  0  0  0  0  0  0  0  0  0  0
   45.3530   34.1310   44.7300 N   0  0  0  0  0  0  0  0  0  0  0  0
   44.7440   35.1890   45.3080 C   0  0  0  0  0  0  0  0  0  0  0  0
   44.6390   36.3370   44.6240 N   0  0  0  0  0  0  0  0  0  0  0  0
   45.0710   37.3450   42.7910 H   0  0  0  0  0  0  0  0  0  0  0  0
   46.1550   35.4660   41.7580 H   0  0  0  0  0  0  0  0  0  0  0  0
   44.3250   35.1740   46.3060 H   0  0  0  0  0  0  0  0  0  0  0  0
  1 13  1  0  0  0  0
  2  1  1  0  0  0  0
  3  2  2  0  0  0  0
  4  5  2  0  0  0  0
  4  3  1  0  0  0  0
  5 12  1  0  0  0  0
  6  7  2  0  0  0  0
  6  5  1  0  0  0  0
  7  9  1  0  0  0  0
  8  7  1  0  0  0  0
  9 10  1  0  0  0  0
  9 11  2  0  0  0  0
 12 11  1  0  0  0  0
 12  1  2  0  0  0  0
 13 16  1  0  0  0  0
 14 19  1  0  0  0  0
 15 14  2  0  0  0  0
 15 16  1  0  0  0  0
 16 17  2  0  0  0  0
 17 18  1  0  0  0  0
 18 22  1  0  0  0  0
 19 18  2  0  0  0  0
 20 14  1  0  0  0  0
 21 15  1  0  0  0  0
M  END
>  <minimizedAffinity>
-3.91536832

>  <minimizedRMSD>
2.28688145

$$$$
