
 OpenBabel03252506463D

 45 49  0  0  1  0  0  0  0  0999 V2000
   49.6950   33.6130   41.5050 N   0  0  1  0  0  0  0  0  0  0  0  0
   50.7750   33.1360   42.3310 C   0  0  0  0  0  0  0  0  0  0  0  0
   51.3560   31.8210   41.9080 C   0  0  0  0  0  0  0  0  0  0  0  0
   50.3010   30.7490   42.0820 C   0  0  0  0  0  0  0  0  0  0  0  0
   48.9340   31.2790   41.7700 C   0  0  0  0  0  0  0  0  0  0  0  0
   49.0590   32.4820   40.8690 C   0  0  2  0  0  0  0  0  0  0  0  0
   50.4330   33.0140   43.3810 H   0  0  0  0  0  0  0  0  0  0  0  0
   51.5390   33.9350   42.3430 H   0  0  0  0  0  0  0  0  0  0  0  0
   52.2050   31.6340   42.6330 H   0  0  0  0  0  0  0  0  0  0  0  0
   51.8360   31.8020   40.9280 H   0  0  0  0  0  0  0  0  0  0  0  0
   50.5490   29.8150   41.5620 H   0  0  0  0  0  0  0  0  0  0  0  0
   50.2920   30.5100   43.1820 H   0  0  0  0  0  0  0  0  0  0  0  0
   48.2720   30.5540   41.2830 H   0  0  0  0  0  0  0  0  0  0  0  0
   48.3940   31.6260   42.6810 H   0  0  0  0  0  0  0  0  0  0  0  0
   48.0160   32.7960   40.6470 H   0  0  0  0  0  0  0  0  0  0  0  0
   49.6450   32.1110   39.6110 N   0  0  0  0  0  0  0  0  0  0  0  0
   50.4910   31.5250   39.7460 H   0  0  0  0  0  0  0  0  0  0  0  0
   49.2200   32.4590   38.3080 C   0  0  0  0  0  0  0  0  0  0  0  0
   48.5970   33.5980   37.9880 N   0  0  0  0  0  0  0  0  0  0  0  0
   48.1840   33.9800   36.7920 C   0  0  0  0  0  3  0  0  0  0  0  0
   48.4000   33.1500   35.7580 N   0  0  0  0  0  0  0  0  0  0  0  0
   49.0160   31.9740   35.9500 C   0  0  0  0  0  0  0  0  0  0  0  0
   49.2230   31.1480   34.8820 C   0  0  0  0  0  3  0  0  0  0  0  0
   49.8490   29.9270   35.0060 C   0  0  0  0  0  0  0  0  0  0  0  0
   49.9770   29.3330   34.1260 H   0  0  0  0  0  0  0  0  0  0  0  0
   50.2610   29.5770   36.2800 C   0  0  0  0  0  0  0  0  0  0  0  0
   50.7520   28.6160   36.3650 H   0  0  0  0  0  0  0  0  0  0  0  0
   50.0420   30.4230   37.3340 C   0  0  0  0  0  3  0  0  0  0  0  0
   49.4200   31.6400   37.2190 C   0  0  0  0  0  0  0  0  0  0  0  0
   47.4160   34.7050   41.9770 C   0  0  1  0  0  0  0  0  0  0  0  0
   48.4580   35.7360   41.7550 C   0  0  0  0  0  0  0  0  0  0  0  0
   48.8390   34.4140   42.2870 C   0  0  2  0  0  0  0  0  0  0  0  0
   46.9180   34.3360   41.0530 H   0  0  0  0  0  0  0  0  0  0  0  0
   48.5260   36.5940   42.4510 H   0  0  0  0  0  0  0  0  0  0  0  0
   48.7620   36.0170   40.7160 H   0  0  0  0  0  0  0  0  0  0  0  0
   49.0480   34.3470   43.3980 H   0  0  0  0  0  0  0  0  0  0  0  0
   45.5930   36.0020   43.1160 C   0  0  0  0  0  0  0  0  0  0  0  0
   46.4550   34.8960   43.0820 C   0  0  0  0  0  0  0  0  0  0  0  0
   46.3620   33.9570   44.1360 C   0  0  0  0  0  0  0  0  0  0  0  0
   45.4520   34.1780   45.1120 N   0  0  0  0  0  0  0  0  0  0  0  0
   44.6340   35.2480   45.1230 C   0  0  0  0  0  0  0  0  0  0  0  0
   44.6960   36.1770   44.1180 N   0  0  0  0  0  0  0  0  0  0  0  0
   45.6660   36.7180   42.3090 H   0  0  0  0  0  0  0  0  0  0  0  0
   47.0120   33.0920   44.1430 H   0  0  0  0  0  0  0  0  0  0  0  0
   43.9550   35.2960   45.9660 H   0  0  0  0  0  0  0  0  0  0  0  0
  1 32  1  0  0  0  0
  1  2  1  1  0  0  0
  2  8  1  0  0  0  0
  2  7  1  0  0  0  0
  3  4  1  0  0  0  0
  3  2  1  0  0  0  0
  3  9  1  0  0  0  0
  4 12  1  0  0  0  0
  5  4  1  0  0  0  0
  5 14  1  0  0  0  0
  6 15  1  6  0  0  0
  6  1  1  0  0  0  0
  6  5  1  0  0  0  0
 10  3  1  0  0  0  0
 11  4  1  0  0  0  0
 13  5  1  0  0  0  0
 16 17  1  0  0  0  0
 16  6  1  0  0  0  0
 18 16  1  0  0  0  0
 19 18  1  0  0  0  0
 20 19  2  0  0  0  0
 21 22  2  0  0  0  0
 21 20  1  0  0  0  0
 22 29  1  0  0  0  0
 23 24  2  0  0  0  0
 23 22  1  0  0  0  0
 24 26  1  0  0  0  0
 25 24  1  0  0  0  0
 26 27  1  0  0  0  0
 26 28  2  0  0  0  0
 29 28  1  0  0  0  0
 29 18  2  0  0  0  0
 30 33  1  6  0  0  0
 30 32  1  0  0  0  0
 30 38  1  0  0  0  0
 31 30  1  0  0  0  0
 31 32  1  0  0  0  0
 31 34  1  0  0  0  0
 32 36  1  1  0  0  0
 35 31  1  0  0  0  0
 37 42  1  0  0  0  0
 38 37  2  0  0  0  0
 38 39  1  0  0  0  0
 39 44  1  0  0  0  0
 39 40  2  0  0  0  0
 40 41  1  0  0  0  0
 41 45  1  0  0  0  0
 42 41  2  0  0  0  0
 43 37  1  0  0  0  0
M  END
>  <minimizedAffinity>
-5.90436506

>  <minimizedRMSD>
2.72196579

$$$$
