
 OpenBabel03242511163D

 22 24  0  0  0  0  0  0  0  0999 V2000
   46.5860   33.8420   40.5070 C   0  0  0  0  0  0  0  0  0  0  0  0
   45.4240   33.2600   40.9210 N   0  0  0  0  0  0  0  0  0  0  0  0
   44.6490   32.5510   40.0690 C   0  0  0  0  0  3  0  0  0  0  0  0
   45.0760   32.4490   38.8070 N   0  0  0  0  0  0  0  0  0  0  0  0
   46.1990   32.9870   38.3270 C   0  0  0  0  0  0  0  0  0  0  0  0
   46.6140   32.8640   37.0160 C   0  0  0  0  0  3  0  0  0  0  0  0
   47.7990   33.4630   36.6200 C   0  0  0  0  0  0  0  0  0  0  0  0
   48.0990   33.3490   35.5840 H   0  0  0  0  0  0  0  0  0  0  0  0
   48.5560   34.1770   37.5260 C   0  0  0  0  0  0  0  0  0  0  0  0
   49.4830   34.6360   37.1800 H   0  0  0  0  0  0  0  0  0  0  0  0
   48.1810   34.3320   38.8600 C   0  0  0  0  0  3  0  0  0  0  0  0
   46.9910   33.7100   39.1890 C   0  0  0  0  0  0  0  0  0  0  0  0
   47.4600   34.7340   41.7850 S   0  0  0  0  0  0  0  0  0  0  0  0
   44.5880   35.9170   44.3870 C   0  0  0  0  0  0  0  0  0  0  0  0
   45.4220   35.8770   43.2520 C   0  0  0  0  0  0  0  0  0  0  0  0
   46.3730   34.8470   43.1930 C   0  0  0  0  0  0  0  0  0  0  0  0
   46.4360   33.9630   44.2130 N   0  0  0  0  0  0  0  0  0  0  0  0
   45.6240   34.0270   45.2900 C   0  0  0  0  0  0  0  0  0  0  0  0
   44.7090   35.0050   45.3620 N   0  0  0  0  0  0  0  0  0  0  0  0
   43.8770   36.7170   44.3940 H   0  0  0  0  0  0  0  0  0  0  0  0
   45.3190   36.6080   42.4770 H   0  0  0  0  0  0  0  0  0  0  0  0
   45.6600   33.3290   46.1160 H   0  0  0  0  0  0  0  0  0  0  0  0
  1  2  1  0  0  0  0
  1 13  1  0  0  0  0
  3  2  2  0  0  0  0
  4  3  1  0  0  0  0
  5  4  2  0  0  0  0
  5 12  1  0  0  0  0
  6  5  1  0  0  0  0
  7  6  2  0  0  0  0
  7  9  1  0  0  0  0
  8  7  1  0  0  0  0
  9 11  2  0  0  0  0
 10  9  1  0  0  0  0
 11 12  1  0  0  0  0
 12  1  2  0  0  0  0
 13 16  1  0  0  0  0
 14 20  1  0  0  0  0
 14 19  1  0  0  0  0
 15 14  2  0  0  0  0
 16 15  1  0  0  0  0
 16 17  2  0  0  0  0
 17 18  1  0  0  0  0
 18 19  2  0  0  0  0
 18 22  1  0  0  0  0
 21 15  1  0  0  0  0
M  END
>  <minimizedAffinity>
-4.68867874

>  <minimizedRMSD>
3.03583574

$$$$
