
 OpenBabel03252504333D

 43 46  0  0  0  0  0  0  0  0999 V2000
   41.6430   35.3600   41.3350 C   0  0  0  0  0  0  0  0  0  0  0  0
   41.4750   35.4080   42.4350 H   0  0  0  0  0  0  0  0  0  0  0  0
   40.9650   36.1170   40.8870 H   0  0  0  0  0  0  0  0  0  0  0  0
   39.9490   33.6370   41.7120 C   0  0  0  0  0  0  0  0  0  0  0  0
   41.0810   34.0200   40.9530 C   0  0  0  0  0  0  0  0  0  0  0  0
   41.5020   33.1500   40.0080 C   0  0  0  0  0  0  0  0  0  0  0  0
   40.8380   32.0180   39.8610 N   0  0  0  0  0  0  0  0  0  0  0  0
   39.7910   31.6560   40.5600 C   0  0  0  0  0  0  0  0  0  0  0  0
   39.2950   32.4810   41.5410 N   0  0  0  0  0  0  0  0  0  0  0  0
   39.5640   34.3020   42.4920 H   0  0  0  0  0  0  0  0  0  0  0  0
   42.3430   33.4470   39.4510 H   0  0  0  0  0  0  0  0  0  0  0  0
   38.9760   30.4190   40.4800 C   0  0  0  0  0  0  0  0  0  0  0  0
   37.7970   30.3360   39.8130 N   0  0  0  0  0  0  0  0  0  0  0  0
   37.0360   29.2640   39.7140 C   0  0  0  0  0  3  0  0  0  0  0  0
   37.4160   28.1060   40.3130 N   0  0  0  0  0  0  0  0  0  0  0  0
   38.5880   28.0650   41.0150 C   0  0  0  0  0  0  0  0  0  0  0  0
   38.9630   26.8860   41.6170 C   0  0  0  0  0  3  0  0  0  0  0  0
   40.1400   26.8140   42.3330 C   0  0  0  0  0  0  0  0  0  0  0  0
   40.3210   25.8410   42.7540 H   0  0  0  0  0  0  0  0  0  0  0  0
   40.8890   27.9680   42.3990 C   0  0  0  0  0  0  0  0  0  0  0  0
   41.8120   27.8630   42.9750 H   0  0  0  0  0  0  0  0  0  0  0  0
   40.4690   29.1220   41.7780 C   0  0  0  0  0  3  0  0  0  0  0  0
   39.3170   29.2280   41.0670 C   0  0  0  0  0  0  0  0  0  0  0  0
   42.9170   35.5420   40.8840 O   0  0  0  0  0  0  0  0  0  0  0  0
   44.1040   35.3660   41.5720 C   0  0  0  0  0  3  0  0  0  0  0  0
   44.0700   35.6460   42.8700 C   0  0  0  0  0  3  0  0  0  0  0  0
   45.2390   35.5280   43.8310 C   0  0  0  0  0  0  0  0  0  0  0  0
   46.0900   35.2540   43.1790 H   0  0  0  0  0  0  0  0  0  0  0  0
   45.4190   36.4590   44.3760 H   0  0  0  0  0  0  0  0  0  0  0  0
   44.9440   34.4960   44.7020 O   0  0  0  0  0  0  0  0  0  0  0  0
   45.5910   32.4200   43.1790 O   0  0  0  0  0  0  0  0  0  0  0  0
   45.9550   33.1720   44.4380 P   0  0  1  0  0  0  0  0  0  0  0  0
   47.5670   33.6730   44.2550 O   0  0  0  0  0  0  0  0  0  0  0  0
   47.6030   34.6580   44.4210 H   0  0  0  0  0  0  0  0  0  0  0  0
   45.8960   32.1380   45.7720 O   0  0  0  0  0  0  0  0  0  0  0  0
   46.0150   32.8200   46.9660 C   0  0  0  0  0  0  0  0  0  0  0  0
   46.8330   32.2270   48.0700 C   0  0  0  0  0  0  0  0  0  0  0  0
   45.3150   32.1710   48.1390 C   0  0  0  0  0  0  0  0  0  0  0  0
   46.1110   33.9020   46.8730 H   0  0  0  0  0  0  0  0  0  0  0  0
   47.3960   32.8510   48.7770 H   0  0  0  0  0  0  0  0  0  0  0  0
   47.2890   31.2270   47.9160 H   0  0  0  0  0  0  0  0  0  0  0  0
   44.8950   32.9090   48.8710 H   0  0  0  0  0  0  0  0  0  0  0  0
   44.7910   31.2240   48.0080 H   0  0  0  0  0  0  0  0  0  0  0  0
  1  2  1  0  0  0  0
  3  1  1  0  0  0  0
  4 10  1  0  0  0  0
  5  1  1  0  0  0  0
  5  4  2  0  0  0  0
  6  5  1  0  0  0  0
  7  6  2  0  0  0  0
  7  8  1  0  0  0  0
  8  9  2  0  0  0  0
  9  4  1  0  0  0  0
 11  6  1  0  0  0  0
 12  8  1  0  0  0  0
 12 23  1  0  0  0  0
 13 12  2  0  0  0  0
 14 13  1  0  0  0  0
 14 15  2  0  0  0  0
 15 16  1  0  0  0  0
 16 23  2  0  0  0  0
 16 17  1  0  0  0  0
 17 18  2  0  0  0  0
 18 20  1  0  0  0  0
 18 19  1  0  0  0  0
 20 21  1  0  0  0  0
 22 20  2  0  0  0  0
 23 22  1  0  0  0  0
 24  1  1  0  0  0  0
 24 25  1  0  0  0  0
 25 26  2  0  0  0  0
 26 27  1  0  0  0  0
 27 29  1  0  0  0  0
 27 30  1  0  0  0  0
 28 27  1  0  0  0  0
 32 31  2  6  0  0  0
 32 30  1  0  0  0  0
 32 35  1  0  0  0  0
 33 34  1  0  0  0  0
 33 32  1  0  0  0  0
 35 36  1  0  0  0  0
 36 37  1  0  0  0  0
 36 38  1  0  0  0  0
 37 38  1  0  0  0  0
 37 40  1  0  0  0  0
 38 42  1  0  0  0  0
 39 36  1  0  0  0  0
 41 37  1  0  0  0  0
 43 38  1  0  0  0  0
M  END
>  <minimizedAffinity>
-5.03705025

>  <minimizedRMSD>
1.65120161

$$$$
