
 OpenBabel03252507223D

 50 54  0  0  1  0  0  0  0  0999 V2000
   44.8350   32.9140   41.8920 C   0  0  0  0  0  0  0  0  0  0  0  0
   44.9380   32.4500   43.0600 O   0  0  0  0  0  0  0  0  0  0  0  0
   45.8200   32.7350   40.8900 N   0  0  0  0  0  0  0  0  0  0  0  0
   45.6820   32.3700   39.4690 C   0  0  0  0  0  0  0  0  0  0  0  0
   46.4520   33.3600   38.6130 C   0  0  0  0  0  0  0  0  0  0  0  0
   47.9150   33.2600   38.9060 C   0  0  0  0  0  0  0  0  0  0  0  0
   48.1310   32.4790   40.1890 C   0  0  0  0  0  0  0  0  0  0  0  0
   47.1900   32.9260   41.2810 C   0  0  2  0  0  0  0  0  0  0  0  0
   44.6020   32.5590   39.2210 H   0  0  0  0  0  0  0  0  0  0  0  0
   45.9730   31.3310   39.2750 H   0  0  0  0  0  0  0  0  0  0  0  0
   46.1900   33.1340   37.5640 H   0  0  0  0  0  0  0  0  0  0  0  0
   46.1080   34.3740   38.8840 H   0  0  0  0  0  0  0  0  0  0  0  0
   48.3680   32.6300   38.0880 H   0  0  0  0  0  0  0  0  0  0  0  0
   48.4630   34.2110   38.8840 H   0  0  0  0  0  0  0  0  0  0  0  0
   49.1740   32.5590   40.4970 H   0  0  0  0  0  0  0  0  0  0  0  0
   47.9150   31.4150   39.9560 H   0  0  0  0  0  0  0  0  0  0  0  0
   47.3400   34.0310   41.3730 H   0  0  0  0  0  0  0  0  0  0  0  0
   43.7490   35.0760   41.5020 C   0  0  0  0  0  0  0  0  0  0  0  0
   43.6490   33.6690   41.5620 C   0  0  0  0  0  0  0  0  0  0  0  0
   42.4350   33.0590   41.3080 C   0  0  0  0  0  0  0  0  0  0  0  0
   41.3780   33.8380   41.0070 N   0  0  0  0  0  0  0  0  0  0  0  0
   41.4590   35.1960   40.9460 C   0  0  0  0  0  0  0  0  0  0  0  0
   42.6510   35.7890   41.1960 N   0  0  0  0  0  0  0  0  0  0  0  0
   44.7000   35.5540   41.7010 H   0  0  0  0  0  0  0  0  0  0  0  0
   40.5660   35.7610   40.6980 H   0  0  0  0  0  0  0  0  0  0  0  0
   42.3590   31.6070   41.3780 C   0  0  0  0  0  0  0  0  0  0  0  0
   42.5800   30.8560   40.2680 C   0  0  0  0  0  0  0  0  0  0  0  0
   42.5000   29.4780   40.3730 C   0  0  0  0  0  0  0  0  0  0  0  0
   42.2030   28.8330   41.5670 C   0  0  0  0  0  0  0  0  0  0  0  0
   41.9870   29.6450   42.6640 C   0  0  0  0  0  0  0  0  0  0  0  0
   42.0700   30.9770   42.5390 N   0  0  0  0  0  0  0  0  0  0  0  0
   42.8150   31.2580   39.2960 H   0  0  0  0  0  0  0  0  0  0  0  0
   42.6730   28.8580   39.5010 H   0  0  0  0  0  0  0  0  0  0  0  0
   42.1340   27.7620   41.6800 H   0  0  0  0  0  0  0  0  0  0  0  0
   41.7470   29.2790   43.6570 H   0  0  0  0  0  0  0  0  0  0  0  0
   47.5720   32.2260   42.5410 C   0  0  0  0  0  0  0  0  0  0  0  0
   46.6780   32.1550   43.1830 H   0  0  0  0  0  0  0  0  0  0  0  0
   48.3820   32.6570   43.1320 H   0  0  0  0  0  0  0  0  0  0  0  0
   47.9310   30.7700   42.2380 C   0  0  0  0  0  0  0  0  0  0  0  0
   46.9680   29.8920   41.8330 N   0  0  0  0  0  0  0  0  0  0  0  0
   47.2540   28.6150   41.5270 C   0  0  0  0  0  3  0  0  0  0  0  0
   48.5300   28.1390   41.6100 N   0  0  0  0  0  0  0  0  0  0  0  0
   49.5090   28.9860   42.0100 C   0  0  0  0  0  0  0  0  0  0  0  0
   50.7860   28.4720   42.0930 C   0  0  0  0  0  3  0  0  0  0  0  0
   51.7970   29.3170   42.5070 C   0  0  0  0  0  0  0  0  0  0  0  0
   52.8130   28.9360   42.5790 H   0  0  0  0  0  0  0  0  0  0  0  0
   51.5180   30.6290   42.8240 C   0  0  0  0  0  0  0  0  0  0  0  0
   52.3430   31.2640   43.1480 H   0  0  0  0  0  0  0  0  0  0  0  0
   50.2250   31.1600   42.7450 C   0  0  0  0  0  3  0  0  0  0  0  0
   49.2380   30.2940   42.3270 C   0  0  0  0  0  0  0  0  0  0  0  0
  1  2  2  0  0  0  0
  3  8  1  0  0  0  0
  3  1  1  0  0  0  0
  4  3  1  0  0  0  0
  5 12  1  0  0  0  0
  5  6  1  0  0  0  0
  5  4  1  0  0  0  0
  6  7  1  0  0  0  0
  7 15  1  0  0  0  0
  7  8  1  0  0  0  0
  8 17  1  1  0  0  0
  8 36  1  0  0  0  0
  9  4  1  0  0  0  0
 10  4  1  0  0  0  0
 11  5  1  0  0  0  0
 13  6  1  0  0  0  0
 14  6  1  0  0  0  0
 16  7  1  0  0  0  0
 18 19  1  0  0  0  0
 18 24  1  0  0  0  0
 19  1  1  0  0  0  0
 20 26  1  0  0  0  0
 20 19  2  0  0  0  0
 21 20  1  0  0  0  0
 22 21  2  0  0  0  0
 22 23  1  0  0  0  0
 23 18  2  0  0  0  0
 25 22  1  0  0  0  0
 26 31  1  0  0  0  0
 27 28  1  0  0  0  0
 27 26  2  0  0  0  0
 28 29  2  0  0  0  0
 29 34  1  0  0  0  0
 29 30  1  0  0  0  0
 30 35  1  0  0  0  0
 31 30  2  0  0  0  0
 32 27  1  0  0  0  0
 33 28  1  0  0  0  0
 36 38  1  0  0  0  0
 36 37  1  0  0  0  0
 39 50  1  0  0  0  0
 39 36  1  0  0  0  0
 40 39  2  0  0  0  0
 41 42  2  0  0  0  0
 41 40  1  0  0  0  0
 42 43  1  0  0  0  0
 43 44  2  0  0  0  0
 43 50  1  0  0  0  0
 44 45  1  0  0  0  0
 45 46  1  0  0  0  0
 45 47  2  0  0  0  0
 47 48  1  0  0  0  0
 49 47  1  0  0  0  0
 50 49  2  0  0  0  0
M  END
>  <minimizedAffinity>
-3.80307055

>  <minimizedRMSD>
4.63498878

$$$$
