
 OpenBabel03252504303D

 36 38  0  0  0  0  0  0  0  0999 V2000
   44.8460   35.9180   44.0120 C   0  0  0  0  0  0  0  0  0  0  0  0
   45.7710   35.9030   43.3820 H   0  0  0  0  0  0  0  0  0  0  0  0
   44.6880   36.9200   44.4470 H   0  0  0  0  0  0  0  0  0  0  0  0
   43.8250   35.5490   41.7170 C   0  0  0  0  0  3  0  0  0  0  0  0
   43.7300   35.5490   43.0520 C   0  0  0  0  0  3  0  0  0  0  0  0
   42.6910   35.1780   41.0080 O   0  0  0  0  0  0  0  0  0  0  0  0
   41.4390   35.7430   41.0970 C   0  0  0  0  0  0  0  0  0  0  0  0
   41.2840   35.9950   42.1930 H   0  0  0  0  0  0  0  0  0  0  0  0
   41.3590   36.6790   40.5440 H   0  0  0  0  0  0  0  0  0  0  0  0
   40.3890   33.6250   41.5960 C   0  0  0  0  0  0  0  0  0  0  0  0
   40.3370   34.7910   40.8040 C   0  0  0  0  0  0  0  0  0  0  0  0
   39.3190   34.8860   39.9100 C   0  0  0  0  0  0  0  0  0  0  0  0
   38.4530   33.8740   39.8520 N   0  0  0  0  0  0  0  0  0  0  0  0
   38.4990   32.7810   40.5930 C   0  0  0  0  0  0  0  0  0  0  0  0
   39.5090   32.6050   41.5330 N   0  0  0  0  0  0  0  0  0  0  0  0
   41.1720   33.4500   42.3500 H   0  0  0  0  0  0  0  0  0  0  0  0
   39.3330   35.7990   39.3340 H   0  0  0  0  0  0  0  0  0  0  0  0
   37.7610   31.9900   40.4980 H   0  0  0  0  0  0  0  0  0  0  0  0
   44.9090   34.9300   44.9630 O   0  0  0  0  0  0  0  0  0  0  0  0
   45.2250   32.5150   43.9010 O   0  0  0  0  0  0  0  0  0  0  0  0
   45.9560   33.6860   44.4840 P   0  0  1  0  0  0  0  0  0  0  0  0
   47.0520   34.2600   43.3290 O   0  0  0  0  0  0  0  0  0  0  0  0
   47.5860   35.0060   43.7130 H   0  0  0  0  0  0  0  0  0  0  0  0
   46.8690   33.1980   45.8310 O   0  0  0  0  0  0  0  0  0  0  0  0
   46.2660   32.2870   46.6970 C   0  0  0  0  0  0  0  0  0  0  0  0
   45.3290   32.6360   47.5990 N   0  0  0  0  0  0  0  0  0  0  0  0
   44.7660   31.7120   48.4260 C   0  0  0  0  0  3  0  0  0  0  0  0
   45.1660   30.4390   48.3240 N   0  0  0  0  0  0  0  0  0  0  0  0
   46.1030   30.0180   47.4410 C   0  0  0  0  0  0  0  0  0  0  0  0
   46.3970   28.6670   47.4710 C   0  0  0  0  0  3  0  0  0  0  0  0
   47.3600   28.2560   46.5580 C   0  0  0  0  0  0  0  0  0  0  0  0
   47.6040   27.2030   46.5640 H   0  0  0  0  0  0  0  0  0  0  0  0
   47.9550   29.1600   45.7020 C   0  0  0  0  0  0  0  0  0  0  0  0
   48.7020   28.8180   44.9980 H   0  0  0  0  0  0  0  0  0  0  0  0
   47.6270   30.5010   45.7100 C   0  0  0  0  0  3  0  0  0  0  0  0
   46.6650   30.9690   46.6080 C   0  0  0  0  0  0  0  0  0  0  0  0
  1  3  1  0  0  0  0
  1 19  1  0  0  0  0
  2  1  1  0  0  0  0
  4  5  2  0  0  0  0
  5  1  1  0  0  0  0
  6  7  1  0  0  0  0
  6  4  1  0  0  0  0
  7  8  1  0  0  0  0
  9  7  1  0  0  0  0
 10 16  1  0  0  0  0
 11  7  1  0  0  0  0
 11 10  2  0  0  0  0
 12 11  1  0  0  0  0
 13 12  2  0  0  0  0
 13 14  1  0  0  0  0
 14 15  2  0  0  0  0
 15 10  1  0  0  0  0
 17 12  1  0  0  0  0
 18 14  1  0  0  0  0
 21 20  2  6  0  0  0
 21 19  1  0  0  0  0
 21 24  1  0  0  0  0
 22 23  1  0  0  0  0
 22 21  1  0  0  0  0
 24 25  1  0  0  0  0
 25 26  1  0  0  0  0
 26 27  2  0  0  0  0
 28 27  1  0  0  0  0
 29 30  1  0  0  0  0
 29 28  2  0  0  0  0
 31 32  1  0  0  0  0
 31 30  2  0  0  0  0
 33 35  2  0  0  0  0
 33 31  1  0  0  0  0
 34 33  1  0  0  0  0
 35 36  1  0  0  0  0
 36 25  2  0  0  0  0
 36 29  1  0  0  0  0
M  END
>  <minimizedAffinity>
-5.40535069

>  <minimizedRMSD>
1.59718108

$$$$
