
 OpenBabel03252506353D

 36 39  0  0  1  0  0  0  0  0999 V2000
   42.6850   32.0900   37.0290 C   0  0  0  0  0  0  0  0  0  0  0  0
   43.0220   33.3790   37.4770 C   0  0  0  0  0  0  0  0  0  0  0  0
   42.1280   34.0680   38.2420 C   0  0  0  0  0  0  0  0  0  0  0  0
   40.9600   33.4380   38.5160 N   0  0  0  0  0  0  0  0  0  0  0  0
   40.6480   32.2240   38.0920 C   0  0  0  0  0  0  0  0  0  0  0  0
   41.4960   31.5100   37.3360 N   0  0  0  0  0  0  0  0  0  0  0  0
   39.3880   31.6960   38.4610 N   0  0  0  0  0  0  0  0  0  0  0  0
   39.0230   30.2760   38.3460 C   0  0  0  0  0  0  0  0  0  0  0  0
   37.5770   30.3560   37.9130 C   0  0  0  0  0  0  0  0  0  0  0  0
   37.1520   31.7880   38.0860 C   0  0  0  0  0  0  0  0  0  0  0  0
   38.2210   32.3280   38.9980 C   0  0  1  0  0  0  0  0  0  0  0  0
   43.3270   31.4470   36.4080 H   0  0  0  0  0  0  0  0  0  0  0  0
   42.4230   35.0340   38.5580 H   0  0  0  0  0  0  0  0  0  0  0  0
   39.1920   29.7160   39.2720 H   0  0  0  0  0  0  0  0  0  0  0  0
   39.5860   29.8580   37.4750 H   0  0  0  0  0  0  0  0  0  0  0  0
   36.9960   29.7670   38.6700 H   0  0  0  0  0  0  0  0  0  0  0  0
   37.4040   29.9640   36.9080 H   0  0  0  0  0  0  0  0  0  0  0  0
   36.1320   31.9220   38.4810 H   0  0  0  0  0  0  0  0  0  0  0  0
   37.3020   32.2930   37.0940 H   0  0  0  0  0  0  0  0  0  0  0  0
   38.3700   33.4230   38.8780 H   0  0  0  0  0  0  0  0  0  0  0  0
   44.3230   33.8320   37.0540 N   0  0  0  0  0  0  0  0  0  0  0  0
   45.2290   33.4300   37.4170 H   0  0  0  0  0  0  0  0  0  0  0  0
   44.2910   34.5930   36.3540 H   0  0  0  0  0  0  0  0  0  0  0  0
   37.8620   31.8480   40.6870 S   0  0  0  0  0  0  0  0  0  0  0  0
   39.1400   30.9420   41.4910 C   0  0  0  0  0  0  0  0  0  0  0  0
   40.4680   31.2430   41.6160 N   0  0  0  0  0  0  0  0  0  0  0  0
   41.2720   30.3910   42.2690 C   0  0  0  0  0  3  0  0  0  0  0  0
   40.8750   29.2320   42.8270 N   0  0  0  0  0  0  0  0  0  0  0  0
   39.5670   28.8950   42.7270 C   0  0  0  0  0  0  0  0  0  0  0  0
   39.2420   27.6940   43.3190 C   0  0  0  0  0  3  0  0  0  0  0  0
   37.9010   27.3070   43.2340 C   0  0  0  0  0  0  0  0  0  0  0  0
   37.5620   26.3800   43.6710 H   0  0  0  0  0  0  0  0  0  0  0  0
   37.0010   28.1130   42.5860 C   0  0  0  0  0  0  0  0  0  0  0  0
   35.9580   27.8310   42.5080 H   0  0  0  0  0  0  0  0  0  0  0  0
   37.4070   29.3010   42.0190 C   0  0  0  0  0  3  0  0  0  0  0  0
   38.7210   29.7550   42.0610 C   0  0  0  0  0  0  0  0  0  0  0  0
  1  6  2  0  0  0  0
  1  2  1  0  0  0  0
  2  3  2  0  0  0  0
  3  4  1  0  0  0  0
  3 13  1  0  0  0  0
  5  7  1  0  0  0  0
  5  4  2  0  0  0  0
  6  5  1  0  0  0  0
  7 11  1  0  0  0  0
  8  7  1  0  0  0  0
  8 14  1  0  0  0  0
  9 10  1  0  0  0  0
  9  8  1  0  0  0  0
  9 16  1  0  0  0  0
 10 18  1  0  0  0  0
 10 11  1  0  0  0  0
 11 20  1  6  0  0  0
 11 24  1  0  0  0  0
 12  1  1  0  0  0  0
 15  8  1  0  0  0  0
 17  9  1  0  0  0  0
 19 10  1  0  0  0  0
 21 22  1  0  0  0  0
 21  2  1  0  0  0  0
 23 21  1  0  0  0  0
 24 25  1  0  0  0  0
 25 26  2  0  0  0  0
 25 36  1  0  0  0  0
 26 27  1  0  0  0  0
 27 28  2  0  0  0  0
 29 28  1  0  0  0  0
 29 30  1  0  0  0  0
 31 30  2  0  0  0  0
 31 32  1  0  0  0  0
 33 31  1  0  0  0  0
 34 33  1  0  0  0  0
 35 36  1  0  0  0  0
 35 33  2  0  0  0  0
 36 29  2  0  0  0  0
M  END
>  <minimizedAffinity>
-6.02944565

$$$$

 OpenBabel03252506353D

 36 39  0  0  1  0  0  0  0  0999 V2000
   42.7010   31.0820   37.1640 C   0  0  0  0  0  0  0  0  0  0  0  0
   42.8560   32.4760   37.2560 C   0  0  0  0  0  0  0  0  0  0  0  0
   41.7600   33.2490   37.4970 C   0  0  0  0  0  0  0  0  0  0  0  0
   40.5800   32.5940   37.6320 N   0  0  0  0  0  0  0  0  0  0  0  0
   40.4400   31.2820   37.5450 C   0  0  0  0  0  0  0  0  0  0  0  0
   41.4910   30.4820   37.3080 N   0  0  0  0  0  0  0  0  0  0  0  0
   39.1420   30.7410   37.7100 N   0  0  0  0  0  0  0  0  0  0  0  0
   38.8670   29.3170   37.9550 C   0  0  0  0  0  0  0  0  0  0  0  0
   37.6080   29.0960   37.1490 C   0  0  0  0  0  0  0  0  0  0  0  0
   37.1110   30.4550   36.7420 C   0  0  0  0  0  0  0  0  0  0  0  0
   37.8520   31.3610   37.6880 C   0  0  1  0  0  0  0  0  0  0  0  0
   43.5140   30.3650   36.9730 H   0  0  0  0  0  0  0  0  0  0  0  0
   41.9220   34.2930   37.5590 H   0  0  0  0  0  0  0  0  0  0  0  0
   38.7760   29.0770   39.0200 H   0  0  0  0  0  0  0  0  0  0  0  0
   39.6710   28.7310   37.4440 H   0  0  0  0  0  0  0  0  0  0  0  0
   36.8490   28.6910   37.8680 H   0  0  0  0  0  0  0  0  0  0  0  0
   37.7460   28.4080   36.3110 H   0  0  0  0  0  0  0  0  0  0  0  0
   36.0170   30.5790   36.7860 H   0  0  0  0  0  0  0  0  0  0  0  0
   37.5280   30.6610   35.7190 H   0  0  0  0  0  0  0  0  0  0  0  0
   37.9990   32.3820   37.2730 H   0  0  0  0  0  0  0  0  0  0  0  0
   44.2110   32.9330   37.0760 N   0  0  0  0  0  0  0  0  0  0  0  0
   44.9830   32.7650   37.7760 H   0  0  0  0  0  0  0  0  0  0  0  0
   44.3620   33.4460   36.1910 H   0  0  0  0  0  0  0  0  0  0  0  0
   37.0320   31.3600   39.2810 S   0  0  0  0  0  0  0  0  0  0  0  0
   38.0880   31.0830   40.6630 C   0  0  0  0  0  0  0  0  0  0  0  0
   39.1910   31.7850   41.0630 N   0  0  0  0  0  0  0  0  0  0  0  0
   39.8600   31.3830   42.1540 C   0  0  0  0  0  3  0  0  0  0  0  0
   39.5310   30.3180   42.9100 N   0  0  0  0  0  0  0  0  0  0  0  0
   38.4440   29.5950   42.5490 C   0  0  0  0  0  0  0  0  0  0  0  0
   38.1770   28.5210   43.3700 C   0  0  0  0  0  3  0  0  0  0  0  0
   37.0650   27.7450   43.0280 C   0  0  0  0  0  0  0  0  0  0  0  0
   36.7870   26.8860   43.6180 H   0  0  0  0  0  0  0  0  0  0  0  0
   36.3170   28.0770   41.9290 C   0  0  0  0  0  0  0  0  0  0  0  0
   35.4520   27.4880   41.6470 H   0  0  0  0  0  0  0  0  0  0  0  0
   36.6510   29.1680   41.1580 C   0  0  0  0  0  3  0  0  0  0  0  0
   37.7410   29.9890   41.4320 C   0  0  0  0  0  0  0  0  0  0  0  0
  1  2  2  0  0  0  0
  1  6  1  0  0  0  0
  2  3  1  0  0  0  0
  3 13  1  0  0  0  0
  3  4  2  0  0  0  0
  5  4  1  0  0  0  0
  5  7  1  0  0  0  0
  6  5  2  0  0  0  0
  7  8  1  0  0  0  0
  8 14  1  0  0  0  0
  9 16  1  0  0  0  0
  9  8  1  0  0  0  0
 10 18  1  0  0  0  0
 10  9  1  0  0  0  0
 10 11  1  0  0  0  0
 11 20  1  6  0  0  0
 11  7  1  0  0  0  0
 11 24  1  0  0  0  0
 12  1  1  0  0  0  0
 15  8  1  0  0  0  0
 17  9  1  0  0  0  0
 19 10  1  0  0  0  0
 21  2  1  0  0  0  0
 21 22  1  0  0  0  0
 23 21  1  0  0  0  0
 24 25  1  0  0  0  0
 25 26  2  0  0  0  0
 25 36  1  0  0  0  0
 26 27  1  0  0  0  0
 27 28  2  0  0  0  0
 29 28  1  0  0  0  0
 29 30  1  0  0  0  0
 31 30  2  0  0  0  0
 31 32  1  0  0  0  0
 33 31  1  0  0  0  0
 34 33  1  0  0  0  0
 35 36  1  0  0  0  0
 35 33  2  0  0  0  0
 36 29  2  0  0  0  0
M  END
>  <minimizedAffinity>
-6.02637672

$$$$

 OpenBabel03252506353D

 36 39  0  0  1  0  0  0  0  0999 V2000
   40.6540   32.2060   39.6880 C   0  0  0  0  0  0  0  0  0  0  0  0
   40.1430   33.1570   40.5870 C   0  0  0  0  0  0  0  0  0  0  0  0
   38.8320   33.0820   40.9540 C   0  0  0  0  0  0  0  0  0  0  0  0
   38.1110   32.0720   40.4090 N   0  0  0  0  0  0  0  0  0  0  0  0
   38.5980   31.1790   39.5620 C   0  0  0  0  0  0  0  0  0  0  0  0
   39.8810   31.2140   39.1720 N   0  0  0  0  0  0  0  0  0  0  0  0
   37.7220   30.1790   39.0760 N   0  0  0  0  0  0  0  0  0  0  0  0
   38.1660   28.9530   38.3970 C   0  0  0  0  0  0  0  0  0  0  0  0
   37.1040   28.7780   37.3350 C   0  0  0  0  0  0  0  0  0  0  0  0
   35.9990   29.7430   37.6660 C   0  0  0  0  0  0  0  0  0  0  0  0
   36.2930   30.0830   39.1030 C   0  0  1  0  0  0  0  0  0  0  0  0
   41.6920   32.1710   39.3240 H   0  0  0  0  0  0  0  0  0  0  0  0
   38.4890   33.8170   41.6340 H   0  0  0  0  0  0  0  0  0  0  0  0
   38.2740   28.1030   39.0780 H   0  0  0  0  0  0  0  0  0  0  0  0
   39.1120   29.1990   37.8530 H   0  0  0  0  0  0  0  0  0  0  0  0
   36.6770   27.7530   37.4920 H   0  0  0  0  0  0  0  0  0  0  0  0
   37.4880   28.8820   36.3170 H   0  0  0  0  0  0  0  0  0  0  0  0
   34.9810   29.3500   37.5100 H   0  0  0  0  0  0  0  0  0  0  0  0
   36.1970   30.6780   37.0760 H   0  0  0  0  0  0  0  0  0  0  0  0
   35.9130   31.0870   39.3890 H   0  0  0  0  0  0  0  0  0  0  0  0
   41.1070   34.1330   41.0280 N   0  0  0  0  0  0  0  0  0  0  0  0
   41.9160   33.9090   41.6690 H   0  0  0  0  0  0  0  0  0  0  0  0
   40.9360   35.0830   40.6570 H   0  0  0  0  0  0  0  0  0  0  0  0
   35.6870   28.7710   40.1620 S   0  0  0  0  0  0  0  0  0  0  0  0
   36.7360   28.3600   41.5160 C   0  0  0  0  0  0  0  0  0  0  0  0
   37.1820   29.1520   42.5370 N   0  0  0  0  0  0  0  0  0  0  0  0
   37.9950   28.6260   43.4650 C   0  0  0  0  0  3  0  0  0  0  0  0
   38.4220   27.3490   43.4780 N   0  0  0  0  0  0  0  0  0  0  0  0
   38.0040   26.5290   42.4850 C   0  0  0  0  0  0  0  0  0  0  0  0
   38.4880   25.2420   42.5680 C   0  0  0  0  0  3  0  0  0  0  0  0
   38.0830   24.3640   41.5570 C   0  0  0  0  0  0  0  0  0  0  0  0
   38.4170   23.3380   41.5470 H   0  0  0  0  0  0  0  0  0  0  0  0
   37.2510   24.8100   40.5630 C   0  0  0  0  0  0  0  0  0  0  0  0
   36.9260   24.1460   39.7700 H   0  0  0  0  0  0  0  0  0  0  0  0
   36.8100   26.1150   40.5510 C   0  0  0  0  0  3  0  0  0  0  0  0
   37.1680   27.0480   41.5200 C   0  0  0  0  0  0  0  0  0  0  0  0
  1  2  1  0  0  0  0
  2  3  2  0  0  0  0
  2 21  1  0  0  0  0
  3 13  1  0  0  0  0
  4  3  1  0  0  0  0
  5  4  2  0  0  0  0
  6  5  1  0  0  0  0
  6  1  2  0  0  0  0
  7 11  1  0  0  0  0
  7  5  1  0  0  0  0
  8  7  1  0  0  0  0
  8 14  1  0  0  0  0
  9 16  1  0  0  0  0
  9 10  1  0  0  0  0
  9  8  1  0  0  0  0
 10 11  1  0  0  0  0
 11 20  1  1  0  0  0
 11 24  1  0  0  0  0
 12  1  1  0  0  0  0
 15  8  1  0  0  0  0
 17  9  1  0  0  0  0
 18 10  1  0  0  0  0
 19 10  1  0  0  0  0
 21 22  1  0  0  0  0
 23 21  1  0  0  0  0
 24 25  1  0  0  0  0
 25 36  2  0  0  0  0
 25 26  1  0  0  0  0
 26 27  2  0  0  0  0
 27 28  1  0  0  0  0
 29 30  1  0  0  0  0
 29 28  2  0  0  0  0
 31 30  2  0  0  0  0
 32 31  1  0  0  0  0
 33 31  1  0  0  0  0
 34 33  1  0  0  0  0
 35 33  2  0  0  0  0
 35 36  1  0  0  0  0
 36 29  1  0  0  0  0
M  END
>  <minimizedAffinity>
-5.96198654

$$$$

 OpenBabel03252506353D

 36 39  0  0  1  0  0  0  0  0999 V2000
   37.2210   30.0470   36.8030 C   0  0  0  0  0  0  0  0  0  0  0  0
   38.0460   28.9320   36.5750 C   0  0  0  0  0  0  0  0  0  0  0  0
   39.0840   28.6940   37.4260 C   0  0  0  0  0  0  0  0  0  0  0  0
   39.2410   29.5730   38.4460 N   0  0  0  0  0  0  0  0  0  0  0  0
   38.4610   30.6210   38.6550 C   0  0  0  0  0  0  0  0  0  0  0  0
   37.4280   30.8950   37.8440 N   0  0  0  0  0  0  0  0  0  0  0  0
   38.7480   31.4500   39.7660 N   0  0  0  0  0  0  0  0  0  0  0  0
   37.8150   32.4470   40.3140 C   0  0  0  0  0  0  0  0  0  0  0  0
   38.7460   33.5770   40.6880 C   0  0  0  0  0  0  0  0  0  0  0  0
   40.1460   33.0360   40.5890 C   0  0  0  0  0  0  0  0  0  0  0  0
   39.9120   31.5490   40.5930 C   0  0  1  0  0  0  0  0  0  0  0  0
   36.3580   30.3350   36.1820 H   0  0  0  0  0  0  0  0  0  0  0  0
   39.6790   27.8430   37.2180 H   0  0  0  0  0  0  0  0  0  0  0  0
   37.2130   32.0570   41.1410 H   0  0  0  0  0  0  0  0  0  0  0  0
   37.1950   32.8230   39.4630 H   0  0  0  0  0  0  0  0  0  0  0  0
   38.5680   33.7760   41.7770 H   0  0  0  0  0  0  0  0  0  0  0  0
   38.5830   34.4850   40.1020 H   0  0  0  0  0  0  0  0  0  0  0  0
   40.8290   33.3730   41.3850 H   0  0  0  0  0  0  0  0  0  0  0  0
   40.5200   33.2920   39.5610 H   0  0  0  0  0  0  0  0  0  0  0  0
   40.7190   30.9900   40.0720 H   0  0  0  0  0  0  0  0  0  0  0  0
   37.6760   28.1470   35.4250 N   0  0  0  0  0  0  0  0  0  0  0  0
   36.8030   27.5560   35.3750 H   0  0  0  0  0  0  0  0  0  0  0  0
   38.3480   28.2150   34.6420 H   0  0  0  0  0  0  0  0  0  0  0  0
   39.6430   30.9920   42.2740 S   0  0  0  0  0  0  0  0  0  0  0  0
   38.7070   29.5080   42.4270 C   0  0  0  0  0  0  0  0  0  0  0  0
   37.3740   29.2990   42.2120 N   0  0  0  0  0  0  0  0  0  0  0  0
   36.8650   28.0730   42.4040 C   0  0  0  0  0  3  0  0  0  0  0  0
   37.5740   26.9990   42.8010 N   0  0  0  0  0  0  0  0  0  0  0  0
   38.9000   27.1610   43.0250 C   0  0  0  0  0  0  0  0  0  0  0  0
   39.5520   26.0180   43.4320 C   0  0  0  0  0  3  0  0  0  0  0  0
   40.9220   26.1450   43.6790 C   0  0  0  0  0  0  0  0  0  0  0  0
   41.5080   25.2980   44.0020 H   0  0  0  0  0  0  0  0  0  0  0  0
   41.5340   27.3600   43.5110 C   0  0  0  0  0  0  0  0  0  0  0  0
   42.5950   27.4790   43.6980 H   0  0  0  0  0  0  0  0  0  0  0  0
   40.8100   28.4570   43.1000 C   0  0  0  0  0  3  0  0  0  0  0  0
   39.4450   28.4120   42.8350 C   0  0  0  0  0  0  0  0  0  0  0  0
  1  6  1  0  0  0  0
  2  1  2  0  0  0  0
  2  3  1  0  0  0  0
  3  4  2  0  0  0  0
  4  5  1  0  0  0  0
  5  7  1  0  0  0  0
  6  5  2  0  0  0  0
  7  8  1  0  0  0  0
  7 11  1  0  0  0  0
  8  9  1  0  0  0  0
  8 14  1  0  0  0  0
  9 16  1  0  0  0  0
 10 11  1  0  0  0  0
 10  9  1  0  0  0  0
 10 18  1  0  0  0  0
 11 20  1  6  0  0  0
 11 24  1  0  0  0  0
 12  1  1  0  0  0  0
 13  3  1  0  0  0  0
 15  8  1  0  0  0  0
 17  9  1  0  0  0  0
 19 10  1  0  0  0  0
 21  2  1  0  0  0  0
 22 21  1  0  0  0  0
 23 21  1  0  0  0  0
 24 25  1  0  0  0  0
 25 36  1  0  0  0  0
 26 27  1  0  0  0  0
 26 25  2  0  0  0  0
 27 28  2  0  0  0  0
 28 29  1  0  0  0  0
 29 30  1  0  0  0  0
 30 31  2  0  0  0  0
 31 32  1  0  0  0  0
 33 31  1  0  0  0  0
 33 34  1  0  0  0  0
 35 33  2  0  0  0  0
 36 29  2  0  0  0  0
 36 35  1  0  0  0  0
M  END
>  <minimizedAffinity>
-5.92281675

$$$$

 OpenBabel03252506353D

 36 39  0  0  1  0  0  0  0  0999 V2000
   40.4320   32.6000   39.1330 C   0  0  0  0  0  0  0  0  0  0  0  0
   40.0980   31.6830   38.1230 C   0  0  0  0  0  0  0  0  0  0  0  0
   40.3020   30.3530   38.3430 C   0  0  0  0  0  0  0  0  0  0  0  0
   40.8220   30.0160   39.5490 N   0  0  0  0  0  0  0  0  0  0  0  0
   41.1350   30.8840   40.4970 C   0  0  0  0  0  0  0  0  0  0  0  0
   40.9520   32.2020   40.3230 N   0  0  0  0  0  0  0  0  0  0  0  0
   41.6700   30.3810   41.7070 N   0  0  0  0  0  0  0  0  0  0  0  0
   41.7700   31.1590   42.9510 C   0  0  0  0  0  0  0  0  0  0  0  0
   43.0940   30.6920   43.5100 C   0  0  0  0  0  0  0  0  0  0  0  0
   43.5060   29.4940   42.7000 C   0  0  0  0  0  0  0  0  0  0  0  0
   42.2140   29.0980   42.0360 C   0  0  1  0  0  0  0  0  0  0  0  0
   40.3110   33.6920   39.0640 H   0  0  0  0  0  0  0  0  0  0  0  0
   40.0360   29.6980   37.5560 H   0  0  0  0  0  0  0  0  0  0  0  0
   40.9140   31.0100   43.6170 H   0  0  0  0  0  0  0  0  0  0  0  0
   41.9150   32.2300   42.6620 H   0  0  0  0  0  0  0  0  0  0  0  0
   42.8740   30.3070   44.5400 H   0  0  0  0  0  0  0  0  0  0  0  0
   43.8510   31.4790   43.5480 H   0  0  0  0  0  0  0  0  0  0  0  0
   43.9650   28.6780   43.2820 H   0  0  0  0  0  0  0  0  0  0  0  0
   44.1770   29.8710   41.8810 H   0  0  0  0  0  0  0  0  0  0  0  0
   42.3750   28.5670   41.0740 H   0  0  0  0  0  0  0  0  0  0  0  0
   39.5600   32.2860   36.9300 N   0  0  0  0  0  0  0  0  0  0  0  0
   38.6080   32.7400   36.8820 H   0  0  0  0  0  0  0  0  0  0  0  0
   40.1960   32.2360   36.1150 H   0  0  0  0  0  0  0  0  0  0  0  0
   41.2080   28.1720   43.1930 S   0  0  0  0  0  0  0  0  0  0  0  0
   39.4780   28.1980   42.8640 C   0  0  0  0  0  0  0  0  0  0  0  0
   38.6230   29.2630   42.8140 N   0  0  0  0  0  0  0  0  0  0  0  0
   37.3240   29.0460   42.5550 C   0  0  0  0  0  3  0  0  0  0  0  0
   36.7750   27.8370   42.3340 N   0  0  0  0  0  0  0  0  0  0  0  0
   37.5870   26.7540   42.3740 C   0  0  0  0  0  0  0  0  0  0  0  0
   36.9490   25.5550   42.1420 C   0  0  0  0  0  3  0  0  0  0  0  0
   37.7530   24.4110   42.1800 C   0  0  0  0  0  0  0  0  0  0  0  0
   37.3320   23.4320   42.0100 H   0  0  0  0  0  0  0  0  0  0  0  0
   39.0940   24.5310   42.4370 C   0  0  0  0  0  0  0  0  0  0  0  0
   39.7330   23.6570   42.4710 H   0  0  0  0  0  0  0  0  0  0  0  0
   39.6570   25.7690   42.6590 C   0  0  0  0  0  3  0  0  0  0  0  0
   38.9250   26.9520   42.6380 C   0  0  0  0  0  0  0  0  0  0  0  0
  1  6  1  0  0  0  0
  2  3  1  0  0  0  0
  2  1  2  0  0  0  0
  3  4  2  0  0  0  0
  4  5  1  0  0  0  0
  5  7  1  0  0  0  0
  6  5  2  0  0  0  0
  7 11  1  0  0  0  0
  7  8  1  0  0  0  0
  8  9  1  0  0  0  0
  8 14  1  0  0  0  0
  9 17  1  0  0  0  0
  9 16  1  0  0  0  0
 10 18  1  0  0  0  0
 10  9  1  0  0  0  0
 11 20  1  6  0  0  0
 11 10  1  0  0  0  0
 11 24  1  0  0  0  0
 12  1  1  0  0  0  0
 13  3  1  0  0  0  0
 15  8  1  0  0  0  0
 19 10  1  0  0  0  0
 21  2  1  0  0  0  0
 22 21  1  0  0  0  0
 23 21  1  0  0  0  0
 25 24  1  0  0  0  0
 26 25  1  0  0  0  0
 27 26  2  0  0  0  0
 28 29  2  0  0  0  0
 28 27  1  0  0  0  0
 29 36  1  0  0  0  0
 30 31  2  0  0  0  0
 30 29  1  0  0  0  0
 31 33  1  0  0  0  0
 32 31  1  0  0  0  0
 33 34  1  0  0  0  0
 33 35  2  0  0  0  0
 36 35  1  0  0  0  0
 36 25  2  0  0  0  0
M  END
>  <minimizedAffinity>
-5.86205959

$$$$

 OpenBabel03252506353D

 36 39  0  0  1  0  0  0  0  0999 V2000
   36.9360   29.5950   36.6190 C   0  0  0  0  0  0  0  0  0  0  0  0
   37.8780   28.5570   36.5190 C   0  0  0  0  0  0  0  0  0  0  0  0
   38.9540   28.5570   37.3560 C   0  0  0  0  0  0  0  0  0  0  0  0
   39.0310   29.5840   38.2380 N   0  0  0  0  0  0  0  0  0  0  0  0
   38.1410   30.5590   38.3270 C   0  0  0  0  0  0  0  0  0  0  0  0
   37.0670   30.6000   37.5240 N   0  0  0  0  0  0  0  0  0  0  0  0
   38.3540   31.5650   39.3000 N   0  0  0  0  0  0  0  0  0  0  0  0
   37.3260   32.5200   39.7380 C   0  0  0  0  0  0  0  0  0  0  0  0
   38.1290   33.7880   39.9170 C   0  0  0  0  0  0  0  0  0  0  0  0
   39.5790   33.3950   39.8430 C   0  0  0  0  0  0  0  0  0  0  0  0
   39.5170   31.9070   40.0630 C   0  0  1  0  0  0  0  0  0  0  0  0
   36.0340   29.6940   35.9970 H   0  0  0  0  0  0  0  0  0  0  0  0
   39.6370   27.7560   37.2470 H   0  0  0  0  0  0  0  0  0  0  0  0
   36.7890   32.1890   40.6330 H   0  0  0  0  0  0  0  0  0  0  0  0
   36.6490   32.7010   38.8670 H   0  0  0  0  0  0  0  0  0  0  0  0
   37.9520   34.1180   40.9740 H   0  0  0  0  0  0  0  0  0  0  0  0
   37.8510   34.5790   39.2170 H   0  0  0  0  0  0  0  0  0  0  0  0
   40.2350   33.9160   40.5590 H   0  0  0  0  0  0  0  0  0  0  0  0
   39.9010   33.5420   38.7770 H   0  0  0  0  0  0  0  0  0  0  0  0
   40.3710   31.3720   39.5950 H   0  0  0  0  0  0  0  0  0  0  0  0
   37.5760   27.5800   35.5030 N   0  0  0  0  0  0  0  0  0  0  0  0
   36.7750   26.8950   35.5680 H   0  0  0  0  0  0  0  0  0  0  0  0
   38.2210   27.6090   34.6950 H   0  0  0  0  0  0  0  0  0  0  0  0
   39.3470   31.5690   41.8140 S   0  0  0  0  0  0  0  0  0  0  0  0
   39.9880   30.0150   42.3390 C   0  0  0  0  0  0  0  0  0  0  0  0
   41.2800   29.6570   42.6050 N   0  0  0  0  0  0  0  0  0  0  0  0
   41.5440   28.3980   42.9840 C   0  0  0  0  0  3  0  0  0  0  0  0
   40.6220   27.4280   43.1290 N   0  0  0  0  0  0  0  0  0  0  0  0
   39.3280   27.7400   42.8750 C   0  0  0  0  0  0  0  0  0  0  0  0
   38.4470   26.6940   43.0420 C   0  0  0  0  0  3  0  0  0  0  0  0
   37.1010   26.9730   42.7850 C   0  0  0  0  0  0  0  0  0  0  0  0
   36.3470   26.2090   42.8910 H   0  0  0  0  0  0  0  0  0  0  0  0
   36.7320   28.2340   42.3920 C   0  0  0  0  0  0  0  0  0  0  0  0
   35.6950   28.4700   42.1870 H   0  0  0  0  0  0  0  0  0  0  0  0
   37.6760   29.2270   42.2480 C   0  0  0  0  0  3  0  0  0  0  0  0
   39.0320   29.0280   42.4840 C   0  0  0  0  0  0  0  0  0  0  0  0
  1  6  1  0  0  0  0
  2  1  2  0  0  0  0
  2  3  1  0  0  0  0
  3  4  2  0  0  0  0
  4  5  1  0  0  0  0
  5  7  1  0  0  0  0
  6  5  2  0  0  0  0
  7  8  1  0  0  0  0
  7 11  1  0  0  0  0
  8  9  1  0  0  0  0
  8 14  1  0  0  0  0
  9 16  1  0  0  0  0
 10  9  1  0  0  0  0
 10 11  1  0  0  0  0
 10 18  1  0  0  0  0
 11 20  1  6  0  0  0
 11 24  1  0  0  0  0
 12  1  1  0  0  0  0
 13  3  1  0  0  0  0
 15  8  1  0  0  0  0
 17  9  1  0  0  0  0
 19 10  1  0  0  0  0
 21 22  1  0  0  0  0
 21  2  1  0  0  0  0
 23 21  1  0  0  0  0
 24 25  1  0  0  0  0
 25 36  2  0  0  0  0
 25 26  1  0  0  0  0
 26 27  2  0  0  0  0
 27 28  1  0  0  0  0
 29 30  1  0  0  0  0
 29 28  2  0  0  0  0
 31 32  1  0  0  0  0
 31 30  2  0  0  0  0
 33 31  1  0  0  0  0
 34 33  1  0  0  0  0
 35 33  2  0  0  0  0
 35 36  1  0  0  0  0
 36 29  1  0  0  0  0
M  END
>  <minimizedAffinity>
-5.74043512

$$$$

 OpenBabel03252506353D

 36 39  0  0  1  0  0  0  0  0999 V2000
   40.7550   30.1610   37.7060 C   0  0  0  0  0  0  0  0  0  0  0  0
   41.7820   30.7710   38.4450 C   0  0  0  0  0  0  0  0  0  0  0  0
   41.5620   31.0760   39.7560 C   0  0  0  0  0  0  0  0  0  0  0  0
   40.3400   30.7580   40.2510 N   0  0  0  0  0  0  0  0  0  0  0  0
   39.3770   30.1830   39.5490 C   0  0  0  0  0  0  0  0  0  0  0  0
   39.5490   29.8660   38.2570 N   0  0  0  0  0  0  0  0  0  0  0  0
   38.1520   29.9090   40.2040 N   0  0  0  0  0  0  0  0  0  0  0  0
   37.1170   29.0080   39.6750 C   0  0  0  0  0  0  0  0  0  0  0  0
   35.8450   29.7230   40.0690 C   0  0  0  0  0  0  0  0  0  0  0  0
   36.2410   30.8150   41.0260 C   0  0  0  0  0  0  0  0  0  0  0  0
   37.6210   30.3830   41.4460 C   0  0  1  0  0  0  0  0  0  0  0  0
   40.8220   29.8730   36.6450 H   0  0  0  0  0  0  0  0  0  0  0  0
   42.3620   31.5340   40.2750 H   0  0  0  0  0  0  0  0  0  0  0  0
   37.2050   27.9870   40.0580 H   0  0  0  0  0  0  0  0  0  0  0  0
   37.1710   29.0610   38.5590 H   0  0  0  0  0  0  0  0  0  0  0  0
   35.2510   28.9860   40.6700 H   0  0  0  0  0  0  0  0  0  0  0  0
   35.2640   30.0770   39.2140 H   0  0  0  0  0  0  0  0  0  0  0  0
   35.5520   30.9590   41.8730 H   0  0  0  0  0  0  0  0  0  0  0  0
   36.3770   31.7480   40.4150 H   0  0  0  0  0  0  0  0  0  0  0  0
   38.2580   31.2390   41.7570 H   0  0  0  0  0  0  0  0  0  0  0  0
   42.9900   31.0090   37.6970 N   0  0  0  0  0  0  0  0  0  0  0  0
   43.6350   30.2410   37.3670 H   0  0  0  0  0  0  0  0  0  0  0  0
   43.1710   32.0090   37.5070 H   0  0  0  0  0  0  0  0  0  0  0  0
   37.4910   29.1090   42.6990 S   0  0  0  0  0  0  0  0  0  0  0  0
   38.8600   28.0040   42.7830 C   0  0  0  0  0  0  0  0  0  0  0  0
   40.1730   28.2710   43.0540 N   0  0  0  0  0  0  0  0  0  0  0  0
   41.0580   27.2630   43.0520 C   0  0  0  0  0  3  0  0  0  0  0  0
   40.7580   25.9750   42.8010 N   0  0  0  0  0  0  0  0  0  0  0  0
   39.4670   25.6660   42.5280 C   0  0  0  0  0  0  0  0  0  0  0  0
   39.2430   24.3300   42.2780 C   0  0  0  0  0  3  0  0  0  0  0  0
   37.9230   23.9700   41.9870 C   0  0  0  0  0  0  0  0  0  0  0  0
   37.6620   22.9440   41.7790 H   0  0  0  0  0  0  0  0  0  0  0  0
   36.9460   24.9300   41.9650 C   0  0  0  0  0  0  0  0  0  0  0  0
   35.9180   24.6720   41.7410 H   0  0  0  0  0  0  0  0  0  0  0  0
   37.2530   26.2470   42.2270 C   0  0  0  0  0  3  0  0  0  0  0  0
   38.5400   26.6840   42.5240 C   0  0  0  0  0  0  0  0  0  0  0  0
  1  6  2  0  0  0  0
  1  2  1  0  0  0  0
  2  3  2  0  0  0  0
  3  4  1  0  0  0  0
  3 13  1  0  0  0  0
  5  7  1  0  0  0  0
  5  4  2  0  0  0  0
  6  5  1  0  0  0  0
  7 11  1  0  0  0  0
  8 14  1  0  0  0  0
  8  9  1  0  0  0  0
  8  7  1  0  0  0  0
  9 16  1  0  0  0  0
  9 10  1  0  0  0  0
 10 11  1  0  0  0  0
 10 18  1  0  0  0  0
 11 20  1  1  0  0  0
 11 24  1  0  0  0  0
 12  1  1  0  0  0  0
 15  8  1  0  0  0  0
 17  9  1  0  0  0  0
 19 10  1  0  0  0  0
 21  2  1  0  0  0  0
 22 21  1  0  0  0  0
 23 21  1  0  0  0  0
 24 25  1  0  0  0  0
 25 26  1  0  0  0  0
 27 26  2  0  0  0  0
 28 27  1  0  0  0  0
 29 28  2  0  0  0  0
 30 29  1  0  0  0  0
 31 30  2  0  0  0  0
 32 31  1  0  0  0  0
 33 31  1  0  0  0  0
 33 35  2  0  0  0  0
 34 33  1  0  0  0  0
 35 36  1  0  0  0  0
 36 29  1  0  0  0  0
 36 25  2  0  0  0  0
M  END
>  <minimizedAffinity>
-5.59926367

$$$$

 OpenBabel03252506353D

 36 39  0  0  1  0  0  0  0  0999 V2000
   38.5910   24.0440   39.7520 C   0  0  0  0  0  0  0  0  0  0  0  0
   37.4330   23.8650   38.9750 C   0  0  0  0  0  0  0  0  0  0  0  0
   36.3980   24.7400   39.1200 C   0  0  0  0  0  0  0  0  0  0  0  0
   36.5730   25.7350   40.0240 N   0  0  0  0  0  0  0  0  0  0  0  0
   37.6650   25.8980   40.7530 C   0  0  0  0  0  0  0  0  0  0  0  0
   38.7090   25.0610   40.6440 N   0  0  0  0  0  0  0  0  0  0  0  0
   37.7040   26.9870   41.6560 N   0  0  0  0  0  0  0  0  0  0  0  0
   38.9310   27.4880   42.2930 C   0  0  0  0  0  0  0  0  0  0  0  0
   38.4450   27.8430   43.6800 C   0  0  0  0  0  0  0  0  0  0  0  0
   36.9430   27.7840   43.6390 C   0  0  0  0  0  0  0  0  0  0  0  0
   36.6630   27.8310   42.1610 C   0  0  1  0  0  0  0  0  0  0  0  0
   39.4830   23.4000   39.7180 H   0  0  0  0  0  0  0  0  0  0  0  0
   35.5470   24.5690   38.5150 H   0  0  0  0  0  0  0  0  0  0  0  0
   39.3890   28.3170   41.7440 H   0  0  0  0  0  0  0  0  0  0  0  0
   39.6190   26.6150   42.4190 H   0  0  0  0  0  0  0  0  0  0  0  0
   38.7090   28.9220   43.8320 H   0  0  0  0  0  0  0  0  0  0  0  0
   38.8880   27.2260   44.4650 H   0  0  0  0  0  0  0  0  0  0  0  0
   36.4340   28.5820   44.2050 H   0  0  0  0  0  0  0  0  0  0  0  0
   36.6480   26.7550   43.9820 H   0  0  0  0  0  0  0  0  0  0  0  0
   35.7010   27.3410   41.8940 H   0  0  0  0  0  0  0  0  0  0  0  0
   37.4870   22.7330   38.0840 N   0  0  0  0  0  0  0  0  0  0  0  0
   38.1090   22.6870   37.2330 H   0  0  0  0  0  0  0  0  0  0  0  0
   36.8560   21.9610   38.3560 H   0  0  0  0  0  0  0  0  0  0  0  0
   36.7740   29.5240   41.5850 S   0  0  0  0  0  0  0  0  0  0  0  0
   37.2600   29.7090   39.9020 C   0  0  0  0  0  0  0  0  0  0  0  0
   38.4680   30.0850   39.3870 N   0  0  0  0  0  0  0  0  0  0  0  0
   38.6120   30.1730   38.0560 C   0  0  0  0  0  3  0  0  0  0  0  0
   37.6420   29.9150   37.1580 N   0  0  0  0  0  0  0  0  0  0  0  0
   36.4280   29.5380   37.6270 C   0  0  0  0  0  0  0  0  0  0  0  0
   35.4910   29.2960   36.6470 C   0  0  0  0  0  3  0  0  0  0  0  0
   34.2220   28.9090   37.0890 C   0  0  0  0  0  0  0  0  0  0  0  0
   33.4290   28.7010   36.3870 H   0  0  0  0  0  0  0  0  0  0  0  0
   33.9770   28.7910   38.4330 C   0  0  0  0  0  0  0  0  0  0  0  0
   33.0010   28.4930   38.7960 H   0  0  0  0  0  0  0  0  0  0  0  0
   34.9710   29.0510   39.3510 C   0  0  0  0  0  3  0  0  0  0  0  0
   36.2570   29.4410   38.9900 C   0  0  0  0  0  0  0  0  0  0  0  0
  1  6  1  0  0  0  0
  2  3  1  0  0  0  0
  2  1  2  0  0  0  0
  3  4  2  0  0  0  0
  4  5  1  0  0  0  0
  5  7  1  0  0  0  0
  6  5  2  0  0  0  0
  7 11  1  0  0  0  0
  7  8  1  0  0  0  0
  8 15  1  0  0  0  0
  8  9  1  0  0  0  0
  9 16  1  0  0  0  0
  9 17  1  0  0  0  0
 10  9  1  0  0  0  0
 10 19  1  0  0  0  0
 10 18  1  0  0  0  0
 11 20  1  6  0  0  0
 11 10  1  0  0  0  0
 12  1  1  0  0  0  0
 13  3  1  0  0  0  0
 14  8  1  0  0  0  0
 21 23  1  0  0  0  0
 21  2  1  0  0  0  0
 22 21  1  0  0  0  0
 24 11  1  0  0  0  0
 25 24  1  0  0  0  0
 26 25  1  0  0  0  0
 27 26  2  0  0  0  0
 28 29  2  0  0  0  0
 28 27  1  0  0  0  0
 29 36  1  0  0  0  0
 30 31  2  0  0  0  0
 30 29  1  0  0  0  0
 31 33  1  0  0  0  0
 32 31  1  0  0  0  0
 33 34  1  0  0  0  0
 33 35  2  0  0  0  0
 36 35  1  0  0  0  0
 36 25  2  0  0  0  0
M  END
>  <minimizedAffinity>
-5.53257227

$$$$

 OpenBabel03252506353D

 36 39  0  0  1  0  0  0  0  0999 V2000
   38.6850   26.7390   36.9910 C   0  0  0  0  0  0  0  0  0  0  0  0
   37.7630   27.7620   36.7130 C   0  0  0  0  0  0  0  0  0  0  0  0
   36.9540   28.2130   37.7140 C   0  0  0  0  0  0  0  0  0  0  0  0
   37.1100   27.6240   38.9250 N   0  0  0  0  0  0  0  0  0  0  0  0
   37.9800   26.6610   39.1810 C   0  0  0  0  0  0  0  0  0  0  0  0
   38.7950   26.1850   38.2270 N   0  0  0  0  0  0  0  0  0  0  0  0
   38.0290   26.1420   40.4970 N   0  0  0  0  0  0  0  0  0  0  0  0
   39.1280   25.3150   41.0180 C   0  0  0  0  0  0  0  0  0  0  0  0
   38.3900   24.3210   41.8850 C   0  0  0  0  0  0  0  0  0  0  0  0
   36.9790   24.8240   42.0150 C   0  0  0  0  0  0  0  0  0  0  0  0
   37.1140   26.2620   41.5920 C   0  0  1  0  0  0  0  0  0  0  0  0
   39.3830   26.3000   36.2620 H   0  0  0  0  0  0  0  0  0  0  0  0
   36.2760   28.9850   37.4620 H   0  0  0  0  0  0  0  0  0  0  0  0
   39.8900   25.9000   41.5420 H   0  0  0  0  0  0  0  0  0  0  0  0
   39.5400   24.7320   40.1570 H   0  0  0  0  0  0  0  0  0  0  0  0
   38.8440   24.4060   42.9060 H   0  0  0  0  0  0  0  0  0  0  0  0
   38.4580   23.2930   41.5190 H   0  0  0  0  0  0  0  0  0  0  0  0
   36.5360   24.7030   43.0170 H   0  0  0  0  0  0  0  0  0  0  0  0
   36.3770   24.3160   41.2130 H   0  0  0  0  0  0  0  0  0  0  0  0
   36.1700   26.6730   41.1730 H   0  0  0  0  0  0  0  0  0  0  0  0
   37.7870   28.2270   35.3490 N   0  0  0  0  0  0  0  0  0  0  0  0
   38.5830   28.7830   34.9340 H   0  0  0  0  0  0  0  0  0  0  0  0
   36.9470   27.9640   34.8060 H   0  0  0  0  0  0  0  0  0  0  0  0
   37.7570   27.2280   42.9570 S   0  0  0  0  0  0  0  0  0  0  0  0
   38.8790   28.5070   42.5020 C   0  0  0  0  0  0  0  0  0  0  0  0
   40.2340   28.5700   42.6720 N   0  0  0  0  0  0  0  0  0  0  0  0
   40.8940   29.6610   42.2550 C   0  0  0  0  0  3  0  0  0  0  0  0
   40.3220   30.7290   41.6670 N   0  0  0  0  0  0  0  0  0  0  0  0
   38.9810   30.7080   41.4790 C   0  0  0  0  0  0  0  0  0  0  0  0
   38.4730   31.8370   40.8770 C   0  0  0  0  0  3  0  0  0  0  0  0
   37.0900   31.8570   40.6690 C   0  0  0  0  0  0  0  0  0  0  0  0
   36.6120   32.7050   40.2030 H   0  0  0  0  0  0  0  0  0  0  0  0
   36.3290   30.7870   41.0610 C   0  0  0  0  0  0  0  0  0  0  0  0
   35.2560   30.7830   40.9100 H   0  0  0  0  0  0  0  0  0  0  0  0
   36.9140   29.6920   41.6590 C   0  0  0  0  0  3  0  0  0  0  0  0
   38.2810   29.5980   41.9000 C   0  0  0  0  0  0  0  0  0  0  0  0
  1  6  1  0  0  0  0
  2  1  2  0  0  0  0
  2  3  1  0  0  0  0
  3  4  2  0  0  0  0
  4  5  1  0  0  0  0
  5  7  1  0  0  0  0
  6  5  2  0  0  0  0
  7  8  1  0  0  0  0
  7 11  1  0  0  0  0
  8 14  1  0  0  0  0
  8  9  1  0  0  0  0
  9 10  1  0  0  0  0
  9 16  1  0  0  0  0
 10 18  1  0  0  0  0
 11 20  1  6  0  0  0
 11 10  1  0  0  0  0
 11 24  1  0  0  0  0
 12  1  1  0  0  0  0
 13  3  1  0  0  0  0
 15  8  1  0  0  0  0
 17  9  1  0  0  0  0
 19 10  1  0  0  0  0
 21  2  1  0  0  0  0
 22 21  1  0  0  0  0
 23 21  1  0  0  0  0
 25 26  1  0  0  0  0
 25 24  1  0  0  0  0
 27 26  2  0  0  0  0
 28 27  1  0  0  0  0
 29 28  2  0  0  0  0
 29 36  1  0  0  0  0
 30 29  1  0  0  0  0
 31 30  2  0  0  0  0
 31 33  1  0  0  0  0
 32 31  1  0  0  0  0
 33 35  2  0  0  0  0
 34 33  1  0  0  0  0
 35 36  1  0  0  0  0
 36 25  2  0  0  0  0
M  END
>  <minimizedAffinity>
-5.46148109

$$$$
