
 OpenBabel03242511173D

 22 24  0  0  0  0  0  0  0  0999 V2000
   46.7280   33.4660   40.8060 C   0  0  0  0  0  0  0  0  0  0  0  0
   45.6640   33.7700   40.0090 N   0  0  0  0  0  0  0  0  0  0  0  0
   45.1160   32.8490   39.1840 C   0  0  0  0  0  3  0  0  0  0  0  0
   45.6680   31.6320   39.1870 N   0  0  0  0  0  0  0  0  0  0  0  0
   46.7080   31.2570   39.9350 C   0  0  0  0  0  0  0  0  0  0  0  0
   47.2550   29.9910   39.9160 C   0  0  0  0  0  3  0  0  0  0  0  0
   48.3360   29.7070   40.7350 C   0  0  0  0  0  0  0  0  0  0  0  0
   48.7450   28.7030   40.6990 H   0  0  0  0  0  0  0  0  0  0  0  0
   48.8610   30.6790   41.5610 C   0  0  0  0  0  0  0  0  0  0  0  0
   49.7100   30.4200   42.1910 H   0  0  0  0  0  0  0  0  0  0  0  0
   48.3440   31.9740   41.6170 C   0  0  0  0  0  3  0  0  0  0  0  0
   47.2680   32.1910   40.7770 C   0  0  0  0  0  0  0  0  0  0  0  0
   47.3010   34.8210   41.8200 S   0  0  0  0  0  0  0  0  0  0  0  0
   44.5440   35.7970   44.6250 C   0  0  0  0  0  0  0  0  0  0  0  0
   45.3080   35.8270   43.4410 C   0  0  0  0  0  0  0  0  0  0  0  0
   46.2970   34.8430   43.2930 C   0  0  0  0  0  0  0  0  0  0  0  0
   46.4610   33.9340   44.2790 N   0  0  0  0  0  0  0  0  0  0  0  0
   45.7130   33.9300   45.4040 C   0  0  0  0  0  0  0  0  0  0  0  0
   44.7630   34.8630   45.5610 N   0  0  0  0  0  0  0  0  0  0  0  0
   43.8000   36.5630   44.7000 H   0  0  0  0  0  0  0  0  0  0  0  0
   45.1270   36.5760   42.6970 H   0  0  0  0  0  0  0  0  0  0  0  0
   45.8290   33.2100   46.2040 H   0  0  0  0  0  0  0  0  0  0  0  0
  1 13  1  0  0  0  0
  2  1  2  0  0  0  0
  3  4  2  0  0  0  0
  3  2  1  0  0  0  0
  4  5  1  0  0  0  0
  5 12  1  0  0  0  0
  6  5  2  0  0  0  0
  6  7  1  0  0  0  0
  7  9  2  0  0  0  0
  8  7  1  0  0  0  0
  9 11  1  0  0  0  0
  9 10  1  0  0  0  0
 12  1  1  0  0  0  0
 12 11  2  0  0  0  0
 13 16  1  0  0  0  0
 14 20  1  0  0  0  0
 14 19  1  0  0  0  0
 15 14  2  0  0  0  0
 16 15  1  0  0  0  0
 16 17  2  0  0  0  0
 17 18  1  0  0  0  0
 18 19  2  0  0  0  0
 18 22  1  0  0  0  0
 21 15  1  0  0  0  0
M  END
>  <minimizedAffinity>
-3.6555934

>  <minimizedRMSD>
1.41425121

$$$$
