
 OpenBabel03252507393D

 41 46  0  0  0  0  0  0  0  0999 V2000
   37.6920   32.2100   39.9260 C   0  0  0  0  0  0  0  0  0  0  0  0
   37.6550   31.0160   40.6880 C   0  0  0  0  0  0  0  0  0  0  0  0
   37.2730   29.8600   40.0180 C   0  0  0  0  0  0  0  0  0  0  0  0
   36.9630   29.9340   38.7030 N   0  0  0  0  0  0  0  0  0  0  0  0
   37.0100   31.0930   38.0040 C   0  0  0  0  0  0  0  0  0  0  0  0
   37.3690   32.2130   38.6100 N   0  0  0  0  0  0  0  0  0  0  0  0
   37.8950   30.9510   41.7180 H   0  0  0  0  0  0  0  0  0  0  0  0
   36.7340   30.9770   36.9640 H   0  0  0  0  0  0  0  0  0  0  0  0
   37.1340   28.5250   42.0460 C   0  0  0  0  0  0  0  0  0  0  0  0
   37.1880   28.5470   40.6540 C   0  0  0  0  0  0  0  0  0  0  0  0
   37.1580   27.3620   39.9770 C   0  0  0  0  0  0  0  0  0  0  0  0
   37.0750   26.1420   40.6090 C   0  0  0  0  0  0  0  0  0  0  0  0
   37.0330   24.8730   40.1490 N   0  0  0  0  0  0  0  0  0  0  0  0
   36.9510   24.0400   41.2550 C   0  0  0  0  0  0  0  0  0  0  0  0
   36.9440   24.8280   42.3560 N   0  0  0  0  0  0  0  0  0  0  0  0
   37.0200   26.1050   41.9780 C   0  0  0  0  0  0  0  0  0  0  0  0
   37.0490   27.2850   42.6890 C   0  0  0  0  0  0  0  0  0  0  0  0
   37.1500   29.3780   42.7060 H   0  0  0  0  0  0  0  0  0  0  0  0
   37.2020   27.4360   38.8830 H   0  0  0  0  0  0  0  0  0  0  0  0
   37.0610   24.6260   39.1240 H   0  0  0  0  0  0  0  0  0  0  0  0
   36.9020   22.9660   41.2060 H   0  0  0  0  0  0  0  0  0  0  0  0
   37.0060   27.1920   43.7840 H   0  0  0  0  0  0  0  0  0  0  0  0
   38.0760   33.3790   40.5990 O   0  0  0  0  0  0  0  0  0  0  0  0
   39.3670   33.8760   40.4300 C   0  0  0  0  0  0  0  0  0  0  0  0
   39.0670   35.1510   40.1210 C   0  0  0  0  0  0  0  0  0  0  0  0
   40.8020   35.8950   39.8800 S   0  0  0  0  0  0  0  0  0  0  0  0
   41.5580   34.2120   40.2770 C   0  0  0  0  0  0  0  0  0  0  0  0
   40.6610   33.6080   40.4560 N   0  0  0  0  0  0  0  0  0  0  0  0
   38.3660   36.1420   39.9030 H   0  0  0  0  0  0  0  0  0  0  0  0
   43.0640   34.2510   40.2370 C   0  0  0  0  0  0  0  0  0  0  0  0
   43.7890   33.7480   39.2640 N   0  0  0  0  0  0  0  0  0  0  0  0
   45.1130   33.7770   39.2040 C   0  0  0  0  0  3  0  0  0  0  0  0
   45.8020   34.3300   40.1540 N   0  0  0  0  0  0  0  0  0  0  0  0
   45.1980   34.9030   41.2510 C   0  0  0  0  0  0  0  0  0  0  0  0
   45.8620   35.5050   42.2960 C   0  0  0  0  0  3  0  0  0  0  0  0
   45.1140   36.0350   43.3260 C   0  0  0  0  0  0  0  0  0  0  0  0
   45.7930   36.4700   44.0710 H   0  0  0  0  0  0  0  0  0  0  0  0
   43.7120   35.9790   43.3350 C   0  0  0  0  0  0  0  0  0  0  0  0
   43.2940   36.4450   44.2140 H   0  0  0  0  0  0  0  0  0  0  0  0
   43.0750   35.3740   42.2810 C   0  0  0  0  0  3  0  0  0  0  0  0
   43.7940   34.8240   41.2230 C   0  0  0  0  0  0  0  0  0  0  0  0
  1 23  1  0  0  0  0
  1  2  1  0  0  0  0
  2  7  1  0  0  0  0
  3 10  1  0  0  0  0
  3  2  2  0  0  0  0
  4  3  1  0  0  0  0
  5  6  1  0  0  0  0
  5  4  2  0  0  0  0
  6  1  2  0  0  0  0
  8  5  1  0  0  0  0
  9 17  1  0  0  0  0
  9 18  1  0  0  0  0
 10  9  2  0  0  0  0
 11 12  2  0  0  0  0
 11 10  1  0  0  0  0
 12 16  1  0  0  0  0
 13 12  1  0  0  0  0
 13 14  1  0  0  0  0
 14 15  2  0  0  0  0
 16 15  1  0  0  0  0
 16 17  2  0  0  0  0
 17 22  1  0  0  0  0
 19 11  1  0  0  0  0
 20 13  1  0  0  0  0
 21 14  1  0  0  0  0
 24 28  1  0  0  0  0
 24 23  1  0  0  0  0
 25 24  2  0  0  0  0
 26 25  1  0  0  0  0
 26 27  1  0  0  0  0
 27 28  2  0  0  0  0
 29 25  1  0  0  0  0
 30 27  1  0  0  0  0
 30 41  1  0  0  0  0
 31 30  2  0  0  0  0
 32 31  1  0  0  0  0
 32 33  2  0  0  0  0
 33 34  1  0  0  0  0
 34 35  1  0  0  0  0
 35 36  2  0  0  0  0
 36 38  1  0  0  0  0
 36 37  1  0  0  0  0
 38 39  1  0  0  0  0
 40 38  2  0  0  0  0
 41 34  2  0  0  0  0
 41 40  1  0  0  0  0
M  END
>  <minimizedAffinity>
-7.51371861

$$$$

 OpenBabel03252507393D

 41 46  0  0  0  0  0  0  0  0999 V2000
   37.2420   28.7650   41.9890 C   0  0  0  0  0  0  0  0  0  0  0  0
   36.9050   27.6000   41.2550 C   0  0  0  0  0  0  0  0  0  0  0  0
   37.6220   26.4480   41.5520 C   0  0  0  0  0  0  0  0  0  0  0  0
   38.5830   26.4960   42.5030 N   0  0  0  0  0  0  0  0  0  0  0  0
   38.8790   27.6280   43.1860 C   0  0  0  0  0  0  0  0  0  0  0  0
   38.2160   28.7440   42.9300 N   0  0  0  0  0  0  0  0  0  0  0  0
   36.1540   27.5550   40.5080 H   0  0  0  0  0  0  0  0  0  0  0  0
   39.6710   27.4950   43.9110 H   0  0  0  0  0  0  0  0  0  0  0  0
   36.4640   25.1420   39.8570 C   0  0  0  0  0  0  0  0  0  0  0  0
   37.3960   25.1630   40.8920 C   0  0  0  0  0  0  0  0  0  0  0  0
   38.0350   24.0020   41.2250 C   0  0  0  0  0  0  0  0  0  0  0  0
   37.7990   22.8090   40.5800 C   0  0  0  0  0  0  0  0  0  0  0  0
   38.3050   21.5680   40.7390 N   0  0  0  0  0  0  0  0  0  0  0  0
   37.6910   20.7530   39.7990 C   0  0  0  0  0  0  0  0  0  0  0  0
   36.8300   21.5250   39.0940 N   0  0  0  0  0  0  0  0  0  0  0  0
   36.8860   22.7740   39.5580 C   0  0  0  0  0  0  0  0  0  0  0  0
   36.2250   23.9290   39.2010 C   0  0  0  0  0  0  0  0  0  0  0  0
   35.8880   25.9770   39.4910 H   0  0  0  0  0  0  0  0  0  0  0  0
   38.7590   24.0750   42.0460 H   0  0  0  0  0  0  0  0  0  0  0  0
   39.0310   21.3250   41.4640 H   0  0  0  0  0  0  0  0  0  0  0  0
   37.8890   19.7020   39.6810 H   0  0  0  0  0  0  0  0  0  0  0  0
   35.5020   23.8390   38.3780 H   0  0  0  0  0  0  0  0  0  0  0  0
   36.5200   29.9310   41.6920 O   0  0  0  0  0  0  0  0  0  0  0  0
   37.1450   30.9710   41.0060 C   0  0  0  0  0  0  0  0  0  0  0  0
   36.4290   30.9370   39.8670 C   0  0  0  0  0  0  0  0  0  0  0  0
   37.2350   32.3490   38.8780 S   0  0  0  0  0  0  0  0  0  0  0  0
   38.4110   32.6620   40.3200 C   0  0  0  0  0  0  0  0  0  0  0  0
   38.0850   31.8990   41.0360 N   0  0  0  0  0  0  0  0  0  0  0  0
   35.5690   30.5650   39.0660 H   0  0  0  0  0  0  0  0  0  0  0  0
   39.3500   33.8070   40.0390 C   0  0  0  0  0  0  0  0  0  0  0  0
   39.2080   35.0150   40.5320 N   0  0  0  0  0  0  0  0  0  0  0  0
   40.0240   36.0350   40.3030 C   0  0  0  0  0  3  0  0  0  0  0  0
   41.0620   35.8870   39.5390 N   0  0  0  0  0  0  0  0  0  0  0  0
   41.3570   34.6840   38.9380 C   0  0  0  0  0  0  0  0  0  0  0  0
   42.4360   34.4540   38.1150 C   0  0  0  0  0  3  0  0  0  0  0  0
   42.5970   33.1900   37.5870 C   0  0  0  0  0  0  0  0  0  0  0  0
   43.4960   33.1790   36.9570 H   0  0  0  0  0  0  0  0  0  0  0  0
   41.7010   32.1460   37.8660 C   0  0  0  0  0  0  0  0  0  0  0  0
   41.9840   31.2290   37.3730 H   0  0  0  0  0  0  0  0  0  0  0  0
   40.6350   32.4020   38.6900 C   0  0  0  0  0  3  0  0  0  0  0  0
   40.4360   33.6660   39.2410 C   0  0  0  0  0  0  0  0  0  0  0  0
  1  6  1  0  0  0  0
  2  3  1  0  0  0  0
  2  1  2  0  0  0  0
  3  4  2  0  0  0  0
  4  5  1  0  0  0  0
  5  8  1  0  0  0  0
  6  5  2  0  0  0  0
  7  2  1  0  0  0  0
  9 10  1  0  0  0  0
 10 11  2  0  0  0  0
 10  3  1  0  0  0  0
 11 19  1  0  0  0  0
 12 13  1  0  0  0  0
 12 11  1  0  0  0  0
 13 20  1  0  0  0  0
 14 13  1  0  0  0  0
 15 16  1  0  0  0  0
 15 14  2  0  0  0  0
 16 12  2  0  0  0  0
 17 16  1  0  0  0  0
 17  9  2  0  0  0  0
 18  9  1  0  0  0  0
 21 14  1  0  0  0  0
 22 17  1  0  0  0  0
 23  1  1  0  0  0  0
 24 28  1  0  0  0  0
 24 23  1  0  0  0  0
 25 24  2  0  0  0  0
 26 25  1  0  0  0  0
 26 27  1  0  0  0  0
 27 28  2  0  0  0  0
 29 25  1  0  0  0  0
 30 27  1  0  0  0  0
 30 31  1  0  0  0  0
 32 31  2  0  0  0  0
 33 32  1  0  0  0  0
 34 41  1  0  0  0  0
 34 33  2  0  0  0  0
 35 34  1  0  0  0  0
 36 38  1  0  0  0  0
 36 35  2  0  0  0  0
 37 36  1  0  0  0  0
 38 40  2  0  0  0  0
 39 38  1  0  0  0  0
 40 41  1  0  0  0  0
 41 30  2  0  0  0  0
M  END
>  <minimizedAffinity>
-7.43887711

$$$$

 OpenBabel03252507393D

 41 46  0  0  0  0  0  0  0  0999 V2000
   36.6510   28.6050   41.6330 C   0  0  0  0  0  0  0  0  0  0  0  0
   36.5050   27.4070   40.8900 C   0  0  0  0  0  0  0  0  0  0  0  0
   37.1120   26.2720   41.4130 C   0  0  0  0  0  0  0  0  0  0  0  0
   37.7960   26.3670   42.5760 N   0  0  0  0  0  0  0  0  0  0  0  0
   37.9140   27.5290   43.2610 C   0  0  0  0  0  0  0  0  0  0  0  0
   37.3490   28.6300   42.7940 N   0  0  0  0  0  0  0  0  0  0  0  0
   35.9720   27.3250   39.9770 H   0  0  0  0  0  0  0  0  0  0  0  0
   38.4910   27.4320   44.1720 H   0  0  0  0  0  0  0  0  0  0  0  0
   36.1850   24.8200   39.6950 C   0  0  0  0  0  0  0  0  0  0  0  0
   37.0540   24.9570   40.7750 C   0  0  0  0  0  0  0  0  0  0  0  0
   37.7900   23.8760   41.1680 C   0  0  0  0  0  0  0  0  0  0  0  0
   37.7120   22.6530   40.5420 C   0  0  0  0  0  0  0  0  0  0  0  0
   38.3330   21.4730   40.7580 N   0  0  0  0  0  0  0  0  0  0  0  0
   37.8560   20.5810   39.8080 C   0  0  0  0  0  0  0  0  0  0  0  0
   36.9590   21.2460   39.0420 N   0  0  0  0  0  0  0  0  0  0  0  0
   36.8620   22.5030   39.4770 C   0  0  0  0  0  0  0  0  0  0  0  0
   36.1070   23.5760   39.0580 C   0  0  0  0  0  0  0  0  0  0  0  0
   35.5470   25.5840   39.2790 H   0  0  0  0  0  0  0  0  0  0  0  0
   38.4580   24.0390   42.0220 H   0  0  0  0  0  0  0  0  0  0  0  0
   39.0410   21.3210   41.5250 H   0  0  0  0  0  0  0  0  0  0  0  0
   38.1670   19.5540   39.7270 H   0  0  0  0  0  0  0  0  0  0  0  0
   35.4410   23.3950   38.2020 H   0  0  0  0  0  0  0  0  0  0  0  0
   36.0390   29.7530   41.1090 O   0  0  0  0  0  0  0  0  0  0  0  0
   36.8300   30.7950   40.6280 C   0  0  0  0  0  0  0  0  0  0  0  0
   36.6050   30.6440   39.3100 C   0  0  0  0  0  0  0  0  0  0  0  0
   37.6620   32.0520   38.5870 S   0  0  0  0  0  0  0  0  0  0  0  0
   38.1820   32.5320   40.3360 C   0  0  0  0  0  0  0  0  0  0  0  0
   37.6430   31.7900   40.9350 N   0  0  0  0  0  0  0  0  0  0  0  0
   36.1340   30.1640   38.2760 H   0  0  0  0  0  0  0  0  0  0  0  0
   39.1040   33.7250   40.3380 C   0  0  0  0  0  0  0  0  0  0  0  0
   38.7040   34.9660   40.1850 N   0  0  0  0  0  0  0  0  0  0  0  0
   39.4950   36.0300   40.1900 C   0  0  0  0  0  3  0  0  0  0  0  0
   40.7750   35.8960   40.3530 N   0  0  0  0  0  0  0  0  0  0  0  0
   41.3610   34.6620   40.5250 C   0  0  0  0  0  0  0  0  0  0  0  0
   42.7090   34.4430   40.7020 C   0  0  0  0  0  3  0  0  0  0  0  0
   43.1440   33.1450   40.8620 C   0  0  0  0  0  0  0  0  0  0  0  0
   44.2350   33.1480   40.9860 H   0  0  0  0  0  0  0  0  0  0  0  0
   42.2590   32.0550   40.8510 C   0  0  0  0  0  0  0  0  0  0  0  0
   42.7730   31.1170   40.9930 H   0  0  0  0  0  0  0  0  0  0  0  0
   40.9210   32.3010   40.6740 C   0  0  0  0  0  3  0  0  0  0  0  0
   40.4420   33.5990   40.5060 C   0  0  0  0  0  0  0  0  0  0  0  0
  1  6  1  0  0  0  0
  2  3  1  0  0  0  0
  2  1  2  0  0  0  0
  3  4  2  0  0  0  0
  4  5  1  0  0  0  0
  5  8  1  0  0  0  0
  6  5  2  0  0  0  0
  7  2  1  0  0  0  0
  9 10  1  0  0  0  0
 10 11  2  0  0  0  0
 10  3  1  0  0  0  0
 11 19  1  0  0  0  0
 12 13  1  0  0  0  0
 12 11  1  0  0  0  0
 13 20  1  0  0  0  0
 14 13  1  0  0  0  0
 15 16  1  0  0  0  0
 15 14  2  0  0  0  0
 16 12  2  0  0  0  0
 17 16  1  0  0  0  0
 17  9  2  0  0  0  0
 18  9  1  0  0  0  0
 21 14  1  0  0  0  0
 22 17  1  0  0  0  0
 23  1  1  0  0  0  0
 24 28  1  0  0  0  0
 24 23  1  0  0  0  0
 25 24  2  0  0  0  0
 26 25  1  0  0  0  0
 26 27  1  0  0  0  0
 27 30  1  0  0  0  0
 27 28  2  0  0  0  0
 29 25  1  0  0  0  0
 30 41  1  0  0  0  0
 31 32  1  0  0  0  0
 31 30  2  0  0  0  0
 32 33  2  0  0  0  0
 33 34  1  0  0  0  0
 34 35  1  0  0  0  0
 35 36  2  0  0  0  0
 36 37  1  0  0  0  0
 38 36  1  0  0  0  0
 38 39  1  0  0  0  0
 40 38  2  0  0  0  0
 41 34  2  0  0  0  0
 41 40  1  0  0  0  0
M  END
>  <minimizedAffinity>
-7.34577656

$$$$

 OpenBabel03252507393D

 41 46  0  0  0  0  0  0  0  0999 V2000
   37.5110   32.1390   39.6270 C   0  0  0  0  0  0  0  0  0  0  0  0
   37.4480   30.9790   40.4390 C   0  0  0  0  0  0  0  0  0  0  0  0
   37.2680   29.7680   39.7840 C   0  0  0  0  0  0  0  0  0  0  0  0
   37.1620   29.7580   38.4350 N   0  0  0  0  0  0  0  0  0  0  0  0
   37.2270   30.8870   37.6890 C   0  0  0  0  0  0  0  0  0  0  0  0
   37.3980   32.0580   38.2790 N   0  0  0  0  0  0  0  0  0  0  0  0
   37.5290   30.9790   41.4960 H   0  0  0  0  0  0  0  0  0  0  0  0
   37.1260   30.7030   36.6270 H   0  0  0  0  0  0  0  0  0  0  0  0
   36.9640   28.5140   41.8460 C   0  0  0  0  0  0  0  0  0  0  0  0
   37.1870   28.4800   40.4720 C   0  0  0  0  0  0  0  0  0  0  0  0
   37.3150   27.2680   39.8560 C   0  0  0  0  0  0  0  0  0  0  0  0
   37.2310   26.0740   40.5350 C   0  0  0  0  0  0  0  0  0  0  0  0
   37.3250   24.7860   40.1380 N   0  0  0  0  0  0  0  0  0  0  0  0
   37.1590   23.9980   41.2680 C   0  0  0  0  0  0  0  0  0  0  0  0
   36.9680   24.8300   42.3190 N   0  0  0  0  0  0  0  0  0  0  0  0
   37.0100   26.0910   41.8880 C   0  0  0  0  0  0  0  0  0  0  0  0
   36.8780   27.3000   42.5360 C   0  0  0  0  0  0  0  0  0  0  0  0
   36.8450   29.3940   42.4590 H   0  0  0  0  0  0  0  0  0  0  0  0
   37.4890   27.2980   38.7730 H   0  0  0  0  0  0  0  0  0  0  0  0
   37.4950   24.4980   39.1380 H   0  0  0  0  0  0  0  0  0  0  0  0
   37.1840   22.9220   41.2680 H   0  0  0  0  0  0  0  0  0  0  0  0
   36.7060   27.2510   43.6210 H   0  0  0  0  0  0  0  0  0  0  0  0
   37.6930   33.3640   40.2850 O   0  0  0  0  0  0  0  0  0  0  0  0
   38.9680   33.9240   40.3550 C   0  0  0  0  0  0  0  0  0  0  0  0
   38.6520   35.2070   40.0990 C   0  0  0  0  0  0  0  0  0  0  0  0
   40.3630   36.0360   40.1840 S   0  0  0  0  0  0  0  0  0  0  0  0
   41.1360   34.3570   40.5650 C   0  0  0  0  0  0  0  0  0  0  0  0
   40.2550   33.7060   40.5580 N   0  0  0  0  0  0  0  0  0  0  0  0
   37.9410   36.1840   39.8500 H   0  0  0  0  0  0  0  0  0  0  0  0
   42.6270   34.4590   40.7600 C   0  0  0  0  0  0  0  0  0  0  0  0
   43.1980   34.9030   41.8560 N   0  0  0  0  0  0  0  0  0  0  0  0
   44.5060   34.9950   42.0530 C   0  0  0  0  0  3  0  0  0  0  0  0
   45.3370   34.6350   41.1240 N   0  0  0  0  0  0  0  0  0  0  0  0
   44.9050   34.1500   39.9100 C   0  0  0  0  0  0  0  0  0  0  0  0
   45.7250   33.7510   38.8790 C   0  0  0  0  0  3  0  0  0  0  0  0
   45.1400   33.2850   37.7210 C   0  0  0  0  0  0  0  0  0  0  0  0
   45.9290   33.0150   37.0060 H   0  0  0  0  0  0  0  0  0  0  0  0
   43.7470   33.2070   37.5690 C   0  0  0  0  0  0  0  0  0  0  0  0
   43.4670   32.8170   36.6020 H   0  0  0  0  0  0  0  0  0  0  0  0
   42.9520   33.6090   38.6120 C   0  0  0  0  0  3  0  0  0  0  0  0
   43.5050   34.0880   39.7980 C   0  0  0  0  0  0  0  0  0  0  0  0
  1 23  1  0  0  0  0
  1  2  1  0  0  0  0
  2  7  1  0  0  0  0
  3  2  2  0  0  0  0
  3 10  1  0  0  0  0
  4  3  1  0  0  0  0
  5  6  1  0  0  0  0
  5  4  2  0  0  0  0
  6  1  2  0  0  0  0
  8  5  1  0  0  0  0
  9 18  1  0  0  0  0
  9 17  1  0  0  0  0
 10  9  2  0  0  0  0
 11 10  1  0  0  0  0
 11 12  2  0  0  0  0
 12 16  1  0  0  0  0
 13 12  1  0  0  0  0
 13 14  1  0  0  0  0
 14 15  2  0  0  0  0
 16 15  1  0  0  0  0
 16 17  2  0  0  0  0
 17 22  1  0  0  0  0
 19 11  1  0  0  0  0
 20 13  1  0  0  0  0
 21 14  1  0  0  0  0
 23 24  1  0  0  0  0
 24 28  1  0  0  0  0
 25 26  1  0  0  0  0
 25 24  2  0  0  0  0
 26 27  1  0  0  0  0
 27 30  1  0  0  0  0
 28 27  2  0  0  0  0
 29 25  1  0  0  0  0
 30 31  1  0  0  0  0
 31 32  2  0  0  0  0
 33 32  1  0  0  0  0
 34 33  2  0  0  0  0
 35 34  1  0  0  0  0
 36 35  2  0  0  0  0
 37 36  1  0  0  0  0
 38 36  1  0  0  0  0
 38 40  2  0  0  0  0
 39 38  1  0  0  0  0
 40 41  1  0  0  0  0
 41 34  1  0  0  0  0
 41 30  2  0  0  0  0
M  END
>  <minimizedAffinity>
-7.07620096

$$$$

 OpenBabel03252507393D

 41 46  0  0  0  0  0  0  0  0999 V2000
   38.6150   33.0420   39.6650 C   0  0  0  0  0  0  0  0  0  0  0  0
   39.9980   33.0220   39.9760 C   0  0  0  0  0  0  0  0  0  0  0  0
   40.5750   34.2360   40.3280 C   0  0  0  0  0  0  0  0  0  0  0  0
   39.8050   35.3480   40.3540 N   0  0  0  0  0  0  0  0  0  0  0  0
   38.4850   35.3300   40.0510 C   0  0  0  0  0  0  0  0  0  0  0  0
   37.9020   34.1920   39.7120 N   0  0  0  0  0  0  0  0  0  0  0  0
   40.6080   32.1550   39.9570 H   0  0  0  0  0  0  0  0  0  0  0  0
   38.0170   36.3040   40.1230 H   0  0  0  0  0  0  0  0  0  0  0  0
   42.9110   33.7360   39.8710 C   0  0  0  0  0  0  0  0  0  0  0  0
   41.9850   34.3880   40.6810 C   0  0  0  0  0  0  0  0  0  0  0  0
   42.4400   35.1210   41.7400 C   0  0  0  0  0  0  0  0  0  0  0  0
   43.7770   35.2450   42.0430 C   0  0  0  0  0  0  0  0  0  0  0  0
   44.4370   35.9030   43.0190 N   0  0  0  0  0  0  0  0  0  0  0  0
   45.7910   35.6680   42.8270 C   0  0  0  0  0  0  0  0  0  0  0  0
   45.9140   34.8740   41.7380 N   0  0  0  0  0  0  0  0  0  0  0  0
   44.7000   34.6090   41.2530 C   0  0  0  0  0  0  0  0  0  0  0  0
   44.2710   33.8620   40.1780 C   0  0  0  0  0  0  0  0  0  0  0  0
   42.6960   33.1260   39.0070 H   0  0  0  0  0  0  0  0  0  0  0  0
   41.6690   35.6150   42.3450 H   0  0  0  0  0  0  0  0  0  0  0  0
   43.9550   36.4750   43.7630 H   0  0  0  0  0  0  0  0  0  0  0  0
   46.5720   36.0640   43.4530 H   0  0  0  0  0  0  0  0  0  0  0  0
   45.0560   33.3730   39.5840 H   0  0  0  0  0  0  0  0  0  0  0  0
   38.0290   31.8180   39.3100 O   0  0  0  0  0  0  0  0  0  0  0  0
   38.0320   30.7630   40.2210 C   0  0  0  0  0  0  0  0  0  0  0  0
   36.8650   31.0130   40.8420 C   0  0  0  0  0  0  0  0  0  0  0  0
   36.8050   29.5940   42.1080 S   0  0  0  0  0  0  0  0  0  0  0  0
   38.4630   28.9700   41.4590 C   0  0  0  0  0  0  0  0  0  0  0  0
   38.6790   29.7030   40.6730 N   0  0  0  0  0  0  0  0  0  0  0  0
   35.8030   31.5860   41.0970 H   0  0  0  0  0  0  0  0  0  0  0  0
   38.9150   27.7270   42.1810 C   0  0  0  0  0  0  0  0  0  0  0  0
   39.8100   27.7170   43.1420 N   0  0  0  0  0  0  0  0  0  0  0  0
   40.2180   26.6380   43.7950 C   0  0  0  0  0  3  0  0  0  0  0  0
   39.7310   25.4710   43.5050 N   0  0  0  0  0  0  0  0  0  0  0  0
   38.7840   25.3030   42.5200 C   0  0  0  0  0  0  0  0  0  0  0  0
   38.2250   24.0990   42.1560 C   0  0  0  0  0  3  0  0  0  0  0  0
   37.2850   24.0930   41.1470 C   0  0  0  0  0  0  0  0  0  0  0  0
   36.9460   23.0620   40.9820 H   0  0  0  0  0  0  0  0  0  0  0  0
   36.8880   25.2690   40.4920 C   0  0  0  0  0  0  0  0  0  0  0  0
   36.1440   25.0770   39.7340 H   0  0  0  0  0  0  0  0  0  0  0  0
   37.4610   26.4560   40.8730 C   0  0  0  0  0  3  0  0  0  0  0  0
   38.4160   26.5030   41.8870 C   0  0  0  0  0  0  0  0  0  0  0  0
  1  6  2  0  0  0  0
  1  2  1  0  0  0  0
  2  3  2  0  0  0  0
  3  4  1  0  0  0  0
  3 10  1  0  0  0  0
  5  8  1  0  0  0  0
  5  4  2  0  0  0  0
  6  5  1  0  0  0  0
  7  2  1  0  0  0  0
  9 17  2  0  0  0  0
  9 10  1  0  0  0  0
 10 11  2  0  0  0  0
 11 12  1  0  0  0  0
 11 19  1  0  0  0  0
 12 13  1  0  0  0  0
 13 20  1  0  0  0  0
 14 13  1  0  0  0  0
 14 21  1  0  0  0  0
 15 14  2  0  0  0  0
 16 15  1  0  0  0  0
 16 12  2  0  0  0  0
 17 16  1  0  0  0  0
 18  9  1  0  0  0  0
 22 17  1  0  0  0  0
 23  1  1  0  0  0  0
 23 24  1  0  0  0  0
 24 28  1  0  0  0  0
 24 25  2  0  0  0  0
 25 29  1  0  0  0  0
 25 26  1  0  0  0  0
 27 26  1  0  0  0  0
 27 30  1  0  0  0  0
 28 27  2  0  0  0  0
 30 31  1  0  0  0  0
 31 32  2  0  0  0  0
 33 32  1  0  0  0  0
 34 33  2  0  0  0  0
 35 34  1  0  0  0  0
 36 35  2  0  0  0  0
 37 36  1  0  0  0  0
 38 40  2  0  0  0  0
 38 36  1  0  0  0  0
 39 38  1  0  0  0  0
 40 41  1  0  0  0  0
 41 30  2  0  0  0  0
 41 34  1  0  0  0  0
M  END
>  <minimizedAffinity>
-7.02319241

$$$$

 OpenBabel03252507393D

 41 46  0  0  0  0  0  0  0  0999 V2000
   37.9370   32.2970   39.1520 C   0  0  0  0  0  0  0  0  0  0  0  0
   39.2370   32.1250   38.6140 C   0  0  0  0  0  0  0  0  0  0  0  0
   40.1830   33.0840   38.9530 C   0  0  0  0  0  0  0  0  0  0  0  0
   39.8220   34.1100   39.7580 N   0  0  0  0  0  0  0  0  0  0  0  0
   38.5690   34.2430   40.2550 C   0  0  0  0  0  0  0  0  0  0  0  0
   37.6420   33.3480   39.9540 N   0  0  0  0  0  0  0  0  0  0  0  0
   39.5260   31.3250   37.9820 H   0  0  0  0  0  0  0  0  0  0  0  0
   38.4490   35.1170   40.8830 H   0  0  0  0  0  0  0  0  0  0  0  0
   41.9170   32.0220   37.6190 C   0  0  0  0  0  0  0  0  0  0  0  0
   41.5680   33.0530   38.4870 C   0  0  0  0  0  0  0  0  0  0  0  0
   42.5240   33.9600   38.8480 C   0  0  0  0  0  0  0  0  0  0  0  0
   43.8200   33.9010   38.3890 C   0  0  0  0  0  0  0  0  0  0  0  0
   44.9050   34.6740   38.6090 N   0  0  0  0  0  0  0  0  0  0  0  0
   45.9490   34.1300   37.8750 C   0  0  0  0  0  0  0  0  0  0  0  0
   45.4670   33.0430   37.2280 N   0  0  0  0  0  0  0  0  0  0  0  0
   44.1770   32.8920   37.5320 C   0  0  0  0  0  0  0  0  0  0  0  0
   43.2350   31.9620   37.1510 C   0  0  0  0  0  0  0  0  0  0  0  0
   41.2700   31.2400   37.2530 H   0  0  0  0  0  0  0  0  0  0  0  0
   42.1960   34.7510   39.5330 H   0  0  0  0  0  0  0  0  0  0  0  0
   44.8960   35.5220   39.2360 H   0  0  0  0  0  0  0  0  0  0  0  0
   46.9480   34.5300   37.8490 H   0  0  0  0  0  0  0  0  0  0  0  0
   43.5810   31.1750   36.4660 H   0  0  0  0  0  0  0  0  0  0  0  0
   36.9790   31.3300   38.8130 O   0  0  0  0  0  0  0  0  0  0  0  0
   37.0020   30.0880   39.4450 C   0  0  0  0  0  0  0  0  0  0  0  0
   35.9030   30.2160   40.2100 C   0  0  0  0  0  0  0  0  0  0  0  0
   35.8730   28.5370   41.1050 S   0  0  0  0  0  0  0  0  0  0  0  0
   37.4390   28.0380   40.1780 C   0  0  0  0  0  0  0  0  0  0  0  0
   37.6280   28.9310   39.5730 N   0  0  0  0  0  0  0  0  0  0  0  0
   34.8960   30.7430   40.6890 H   0  0  0  0  0  0  0  0  0  0  0  0
   37.8850   26.6440   40.5420 C   0  0  0  0  0  0  0  0  0  0  0  0
   37.5840   25.5700   39.8480 N   0  0  0  0  0  0  0  0  0  0  0  0
   37.9690   24.3360   40.1450 C   0  0  0  0  0  3  0  0  0  0  0  0
   38.7010   24.1110   41.1920 N   0  0  0  0  0  0  0  0  0  0  0  0
   39.1040   25.1260   42.0300 C   0  0  0  0  0  0  0  0  0  0  0  0
   39.8780   24.9620   43.1570 C   0  0  0  0  0  3  0  0  0  0  0  0
   40.2000   26.0810   43.8960 C   0  0  0  0  0  0  0  0  0  0  0  0
   40.8120   25.7750   44.7550 H   0  0  0  0  0  0  0  0  0  0  0  0
   39.7650   27.3650   43.5330 C   0  0  0  0  0  0  0  0  0  0  0  0
   40.1130   28.1190   44.2220 H   0  0  0  0  0  0  0  0  0  0  0  0
   38.9960   27.5010   42.4050 C   0  0  0  0  0  3  0  0  0  0  0  0
   38.6470   26.3950   41.6320 C   0  0  0  0  0  0  0  0  0  0  0  0
  1  6  1  0  0  0  0
  2  3  1  0  0  0  0
  2  1  2  0  0  0  0
  3  4  2  0  0  0  0
  4  5  1  0  0  0  0
  5  8  1  0  0  0  0
  6  5  2  0  0  0  0
  7  2  1  0  0  0  0
  9 10  1  0  0  0  0
 10 11  2  0  0  0  0
 10  3  1  0  0  0  0
 11 19  1  0  0  0  0
 12 13  1  0  0  0  0
 12 11  1  0  0  0  0
 13 20  1  0  0  0  0
 14 13  1  0  0  0  0
 15 16  1  0  0  0  0
 15 14  2  0  0  0  0
 16 12  2  0  0  0  0
 17 16  1  0  0  0  0
 17  9  2  0  0  0  0
 18  9  1  0  0  0  0
 21 14  1  0  0  0  0
 22 17  1  0  0  0  0
 23  1  1  0  0  0  0
 23 24  1  0  0  0  0
 24 28  1  0  0  0  0
 24 25  2  0  0  0  0
 25 29  1  0  0  0  0
 25 26  1  0  0  0  0
 27 30  1  0  0  0  0
 27 26  1  0  0  0  0
 28 27  2  0  0  0  0
 30 41  1  0  0  0  0
 31 32  1  0  0  0  0
 31 30  2  0  0  0  0
 32 33  2  0  0  0  0
 33 34  1  0  0  0  0
 34 35  1  0  0  0  0
 35 36  2  0  0  0  0
 36 37  1  0  0  0  0
 38 36  1  0  0  0  0
 38 39  1  0  0  0  0
 40 38  2  0  0  0  0
 41 34  2  0  0  0  0
 41 40  1  0  0  0  0
M  END
>  <minimizedAffinity>
-6.92871714

$$$$

 OpenBabel03252507393D

 41 46  0  0  0  0  0  0  0  0999 V2000
   38.3900   32.9650   39.6630 C   0  0  0  0  0  0  0  0  0  0  0  0
   39.7080   32.6610   39.2410 C   0  0  0  0  0  0  0  0  0  0  0  0
   40.6450   33.6830   39.3400 C   0  0  0  0  0  0  0  0  0  0  0  0
   40.2580   34.8870   39.8220 N   0  0  0  0  0  0  0  0  0  0  0  0
   38.9880   35.1420   40.2170 C   0  0  0  0  0  0  0  0  0  0  0  0
   38.0700   34.1930   40.1370 N   0  0  0  0  0  0  0  0  0  0  0  0
   40.0180   31.7210   38.8620 H   0  0  0  0  0  0  0  0  0  0  0  0
   38.8480   36.1520   40.5780 H   0  0  0  0  0  0  0  0  0  0  0  0
   42.9960   34.1080   39.7940 C   0  0  0  0  0  0  0  0  0  0  0  0
   42.0470   33.5350   38.9530 C   0  0  0  0  0  0  0  0  0  0  0  0
   42.4720   32.8780   37.8330 C   0  0  0  0  0  0  0  0  0  0  0  0
   43.8020   32.7560   37.5000 C   0  0  0  0  0  0  0  0  0  0  0  0
   44.4350   32.1630   36.4650 N   0  0  0  0  0  0  0  0  0  0  0  0
   45.7960   32.3610   36.6520 C   0  0  0  0  0  0  0  0  0  0  0  0
   45.9490   33.0680   37.7960 N   0  0  0  0  0  0  0  0  0  0  0  0
   44.7480   33.3140   38.3200 C   0  0  0  0  0  0  0  0  0  0  0  0
   44.3480   33.9840   39.4560 C   0  0  0  0  0  0  0  0  0  0  0  0
   42.8050   34.6540   40.7050 H   0  0  0  0  0  0  0  0  0  0  0  0
   41.6840   32.4440   37.2060 H   0  0  0  0  0  0  0  0  0  0  0  0
   43.9310   31.6580   35.6880 H   0  0  0  0  0  0  0  0  0  0  0  0
   46.5600   32.0020   35.9850 H   0  0  0  0  0  0  0  0  0  0  0  0
   45.1510   34.4130   40.0720 H   0  0  0  0  0  0  0  0  0  0  0  0
   37.4420   31.9360   39.5650 O   0  0  0  0  0  0  0  0  0  0  0  0
   37.5460   30.8220   40.3970 C   0  0  0  0  0  0  0  0  0  0  0  0
   36.2930   30.8010   40.8850 C   0  0  0  0  0  0  0  0  0  0  0  0
   36.3670   29.2870   42.0360 S   0  0  0  0  0  0  0  0  0  0  0  0
   38.1740   29.0340   41.5550 C   0  0  0  0  0  0  0  0  0  0  0  0
   38.3300   29.8600   40.8530 N   0  0  0  0  0  0  0  0  0  0  0  0
   35.1200   31.1480   41.0460 H   0  0  0  0  0  0  0  0  0  0  0  0
   38.7730   27.8330   42.2420 C   0  0  0  0  0  0  0  0  0  0  0  0
   39.6970   27.9020   43.1720 N   0  0  0  0  0  0  0  0  0  0  0  0
   40.2330   26.8610   43.7950 C   0  0  0  0  0  3  0  0  0  0  0  0
   39.8560   25.6550   43.5020 N   0  0  0  0  0  0  0  0  0  0  0  0
   38.8980   25.4050   42.5450 C   0  0  0  0  0  0  0  0  0  0  0  0
   38.4500   24.1540   42.1810 C   0  0  0  0  0  3  0  0  0  0  0  0
   37.4820   24.0670   41.2030 C   0  0  0  0  0  0  0  0  0  0  0  0
   37.2430   23.0090   41.0330 H   0  0  0  0  0  0  0  0  0  0  0  0
   36.9470   25.2050   40.5800 C   0  0  0  0  0  0  0  0  0  0  0  0
   36.2000   24.9490   39.8440 H   0  0  0  0  0  0  0  0  0  0  0  0
   37.4100   26.4380   40.9620 C   0  0  0  0  0  3  0  0  0  0  0  0
   38.3890   26.5690   41.9440 C   0  0  0  0  0  0  0  0  0  0  0  0
  1  6  1  0  0  0  0
  2  3  1  0  0  0  0
  2  1  2  0  0  0  0
  3  4  2  0  0  0  0
  4  5  1  0  0  0  0
  5  8  1  0  0  0  0
  6  5  2  0  0  0  0
  7  2  1  0  0  0  0
  9 18  1  0  0  0  0
 10  3  1  0  0  0  0
 10  9  2  0  0  0  0
 11 10  1  0  0  0  0
 12 11  2  0  0  0  0
 12 16  1  0  0  0  0
 13 14  1  0  0  0  0
 13 12  1  0  0  0  0
 14 15  2  0  0  0  0
 15 16  1  0  0  0  0
 16 17  2  0  0  0  0
 17  9  1  0  0  0  0
 17 22  1  0  0  0  0
 19 11  1  0  0  0  0
 20 13  1  0  0  0  0
 21 14  1  0  0  0  0
 23  1  1  0  0  0  0
 23 24  1  0  0  0  0
 24 28  1  0  0  0  0
 24 25  2  0  0  0  0
 25 29  1  0  0  0  0
 25 26  1  0  0  0  0
 27 26  1  0  0  0  0
 27 30  1  0  0  0  0
 28 27  2  0  0  0  0
 30 31  1  0  0  0  0
 31 32  2  0  0  0  0
 33 32  1  0  0  0  0
 34 33  2  0  0  0  0
 35 34  1  0  0  0  0
 36 35  2  0  0  0  0
 37 36  1  0  0  0  0
 38 40  2  0  0  0  0
 38 36  1  0  0  0  0
 39 38  1  0  0  0  0
 40 41  1  0  0  0  0
 41 30  2  0  0  0  0
 41 34  1  0  0  0  0
M  END
>  <minimizedAffinity>
-6.92777252

$$$$

 OpenBabel03252507393D

 41 46  0  0  0  0  0  0  0  0999 V2000
   36.7980   28.5250   41.8280 C   0  0  0  0  0  0  0  0  0  0  0  0
   37.6290   29.6680   41.7100 C   0  0  0  0  0  0  0  0  0  0  0  0
   37.1930   30.6690   40.8500 C   0  0  0  0  0  0  0  0  0  0  0  0
   36.0270   30.5030   40.1840 N   0  0  0  0  0  0  0  0  0  0  0  0
   35.2580   29.3970   40.3210 C   0  0  0  0  0  0  0  0  0  0  0  0
   35.6410   28.4250   41.1310 N   0  0  0  0  0  0  0  0  0  0  0  0
   38.5440   29.8040   42.2280 H   0  0  0  0  0  0  0  0  0  0  0  0
   34.3580   29.4260   39.7190 H   0  0  0  0  0  0  0  0  0  0  0  0
   37.2440   32.9340   39.9650 C   0  0  0  0  0  0  0  0  0  0  0  0
   37.9280   31.9120   40.6180 C   0  0  0  0  0  0  0  0  0  0  0  0
   39.2210   32.1250   40.9990 C   0  0  0  0  0  0  0  0  0  0  0  0
   39.8820   33.3100   40.7670 C   0  0  0  0  0  0  0  0  0  0  0  0
   41.1330   33.7320   41.0490 N   0  0  0  0  0  0  0  0  0  0  0  0
   41.2440   35.0300   40.5730 C   0  0  0  0  0  0  0  0  0  0  0  0
   40.0560   35.3600   40.0160 N   0  0  0  0  0  0  0  0  0  0  0  0
   39.2210   34.3260   40.1250 C   0  0  0  0  0  0  0  0  0  0  0  0
   37.9150   34.1390   39.7290 C   0  0  0  0  0  0  0  0  0  0  0  0
   36.2260   32.9040   39.6090 H   0  0  0  0  0  0  0  0  0  0  0  0
   39.7130   31.2880   41.5110 H   0  0  0  0  0  0  0  0  0  0  0  0
   41.8490   33.1350   41.5440 H   0  0  0  0  0  0  0  0  0  0  0  0
   42.1320   35.6340   40.6520 H   0  0  0  0  0  0  0  0  0  0  0  0
   37.4380   34.9870   39.2160 H   0  0  0  0  0  0  0  0  0  0  0  0
   37.2350   27.5130   42.6950 O   0  0  0  0  0  0  0  0  0  0  0  0
   38.6010   27.3110   42.8840 C   0  0  0  0  0  0  0  0  0  0  0  0
   38.7760   26.2570   42.0660 C   0  0  0  0  0  0  0  0  0  0  0  0
   40.6390   25.9290   42.2760 S   0  0  0  0  0  0  0  0  0  0  0  0
   40.7380   27.3740   43.4860 C   0  0  0  0  0  0  0  0  0  0  0  0
   39.6970   27.7170   43.5000 N   0  0  0  0  0  0  0  0  0  0  0  0
   38.4830   25.3740   41.2570 H   0  0  0  0  0  0  0  0  0  0  0  0
   42.1410   27.5830   43.9950 C   0  0  0  0  0  0  0  0  0  0  0  0
   42.8430   26.6640   44.6180 N   0  0  0  0  0  0  0  0  0  0  0  0
   44.0800   26.8230   45.0690 C   0  0  0  0  0  3  0  0  0  0  0  0
   44.6960   27.9540   44.9110 N   0  0  0  0  0  0  0  0  0  0  0  0
   44.1020   29.0240   44.2810 C   0  0  0  0  0  0  0  0  0  0  0  0
   44.6930   30.2520   44.0800 C   0  0  0  0  0  3  0  0  0  0  0  0
   43.9670   31.2260   43.4290 C   0  0  0  0  0  0  0  0  0  0  0  0
   44.5780   32.1360   43.3550 H   0  0  0  0  0  0  0  0  0  0  0  0
   42.6590   31.0010   42.9700 C   0  0  0  0  0  0  0  0  0  0  0  0
   42.2470   31.8710   42.4830 H   0  0  0  0  0  0  0  0  0  0  0  0
   42.0950   29.7690   43.1830 C   0  0  0  0  0  3  0  0  0  0  0  0
   42.7950   28.7580   43.8390 C   0  0  0  0  0  0  0  0  0  0  0  0
  1 23  1  0  0  0  0
  2  1  1  0  0  0  0
  2  7  1  0  0  0  0
  3  2  2  0  0  0  0
  4  5  2  0  0  0  0
  4  3  1  0  0  0  0
  5  6  1  0  0  0  0
  6  1  2  0  0  0  0
  8  5  1  0  0  0  0
  9 10  1  0  0  0  0
 10  3  1  0  0  0  0
 10 11  2  0  0  0  0
 11 19  1  0  0  0  0
 12 11  1  0  0  0  0
 12 13  1  0  0  0  0
 13 20  1  0  0  0  0
 14 21  1  0  0  0  0
 14 13  1  0  0  0  0
 15 16  1  0  0  0  0
 15 14  2  0  0  0  0
 16 12  2  0  0  0  0
 17  9  2  0  0  0  0
 17 16  1  0  0  0  0
 18  9  1  0  0  0  0
 22 17  1  0  0  0  0
 23 24  1  0  0  0  0
 24 28  1  0  0  0  0
 25 26  1  0  0  0  0
 25 24  2  0  0  0  0
 26 27  1  0  0  0  0
 27 28  2  0  0  0  0
 27 30  1  0  0  0  0
 29 25  1  0  0  0  0
 30 31  1  0  0  0  0
 31 32  2  0  0  0  0
 33 32  1  0  0  0  0
 34 33  2  0  0  0  0
 35 34  1  0  0  0  0
 36 35  2  0  0  0  0
 37 36  1  0  0  0  0
 38 40  2  0  0  0  0
 38 36  1  0  0  0  0
 39 38  1  0  0  0  0
 40 41  1  0  0  0  0
 41 30  2  0  0  0  0
 41 34  1  0  0  0  0
M  END
>  <minimizedAffinity>
-6.81855488

$$$$

 OpenBabel03252507393D

 41 46  0  0  0  0  0  0  0  0999 V2000
   37.7220   32.0330   40.2160 C   0  0  0  0  0  0  0  0  0  0  0  0
   36.9280   31.6020   39.1250 C   0  0  0  0  0  0  0  0  0  0  0  0
   36.7630   30.2300   38.9780 C   0  0  0  0  0  0  0  0  0  0  0  0
   37.3560   29.3970   39.8630 N   0  0  0  0  0  0  0  0  0  0  0  0
   38.1090   29.8450   40.8960 C   0  0  0  0  0  0  0  0  0  0  0  0
   38.2870   31.1440   41.0680 N   0  0  0  0  0  0  0  0  0  0  0  0
   36.4600   32.2490   38.4270 H   0  0  0  0  0  0  0  0  0  0  0  0
   38.5080   29.0470   41.5100 H   0  0  0  0  0  0  0  0  0  0  0  0
   36.4620   29.7480   36.6130 C   0  0  0  0  0  0  0  0  0  0  0  0
   35.9720   29.6210   37.9100 C   0  0  0  0  0  0  0  0  0  0  0  0
   34.8010   28.9460   38.1060 C   0  0  0  0  0  0  0  0  0  0  0  0
   34.0820   28.3820   37.0770 C   0  0  0  0  0  0  0  0  0  0  0  0
   32.9260   27.6850   37.0420 N   0  0  0  0  0  0  0  0  0  0  0  0
   32.6810   27.3670   35.7130 C   0  0  0  0  0  0  0  0  0  0  0  0
   33.6980   27.8800   34.9800 N   0  0  0  0  0  0  0  0  0  0  0  0
   34.5530   28.4980   35.7950 C   0  0  0  0  0  0  0  0  0  0  0  0
   35.7320   29.1740   35.5660 C   0  0  0  0  0  0  0  0  0  0  0  0
   37.3670   30.2520   36.3120 H   0  0  0  0  0  0  0  0  0  0  0  0
   34.4600   28.8740   39.1470 H   0  0  0  0  0  0  0  0  0  0  0  0
   32.3590   27.4570   37.9010 H   0  0  0  0  0  0  0  0  0  0  0  0
   31.8270   26.8120   35.3680 H   0  0  0  0  0  0  0  0  0  0  0  0
   36.0580   29.2380   34.5170 H   0  0  0  0  0  0  0  0  0  0  0  0
   37.8900   33.4180   40.3680 O   0  0  0  0  0  0  0  0  0  0  0  0
   39.1770   33.9510   40.4290 C   0  0  0  0  0  0  0  0  0  0  0  0
   38.8850   35.2420   40.1870 C   0  0  0  0  0  0  0  0  0  0  0  0
   40.6130   36.0360   40.2600 S   0  0  0  0  0  0  0  0  0  0  0  0
   41.3550   34.3390   40.6190 C   0  0  0  0  0  0  0  0  0  0  0  0
   40.4620   33.7050   40.6170 N   0  0  0  0  0  0  0  0  0  0  0  0
   38.1910   36.2360   39.9540 H   0  0  0  0  0  0  0  0  0  0  0  0
   42.8500   34.4090   40.8000 C   0  0  0  0  0  0  0  0  0  0  0  0
   43.4420   34.7780   41.9120 N   0  0  0  0  0  0  0  0  0  0  0  0
   44.7540   34.8410   42.0960 C   0  0  0  0  0  3  0  0  0  0  0  0
   45.5670   34.5260   41.1360 N   0  0  0  0  0  0  0  0  0  0  0  0
   45.1120   34.1190   39.9020 C   0  0  0  0  0  0  0  0  0  0  0  0
   45.9140   33.7710   38.8380 C   0  0  0  0  0  3  0  0  0  0  0  0
   45.3070   33.3830   37.6620 C   0  0  0  0  0  0  0  0  0  0  0  0
   46.0830   33.1450   36.9230 H   0  0  0  0  0  0  0  0  0  0  0  0
   43.9110   33.3320   37.5260 C   0  0  0  0  0  0  0  0  0  0  0  0
   43.6130   33.0050   36.5410 H   0  0  0  0  0  0  0  0  0  0  0  0
   43.1350   33.6830   38.6010 C   0  0  0  0  0  3  0  0  0  0  0  0
   43.7100   34.0840   39.8050 C   0  0  0  0  0  0  0  0  0  0  0  0
  1 23  1  0  0  0  0
  1  6  1  0  0  0  0
  2  1  2  0  0  0  0
  3  2  1  0  0  0  0
  3  4  2  0  0  0  0
  4  5  1  0  0  0  0
  5  6  2  0  0  0  0
  5  8  1  0  0  0  0
  7  2  1  0  0  0  0
  9 10  1  0  0  0  0
 10 11  2  0  0  0  0
 10  3  1  0  0  0  0
 11 19  1  0  0  0  0
 12 11  1  0  0  0  0
 13 12  1  0  0  0  0
 13 20  1  0  0  0  0
 14 13  1  0  0  0  0
 15 14  2  0  0  0  0
 15 16  1  0  0  0  0
 16 12  2  0  0  0  0
 17 16  1  0  0  0  0
 17  9  2  0  0  0  0
 18  9  1  0  0  0  0
 21 14  1  0  0  0  0
 22 17  1  0  0  0  0
 23 24  1  0  0  0  0
 24 28  1  0  0  0  0
 25 26  1  0  0  0  0
 25 24  2  0  0  0  0
 26 27  1  0  0  0  0
 27 30  1  0  0  0  0
 28 27  2  0  0  0  0
 29 25  1  0  0  0  0
 30 31  1  0  0  0  0
 31 32  2  0  0  0  0
 33 32  1  0  0  0  0
 34 33  2  0  0  0  0
 35 34  1  0  0  0  0
 36 35  2  0  0  0  0
 37 36  1  0  0  0  0
 38 36  1  0  0  0  0
 38 40  2  0  0  0  0
 39 38  1  0  0  0  0
 40 41  1  0  0  0  0
 41 34  1  0  0  0  0
 41 30  2  0  0  0  0
M  END
>  <minimizedAffinity>
-6.72455788

$$$$
