
 OpenBabel03242516263D

 46 51  0  0  0  0  0  0  0  0999 V2000
   49.9350   30.4170   49.0290 C   0  0  0  0  0  0  0  0  0  0  0  0
   49.7470   31.4330   49.9200 N   0  0  0  0  0  0  0  0  0  0  0  0
   50.6640   31.7940   50.8210 C   0  0  0  0  0  0  0  0  0  0  0  0
   51.8260   31.1210   50.8510 N   0  0  0  0  0  0  0  0  0  0  0  0
   52.1000   30.1100   50.0160 C   0  0  0  0  0  0  0  0  0  0  0  0
   53.2960   29.4190   50.0190 C   0  0  0  0  0  0  0  0  0  0  0  0
   53.5280   28.3960   49.1160 C   0  0  0  0  0  0  0  0  0  0  0  0
   52.5740   28.0140   48.1670 C   0  0  0  0  0  0  0  0  0  0  0  0
   51.3900   28.7300   48.1990 C   0  0  0  0  0  0  0  0  0  0  0  0
   51.1400   29.7480   49.0850 C   0  0  0  0  0  0  0  0  0  0  0  0
   50.4700   32.5980   51.4960 H   0  0  0  0  0  0  0  0  0  0  0  0
   54.0140   29.7250   50.7530 H   0  0  0  0  0  0  0  0  0  0  0  0
   54.5180   27.9470   49.2320 H   0  0  0  0  0  0  0  0  0  0  0  0
   52.9220   27.2150   47.5570 H   0  0  0  0  0  0  0  0  0  0  0  0
   50.5050   28.1010   47.2280 C   0  0  0  0  0  0  0  0  0  0  0  0
   50.1990   28.3700   45.9220 N   0  0  0  0  0  0  0  0  0  0  0  0
   49.3200   27.5710   45.2650 C   0  0  0  0  0  3  0  0  0  0  0  0
   48.7000   26.4940   45.8060 N   0  0  0  0  0  0  0  0  0  0  0  0
   48.9710   26.1890   47.0890 C   0  0  0  0  0  0  0  0  0  0  0  0
   48.3490   25.0870   47.6040 C   0  0  0  0  0  3  0  0  0  0  0  0
   48.5960   24.7110   48.8900 C   0  0  0  0  0  0  0  0  0  0  0  0
   48.1310   23.8520   49.3320 H   0  0  0  0  0  0  0  0  0  0  0  0
   49.4720   25.4360   49.6790 C   0  0  0  0  0  0  0  0  0  0  0  0
   49.6950   25.1710   50.6950 H   0  0  0  0  0  0  0  0  0  0  0  0
   50.0550   26.5320   49.0860 C   0  0  0  0  0  3  0  0  0  0  0  0
   49.8650   26.9870   47.7910 C   0  0  0  0  0  0  0  0  0  0  0  0
   48.7440   29.9240   47.8190 S   0  0  0  0  0  0  0  0  0  0  0  0
   46.0040   32.7260   46.8920 C   0  0  0  0  0  0  0  0  0  0  0  0
   47.0670   31.8730   46.8940 C   0  0  0  0  0  0  0  0  0  0  0  0
   47.3060   30.9880   47.9240 C   0  0  0  0  0  0  0  0  0  0  0  0
   46.4400   30.9410   49.0250 C   0  0  0  0  0  0  0  0  0  0  0  0
   45.3750   31.7750   49.0500 C   0  0  0  0  0  0  0  0  0  0  0  0
   45.1660   32.6510   47.9970 C   0  0  0  0  0  0  0  0  0  0  0  0
   47.7520   31.8920   46.0350 H   0  0  0  0  0  0  0  0  0  0  0  0
   46.6170   30.2620   49.8230 H   0  0  0  0  0  0  0  0  0  0  0  0
   44.6630   31.7910   49.8750 H   0  0  0  0  0  0  0  0  0  0  0  0
   44.3110   33.3120   48.0290 H   0  0  0  0  0  0  0  0  0  0  0  0
   44.5750   35.5180   45.0260 C   0  0  0  0  0  0  0  0  0  0  0  0
   45.2280   35.4630   43.7950 C   0  0  0  0  0  0  0  0  0  0  0  0
   46.1780   34.4520   43.6010 C   0  0  0  0  0  0  0  0  0  0  0  0
   46.4270   33.5670   44.6090 N   0  0  0  0  0  0  0  0  0  0  0  0
   45.7580   33.6600   45.8060 C   0  0  0  0  0  0  0  0  0  0  0  0
   44.8480   34.6280   45.9940 N   0  0  0  0  0  0  0  0  0  0  0  0
   43.8550   36.3270   45.1110 H   0  0  0  0  0  0  0  0  0  0  0  0
   45.1030   36.1120   42.9330 H   0  0  0  0  0  0  0  0  0  0  0  0
   46.7590   34.2880   42.6930 H   0  0  0  0  0  0  0  0  0  0  0  0
  1 10  2  0  0  0  0
  1  2  1  0  0  0  0
  2  3  2  0  0  0  0
  3  4  1  0  0  0  0
  3 11  1  0  0  0  0
  5  6  1  0  0  0  0
  5  4  2  0  0  0  0
  6 12  1  0  0  0  0
  7 13  1  0  0  0  0
  7  6  2  0  0  0  0
  8  9  2  0  0  0  0
  8  7  1  0  0  0  0
  9 10  1  0  0  0  0
 10  5  1  0  0  0  0
 14  8  1  0  0  0  0
 15 26  1  0  0  0  0
 15  9  1  0  0  0  0
 16 15  2  0  0  0  0
 17 18  2  0  0  0  0
 17 16  1  0  0  0  0
 18 19  1  0  0  0  0
 19 20  2  0  0  0  0
 19 26  1  0  0  0  0
 20 21  1  0  0  0  0
 21 22  1  0  0  0  0
 21 23  2  0  0  0  0
 23 24  1  0  0  0  0
 25 23  1  0  0  0  0
 26 25  2  0  0  0  0
 27 30  1  0  0  0  0
 27  1  1  0  0  0  0
 28 29  2  0  0  0  0
 28 33  1  0  0  0  0
 29 30  1  0  0  0  0
 30 31  2  0  0  0  0
 31 32  1  0  0  0  0
 31 35  1  0  0  0  0
 32 36  1  0  0  0  0
 33 37  1  0  0  0  0
 33 32  2  0  0  0  0
 34 29  1  0  0  0  0
 38 44  1  0  0  0  0
 38 43  1  0  0  0  0
 39 38  2  0  0  0  0
 40 39  1  0  0  0  0
 40 41  2  0  0  0  0
 41 42  1  0  0  0  0
 42 43  2  0  0  0  0
 42 28  1  0  0  0  0
 45 39  1  0  0  0  0
 46 40  1  0  0  0  0
M  END
>  <minimizedAffinity>
-6.34353638

>  <minimizedRMSD>
1.47824848

$$$$
