
 OpenBabel03252501313D

 23 25  0  0  1  0  0  0  0  0999 V2000
   38.0790   29.1680   41.8600 C   0  0  1  0  0  3  0  0  0  0  0  0
   38.2390   28.3180   42.6920 N   0  0  0  0  0  2  0  0  0  0  0  0
   38.4230   27.4950   43.5790 C   0  0  0  0  0  2  0  0  0  0  0  0
   37.9940   26.4760   42.8240 N   0  0  0  0  0  2  0  0  0  0  0  0
   37.5660   26.6840   41.5330 C   0  0  0  0  0  0  0  0  0  0  0  0
   37.0690   25.5020   40.9260 C   0  0  0  0  0  3  0  0  0  0  0  0
   36.5290   25.6950   39.6770 C   0  0  0  0  0  0  0  0  0  0  0  0
   36.1750   24.7830   39.2620 H   0  0  0  0  0  0  0  0  0  0  0  0
   36.4530   26.9240   39.0290 C   0  0  0  0  0  0  0  0  0  0  0  0
   36.0330   27.0240   38.0800 H   0  0  0  0  0  0  0  0  0  0  0  0
   36.9980   27.9150   39.8120 C   0  0  0  0  0  3  0  0  0  0  0  0
   37.6150   28.0310   41.0860 C   0  0  0  0  0  0  0  0  0  0  0  0
   37.8590   30.2590   40.9080 C   0  0  0  0  0  0  0  0  0  0  0  0
   36.9150   31.2050   40.6830 C   0  0  0  0  0  0  0  0  0  0  0  0
   37.1230   32.2330   39.8030 C   0  0  0  0  0  0  0  0  0  0  0  0
   38.3580   32.1970   39.1860 N   0  0  0  0  0  0  0  0  0  0  0  0
   39.2840   31.2790   39.3930 C   0  0  0  0  0  0  0  0  0  0  0  0
   39.0640   30.2570   40.2770 N   0  0  0  0  0  0  0  0  0  0  0  0
   36.3110   32.9220   39.7100 H   0  0  0  0  0  0  0  0  0  0  0  0
   40.0760   31.5900   38.7390 H   0  0  0  0  0  0  0  0  0  0  0  0
   35.6410   30.9430   41.3230 N   0  0  0  0  0  0  0  0  0  0  0  0
   35.1310   31.7900   41.7210 H   0  0  0  0  0  0  0  0  0  0  0  0
   34.7680   30.6920   41.7480 H   0  0  0  0  0  0  0  0  0  0  0  0
  1 13  1  1  0  0  0
  1  2  1  0  0  0  0
  2  3  1  0  0  0  0
  4  3  1  0  0  0  0
  5  4  1  0  0  0  0
  6  5  2  0  0  0  0
  7  6  1  0  0  0  0
  8  7  1  0  0  0  0
  9  7  2  0  0  0  0
  9 11  1  0  0  0  0
 10  9  1  0  0  0  0
 11 12  2  0  0  0  0
 12  5  1  0  0  0  0
 12  1  1  0  0  0  0
 14 13  1  0  0  0  0
 14 21  1  0  0  0  0
 15 14  2  0  0  0  0
 16 17  2  0  0  0  0
 16 15  1  0  0  0  0
 17 18  1  0  0  0  0
 18 13  2  0  0  0  0
 19 15  1  0  0  0  0
 20 17  1  0  0  0  0
 21 22  1  0  0  0  0
 21 23  1  0  0  0  0
M  END
>  <minimizedAffinity>
-5.26863956

$$$$

 OpenBabel03252501313D

 23 25  0  0  1  0  0  0  0  0999 V2000
   37.7060   31.4750   38.0040 C   0  0  1  0  0  3  0  0  0  0  0  0
   37.2060   30.7510   37.1880 N   0  0  0  0  0  2  0  0  0  0  0  0
   36.7300   30.0430   36.3100 C   0  0  0  0  0  2  0  0  0  0  0  0
   35.9900   29.3400   37.1780 N   0  0  0  0  0  2  0  0  0  0  0  0
   36.0280   29.6170   38.5250 C   0  0  0  0  0  0  0  0  0  0  0  0
   35.2470   28.7120   39.2900 C   0  0  0  0  0  3  0  0  0  0  0  0
   35.3500   28.8890   40.6490 C   0  0  0  0  0  0  0  0  0  0  0  0
   34.7450   28.1940   41.1780 H   0  0  0  0  0  0  0  0  0  0  0  0
   36.1400   29.8560   41.2640 C   0  0  0  0  0  0  0  0  0  0  0  0
   36.1900   29.9540   42.3010 H   0  0  0  0  0  0  0  0  0  0  0  0
   36.7990   30.6100   40.3200 C   0  0  0  0  0  3  0  0  0  0  0  0
   36.8920   30.6780   38.9040 C   0  0  0  0  0  0  0  0  0  0  0  0
   38.3890   32.3550   38.9550 C   0  0  0  0  0  0  0  0  0  0  0  0
   38.0830   33.4520   39.6900 C   0  0  0  0  0  0  0  0  0  0  0  0
   38.9230   33.9210   40.6640 C   0  0  0  0  0  0  0  0  0  0  0  0
   40.0800   33.1830   40.8060 N   0  0  0  0  0  0  0  0  0  0  0  0
   40.3930   32.1150   40.0930 C   0  0  0  0  0  0  0  0  0  0  0  0
   39.5430   31.6540   39.1240 N   0  0  0  0  0  0  0  0  0  0  0  0
   38.5760   34.7900   41.1810 H   0  0  0  0  0  0  0  0  0  0  0  0
   41.3490   31.8370   40.4910 H   0  0  0  0  0  0  0  0  0  0  0  0
   36.8940   34.1530   39.2510 N   0  0  0  0  0  0  0  0  0  0  0  0
   36.2720   34.5540   40.0180 H   0  0  0  0  0  0  0  0  0  0  0  0
   36.0910   34.6260   38.8780 H   0  0  0  0  0  0  0  0  0  0  0  0
  1 12  1  0  0  0  0
  1 13  1  1  0  0  0
  2  1  1  0  0  0  0
  3  4  1  0  0  0  0
  3  2  1  0  0  0  0
  4  5  1  0  0  0  0
  5 12  2  0  0  0  0
  5  6  1  0  0  0  0
  6  7  2  0  0  0  0
  7  8  1  0  0  0  0
  7  9  1  0  0  0  0
  9 10  1  0  0  0  0
 11  9  2  0  0  0  0
 12 11  1  0  0  0  0
 13 18  2  0  0  0  0
 13 14  1  0  0  0  0
 14 15  2  0  0  0  0
 15 16  1  0  0  0  0
 15 19  1  0  0  0  0
 17 20  1  0  0  0  0
 17 16  2  0  0  0  0
 18 17  1  0  0  0  0
 21 14  1  0  0  0  0
 21 22  1  0  0  0  0
 23 21  1  0  0  0  0
M  END
>  <minimizedAffinity>
-5.09368467

$$$$

 OpenBabel03252501313D

 23 25  0  0  1  0  0  0  0  0999 V2000
   39.6140   28.1690   42.5100 C   0  0  1  0  0  3  0  0  0  0  0  0
   40.5070   27.6090   43.0840 N   0  0  0  0  0  2  0  0  0  0  0  0
   41.4440   27.0940   43.6800 C   0  0  0  0  0  2  0  0  0  0  0  0
   40.9630   25.8550   43.5140 N   0  0  0  0  0  2  0  0  0  0  0  0
   39.7800   25.6400   42.8460 C   0  0  0  0  0  0  0  0  0  0  0  0
   39.3940   24.2740   42.8490 C   0  0  0  0  0  3  0  0  0  0  0  0
   38.1610   24.0370   42.2890 C   0  0  0  0  0  0  0  0  0  0  0  0
   37.9180   23.0030   42.3090 H   0  0  0  0  0  0  0  0  0  0  0  0
   37.3310   25.0200   41.7560 C   0  0  0  0  0  0  0  0  0  0  0  0
   36.4020   24.7940   41.3410 H   0  0  0  0  0  0  0  0  0  0  0  0
   37.9200   26.2580   41.8660 C   0  0  0  0  0  3  0  0  0  0  0  0
   39.1320   26.8070   42.3640 C   0  0  0  0  0  0  0  0  0  0  0  0
   38.5300   28.9160   41.8670 C   0  0  0  0  0  0  0  0  0  0  0  0
   37.4080   29.5690   42.2550 C   0  0  0  0  0  0  0  0  0  0  0  0
   36.7000   30.3580   41.3900 C   0  0  0  0  0  0  0  0  0  0  0  0
   37.2350   30.4100   40.1180 N   0  0  0  0  0  0  0  0  0  0  0  0
   38.3250   29.7760   39.7260 C   0  0  0  0  0  0  0  0  0  0  0  0
   39.0250   28.9910   40.6020 N   0  0  0  0  0  0  0  0  0  0  0  0
   35.8350   30.8270   41.8070 H   0  0  0  0  0  0  0  0  0  0  0  0
   38.4060   30.0600   38.6950 H   0  0  0  0  0  0  0  0  0  0  0  0
   36.9510   29.2320   43.5890 N   0  0  0  0  0  0  0  0  0  0  0  0
   36.5550   30.0350   44.1680 H   0  0  0  0  0  0  0  0  0  0  0  0
   36.6540   28.9310   44.4990 H   0  0  0  0  0  0  0  0  0  0  0  0
  1 13  1  1  0  0  0
  1  2  1  0  0  0  0
  2  3  1  0  0  0  0
  4  3  1  0  0  0  0
  5  6  1  0  0  0  0
  5  4  1  0  0  0  0
  7  8  1  0  0  0  0
  7  6  2  0  0  0  0
  9 11  2  0  0  0  0
  9  7  1  0  0  0  0
 10  9  1  0  0  0  0
 11 12  1  0  0  0  0
 12  1  1  0  0  0  0
 12  5  2  0  0  0  0
 13 14  1  0  0  0  0
 14 21  1  0  0  0  0
 15 19  1  0  0  0  0
 15 14  2  0  0  0  0
 16 15  1  0  0  0  0
 17 16  2  0  0  0  0
 17 18  1  0  0  0  0
 18 13  2  0  0  0  0
 20 17  1  0  0  0  0
 21 22  1  0  0  0  0
 21 23  1  0  0  0  0
M  END
>  <minimizedAffinity>
-5.03757763

$$$$

 OpenBabel03252501313D

 23 25  0  0  1  0  0  0  0  0999 V2000
   39.1240   30.8490   41.5320 C   0  0  1  0  0  3  0  0  0  0  0  0
   38.7080   30.0860   42.3610 N   0  0  0  0  0  2  0  0  0  0  0  0
   38.3320   29.3250   43.2430 C   0  0  0  0  0  2  0  0  0  0  0  0
   37.2750   28.9080   42.5330 N   0  0  0  0  0  2  0  0  0  0  0  0
   37.0280   29.4060   41.2750 C   0  0  0  0  0  0  0  0  0  0  0  0
   35.8200   28.9100   40.7200 C   0  0  0  0  0  3  0  0  0  0  0  0
   35.4840   29.4710   39.5110 C   0  0  0  0  0  0  0  0  0  0  0  0
   34.5770   29.0660   39.1340 H   0  0  0  0  0  0  0  0  0  0  0  0
   36.2320   30.4440   38.8550 C   0  0  0  0  0  0  0  0  0  0  0  0
   35.9380   30.8430   37.9370 H   0  0  0  0  0  0  0  0  0  0  0  0
   37.3550   30.7600   39.5840 C   0  0  0  0  0  3  0  0  0  0  0  0
   37.9600   30.3700   40.8080 C   0  0  0  0  0  0  0  0  0  0  0  0
   39.6540   31.8330   40.5850 C   0  0  0  0  0  0  0  0  0  0  0  0
   39.6680   33.1810   40.4580 C   0  0  0  0  0  0  0  0  0  0  0  0
   40.4530   33.8070   39.5280 C   0  0  0  0  0  0  0  0  0  0  0  0
   41.1990   32.9410   38.7550 N   0  0  0  0  0  0  0  0  0  0  0  0
   41.1920   31.6250   38.8650 C   0  0  0  0  0  0  0  0  0  0  0  0
   40.4040   31.0110   39.8010 N   0  0  0  0  0  0  0  0  0  0  0  0
   40.3850   34.8740   39.5220 H   0  0  0  0  0  0  0  0  0  0  0  0
   41.8830   31.3200   38.1030 H   0  0  0  0  0  0  0  0  0  0  0  0
   38.6810   33.8680   41.2680 N   0  0  0  0  0  0  0  0  0  0  0  0
   38.9890   34.7910   41.7040 H   0  0  0  0  0  0  0  0  0  0  0  0
   37.9520   34.2910   41.8130 H   0  0  0  0  0  0  0  0  0  0  0  0
  1 13  1  1  0  0  0
  1  2  1  0  0  0  0
  2  3  1  0  0  0  0
  4  3  1  0  0  0  0
  5  4  1  0  0  0  0
  6  5  2  0  0  0  0
  7  6  1  0  0  0  0
  8  7  1  0  0  0  0
  9  7  2  0  0  0  0
  9 11  1  0  0  0  0
 10  9  1  0  0  0  0
 11 12  2  0  0  0  0
 12  5  1  0  0  0  0
 12  1  1  0  0  0  0
 14 13  1  0  0  0  0
 14 21  1  0  0  0  0
 15 14  2  0  0  0  0
 16 17  2  0  0  0  0
 16 15  1  0  0  0  0
 17 18  1  0  0  0  0
 18 13  2  0  0  0  0
 19 15  1  0  0  0  0
 20 17  1  0  0  0  0
 21 22  1  0  0  0  0
 21 23  1  0  0  0  0
M  END
>  <minimizedAffinity>
-4.96225357

$$$$

 OpenBabel03252501313D

 23 25  0  0  1  0  0  0  0  0999 V2000
   37.0980   30.8470   39.8370 C   0  0  1  0  0  3  0  0  0  0  0  0
   36.1390   30.1260   39.8670 N   0  0  0  0  0  2  0  0  0  0  0  0
   35.1410   29.4180   39.8440 C   0  0  0  0  0  2  0  0  0  0  0  0
   35.5000   28.7510   40.9490 N   0  0  0  0  0  2  0  0  0  0  0  0
   36.6720   29.0480   41.6040 C   0  0  0  0  0  0  0  0  0  0  0  0
   36.9210   28.1790   42.6980 C   0  0  0  0  0  3  0  0  0  0  0  0
   38.1380   28.3740   43.3070 C   0  0  0  0  0  0  0  0  0  0  0  0
   38.2760   27.7050   44.1210 H   0  0  0  0  0  0  0  0  0  0  0  0
   39.0740   29.3270   42.9160 C   0  0  0  0  0  0  0  0  0  0  0  0
   39.9870   29.4390   43.4070 H   0  0  0  0  0  0  0  0  0  0  0  0
   38.6090   30.0460   41.8400 C   0  0  0  0  0  3  0  0  0  0  0  0
   37.4450   30.0890   41.0260 C   0  0  0  0  0  0  0  0  0  0  0  0
   38.2670   31.7220   39.7160 C   0  0  0  0  0  0  0  0  0  0  0  0
   39.4140   31.7510   38.9950 C   0  0  0  0  0  0  0  0  0  0  0  0
   40.2220   32.8550   38.9770 C   0  0  0  0  0  0  0  0  0  0  0  0
   39.7590   33.8990   39.7520 N   0  0  0  0  0  0  0  0  0  0  0  0
   38.6450   33.8820   40.4620 C   0  0  0  0  0  0  0  0  0  0  0  0
   37.8430   32.7720   40.4700 N   0  0  0  0  0  0  0  0  0  0  0  0
   41.0990   32.7660   38.3710 H   0  0  0  0  0  0  0  0  0  0  0  0
   38.6380   34.8540   40.9160 H   0  0  0  0  0  0  0  0  0  0  0  0
   39.7750   30.4830   38.3940 N   0  0  0  0  0  0  0  0  0  0  0  0
   40.2010   30.5290   37.4180 H   0  0  0  0  0  0  0  0  0  0  0  0
   40.0020   29.5720   38.0380 H   0  0  0  0  0  0  0  0  0  0  0  0
  1 13  1  6  0  0  0
  1  2  1  0  0  0  0
  1 12  1  0  0  0  0
  3  2  1  0  0  0  0
  3  4  1  0  0  0  0
  4  5  1  0  0  0  0
  5  6  1  0  0  0  0
  6  7  2  0  0  0  0
  7  8  1  0  0  0  0
  9  7  1  0  0  0  0
  9 10  1  0  0  0  0
 11  9  2  0  0  0  0
 12  5  2  0  0  0  0
 12 11  1  0  0  0  0
 13 18  1  0  0  0  0
 14 13  2  0  0  0  0
 15 14  1  0  0  0  0
 15 16  2  0  0  0  0
 16 17  1  0  0  0  0
 17 18  2  0  0  0  0
 17 20  1  0  0  0  0
 19 15  1  0  0  0  0
 21 14  1  0  0  0  0
 22 21  1  0  0  0  0
 23 21  1  0  0  0  0
M  END
>  <minimizedAffinity>
-4.87645912

$$$$

 OpenBabel03252501313D

 23 25  0  0  1  0  0  0  0  0999 V2000
   37.0880   28.2650   40.7690 C   0  0  1  0  0  3  0  0  0  0  0  0
   37.1260   27.2180   41.3540 N   0  0  0  0  0  2  0  0  0  0  0  0
   37.1110   26.1340   41.9220 C   0  0  0  0  0  2  0  0  0  0  0  0
   38.2440   26.3870   42.5910 N   0  0  0  0  0  2  0  0  0  0  0  0
   38.9130   27.5770   42.4240 C   0  0  0  0  0  0  0  0  0  0  0  0
   40.1330   27.6240   43.1470 C   0  0  0  0  0  3  0  0  0  0  0  0
   40.8810   28.7530   42.9150 C   0  0  0  0  0  0  0  0  0  0  0  0
   41.7810   28.7450   43.4810 H   0  0  0  0  0  0  0  0  0  0  0  0
   40.5140   29.7840   42.0550 C   0  0  0  0  0  0  0  0  0  0  0  0
   41.1150   30.6230   41.9090 H   0  0  0  0  0  0  0  0  0  0  0  0
   39.2970   29.5140   41.4730 C   0  0  0  0  0  3  0  0  0  0  0  0
   38.3170   28.4860   41.5100 C   0  0  0  0  0  0  0  0  0  0  0  0
   37.0120   29.5010   39.9860 C   0  0  0  0  0  0  0  0  0  0  0  0
   36.6000   30.7770   40.1810 C   0  0  0  0  0  0  0  0  0  0  0  0
   36.8640   31.7640   39.2710 C   0  0  0  0  0  0  0  0  0  0  0  0
   37.5660   31.3290   38.1650 N   0  0  0  0  0  0  0  0  0  0  0  0
   37.9690   30.0890   37.9590 C   0  0  0  0  0  0  0  0  0  0  0  0
   37.7010   29.1100   38.8790 N   0  0  0  0  0  0  0  0  0  0  0  0
   36.4950   32.7330   39.5320 H   0  0  0  0  0  0  0  0  0  0  0  0
   38.4630   30.1540   37.0100 H   0  0  0  0  0  0  0  0  0  0  0  0
   35.7420   30.9580   41.3340 N   0  0  0  0  0  0  0  0  0  0  0  0
   35.8860   31.8540   41.8940 H   0  0  0  0  0  0  0  0  0  0  0  0
   35.1150   31.0210   42.1160 H   0  0  0  0  0  0  0  0  0  0  0  0
  1 13  1  6  0  0  0
  1  2  1  0  0  0  0
  1 12  1  0  0  0  0
  2  3  1  0  0  0  0
  3  4  1  0  0  0  0
  5  4  1  0  0  0  0
  5  6  1  0  0  0  0
  7  6  2  0  0  0  0
  7  8  1  0  0  0  0
  9  7  1  0  0  0  0
 10  9  1  0  0  0  0
 11 12  1  0  0  0  0
 11  9  2  0  0  0  0
 12  5  2  0  0  0  0
 13 14  1  0  0  0  0
 14 21  1  0  0  0  0
 15 19  1  0  0  0  0
 15 14  2  0  0  0  0
 16 15  1  0  0  0  0
 17 16  2  0  0  0  0
 17 18  1  0  0  0  0
 18 13  2  0  0  0  0
 20 17  1  0  0  0  0
 21 22  1  0  0  0  0
 21 23  1  0  0  0  0
M  END
>  <minimizedAffinity>
-4.87197685

$$$$

 OpenBabel03252501313D

 23 25  0  0  1  0  0  0  0  0999 V2000
   36.4680   27.6190   38.8800 C   0  0  1  0  0  3  0  0  0  0  0  0
   36.4090   26.5910   38.2630 N   0  0  0  0  0  2  0  0  0  0  0  0
   36.3430   25.5770   37.5810 C   0  0  0  0  0  2  0  0  0  0  0  0
   36.4660   24.7680   38.6420 N   0  0  0  0  0  2  0  0  0  0  0  0
   36.6040   25.2820   39.9100 C   0  0  0  0  0  0  0  0  0  0  0  0
   36.8080   24.2740   40.8880 C   0  0  0  0  0  3  0  0  0  0  0  0
   37.0620   24.7570   42.1490 C   0  0  0  0  0  0  0  0  0  0  0  0
   37.2030   23.9670   42.8460 H   0  0  0  0  0  0  0  0  0  0  0  0
   37.1250   26.1070   42.4820 C   0  0  0  0  0  0  0  0  0  0  0  0
   37.3230   26.4290   43.4540 H   0  0  0  0  0  0  0  0  0  0  0  0
   36.8940   26.8870   41.3730 C   0  0  0  0  0  3  0  0  0  0  0  0
   36.6070   26.6990   39.9950 C   0  0  0  0  0  0  0  0  0  0  0  0
   36.5860   28.9070   39.5670 C   0  0  0  0  0  0  0  0  0  0  0  0
   35.7960   29.7030   40.3280 C   0  0  0  0  0  0  0  0  0  0  0  0
   36.3000   30.7810   41.0030 C   0  0  0  0  0  0  0  0  0  0  0  0
   37.6560   30.9670   40.8240 N   0  0  0  0  0  0  0  0  0  0  0  0
   38.4360   30.2020   40.0830 C   0  0  0  0  0  0  0  0  0  0  0  0
   37.9210   29.1240   39.4140 N   0  0  0  0  0  0  0  0  0  0  0  0
   35.5840   31.3340   41.5740 H   0  0  0  0  0  0  0  0  0  0  0  0
   39.3970   30.6660   40.1940 H   0  0  0  0  0  0  0  0  0  0  0  0
   34.3800   29.4070   40.2320 N   0  0  0  0  0  0  0  0  0  0  0  0
   33.8200   29.4860   41.1340 H   0  0  0  0  0  0  0  0  0  0  0  0
   33.4100   29.1900   40.0940 H   0  0  0  0  0  0  0  0  0  0  0  0
  1 13  1  6  0  0  0
  1 12  1  0  0  0  0
  2  1  1  0  0  0  0
  3  2  1  0  0  0  0
  3  4  1  0  0  0  0
  4  5  1  0  0  0  0
  5 12  2  0  0  0  0
  5  6  1  0  0  0  0
  6  7  2  0  0  0  0
  7  9  1  0  0  0  0
  7  8  1  0  0  0  0
  9 10  1  0  0  0  0
 11  9  2  0  0  0  0
 12 11  1  0  0  0  0
 13 14  1  0  0  0  0
 14 15  2  0  0  0  0
 15 19  1  0  0  0  0
 16 15  1  0  0  0  0
 17 20  1  0  0  0  0
 17 16  2  0  0  0  0
 18 13  2  0  0  0  0
 18 17  1  0  0  0  0
 21 14  1  0  0  0  0
 21 22  1  0  0  0  0
 23 21  1  0  0  0  0
M  END
>  <minimizedAffinity>
-4.86462212

$$$$

 OpenBabel03252501313D

 23 25  0  0  1  0  0  0  0  0999 V2000
   37.2130   28.7890   41.3210 C   0  0  1  0  0  3  0  0  0  0  0  0
   37.4140   28.5620   42.4830 N   0  0  0  0  0  2  0  0  0  0  0  0
   37.6230   28.3930   43.6770 C   0  0  0  0  0  2  0  0  0  0  0  0
   37.5560   27.0590   43.5740 N   0  0  0  0  0  2  0  0  0  0  0  0
   37.3100   26.4550   42.3630 C   0  0  0  0  0  0  0  0  0  0  0  0
   37.1890   25.0460   42.4720 C   0  0  0  0  0  3  0  0  0  0  0  0
   36.8330   24.4200   41.3010 C   0  0  0  0  0  0  0  0  0  0  0  0
   36.7590   23.3680   41.4300 H   0  0  0  0  0  0  0  0  0  0  0  0
   36.6000   25.0720   40.0930 C   0  0  0  0  0  0  0  0  0  0  0  0
   36.3300   24.5560   39.2290 H   0  0  0  0  0  0  0  0  0  0  0  0
   36.7810   26.4280   40.2370 C   0  0  0  0  0  3  0  0  0  0  0  0
   37.1400   27.3400   41.2660 C   0  0  0  0  0  0  0  0  0  0  0  0
   36.9200   29.1340   39.9280 C   0  0  0  0  0  0  0  0  0  0  0  0
   35.8460   29.5430   39.2110 C   0  0  0  0  0  0  0  0  0  0  0  0
   35.9700   29.9870   37.9220 C   0  0  0  0  0  0  0  0  0  0  0  0
   37.2660   29.9660   37.4470 N   0  0  0  0  0  0  0  0  0  0  0  0
   38.3200   29.5660   38.1340 C   0  0  0  0  0  0  0  0  0  0  0  0
   38.1840   29.1270   39.4230 N   0  0  0  0  0  0  0  0  0  0  0  0
   35.0560   30.2870   37.4560 H   0  0  0  0  0  0  0  0  0  0  0  0
   39.1220   29.6940   37.4330 H   0  0  0  0  0  0  0  0  0  0  0  0
   34.5720   29.3210   39.8630 N   0  0  0  0  0  0  0  0  0  0  0  0
   33.8370   30.0820   39.7340 H   0  0  0  0  0  0  0  0  0  0  0  0
   33.7150   29.1030   40.3380 H   0  0  0  0  0  0  0  0  0  0  0  0
  1 13  1  1  0  0  0
  1  2  1  0  0  0  0
  2  3  1  0  0  0  0
  4  3  1  0  0  0  0
  5  6  1  0  0  0  0
  5  4  1  0  0  0  0
  7  8  1  0  0  0  0
  7  6  2  0  0  0  0
  9 11  2  0  0  0  0
  9  7  1  0  0  0  0
 10  9  1  0  0  0  0
 11 12  1  0  0  0  0
 12  1  1  0  0  0  0
 12  5  2  0  0  0  0
 14 21  1  0  0  0  0
 14 13  2  0  0  0  0
 15 14  1  0  0  0  0
 16 15  2  0  0  0  0
 16 17  1  0  0  0  0
 17 18  2  0  0  0  0
 18 13  1  0  0  0  0
 19 15  1  0  0  0  0
 20 17  1  0  0  0  0
 21 23  1  0  0  0  0
 22 21  1  0  0  0  0
M  END
>  <minimizedAffinity>
-4.7484951

$$$$

 OpenBabel03252501313D

 23 25  0  0  1  0  0  0  0  0999 V2000
   38.9170   30.5220   41.8290 C   0  0  1  0  0  3  0  0  0  0  0  0
   38.9820   31.6370   41.3910 N   0  0  0  0  0  2  0  0  0  0  0  0
   39.0870   32.7900   40.9920 C   0  0  0  0  0  2  0  0  0  0  0  0
   38.2980   32.5710   39.9310 N   0  0  0  0  0  2  0  0  0  0  0  0
   37.7470   31.3310   39.7040 C   0  0  0  0  0  0  0  0  0  0  0  0
   37.0150   31.2740   38.4900 C   0  0  0  0  0  3  0  0  0  0  0  0
   36.5450   30.0220   38.1750 C   0  0  0  0  0  0  0  0  0  0  0  0
   36.0010   30.0300   37.2620 H   0  0  0  0  0  0  0  0  0  0  0  0
   36.7460   28.8820   38.9490 C   0  0  0  0  0  0  0  0  0  0  0  0
   36.3710   27.9500   38.6700 H   0  0  0  0  0  0  0  0  0  0  0  0
   37.4780   29.1880   40.0730 C   0  0  0  0  0  3  0  0  0  0  0  0
   38.0760   30.3350   40.6600 C   0  0  0  0  0  0  0  0  0  0  0  0
   38.9210   29.1670   42.3870 C   0  0  0  0  0  0  0  0  0  0  0  0
   38.0600   28.3700   43.0650 C   0  0  0  0  0  0  0  0  0  0  0  0
   38.3180   27.0410   43.2640 C   0  0  0  0  0  0  0  0  0  0  0  0
   39.5140   26.6170   42.7220 N   0  0  0  0  0  0  0  0  0  0  0  0
   40.3630   27.3840   42.0630 C   0  0  0  0  0  0  0  0  0  0  0  0
   40.0930   28.7120   41.8670 N   0  0  0  0  0  0  0  0  0  0  0  0
   37.5660   26.5100   43.8090 H   0  0  0  0  0  0  0  0  0  0  0  0
   41.1530   26.7020   41.8120 H   0  0  0  0  0  0  0  0  0  0  0  0
   36.9520   29.0730   43.6800 N   0  0  0  0  0  0  0  0  0  0  0  0
   36.0090   28.5770   43.6590 H   0  0  0  0  0  0  0  0  0  0  0  0
   36.2310   29.6130   44.1230 H   0  0  0  0  0  0  0  0  0  0  0  0
  1 13  1  6  0  0  0
  2  1  1  0  0  0  0
  3  2  1  0  0  0  0
  4  3  1  0  0  0  0
  5  4  1  0  0  0  0
  5 12  1  0  0  0  0
  6  5  2  0  0  0  0
  7  6  1  0  0  0  0
  7  9  2  0  0  0  0
  8  7  1  0  0  0  0
  9 11  1  0  0  0  0
 10  9  1  0  0  0  0
 11 12  2  0  0  0  0
 12  1  1  0  0  0  0
 13 14  1  0  0  0  0
 14 15  2  0  0  0  0
 14 21  1  0  0  0  0
 15 19  1  0  0  0  0
 16 15  1  0  0  0  0
 17 16  2  0  0  0  0
 18 17  1  0  0  0  0
 18 13  2  0  0  0  0
 20 17  1  0  0  0  0
 21 23  1  0  0  0  0
 22 21  1  0  0  0  0
M  END
>  <minimizedAffinity>
-4.72545004

$$$$
