
 OpenBabel03252509233D

 30 33  0  0  1  0  0  0  0  0999 V2000
   46.4430   34.7330   42.0190 C   0  0  1  0  0  0  0  0  0  0  0  0
   47.9040   35.2520   41.9900 C   0  0  0  0  0  0  0  0  0  0  0  0
   47.4420   33.7950   41.6630 C   0  0  2  0  0  0  0  0  0  0  0  0
   45.7840   35.2470   41.2990 H   0  0  0  0  0  0  0  0  0  0  0  0
   48.4420   35.3990   42.9200 H   0  0  0  0  0  0  0  0  0  0  0  0
   48.1440   35.8860   41.1400 H   0  0  0  0  0  0  0  0  0  0  0  0
   47.7780   33.0540   42.4450 H   0  0  0  0  0  0  0  0  0  0  0  0
   47.7960   33.3750   40.3060 C   0  0  0  0  0  0  0  0  0  0  0  0
   46.9390   33.6780   39.3020 N   0  0  0  0  0  0  0  0  0  0  0  0
   47.2520   33.2940   38.0460 C   0  0  0  0  0  3  0  0  0  0  0  0
   48.3800   32.6190   37.7130 N   0  0  0  0  0  0  0  0  0  0  0  0
   49.2650   32.2970   38.6890 C   0  0  0  0  0  0  0  0  0  0  0  0
   50.4400   31.6120   38.4570 C   0  0  0  0  0  3  0  0  0  0  0  0
   51.3240   31.2970   39.4680 C   0  0  0  0  0  0  0  0  0  0  0  0
   52.2450   30.7620   39.2920 H   0  0  0  0  0  0  0  0  0  0  0  0
   51.0120   31.6850   40.7620 C   0  0  0  0  0  0  0  0  0  0  0  0
   51.7030   31.4390   41.5520 H   0  0  0  0  0  0  0  0  0  0  0  0
   49.8370   32.3650   40.9620 C   0  0  0  0  0  3  0  0  0  0  0  0
   48.9430   32.6880   39.9650 C   0  0  0  0  0  0  0  0  0  0  0  0
   44.5140   35.6130   45.1270 C   0  0  0  0  0  0  0  0  0  0  0  0
   45.0090   35.7110   43.8000 C   0  0  0  0  0  0  0  0  0  0  0  0
   45.9190   34.7470   43.4380 C   0  0  0  0  0  0  0  0  0  0  0  0
   46.3080   33.7590   44.3340 N   0  0  0  0  0  0  0  0  0  0  0  0
   45.8110   33.7080   45.5760 C   0  0  0  0  0  0  0  0  0  0  0  0
   44.9070   34.6460   45.9700 N   0  0  0  0  0  0  0  0  0  0  0  0
   43.7910   36.3610   45.4390 H   0  0  0  0  0  0  0  0  0  0  0  0
   46.1910   32.9030   46.1610 H   0  0  0  0  0  0  0  0  0  0  0  0
   44.6260   36.7470   42.8930 N   0  0  0  0  0  0  0  0  0  0  0  0
   45.4130   37.4110   43.0990 H   0  0  0  0  0  0  0  0  0  0  0  0
   43.7970   36.7550   42.2560 H   0  0  0  0  0  0  0  0  0  0  0  0
  1  4  1  6  0  0  0
  1 22  1  0  0  0  0
  2  1  1  0  0  0  0
  2  5  1  0  0  0  0
  3  2  1  0  0  0  0
  3  1  1  0  0  0  0
  3  7  1  1  0  0  0
  6  2  1  0  0  0  0
  8  3  1  0  0  0  0
  9  8  2  0  0  0  0
 10  9  1  0  0  0  0
 11 10  2  0  0  0  0
 11 12  1  0  0  0  0
 12 19  1  0  0  0  0
 13 12  2  0  0  0  0
 13 14  1  0  0  0  0
 14 16  2  0  0  0  0
 15 14  1  0  0  0  0
 16 18  1  0  0  0  0
 16 17  1  0  0  0  0
 19  8  1  0  0  0  0
 19 18  2  0  0  0  0
 20 26  1  0  0  0  0
 20 25  1  0  0  0  0
 21 20  2  0  0  0  0
 22 21  1  0  0  0  0
 22 23  2  0  0  0  0
 23 24  1  0  0  0  0
 24 25  2  0  0  0  0
 24 27  1  0  0  0  0
 28 29  1  0  0  0  0
 28 21  1  0  0  0  0
 30 28  1  0  0  0  0
M  END
>  <minimizedAffinity>
-5.51431894

>  <minimizedRMSD>
0.555974782

$$$$
