
 OpenBabel03242516143D

 44 48  0  0  0  0  0  0  0  0999 V2000
   48.2150   33.7240   42.1500 C   0  0  0  0  0  0  0  0  0  0  0  0
   49.5030   34.4410   42.5720 C   0  0  0  0  0  0  0  0  0  0  0  0
   49.2170   33.0910   42.9990 C   0  0  0  0  0  0  0  0  0  0  0  0
   49.3250   35.3100   43.2530 H   0  0  0  0  0  0  0  0  0  0  0  0
   50.2690   34.6750   41.8230 H   0  0  0  0  0  0  0  0  0  0  0  0
   49.0900   32.9740   44.1160 H   0  0  0  0  0  0  0  0  0  0  0  0
   49.8800   32.2620   42.6060 H   0  0  0  0  0  0  0  0  0  0  0  0
   48.1640   33.4100   40.7000 C   0  0  0  0  0  0  0  0  0  0  0  0
   48.1540   34.6180   39.7710 C   0  0  0  0  0  0  0  0  0  0  0  0
   48.2980   34.0120   38.3610 C   0  0  0  0  0  0  0  0  0  0  0  0
   47.0450   33.4730   38.0510 O   0  0  0  0  0  0  0  0  0  0  0  0
   46.9900   32.2980   38.8490 C   0  0  0  0  0  0  0  0  0  0  0  0
   46.8360   32.7260   40.3090 C   0  0  0  0  0  0  0  0  0  0  0  0
   48.9760   32.7550   40.3540 H   0  0  0  0  0  0  0  0  0  0  0  0
   47.1940   35.1290   39.8550 H   0  0  0  0  0  0  0  0  0  0  0  0
   49.0520   35.2570   39.8790 H   0  0  0  0  0  0  0  0  0  0  0  0
   48.4700   34.8230   37.6310 H   0  0  0  0  0  0  0  0  0  0  0  0
   49.0400   33.2120   38.3600 H   0  0  0  0  0  0  0  0  0  0  0  0
   47.9920   31.8180   38.7680 H   0  0  0  0  0  0  0  0  0  0  0  0
   46.1700   31.6440   38.5350 H   0  0  0  0  0  0  0  0  0  0  0  0
   46.0450   33.5110   40.3470 H   0  0  0  0  0  0  0  0  0  0  0  0
   46.5890   31.8810   40.9420 H   0  0  0  0  0  0  0  0  0  0  0  0
   46.4950   35.5160   42.4560 C   0  0  0  0  0  0  0  0  0  0  0  0
   46.9370   34.2130   42.7830 C   0  0  0  0  0  0  0  0  0  0  0  0
   46.1760   33.4690   43.6910 C   0  0  0  0  0  0  0  0  0  0  0  0
   45.0650   34.0860   44.1800 N   0  0  0  0  0  0  0  0  0  0  0  0
   44.6830   35.3030   43.8520 C   0  0  0  0  0  0  0  0  0  0  0  0
   45.3720   36.0320   43.0020 N   0  0  0  0  0  0  0  0  0  0  0  0
   43.5040   35.8490   44.3990 N   0  0  0  0  0  0  0  0  0  0  0  0
   47.0630   36.1250   41.7530 H   0  0  0  0  0  0  0  0  0  0  0  0
   43.4750   35.7870   45.4430 H   0  0  0  0  0  0  0  0  0  0  0  0
   42.8220   36.2390   43.7020 H   0  0  0  0  0  0  0  0  0  0  0  0
   46.5990   32.1150   44.0180 C   0  0  0  0  0  0  0  0  0  0  0  0
   46.6870   31.0860   43.1790 N   0  0  0  0  0  0  0  0  0  0  0  0
   47.0600   29.8490   43.3950 C   0  0  0  0  0  0  0  0  0  0  0  0
   47.4270   29.4880   44.6360 N   0  0  0  0  0  0  0  0  0  0  0  0
   47.3930   30.4250   45.6050 C   0  0  0  0  0  0  0  0  0  0  0  0
   47.7750   30.0360   46.8630 C   0  0  0  0  0  0  0  0  0  0  0  0
   47.7610   30.9540   47.8830 C   0  0  0  0  0  0  0  0  0  0  0  0
   48.0690   30.6010   48.8560 H   0  0  0  0  0  0  0  0  0  0  0  0
   47.3620   32.2540   47.6210 C   0  0  0  0  0  0  0  0  0  0  0  0
   47.3730   32.9160   48.4530 H   0  0  0  0  0  0  0  0  0  0  0  0
   46.9970   32.5490   46.3310 C   0  0  0  0  0  0  0  0  0  0  0  0
   46.9840   31.6990   45.2710 C   0  0  0  0  0  0  0  0  0  0  0  0
  1  2  1  0  0  0  0
  1 24  1  0  0  0  0
  1  3  1  0  0  0  0
  2  3  1  0  0  0  0
  2  4  1  0  0  0  0
  3  6  1  0  0  0  0
  5  2  1  0  0  0  0
  7  3  1  0  0  0  0
  8  1  1  0  0  0  0
  9 15  1  0  0  0  0
  9 16  1  0  0  0  0
  9  8  1  0  0  0  0
 10  9  1  0  0  0  0
 11 10  1  0  0  0  0
 11 12  1  0  0  0  0
 12 13  1  0  0  0  0
 13 21  1  0  0  0  0
 13  8  1  0  0  0  0
 13 22  1  0  0  0  0
 14  8  1  0  0  0  0
 17 10  1  0  0  0  0
 18 10  1  0  0  0  0
 19 12  1  0  0  0  0
 20 12  1  0  0  0  0
 23 24  2  0  0  0  0
 23 28  1  0  0  0  0
 24 25  1  0  0  0  0
 25 33  1  0  0  0  0
 25 26  2  0  0  0  0
 27 26  1  0  0  0  0
 27 29  1  0  0  0  0
 28 27  2  0  0  0  0
 29 31  1  0  0  0  0
 30 23  1  0  0  0  0
 32 29  1  0  0  0  0
 33 44  1  0  0  0  0
 34 35  1  0  0  0  0
 34 33  2  0  0  0  0
 35 36  2  0  0  0  0
 36 37  1  0  0  0  0
 37 38  1  0  0  0  0
 38 39  2  0  0  0  0
 39 40  1  0  0  0  0
 41 39  1  0  0  0  0
 41 42  1  0  0  0  0
 43 41  2  0  0  0  0
 44 37  2  0  0  0  0
 44 43  1  0  0  0  0
M  END
>  <minimizedAffinity>
-6.07586336

>  <minimizedRMSD>
1.44934452

$$$$
