
 OpenBabel03252506573D

 41 46  0  0  0  0  0  0  0  0999 V2000
   47.3850   31.4440   45.2590 C   0  0  0  0  0  0  0  0  0  0  0  0
   46.8910   32.7310   45.1660 C   0  0  0  0  0  0  0  0  0  0  0  0
   46.1780   33.3240   46.1890 C   0  0  0  0  0  0  0  0  0  0  0  0
   45.9320   32.6170   47.3760 C   0  0  0  0  0  0  0  0  0  0  0  0
   45.2940   32.8650   48.5520 N   0  0  0  0  0  0  0  0  0  0  0  0
   45.3990   31.7590   49.3350 C   0  0  0  0  0  0  0  0  0  0  0  0
   46.1000   30.8460   48.6280 N   0  0  0  0  0  0  0  0  0  0  0  0
   46.4400   31.3410   47.4300 C   0  0  0  0  0  0  0  0  0  0  0  0
   47.1430   30.7310   46.4410 C   0  0  0  0  0  0  0  0  0  0  0  0
   47.9480   30.9730   44.4490 H   0  0  0  0  0  0  0  0  0  0  0  0
   45.7870   34.3270   46.1300 H   0  0  0  0  0  0  0  0  0  0  0  0
   44.8540   33.7870   48.6760 H   0  0  0  0  0  0  0  0  0  0  0  0
   44.9670   31.7290   50.3150 H   0  0  0  0  0  0  0  0  0  0  0  0
   46.4440   35.1540   42.4350 C   0  0  0  0  0  0  0  0  0  0  0  0
   47.5950   34.9660   41.6750 C   0  0  0  0  0  0  0  0  0  0  0  0
   48.5300   34.0030   42.1000 C   0  0  0  0  0  0  0  0  0  0  0  0
   48.2550   33.3010   43.2430 N   0  0  0  0  0  0  0  0  0  0  0  0
   47.1170   33.5130   43.9610 C   0  0  0  0  0  0  0  0  0  0  0  0
   46.2160   34.4320   43.5620 N   0  0  0  0  0  0  0  0  0  0  0  0
   45.7670   35.9020   42.0610 H   0  0  0  0  0  0  0  0  0  0  0  0
   47.8540   35.4870   40.7810 H   0  0  0  0  0  0  0  0  0  0  0  0
   49.4630   33.7480   41.6190 H   0  0  0  0  0  0  0  0  0  0  0  0
   47.6480   29.3570   46.5920 C   0  0  0  0  0  0  0  0  0  0  0  0
   48.9130   28.9370   46.2800 C   0  0  0  0  0  0  0  0  0  0  0  0
   48.8720   27.5720   46.6050 C   0  0  0  0  0  0  0  0  0  0  0  0
   47.6380   27.2350   47.0790 C   0  0  0  0  0  0  0  0  0  0  0  0
   46.9680   28.3620   47.0390 O   0  0  0  0  0  0  0  0  0  0  0  0
   49.7510   29.4870   45.8820 H   0  0  0  0  0  0  0  0  0  0  0  0
   49.7280   26.9760   46.4980 H   0  0  0  0  0  0  0  0  0  0  0  0
   46.9520   26.0600   47.5750 C   0  0  0  0  0  0  0  0  0  0  0  0
   47.3500   25.4890   48.7460 N   0  0  0  0  0  0  0  0  0  0  0  0
   46.8530   24.3640   49.2180 C   0  0  0  0  0  3  0  0  0  0  0  0
   45.8960   23.6590   48.5890 N   0  0  0  0  0  0  0  0  0  0  0  0
   45.4180   24.1400   47.4050 C   0  0  0  0  0  0  0  0  0  0  0  0
   44.4320   23.4920   46.7330 C   0  0  0  0  0  3  0  0  0  0  0  0
   43.9080   23.9730   45.5500 C   0  0  0  0  0  0  0  0  0  0  0  0
   43.1350   23.3680   45.1180 H   0  0  0  0  0  0  0  0  0  0  0  0
   44.4650   25.1710   45.0960 C   0  0  0  0  0  0  0  0  0  0  0  0
   44.0230   25.5220   44.1560 H   0  0  0  0  0  0  0  0  0  0  0  0
   45.4610   25.7940   45.8060 C   0  0  0  0  0  3  0  0  0  0  0  0
   45.9780   25.3140   46.9730 C   0  0  0  0  0  0  0  0  0  0  0  0
  1  9  1  0  0  0  0
  2  1  2  0  0  0  0
  2  3  1  0  0  0  0
  3  4  2  0  0  0  0
  4  8  1  0  0  0  0
  4  5  1  0  0  0  0
  5 12  1  0  0  0  0
  5  6  1  0  0  0  0
  6 13  1  0  0  0  0
  7  6  2  0  0  0  0
  8  7  1  0  0  0  0
  9 23  1  0  0  0  0
  9  8  2  0  0  0  0
 10  1  1  0  0  0  0
 11  3  1  0  0  0  0
 14 19  1  0  0  0  0
 15 16  1  0  0  0  0
 15 14  2  0  0  0  0
 16 17  2  0  0  0  0
 17 18  1  0  0  0  0
 18  2  1  0  0  0  0
 19 18  2  0  0  0  0
 20 14  1  0  0  0  0
 21 15  1  0  0  0  0
 22 16  1  0  0  0  0
 23 27  1  0  0  0  0
 24 23  2  0  0  0  0
 24 25  1  0  0  0  0
 25 26  2  0  0  0  0
 26 30  1  0  0  0  0
 27 26  1  0  0  0  0
 28 24  1  0  0  0  0
 29 25  1  0  0  0  0
 30 31  1  0  0  0  0
 31 32  2  0  0  0  0
 33 32  1  0  0  0  0
 34 33  2  0  0  0  0
 35 34  1  0  0  0  0
 36 35  2  0  0  0  0
 37 36  1  0  0  0  0
 38 36  1  0  0  0  0
 38 40  2  0  0  0  0
 39 38  1  0  0  0  0
 40 41  1  0  0  0  0
 41 34  1  0  0  0  0
 41 30  2  0  0  0  0
M  END
>  <minimizedAffinity>
-6.14947987

>  <minimizedRMSD>
1.27035761

$$$$
