
 OpenBabel03242523343D

 40 44  0  0  0  0  0  0  0  0999 V2000
   45.5070   33.2130   46.8840 C   0  0  0  0  0  0  0  0  0  0  0  0
   44.5640   33.1880   47.4780 H   0  0  0  0  0  0  0  0  0  0  0  0
   46.2430   33.7350   47.5240 H   0  0  0  0  0  0  0  0  0  0  0  0
   44.6010   35.9310   44.5290 C   0  0  0  0  0  0  0  0  0  0  0  0
   45.1080   35.4150   43.3450 C   0  0  0  0  0  0  0  0  0  0  0  0
   45.7570   34.1510   43.3330 C   0  0  0  0  0  0  0  0  0  0  0  0
   45.8420   33.5030   44.5370 N   0  0  0  0  0  0  0  0  0  0  0  0
   45.3390   34.0330   45.6700 C   0  0  0  0  0  0  0  0  0  0  0  0
   44.7370   35.2220   45.6400 N   0  0  0  0  0  0  0  0  0  0  0  0
   44.1100   36.8800   44.5530 H   0  0  0  0  0  0  0  0  0  0  0  0
   44.9690   36.0270   42.4870 H   0  0  0  0  0  0  0  0  0  0  0  0
   46.2160   33.7970   42.0110 C   0  0  0  0  0  0  0  0  0  0  0  0
   45.4310   33.8630   40.9210 N   0  0  0  0  0  0  0  0  0  0  0  0
   45.7560   33.5660   39.6840 C   0  0  0  0  0  3  0  0  0  0  0  0
   46.9870   33.1460   39.4060 N   0  0  0  0  0  0  0  0  0  0  0  0
   47.9170   33.0200   40.3970 C   0  0  0  0  0  0  0  0  0  0  0  0
   49.1980   32.5890   40.1390 C   0  0  0  0  0  3  0  0  0  0  0  0
   50.1220   32.4720   41.1560 C   0  0  0  0  0  0  0  0  0  0  0  0
   51.1040   32.1270   40.8690 H   0  0  0  0  0  0  0  0  0  0  0  0
   49.7130   32.8040   42.4450 C   0  0  0  0  0  0  0  0  0  0  0  0
   50.4420   32.7080   43.2320 H   0  0  0  0  0  0  0  0  0  0  0  0
   48.4180   33.2260   42.6300 C   0  0  0  0  0  3  0  0  0  0  0  0
   47.4660   33.3580   41.6500 C   0  0  0  0  0  0  0  0  0  0  0  0
   46.0590   31.5720   46.4010 S   0  0  0  0  0  0  0  0  0  0  0  0
   47.3360   30.9880   47.4910 C   0  0  0  0  0  0  0  0  0  0  0  0
   47.8390   31.8780   48.4090 C   0  0  0  0  0  0  0  0  0  0  0  0
   48.8190   31.4410   49.2710 C   0  0  0  0  0  0  0  0  0  0  0  0
   49.3050   30.1300   49.2300 C   0  0  0  0  0  0  0  0  0  0  0  0
   50.2570   29.7360   50.0910 N   0  0  0  0  0  0  0  0  0  0  0  0
   50.7370   28.4820   50.0790 C   0  0  0  0  0  0  0  0  0  0  0  0
   50.2390   27.5880   49.1640 C   0  0  0  0  0  0  0  0  0  0  0  0
   49.2530   27.9910   48.2700 C   0  0  0  0  0  0  0  0  0  0  0  0
   48.7420   29.2910   48.2690 C   0  0  0  0  0  0  0  0  0  0  0  0
   47.7640   29.6930   47.3940 C   0  0  0  0  0  0  0  0  0  0  0  0
   47.5860   32.9120   48.5770 H   0  0  0  0  0  0  0  0  0  0  0  0
   49.2820   32.0720   50.0350 H   0  0  0  0  0  0  0  0  0  0  0  0
   51.5040   28.1710   50.7760 H   0  0  0  0  0  0  0  0  0  0  0  0
   50.6380   26.5840   49.1710 H   0  0  0  0  0  0  0  0  0  0  0  0
   48.8630   27.2760   47.5470 H   0  0  0  0  0  0  0  0  0  0  0  0
   47.3650   29.0170   46.6780 H   0  0  0  0  0  0  0  0  0  0  0  0
  1  2  1  0  0  0  0
  1  3  1  0  0  0  0
  4 10  1  0  0  0  0
  4  9  1  0  0  0  0
  5  4  2  0  0  0  0
  6  5  1  0  0  0  0
  6  7  2  0  0  0  0
  7  8  1  0  0  0  0
  8  1  1  0  0  0  0
  9  8  2  0  0  0  0
 11  5  1  0  0  0  0
 12  6  1  0  0  0  0
 13 12  2  0  0  0  0
 14 13  1  0  0  0  0
 15 14  2  0  0  0  0
 15 16  1  0  0  0  0
 16 23  1  0  0  0  0
 17 16  2  0  0  0  0
 17 18  1  0  0  0  0
 18 20  2  0  0  0  0
 19 18  1  0  0  0  0
 20 22  1  0  0  0  0
 20 21  1  0  0  0  0
 23 12  1  0  0  0  0
 23 22  2  0  0  0  0
 24  1  1  0  0  0  0
 24 25  1  0  0  0  0
 25 26  1  0  0  0  0
 26 35  1  0  0  0  0
 26 27  2  0  0  0  0
 27 36  1  0  0  0  0
 28 27  1  0  0  0  0
 28 29  1  0  0  0  0
 30 29  2  0  0  0  0
 30 37  1  0  0  0  0
 31 38  1  0  0  0  0
 31 30  1  0  0  0  0
 32 31  2  0  0  0  0
 33 32  1  0  0  0  0
 33 28  2  0  0  0  0
 34 25  2  0  0  0  0
 34 33  1  0  0  0  0
 39 32  1  0  0  0  0
 40 34  1  0  0  0  0
M  END
>  <minimizedAffinity>
-6.102458

>  <minimizedRMSD>
0.908453286

$$$$
