
 OpenBabel03252507433D

 34 37  0  0  0  0  0  0  0  0999 V2000
   44.4970   34.5900   41.1630 C   0  0  0  0  0  0  0  0  0  0  0  0
   43.5870   35.6580   41.4350 C   0  0  0  0  0  0  0  0  0  0  0  0
   42.0490   35.0750   40.5670 S   0  0  0  0  0  0  0  0  0  0  0  0
   42.9240   33.5040   40.0020 C   0  0  0  0  0  0  0  0  0  0  0  0
   43.9630   33.6410   40.4450 N   0  0  0  0  0  0  0  0  0  0  0  0
   43.7860   36.5530   42.0030 H   0  0  0  0  0  0  0  0  0  0  0  0
   42.0470   32.6320   39.2070 C   0  0  0  0  0  0  0  0  0  0  0  0
   40.7450   32.3830   39.4340 N   0  0  0  0  0  0  0  0  0  0  0  0
   40.0060   31.5790   38.6710 C   0  0  0  0  0  3  0  0  0  0  0  0
   40.5170   30.9490   37.6010 N   0  0  0  0  0  0  0  0  0  0  0  0
   41.8010   31.1310   37.2900 C   0  0  0  0  0  0  0  0  0  0  0  0
   42.3330   30.4880   36.1940 C   0  0  0  0  0  3  0  0  0  0  0  0
   43.6750   30.6830   35.8730 C   0  0  0  0  0  0  0  0  0  0  0  0
   44.0500   30.1580   35.0050 H   0  0  0  0  0  0  0  0  0  0  0  0
   44.4070   31.5260   36.6940 C   0  0  0  0  0  0  0  0  0  0  0  0
   45.4400   31.5950   36.3390 H   0  0  0  0  0  0  0  0  0  0  0  0
   43.8550   32.1570   37.7840 C   0  0  0  0  0  3  0  0  0  0  0  0
   42.5310   31.9700   38.1050 C   0  0  0  0  0  0  0  0  0  0  0  0
   45.8800   34.6340   41.6820 C   0  0  0  0  0  0  0  0  0  0  0  0
   45.9250   33.9040   42.5410 H   0  0  0  0  0  0  0  0  0  0  0  0
   46.1050   35.6220   42.1370 H   0  0  0  0  0  0  0  0  0  0  0  0
   46.9410   34.2650   40.7150 C   0  0  0  0  0  0  0  0  0  0  0  0
   46.6500   33.4310   40.0820 H   0  0  0  0  0  0  0  0  0  0  0  0
   47.0470   35.1440   40.0100 H   0  0  0  0  0  0  0  0  0  0  0  0
   48.2780   34.0900   41.3210 C   0  0  0  0  0  0  0  0  0  0  0  0
   48.9300   32.8700   41.0320 C   0  0  0  0  0  0  0  0  0  0  0  0
   50.1870   32.6290   41.5590 C   0  0  0  0  0  0  0  0  0  0  0  0
   50.7450   33.6030   42.3470 N   0  0  0  0  0  0  0  0  0  0  0  0
   50.0840   34.7550   42.5980 C   0  0  0  0  0  0  0  0  0  0  0  0
   48.8770   34.9860   42.0920 N   0  0  0  0  0  0  0  0  0  0  0  0
   50.6890   31.7080   41.3460 H   0  0  0  0  0  0  0  0  0  0  0  0
   50.5870   35.4900   43.2360 H   0  0  0  0  0  0  0  0  0  0  0  0
   48.1370   31.6410   39.9950 S   0  0  0  0  0  0  0  0  0  0  0  0
   47.1940   30.9640   40.8230 H   0  0  0  0  0  0  0  0  0  0  0  0
  1  2  2  0  0  0  0
  1 19  1  0  0  0  0
  2  6  1  0  0  0  0
  3  2  1  0  0  0  0
  4  5  2  0  0  0  0
  4  3  1  0  0  0  0
  5  1  1  0  0  0  0
  7  8  1  0  0  0  0
  7  4  1  0  0  0  0
  9  8  2  0  0  0  0
 10  9  1  0  0  0  0
 11 10  2  0  0  0  0
 11 18  1  0  0  0  0
 12 11  1  0  0  0  0
 13 12  2  0  0  0  0
 13 15  1  0  0  0  0
 14 13  1  0  0  0  0
 15 17  2  0  0  0  0
 16 15  1  0  0  0  0
 17 18  1  0  0  0  0
 18  7  2  0  0  0  0
 19 21  1  0  0  0  0
 19 20  1  0  0  0  0
 22 25  1  0  0  0  0
 22 19  1  0  0  0  0
 23 22  1  0  0  0  0
 24 22  1  0  0  0  0
 25 30  1  0  0  0  0
 26 25  2  0  0  0  0
 26 27  1  0  0  0  0
 27 28  2  0  0  0  0
 28 29  1  0  0  0  0
 29 32  1  0  0  0  0
 30 29  2  0  0  0  0
 31 27  1  0  0  0  0
 33 34  1  0  0  0  0
 33 26  1  0  0  0  0
M  END
>  <minimizedAffinity>
-4.83024263

>  <minimizedRMSD>
1.03949952

$$$$
