
 OpenBabel03242512493D

 33 36  0  0  1  0  0  0  0  0999 V2000
   47.1510   34.3730   42.6480 N   0  0  0  0  0  0  0  0  0  0  0  0
   48.5090   33.8380   42.6170 C   0  0  0  0  0  0  0  0  0  0  0  0
   49.1100   34.8380   41.6670 C   0  0  0  0  0  0  0  0  0  0  0  0
   48.1170   34.7730   40.5280 C   0  0  0  0  0  0  0  0  0  0  0  0
   46.7900   34.6780   41.2620 C   0  0  1  0  0  0  0  0  0  0  0  0
   48.4730   32.8300   42.2060 H   0  0  0  0  0  0  0  0  0  0  0  0
   48.9440   33.8850   43.6380 H   0  0  0  0  0  0  0  0  0  0  0  0
   50.1410   34.5200   41.3390 H   0  0  0  0  0  0  0  0  0  0  0  0
   49.1130   35.8300   42.1410 H   0  0  0  0  0  0  0  0  0  0  0  0
   48.2090   35.7430   39.9920 H   0  0  0  0  0  0  0  0  0  0  0  0
   48.2930   33.9250   39.8710 H   0  0  0  0  0  0  0  0  0  0  0  0
   46.2940   35.6480   41.2780 H   0  0  0  0  0  0  0  0  0  0  0  0
   45.9750   33.5400   40.8060 C   0  0  0  0  0  0  0  0  0  0  0  0
   46.4920   32.3090   40.6320 N   0  0  0  0  0  0  0  0  0  0  0  0
   45.7920   31.2370   40.2190 C   0  0  0  0  0  0  0  0  0  0  0  0
   44.4860   31.3970   39.9580 N   0  0  0  0  0  0  0  0  0  0  0  0
   43.9240   32.5880   40.1110 C   0  0  0  0  0  0  0  0  0  0  0  0
   42.5760   32.6770   39.8240 C   0  0  0  0  0  0  0  0  0  0  0  0
   41.9820   33.9330   39.9850 C   0  0  0  0  0  0  0  0  0  0  0  0
   40.9130   34.0570   39.7700 H   0  0  0  0  0  0  0  0  0  0  0  0
   42.6410   35.0710   40.4060 C   0  0  0  0  0  0  0  0  0  0  0  0
   42.1270   35.9950   40.5060 H   0  0  0  0  0  0  0  0  0  0  0  0
   43.9850   34.9020   40.6740 C   0  0  0  0  0  0  0  0  0  0  0  0
   44.6260   33.7100   40.5370 C   0  0  0  0  0  0  0  0  0  0  0  0
   44.5180   35.7370   44.8920 C   0  0  0  0  0  0  0  0  0  0  0  0
   45.3300   35.6420   43.7650 C   0  0  0  0  0  0  0  0  0  0  0  0
   46.2620   34.6000   43.7210 C   0  0  0  0  0  0  0  0  0  0  0  0
   46.3320   33.7320   44.7810 N   0  0  0  0  0  0  0  0  0  0  0  0
   45.5250   33.8540   45.8670 C   0  0  0  0  0  0  0  0  0  0  0  0
   44.6160   34.8680   45.9130 N   0  0  0  0  0  0  0  0  0  0  0  0
   43.8220   36.5700   44.8500 H   0  0  0  0  0  0  0  0  0  0  0  0
   45.2900   36.3150   42.9180 H   0  0  0  0  0  0  0  0  0  0  0  0
   45.6040   33.1540   46.6870 H   0  0  0  0  0  0  0  0  0  0  0  0
  1 27  1  0  0  0  0
  2  1  1  0  0  0  0
  2  7  1  0  0  0  0
  3  9  1  0  0  0  0
  3  2  1  0  0  0  0
  4  5  1  0  0  0  0
  4  3  1  0  0  0  0
  5 12  1  6  0  0  0
  5  1  1  0  0  0  0
  6  2  1  0  0  0  0
  8  3  1  0  0  0  0
 10  4  1  0  0  0  0
 11  4  1  0  0  0  0
 13  5  1  0  0  0  0
 14 13  1  0  0  0  0
 15 14  2  0  0  0  0
 16 17  2  0  0  0  0
 16 15  1  0  0  0  0
 17 24  1  0  0  0  0
 18 19  2  0  0  0  0
 18 17  1  0  0  0  0
 19 21  1  0  0  0  0
 20 19  1  0  0  0  0
 21 22  1  0  0  0  0
 21 23  2  0  0  0  0
 24 23  1  0  0  0  0
 24 13  2  0  0  0  0
 25 30  1  0  0  0  0
 26 25  2  0  0  0  0
 27 26  1  0  0  0  0
 27 28  2  0  0  0  0
 28 29  1  0  0  0  0
 29 30  2  0  0  0  0
 29 33  1  0  0  0  0
 31 25  1  0  0  0  0
 32 26  1  0  0  0  0
M  END
>  <minimizedAffinity>
-5.48071575

>  <minimizedRMSD>
1.59747946

$$$$
