
 OpenBabel03242523383D

 22 24  0  0  1  0  0  0  0  0999 V2000
   46.5700   32.4210   44.9510 C   0  0  2  0  0  0  0  0  0  0  0  0
   47.2470   31.3990   44.9380 N   0  0  0  0  0  0  0  0  0  0  0  0
   47.9560   30.4220   44.7340 C   0  0  0  0  0  0  0  0  0  0  0  0
   47.7830   30.0750   46.0180 N   0  0  0  0  0  0  0  0  0  0  0  0
   47.0260   30.8270   46.8560 C   0  0  0  0  0  0  0  0  0  0  0  0
   46.9580   30.3030   48.1740 C   0  0  0  0  0  0  0  0  0  0  0  0
   46.2100   31.0180   49.0570 C   0  0  0  0  0  0  0  0  0  0  0  0
   46.1820   30.5910   50.0410 H   0  0  0  0  0  0  0  0  0  0  0  0
   45.5320   32.1800   48.7770 C   0  0  0  0  0  0  0  0  0  0  0  0
   44.9430   32.7480   49.4580 H   0  0  0  0  0  0  0  0  0  0  0  0
   45.7000   32.5560   47.4470 C   0  0  0  0  0  0  0  0  0  0  0  0
   46.4050   32.0120   46.3440 C   0  0  0  0  0  0  0  0  0  0  0  0
   44.5450   35.5270   45.2500 C   0  0  0  0  0  0  0  0  0  0  0  0
   44.2590   35.6180   43.8840 C   0  0  0  0  0  0  0  0  0  0  0  0
   44.7800   34.6340   43.0420 C   0  0  0  0  0  0  0  0  0  0  0  0
   45.5230   33.6720   43.6410 N   0  0  0  0  0  0  0  0  0  0  0  0
   45.7840   33.6050   44.9650 C   0  0  0  0  0  0  0  0  0  0  0  0
   45.2800   34.5380   45.6930 N   0  0  0  0  0  0  0  0  0  0  0  0
   44.2160   36.2080   46.0230 H   0  0  0  0  0  0  0  0  0  0  0  0
   43.6620   36.4300   43.5670 H   0  0  0  0  0  0  0  0  0  0  0  0
   44.4260   34.7380   41.3010 S   0  0  0  0  0  0  0  0  0  0  0  0
   45.2530   33.9240   40.5310 H   0  0  0  0  0  0  0  0  0  0  0  0
  1 17  1  6  0  0  0
  1 12  1  0  0  0  0
  2  1  1  0  0  0  0
  3  2  1  0  0  0  0
  3  4  1  0  0  0  0
  4  5  1  0  0  0  0
  5  6  1  0  0  0  0
  6  7  2  0  0  0  0
  7  8  1  0  0  0  0
  9  7  1  0  0  0  0
  9 10  1  0  0  0  0
 11  9  2  0  0  0  0
 12  5  2  0  0  0  0
 12 11  1  0  0  0  0
 13 18  1  0  0  0  0
 13 19  1  0  0  0  0
 14 13  2  0  0  0  0
 15 16  2  0  0  0  0
 15 14  1  0  0  0  0
 16 17  1  0  0  0  0
 17 18  2  0  0  0  0
 20 14  1  0  0  0  0
 21 15  1  0  0  0  0
 22 21  1  0  0  0  0
M  END
>  <minimizedAffinity>
-5.05977011

>  <minimizedRMSD>
2.20515084

$$$$
