
 OpenBabel03252509253D

 30 33  0  0  1  0  0  0  0  0999 V2000
   36.7450   28.5590   40.1940 C   0  0  1  0  0  0  0  0  0  0  0  0
   35.9400   27.6850   39.1970 C   0  0  0  0  0  0  0  0  0  0  0  0
   37.3930   27.4020   39.6980 C   0  0  2  0  0  0  0  0  0  0  0  0
   36.2720   28.6320   41.1890 H   0  0  0  0  0  0  0  0  0  0  0  0
   35.8300   28.0060   38.1670 H   0  0  0  0  0  0  0  0  0  0  0  0
   35.1480   27.0930   39.6490 H   0  0  0  0  0  0  0  0  0  0  0  0
   38.1610   27.5320   38.8810 H   0  0  0  0  0  0  0  0  0  0  0  0
   37.5190   26.1150   40.3840 C   0  0  0  0  0  0  0  0  0  0  0  0
   36.7290   25.0940   39.9720 N   0  0  0  0  0  0  0  0  0  0  0  0
   36.8330   23.9020   40.5950 C   0  0  0  0  0  3  0  0  0  0  0  0
   37.6860   23.6470   41.6200 N   0  0  0  0  0  0  0  0  0  0  0  0
   38.4940   24.6420   42.0630 C   0  0  0  0  0  0  0  0  0  0  0  0
   39.3950   24.4890   43.0960 C   0  0  0  0  0  3  0  0  0  0  0  0
   40.2080   25.5160   43.5270 C   0  0  0  0  0  0  0  0  0  0  0  0
   40.9150   25.4030   44.3350 H   0  0  0  0  0  0  0  0  0  0  0  0
   40.1090   26.7460   42.8930 C   0  0  0  0  0  0  0  0  0  0  0  0
   40.7440   27.5490   43.2310 H   0  0  0  0  0  0  0  0  0  0  0  0
   39.2040   26.8690   41.8690 C   0  0  0  0  0  3  0  0  0  0  0  0
   38.3840   25.8530   41.4250 C   0  0  0  0  0  0  0  0  0  0  0  0
   36.9750   32.2610   39.5670 C   0  0  0  0  0  0  0  0  0  0  0  0
   36.5810   31.0400   40.1740 C   0  0  0  0  0  0  0  0  0  0  0  0
   37.0550   29.9010   39.5700 C   0  0  0  0  0  0  0  0  0  0  0  0
   37.8620   29.9740   38.4410 N   0  0  0  0  0  0  0  0  0  0  0  0
   38.2070   31.1510   37.9050 C   0  0  0  0  0  0  0  0  0  0  0  0
   37.7560   32.3010   38.4770 N   0  0  0  0  0  0  0  0  0  0  0  0
   36.6150   33.1780   40.0260 H   0  0  0  0  0  0  0  0  0  0  0  0
   38.8270   31.0690   37.0430 H   0  0  0  0  0  0  0  0  0  0  0  0
   35.7280   30.9710   41.3200 N   0  0  0  0  0  0  0  0  0  0  0  0
   34.8170   30.8620   40.8090 H   0  0  0  0  0  0  0  0  0  0  0  0
   36.0120   31.0230   42.3240 H   0  0  0  0  0  0  0  0  0  0  0  0
  1  4  1  1  0  0  0
  2  6  1  0  0  0  0
  2  3  1  0  0  0  0
  2  1  1  0  0  0  0
  3  7  1  6  0  0  0
  3  1  1  0  0  0  0
  3  8  1  0  0  0  0
  5  2  1  0  0  0  0
  8 19  1  0  0  0  0
  9  8  2  0  0  0  0
  9 10  1  0  0  0  0
 10 11  2  0  0  0  0
 11 12  1  0  0  0  0
 12 13  1  0  0  0  0
 13 14  2  0  0  0  0
 14 15  1  0  0  0  0
 16 17  1  0  0  0  0
 16 14  1  0  0  0  0
 18 16  2  0  0  0  0
 19 18  1  0  0  0  0
 19 12  2  0  0  0  0
 20 26  1  0  0  0  0
 20 21  1  0  0  0  0
 21 28  1  0  0  0  0
 22 21  2  0  0  0  0
 22  1  1  0  0  0  0
 23 22  1  0  0  0  0
 24 23  2  0  0  0  0
 24 25  1  0  0  0  0
 25 20  2  0  0  0  0
 27 24  1  0  0  0  0
 28 30  1  0  0  0  0
 29 28  1  0  0  0  0
M  END
>  <minimizedAffinity>
-5.6037035

$$$$

 OpenBabel03252509253D

 30 33  0  0  1  0  0  0  0  0999 V2000
   35.9210   29.1730   39.0240 C   0  0  1  0  0  0  0  0  0  0  0  0
   35.4610   28.9000   37.5690 C   0  0  0  0  0  0  0  0  0  0  0  0
   36.5340   28.0840   38.3600 C   0  0  2  0  0  0  0  0  0  0  0  0
   35.1060   29.0770   39.7630 H   0  0  0  0  0  0  0  0  0  0  0  0
   35.8210   29.5300   36.7620 H   0  0  0  0  0  0  0  0  0  0  0  0
   34.4770   28.4470   37.4800 H   0  0  0  0  0  0  0  0  0  0  0  0
   37.5740   28.2300   37.9470 H   0  0  0  0  0  0  0  0  0  0  0  0
   36.1830   26.6690   38.5030 C   0  0  0  0  0  0  0  0  0  0  0  0
   35.5330   26.0690   37.4790 N   0  0  0  0  0  0  0  0  0  0  0  0
   35.2010   24.7660   37.5970 C   0  0  0  0  0  3  0  0  0  0  0  0
   35.4790   24.0020   38.6850 N   0  0  0  0  0  0  0  0  0  0  0  0
   36.1290   24.5660   39.7320 C   0  0  0  0  0  0  0  0  0  0  0  0
   36.4590   23.8810   40.8830 C   0  0  0  0  0  3  0  0  0  0  0  0
   37.1220   24.4760   41.9350 C   0  0  0  0  0  0  0  0  0  0  0  0
   37.3820   23.9460   42.8380 H   0  0  0  0  0  0  0  0  0  0  0  0
   37.4670   25.8160   41.8240 C   0  0  0  0  0  0  0  0  0  0  0  0
   37.9850   26.2810   42.6460 H   0  0  0  0  0  0  0  0  0  0  0  0
   37.1260   26.4720   40.6680 C   0  0  0  0  0  3  0  0  0  0  0  0
   36.4640   25.8920   39.6070 C   0  0  0  0  0  0  0  0  0  0  0  0
   37.3220   32.4410   40.2540 C   0  0  0  0  0  0  0  0  0  0  0  0
   36.5530   31.2480   40.2410 C   0  0  0  0  0  0  0  0  0  0  0  0
   36.6500   30.4970   39.0950 C   0  0  0  0  0  0  0  0  0  0  0  0
   37.4540   30.9050   38.0380 N   0  0  0  0  0  0  0  0  0  0  0  0
   38.1620   32.0410   38.0980 C   0  0  0  0  0  0  0  0  0  0  0  0
   38.0910   32.8100   39.2190 N   0  0  0  0  0  0  0  0  0  0  0  0
   37.2650   33.0540   41.1490 H   0  0  0  0  0  0  0  0  0  0  0  0
   38.7370   32.2390   37.2240 H   0  0  0  0  0  0  0  0  0  0  0  0
   35.7060   30.8470   41.3210 N   0  0  0  0  0  0  0  0  0  0  0  0
   34.8140   31.2730   40.9650 H   0  0  0  0  0  0  0  0  0  0  0  0
   35.9780   30.2980   42.1670 H   0  0  0  0  0  0  0  0  0  0  0  0
  1 22  1  0  0  0  0
  1  4  1  1  0  0  0
  2  3  1  0  0  0  0
  2  1  1  0  0  0  0
  3  7  1  6  0  0  0
  3  8  1  0  0  0  0
  3  1  1  0  0  0  0
  5  2  1  0  0  0  0
  6  2  1  0  0  0  0
  8 19  1  0  0  0  0
  9 10  1  0  0  0  0
  9  8  2  0  0  0  0
 10 11  2  0  0  0  0
 11 12  1  0  0  0  0
 12 13  1  0  0  0  0
 13 14  2  0  0  0  0
 14 15  1  0  0  0  0
 16 14  1  0  0  0  0
 16 17  1  0  0  0  0
 18 16  2  0  0  0  0
 19 12  2  0  0  0  0
 19 18  1  0  0  0  0
 20 26  1  0  0  0  0
 21 20  1  0  0  0  0
 21 28  1  0  0  0  0
 22 21  2  0  0  0  0
 23 24  2  0  0  0  0
 23 22  1  0  0  0  0
 24 25  1  0  0  0  0
 25 20  2  0  0  0  0
 27 24  1  0  0  0  0
 28 30  1  0  0  0  0
 29 28  1  0  0  0  0
M  END
>  <minimizedAffinity>
-5.58841896

$$$$

 OpenBabel03252509253D

 30 33  0  0  1  0  0  0  0  0999 V2000
   38.7700   29.7960   42.3740 C   0  0  1  0  0  0  0  0  0  0  0  0
   37.3700   29.2470   42.7510 C   0  0  0  0  0  0  0  0  0  0  0  0
   38.4030   28.5520   41.8070 C   0  0  2  0  0  0  0  0  0  0  0  0
   39.4400   29.9130   43.2440 H   0  0  0  0  0  0  0  0  0  0  0  0
   36.4840   29.6650   42.2860 H   0  0  0  0  0  0  0  0  0  0  0  0
   37.2930   28.8510   43.7610 H   0  0  0  0  0  0  0  0  0  0  0  0
   38.0600   28.5380   40.7320 H   0  0  0  0  0  0  0  0  0  0  0  0
   38.8080   27.2270   42.2820 C   0  0  0  0  0  0  0  0  0  0  0  0
   39.7690   27.1590   43.2340 N   0  0  0  0  0  0  0  0  0  0  0  0
   40.1540   25.9450   43.6800 C   0  0  0  0  0  3  0  0  0  0  0  0
   39.6380   24.7690   43.2370 N   0  0  0  0  0  0  0  0  0  0  0  0
   38.6740   24.7950   42.2840 C   0  0  0  0  0  0  0  0  0  0  0  0
   38.0850   23.6600   41.7670 C   0  0  0  0  0  3  0  0  0  0  0  0
   37.1040   23.7110   40.7980 C   0  0  0  0  0  0  0  0  0  0  0  0
   36.6390   22.8270   40.3890 H   0  0  0  0  0  0  0  0  0  0  0  0
   36.7020   24.9540   40.3330 C   0  0  0  0  0  0  0  0  0  0  0  0
   35.9360   24.9940   39.5750 H   0  0  0  0  0  0  0  0  0  0  0  0
   37.3050   26.0650   40.8650 C   0  0  0  0  0  3  0  0  0  0  0  0
   38.2860   26.0320   41.8340 C   0  0  0  0  0  0  0  0  0  0  0  0
   39.4890   33.0520   40.6320 C   0  0  0  0  0  0  0  0  0  0  0  0
   39.6780   31.9340   41.4860 C   0  0  0  0  0  0  0  0  0  0  0  0
   38.6250   31.0540   41.5460 C   0  0  0  0  0  0  0  0  0  0  0  0
   37.4670   31.2730   40.8110 N   0  0  0  0  0  0  0  0  0  0  0  0
   37.3360   32.3450   40.0190 C   0  0  0  0  0  0  0  0  0  0  0  0
   38.3590   33.2380   39.9330 N   0  0  0  0  0  0  0  0  0  0  0  0
   40.3070   33.7640   40.5640 H   0  0  0  0  0  0  0  0  0  0  0  0
   36.4010   32.3950   39.5110 H   0  0  0  0  0  0  0  0  0  0  0  0
   40.8620   31.7280   42.2610 N   0  0  0  0  0  0  0  0  0  0  0  0
   40.5300   32.1850   43.1460 H   0  0  0  0  0  0  0  0  0  0  0  0
   41.7430   31.2560   41.9560 H   0  0  0  0  0  0  0  0  0  0  0  0
  1  2  1  0  0  0  0
  1  4  1  1  0  0  0
  2  6  1  0  0  0  0
  3  7  1  6  0  0  0
  3  8  1  0  0  0  0
  3  1  1  0  0  0  0
  3  2  1  0  0  0  0
  5  2  1  0  0  0  0
  8  9  1  0  0  0  0
  9 10  2  0  0  0  0
 11 10  1  0  0  0  0
 12 11  2  0  0  0  0
 13 12  1  0  0  0  0
 14 13  2  0  0  0  0
 15 14  1  0  0  0  0
 16 14  1  0  0  0  0
 16 18  2  0  0  0  0
 17 16  1  0  0  0  0
 18 19  1  0  0  0  0
 19  8  2  0  0  0  0
 19 12  1  0  0  0  0
 20 21  1  0  0  0  0
 21 22  2  0  0  0  0
 21 28  1  0  0  0  0
 22  1  1  0  0  0  0
 23 22  1  0  0  0  0
 24 23  2  0  0  0  0
 25 24  1  0  0  0  0
 25 20  2  0  0  0  0
 26 20  1  0  0  0  0
 27 24  1  0  0  0  0
 28 29  1  0  0  0  0
 30 28  1  0  0  0  0
M  END
>  <minimizedAffinity>
-5.53728962

$$$$

 OpenBabel03252509253D

 30 33  0  0  1  0  0  0  0  0999 V2000
   39.2520   32.2870   40.9250 C   0  0  1  0  0  0  0  0  0  0  0  0
   38.0360   32.9520   40.2290 C   0  0  0  0  0  0  0  0  0  0  0  0
   38.5060   31.4730   40.0380 C   0  0  2  0  0  0  0  0  0  0  0  0
   39.1610   32.2580   42.0250 H   0  0  0  0  0  0  0  0  0  0  0  0
   38.1960   33.6290   39.3970 H   0  0  0  0  0  0  0  0  0  0  0  0
   37.1730   33.1060   40.8710 H   0  0  0  0  0  0  0  0  0  0  0  0
   38.9260   31.2870   39.0070 H   0  0  0  0  0  0  0  0  0  0  0  0
   37.4810   30.4960   40.4090 C   0  0  0  0  0  0  0  0  0  0  0  0
   36.3050   30.5230   39.7360 N   0  0  0  0  0  0  0  0  0  0  0  0
   35.3500   29.6290   40.0680 C   0  0  0  0  0  3  0  0  0  0  0  0
   35.4850   28.6910   41.0390 N   0  0  0  0  0  0  0  0  0  0  0  0
   36.6470   28.6310   41.7350 C   0  0  0  0  0  0  0  0  0  0  0  0
   36.8870   27.7180   42.7410 C   0  0  0  0  0  3  0  0  0  0  0  0
   38.0780   27.6760   43.4340 C   0  0  0  0  0  0  0  0  0  0  0  0
   38.2720   26.9640   44.2220 H   0  0  0  0  0  0  0  0  0  0  0  0
   39.0670   28.5900   43.1020 C   0  0  0  0  0  0  0  0  0  0  0  0
   39.9980   28.5580   43.6440 H   0  0  0  0  0  0  0  0  0  0  0  0
   38.8010   29.4870   42.0980 C   0  0  0  0  0  3  0  0  0  0  0  0
   37.6160   29.5430   41.3950 C   0  0  0  0  0  0  0  0  0  0  0  0
   42.8610   33.2990   40.6010 C   0  0  0  0  0  0  0  0  0  0  0  0
   41.6880   32.7290   41.1620 C   0  0  0  0  0  0  0  0  0  0  0  0
   40.5360   32.9220   40.4390 C   0  0  0  0  0  0  0  0  0  0  0  0
   40.5510   33.6320   39.2440 N   0  0  0  0  0  0  0  0  0  0  0  0
   41.6860   34.1500   38.7560 C   0  0  0  0  0  0  0  0  0  0  0  0
   42.8470   33.9780   39.4450 N   0  0  0  0  0  0  0  0  0  0  0  0
   43.7870   33.1600   41.1520 H   0  0  0  0  0  0  0  0  0  0  0  0
   41.5620   34.6700   37.8340 H   0  0  0  0  0  0  0  0  0  0  0  0
   41.6730   32.0240   42.4060 N   0  0  0  0  0  0  0  0  0  0  0  0
   41.4200   32.8350   43.0230 H   0  0  0  0  0  0  0  0  0  0  0  0
   41.8680   31.0090   42.5590 H   0  0  0  0  0  0  0  0  0  0  0  0
  1  4  1  1  0  0  0
  2  6  1  0  0  0  0
  2  1  1  0  0  0  0
  3  7  1  6  0  0  0
  3  2  1  0  0  0  0
  3  8  1  0  0  0  0
  3  1  1  0  0  0  0
  5  2  1  0  0  0  0
  8 19  1  0  0  0  0
  9 10  1  0  0  0  0
  9  8  2  0  0  0  0
 10 11  2  0  0  0  0
 11 12  1  0  0  0  0
 12 13  1  0  0  0  0
 13 14  2  0  0  0  0
 14 15  1  0  0  0  0
 16 14  1  0  0  0  0
 16 17  1  0  0  0  0
 18 16  2  0  0  0  0
 19 12  2  0  0  0  0
 19 18  1  0  0  0  0
 20 26  1  0  0  0  0
 20 21  1  0  0  0  0
 21 28  1  0  0  0  0
 22  1  1  0  0  0  0
 22 21  2  0  0  0  0
 23 22  1  0  0  0  0
 24 23  2  0  0  0  0
 24 25  1  0  0  0  0
 25 20  2  0  0  0  0
 27 24  1  0  0  0  0
 28 30  1  0  0  0  0
 28 29  1  0  0  0  0
M  END
>  <minimizedAffinity>
-5.52785683

$$$$

 OpenBabel03252509253D

 30 33  0  0  1  0  0  0  0  0999 V2000
   40.3620   32.3600   41.0410 C   0  0  1  0  0  0  0  0  0  0  0  0
   39.0000   33.0870   40.8900 C   0  0  0  0  0  0  0  0  0  0  0  0
   39.3220   31.6330   40.4140 C   0  0  2  0  0  0  0  0  0  0  0  0
   40.6700   32.2280   42.0930 H   0  0  0  0  0  0  0  0  0  0  0  0
   38.8740   33.8390   40.1190 H   0  0  0  0  0  0  0  0  0  0  0  0
   38.4300   33.1790   41.8100 H   0  0  0  0  0  0  0  0  0  0  0  0
   39.3390   31.5450   39.2890 H   0  0  0  0  0  0  0  0  0  0  0  0
   38.4650   30.6250   41.0410 C   0  0  0  0  0  0  0  0  0  0  0  0
   38.7890   30.2000   42.2850 N   0  0  0  0  0  0  0  0  0  0  0  0
   38.0100   29.2690   42.8750 C   0  0  0  0  0  3  0  0  0  0  0  0
   36.9070   28.7220   42.3030 N   0  0  0  0  0  0  0  0  0  0  0  0
   36.5480   29.1220   41.0580 C   0  0  0  0  0  0  0  0  0  0  0  0
   35.4470   28.6300   40.3880 C   0  0  0  0  0  3  0  0  0  0  0  0
   35.1020   29.0530   39.1220 C   0  0  0  0  0  0  0  0  0  0  0  0
   34.2420   28.6720   38.5920 H   0  0  0  0  0  0  0  0  0  0  0  0
   35.8970   30.0080   38.5060 C   0  0  0  0  0  0  0  0  0  0  0  0
   35.6270   30.3380   37.5160 H   0  0  0  0  0  0  0  0  0  0  0  0
   36.9850   30.4790   39.1960 C   0  0  0  0  0  3  0  0  0  0  0  0
   37.3450   30.0680   40.4620 C   0  0  0  0  0  0  0  0  0  0  0  0
   43.4940   34.1070   39.9060 C   0  0  0  0  0  0  0  0  0  0  0  0
   42.5300   33.5500   40.7870 C   0  0  0  0  0  0  0  0  0  0  0  0
   41.4070   33.0390   40.1840 C   0  0  0  0  0  0  0  0  0  0  0  0
   41.2540   33.0810   38.8040 N   0  0  0  0  0  0  0  0  0  0  0  0
   42.1930   33.6180   38.0140 C   0  0  0  0  0  0  0  0  0  0  0  0
   43.3200   34.1330   38.5760 N   0  0  0  0  0  0  0  0  0  0  0  0
   44.3940   34.5180   40.3560 H   0  0  0  0  0  0  0  0  0  0  0  0
   41.9540   33.5870   36.9760 H   0  0  0  0  0  0  0  0  0  0  0  0
   42.6810   33.5350   42.2080 N   0  0  0  0  0  0  0  0  0  0  0  0
   42.1650   34.4260   42.4130 H   0  0  0  0  0  0  0  0  0  0  0  0
   43.1730   32.8150   42.7840 H   0  0  0  0  0  0  0  0  0  0  0  0
  1  4  1  1  0  0  0
  2  1  1  0  0  0  0
  2  6  1  0  0  0  0
  3  7  1  6  0  0  0
  3  2  1  0  0  0  0
  3  8  1  0  0  0  0
  3  1  1  0  0  0  0
  5  2  1  0  0  0  0
  8  9  1  0  0  0  0
  9 10  2  0  0  0  0
 11 10  1  0  0  0  0
 12 11  2  0  0  0  0
 13 12  1  0  0  0  0
 14 13  2  0  0  0  0
 15 14  1  0  0  0  0
 16 14  1  0  0  0  0
 16 18  2  0  0  0  0
 17 16  1  0  0  0  0
 18 19  1  0  0  0  0
 19  8  2  0  0  0  0
 19 12  1  0  0  0  0
 20 26  1  0  0  0  0
 20 21  1  0  0  0  0
 21 28  1  0  0  0  0
 22 21  2  0  0  0  0
 22  1  1  0  0  0  0
 23 22  1  0  0  0  0
 24 25  1  0  0  0  0
 24 23  2  0  0  0  0
 25 20  2  0  0  0  0
 27 24  1  0  0  0  0
 28 29  1  0  0  0  0
 28 30  1  0  0  0  0
M  END
>  <minimizedAffinity>
-5.22440767

$$$$

 OpenBabel03252509253D

 30 33  0  0  1  0  0  0  0  0999 V2000
   38.0880   30.7020   41.0020 C   0  0  1  0  0  0  0  0  0  0  0  0
   37.9660   29.8200   39.7330 C   0  0  0  0  0  0  0  0  0  0  0  0
   38.6510   29.4050   41.0760 C   0  0  2  0  0  0  0  0  0  0  0  0
   37.1110   30.9840   41.4320 H   0  0  0  0  0  0  0  0  0  0  0  0
   38.6180   30.0020   38.8850 H   0  0  0  0  0  0  0  0  0  0  0  0
   36.9730   29.4180   39.5530 H   0  0  0  0  0  0  0  0  0  0  0  0
   39.7710   29.3050   40.9720 H   0  0  0  0  0  0  0  0  0  0  0  0
   38.0390   28.2250   41.6880 C   0  0  0  0  0  0  0  0  0  0  0  0
   37.0290   28.4180   42.5690 N   0  0  0  0  0  0  0  0  0  0  0  0
   36.4550   27.3390   43.1430 C   0  0  0  0  0  3  0  0  0  0  0  0
   36.8220   26.0560   42.8960 N   0  0  0  0  0  0  0  0  0  0  0  0
   37.8290   25.8200   42.0190 C   0  0  0  0  0  0  0  0  0  0  0  0
   38.2790   24.5570   41.6970 C   0  0  0  0  0  3  0  0  0  0  0  0
   39.3050   24.3420   40.8000 C   0  0  0  0  0  0  0  0  0  0  0  0
   39.6610   23.3560   40.5440 H   0  0  0  0  0  0  0  0  0  0  0  0
   39.9020   25.4440   40.2060 C   0  0  0  0  0  0  0  0  0  0  0  0
   40.7040   25.2760   39.5050 H   0  0  0  0  0  0  0  0  0  0  0  0
   39.4340   26.6880   40.5440 C   0  0  0  0  0  3  0  0  0  0  0  0
   38.4100   26.9210   41.4380 C   0  0  0  0  0  0  0  0  0  0  0  0
   39.3380   34.1600   40.2060 C   0  0  0  0  0  0  0  0  0  0  0  0
   38.4260   33.0860   40.3810 C   0  0  0  0  0  0  0  0  0  0  0  0
   38.9930   31.8830   40.7250 C   0  0  0  0  0  0  0  0  0  0  0  0
   40.3670   31.7580   40.8820 N   0  0  0  0  0  0  0  0  0  0  0  0
   41.1870   32.8020   40.7060 C   0  0  0  0  0  0  0  0  0  0  0  0
   40.6610   34.0110   40.3660 N   0  0  0  0  0  0  0  0  0  0  0  0
   38.9170   35.1240   39.9350 H   0  0  0  0  0  0  0  0  0  0  0  0
   42.2170   32.5740   40.8570 H   0  0  0  0  0  0  0  0  0  0  0  0
   37.0150   33.2140   40.1910 N   0  0  0  0  0  0  0  0  0  0  0  0
   36.9820   32.9100   39.1860 H   0  0  0  0  0  0  0  0  0  0  0  0
   36.3080   33.5240   40.8950 H   0  0  0  0  0  0  0  0  0  0  0  0
  1  3  1  0  0  0  0
  1  4  1  1  0  0  0
  2  1  1  0  0  0  0
  2  3  1  0  0  0  0
  3  7  1  6  0  0  0
  3  8  1  0  0  0  0
  5  2  1  0  0  0  0
  6  2  1  0  0  0  0
  8  9  1  0  0  0  0
  9 10  2  0  0  0  0
 11 10  1  0  0  0  0
 12 11  2  0  0  0  0
 13 12  1  0  0  0  0
 14 13  2  0  0  0  0
 15 14  1  0  0  0  0
 16 18  2  0  0  0  0
 16 14  1  0  0  0  0
 17 16  1  0  0  0  0
 18 19  1  0  0  0  0
 19  8  2  0  0  0  0
 19 12  1  0  0  0  0
 20 25  2  0  0  0  0
 20 21  1  0  0  0  0
 21 22  2  0  0  0  0
 22 23  1  0  0  0  0
 22  1  1  0  0  0  0
 24 27  1  0  0  0  0
 24 23  2  0  0  0  0
 25 24  1  0  0  0  0
 26 20  1  0  0  0  0
 28 21  1  0  0  0  0
 28 30  1  0  0  0  0
 29 28  1  0  0  0  0
M  END
>  <minimizedAffinity>
-5.21054983

$$$$

 OpenBabel03252509253D

 30 33  0  0  1  0  0  0  0  0999 V2000
   40.5580   30.3260   38.8670 C   0  0  1  0  0  0  0  0  0  0  0  0
   41.1680   29.3890   39.9410 C   0  0  0  0  0  0  0  0  0  0  0  0
   39.7430   30.0290   39.9860 C   0  0  2  0  0  0  0  0  0  0  0  0
   40.4580   29.8460   37.8770 H   0  0  0  0  0  0  0  0  0  0  0  0
   41.9030   29.7760   40.6390 H   0  0  0  0  0  0  0  0  0  0  0  0
   41.2190   28.3410   39.6540 H   0  0  0  0  0  0  0  0  0  0  0  0
   39.6500   30.8090   40.7970 H   0  0  0  0  0  0  0  0  0  0  0  0
   38.6720   29.0340   40.0420 C   0  0  0  0  0  0  0  0  0  0  0  0
   38.2370   28.5000   38.8760 N   0  0  0  0  0  0  0  0  0  0  0  0
   37.2490   27.5830   38.9110 C   0  0  0  0  0  3  0  0  0  0  0  0
   36.6500   27.1480   40.0500 N   0  0  0  0  0  0  0  0  0  0  0  0
   37.0570   27.6570   41.2390 C   0  0  0  0  0  0  0  0  0  0  0  0
   36.5160   27.2840   42.4520 C   0  0  0  0  0  3  0  0  0  0  0  0
   36.9480   27.8150   43.6490 C   0  0  0  0  0  0  0  0  0  0  0  0
   36.5290   27.5280   44.6020 H   0  0  0  0  0  0  0  0  0  0  0  0
   37.9630   28.7600   43.6230 C   0  0  0  0  0  0  0  0  0  0  0  0
   38.3000   29.1760   44.5590 H   0  0  0  0  0  0  0  0  0  0  0  0
   38.4820   29.1120   42.4030 C   0  0  0  0  0  3  0  0  0  0  0  0
   38.0630   28.5910   41.1970 C   0  0  0  0  0  0  0  0  0  0  0  0
   41.7080   33.7880   37.9470 C   0  0  0  0  0  0  0  0  0  0  0  0
   41.0020   32.5590   37.8670 C   0  0  0  0  0  0  0  0  0  0  0  0
   41.3160   31.6340   38.8330 C   0  0  0  0  0  0  0  0  0  0  0  0
   42.2660   31.9130   39.8080 N   0  0  0  0  0  0  0  0  0  0  0  0
   42.9060   33.0890   39.8420 C   0  0  0  0  0  0  0  0  0  0  0  0
   42.6200   34.0300   38.9010 N   0  0  0  0  0  0  0  0  0  0  0  0
   41.4780   34.5380   37.1960 H   0  0  0  0  0  0  0  0  0  0  0  0
   43.6090   33.1760   40.6380 H   0  0  0  0  0  0  0  0  0  0  0  0
   40.0450   32.2680   36.8450 N   0  0  0  0  0  0  0  0  0  0  0  0
   40.6970   31.7880   36.1760 H   0  0  0  0  0  0  0  0  0  0  0  0
   39.0260   32.4990   36.8480 H   0  0  0  0  0  0  0  0  0  0  0  0
  1  4  1  6  0  0  0
  1  2  1  0  0  0  0
  1  3  1  0  0  0  0
  2  3  1  0  0  0  0
  2  5  1  0  0  0  0
  3  8  1  0  0  0  0
  3  7  1  1  0  0  0
  6  2  1  0  0  0  0
  8 19  1  0  0  0  0
  9 10  1  0  0  0  0
  9  8  2  0  0  0  0
 10 11  2  0  0  0  0
 11 12  1  0  0  0  0
 12 13  1  0  0  0  0
 13 14  2  0  0  0  0
 14 15  1  0  0  0  0
 16 14  1  0  0  0  0
 16 17  1  0  0  0  0
 18 16  2  0  0  0  0
 19 12  2  0  0  0  0
 19 18  1  0  0  0  0
 20 25  1  0  0  0  0
 21 20  2  0  0  0  0
 21 22  1  0  0  0  0
 22  1  1  0  0  0  0
 22 23  2  0  0  0  0
 23 24  1  0  0  0  0
 24 27  1  0  0  0  0
 25 24  2  0  0  0  0
 26 20  1  0  0  0  0
 28 30  1  0  0  0  0
 28 21  1  0  0  0  0
 29 28  1  0  0  0  0
M  END
>  <minimizedAffinity>
-5.19477844

$$$$

 OpenBabel03252509253D

 30 33  0  0  1  0  0  0  0  0999 V2000
   38.6960   31.2560   40.4860 C   0  0  1  0  0  0  0  0  0  0  0  0
   37.3960   30.7540   39.8050 C   0  0  0  0  0  0  0  0  0  0  0  0
   38.5370   29.8530   40.3810 C   0  0  2  0  0  0  0  0  0  0  0  0
   38.5100   31.8390   41.4050 H   0  0  0  0  0  0  0  0  0  0  0  0
   37.3020   30.7970   38.7260 H   0  0  0  0  0  0  0  0  0  0  0  0
   36.5000   30.8470   40.4130 H   0  0  0  0  0  0  0  0  0  0  0  0
   39.1060   29.3130   39.5700 H   0  0  0  0  0  0  0  0  0  0  0  0
   38.0730   28.9490   41.4350 C   0  0  0  0  0  0  0  0  0  0  0  0
   37.9780   29.4370   42.6950 N   0  0  0  0  0  0  0  0  0  0  0  0
   37.5530   28.6160   43.6770 C   0  0  0  0  0  3  0  0  0  0  0  0
   37.2070   27.3160   43.4910 N   0  0  0  0  0  0  0  0  0  0  0  0
   37.2880   26.7900   42.2440 C   0  0  0  0  0  0  0  0  0  0  0  0
   36.9600   25.4830   41.9460 C   0  0  0  0  0  3  0  0  0  0  0  0
   37.0490   24.9700   40.6690 C   0  0  0  0  0  0  0  0  0  0  0  0
   36.7950   23.9490   40.4300 H   0  0  0  0  0  0  0  0  0  0  0  0
   37.4850   25.8070   39.6520 C   0  0  0  0  0  0  0  0  0  0  0  0
   37.5550   25.4060   38.6540 H   0  0  0  0  0  0  0  0  0  0  0  0
   37.8040   27.1010   39.9770 C   0  0  0  0  0  3  0  0  0  0  0  0
   37.7210   27.6300   41.2480 C   0  0  0  0  0  0  0  0  0  0  0  0
   41.0540   33.7040   38.8740 C   0  0  0  0  0  0  0  0  0  0  0  0
   40.2070   33.1280   39.8560 C   0  0  0  0  0  0  0  0  0  0  0  0
   39.5620   31.9760   39.4760 C   0  0  0  0  0  0  0  0  0  0  0  0
   39.7480   31.4380   38.2090 N   0  0  0  0  0  0  0  0  0  0  0  0
   40.5600   32.0180   37.3160 C   0  0  0  0  0  0  0  0  0  0  0  0
   41.2160   33.1610   37.6580 N   0  0  0  0  0  0  0  0  0  0  0  0
   41.5780   34.6160   39.1490 H   0  0  0  0  0  0  0  0  0  0  0  0
   40.6140   31.5060   36.3840 H   0  0  0  0  0  0  0  0  0  0  0  0
   39.9980   33.7030   41.1490 N   0  0  0  0  0  0  0  0  0  0  0  0
   39.1380   34.2590   40.9180 H   0  0  0  0  0  0  0  0  0  0  0  0
   40.5770   33.5570   42.0060 H   0  0  0  0  0  0  0  0  0  0  0  0
  1  4  1  1  0  0  0
  2  3  1  0  0  0  0
  2  6  1  0  0  0  0
  2  1  1  0  0  0  0
  3  7  1  6  0  0  0
  3  1  1  0  0  0  0
  3  8  1  0  0  0  0
  5  2  1  0  0  0  0
  8  9  1  0  0  0  0
  9 10  2  0  0  0  0
 11 10  1  0  0  0  0
 12 11  2  0  0  0  0
 13 12  1  0  0  0  0
 14 13  2  0  0  0  0
 15 14  1  0  0  0  0
 16 18  2  0  0  0  0
 16 14  1  0  0  0  0
 17 16  1  0  0  0  0
 18 19  1  0  0  0  0
 19  8  2  0  0  0  0
 19 12  1  0  0  0  0
 20 26  1  0  0  0  0
 20 21  1  0  0  0  0
 21 28  1  0  0  0  0
 22 21  2  0  0  0  0
 22  1  1  0  0  0  0
 23 22  1  0  0  0  0
 24 25  1  0  0  0  0
 24 23  2  0  0  0  0
 25 20  2  0  0  0  0
 27 24  1  0  0  0  0
 28 30  1  0  0  0  0
 29 28  1  0  0  0  0
M  END
>  <minimizedAffinity>
-5.16977787

$$$$

 OpenBabel03252509253D

 30 33  0  0  1  0  0  0  0  0999 V2000
   40.9250   32.2470   39.2930 C   0  0  1  0  0  0  0  0  0  0  0  0
   41.0300   30.7120   39.1050 C   0  0  0  0  0  0  0  0  0  0  0  0
   40.5270   31.4460   40.3900 C   0  0  2  0  0  0  0  0  0  0  0  0
   40.2280   32.7260   38.5830 H   0  0  0  0  0  0  0  0  0  0  0  0
   41.9990   30.2270   39.1650 H   0  0  0  0  0  0  0  0  0  0  0  0
   40.2660   30.2790   38.4640 H   0  0  0  0  0  0  0  0  0  0  0  0
   41.2430   31.3350   41.2550 H   0  0  0  0  0  0  0  0  0  0  0  0
   39.1540   31.0870   40.7510 C   0  0  0  0  0  0  0  0  0  0  0  0
   38.1440   31.8020   40.2010 N   0  0  0  0  0  0  0  0  0  0  0  0
   36.8730   31.4840   40.5250 C   0  0  0  0  0  3  0  0  0  0  0  0
   36.5300   30.4820   41.3750 N   0  0  0  0  0  0  0  0  0  0  0  0
   37.5120   29.7420   41.9470 C   0  0  0  0  0  0  0  0  0  0  0  0
   37.2710   28.7040   42.8220 C   0  0  0  0  0  3  0  0  0  0  0  0
   38.2870   27.9650   43.3900 C   0  0  0  0  0  0  0  0  0  0  0  0
   38.1060   27.1510   44.0760 H   0  0  0  0  0  0  0  0  0  0  0  0
   39.5970   28.2840   43.0640 C   0  0  0  0  0  0  0  0  0  0  0  0
   40.3910   27.7060   43.5080 H   0  0  0  0  0  0  0  0  0  0  0  0
   39.8060   29.3210   42.1900 C   0  0  0  0  0  3  0  0  0  0  0  0
   38.8030   30.0700   41.6130 C   0  0  0  0  0  0  0  0  0  0  0  0
   44.0390   34.0870   38.2560 C   0  0  0  0  0  0  0  0  0  0  0  0
   42.7630   33.4730   38.1510 C   0  0  0  0  0  0  0  0  0  0  0  0
   42.3070   32.8630   39.2940 C   0  0  0  0  0  0  0  0  0  0  0  0
   43.0670   32.8620   40.4570 N   0  0  0  0  0  0  0  0  0  0  0  0
   44.2670   33.4560   40.5060 C   0  0  0  0  0  0  0  0  0  0  0  0
   44.7510   34.0720   39.3930 N   0  0  0  0  0  0  0  0  0  0  0  0
   44.4230   34.5790   37.3670 H   0  0  0  0  0  0  0  0  0  0  0  0
   44.7460   33.3850   41.4550 H   0  0  0  0  0  0  0  0  0  0  0  0
   41.9970   33.4530   36.9440 N   0  0  0  0  0  0  0  0  0  0  0  0
   42.3310   32.5250   36.5820 H   0  0  0  0  0  0  0  0  0  0  0  0
   41.3330   34.1840   36.6050 H   0  0  0  0  0  0  0  0  0  0  0  0
  1  4  1  6  0  0  0
  1 22  1  0  0  0  0
  1  3  1  0  0  0  0
  2  5  1  0  0  0  0
  2  1  1  0  0  0  0
  2  3  1  0  0  0  0
  3  8  1  0  0  0  0
  3  7  1  1  0  0  0
  6  2  1  0  0  0  0
  8 19  1  0  0  0  0
  9 10  1  0  0  0  0
  9  8  2  0  0  0  0
 10 11  2  0  0  0  0
 11 12  1  0  0  0  0
 12 13  1  0  0  0  0
 13 14  2  0  0  0  0
 14 15  1  0  0  0  0
 16 14  1  0  0  0  0
 16 17  1  0  0  0  0
 18 16  2  0  0  0  0
 19 12  2  0  0  0  0
 19 18  1  0  0  0  0
 20 25  1  0  0  0  0
 21 20  2  0  0  0  0
 21 22  1  0  0  0  0
 22 23  2  0  0  0  0
 23 24  1  0  0  0  0
 24 27  1  0  0  0  0
 25 24  2  0  0  0  0
 26 20  1  0  0  0  0
 28 21  1  0  0  0  0
 29 28  1  0  0  0  0
 30 28  1  0  0  0  0
M  END
>  <minimizedAffinity>
-5.15447855

$$$$
