
 OpenBabel03242518083D

 38 41  0  0  1  0  0  0  0  0999 V2000
   35.5810   28.8700   38.7100 N   0  0  0  0  0  0  0  0  0  0  0  0
   34.2670   28.9110   38.1370 C   0  0  0  0  0  0  0  0  0  0  0  0
   34.1370   27.9480   37.0340 C   0  0  0  0  0  0  0  0  0  0  0  0
   35.0940   26.8330   36.9890 C   0  0  0  0  0  0  0  0  0  0  0  0
   35.8240   26.4850   38.2220 C   0  0  0  0  0  0  0  0  0  0  0  0
   36.0790   27.5960   39.2080 C   0  0  1  0  0  0  0  0  0  0  0  0
   33.5670   28.5870   38.9610 H   0  0  0  0  0  0  0  0  0  0  0  0
   33.9330   29.9400   37.9000 H   0  0  0  0  0  0  0  0  0  0  0  0
   33.1040   27.5180   37.0310 H   0  0  0  0  0  0  0  0  0  0  0  0
   34.1620   28.5420   36.0720 H   0  0  0  0  0  0  0  0  0  0  0  0
   35.8760   27.0840   36.2120 H   0  0  0  0  0  0  0  0  0  0  0  0
   34.6270   25.9090   36.5860 H   0  0  0  0  0  0  0  0  0  0  0  0
   36.8220   26.0380   37.9760 H   0  0  0  0  0  0  0  0  0  0  0  0
   35.2880   25.6290   38.7240 H   0  0  0  0  0  0  0  0  0  0  0  0
   35.4280   27.4190   40.0900 H   0  0  0  0  0  0  0  0  0  0  0  0
   37.4970   27.6650   39.6200 C   0  0  0  0  0  0  0  0  0  0  0  0
   38.5340   27.8070   38.7740 N   0  0  0  0  0  0  0  0  0  0  0  0
   39.8010   27.8720   39.2010 C   0  0  0  0  0  3  0  0  0  0  0  0
   40.1740   27.8050   40.4950 N   0  0  0  0  0  0  0  0  0  0  0  0
   39.1710   27.6610   41.3940 C   0  0  0  0  0  0  0  0  0  0  0  0
   39.5310   27.5850   42.7210 C   0  0  0  0  0  3  0  0  0  0  0  0
   38.5780   27.4370   43.6800 C   0  0  0  0  0  0  0  0  0  0  0  0
   38.9060   27.3830   44.7050 H   0  0  0  0  0  0  0  0  0  0  0  0
   37.2630   27.3640   43.2930 C   0  0  0  0  0  0  0  0  0  0  0  0
   36.5310   27.2460   44.0790 H   0  0  0  0  0  0  0  0  0  0  0  0
   36.9490   27.4430   41.9580 C   0  0  0  0  0  3  0  0  0  0  0  0
   37.8740   27.5940   40.9440 C   0  0  0  0  0  0  0  0  0  0  0  0
   36.2920   30.7950   39.9920 C   0  0  0  0  0  0  0  0  0  0  0  0
   36.3600   30.0350   38.7900 C   0  0  0  0  0  0  0  0  0  0  0  0
   37.1950   30.4930   37.7670 C   0  0  0  0  0  0  0  0  0  0  0  0
   37.8820   31.6410   38.0070 N   0  0  0  0  0  0  0  0  0  0  0  0
   37.8040   32.3380   39.1410 C   0  0  0  0  0  0  0  0  0  0  0  0
   37.0080   31.9210   40.1430 N   0  0  0  0  0  0  0  0  0  0  0  0
   35.4490   30.3520   41.0550 N   0  0  0  0  0  0  0  0  0  0  0  0
   37.2510   29.9190   36.8520 H   0  0  0  0  0  0  0  0  0  0  0  0
   38.3720   33.2530   39.2890 H   0  0  0  0  0  0  0  0  0  0  0  0
   34.5590   29.8210   40.9280 H   0  0  0  0  0  0  0  0  0  0  0  0
   35.6980   30.5510   42.0480 H   0  0  0  0  0  0  0  0  0  0  0  0
  1 29  1  0  0  0  0
  1  6  1  0  0  0  0
  2  1  1  0  0  0  0
  2  7  1  0  0  0  0
  3  2  1  0  0  0  0
  4  3  1  0  0  0  0
  4  5  1  0  0  0  0
  5 14  1  0  0  0  0
  5  6  1  0  0  0  0
  6 16  1  0  0  0  0
  6 15  1  1  0  0  0
  8  2  1  0  0  0  0
  9  3  1  0  0  0  0
 10  3  1  0  0  0  0
 11  4  1  0  0  0  0
 12  4  1  0  0  0  0
 13  5  1  0  0  0  0
 16 27  1  0  0  0  0
 17 18  1  0  0  0  0
 17 16  2  0  0  0  0
 18 19  2  0  0  0  0
 19 20  1  0  0  0  0
 20 21  1  0  0  0  0
 21 22  2  0  0  0  0
 22 23  1  0  0  0  0
 24 22  1  0  0  0  0
 24 25  1  0  0  0  0
 26 24  2  0  0  0  0
 27 20  2  0  0  0  0
 27 26  1  0  0  0  0
 28 33  1  0  0  0  0
 28 34  1  0  0  0  0
 29 28  2  0  0  0  0
 30 31  2  0  0  0  0
 30 29  1  0  0  0  0
 31 32  1  0  0  0  0
 32 36  1  0  0  0  0
 32 33  2  0  0  0  0
 34 38  1  0  0  0  0
 35 30  1  0  0  0  0
 37 34  1  0  0  0  0
M  END
>  <minimizedAffinity>
-5.92835569

$$$$

 OpenBabel03242518083D

 38 41  0  0  1  0  0  0  0  0999 V2000
   39.8600   31.4190   39.5880 N   0  0  0  0  0  0  0  0  0  0  0  0
   40.9450   32.2980   39.2620 C   0  0  0  0  0  0  0  0  0  0  0  0
   40.5110   33.7020   39.2690 C   0  0  0  0  0  0  0  0  0  0  0  0
   39.2910   34.0330   40.0180 C   0  0  0  0  0  0  0  0  0  0  0  0
   38.8180   33.0860   41.0440 C   0  0  0  0  0  0  0  0  0  0  0  0
   39.1510   31.6300   40.8420 C   0  0  1  0  0  0  0  0  0  0  0  0
   41.7010   32.1660   40.0900 H   0  0  0  0  0  0  0  0  0  0  0  0
   41.4950   31.9830   38.3530 H   0  0  0  0  0  0  0  0  0  0  0  0
   41.3400   34.3490   39.6540 H   0  0  0  0  0  0  0  0  0  0  0  0
   40.4240   34.0270   38.1890 H   0  0  0  0  0  0  0  0  0  0  0  0
   38.4500   34.1440   39.2700 H   0  0  0  0  0  0  0  0  0  0  0  0
   39.3530   35.0440   40.4760 H   0  0  0  0  0  0  0  0  0  0  0  0
   37.7050   33.1480   41.1570 H   0  0  0  0  0  0  0  0  0  0  0  0
   39.1880   33.4370   42.0500 H   0  0  0  0  0  0  0  0  0  0  0  0
   39.9180   31.3520   41.5950 H   0  0  0  0  0  0  0  0  0  0  0  0
   37.9620   30.7610   40.9720 C   0  0  0  0  0  0  0  0  0  0  0  0
   36.7810   30.9820   40.3670 N   0  0  0  0  0  0  0  0  0  0  0  0
   35.7360   30.1570   40.5130 C   0  0  0  0  0  3  0  0  0  0  0  0
   35.7490   29.0380   41.2650 N   0  0  0  0  0  0  0  0  0  0  0  0
   36.9130   28.7630   41.9000 C   0  0  0  0  0  0  0  0  0  0  0  0
   36.9450   27.6270   42.6770 C   0  0  0  0  0  3  0  0  0  0  0  0
   38.0790   27.2890   43.3480 C   0  0  0  0  0  0  0  0  0  0  0  0
   38.0580   26.3910   43.9430 H   0  0  0  0  0  0  0  0  0  0  0  0
   39.1790   28.1040   43.2310 C   0  0  0  0  0  0  0  0  0  0  0  0
   40.0620   27.8080   43.7760 H   0  0  0  0  0  0  0  0  0  0  0  0
   39.1020   29.2280   42.4450 C   0  0  0  0  0  3  0  0  0  0  0  0
   37.9790   29.6180   41.7430 C   0  0  0  0  0  0  0  0  0  0  0  0
   38.5390   30.6640   37.7050 C   0  0  0  0  0  0  0  0  0  0  0  0
   39.4990   30.3770   38.7170 C   0  0  0  0  0  0  0  0  0  0  0  0
   40.0230   29.0840   38.7810 C   0  0  0  0  0  0  0  0  0  0  0  0
   39.5660   28.1930   37.8600 N   0  0  0  0  0  0  0  0  0  0  0  0
   38.6660   28.4830   36.9210 C   0  0  0  0  0  0  0  0  0  0  0  0
   38.1450   29.7210   36.8350 N   0  0  0  0  0  0  0  0  0  0  0  0
   37.9880   31.9770   37.6140 N   0  0  0  0  0  0  0  0  0  0  0  0
   40.7530   28.8600   39.5470 H   0  0  0  0  0  0  0  0  0  0  0  0
   38.3290   27.7380   36.2040 H   0  0  0  0  0  0  0  0  0  0  0  0
   37.8430   32.6200   38.4240 H   0  0  0  0  0  0  0  0  0  0  0  0
   37.6920   32.3670   36.6920 H   0  0  0  0  0  0  0  0  0  0  0  0
  1  6  1  0  0  0  0
  2  3  1  0  0  0  0
  2  1  1  0  0  0  0
  2  7  1  0  0  0  0
  3  9  1  0  0  0  0
  3  4  1  0  0  0  0
  4 12  1  0  0  0  0
  4  5  1  0  0  0  0
  5 13  1  0  0  0  0
  5 14  1  0  0  0  0
  6 16  1  0  0  0  0
  6  5  1  0  0  0  0
  6 15  1  1  0  0  0
  8  2  1  0  0  0  0
 10  3  1  0  0  0  0
 11  4  1  0  0  0  0
 16 27  1  0  0  0  0
 17 18  1  0  0  0  0
 17 16  2  0  0  0  0
 18 19  2  0  0  0  0
 19 20  1  0  0  0  0
 20 21  1  0  0  0  0
 21 22  2  0  0  0  0
 22 23  1  0  0  0  0
 24 22  1  0  0  0  0
 24 25  1  0  0  0  0
 26 24  2  0  0  0  0
 27 20  2  0  0  0  0
 27 26  1  0  0  0  0
 28 29  1  0  0  0  0
 29 30  2  0  0  0  0
 29  1  1  0  0  0  0
 30 35  1  0  0  0  0
 31 30  1  0  0  0  0
 32 31  2  0  0  0  0
 33 32  1  0  0  0  0
 33 28  2  0  0  0  0
 34 28  1  0  0  0  0
 34 37  1  0  0  0  0
 36 32  1  0  0  0  0
 38 34  1  0  0  0  0
M  END
>  <minimizedAffinity>
-5.70817614

$$$$

 OpenBabel03242518083D

 38 41  0  0  1  0  0  0  0  0999 V2000
   37.5770   30.1230   39.3450 N   0  0  0  0  0  0  0  0  0  0  0  0
   37.3030   30.7980   38.1100 C   0  0  0  0  0  0  0  0  0  0  0  0
   36.3740   30.0230   37.2750 C   0  0  0  0  0  0  0  0  0  0  0  0
   35.5400   29.0130   37.9430 C   0  0  0  0  0  0  0  0  0  0  0  0
   35.3480   29.1150   39.4010 C   0  0  0  0  0  0  0  0  0  0  0  0
   36.4550   29.7570   40.1970 C   0  0  1  0  0  0  0  0  0  0  0  0
   36.7860   31.7590   38.3980 H   0  0  0  0  0  0  0  0  0  0  0  0
   38.2210   31.1390   37.5930 H   0  0  0  0  0  0  0  0  0  0  0  0
   35.6960   30.7200   36.7210 H   0  0  0  0  0  0  0  0  0  0  0  0
   36.9850   29.5570   36.4450 H   0  0  0  0  0  0  0  0  0  0  0  0
   36.0050   28.0010   37.7490 H   0  0  0  0  0  0  0  0  0  0  0  0
   34.5400   28.9260   37.4650 H   0  0  0  0  0  0  0  0  0  0  0  0
   35.1780   28.1020   39.8490 H   0  0  0  0  0  0  0  0  0  0  0  0
   34.3690   29.6390   39.5970 H   0  0  0  0  0  0  0  0  0  0  0  0
   36.0910   30.7470   40.5430 H   0  0  0  0  0  0  0  0  0  0  0  0
   36.8690   28.9290   41.3510 C   0  0  0  0  0  0  0  0  0  0  0  0
   37.2250   29.4160   42.5530 N   0  0  0  0  0  0  0  0  0  0  0  0
   37.5850   28.6210   43.5690 C   0  0  0  0  0  3  0  0  0  0  0  0
   37.6290   27.2740   43.5030 N   0  0  0  0  0  0  0  0  0  0  0  0
   37.2820   26.7270   42.3150 C   0  0  0  0  0  0  0  0  0  0  0  0
   37.3250   25.3540   42.2260 C   0  0  0  0  0  3  0  0  0  0  0  0
   36.9930   24.7330   41.0620 C   0  0  0  0  0  0  0  0  0  0  0  0
   37.0410   23.6570   41.0390 H   0  0  0  0  0  0  0  0  0  0  0  0
   36.6180   25.5050   39.9900 C   0  0  0  0  0  0  0  0  0  0  0  0
   36.3600   24.9820   39.0810 H   0  0  0  0  0  0  0  0  0  0  0  0
   36.5880   26.8720   40.1240 C   0  0  0  0  0  3  0  0  0  0  0  0
   36.9150   27.5530   41.2790 C   0  0  0  0  0  0  0  0  0  0  0  0
   39.5580   30.7420   40.5890 C   0  0  0  0  0  0  0  0  0  0  0  0
   38.8990   29.8290   39.7180 C   0  0  0  0  0  0  0  0  0  0  0  0
   39.6030   28.7020   39.2890 C   0  0  0  0  0  0  0  0  0  0  0  0
   40.8780   28.5680   39.7440 N   0  0  0  0  0  0  0  0  0  0  0  0
   41.4770   29.4350   40.5610 C   0  0  0  0  0  0  0  0  0  0  0  0
   40.8220   30.5300   40.9900 N   0  0  0  0  0  0  0  0  0  0  0  0
   38.8640   31.9020   41.0450 N   0  0  0  0  0  0  0  0  0  0  0  0
   39.1080   28.0050   38.6270 H   0  0  0  0  0  0  0  0  0  0  0  0
   42.4990   29.2870   40.9000 H   0  0  0  0  0  0  0  0  0  0  0  0
   38.1280   32.4080   40.5030 H   0  0  0  0  0  0  0  0  0  0  0  0
   39.0720   32.3130   41.9810 H   0  0  0  0  0  0  0  0  0  0  0  0
  1 29  1  0  0  0  0
  1  6  1  0  0  0  0
  2  7  1  0  0  0  0
  2  1  1  0  0  0  0
  3  4  1  0  0  0  0
  3  2  1  0  0  0  0
  4  5  1  0  0  0  0
  5 14  1  0  0  0  0
  5 13  1  0  0  0  0
  5  6  1  0  0  0  0
  6 15  1  1  0  0  0
  6 16  1  0  0  0  0
  8  2  1  0  0  0  0
  9  3  1  0  0  0  0
 10  3  1  0  0  0  0
 11  4  1  0  0  0  0
 12  4  1  0  0  0  0
 16 17  1  0  0  0  0
 17 18  2  0  0  0  0
 19 18  1  0  0  0  0
 20 19  2  0  0  0  0
 21 20  1  0  0  0  0
 22 21  2  0  0  0  0
 23 22  1  0  0  0  0
 24 26  2  0  0  0  0
 24 22  1  0  0  0  0
 25 24  1  0  0  0  0
 26 27  1  0  0  0  0
 27 16  2  0  0  0  0
 27 20  1  0  0  0  0
 28 33  1  0  0  0  0
 28 34  1  0  0  0  0
 29 28  2  0  0  0  0
 30 29  1  0  0  0  0
 30 31  2  0  0  0  0
 31 32  1  0  0  0  0
 32 36  1  0  0  0  0
 32 33  2  0  0  0  0
 34 38  1  0  0  0  0
 35 30  1  0  0  0  0
 37 34  1  0  0  0  0
M  END
>  <minimizedAffinity>
-5.59464836

$$$$

 OpenBabel03242518083D

 38 41  0  0  1  0  0  0  0  0999 V2000
   37.1660   30.0410   38.3990 N   0  0  0  0  0  0  0  0  0  0  0  0
   36.2170   29.9190   37.3310 C   0  0  0  0  0  0  0  0  0  0  0  0
   35.0900   29.0570   37.7180 C   0  0  0  0  0  0  0  0  0  0  0  0
   34.8460   28.8610   39.1540 C   0  0  0  0  0  0  0  0  0  0  0  0
   35.4230   29.8300   40.1030 C   0  0  0  0  0  0  0  0  0  0  0  0
   36.6970   30.5220   39.6900 C   0  0  1  0  0  0  0  0  0  0  0  0
   35.8120   30.9600   37.1640 H   0  0  0  0  0  0  0  0  0  0  0  0
   36.6890   29.6630   36.3620 H   0  0  0  0  0  0  0  0  0  0  0  0
   34.1460   29.4430   37.2560 H   0  0  0  0  0  0  0  0  0  0  0  0
   35.2360   28.0660   37.1930 H   0  0  0  0  0  0  0  0  0  0  0  0
   35.2610   27.8470   39.4360 H   0  0  0  0  0  0  0  0  0  0  0  0
   33.7620   28.7580   39.3750 H   0  0  0  0  0  0  0  0  0  0  0  0
   35.6290   29.3420   41.0900 H   0  0  0  0  0  0  0  0  0  0  0  0
   34.6310   30.5890   40.3640 H   0  0  0  0  0  0  0  0  0  0  0  0
   36.4480   31.5820   39.4690 H   0  0  0  0  0  0  0  0  0  0  0  0
   37.7400   30.4450   40.7350 C   0  0  0  0  0  0  0  0  0  0  0  0
   38.6230   31.4230   41.0080 N   0  0  0  0  0  0  0  0  0  0  0  0
   39.5450   31.3050   41.9720 C   0  0  0  0  0  3  0  0  0  0  0  0
   39.6900   30.2200   42.7590 N   0  0  0  0  0  0  0  0  0  0  0  0
   38.8280   29.2010   42.5300 C   0  0  0  0  0  0  0  0  0  0  0  0
   38.9610   28.0820   43.3200 C   0  0  0  0  0  3  0  0  0  0  0  0
   38.1330   27.0180   43.1440 C   0  0  0  0  0  0  0  0  0  0  0  0
   38.2740   26.1640   43.7870 H   0  0  0  0  0  0  0  0  0  0  0  0
   37.1710   27.0890   42.1670 C   0  0  0  0  0  0  0  0  0  0  0  0
   36.5290   26.2280   42.0540 H   0  0  0  0  0  0  0  0  0  0  0  0
   37.0730   28.2250   41.4020 C   0  0  0  0  0  3  0  0  0  0  0  0
   37.8860   29.3340   41.5370 C   0  0  0  0  0  0  0  0  0  0  0  0
   39.4120   30.7610   37.8550 C   0  0  0  0  0  0  0  0  0  0  0  0
   38.5150   29.7080   38.1940 C   0  0  0  0  0  0  0  0  0  0  0  0
   39.0290   28.4140   38.3030 C   0  0  0  0  0  0  0  0  0  0  0  0
   40.3600   28.2640   38.0730 N   0  0  0  0  0  0  0  0  0  0  0  0
   41.1830   29.2640   37.7560 C   0  0  0  0  0  0  0  0  0  0  0  0
   40.7160   30.5210   37.6440 N   0  0  0  0  0  0  0  0  0  0  0  0
   38.9160   32.0940   37.7370 N   0  0  0  0  0  0  0  0  0  0  0  0
   38.3520   27.6110   38.5610 H   0  0  0  0  0  0  0  0  0  0  0  0
   42.2430   29.0970   37.5790 H   0  0  0  0  0  0  0  0  0  0  0  0
   37.9510   32.3450   37.4290 H   0  0  0  0  0  0  0  0  0  0  0  0
   39.5260   32.9090   37.9640 H   0  0  0  0  0  0  0  0  0  0  0  0
  1  6  1  0  0  0  0
  2  3  1  0  0  0  0
  2  1  1  0  0  0  0
  3  4  1  0  0  0  0
  4 12  1  0  0  0  0
  4 11  1  0  0  0  0
  4  5  1  0  0  0  0
  5 14  1  0  0  0  0
  5 13  1  0  0  0  0
  6 15  1  6  0  0  0
  6  5  1  0  0  0  0
  6 16  1  0  0  0  0
  7  2  1  0  0  0  0
  8  2  1  0  0  0  0
  9  3  1  0  0  0  0
 10  3  1  0  0  0  0
 16 17  2  0  0  0  0
 16 27  1  0  0  0  0
 17 18  1  0  0  0  0
 18 19  2  0  0  0  0
 20 19  1  0  0  0  0
 20 21  1  0  0  0  0
 22 21  2  0  0  0  0
 22 23  1  0  0  0  0
 24 22  1  0  0  0  0
 25 24  1  0  0  0  0
 26 27  1  0  0  0  0
 26 24  2  0  0  0  0
 27 20  2  0  0  0  0
 28 29  1  0  0  0  0
 29 30  2  0  0  0  0
 29  1  1  0  0  0  0
 30 35  1  0  0  0  0
 31 30  1  0  0  0  0
 32 31  2  0  0  0  0
 33 32  1  0  0  0  0
 33 28  2  0  0  0  0
 34 28  1  0  0  0  0
 34 38  1  0  0  0  0
 36 32  1  0  0  0  0
 37 34  1  0  0  0  0
M  END
>  <minimizedAffinity>
-5.56463194

$$$$

 OpenBabel03242518083D

 38 41  0  0  1  0  0  0  0  0999 V2000
   38.3490   31.4320   40.2050 N   0  0  0  0  0  0  0  0  0  0  0  0
   38.5360   32.8050   40.5700 C   0  0  0  0  0  0  0  0  0  0  0  0
   39.6930   33.3870   39.8760 C   0  0  0  0  0  0  0  0  0  0  0  0
   40.1570   32.7200   38.6500 C   0  0  0  0  0  0  0  0  0  0  0  0
   39.2310   31.8090   37.9540 C   0  0  0  0  0  0  0  0  0  0  0  0
   38.1970   31.1050   38.7940 C   0  0  1  0  0  0  0  0  0  0  0  0
   37.6120   33.3430   40.2100 H   0  0  0  0  0  0  0  0  0  0  0  0
   38.5210   32.9650   41.6660 H   0  0  0  0  0  0  0  0  0  0  0  0
   39.4830   34.4580   39.6270 H   0  0  0  0  0  0  0  0  0  0  0  0
   40.5280   33.4680   40.6340 H   0  0  0  0  0  0  0  0  0  0  0  0
   41.0700   32.1090   38.9190 H   0  0  0  0  0  0  0  0  0  0  0  0
   40.5520   33.4500   37.9110 H   0  0  0  0  0  0  0  0  0  0  0  0
   39.7980   31.0110   37.4080 H   0  0  0  0  0  0  0  0  0  0  0  0
   38.7350   32.3770   37.1150 H   0  0  0  0  0  0  0  0  0  0  0  0
   37.2080   31.5520   38.5560 H   0  0  0  0  0  0  0  0  0  0  0  0
   38.1750   29.6470   38.5510 C   0  0  0  0  0  0  0  0  0  0  0  0
   39.2550   28.8470   38.5950 N   0  0  0  0  0  0  0  0  0  0  0  0
   39.1790   27.5280   38.3740 C   0  0  0  0  0  3  0  0  0  0  0  0
   38.0380   26.8690   38.0880 N   0  0  0  0  0  0  0  0  0  0  0  0
   36.9150   27.6240   38.0290 C   0  0  0  0  0  0  0  0  0  0  0  0
   35.7400   26.9700   37.7340 C   0  0  0  0  0  3  0  0  0  0  0  0
   34.5730   27.6640   37.6550 C   0  0  0  0  0  0  0  0  0  0  0  0
   33.6780   27.1100   37.4220 H   0  0  0  0  0  0  0  0  0  0  0  0
   34.5990   29.0190   37.8720 C   0  0  0  0  0  0  0  0  0  0  0  0
   33.6560   29.5410   37.8020 H   0  0  0  0  0  0  0  0  0  0  0  0
   35.7940   29.6300   38.1640 C   0  0  0  0  0  3  0  0  0  0  0  0
   37.0060   28.9770   38.2580 C   0  0  0  0  0  0  0  0  0  0  0  0
   37.0460   30.1180   41.7650 C   0  0  0  0  0  0  0  0  0  0  0  0
   38.3100   30.4310   41.1900 C   0  0  0  0  0  0  0  0  0  0  0  0
   39.4310   29.7280   41.6380 C   0  0  0  0  0  0  0  0  0  0  0  0
   39.2190   28.7900   42.6000 N   0  0  0  0  0  0  0  0  0  0  0  0
   38.0260   28.5110   43.1250 C   0  0  0  0  0  0  0  0  0  0  0  0
   36.9280   29.1730   42.7120 N   0  0  0  0  0  0  0  0  0  0  0  0
   35.8830   30.8190   41.3260 N   0  0  0  0  0  0  0  0  0  0  0  0
   40.3940   29.9610   41.2050 H   0  0  0  0  0  0  0  0  0  0  0  0
   37.9030   27.7520   43.8930 H   0  0  0  0  0  0  0  0  0  0  0  0
   35.8760   31.8060   40.9850 H   0  0  0  0  0  0  0  0  0  0  0  0
   34.9490   30.3540   41.3290 H   0  0  0  0  0  0  0  0  0  0  0  0
  1  2  1  0  0  0  0
  1 29  1  0  0  0  0
  2  8  1  0  0  0  0
  3  2  1  0  0  0  0
  3 10  1  0  0  0  0
  4 11  1  0  0  0  0
  4  3  1  0  0  0  0
  5  4  1  0  0  0  0
  5  6  1  0  0  0  0
  6 15  1  6  0  0  0
  6  1  1  0  0  0  0
  7  2  1  0  0  0  0
  9  3  1  0  0  0  0
 12  4  1  0  0  0  0
 13  5  1  0  0  0  0
 14  5  1  0  0  0  0
 16 17  1  0  0  0  0
 16  6  1  0  0  0  0
 18 17  2  0  0  0  0
 19 18  1  0  0  0  0
 20 19  2  0  0  0  0
 20 27  1  0  0  0  0
 21 20  1  0  0  0  0
 22 21  2  0  0  0  0
 22 24  1  0  0  0  0
 23 22  1  0  0  0  0
 24 26  2  0  0  0  0
 25 24  1  0  0  0  0
 26 27  1  0  0  0  0
 27 16  2  0  0  0  0
 28 33  1  0  0  0  0
 29 30  1  0  0  0  0
 29 28  2  0  0  0  0
 30 31  2  0  0  0  0
 31 32  1  0  0  0  0
 32 36  1  0  0  0  0
 33 32  2  0  0  0  0
 34 38  1  0  0  0  0
 34 28  1  0  0  0  0
 35 30  1  0  0  0  0
 37 34  1  0  0  0  0
M  END
>  <minimizedAffinity>
-5.53399086

$$$$

 OpenBabel03242518083D

 38 41  0  0  1  0  0  0  0  0999 V2000
   36.5900   29.0080   39.3940 N   0  0  0  0  0  0  0  0  0  0  0  0
   35.9040   29.1830   38.1480 C   0  0  0  0  0  0  0  0  0  0  0  0
   36.0670   28.0070   37.2810 C   0  0  0  0  0  0  0  0  0  0  0  0
   36.4420   26.7370   37.9210 C   0  0  0  0  0  0  0  0  0  0  0  0
   36.2190   26.5900   39.3710 C   0  0  0  0  0  0  0  0  0  0  0  0
   36.2660   27.8430   40.2060 C   0  0  1  0  0  0  0  0  0  0  0  0
   34.8100   29.2660   38.4130 H   0  0  0  0  0  0  0  0  0  0  0  0
   36.1300   30.1530   37.6640 H   0  0  0  0  0  0  0  0  0  0  0  0
   35.1260   27.8350   36.7000 H   0  0  0  0  0  0  0  0  0  0  0  0
   36.8090   28.2890   36.4760 H   0  0  0  0  0  0  0  0  0  0  0  0
   37.5490   26.5810   37.7480 H   0  0  0  0  0  0  0  0  0  0  0  0
   35.9820   25.8670   37.4060 H   0  0  0  0  0  0  0  0  0  0  0  0
   36.9650   25.8800   39.8150 H   0  0  0  0  0  0  0  0  0  0  0  0
   35.2410   26.0500   39.5280 H   0  0  0  0  0  0  0  0  0  0  0  0
   35.2290   28.0690   40.5340 H   0  0  0  0  0  0  0  0  0  0  0  0
   37.1580   27.7040   41.3770 C   0  0  0  0  0  0  0  0  0  0  0  0
   36.9140   28.2280   42.5910 N   0  0  0  0  0  0  0  0  0  0  0  0
   37.7530   28.0650   43.6220 C   0  0  0  0  0  3  0  0  0  0  0  0
   38.9100   27.3750   43.5610 N   0  0  0  0  0  0  0  0  0  0  0  0
   39.2090   26.8250   42.3610 C   0  0  0  0  0  0  0  0  0  0  0  0
   40.3890   26.1190   42.2770 C   0  0  0  0  0  3  0  0  0  0  0  0
   40.7570   25.5410   41.1020 C   0  0  0  0  0  0  0  0  0  0  0  0
   41.6880   24.9980   41.0830 H   0  0  0  0  0  0  0  0  0  0  0  0
   39.9310   25.6800   40.0140 C   0  0  0  0  0  0  0  0  0  0  0  0
   40.2520   25.2100   39.0970 H   0  0  0  0  0  0  0  0  0  0  0  0
   38.7630   26.3920   40.1440 C   0  0  0  0  0  3  0  0  0  0  0  0
   38.3400   26.9990   41.3100 C   0  0  0  0  0  0  0  0  0  0  0  0
   37.1270   30.9570   40.7250 C   0  0  0  0  0  0  0  0  0  0  0  0
   37.5480   29.9440   39.8180 C   0  0  0  0  0  0  0  0  0  0  0  0
   38.8830   29.9420   39.4050 C   0  0  0  0  0  0  0  0  0  0  0  0
   39.6800   30.9200   39.9110 N   0  0  0  0  0  0  0  0  0  0  0  0
   39.2650   31.8610   40.7600 C   0  0  0  0  0  0  0  0  0  0  0  0
   37.9840   31.8870   41.1740 N   0  0  0  0  0  0  0  0  0  0  0  0
   35.7690   30.9840   41.1640 N   0  0  0  0  0  0  0  0  0  0  0  0
   39.2090   29.1740   38.7170 H   0  0  0  0  0  0  0  0  0  0  0  0
   39.9380   32.6260   41.1390 H   0  0  0  0  0  0  0  0  0  0  0  0
   34.9530   30.6620   40.5980 H   0  0  0  0  0  0  0  0  0  0  0  0
   35.5250   31.3440   42.1120 H   0  0  0  0  0  0  0  0  0  0  0  0
  1 29  1  0  0  0  0
  1  6  1  0  0  0  0
  2  7  1  0  0  0  0
  2  1  1  0  0  0  0
  3  4  1  0  0  0  0
  3  2  1  0  0  0  0
  4  5  1  0  0  0  0
  5 14  1  0  0  0  0
  5 13  1  0  0  0  0
  5  6  1  0  0  0  0
  6 15  1  1  0  0  0
  6 16  1  0  0  0  0
  8  2  1  0  0  0  0
  9  3  1  0  0  0  0
 10  3  1  0  0  0  0
 11  4  1  0  0  0  0
 12  4  1  0  0  0  0
 16 17  1  0  0  0  0
 17 18  2  0  0  0  0
 19 18  1  0  0  0  0
 20 19  2  0  0  0  0
 21 20  1  0  0  0  0
 22 21  2  0  0  0  0
 23 22  1  0  0  0  0
 24 26  2  0  0  0  0
 24 22  1  0  0  0  0
 25 24  1  0  0  0  0
 26 27  1  0  0  0  0
 27 16  2  0  0  0  0
 27 20  1  0  0  0  0
 28 34  1  0  0  0  0
 28 33  1  0  0  0  0
 29 28  2  0  0  0  0
 30 29  1  0  0  0  0
 30 31  2  0  0  0  0
 31 32  1  0  0  0  0
 32 36  1  0  0  0  0
 32 33  2  0  0  0  0
 34 38  1  0  0  0  0
 35 30  1  0  0  0  0
 37 34  1  0  0  0  0
M  END
>  <minimizedAffinity>
-5.50229359

$$$$

 OpenBabel03242518083D

 38 41  0  0  1  0  0  0  0  0999 V2000
   39.8810   31.2590   39.6530 N   0  0  0  0  0  0  0  0  0  0  0  0
   40.9880   32.1300   39.3820 C   0  0  0  0  0  0  0  0  0  0  0  0
   40.5540   33.5310   39.2970 C   0  0  0  0  0  0  0  0  0  0  0  0
   39.2750   33.8870   39.9290 C   0  0  0  0  0  0  0  0  0  0  0  0
   38.7200   32.9790   40.9500 C   0  0  0  0  0  0  0  0  0  0  0  0
   39.0700   31.5170   40.8340 C   0  0  1  0  0  0  0  0  0  0  0  0
   41.6730   32.0350   40.2750 H   0  0  0  0  0  0  0  0  0  0  0  0
   41.6120   31.7820   38.5350 H   0  0  0  0  0  0  0  0  0  0  0  0
   41.3460   34.1970   39.7240 H   0  0  0  0  0  0  0  0  0  0  0  0
   40.5560   33.8130   38.2020 H   0  0  0  0  0  0  0  0  0  0  0  0
   38.4980   33.9630   39.1110 H   0  0  0  0  0  0  0  0  0  0  0  0
   39.2970   34.9140   40.3510 H   0  0  0  0  0  0  0  0  0  0  0  0
   37.6010   33.0400   40.9680 H   0  0  0  0  0  0  0  0  0  0  0  0
   39.0050   33.3710   41.9680 H   0  0  0  0  0  0  0  0  0  0  0  0
   39.7730   31.2720   41.6580 H   0  0  0  0  0  0  0  0  0  0  0  0
   37.8760   30.6480   40.9010 C   0  0  0  0  0  0  0  0  0  0  0  0
   36.7490   30.8400   40.1920 N   0  0  0  0  0  0  0  0  0  0  0  0
   35.6970   30.0170   40.2840 C   0  0  0  0  0  3  0  0  0  0  0  0
   35.6490   28.9280   41.0790 N   0  0  0  0  0  0  0  0  0  0  0  0
   36.7570   28.6840   41.8180 C   0  0  0  0  0  0  0  0  0  0  0  0
   36.7270   27.5790   42.6390 C   0  0  0  0  0  3  0  0  0  0  0  0
   37.8020   27.2730   43.4130 C   0  0  0  0  0  0  0  0  0  0  0  0
   37.7330   26.3990   44.0400 H   0  0  0  0  0  0  0  0  0  0  0  0
   38.9060   28.0880   43.3550 C   0  0  0  0  0  0  0  0  0  0  0  0
   39.7420   27.8170   43.9820 H   0  0  0  0  0  0  0  0  0  0  0  0
   38.8930   29.1790   42.5220 C   0  0  0  0  0  3  0  0  0  0  0  0
   37.8310   29.5370   41.7150 C   0  0  0  0  0  0  0  0  0  0  0  0
   40.2970   28.9620   39.0120 C   0  0  0  0  0  0  0  0  0  0  0  0
   39.5950   30.1830   38.7970 C   0  0  0  0  0  0  0  0  0  0  0  0
   38.6690   30.2360   37.7520 C   0  0  0  0  0  0  0  0  0  0  0  0
   38.5120   29.1030   37.0170 N   0  0  0  0  0  0  0  0  0  0  0  0
   39.1800   27.9690   37.2360 C   0  0  0  0  0  0  0  0  0  0  0  0
   40.0780   27.8900   38.2350 N   0  0  0  0  0  0  0  0  0  0  0  0
   41.2490   28.8790   40.0720 N   0  0  0  0  0  0  0  0  0  0  0  0
   38.1330   31.1600   37.5850 H   0  0  0  0  0  0  0  0  0  0  0  0
   39.0220   27.0860   36.6210 H   0  0  0  0  0  0  0  0  0  0  0  0
   41.8230   29.6770   40.4210 H   0  0  0  0  0  0  0  0  0  0  0  0
   41.4180   27.9740   40.5630 H   0  0  0  0  0  0  0  0  0  0  0  0
  1  6  1  0  0  0  0
  2  1  1  0  0  0  0
  2  7  1  0  0  0  0
  3  2  1  0  0  0  0
  3  9  1  0  0  0  0
  3  4  1  0  0  0  0
  4 12  1  0  0  0  0
  4  5  1  0  0  0  0
  5 13  1  0  0  0  0
  5 14  1  0  0  0  0
  6 16  1  0  0  0  0
  6  5  1  0  0  0  0
  6 15  1  1  0  0  0
  8  2  1  0  0  0  0
 10  3  1  0  0  0  0
 11  4  1  0  0  0  0
 16 27  1  0  0  0  0
 17 18  1  0  0  0  0
 17 16  2  0  0  0  0
 18 19  2  0  0  0  0
 19 20  1  0  0  0  0
 20 21  1  0  0  0  0
 21 22  2  0  0  0  0
 22 23  1  0  0  0  0
 24 22  1  0  0  0  0
 24 25  1  0  0  0  0
 26 24  2  0  0  0  0
 27 20  2  0  0  0  0
 27 26  1  0  0  0  0
 28 34  1  0  0  0  0
 29 28  1  0  0  0  0
 29  1  1  0  0  0  0
 30 29  2  0  0  0  0
 31 32  2  0  0  0  0
 31 30  1  0  0  0  0
 32 33  1  0  0  0  0
 33 28  2  0  0  0  0
 34 37  1  0  0  0  0
 34 38  1  0  0  0  0
 35 30  1  0  0  0  0
 36 32  1  0  0  0  0
M  END
>  <minimizedAffinity>
-5.46783733

$$$$

 OpenBabel03242518083D

 38 41  0  0  1  0  0  0  0  0999 V2000
   37.0320   29.5430   38.1700 N   0  0  0  0  0  0  0  0  0  0  0  0
   36.1370   29.6330   37.0540 C   0  0  0  0  0  0  0  0  0  0  0  0
   36.7140   29.0040   35.8580 C   0  0  0  0  0  0  0  0  0  0  0  0
   37.7950   28.0270   36.0570 C   0  0  0  0  0  0  0  0  0  0  0  0
   37.9490   27.4140   37.3880 C   0  0  0  0  0  0  0  0  0  0  0  0
   37.5030   28.2260   38.5760 C   0  0  1  0  0  0  0  0  0  0  0  0
   35.2240   29.0370   37.3490 H   0  0  0  0  0  0  0  0  0  0  0  0
   35.7430   30.6560   36.9000 H   0  0  0  0  0  0  0  0  0  0  0  0
   35.9040   28.5080   35.2660 H   0  0  0  0  0  0  0  0  0  0  0  0
   37.0460   29.8400   35.1720 H   0  0  0  0  0  0  0  0  0  0  0  0
   38.7730   28.5470   35.8260 H   0  0  0  0  0  0  0  0  0  0  0  0
   37.7570   27.2150   35.3000 H   0  0  0  0  0  0  0  0  0  0  0  0
   39.0190   27.1360   37.5740 H   0  0  0  0  0  0  0  0  0  0  0  0
   37.4320   26.4120   37.3820 H   0  0  0  0  0  0  0  0  0  0  0  0
   36.5770   27.7600   38.9750 H   0  0  0  0  0  0  0  0  0  0  0  0
   38.5390   28.2960   39.6290 C   0  0  0  0  0  0  0  0  0  0  0  0
   39.8410   28.5480   39.4060 N   0  0  0  0  0  0  0  0  0  0  0  0
   40.7390   28.6070   40.3980 C   0  0  0  0  0  3  0  0  0  0  0  0
   40.4450   28.4270   41.7020 N   0  0  0  0  0  0  0  0  0  0  0  0
   39.1480   28.1690   41.9880 C   0  0  0  0  0  0  0  0  0  0  0  0
   38.8280   27.9770   43.3130 C   0  0  0  0  0  3  0  0  0  0  0  0
   37.5450   27.7110   43.6760 C   0  0  0  0  0  0  0  0  0  0  0  0
   37.3420   27.5680   44.7250 H   0  0  0  0  0  0  0  0  0  0  0  0
   36.5870   27.6380   42.6950 C   0  0  0  0  0  0  0  0  0  0  0  0
   35.5780   27.4250   43.0160 H   0  0  0  0  0  0  0  0  0  0  0  0
   36.9500   27.8360   41.3850 C   0  0  0  0  0  3  0  0  0  0  0  0
   38.2350   28.1100   40.9610 C   0  0  0  0  0  0  0  0  0  0  0  0
   38.5970   31.3790   38.3780 C   0  0  0  0  0  0  0  0  0  0  0  0
   37.4380   30.7010   38.8540 C   0  0  0  0  0  0  0  0  0  0  0  0
   36.7760   31.2280   39.9660 C   0  0  0  0  0  0  0  0  0  0  0  0
   37.3010   32.3580   40.5100 N   0  0  0  0  0  0  0  0  0  0  0  0
   38.3880   32.9770   40.0490 C   0  0  0  0  0  0  0  0  0  0  0  0
   39.0450   32.4920   38.9790 N   0  0  0  0  0  0  0  0  0  0  0  0
   39.2920   30.8650   37.2430 N   0  0  0  0  0  0  0  0  0  0  0  0
   35.8960   30.7180   40.3310 H   0  0  0  0  0  0  0  0  0  0  0  0
   38.7730   33.8800   40.5170 H   0  0  0  0  0  0  0  0  0  0  0  0
   39.3490   29.8550   36.9860 H   0  0  0  0  0  0  0  0  0  0  0  0
   39.7970   31.5070   36.5940 H   0  0  0  0  0  0  0  0  0  0  0  0
  1  6  1  0  0  0  0
  1 29  1  0  0  0  0
  2  7  1  0  0  0  0
  2  1  1  0  0  0  0
  3  4  1  0  0  0  0
  3  2  1  0  0  0  0
  4  5  1  0  0  0  0
  5 13  1  0  0  0  0
  5  6  1  0  0  0  0
  6 15  1  1  0  0  0
  6 16  1  0  0  0  0
  8  2  1  0  0  0  0
  9  3  1  0  0  0  0
 10  3  1  0  0  0  0
 11  4  1  0  0  0  0
 12  4  1  0  0  0  0
 14  5  1  0  0  0  0
 16 27  1  0  0  0  0
 17 16  2  0  0  0  0
 17 18  1  0  0  0  0
 18 19  2  0  0  0  0
 19 20  1  0  0  0  0
 20 21  1  0  0  0  0
 21 22  2  0  0  0  0
 22 23  1  0  0  0  0
 24 25  1  0  0  0  0
 24 22  1  0  0  0  0
 26 24  2  0  0  0  0
 27 26  1  0  0  0  0
 27 20  2  0  0  0  0
 28 29  2  0  0  0  0
 28 33  1  0  0  0  0
 29 30  1  0  0  0  0
 30 35  1  0  0  0  0
 30 31  2  0  0  0  0
 32 31  1  0  0  0  0
 32 36  1  0  0  0  0
 33 32  2  0  0  0  0
 34 28  1  0  0  0  0
 37 34  1  0  0  0  0
 38 34  1  0  0  0  0
M  END
>  <minimizedAffinity>
-5.4624486

$$$$

 OpenBabel03242518083D

 38 41  0  0  1  0  0  0  0  0999 V2000
   38.1570   28.9940   41.3390 N   0  0  0  0  0  0  0  0  0  0  0  0
   38.6590   29.2170   42.6630 C   0  0  0  0  0  0  0  0  0  0  0  0
   37.7040   28.7530   43.6790 C   0  0  0  0  0  0  0  0  0  0  0  0
   36.6930   27.7700   43.2630 C   0  0  0  0  0  0  0  0  0  0  0  0
   36.9340   26.9930   42.0340 C   0  0  0  0  0  0  0  0  0  0  0  0
   37.7720   27.6420   40.9630 C   0  0  1  0  0  0  0  0  0  0  0  0
   39.5870   28.5790   42.7470 H   0  0  0  0  0  0  0  0  0  0  0  0
   39.0360   30.2480   42.8130 H   0  0  0  0  0  0  0  0  0  0  0  0
   38.2600   28.3280   44.5520 H   0  0  0  0  0  0  0  0  0  0  0  0
   37.2160   29.6730   44.1190 H   0  0  0  0  0  0  0  0  0  0  0  0
   35.7200   28.3250   43.1070 H   0  0  0  0  0  0  0  0  0  0  0  0
   36.4490   27.0610   44.0830 H   0  0  0  0  0  0  0  0  0  0  0  0
   35.9640   26.7050   41.5520 H   0  0  0  0  0  0  0  0  0  0  0  0
   37.3710   25.9940   42.3230 H   0  0  0  0  0  0  0  0  0  0  0  0
   38.7520   27.1180   40.9380 H   0  0  0  0  0  0  0  0  0  0  0  0
   37.1250   27.5870   39.6340 C   0  0  0  0  0  0  0  0  0  0  0  0
   35.8580   27.9630   39.3840 N   0  0  0  0  0  0  0  0  0  0  0  0
   35.3220   27.9000   38.1580 C   0  0  0  0  0  3  0  0  0  0  0  0
   35.9760   27.4630   37.0630 N   0  0  0  0  0  0  0  0  0  0  0  0
   37.2570   27.0700   37.2540 C   0  0  0  0  0  0  0  0  0  0  0  0
   37.9410   26.6170   36.1480 C   0  0  0  0  0  3  0  0  0  0  0  0
   39.2310   26.2020   36.2650 C   0  0  0  0  0  0  0  0  0  0  0  0
   39.7270   25.8560   35.3720 H   0  0  0  0  0  0  0  0  0  0  0  0
   39.8260   26.2460   37.5010 C   0  0  0  0  0  0  0  0  0  0  0  0
   40.8510   25.9090   37.5600 H   0  0  0  0  0  0  0  0  0  0  0  0
   39.1060   26.7050   38.5770 C   0  0  0  0  0  3  0  0  0  0  0  0
   37.7970   27.1380   38.5170 C   0  0  0  0  0  0  0  0  0  0  0  0
   36.8570   30.8410   40.4680 C   0  0  0  0  0  0  0  0  0  0  0  0
   38.0470   30.0600   40.4300 C   0  0  0  0  0  0  0  0  0  0  0  0
   39.0290   30.3980   39.4960 C   0  0  0  0  0  0  0  0  0  0  0  0
   38.7630   31.4600   38.6890 N   0  0  0  0  0  0  0  0  0  0  0  0
   37.6420   32.1790   38.7410 C   0  0  0  0  0  0  0  0  0  0  0  0
   36.6790   31.8760   39.6310 N   0  0  0  0  0  0  0  0  0  0  0  0
   35.8370   30.5190   41.4130 N   0  0  0  0  0  0  0  0  0  0  0  0
   39.9340   29.8090   39.4630 H   0  0  0  0  0  0  0  0  0  0  0  0
   37.4720   33.0210   38.0750 H   0  0  0  0  0  0  0  0  0  0  0  0
   35.6340   29.5580   41.7670 H   0  0  0  0  0  0  0  0  0  0  0  0
   35.2230   31.2650   41.8070 H   0  0  0  0  0  0  0  0  0  0  0  0
  1  2  1  0  0  0  0
  2  7  1  0  0  0  0
  2  8  1  0  0  0  0
  2  3  1  0  0  0  0
  3 10  1  0  0  0  0
  3  9  1  0  0  0  0
  4  3  1  0  0  0  0
  4 12  1  0  0  0  0
  5 14  1  0  0  0  0
  5  4  1  0  0  0  0
  6 15  1  6  0  0  0
  6  1  1  0  0  0  0
  6  5  1  0  0  0  0
 11  4  1  0  0  0  0
 13  5  1  0  0  0  0
 16  6  1  0  0  0  0
 17 16  1  0  0  0  0
 18 17  2  0  0  0  0
 19 20  2  0  0  0  0
 19 18  1  0  0  0  0
 20 27  1  0  0  0  0
 21 22  2  0  0  0  0
 21 20  1  0  0  0  0
 22 24  1  0  0  0  0
 23 22  1  0  0  0  0
 24 25  1  0  0  0  0
 24 26  2  0  0  0  0
 27 26  1  0  0  0  0
 27 16  2  0  0  0  0
 28 34  1  0  0  0  0
 29 28  1  0  0  0  0
 29  1  1  0  0  0  0
 30 29  2  0  0  0  0
 31 32  2  0  0  0  0
 31 30  1  0  0  0  0
 32 33  1  0  0  0  0
 33 28  2  0  0  0  0
 34 37  1  0  0  0  0
 34 38  1  0  0  0  0
 35 30  1  0  0  0  0
 36 32  1  0  0  0  0
M  END
>  <minimizedAffinity>
-5.45573711

$$$$
