
 OpenBabel03242523343D

 40 44  0  0  0  0  0  0  0  0999 V2000
   45.7210   33.0360   46.9150 C   0  0  0  0  0  0  0  0  0  0  0  0
   44.8190   32.7500   47.5050 H   0  0  0  0  0  0  0  0  0  0  0  0
   46.3340   33.6530   47.5980 H   0  0  0  0  0  0  0  0  0  0  0  0
   44.4040   35.8160   44.8440 C   0  0  0  0  0  0  0  0  0  0  0  0
   44.7370   35.3620   43.5750 C   0  0  0  0  0  0  0  0  0  0  0  0
   45.4070   34.1190   43.4110 C   0  0  0  0  0  0  0  0  0  0  0  0
   45.6890   33.4270   44.5600 N   0  0  0  0  0  0  0  0  0  0  0  0
   45.3510   33.8970   45.7770 C   0  0  0  0  0  0  0  0  0  0  0  0
   44.7230   35.0680   45.8900 N   0  0  0  0  0  0  0  0  0  0  0  0
   43.9000   36.7480   44.9820 H   0  0  0  0  0  0  0  0  0  0  0  0
   44.4550   36.0020   42.7760 H   0  0  0  0  0  0  0  0  0  0  0  0
   45.6670   33.8310   42.0210 C   0  0  0  0  0  0  0  0  0  0  0  0
   44.8610   33.0610   41.2690 N   0  0  0  0  0  0  0  0  0  0  0  0
   45.0130   32.7450   40.0030 C   0  0  0  0  0  3  0  0  0  0  0  0
   46.0620   33.2050   39.3270 N   0  0  0  0  0  0  0  0  0  0  0  0
   46.9840   34.0050   39.9390 C   0  0  0  0  0  0  0  0  0  0  0  0
   48.0770   34.4980   39.2630 C   0  0  0  0  0  3  0  0  0  0  0  0
   48.9940   35.3070   39.9010 C   0  0  0  0  0  0  0  0  0  0  0  0
   49.8230   35.6520   39.3010 H   0  0  0  0  0  0  0  0  0  0  0  0
   48.7750   35.6040   41.2440 C   0  0  0  0  0  0  0  0  0  0  0  0
   49.4970   36.2370   41.7320 H   0  0  0  0  0  0  0  0  0  0  0  0
   47.6620   35.0780   41.8540 C   0  0  0  0  0  3  0  0  0  0  0  0
   46.7240   34.2700   41.2620 C   0  0  0  0  0  0  0  0  0  0  0  0
   46.6150   31.6070   46.2910 S   0  0  0  0  0  0  0  0  0  0  0  0
   47.7060   30.9530   47.5330 C   0  0  0  0  0  0  0  0  0  0  0  0
   48.0840   31.7950   48.5500 C   0  0  0  0  0  0  0  0  0  0  0  0
   48.9180   31.3030   49.5290 C   0  0  0  0  0  0  0  0  0  0  0  0
   49.3800   29.9830   49.5070 C   0  0  0  0  0  0  0  0  0  0  0  0
   50.1870   29.5340   50.4810 N   0  0  0  0  0  0  0  0  0  0  0  0
   50.6410   28.2710   50.4900 C   0  0  0  0  0  0  0  0  0  0  0  0
   50.2680   27.4240   49.4760 C   0  0  0  0  0  0  0  0  0  0  0  0
   49.4320   27.8840   48.4640 C   0  0  0  0  0  0  0  0  0  0  0  0
   48.9510   29.1950   48.4400 C   0  0  0  0  0  0  0  0  0  0  0  0
   48.1200   29.6520   47.4480 C   0  0  0  0  0  0  0  0  0  0  0  0
   47.8280   32.8270   48.7210 H   0  0  0  0  0  0  0  0  0  0  0  0
   49.2740   31.8930   50.3770 H   0  0  0  0  0  0  0  0  0  0  0  0
   51.2910   27.9160   51.2780 H   0  0  0  0  0  0  0  0  0  0  0  0
   50.6440   26.4110   49.5010 H   0  0  0  0  0  0  0  0  0  0  0  0
   49.1410   27.2050   47.6630 H   0  0  0  0  0  0  0  0  0  0  0  0
   47.8190   29.0130   46.6540 H   0  0  0  0  0  0  0  0  0  0  0  0
  1  2  1  0  0  0  0
  1  3  1  0  0  0  0
  4 10  1  0  0  0  0
  4  9  1  0  0  0  0
  5  4  2  0  0  0  0
  6  5  1  0  0  0  0
  6  7  2  0  0  0  0
  7  8  1  0  0  0  0
  8  9  2  0  0  0  0
  8  1  1  0  0  0  0
 11  5  1  0  0  0  0
 12  6  1  0  0  0  0
 13 12  1  0  0  0  0
 14 13  2  0  0  0  0
 15 16  2  0  0  0  0
 15 14  1  0  0  0  0
 16 23  1  0  0  0  0
 17 18  2  0  0  0  0
 17 16  1  0  0  0  0
 18 20  1  0  0  0  0
 19 18  1  0  0  0  0
 20 21  1  0  0  0  0
 20 22  2  0  0  0  0
 23 22  1  0  0  0  0
 23 12  2  0  0  0  0
 24  1  1  0  0  0  0
 24 25  1  0  0  0  0
 25 26  1  0  0  0  0
 26 35  1  0  0  0  0
 26 27  2  0  0  0  0
 27 36  1  0  0  0  0
 28 27  1  0  0  0  0
 28 29  1  0  0  0  0
 29 30  2  0  0  0  0
 30 37  1  0  0  0  0
 31 38  1  0  0  0  0
 31 30  1  0  0  0  0
 32 31  2  0  0  0  0
 33 32  1  0  0  0  0
 33 28  2  0  0  0  0
 34 25  2  0  0  0  0
 34 33  1  0  0  0  0
 39 32  1  0  0  0  0
 40 34  1  0  0  0  0
M  END
>  <minimizedAffinity>
-6.78741121

>  <minimizedRMSD>
1.27482986

$$$$
