
 OpenBabel03252502033D

 37 41  0  0  0  0  0  0  0  0999 V2000
   36.9760   30.8020   38.2920 C   0  0  0  0  0  0  0  0  0  0  0  0
   38.1940   31.2440   37.7540 C   0  0  0  0  0  0  0  0  0  0  0  0
   39.3670   30.8830   38.4030 C   0  0  0  0  0  0  0  0  0  0  0  0
   39.2080   30.1390   39.4870 N   0  0  0  0  0  0  0  0  0  0  0  0
   38.0980   29.7050   40.0240 C   0  0  0  0  0  0  0  0  0  0  0  0
   36.9950   30.0630   39.3890 N   0  0  0  0  0  0  0  0  0  0  0  0
   36.0500   31.1010   37.7650 H   0  0  0  0  0  0  0  0  0  0  0  0
   37.8120   28.8980   41.2060 C   0  0  0  0  0  0  0  0  0  0  0  0
   37.7900   29.3850   42.4730 N   0  0  0  0  0  0  0  0  0  0  0  0
   37.5350   28.6970   43.5780 C   0  0  0  0  0  0  0  0  0  0  0  0
   37.2630   27.3740   43.4810 N   0  0  0  0  0  0  0  0  0  0  0  0
   37.2520   26.7650   42.2800 C   0  0  0  0  0  0  0  0  0  0  0  0
   36.9730   25.4110   42.1900 C   0  0  0  0  0  0  0  0  0  0  0  0
   36.9590   24.7820   40.9720 C   0  0  0  0  0  0  0  0  0  0  0  0
   37.2280   25.5400   39.8680 C   0  0  0  0  0  0  0  0  0  0  0  0
   37.5010   26.8780   39.9930 C   0  0  0  0  0  0  0  0  0  0  0  0
   37.5280   27.5550   41.1810 C   0  0  0  0  0  0  0  0  0  0  0  0
   37.5210   29.0980   44.5800 H   0  0  0  0  0  0  0  0  0  0  0  0
   36.7700   24.8730   43.1030 H   0  0  0  0  0  0  0  0  0  0  0  0
   36.7470   23.7400   40.8640 H   0  0  0  0  0  0  0  0  0  0  0  0
   37.2150   25.0330   38.8980 H   0  0  0  0  0  0  0  0  0  0  0  0
   37.7070   27.4370   39.0730 H   0  0  0  0  0  0  0  0  0  0  0  0
   40.5430   31.4270   37.8020 C   0  0  0  0  0  0  0  0  0  0  0  0
   40.8280   32.6220   37.9270 N   0  0  0  0  0  0  0  0  0  0  0  0
   41.7960   33.5040   37.6970 C   0  0  0  0  0  3  0  0  0  0  0  0
   42.7660   32.7650   37.1180 N   0  0  0  0  0  0  0  0  0  0  0  0
   42.6920   31.4650   36.8720 C   0  0  0  0  0  0  0  0  0  0  0  0
   43.7140   30.7230   36.2580 C   0  0  0  0  0  3  0  0  0  0  0  0
   43.5480   29.3690   36.0300 C   0  0  0  0  0  0  0  0  0  0  0  0
   44.4320   28.9630   35.5470 H   0  0  0  0  0  0  0  0  0  0  0  0
   42.4090   28.6240   36.3670 C   0  0  0  0  0  0  0  0  0  0  0  0
   42.3820   27.5920   36.1530 H   0  0  0  0  0  0  0  0  0  0  0  0
   41.4420   29.3970   36.9650 C   0  0  0  0  0  3  0  0  0  0  0  0
   41.5570   30.7170   37.2070 C   0  0  0  0  0  0  0  0  0  0  0  0
   38.1410   32.0320   36.5590 N   0  0  0  0  0  0  0  0  0  0  0  0
   37.8310   33.0260   36.4560 H   0  0  0  0  0  0  0  0  0  0  0  0
   38.4700   31.4430   35.7500 H   0  0  0  0  0  0  0  0  0  0  0  0
  1  6  1  0  0  0  0
  2  1  2  0  0  0  0
  2  3  1  0  0  0  0
  3  4  2  0  0  0  0
  4  5  1  0  0  0  0
  5  8  1  0  0  0  0
  6  5  2  0  0  0  0
  7  1  1  0  0  0  0
  8  9  1  0  0  0  0
  9 10  2  0  0  0  0
 10 18  1  0  0  0  0
 11 10  1  0  0  0  0
 12 11  2  0  0  0  0
 13 12  1  0  0  0  0
 13 19  1  0  0  0  0
 14 13  2  0  0  0  0
 15 16  2  0  0  0  0
 15 14  1  0  0  0  0
 16 17  1  0  0  0  0
 17  8  2  0  0  0  0
 17 12  1  0  0  0  0
 20 14  1  0  0  0  0
 21 15  1  0  0  0  0
 22 16  1  0  0  0  0
 23 24  1  0  0  0  0
 23  3  1  0  0  0  0
 25 24  2  0  0  0  0
 26 25  1  0  0  0  0
 27 26  2  0  0  0  0
 27 34  1  0  0  0  0
 28 27  1  0  0  0  0
 29 28  2  0  0  0  0
 29 31  1  0  0  0  0
 30 29  1  0  0  0  0
 31 33  2  0  0  0  0
 32 31  1  0  0  0  0
 33 34  1  0  0  0  0
 34 23  2  0  0  0  0
 35  2  1  0  0  0  0
 36 35  1  0  0  0  0
 37 35  1  0  0  0  0
M  END
>  <minimizedAffinity>
-6.93938494

$$$$

 OpenBabel03252502033D

 37 41  0  0  0  0  0  0  0  0999 V2000
   37.4310   32.6170   40.0780 C   0  0  0  0  0  0  0  0  0  0  0  0
   37.2350   31.3910   40.7300 C   0  0  0  0  0  0  0  0  0  0  0  0
   38.3260   30.5450   40.8770 C   0  0  0  0  0  0  0  0  0  0  0  0
   39.4640   30.9970   40.3760 N   0  0  0  0  0  0  0  0  0  0  0  0
   39.6950   32.1280   39.7620 C   0  0  0  0  0  0  0  0  0  0  0  0
   38.6410   32.9160   39.6330 N   0  0  0  0  0  0  0  0  0  0  0  0
   36.5520   33.2790   39.9650 H   0  0  0  0  0  0  0  0  0  0  0  0
   40.8920   32.7140   39.1700 C   0  0  0  0  0  0  0  0  0  0  0  0
   41.0420   32.9610   37.8430 N   0  0  0  0  0  0  0  0  0  0  0  0
   42.1060   33.4930   37.2550 C   0  0  0  0  0  0  0  0  0  0  0  0
   43.1720   33.8390   38.0150 N   0  0  0  0  0  0  0  0  0  0  0  0
   43.1540   33.6460   39.3470 C   0  0  0  0  0  0  0  0  0  0  0  0
   44.2500   34.0030   40.1160 C   0  0  0  0  0  0  0  0  0  0  0  0
   44.2410   33.8120   41.4740 C   0  0  0  0  0  0  0  0  0  0  0  0
   43.1190   33.2620   42.0250 C   0  0  0  0  0  0  0  0  0  0  0  0
   42.0520   32.9200   41.2340 C   0  0  0  0  0  0  0  0  0  0  0  0
   42.0080   33.0880   39.8770 C   0  0  0  0  0  0  0  0  0  0  0  0
   42.2110   33.6840   36.1980 H   0  0  0  0  0  0  0  0  0  0  0  0
   45.1040   34.4320   39.6140 H   0  0  0  0  0  0  0  0  0  0  0  0
   45.0670   34.0760   42.0980 H   0  0  0  0  0  0  0  0  0  0  0  0
   43.1160   33.1110   43.1090 H   0  0  0  0  0  0  0  0  0  0  0  0
   41.1770   32.4850   41.7320 H   0  0  0  0  0  0  0  0  0  0  0  0
   38.0040   29.3040   41.5080 C   0  0  0  0  0  0  0  0  0  0  0  0
   37.7990   29.2400   42.7240 N   0  0  0  0  0  0  0  0  0  0  0  0
   37.3700   28.4210   43.6790 C   0  0  0  0  0  3  0  0  0  0  0  0
   37.0850   27.2810   43.0130 N   0  0  0  0  0  0  0  0  0  0  0  0
   37.2290   27.1030   41.7080 C   0  0  0  0  0  0  0  0  0  0  0  0
   36.9350   25.9010   41.0430 C   0  0  0  0  0  3  0  0  0  0  0  0
   37.1240   25.7990   39.6770 C   0  0  0  0  0  0  0  0  0  0  0  0
   36.8510   24.8050   39.3380 H   0  0  0  0  0  0  0  0  0  0  0  0
   37.6010   26.8230   38.8460 C   0  0  0  0  0  0  0  0  0  0  0  0
   37.7060   26.6450   37.8120 H   0  0  0  0  0  0  0  0  0  0  0  0
   37.8710   27.9750   39.5460 C   0  0  0  0  0  3  0  0  0  0  0  0
   37.7040   28.1220   40.8740 C   0  0  0  0  0  0  0  0  0  0  0  0
   35.9160   31.1020   41.2110 N   0  0  0  0  0  0  0  0  0  0  0  0
   35.0690   30.8450   40.6530 H   0  0  0  0  0  0  0  0  0  0  0  0
   35.9120   31.1910   42.2600 H   0  0  0  0  0  0  0  0  0  0  0  0
  1  2  1  0  0  0  0
  2  3  2  0  0  0  0
  2 35  1  0  0  0  0
  3 23  1  0  0  0  0
  4  3  1  0  0  0  0
  5  4  2  0  0  0  0
  6  5  1  0  0  0  0
  6  1  2  0  0  0  0
  7  1  1  0  0  0  0
  8  5  1  0  0  0  0
  8 17  1  0  0  0  0
  9  8  2  0  0  0  0
 10  9  1  0  0  0  0
 10 11  2  0  0  0  0
 11 12  1  0  0  0  0
 12 17  2  0  0  0  0
 12 13  1  0  0  0  0
 13 14  2  0  0  0  0
 14 15  1  0  0  0  0
 14 20  1  0  0  0  0
 15 21  1  0  0  0  0
 16 22  1  0  0  0  0
 16 15  2  0  0  0  0
 17 16  1  0  0  0  0
 18 10  1  0  0  0  0
 19 13  1  0  0  0  0
 23 24  1  0  0  0  0
 24 25  2  0  0  0  0
 26 25  1  0  0  0  0
 27 26  2  0  0  0  0
 28 27  1  0  0  0  0
 29 28  2  0  0  0  0
 30 29  1  0  0  0  0
 31 33  2  0  0  0  0
 31 29  1  0  0  0  0
 32 31  1  0  0  0  0
 33 34  1  0  0  0  0
 34 23  2  0  0  0  0
 34 27  1  0  0  0  0
 35 37  1  0  0  0  0
 36 35  1  0  0  0  0
M  END
>  <minimizedAffinity>
-6.92414999

$$$$

 OpenBabel03252502033D

 37 41  0  0  0  0  0  0  0  0999 V2000
   37.5300   32.7230   40.3490 C   0  0  0  0  0  0  0  0  0  0  0  0
   37.1900   31.3820   40.5800 C   0  0  0  0  0  0  0  0  0  0  0  0
   38.1360   30.4070   40.2970 C   0  0  0  0  0  0  0  0  0  0  0  0
   39.2900   30.8580   39.8290 N   0  0  0  0  0  0  0  0  0  0  0  0
   39.6520   32.0920   39.5980 C   0  0  0  0  0  0  0  0  0  0  0  0
   38.7340   33.0020   39.8740 N   0  0  0  0  0  0  0  0  0  0  0  0
   36.7650   33.4890   40.5770 H   0  0  0  0  0  0  0  0  0  0  0  0
   40.8780   32.6910   39.0820 C   0  0  0  0  0  0  0  0  0  0  0  0
   41.0710   33.0310   37.7810 N   0  0  0  0  0  0  0  0  0  0  0  0
   42.1620   33.5780   37.2620 C   0  0  0  0  0  0  0  0  0  0  0  0
   43.2140   33.8410   38.0720 N   0  0  0  0  0  0  0  0  0  0  0  0
   43.1550   33.5530   39.3860 C   0  0  0  0  0  0  0  0  0  0  0  0
   44.2360   33.8260   40.2080 C   0  0  0  0  0  0  0  0  0  0  0  0
   44.1850   33.5370   41.5470 C   0  0  0  0  0  0  0  0  0  0  0  0
   43.0360   32.9750   42.0260 C   0  0  0  0  0  0  0  0  0  0  0  0
   41.9840   32.7180   41.1850 C   0  0  0  0  0  0  0  0  0  0  0  0
   41.9810   32.9860   39.8440 C   0  0  0  0  0  0  0  0  0  0  0  0
   42.3000   33.8430   36.2250 H   0  0  0  0  0  0  0  0  0  0  0  0
   45.1130   34.2700   39.7610 H   0  0  0  0  0  0  0  0  0  0  0  0
   44.9990   33.7340   42.2100 H   0  0  0  0  0  0  0  0  0  0  0  0
   43.0000   32.7460   43.0960 H   0  0  0  0  0  0  0  0  0  0  0  0
   41.0860   32.2690   41.6260 H   0  0  0  0  0  0  0  0  0  0  0  0
   37.6680   29.0760   40.5190 C   0  0  0  0  0  0  0  0  0  0  0  0
   36.8740   28.5400   39.7390 N   0  0  0  0  0  0  0  0  0  0  0  0
   36.2990   27.3760   39.4560 C   0  0  0  0  0  3  0  0  0  0  0  0
   36.7980   26.5410   40.3930 N   0  0  0  0  0  0  0  0  0  0  0  0
   37.6590   26.8830   41.3400 C   0  0  0  0  0  0  0  0  0  0  0  0
   38.1530   25.9950   42.3090 C   0  0  0  0  0  3  0  0  0  0  0  0
   39.0430   26.4390   43.2700 C   0  0  0  0  0  0  0  0  0  0  0  0
   39.3130   25.6230   43.9320 H   0  0  0  0  0  0  0  0  0  0  0  0
   39.5280   27.7510   43.3800 C   0  0  0  0  0  0  0  0  0  0  0  0
   40.2090   27.9880   44.1480 H   0  0  0  0  0  0  0  0  0  0  0  0
   39.0150   28.5760   42.4080 C   0  0  0  0  0  3  0  0  0  0  0  0
   38.1460   28.1900   41.4540 C   0  0  0  0  0  0  0  0  0  0  0  0
   35.8840   31.1140   41.1060 N   0  0  0  0  0  0  0  0  0  0  0  0
   34.9650   31.1750   40.6100 H   0  0  0  0  0  0  0  0  0  0  0  0
   35.9780   30.8350   42.1170 H   0  0  0  0  0  0  0  0  0  0  0  0
  1  7  1  0  0  0  0
  1  2  1  0  0  0  0
  2 35  1  0  0  0  0
  3 23  1  0  0  0  0
  3  2  2  0  0  0  0
  4  3  1  0  0  0  0
  5  4  2  0  0  0  0
  5  6  1  0  0  0  0
  6  1  2  0  0  0  0
  8  5  1  0  0  0  0
  8 17  1  0  0  0  0
  9  8  2  0  0  0  0
 10  9  1  0  0  0  0
 10 11  2  0  0  0  0
 11 12  1  0  0  0  0
 12 17  2  0  0  0  0
 12 13  1  0  0  0  0
 13 14  2  0  0  0  0
 14 15  1  0  0  0  0
 14 20  1  0  0  0  0
 15 21  1  0  0  0  0
 16 22  1  0  0  0  0
 16 15  2  0  0  0  0
 17 16  1  0  0  0  0
 18 10  1  0  0  0  0
 19 13  1  0  0  0  0
 23 34  1  0  0  0  0
 24 23  2  0  0  0  0
 25 24  1  0  0  0  0
 25 26  2  0  0  0  0
 26 27  1  0  0  0  0
 27 34  2  0  0  0  0
 27 28  1  0  0  0  0
 28 29  2  0  0  0  0
 29 31  1  0  0  0  0
 29 30  1  0  0  0  0
 31 32  1  0  0  0  0
 33 31  2  0  0  0  0
 34 33  1  0  0  0  0
 35 37  1  0  0  0  0
 36 35  1  0  0  0  0
M  END
>  <minimizedAffinity>
-6.81505013

$$$$

 OpenBabel03252502033D

 37 41  0  0  0  0  0  0  0  0999 V2000
   39.3100   33.7500   39.8280 C   0  0  0  0  0  0  0  0  0  0  0  0
   38.3720   32.7250   40.0180 C   0  0  0  0  0  0  0  0  0  0  0  0
   38.8200   31.4110   39.9910 C   0  0  0  0  0  0  0  0  0  0  0  0
   40.1200   31.2620   39.7860 N   0  0  0  0  0  0  0  0  0  0  0  0
   41.0300   32.1830   39.6050 C   0  0  0  0  0  0  0  0  0  0  0  0
   40.5780   33.4250   39.6340 N   0  0  0  0  0  0  0  0  0  0  0  0
   38.9360   34.7910   39.8490 H   0  0  0  0  0  0  0  0  0  0  0  0
   42.4680   32.1290   39.3650 C   0  0  0  0  0  0  0  0  0  0  0  0
   43.4010   32.6260   40.2170 N   0  0  0  0  0  0  0  0  0  0  0  0
   44.7160   32.6010   40.0480 C   0  0  0  0  0  0  0  0  0  0  0  0
   45.2240   32.0350   38.9280 N   0  0  0  0  0  0  0  0  0  0  0  0
   44.4070   31.5040   37.9990 C   0  0  0  0  0  0  0  0  0  0  0  0
   44.9360   30.9260   36.8560 C   0  0  0  0  0  0  0  0  0  0  0  0
   44.1110   30.3830   35.9050 C   0  0  0  0  0  0  0  0  0  0  0  0
   42.7660   30.4350   36.1330 C   0  0  0  0  0  0  0  0  0  0  0  0
   42.2760   31.0140   37.2750 C   0  0  0  0  0  0  0  0  0  0  0  0
   43.0510   31.5710   38.2550 C   0  0  0  0  0  0  0  0  0  0  0  0
   45.4470   33.0000   40.7350 H   0  0  0  0  0  0  0  0  0  0  0  0
   46.0090   30.9200   36.7410 H   0  0  0  0  0  0  0  0  0  0  0  0
   44.4840   29.9280   35.0120 H   0  0  0  0  0  0  0  0  0  0  0  0
   42.1120   30.0000   35.3710 H   0  0  0  0  0  0  0  0  0  0  0  0
   41.1870   31.0260   37.4060 H   0  0  0  0  0  0  0  0  0  0  0  0
   37.7760   30.4480   40.1420 C   0  0  0  0  0  0  0  0  0  0  0  0
   37.0310   30.1610   39.2000 N   0  0  0  0  0  0  0  0  0  0  0  0
   36.0840   29.3060   38.8280 C   0  0  0  0  0  3  0  0  0  0  0  0
   35.9330   28.5120   39.9100 N   0  0  0  0  0  0  0  0  0  0  0  0
   36.6130   28.6260   41.0420 C   0  0  0  0  0  0  0  0  0  0  0  0
   36.4260   27.7920   42.1560 C   0  0  0  0  0  3  0  0  0  0  0  0
   37.1740   27.9880   43.3040 C   0  0  0  0  0  0  0  0  0  0  0  0
   36.8960   27.2580   44.0570 H   0  0  0  0  0  0  0  0  0  0  0  0
   38.1470   28.9830   43.4760 C   0  0  0  0  0  0  0  0  0  0  0  0
   38.6660   29.0470   44.3910 H   0  0  0  0  0  0  0  0  0  0  0  0
   38.2890   29.7680   42.3580 C   0  0  0  0  0  3  0  0  0  0  0  0
   37.5850   29.6170   41.2190 C   0  0  0  0  0  0  0  0  0  0  0  0
   37.0090   33.1100   40.2380 N   0  0  0  0  0  0  0  0  0  0  0  0
   36.3270   33.4910   39.5420 H   0  0  0  0  0  0  0  0  0  0  0  0
   36.7720   32.9520   41.2520 H   0  0  0  0  0  0  0  0  0  0  0  0
  1  7  1  0  0  0  0
  1  2  1  0  0  0  0
  2 35  1  0  0  0  0
  3  2  2  0  0  0  0
  3 23  1  0  0  0  0
  4  3  1  0  0  0  0
  5  6  1  0  0  0  0
  5  4  2  0  0  0  0
  6  1  2  0  0  0  0
  8  5  1  0  0  0  0
  8  9  1  0  0  0  0
 10  9  2  0  0  0  0
 10 18  1  0  0  0  0
 11 10  1  0  0  0  0
 12 17  1  0  0  0  0
 12 11  2  0  0  0  0
 13 12  1  0  0  0  0
 14 15  1  0  0  0  0
 14 13  2  0  0  0  0
 15 16  2  0  0  0  0
 16 22  1  0  0  0  0
 16 17  1  0  0  0  0
 17  8  2  0  0  0  0
 19 13  1  0  0  0  0
 20 14  1  0  0  0  0
 21 15  1  0  0  0  0
 23 34  1  0  0  0  0
 24 23  2  0  0  0  0
 25 24  1  0  0  0  0
 25 26  2  0  0  0  0
 26 27  1  0  0  0  0
 27 34  2  0  0  0  0
 27 28  1  0  0  0  0
 28 29  2  0  0  0  0
 29 31  1  0  0  0  0
 29 30  1  0  0  0  0
 31 32  1  0  0  0  0
 33 31  2  0  0  0  0
 34 33  1  0  0  0  0
 35 37  1  0  0  0  0
 36 35  1  0  0  0  0
M  END
>  <minimizedAffinity>
-6.62466145

$$$$

 OpenBabel03252502033D

 37 41  0  0  0  0  0  0  0  0999 V2000
   37.1200   30.4210   37.1110 C   0  0  0  0  0  0  0  0  0  0  0  0
   38.2930   31.1910   37.1040 C   0  0  0  0  0  0  0  0  0  0  0  0
   39.3310   30.8120   37.9440 C   0  0  0  0  0  0  0  0  0  0  0  0
   39.1000   29.7360   38.6790 N   0  0  0  0  0  0  0  0  0  0  0  0
   38.0290   28.9880   38.7200 C   0  0  0  0  0  0  0  0  0  0  0  0
   37.0530   29.3700   37.9120 N   0  0  0  0  0  0  0  0  0  0  0  0
   36.3010   30.7370   36.4390 H   0  0  0  0  0  0  0  0  0  0  0  0
   37.6700   27.8020   39.4890 C   0  0  0  0  0  0  0  0  0  0  0  0
   37.4800   26.5720   38.9470 N   0  0  0  0  0  0  0  0  0  0  0  0
   37.1550   25.4630   39.6000 C   0  0  0  0  0  0  0  0  0  0  0  0
   36.9850   25.5170   40.9420 N   0  0  0  0  0  0  0  0  0  0  0  0
   37.1440   26.6790   41.6060 C   0  0  0  0  0  0  0  0  0  0  0  0
   36.9680   26.7240   42.9790 C   0  0  0  0  0  0  0  0  0  0  0  0
   37.1280   27.9020   43.6630 C   0  0  0  0  0  0  0  0  0  0  0  0
   37.4630   29.0100   42.9400 C   0  0  0  0  0  0  0  0  0  0  0  0
   37.6290   28.9290   41.5810 C   0  0  0  0  0  0  0  0  0  0  0  0
   37.4820   27.7830   40.8490 C   0  0  0  0  0  0  0  0  0  0  0  0
   37.0080   24.4910   39.1550 H   0  0  0  0  0  0  0  0  0  0  0  0
   36.7020   25.8100   43.4870 H   0  0  0  0  0  0  0  0  0  0  0  0
   37.0010   27.9740   44.7220 H   0  0  0  0  0  0  0  0  0  0  0  0
   37.5900   29.9470   43.4900 H   0  0  0  0  0  0  0  0  0  0  0  0
   37.9010   29.8510   41.0520 H   0  0  0  0  0  0  0  0  0  0  0  0
   40.4540   31.6930   37.8960 C   0  0  0  0  0  0  0  0  0  0  0  0
   40.4450   32.7740   38.4940 N   0  0  0  0  0  0  0  0  0  0  0  0
   41.2230   33.7930   38.8420 C   0  0  0  0  0  3  0  0  0  0  0  0
   42.4240   33.4660   38.3180 N   0  0  0  0  0  0  0  0  0  0  0  0
   42.6820   32.3640   37.6290 C   0  0  0  0  0  0  0  0  0  0  0  0
   43.9400   32.0550   37.0850 C   0  0  0  0  0  3  0  0  0  0  0  0
   44.1190   30.8850   36.3700 C   0  0  0  0  0  0  0  0  0  0  0  0
   45.1460   30.8140   36.0250 H   0  0  0  0  0  0  0  0  0  0  0  0
   43.1250   29.9280   36.1210 C   0  0  0  0  0  0  0  0  0  0  0  0
   43.3650   29.0640   35.5660 H   0  0  0  0  0  0  0  0  0  0  0  0
   41.9170   30.2780   36.6750 C   0  0  0  0  0  3  0  0  0  0  0  0
   41.6940   31.4050   37.3780 C   0  0  0  0  0  0  0  0  0  0  0  0
   38.3390   32.3150   36.2170 N   0  0  0  0  0  0  0  0  0  0  0  0
   37.8380   33.2290   36.3090 H   0  0  0  0  0  0  0  0  0  0  0  0
   38.9770   32.0840   35.4110 H   0  0  0  0  0  0  0  0  0  0  0  0
  1  6  1  0  0  0  0
  2  1  2  0  0  0  0
  2  3  1  0  0  0  0
  3  4  2  0  0  0  0
  4  5  1  0  0  0  0
  5  8  1  0  0  0  0
  6  5  2  0  0  0  0
  7  1  1  0  0  0  0
  8 17  1  0  0  0  0
  9  8  2  0  0  0  0
  9 10  1  0  0  0  0
 10 11  2  0  0  0  0
 11 12  1  0  0  0  0
 12 13  1  0  0  0  0
 13 19  1  0  0  0  0
 13 14  2  0  0  0  0
 14 20  1  0  0  0  0
 15 21  1  0  0  0  0
 15 14  1  0  0  0  0
 16 15  2  0  0  0  0
 17 16  1  0  0  0  0
 17 12  2  0  0  0  0
 18 10  1  0  0  0  0
 22 16  1  0  0  0  0
 23  3  1  0  0  0  0
 23 24  1  0  0  0  0
 24 25  2  0  0  0  0
 26 25  1  0  0  0  0
 27 26  2  0  0  0  0
 28 27  1  0  0  0  0
 29 28  2  0  0  0  0
 30 29  1  0  0  0  0
 31 29  1  0  0  0  0
 31 33  2  0  0  0  0
 32 31  1  0  0  0  0
 33 34  1  0  0  0  0
 34 27  1  0  0  0  0
 34 23  2  0  0  0  0
 35 36  1  0  0  0  0
 35  2  1  0  0  0  0
 37 35  1  0  0  0  0
M  END
>  <minimizedAffinity>
-6.5659647

$$$$

 OpenBabel03252502033D

 37 41  0  0  0  0  0  0  0  0999 V2000
   36.1170   30.9230   40.3430 C   0  0  0  0  0  0  0  0  0  0  0  0
   37.3620   31.5650   40.2770 C   0  0  0  0  0  0  0  0  0  0  0  0
   38.4610   30.8250   39.8630 C   0  0  0  0  0  0  0  0  0  0  0  0
   38.2110   29.5600   39.5640 N   0  0  0  0  0  0  0  0  0  0  0  0
   37.0720   28.9200   39.6100 C   0  0  0  0  0  0  0  0  0  0  0  0
   36.0410   29.6450   40.0080 N   0  0  0  0  0  0  0  0  0  0  0  0
   35.2510   31.5250   40.6780 H   0  0  0  0  0  0  0  0  0  0  0  0
   36.6910   27.5420   39.3150 C   0  0  0  0  0  0  0  0  0  0  0  0
   36.1600   27.1350   38.1350 N   0  0  0  0  0  0  0  0  0  0  0  0
   35.7990   25.8990   37.8170 C   0  0  0  0  0  0  0  0  0  0  0  0
   35.9580   24.9120   38.7300 N   0  0  0  0  0  0  0  0  0  0  0  0
   36.4760   25.1810   39.9440 C   0  0  0  0  0  0  0  0  0  0  0  0
   36.6350   24.1650   40.8720 C   0  0  0  0  0  0  0  0  0  0  0  0
   37.1620   24.4280   42.1100 C   0  0  0  0  0  0  0  0  0  0  0  0
   37.5160   25.7190   42.3820 C   0  0  0  0  0  0  0  0  0  0  0  0
   37.3450   26.7000   41.4400 C   0  0  0  0  0  0  0  0  0  0  0  0
   36.8250   26.4940   40.1910 C   0  0  0  0  0  0  0  0  0  0  0  0
   35.3770   25.5900   36.8720 H   0  0  0  0  0  0  0  0  0  0  0  0
   36.3330   23.1680   40.5900 H   0  0  0  0  0  0  0  0  0  0  0  0
   37.3000   23.6700   42.8500 H   0  0  0  0  0  0  0  0  0  0  0  0
   37.9370   25.9240   43.3710 H   0  0  0  0  0  0  0  0  0  0  0  0
   37.6500   27.7180   41.7130 H   0  0  0  0  0  0  0  0  0  0  0  0
   39.6850   31.5620   39.8820 C   0  0  0  0  0  0  0  0  0  0  0  0
   39.9270   32.4190   39.0270 N   0  0  0  0  0  0  0  0  0  0  0  0
   40.7850   33.3860   38.7180 C   0  0  0  0  0  3  0  0  0  0  0  0
   41.6750   33.3550   39.7330 N   0  0  0  0  0  0  0  0  0  0  0  0
   41.6320   32.5220   40.7610 C   0  0  0  0  0  0  0  0  0  0  0  0
   42.5790   32.5040   41.7980 C   0  0  0  0  0  3  0  0  0  0  0  0
   42.4630   31.5910   42.8310 C   0  0  0  0  0  0  0  0  0  0  0  0
   43.2790   31.7210   43.5350 H   0  0  0  0  0  0  0  0  0  0  0  0
   41.4440   30.6350   42.9560 C   0  0  0  0  0  0  0  0  0  0  0  0
   41.4420   29.9850   43.7860 H   0  0  0  0  0  0  0  0  0  0  0  0
   40.5450   30.6970   41.9180 C   0  0  0  0  0  3  0  0  0  0  0  0
   40.6170   31.5660   40.8910 C   0  0  0  0  0  0  0  0  0  0  0  0
   37.4080   32.9530   40.6340 N   0  0  0  0  0  0  0  0  0  0  0  0
   37.3350   33.3740   41.5890 H   0  0  0  0  0  0  0  0  0  0  0  0
   37.5300   33.5240   39.7580 H   0  0  0  0  0  0  0  0  0  0  0  0
  1  7  1  0  0  0  0
  2  1  1  0  0  0  0
  2 35  1  0  0  0  0
  3 23  1  0  0  0  0
  3  2  2  0  0  0  0
  4  5  2  0  0  0  0
  4  3  1  0  0  0  0
  5  6  1  0  0  0  0
  6  1  2  0  0  0  0
  8  5  1  0  0  0  0
  8 17  1  0  0  0  0
  9  8  2  0  0  0  0
 10  9  1  0  0  0  0
 10 11  2  0  0  0  0
 11 12  1  0  0  0  0
 12 17  2  0  0  0  0
 12 13  1  0  0  0  0
 13 14  2  0  0  0  0
 14 15  1  0  0  0  0
 14 20  1  0  0  0  0
 15 21  1  0  0  0  0
 16 22  1  0  0  0  0
 16 15  2  0  0  0  0
 17 16  1  0  0  0  0
 18 10  1  0  0  0  0
 19 13  1  0  0  0  0
 23 34  1  0  0  0  0
 24 23  2  0  0  0  0
 25 24  1  0  0  0  0
 25 26  2  0  0  0  0
 26 27  1  0  0  0  0
 27 34  2  0  0  0  0
 27 28  1  0  0  0  0
 28 29  2  0  0  0  0
 29 31  1  0  0  0  0
 29 30  1  0  0  0  0
 31 32  1  0  0  0  0
 33 31  2  0  0  0  0
 34 33  1  0  0  0  0
 35 36  1  0  0  0  0
 37 35  1  0  0  0  0
M  END
>  <minimizedAffinity>
-6.43697643

$$$$

 OpenBabel03252502033D

 37 41  0  0  0  0  0  0  0  0999 V2000
   36.7350   30.8280   38.7370 C   0  0  0  0  0  0  0  0  0  0  0  0
   36.6320   29.8920   39.7770 C   0  0  0  0  0  0  0  0  0  0  0  0
   37.8040   29.3970   40.3320 C   0  0  0  0  0  0  0  0  0  0  0  0
   38.9230   29.8750   39.8110 N   0  0  0  0  0  0  0  0  0  0  0  0
   39.0690   30.7450   38.8460 C   0  0  0  0  0  0  0  0  0  0  0  0
   37.9390   31.2000   38.3320 N   0  0  0  0  0  0  0  0  0  0  0  0
   35.7930   31.2110   38.3020 H   0  0  0  0  0  0  0  0  0  0  0  0
   40.2380   31.3260   38.1970 C   0  0  0  0  0  0  0  0  0  0  0  0
   40.5680   32.6420   38.2560 N   0  0  0  0  0  0  0  0  0  0  0  0
   41.6170   33.2190   37.6870 C   0  0  0  0  0  0  0  0  0  0  0  0
   42.4740   32.4590   36.9640 N   0  0  0  0  0  0  0  0  0  0  0  0
   42.2640   31.1360   36.8250 C   0  0  0  0  0  0  0  0  0  0  0  0
   43.1450   30.3660   36.0830 C   0  0  0  0  0  0  0  0  0  0  0  0
   42.9390   29.0190   35.9360 C   0  0  0  0  0  0  0  0  0  0  0  0
   41.8430   28.4790   36.5450 C   0  0  0  0  0  0  0  0  0  0  0  0
   40.9910   29.2700   37.2720 C   0  0  0  0  0  0  0  0  0  0  0  0
   41.1470   30.6170   37.4510 C   0  0  0  0  0  0  0  0  0  0  0  0
   41.8670   34.2670   37.7440 H   0  0  0  0  0  0  0  0  0  0  0  0
   43.9900   30.8590   35.6290 H   0  0  0  0  0  0  0  0  0  0  0  0
   43.5990   28.3940   35.3730 H   0  0  0  0  0  0  0  0  0  0  0  0
   41.6830   27.4030   36.4250 H   0  0  0  0  0  0  0  0  0  0  0  0
   40.1280   28.7810   37.7410 H   0  0  0  0  0  0  0  0  0  0  0  0
   37.5840   28.4140   41.3450 C   0  0  0  0  0  0  0  0  0  0  0  0
   37.3220   28.7410   42.5070 N   0  0  0  0  0  0  0  0  0  0  0  0
   36.9320   28.2490   43.6780 C   0  0  0  0  0  3  0  0  0  0  0  0
   36.8080   26.9250   43.4390 N   0  0  0  0  0  0  0  0  0  0  0  0
   37.0410   26.3350   42.2760 C   0  0  0  0  0  0  0  0  0  0  0  0
   36.9150   24.9530   42.0580 C   0  0  0  0  0  3  0  0  0  0  0  0
   37.1880   24.4170   40.8130 C   0  0  0  0  0  0  0  0  0  0  0  0
   37.0410   23.3420   40.8300 H   0  0  0  0  0  0  0  0  0  0  0  0
   37.5960   25.1500   39.6880 C   0  0  0  0  0  0  0  0  0  0  0  0
   37.7760   24.6460   38.7790 H   0  0  0  0  0  0  0  0  0  0  0  0
   37.7010   26.4930   39.9550 C   0  0  0  0  0  3  0  0  0  0  0  0
   37.4480   27.0600   41.1500 C   0  0  0  0  0  0  0  0  0  0  0  0
   35.3150   29.5190   40.2000 N   0  0  0  0  0  0  0  0  0  0  0  0
   34.6240   28.9140   39.6990 H   0  0  0  0  0  0  0  0  0  0  0  0
   35.1220   29.9630   41.1360 H   0  0  0  0  0  0  0  0  0  0  0  0
  1  2  1  0  0  0  0
  2 35  1  0  0  0  0
  2  3  2  0  0  0  0
  3 23  1  0  0  0  0
  4  3  1  0  0  0  0
  5  4  2  0  0  0  0
  6  1  2  0  0  0  0
  6  5  1  0  0  0  0
  7  1  1  0  0  0  0
  8  9  1  0  0  0  0
  8  5  1  0  0  0  0
 10 18  1  0  0  0  0
 10  9  2  0  0  0  0
 11 10  1  0  0  0  0
 12 11  2  0  0  0  0
 12 17  1  0  0  0  0
 13 12  1  0  0  0  0
 14 13  2  0  0  0  0
 14 15  1  0  0  0  0
 15 16  2  0  0  0  0
 16 17  1  0  0  0  0
 16 22  1  0  0  0  0
 17  8  2  0  0  0  0
 19 13  1  0  0  0  0
 20 14  1  0  0  0  0
 21 15  1  0  0  0  0
 23 24  1  0  0  0  0
 24 25  2  0  0  0  0
 26 25  1  0  0  0  0
 27 26  2  0  0  0  0
 28 27  1  0  0  0  0
 29 30  1  0  0  0  0
 29 28  2  0  0  0  0
 31 33  2  0  0  0  0
 31 29  1  0  0  0  0
 32 31  1  0  0  0  0
 33 34  1  0  0  0  0
 34 23  2  0  0  0  0
 34 27  1  0  0  0  0
 35 37  1  0  0  0  0
 36 35  1  0  0  0  0
M  END
>  <minimizedAffinity>
-6.41981506

$$$$

 OpenBabel03252502033D

 37 41  0  0  0  0  0  0  0  0999 V2000
   39.2780   34.0620   39.8390 C   0  0  0  0  0  0  0  0  0  0  0  0
   38.3850   32.9860   39.9540 C   0  0  0  0  0  0  0  0  0  0  0  0
   38.8750   31.7030   39.7520 C   0  0  0  0  0  0  0  0  0  0  0  0
   40.1660   31.6280   39.4700 N   0  0  0  0  0  0  0  0  0  0  0  0
   41.0340   32.5980   39.3530 C   0  0  0  0  0  0  0  0  0  0  0  0
   40.5440   33.8110   39.5470 N   0  0  0  0  0  0  0  0  0  0  0  0
   38.8720   35.0790   39.9990 H   0  0  0  0  0  0  0  0  0  0  0  0
   42.4580   32.6280   39.0390 C   0  0  0  0  0  0  0  0  0  0  0  0
   43.3770   33.3450   39.7360 N   0  0  0  0  0  0  0  0  0  0  0  0
   44.6800   33.4060   39.4940 C   0  0  0  0  0  0  0  0  0  0  0  0
   45.1890   32.6970   38.4580 N   0  0  0  0  0  0  0  0  0  0  0  0
   44.3860   31.9420   37.6850 C   0  0  0  0  0  0  0  0  0  0  0  0
   44.9160   31.2210   36.6280 C   0  0  0  0  0  0  0  0  0  0  0  0
   44.1060   30.4490   35.8350 C   0  0  0  0  0  0  0  0  0  0  0  0
   42.7740   30.4250   36.1320 C   0  0  0  0  0  0  0  0  0  0  0  0
   42.2820   31.1510   37.1860 C   0  0  0  0  0  0  0  0  0  0  0  0
   43.0430   31.9360   38.0070 C   0  0  0  0  0  0  0  0  0  0  0  0
   45.3980   33.9810   40.0570 H   0  0  0  0  0  0  0  0  0  0  0  0
   45.9790   31.2880   36.4500 H   0  0  0  0  0  0  0  0  0  0  0  0
   44.4800   29.8790   35.0120 H   0  0  0  0  0  0  0  0  0  0  0  0
   42.1310   29.8070   35.4960 H   0  0  0  0  0  0  0  0  0  0  0  0
   41.2040   31.0900   37.3780 H   0  0  0  0  0  0  0  0  0  0  0  0
   37.8720   30.6890   39.8410 C   0  0  0  0  0  0  0  0  0  0  0  0
   37.4510   30.3010   40.9350 N   0  0  0  0  0  0  0  0  0  0  0  0
   36.5100   29.5490   41.4960 C   0  0  0  0  0  3  0  0  0  0  0  0
   35.8180   29.0690   40.4400 N   0  0  0  0  0  0  0  0  0  0  0  0
   36.0820   29.3370   39.1700 C   0  0  0  0  0  0  0  0  0  0  0  0
   35.3510   28.8140   38.0900 C   0  0  0  0  0  3  0  0  0  0  0  0
   35.7020   29.1390   36.7920 C   0  0  0  0  0  0  0  0  0  0  0  0
   35.0340   28.6450   36.0930 H   0  0  0  0  0  0  0  0  0  0  0  0
   36.7640   29.9780   36.4250 C   0  0  0  0  0  0  0  0  0  0  0  0
   36.9470   30.1660   35.4040 H   0  0  0  0  0  0  0  0  0  0  0  0
   37.4430   30.4620   37.5170 C   0  0  0  0  0  3  0  0  0  0  0  0
   37.1400   30.1740   38.7980 C   0  0  0  0  0  0  0  0  0  0  0  0
   37.0240   33.2910   40.2830 N   0  0  0  0  0  0  0  0  0  0  0  0
   36.2940   33.7220   39.6700 H   0  0  0  0  0  0  0  0  0  0  0  0
   36.8460   33.0080   41.2820 H   0  0  0  0  0  0  0  0  0  0  0  0
  1  2  1  0  0  0  0
  1  7  1  0  0  0  0
  2 35  1  0  0  0  0
  3 23  1  0  0  0  0
  3  2  2  0  0  0  0
  4  3  1  0  0  0  0
  5  4  2  0  0  0  0
  5  6  1  0  0  0  0
  6  1  2  0  0  0  0
  8  5  1  0  0  0  0
  8  9  1  0  0  0  0
 10  9  2  0  0  0  0
 10 18  1  0  0  0  0
 11 10  1  0  0  0  0
 12 17  1  0  0  0  0
 12 11  2  0  0  0  0
 13 12  1  0  0  0  0
 14 15  1  0  0  0  0
 14 13  2  0  0  0  0
 15 16  2  0  0  0  0
 16 22  1  0  0  0  0
 16 17  1  0  0  0  0
 17  8  2  0  0  0  0
 19 13  1  0  0  0  0
 20 14  1  0  0  0  0
 21 15  1  0  0  0  0
 23 24  1  0  0  0  0
 24 25  2  0  0  0  0
 26 25  1  0  0  0  0
 27 26  2  0  0  0  0
 28 27  1  0  0  0  0
 29 28  2  0  0  0  0
 30 29  1  0  0  0  0
 31 29  1  0  0  0  0
 31 33  2  0  0  0  0
 32 31  1  0  0  0  0
 33 34  1  0  0  0  0
 34 27  1  0  0  0  0
 34 23  2  0  0  0  0
 35 37  1  0  0  0  0
 36 35  1  0  0  0  0
M  END
>  <minimizedAffinity>
-6.41751814

$$$$

 OpenBabel03252502033D

 37 41  0  0  0  0  0  0  0  0999 V2000
   37.9110   30.7530   37.4790 C   0  0  0  0  0  0  0  0  0  0  0  0
   39.2400   31.1990   37.4130 C   0  0  0  0  0  0  0  0  0  0  0  0
   40.2090   30.4770   38.0950 C   0  0  0  0  0  0  0  0  0  0  0  0
   39.7660   29.4160   38.7510 N   0  0  0  0  0  0  0  0  0  0  0  0
   38.5440   28.9620   38.8410 C   0  0  0  0  0  0  0  0  0  0  0  0
   37.6380   29.6670   38.1840 N   0  0  0  0  0  0  0  0  0  0  0  0
   37.1500   31.3400   36.9320 H   0  0  0  0  0  0  0  0  0  0  0  0
   37.9520   27.8230   39.5350 C   0  0  0  0  0  0  0  0  0  0  0  0
   37.6250   26.6510   38.9330 N   0  0  0  0  0  0  0  0  0  0  0  0
   37.0880   25.5880   39.5170 C   0  0  0  0  0  0  0  0  0  0  0  0
   36.8220   25.6300   40.8440 N   0  0  0  0  0  0  0  0  0  0  0  0
   37.0980   26.7360   41.5620 C   0  0  0  0  0  0  0  0  0  0  0  0
   36.8220   26.7700   42.9190 C   0  0  0  0  0  0  0  0  0  0  0  0
   37.1000   27.8910   43.6580 C   0  0  0  0  0  0  0  0  0  0  0  0
   37.6530   28.9550   43.0050 C   0  0  0  0  0  0  0  0  0  0  0  0
   37.9130   28.8870   41.6600 C   0  0  0  0  0  0  0  0  0  0  0  0
   37.6560   27.7960   40.8760 C   0  0  0  0  0  0  0  0  0  0  0  0
   36.8340   24.6610   39.0250 H   0  0  0  0  0  0  0  0  0  0  0  0
   36.3840   25.8930   43.3700 H   0  0  0  0  0  0  0  0  0  0  0  0
   36.9020   27.9530   44.7060 H   0  0  0  0  0  0  0  0  0  0  0  0
   37.8740   29.8470   43.5990 H   0  0  0  0  0  0  0  0  0  0  0  0
   38.3600   29.7710   41.1900 H   0  0  0  0  0  0  0  0  0  0  0  0
   41.5150   31.0470   38.0030 C   0  0  0  0  0  0  0  0  0  0  0  0
   42.2330   30.8440   37.0200 N   0  0  0  0  0  0  0  0  0  0  0  0
   43.3700   31.2250   36.4470 C   0  0  0  0  0  3  0  0  0  0  0  0
   43.8560   32.1540   37.2990 N   0  0  0  0  0  0  0  0  0  0  0  0
   43.2720   32.5380   38.4240 C   0  0  0  0  0  0  0  0  0  0  0  0
   43.8060   33.4990   39.2970 C   0  0  0  0  0  3  0  0  0  0  0  0
   43.1330   33.8350   40.4580 C   0  0  0  0  0  0  0  0  0  0  0  0
   43.6910   34.5860   41.0070 H   0  0  0  0  0  0  0  0  0  0  0  0
   41.9100   33.2880   40.8720 C   0  0  0  0  0  0  0  0  0  0  0  0
   41.4740   33.6140   41.7750 H   0  0  0  0  0  0  0  0  0  0  0  0
   41.4310   32.3560   39.9820 C   0  0  0  0  0  3  0  0  0  0  0  0
   42.0510   31.9960   38.8410 C   0  0  0  0  0  0  0  0  0  0  0  0
   39.5040   32.3710   36.6300 N   0  0  0  0  0  0  0  0  0  0  0  0
   39.2690   33.3640   36.8590 H   0  0  0  0  0  0  0  0  0  0  0  0
   39.9910   32.0810   35.7420 H   0  0  0  0  0  0  0  0  0  0  0  0
  1  6  1  0  0  0  0
  2  1  2  0  0  0  0
  2  3  1  0  0  0  0
  3  4  2  0  0  0  0
  4  5  1  0  0  0  0
  5  8  1  0  0  0  0
  6  5  2  0  0  0  0
  7  1  1  0  0  0  0
  8 17  1  0  0  0  0
  9 10  1  0  0  0  0
  9  8  2  0  0  0  0
 10 11  2  0  0  0  0
 11 12  1  0  0  0  0
 12 13  1  0  0  0  0
 13 19  1  0  0  0  0
 13 14  2  0  0  0  0
 14 20  1  0  0  0  0
 15 21  1  0  0  0  0
 15 14  1  0  0  0  0
 16 15  2  0  0  0  0
 17 12  2  0  0  0  0
 17 16  1  0  0  0  0
 18 10  1  0  0  0  0
 22 16  1  0  0  0  0
 23  3  1  0  0  0  0
 23 34  1  0  0  0  0
 24 23  2  0  0  0  0
 25 24  1  0  0  0  0
 25 26  2  0  0  0  0
 26 27  1  0  0  0  0
 27 34  2  0  0  0  0
 27 28  1  0  0  0  0
 28 29  2  0  0  0  0
 29 31  1  0  0  0  0
 29 30  1  0  0  0  0
 31 32  1  0  0  0  0
 33 31  2  0  0  0  0
 34 33  1  0  0  0  0
 35 36  1  0  0  0  0
 35  2  1  0  0  0  0
 37 35  1  0  0  0  0
M  END
>  <minimizedAffinity>
-6.3291626

$$$$
