
 OpenBabel03252505073D

 46 50  0  0  1  0  0  0  0  0999 V2000
   44.6570   35.4470   44.5730 C   0  0  0  0  0  0  0  0  0  0  0  0
   45.3960   35.4530   43.3680 C   0  0  0  0  0  0  0  0  0  0  0  0
   46.4910   34.5560   43.2580 C   0  0  0  0  0  0  0  0  0  0  0  0
   46.7670   33.7450   44.3130 N   0  0  0  0  0  0  0  0  0  0  0  0
   46.0420   33.7670   45.4430 C   0  0  0  0  0  0  0  0  0  0  0  0
   44.9790   34.6220   45.5780 N   0  0  0  0  0  0  0  0  0  0  0  0
   43.8400   36.1440   44.6000 H   0  0  0  0  0  0  0  0  0  0  0  0
   45.1880   36.0870   42.5290 H   0  0  0  0  0  0  0  0  0  0  0  0
   46.3980   32.8660   46.5600 C   0  0  2  0  0  0  0  0  0  0  0  0
   46.9110   31.6040   45.9210 C   0  0  0  0  0  0  0  0  0  0  0  0
   45.9740   30.4590   45.9590 C   0  0  0  0  0  0  0  0  0  0  0  0
   45.6470   30.2480   47.4300 C   0  0  0  0  0  0  0  0  0  0  0  0
   44.8970   31.3670   47.9830 C   0  0  0  0  0  0  0  0  0  0  0  0
   45.3180   32.7090   47.5060 C   0  0  0  0  0  0  0  0  0  0  0  0
   47.2610   33.3780   47.0750 H   0  0  0  0  0  0  0  0  0  0  0  0
   47.2360   31.7590   44.8630 H   0  0  0  0  0  0  0  0  0  0  0  0
   47.8350   31.2990   46.4540 H   0  0  0  0  0  0  0  0  0  0  0  0
   45.0140   30.6760   45.4670 H   0  0  0  0  0  0  0  0  0  0  0  0
   46.5090   29.5730   45.5730 H   0  0  0  0  0  0  0  0  0  0  0  0
   44.9320   29.3890   47.4250 H   0  0  0  0  0  0  0  0  0  0  0  0
   46.5210   29.9150   48.0160 H   0  0  0  0  0  0  0  0  0  0  0  0
   44.0960   31.5090   48.6640 H   0  0  0  0  0  0  0  0  0  0  0  0
   44.6680   33.8790   47.9680 N   0  0  0  0  0  0  0  0  0  0  0  0
   45.1090   34.5470   48.6410 H   0  0  0  0  0  0  0  0  0  0  0  0
   43.7000   34.0430   47.5930 H   0  0  0  0  0  0  0  0  0  0  0  0
   47.2790   34.5380   42.0390 C   0  0  0  0  0  0  0  0  0  0  0  0
   48.0810   35.5960   41.7680 C   0  0  0  0  0  0  0  0  0  0  0  0
   48.8240   35.5110   40.5700 C   0  0  0  0  0  0  0  0  0  0  0  0
   48.6480   34.3710   39.8190 C   0  0  0  0  0  0  0  0  0  0  0  0
   47.8440   33.3070   40.0840 C   0  0  0  0  0  0  0  0  0  0  0  0
   47.1860   33.4970   41.2510 N   0  0  0  0  0  0  0  0  0  0  0  0
   48.1590   36.4470   42.4080 H   0  0  0  0  0  0  0  0  0  0  0  0
   49.4630   36.3200   40.3220 H   0  0  0  0  0  0  0  0  0  0  0  0
   49.2630   34.3980   38.9140 H   0  0  0  0  0  0  0  0  0  0  0  0
   47.8280   32.2180   39.1360 C   0  0  0  0  0  0  0  0  0  0  0  0
   48.6260   31.1590   39.3360 N   0  0  0  0  0  0  0  0  0  0  0  0
   48.6780   30.1050   38.5130 C   0  0  0  0  0  3  0  0  0  0  0  0
   47.9120   30.0320   37.3940 N   0  0  0  0  0  0  0  0  0  0  0  0
   47.0680   31.0680   37.1110 C   0  0  0  0  0  0  0  0  0  0  0  0
   46.2670   31.0500   35.9900 C   0  0  0  0  0  3  0  0  0  0  0  0
   45.4110   32.0900   35.6940 C   0  0  0  0  0  0  0  0  0  0  0  0
   44.8340   31.9620   34.7890 H   0  0  0  0  0  0  0  0  0  0  0  0
   45.3960   33.1670   36.5880 C   0  0  0  0  0  0  0  0  0  0  0  0
   44.7130   33.9600   36.3210 H   0  0  0  0  0  0  0  0  0  0  0  0
   46.2140   33.1390   37.6930 C   0  0  0  0  0  3  0  0  0  0  0  0
   47.0670   32.1150   37.9990 C   0  0  0  0  0  0  0  0  0  0  0  0
  1  7  1  0  0  0  0
  1  6  1  0  0  0  0
  2  1  2  0  0  0  0
  3  2  1  0  0  0  0
  3  4  2  0  0  0  0
  4  5  1  0  0  0  0
  5  6  2  0  0  0  0
  5  9  1  0  0  0  0
  8  2  1  0  0  0  0
  9 15  1  1  0  0  0
  9 14  1  0  0  0  0
 10 11  1  0  0  0  0
 10 17  1  0  0  0  0
 10  9  1  0  0  0  0
 11 12  1  0  0  0  0
 12 13  1  0  0  0  0
 12 21  1  0  0  0  0
 13 22  1  0  0  0  0
 14 23  1  0  0  0  0
 14 13  2  0  0  0  0
 16 10  1  0  0  0  0
 18 11  1  0  0  0  0
 19 11  1  0  0  0  0
 20 12  1  0  0  0  0
 23 24  1  0  0  0  0
 25 23  1  0  0  0  0
 26  3  1  0  0  0  0
 27 26  1  0  0  0  0
 27 32  1  0  0  0  0
 28 27  2  0  0  0  0
 29 30  2  0  0  0  0
 29 28  1  0  0  0  0
 30 31  1  0  0  0  0
 31 26  2  0  0  0  0
 33 28  1  0  0  0  0
 34 29  1  0  0  0  0
 35 36  1  0  0  0  0
 35 30  1  0  0  0  0
 37 36  2  0  0  0  0
 38 37  1  0  0  0  0
 39 38  2  0  0  0  0
 39 46  1  0  0  0  0
 40 39  1  0  0  0  0
 41 40  2  0  0  0  0
 41 43  1  0  0  0  0
 42 41  1  0  0  0  0
 43 45  2  0  0  0  0
 44 43  1  0  0  0  0
 45 46  1  0  0  0  0
 46 35  2  0  0  0  0
M  END
>  <minimizedAffinity>
-7.17350006

>  <minimizedRMSD>
1.42337108

$$$$
