
 OpenBabel03252507323D

 52 56  0  0  1  0  0  0  0  0999 V2000
   46.9670   32.7870   45.5570 C   0  0  0  0  0  0  0  0  0  0  0  0
   45.8770   33.4690   46.0810 C   0  0  0  0  0  0  0  0  0  0  0  0
   45.1890   34.4100   45.2790 C   0  0  0  0  0  0  0  0  0  0  0  0
   45.6740   34.5890   43.9850 N   0  0  0  0  0  0  0  0  0  0  0  0
   46.7450   33.8920   43.5390 C   0  0  0  0  0  0  0  0  0  0  0  0
   47.3720   33.0150   44.3070 N   0  0  0  0  0  0  0  0  0  0  0  0
   45.3730   33.5180   47.0210 H   0  0  0  0  0  0  0  0  0  0  0  0
   44.3490   35.0130   45.5000 H   0  0  0  0  0  0  0  0  0  0  0  0
   47.6210   31.8180   46.4120 C   0  0  2  0  0  0  0  0  0  0  0  0
   47.4240   30.3640   45.8800 C   0  0  0  0  0  0  0  0  0  0  0  0
   48.2430   29.4260   46.6950 C   0  0  0  0  0  0  0  0  0  0  0  0
   48.2000   29.6270   48.1710 C   0  0  0  0  0  0  0  0  0  0  0  0
   48.1550   31.0090   48.5840 C   0  0  0  0  0  0  0  0  0  0  0  0
   47.1530   31.8680   47.7830 C   0  0  2  0  0  0  0  0  0  0  0  0
   48.7280   31.9380   46.3230 H   0  0  0  0  0  0  0  0  0  0  0  0
   46.3590   30.1260   45.8160 H   0  0  0  0  0  0  0  0  0  0  0  0
   47.8050   30.4160   44.8400 H   0  0  0  0  0  0  0  0  0  0  0  0
   47.8270   28.3950   46.5060 H   0  0  0  0  0  0  0  0  0  0  0  0
   49.2450   29.3970   46.2250 H   0  0  0  0  0  0  0  0  0  0  0  0
   49.3140   29.3990   48.4160 H   0  0  0  0  0  0  0  0  0  0  0  0
   47.8360   28.8090   48.7950 H   0  0  0  0  0  0  0  0  0  0  0  0
   47.8090   31.0690   49.6570 H   0  0  0  0  0  0  0  0  0  0  0  0
   49.0940   31.6090   48.5720 H   0  0  0  0  0  0  0  0  0  0  0  0
   47.2350   32.8260   48.2970 H   0  0  0  0  0  0  0  0  0  0  0  0
   45.8280   31.2490   47.8800 N   0  0  0  0  0  0  0  0  0  0  0  0
   45.1410   30.6820   48.9660 C   0  0  0  0  0  0  0  0  0  0  0  0
   44.5680   31.3860   49.8740 O   0  0  0  0  0  0  0  0  0  0  0  0
   45.1190   29.2530   48.9780 N   0  0  0  0  0  0  0  0  0  0  0  0
   45.2000   31.0890   47.0050 H   0  0  0  0  0  0  0  0  0  0  0  0
   44.6430   28.7220   48.2010 H   0  0  0  0  0  0  0  0  0  0  0  0
   45.3870   28.3620   49.4540 H   0  0  0  0  0  0  0  0  0  0  0  0
   47.2180   34.1600   42.1850 C   0  0  0  0  0  0  0  0  0  0  0  0
   48.1610   35.0910   41.9130 C   0  0  0  0  0  0  0  0  0  0  0  0
   48.6230   35.3630   40.6410 C   0  0  0  0  0  0  0  0  0  0  0  0
   48.0600   34.6190   39.6270 C   0  0  0  0  0  0  0  0  0  0  0  0
   47.0850   33.6500   39.8700 C   0  0  0  0  0  0  0  0  0  0  0  0
   46.7280   33.4880   41.1580 N   0  0  0  0  0  0  0  0  0  0  0  0
   48.5890   35.6640   42.7220 H   0  0  0  0  0  0  0  0  0  0  0  0
   49.3770   36.1070   40.4250 H   0  0  0  0  0  0  0  0  0  0  0  0
   48.4190   34.8290   38.6360 H   0  0  0  0  0  0  0  0  0  0  0  0
   46.6060   32.9650   38.6850 C   0  0  0  0  0  0  0  0  0  0  0  0
   46.8870   33.4180   37.4520 N   0  0  0  0  0  0  0  0  0  0  0  0
   46.5090   32.8810   36.3070 C   0  0  0  0  0  3  0  0  0  0  0  0
   45.7620   31.7620   36.3020 N   0  0  0  0  0  0  0  0  0  0  0  0
   45.4090   31.2020   37.4940 C   0  0  0  0  0  0  0  0  0  0  0  0
   44.6440   30.0560   37.5140 C   0  0  0  0  0  3  0  0  0  0  0  0
   44.2710   29.4630   38.7220 C   0  0  0  0  0  0  0  0  0  0  0  0
   43.6740   28.5720   38.6040 H   0  0  0  0  0  0  0  0  0  0  0  0
   44.7150   30.0990   39.8890 C   0  0  0  0  0  0  0  0  0  0  0  0
   44.3950   29.5940   40.7940 H   0  0  0  0  0  0  0  0  0  0  0  0
   45.4740   31.2360   39.7970 C   0  0  0  0  0  3  0  0  0  0  0  0
   45.8440   31.8250   38.6330 C   0  0  0  0  0  0  0  0  0  0  0  0
  1  2  1  0  0  0  0
  1  9  1  0  0  0  0
  2  7  1  0  0  0  0
  3  8  1  0  0  0  0
  3  2  2  0  0  0  0
  4  3  1  0  0  0  0
  5  4  2  0  0  0  0
  5  6  1  0  0  0  0
  6  1  2  0  0  0  0
  9 15  1  1  0  0  0
  9 14  1  0  0  0  0
 10  9  1  0  0  0  0
 10 11  1  0  0  0  0
 11 12  1  0  0  0  0
 12 20  1  0  0  0  0
 12 13  1  0  0  0  0
 12 21  1  0  0  0  0
 13 22  1  0  0  0  0
 14 25  1  0  0  0  0
 14 24  1  1  0  0  0
 14 13  1  0  0  0  0
 16 10  1  0  0  0  0
 17 10  1  0  0  0  0
 18 11  1  0  0  0  0
 19 11  1  0  0  0  0
 23 13  1  0  0  0  0
 25 26  1  0  0  0  0
 26 28  1  0  0  0  0
 26 27  2  0  0  0  0
 28 31  1  0  0  0  0
 29 25  1  0  0  0  0
 30 28  1  0  0  0  0
 32  5  1  0  0  0  0
 33 32  1  0  0  0  0
 33 38  1  0  0  0  0
 34 33  2  0  0  0  0
 35 36  2  0  0  0  0
 35 34  1  0  0  0  0
 36 37  1  0  0  0  0
 37 32  2  0  0  0  0
 39 34  1  0  0  0  0
 40 35  1  0  0  0  0
 41 36  1  0  0  0  0
 42 41  2  0  0  0  0
 43 42  1  0  0  0  0
 44 43  2  0  0  0  0
 44 45  1  0  0  0  0
 45 46  2  0  0  0  0
 45 52  1  0  0  0  0
 46 47  1  0  0  0  0
 47 49  2  0  0  0  0
 48 47  1  0  0  0  0
 49 50  1  0  0  0  0
 51 49  1  0  0  0  0
 52 41  1  0  0  0  0
 52 51  2  0  0  0  0
M  END
>  <minimizedAffinity>
-6.47499561

>  <minimizedRMSD>
0.174234107

$$$$
