
 OpenBabel03252507433D

 34 37  0  0  0  0  0  0  0  0999 V2000
   44.4310   34.6820   41.5530 C   0  0  0  0  0  0  0  0  0  0  0  0
   43.6460   35.8500   41.8040 C   0  0  0  0  0  0  0  0  0  0  0  0
   42.0150   35.3790   41.0420 S   0  0  0  0  0  0  0  0  0  0  0  0
   42.7010   33.7000   40.5310 C   0  0  0  0  0  0  0  0  0  0  0  0
   43.7700   33.7560   40.9170 N   0  0  0  0  0  0  0  0  0  0  0  0
   43.9610   36.7490   42.3100 H   0  0  0  0  0  0  0  0  0  0  0  0
   41.7030   32.8800   39.8280 C   0  0  0  0  0  0  0  0  0  0  0  0
   41.4040   32.9300   38.5180 N   0  0  0  0  0  0  0  0  0  0  0  0
   40.4850   32.1550   37.9440 C   0  0  0  0  0  3  0  0  0  0  0  0
   39.7800   31.2520   38.6440 N   0  0  0  0  0  0  0  0  0  0  0  0
   40.0040   31.1250   39.9530 C   0  0  0  0  0  0  0  0  0  0  0  0
   39.2830   30.2010   40.6780 C   0  0  0  0  0  3  0  0  0  0  0  0
   39.5210   30.0720   42.0460 C   0  0  0  0  0  0  0  0  0  0  0  0
   38.9340   29.3340   42.5760 H   0  0  0  0  0  0  0  0  0  0  0  0
   40.4860   30.8980   42.6020 C   0  0  0  0  0  0  0  0  0  0  0  0
   40.5780   30.7010   43.6740 H   0  0  0  0  0  0  0  0  0  0  0  0
   41.1910   31.8130   41.8570 C   0  0  0  0  0  3  0  0  0  0  0  0
   40.9620   31.9450   40.5090 C   0  0  0  0  0  0  0  0  0  0  0  0
   45.8360   34.6140   42.0050 C   0  0  0  0  0  0  0  0  0  0  0  0
   45.8910   33.7800   42.7640 H   0  0  0  0  0  0  0  0  0  0  0  0
   46.1210   35.5280   42.5680 H   0  0  0  0  0  0  0  0  0  0  0  0
   46.8380   34.3330   40.9490 C   0  0  0  0  0  0  0  0  0  0  0  0
   46.5140   33.5490   40.2710 H   0  0  0  0  0  0  0  0  0  0  0  0
   46.8950   35.2670   40.3110 H   0  0  0  0  0  0  0  0  0  0  0  0
   48.2110   34.1250   41.4560 C   0  0  0  0  0  0  0  0  0  0  0  0
   48.8020   32.8800   41.1410 C   0  0  0  0  0  0  0  0  0  0  0  0
   50.0860   32.6090   41.5770 C   0  0  0  0  0  0  0  0  0  0  0  0
   50.7320   33.5760   42.3030 N   0  0  0  0  0  0  0  0  0  0  0  0
   50.1280   34.7520   42.5820 C   0  0  0  0  0  0  0  0  0  0  0  0
   48.8940   35.0140   42.1640 N   0  0  0  0  0  0  0  0  0  0  0  0
   50.5420   31.6690   41.3430 H   0  0  0  0  0  0  0  0  0  0  0  0
   50.7000   35.4810   43.1660 H   0  0  0  0  0  0  0  0  0  0  0  0
   47.8950   31.6620   40.1890 S   0  0  0  0  0  0  0  0  0  0  0  0
   46.9970   31.0280   41.0970 H   0  0  0  0  0  0  0  0  0  0  0  0
  1  2  2  0  0  0  0
  1 19  1  0  0  0  0
  2  6  1  0  0  0  0
  3  2  1  0  0  0  0
  4  5  2  0  0  0  0
  4  3  1  0  0  0  0
  5  1  1  0  0  0  0
  7 18  1  0  0  0  0
  7  4  1  0  0  0  0
  8  7  2  0  0  0  0
  9  8  1  0  0  0  0
  9 10  2  0  0  0  0
 10 11  1  0  0  0  0
 11 18  2  0  0  0  0
 11 12  1  0  0  0  0
 12 13  2  0  0  0  0
 13 14  1  0  0  0  0
 13 15  1  0  0  0  0
 15 16  1  0  0  0  0
 17 15  2  0  0  0  0
 18 17  1  0  0  0  0
 19 21  1  0  0  0  0
 19 20  1  0  0  0  0
 22 25  1  0  0  0  0
 22 19  1  0  0  0  0
 23 22  1  0  0  0  0
 24 22  1  0  0  0  0
 25 30  1  0  0  0  0
 26 25  2  0  0  0  0
 26 27  1  0  0  0  0
 27 28  2  0  0  0  0
 28 29  1  0  0  0  0
 29 32  1  0  0  0  0
 30 29  2  0  0  0  0
 31 27  1  0  0  0  0
 33 34  1  0  0  0  0
 33 26  1  0  0  0  0
M  END
>  <minimizedAffinity>
-4.99777031

>  <minimizedRMSD>
2.64885402

$$$$
