
 OpenBabel03242515513D

 23 25  0  0  0  0  0  0  0  0999 V2000
   45.8930   33.7110   45.4140 C   0  0  0  0  0  0  0  0  0  0  0  0
   44.9220   34.6180   45.6680 N   0  0  0  0  0  0  0  0  0  0  0  0
   44.5490   35.6030   44.8590 C   0  0  0  0  0  0  0  0  0  0  0  0
   45.1680   35.7540   43.6590 N   0  0  0  0  0  0  0  0  0  0  0  0
   46.1570   34.9090   43.2880 C   0  0  0  0  0  0  0  0  0  0  0  0
   46.7700   35.0800   42.0670 C   0  0  0  0  0  0  0  0  0  0  0  0
   47.7800   34.2290   41.6740 C   0  0  0  0  0  0  0  0  0  0  0  0
   48.1770   34.4690   40.7000 H   0  0  0  0  0  0  0  0  0  0  0  0
   48.1350   33.2220   42.5420 C   0  0  0  0  0  0  0  0  0  0  0  0
   48.9300   32.5810   42.1910 H   0  0  0  0  0  0  0  0  0  0  0  0
   47.4860   33.1000   43.7500 C   0  0  0  0  0  0  0  0  0  0  0  0
   46.4750   33.9200   44.1910 C   0  0  0  0  0  0  0  0  0  0  0  0
   47.6650   32.2830   48.1930 C   0  0  0  0  0  0  0  0  0  0  0  0
   47.2740   30.9520   48.2800 C   0  0  0  0  0  0  0  0  0  0  0  0
   46.3610   30.5090   47.3500 C   0  0  0  0  0  0  0  0  0  0  0  0
   45.9020   31.3640   46.4250 N   0  0  0  0  0  0  0  0  0  0  0  0
   46.2750   32.6340   46.3410 C   0  0  0  0  0  0  0  0  0  0  0  0
   47.1630   33.0650   47.2440 N   0  0  0  0  0  0  0  0  0  0  0  0
   48.3930   32.6550   48.9250 H   0  0  0  0  0  0  0  0  0  0  0  0
   46.0330   29.5140   47.3730 H   0  0  0  0  0  0  0  0  0  0  0  0
   47.8410   30.1660   49.3110 N   0  0  0  0  0  0  0  0  0  0  0  0
   48.2240   29.1970   49.1220 H   0  0  0  0  0  0  0  0  0  0  0  0
   47.9280   30.4590   50.3070 H   0  0  0  0  0  0  0  0  0  0  0  0
  1  2  1  0  0  0  0
  1 17  1  0  0  0  0
  3  2  2  0  0  0  0
  4  3  1  0  0  0  0
  5  4  2  0  0  0  0
  5 12  1  0  0  0  0
  6  5  1  0  0  0  0
  7  6  2  0  0  0  0
  7  9  1  0  0  0  0
  8  7  1  0  0  0  0
  9 11  2  0  0  0  0
 10  9  1  0  0  0  0
 11 12  1  0  0  0  0
 12  1  2  0  0  0  0
 13 14  1  0  0  0  0
 13 19  1  0  0  0  0
 14 21  1  0  0  0  0
 15 20  1  0  0  0  0
 15 14  2  0  0  0  0
 16 15  1  0  0  0  0
 17 16  2  0  0  0  0
 17 18  1  0  0  0  0
 18 13  2  0  0  0  0
 21 23  1  0  0  0  0
 22 21  1  0  0  0  0
M  END
>  <minimizedAffinity>
-5.56297874

>  <minimizedRMSD>
6.15321589

$$$$
