
 OpenBabel03252506103D

 33 36  0  0  0  0  0  0  0  0999 V2000
   45.2750   33.2250   41.1350 F   0  0  0  0  0  0  0  0  0  0  0  0
   46.4090   33.9110   40.9580 C   0  0  0  0  0  0  0  0  0  0  0  0
   46.8690   34.7440   41.9570 C   0  0  0  0  0  0  0  0  0  0  0  0
   48.0310   35.4910   41.8560 C   0  0  0  0  0  0  0  0  0  0  0  0
   48.7870   35.4070   40.6880 C   0  0  0  0  0  0  0  0  0  0  0  0
   48.2950   34.5620   39.7070 C   0  0  0  0  0  0  0  0  0  0  0  0
   47.1450   33.8170   39.7920 C   0  0  0  0  0  0  0  0  0  0  0  0
   48.3330   36.1250   42.6800 H   0  0  0  0  0  0  0  0  0  0  0  0
   49.7010   35.9750   40.5740 H   0  0  0  0  0  0  0  0  0  0  0  0
   48.9320   34.5360   38.8180 H   0  0  0  0  0  0  0  0  0  0  0  0
   46.7070   32.9420   38.7040 C   0  0  0  0  0  0  0  0  0  0  0  0
   45.7940   33.5160   37.8720 N   0  0  0  0  0  0  0  0  0  0  0  0
   45.3070   32.8100   36.8190 C   0  0  0  0  0  3  0  0  0  0  0  0
   45.7280   31.5340   36.5940 N   0  0  0  0  0  0  0  0  0  0  0  0
   46.6270   30.9390   37.3930 C   0  0  0  0  0  0  0  0  0  0  0  0
   47.0800   29.6490   37.1920 C   0  0  0  0  0  3  0  0  0  0  0  0
   48.0110   29.0710   38.0360 C   0  0  0  0  0  0  0  0  0  0  0  0
   48.3980   28.0820   37.9330 H   0  0  0  0  0  0  0  0  0  0  0  0
   48.4700   29.8400   39.0880 C   0  0  0  0  0  0  0  0  0  0  0  0
   49.2070   29.4100   39.7770 H   0  0  0  0  0  0  0  0  0  0  0  0
   48.0620   31.1460   39.3580 C   0  0  0  0  0  3  0  0  0  0  0  0
   47.1360   31.6330   38.4670 C   0  0  0  0  0  0  0  0  0  0  0  0
   45.4920   33.9990   45.3000 C   0  0  0  0  0  0  0  0  0  0  0  0
   44.6640   35.1150   45.5200 C   0  0  0  0  0  0  0  0  0  0  0  0
   44.5810   36.1210   44.5210 C   0  0  0  0  0  0  0  0  0  0  0  0
   45.3250   35.9280   43.3950 N   0  0  0  0  0  0  0  0  0  0  0  0
   46.1000   34.8640   43.2120 C   0  0  0  0  0  0  0  0  0  0  0  0
   46.1790   33.9150   44.1550 N   0  0  0  0  0  0  0  0  0  0  0  0
   44.0990   35.2040   46.4380 H   0  0  0  0  0  0  0  0  0  0  0  0
   43.9620   36.9810   44.6590 H   0  0  0  0  0  0  0  0  0  0  0  0
   45.5740   33.0030   46.2900 N   0  0  0  0  0  0  0  0  0  0  0  0
   46.4090   32.4480   46.5960 H   0  0  0  0  0  0  0  0  0  0  0  0
   44.8250   32.6260   46.9100 H   0  0  0  0  0  0  0  0  0  0  0  0
  2  1  1  0  0  0  0
  2  3  1  0  0  0  0
  3 27  1  0  0  0  0
  4  3  2  0  0  0  0
  4  8  1  0  0  0  0
  5  4  1  0  0  0  0
  6  7  1  0  0  0  0
  6  5  2  0  0  0  0
  7  2  2  0  0  0  0
  9  5  1  0  0  0  0
 10  6  1  0  0  0  0
 11  7  1  0  0  0  0
 12 11  2  0  0  0  0
 13 12  1  0  0  0  0
 14 13  2  0  0  0  0
 14 15  1  0  0  0  0
 15 22  1  0  0  0  0
 16 15  2  0  0  0  0
 16 17  1  0  0  0  0
 17 19  2  0  0  0  0
 18 17  1  0  0  0  0
 19 21  1  0  0  0  0
 19 20  1  0  0  0  0
 22 11  1  0  0  0  0
 22 21  2  0  0  0  0
 23 24  1  0  0  0  0
 23 31  1  0  0  0  0
 24 29  1  0  0  0  0
 25 30  1  0  0  0  0
 25 24  2  0  0  0  0
 26 25  1  0  0  0  0
 27 26  2  0  0  0  0
 27 28  1  0  0  0  0
 28 23  2  0  0  0  0
 31 32  1  0  0  0  0
 31 33  1  0  0  0  0
M  END
>  <minimizedAffinity>
-6.01660299

>  <minimizedRMSD>
0.777273536

$$$$
