
 OpenBabel03252506113D

 33 36  0  0  0  0  0  0  0  0999 V2000
   40.1490   30.3760   39.6240 F   0  0  0  0  0  0  0  0  0  0  0  0
   39.1420   31.2540   39.6740 C   0  0  0  0  0  0  0  0  0  0  0  0
   39.4010   32.6010   39.5280 C   0  0  0  0  0  0  0  0  0  0  0  0
   38.4190   33.5780   39.5670 C   0  0  0  0  0  0  0  0  0  0  0  0
   37.0930   33.1940   39.7630 C   0  0  0  0  0  0  0  0  0  0  0  0
   36.8720   31.8330   39.9050 C   0  0  0  0  0  0  0  0  0  0  0  0
   37.8330   30.8550   39.8690 C   0  0  0  0  0  0  0  0  0  0  0  0
   38.6920   34.6180   39.4470 H   0  0  0  0  0  0  0  0  0  0  0  0
   36.2990   33.9280   39.7980 H   0  0  0  0  0  0  0  0  0  0  0  0
   35.8140   31.5940   40.0510 H   0  0  0  0  0  0  0  0  0  0  0  0
   37.5020   29.4370   40.0200 C   0  0  0  0  0  0  0  0  0  0  0  0
   37.2590   28.8010   38.8410 N   0  0  0  0  0  0  0  0  0  0  0  0
   36.9410   27.4810   38.8410 C   0  0  0  0  0  3  0  0  0  0  0  0
   36.8640   26.7940   40.0150 N   0  0  0  0  0  0  0  0  0  0  0  0
   37.0980   27.3900   41.1940 C   0  0  0  0  0  0  0  0  0  0  0  0
   37.0340   26.7220   42.4040 C   0  0  0  0  0  3  0  0  0  0  0  0
   37.2870   27.3700   43.6000 C   0  0  0  0  0  0  0  0  0  0  0  0
   37.2540   26.9120   44.5610 H   0  0  0  0  0  0  0  0  0  0  0  0
   37.6060   28.7140   43.5330 C   0  0  0  0  0  0  0  0  0  0  0  0
   37.8110   29.2550   44.4630 H   0  0  0  0  0  0  0  0  0  0  0  0
   37.6900   29.4550   42.3550 C   0  0  0  0  0  3  0  0  0  0  0  0
   37.4230   28.7270   41.2200 C   0  0  0  0  0  0  0  0  0  0  0  0
   42.4380   33.9390   37.9110 C   0  0  0  0  0  0  0  0  0  0  0  0
   43.3670   33.8830   38.9650 C   0  0  0  0  0  0  0  0  0  0  0  0
   42.9500   33.3880   40.2290 C   0  0  0  0  0  0  0  0  0  0  0  0
   41.6490   32.9910   40.3320 N   0  0  0  0  0  0  0  0  0  0  0  0
   40.7900   33.0550   39.3200 C   0  0  0  0  0  0  0  0  0  0  0  0
   41.1840   33.5230   38.1270 N   0  0  0  0  0  0  0  0  0  0  0  0
   44.3860   34.2130   38.8130 H   0  0  0  0  0  0  0  0  0  0  0  0
   43.6320   33.3340   41.0490 H   0  0  0  0  0  0  0  0  0  0  0  0
   42.8510   34.4300   36.6600 N   0  0  0  0  0  0  0  0  0  0  0  0
   42.3210   35.0250   35.9790 H   0  0  0  0  0  0  0  0  0  0  0  0
   43.7620   34.2990   36.1680 H   0  0  0  0  0  0  0  0  0  0  0  0
  1  2  1  0  0  0  0
  2  7  1  0  0  0  0
  3  4  1  0  0  0  0
  3  2  2  0  0  0  0
  4  5  2  0  0  0  0
  5  9  1  0  0  0  0
  5  6  1  0  0  0  0
  6 10  1  0  0  0  0
  7  6  2  0  0  0  0
  7 11  1  0  0  0  0
  8  4  1  0  0  0  0
 11 22  1  0  0  0  0
 12 13  1  0  0  0  0
 12 11  2  0  0  0  0
 13 14  2  0  0  0  0
 14 15  1  0  0  0  0
 15 22  2  0  0  0  0
 15 16  1  0  0  0  0
 16 17  2  0  0  0  0
 17 18  1  0  0  0  0
 19 17  1  0  0  0  0
 19 20  1  0  0  0  0
 21 19  2  0  0  0  0
 22 21  1  0  0  0  0
 23 28  2  0  0  0  0
 23 24  1  0  0  0  0
 24 25  2  0  0  0  0
 25 26  1  0  0  0  0
 25 30  1  0  0  0  0
 27  3  1  0  0  0  0
 27 26  2  0  0  0  0
 28 27  1  0  0  0  0
 29 24  1  0  0  0  0
 31 23  1  0  0  0  0
 32 31  1  0  0  0  0
 33 31  1  0  0  0  0
M  END
>  <minimizedAffinity>
-6.97149849

$$$$

 OpenBabel03252506113D

 33 36  0  0  0  0  0  0  0  0999 V2000
   40.1590   29.4580   40.0370 F   0  0  0  0  0  0  0  0  0  0  0  0
   39.0440   29.8710   39.4270 C   0  0  0  0  0  0  0  0  0  0  0  0
   39.1320   30.6430   38.2870 C   0  0  0  0  0  0  0  0  0  0  0  0
   38.0280   31.1140   37.5940 C   0  0  0  0  0  0  0  0  0  0  0  0
   36.7540   30.7980   38.0620 C   0  0  0  0  0  0  0  0  0  0  0  0
   36.7040   30.0210   39.2080 C   0  0  0  0  0  0  0  0  0  0  0  0
   37.7880   29.5480   39.9050 C   0  0  0  0  0  0  0  0  0  0  0  0
   38.1700   31.7170   36.7070 H   0  0  0  0  0  0  0  0  0  0  0  0
   35.8680   31.1470   37.5460 H   0  0  0  0  0  0  0  0  0  0  0  0
   35.6790   29.8030   39.5230 H   0  0  0  0  0  0  0  0  0  0  0  0
   37.6370   28.7240   41.1050 C   0  0  0  0  0  0  0  0  0  0  0  0
   37.7650   29.4200   42.2690 N   0  0  0  0  0  0  0  0  0  0  0  0
   37.6460   28.7730   43.4570 C   0  0  0  0  0  3  0  0  0  0  0  0
   37.4000   27.4340   43.4870 N   0  0  0  0  0  0  0  0  0  0  0  0
   37.2670   26.7180   42.3590 C   0  0  0  0  0  0  0  0  0  0  0  0
   37.0130   25.3590   42.3530 C   0  0  0  0  0  3  0  0  0  0  0  0
   36.8780   24.6550   41.1690 C   0  0  0  0  0  0  0  0  0  0  0  0
   36.6820   23.6110   41.0980 H   0  0  0  0  0  0  0  0  0  0  0  0
   37.0100   25.3720   39.9930 C   0  0  0  0  0  0  0  0  0  0  0  0
   36.9090   24.8430   39.0390 H   0  0  0  0  0  0  0  0  0  0  0  0
   37.2660   26.7400   39.9170 C   0  0  0  0  0  3  0  0  0  0  0  0
   37.3840   27.3510   41.1430 C   0  0  0  0  0  0  0  0  0  0  0  0
   41.9980   32.6410   37.0940 C   0  0  0  0  0  0  0  0  0  0  0  0
   42.9270   31.6360   36.7700 C   0  0  0  0  0  0  0  0  0  0  0  0
   42.5690   30.2750   36.9610 C   0  0  0  0  0  0  0  0  0  0  0  0
   41.3210   30.0350   37.4560 N   0  0  0  0  0  0  0  0  0  0  0  0
   40.4610   31.0030   37.7560 C   0  0  0  0  0  0  0  0  0  0  0  0
   40.8000   32.2880   37.5760 N   0  0  0  0  0  0  0  0  0  0  0  0
   43.9000   31.8990   36.3790 H   0  0  0  0  0  0  0  0  0  0  0  0
   43.2530   29.4900   36.7250 H   0  0  0  0  0  0  0  0  0  0  0  0
   42.3530   33.9880   36.9050 N   0  0  0  0  0  0  0  0  0  0  0  0
   42.1220   34.8190   37.5000 H   0  0  0  0  0  0  0  0  0  0  0  0
   42.9140   34.4210   36.1390 H   0  0  0  0  0  0  0  0  0  0  0  0
  2  7  1  0  0  0  0
  2  1  1  0  0  0  0
  3  2  2  0  0  0  0
  4  5  2  0  0  0  0
  4  3  1  0  0  0  0
  5  6  1  0  0  0  0
  6 10  1  0  0  0  0
  6  7  2  0  0  0  0
  7 11  1  0  0  0  0
  8  4  1  0  0  0  0
  9  5  1  0  0  0  0
 11 22  2  0  0  0  0
 11 12  1  0  0  0  0
 12 13  2  0  0  0  0
 13 14  1  0  0  0  0
 15 14  2  0  0  0  0
 16 15  1  0  0  0  0
 17 16  2  0  0  0  0
 18 17  1  0  0  0  0
 19 17  1  0  0  0  0
 20 19  1  0  0  0  0
 21 19  2  0  0  0  0
 21 22  1  0  0  0  0
 22 15  1  0  0  0  0
 23 28  1  0  0  0  0
 24 25  1  0  0  0  0
 24 23  2  0  0  0  0
 25 26  2  0  0  0  0
 26 27  1  0  0  0  0
 27  3  1  0  0  0  0
 28 27  2  0  0  0  0
 29 24  1  0  0  0  0
 30 25  1  0  0  0  0
 31 23  1  0  0  0  0
 31 32  1  0  0  0  0
 33 31  1  0  0  0  0
M  END
>  <minimizedAffinity>
-6.67430544

$$$$

 OpenBabel03252506113D

 33 36  0  0  0  0  0  0  0  0999 V2000
   38.7710   27.7380   40.1950 F   0  0  0  0  0  0  0  0  0  0  0  0
   38.1580   27.7880   41.3820 C   0  0  0  0  0  0  0  0  0  0  0  0
   37.3790   26.7280   41.7960 C   0  0  0  0  0  0  0  0  0  0  0  0
   36.7090   26.6970   43.0080 C   0  0  0  0  0  0  0  0  0  0  0  0
   36.8180   27.7900   43.8660 C   0  0  0  0  0  0  0  0  0  0  0  0
   37.6080   28.8360   43.4180 C   0  0  0  0  0  0  0  0  0  0  0  0
   38.2780   28.8810   42.2200 C   0  0  0  0  0  0  0  0  0  0  0  0
   36.1130   25.8320   43.2690 H   0  0  0  0  0  0  0  0  0  0  0  0
   36.3100   27.8010   44.8220 H   0  0  0  0  0  0  0  0  0  0  0  0
   37.6590   29.6610   44.1350 H   0  0  0  0  0  0  0  0  0  0  0  0
   39.0990   30.0290   41.8340 C   0  0  0  0  0  0  0  0  0  0  0  0
   40.4000   29.9300   42.2240 N   0  0  0  0  0  0  0  0  0  0  0  0
   41.2700   30.9290   41.9270 C   0  0  0  0  0  3  0  0  0  0  0  0
   40.8440   32.0270   41.2420 N   0  0  0  0  0  0  0  0  0  0  0  0
   39.5700   32.1570   40.8420 C   0  0  0  0  0  0  0  0  0  0  0  0
   39.1060   33.2550   40.1420 C   0  0  0  0  0  3  0  0  0  0  0  0
   37.7850   33.3510   39.7420 C   0  0  0  0  0  0  0  0  0  0  0  0
   37.3680   34.1680   39.2010 H   0  0  0  0  0  0  0  0  0  0  0  0
   36.9490   32.3000   40.0750 C   0  0  0  0  0  0  0  0  0  0  0  0
   35.8970   32.3460   39.7730 H   0  0  0  0  0  0  0  0  0  0  0  0
   37.3410   31.1610   40.7780 C   0  0  0  0  0  3  0  0  0  0  0  0
   38.6700   31.1570   41.1320 C   0  0  0  0  0  0  0  0  0  0  0  0
   37.6380   23.2820   40.4950 C   0  0  0  0  0  0  0  0  0  0  0  0
   36.9490   23.3890   39.2740 C   0  0  0  0  0  0  0  0  0  0  0  0
   36.3960   24.6420   38.8990 C   0  0  0  0  0  0  0  0  0  0  0  0
   36.5780   25.6760   39.7690 N   0  0  0  0  0  0  0  0  0  0  0  0
   37.2330   25.5490   40.9190 C   0  0  0  0  0  0  0  0  0  0  0  0
   37.7540   24.3650   41.2720 N   0  0  0  0  0  0  0  0  0  0  0  0
   36.8430   22.5260   38.6300 H   0  0  0  0  0  0  0  0  0  0  0  0
   35.8670   24.7540   37.9780 H   0  0  0  0  0  0  0  0  0  0  0  0
   38.1850   22.0410   40.8670 N   0  0  0  0  0  0  0  0  0  0  0  0
   38.2360   21.6030   41.8170 H   0  0  0  0  0  0  0  0  0  0  0  0
   38.6430   21.3170   40.2710 H   0  0  0  0  0  0  0  0  0  0  0  0
  1  2  1  0  0  0  0
  2  3  2  0  0  0  0
  2  7  1  0  0  0  0
  3  4  1  0  0  0  0
  4  8  1  0  0  0  0
  4  5  2  0  0  0  0
  5  9  1  0  0  0  0
  6  5  1  0  0  0  0
  6 10  1  0  0  0  0
  7  6  2  0  0  0  0
 11  7  1  0  0  0  0
 11 12  1  0  0  0  0
 13 12  2  0  0  0  0
 14 13  1  0  0  0  0
 15 22  1  0  0  0  0
 15 14  2  0  0  0  0
 16 15  1  0  0  0  0
 17 19  1  0  0  0  0
 17 16  2  0  0  0  0
 18 17  1  0  0  0  0
 19 21  2  0  0  0  0
 20 19  1  0  0  0  0
 21 22  1  0  0  0  0
 22 11  2  0  0  0  0
 23 31  1  0  0  0  0
 23 28  1  0  0  0  0
 24 23  2  0  0  0  0
 25 24  1  0  0  0  0
 25 26  2  0  0  0  0
 26 27  1  0  0  0  0
 27 28  2  0  0  0  0
 27  3  1  0  0  0  0
 29 24  1  0  0  0  0
 30 25  1  0  0  0  0
 31 32  1  0  0  0  0
 33 31  1  0  0  0  0
M  END
>  <minimizedAffinity>
-6.50370026

$$$$

 OpenBabel03252506113D

 33 36  0  0  0  0  0  0  0  0999 V2000
   40.0370   29.0840   40.8850 F   0  0  0  0  0  0  0  0  0  0  0  0
   38.7420   29.3850   41.0230 C   0  0  0  0  0  0  0  0  0  0  0  0
   38.2800   30.6220   40.6230 C   0  0  0  0  0  0  0  0  0  0  0  0
   36.9560   31.0160   40.7300 C   0  0  0  0  0  0  0  0  0  0  0  0
   36.0290   30.1250   41.2690 C   0  0  0  0  0  0  0  0  0  0  0  0
   36.5290   28.8940   41.6600 C   0  0  0  0  0  0  0  0  0  0  0  0
   37.8370   28.4890   41.5600 C   0  0  0  0  0  0  0  0  0  0  0  0
   36.6620   32.0030   40.3970 H   0  0  0  0  0  0  0  0  0  0  0  0
   34.9870   30.3980   41.3680 H   0  0  0  0  0  0  0  0  0  0  0  0
   35.7550   28.2380   42.0700 H   0  0  0  0  0  0  0  0  0  0  0  0
   38.2720   27.1600   41.9930 C   0  0  0  0  0  0  0  0  0  0  0  0
   39.1330   27.1810   43.0480 N   0  0  0  0  0  0  0  0  0  0  0  0
   39.6120   26.0130   43.5480 C   0  0  0  0  0  3  0  0  0  0  0  0
   39.2350   24.8250   42.9980 N   0  0  0  0  0  0  0  0  0  0  0  0
   38.3880   24.7690   41.9580 C   0  0  0  0  0  0  0  0  0  0  0  0
   37.9810   23.5820   41.3790 C   0  0  0  0  0  3  0  0  0  0  0  0
   37.1020   23.5630   40.3100 C   0  0  0  0  0  0  0  0  0  0  0  0
   36.7520   22.6840   39.8220 H   0  0  0  0  0  0  0  0  0  0  0  0
   36.6500   24.7860   39.8480 C   0  0  0  0  0  0  0  0  0  0  0  0
   35.9540   24.8050   39.0020 H   0  0  0  0  0  0  0  0  0  0  0  0
   37.0140   26.0230   40.3770 C   0  0  0  0  0  3  0  0  0  0  0  0
   37.8890   25.9390   41.4340 C   0  0  0  0  0  0  0  0  0  0  0  0
   40.3140   32.4980   38.1790 C   0  0  0  0  0  0  0  0  0  0  0  0
   40.9830   33.4130   39.0120 C   0  0  0  0  0  0  0  0  0  0  0  0
   40.7340   33.3850   40.4100 C   0  0  0  0  0  0  0  0  0  0  0  0
   39.8460   32.4510   40.8550 N   0  0  0  0  0  0  0  0  0  0  0  0
   39.2260   31.5980   40.0460 C   0  0  0  0  0  0  0  0  0  0  0  0
   39.4600   31.6250   38.7270 N   0  0  0  0  0  0  0  0  0  0  0  0
   41.6770   34.1280   38.5910 H   0  0  0  0  0  0  0  0  0  0  0  0
   41.2260   34.0680   41.0680 H   0  0  0  0  0  0  0  0  0  0  0  0
   40.5600   32.5270   36.7950 N   0  0  0  0  0  0  0  0  0  0  0  0
   39.8880   32.3790   36.0050 H   0  0  0  0  0  0  0  0  0  0  0  0
   41.4550   32.7010   36.2870 H   0  0  0  0  0  0  0  0  0  0  0  0
  1  2  1  0  0  0  0
  2  7  1  0  0  0  0
  3  4  1  0  0  0  0
  3  2  2  0  0  0  0
  4  5  2  0  0  0  0
  5  9  1  0  0  0  0
  5  6  1  0  0  0  0
  6 10  1  0  0  0  0
  7  6  2  0  0  0  0
  7 11  1  0  0  0  0
  8  4  1  0  0  0  0
 11 12  1  0  0  0  0
 12 13  2  0  0  0  0
 14 13  1  0  0  0  0
 15 14  2  0  0  0  0
 16 15  1  0  0  0  0
 17 16  2  0  0  0  0
 18 17  1  0  0  0  0
 19 17  1  0  0  0  0
 19 21  2  0  0  0  0
 20 19  1  0  0  0  0
 21 22  1  0  0  0  0
 22 15  1  0  0  0  0
 22 11  2  0  0  0  0
 23 28  2  0  0  0  0
 23 24  1  0  0  0  0
 24 25  2  0  0  0  0
 25 26  1  0  0  0  0
 25 30  1  0  0  0  0
 27  3  1  0  0  0  0
 27 26  2  0  0  0  0
 28 27  1  0  0  0  0
 29 24  1  0  0  0  0
 31 23  1  0  0  0  0
 32 31  1  0  0  0  0
 33 31  1  0  0  0  0
M  END
>  <minimizedAffinity>
-6.35291386

$$$$

 OpenBabel03252506113D

 33 36  0  0  0  0  0  0  0  0999 V2000
   38.2100   28.7730   39.4620 F   0  0  0  0  0  0  0  0  0  0  0  0
   37.8850   28.5260   40.7350 C   0  0  0  0  0  0  0  0  0  0  0  0
   38.2150   29.4390   41.7150 C   0  0  0  0  0  0  0  0  0  0  0  0
   37.9170   29.2620   43.0570 C   0  0  0  0  0  0  0  0  0  0  0  0
   37.2490   28.1050   43.4520 C   0  0  0  0  0  0  0  0  0  0  0  0
   36.9340   27.2120   42.4410 C   0  0  0  0  0  0  0  0  0  0  0  0
   37.2220   27.3720   41.1090 C   0  0  0  0  0  0  0  0  0  0  0  0
   38.2070   30.0190   43.7740 H   0  0  0  0  0  0  0  0  0  0  0  0
   36.9990   27.9330   44.4910 H   0  0  0  0  0  0  0  0  0  0  0  0
   36.4070   26.3270   42.8120 H   0  0  0  0  0  0  0  0  0  0  0  0
   36.8410   26.3750   40.1080 C   0  0  0  0  0  0  0  0  0  0  0  0
   36.0280   26.8620   39.1290 N   0  0  0  0  0  0  0  0  0  0  0  0
   35.6020   26.0390   38.1370 C   0  0  0  0  0  3  0  0  0  0  0  0
   35.9830   24.7310   38.1200 N   0  0  0  0  0  0  0  0  0  0  0  0
   36.7830   24.2190   39.0680 C   0  0  0  0  0  0  0  0  0  0  0  0
   37.1940   22.8990   39.0780 C   0  0  0  0  0  3  0  0  0  0  0  0
   38.0230   22.4080   40.0710 C   0  0  0  0  0  0  0  0  0  0  0  0
   38.3730   21.4040   40.1330 H   0  0  0  0  0  0  0  0  0  0  0  0
   38.4230   23.2970   41.0520 C   0  0  0  0  0  0  0  0  0  0  0  0
   39.0790   22.9380   41.8530 H   0  0  0  0  0  0  0  0  0  0  0  0
   38.0520   24.6390   41.1110 C   0  0  0  0  0  3  0  0  0  0  0  0
   37.2280   25.0340   40.0830 C   0  0  0  0  0  0  0  0  0  0  0  0
   38.8620   32.9440   40.7550 C   0  0  0  0  0  0  0  0  0  0  0  0
   40.2650   32.9550   40.6540 C   0  0  0  0  0  0  0  0  0  0  0  0
   40.9860   31.7600   40.9160 C   0  0  0  0  0  0  0  0  0  0  0  0
   40.2500   30.6630   41.2530 N   0  0  0  0  0  0  0  0  0  0  0  0
   38.9240   30.6790   41.3430 C   0  0  0  0  0  0  0  0  0  0  0  0
   38.2440   31.8070   41.0960 N   0  0  0  0  0  0  0  0  0  0  0  0
   40.7850   33.8620   40.3790 H   0  0  0  0  0  0  0  0  0  0  0  0
   42.0520   31.7370   40.8480 H   0  0  0  0  0  0  0  0  0  0  0  0
   38.1480   34.1280   40.4950 N   0  0  0  0  0  0  0  0  0  0  0  0
   37.2940   34.4990   40.9760 H   0  0  0  0  0  0  0  0  0  0  0  0
   38.3300   34.8640   39.7790 H   0  0  0  0  0  0  0  0  0  0  0  0
  1  2  1  0  0  0  0
  2  7  2  0  0  0  0
  2  3  1  0  0  0  0
  3  4  2  0  0  0  0
  4  5  1  0  0  0  0
  4  8  1  0  0  0  0
  5  9  1  0  0  0  0
  6 10  1  0  0  0  0
  6  5  2  0  0  0  0
  7  6  1  0  0  0  0
 11  7  1  0  0  0  0
 12 11  2  0  0  0  0
 13 12  1  0  0  0  0
 14 13  2  0  0  0  0
 14 15  1  0  0  0  0
 15 16  2  0  0  0  0
 15 22  1  0  0  0  0
 16 17  1  0  0  0  0
 17 18  1  0  0  0  0
 17 19  2  0  0  0  0
 19 21  1  0  0  0  0
 19 20  1  0  0  0  0
 22 11  1  0  0  0  0
 22 21  2  0  0  0  0
 23 28  1  0  0  0  0
 24 23  2  0  0  0  0
 24 25  1  0  0  0  0
 25 26  2  0  0  0  0
 26 27  1  0  0  0  0
 27  3  1  0  0  0  0
 28 27  2  0  0  0  0
 29 24  1  0  0  0  0
 30 25  1  0  0  0  0
 31 23  1  0  0  0  0
 31 32  1  0  0  0  0
 33 31  1  0  0  0  0
M  END
>  <minimizedAffinity>
-6.02979517

$$$$

 OpenBabel03252506113D

 33 36  0  0  0  0  0  0  0  0999 V2000
   39.5070   28.0070   40.4940 F   0  0  0  0  0  0  0  0  0  0  0  0
   38.6320   27.8750   41.4970 C   0  0  0  0  0  0  0  0  0  0  0  0
   39.0870   27.6070   42.7710 C   0  0  0  0  0  0  0  0  0  0  0  0
   38.2510   27.4550   43.8660 C   0  0  0  0  0  0  0  0  0  0  0  0
   36.8740   27.5760   43.6840 C   0  0  0  0  0  0  0  0  0  0  0  0
   36.4550   27.8450   42.3920 C   0  0  0  0  0  0  0  0  0  0  0  0
   37.2700   27.9980   41.2980 C   0  0  0  0  0  0  0  0  0  0  0  0
   38.6750   27.2450   44.8390 H   0  0  0  0  0  0  0  0  0  0  0  0
   36.1910   27.4640   44.5160 H   0  0  0  0  0  0  0  0  0  0  0  0
   35.3670   27.9320   42.3140 H   0  0  0  0  0  0  0  0  0  0  0  0
   36.7350   28.2900   39.9680 C   0  0  0  0  0  0  0  0  0  0  0  0
   36.6940   29.6190   39.6720 N   0  0  0  0  0  0  0  0  0  0  0  0
   36.2190   30.0260   38.4660 C   0  0  0  0  0  3  0  0  0  0  0  0
   35.7840   29.1100   37.5560 N   0  0  0  0  0  0  0  0  0  0  0  0
   35.8110   27.7940   37.8150 C   0  0  0  0  0  0  0  0  0  0  0  0
   35.3820   26.8380   36.9130 C   0  0  0  0  0  3  0  0  0  0  0  0
   35.4280   25.4880   37.2150 C   0  0  0  0  0  0  0  0  0  0  0  0
   35.1140   24.7050   36.5640 H   0  0  0  0  0  0  0  0  0  0  0  0
   35.9230   25.1380   38.4580 C   0  0  0  0  0  0  0  0  0  0  0  0
   35.9730   24.0770   38.7270 H   0  0  0  0  0  0  0  0  0  0  0  0
   36.3740   26.0410   39.4200 C   0  0  0  0  0  3  0  0  0  0  0  0
   36.2880   27.3570   39.0300 C   0  0  0  0  0  0  0  0  0  0  0  0
   42.4080   26.1070   43.3560 C   0  0  0  0  0  0  0  0  0  0  0  0
   43.2210   27.2500   43.4540 C   0  0  0  0  0  0  0  0  0  0  0  0
   42.6290   28.5330   43.3180 C   0  0  0  0  0  0  0  0  0  0  0  0
   41.2830   28.5660   43.0990 N   0  0  0  0  0  0  0  0  0  0  0  0
   40.5370   27.4700   43.0100 C   0  0  0  0  0  0  0  0  0  0  0  0
   41.0970   26.2590   43.1380 N   0  0  0  0  0  0  0  0  0  0  0  0
   44.2840   27.1510   43.6310 H   0  0  0  0  0  0  0  0  0  0  0  0
   43.2210   29.4200   43.3870 H   0  0  0  0  0  0  0  0  0  0  0  0
   42.9960   24.8360   43.4900 N   0  0  0  0  0  0  0  0  0  0  0  0
   42.7730   23.9510   42.9750 H   0  0  0  0  0  0  0  0  0  0  0  0
   43.7640   24.5280   44.1250 H   0  0  0  0  0  0  0  0  0  0  0  0
  1  2  1  0  0  0  0
  2  3  1  0  0  0  0
  3 27  1  0  0  0  0
  3  4  2  0  0  0  0
  4  8  1  0  0  0  0
  5  4  1  0  0  0  0
  5  9  1  0  0  0  0
  6  5  2  0  0  0  0
  7  2  2  0  0  0  0
  7  6  1  0  0  0  0
 10  6  1  0  0  0  0
 11  7  1  0  0  0  0
 12 11  1  0  0  0  0
 13 12  2  0  0  0  0
 14 15  2  0  0  0  0
 14 13  1  0  0  0  0
 15 22  1  0  0  0  0
 16 17  2  0  0  0  0
 16 15  1  0  0  0  0
 17 19  1  0  0  0  0
 18 17  1  0  0  0  0
 19 20  1  0  0  0  0
 19 21  2  0  0  0  0
 22 21  1  0  0  0  0
 22 11  2  0  0  0  0
 23 24  1  0  0  0  0
 23 31  1  0  0  0  0
 24 29  1  0  0  0  0
 25 30  1  0  0  0  0
 25 24  2  0  0  0  0
 26 25  1  0  0  0  0
 27 26  2  0  0  0  0
 27 28  1  0  0  0  0
 28 23  2  0  0  0  0
 31 33  1  0  0  0  0
 32 31  1  0  0  0  0
M  END
>  <minimizedAffinity>
-6.01476145

$$$$

 OpenBabel03252506113D

 33 36  0  0  0  0  0  0  0  0999 V2000
   38.6470   27.8570   40.1300 F   0  0  0  0  0  0  0  0  0  0  0  0
   38.0750   27.8550   41.3380 C   0  0  0  0  0  0  0  0  0  0  0  0
   37.3510   26.7560   41.7510 C   0  0  0  0  0  0  0  0  0  0  0  0
   36.7260   26.6700   42.9850 C   0  0  0  0  0  0  0  0  0  0  0  0
   36.8250   27.7450   43.8670 C   0  0  0  0  0  0  0  0  0  0  0  0
   37.5590   28.8310   43.4180 C   0  0  0  0  0  0  0  0  0  0  0  0
   38.1830   28.9300   42.2000 C   0  0  0  0  0  0  0  0  0  0  0  0
   36.1720   25.7770   43.2440 H   0  0  0  0  0  0  0  0  0  0  0  0
   36.3510   27.7140   44.8390 H   0  0  0  0  0  0  0  0  0  0  0  0
   37.6050   29.6390   44.1540 H   0  0  0  0  0  0  0  0  0  0  0  0
   38.9470   30.1180   41.8150 C   0  0  0  0  0  0  0  0  0  0  0  0
   38.2130   31.0490   41.1450 N   0  0  0  0  0  0  0  0  0  0  0  0
   38.8030   32.2010   40.7320 C   0  0  0  0  0  3  0  0  0  0  0  0
   40.1230   32.4250   40.9860 N   0  0  0  0  0  0  0  0  0  0  0  0
   40.8740   31.5290   41.6440 C   0  0  0  0  0  0  0  0  0  0  0  0
   42.2140   31.7250   41.9220 C   0  0  0  0  0  3  0  0  0  0  0  0
   42.9560   30.7790   42.6080 C   0  0  0  0  0  0  0  0  0  0  0  0
   43.9880   30.8730   42.8520 H   0  0  0  0  0  0  0  0  0  0  0  0
   42.2970   29.6290   43.0020 C   0  0  0  0  0  0  0  0  0  0  0  0
   42.8570   28.8600   43.5460 H   0  0  0  0  0  0  0  0  0  0  0  0
   40.9520   29.3580   42.7590 C   0  0  0  0  0  3  0  0  0  0  0  0
   40.2990   30.3540   42.0730 C   0  0  0  0  0  0  0  0  0  0  0  0
   37.6220   23.3340   40.3920 C   0  0  0  0  0  0  0  0  0  0  0  0
   36.9580   23.4660   39.1600 C   0  0  0  0  0  0  0  0  0  0  0  0
   36.4170   24.7280   38.7970 C   0  0  0  0  0  0  0  0  0  0  0  0
   36.5860   25.7450   39.6910 N   0  0  0  0  0  0  0  0  0  0  0  0
   37.2180   25.5940   40.8500 C   0  0  0  0  0  0  0  0  0  0  0  0
   37.7270   24.4020   41.1920 N   0  0  0  0  0  0  0  0  0  0  0  0
   36.8620   22.6160   38.4980 H   0  0  0  0  0  0  0  0  0  0  0  0
   35.9070   24.8600   37.8680 H   0  0  0  0  0  0  0  0  0  0  0  0
   38.1570   22.0840   40.7510 N   0  0  0  0  0  0  0  0  0  0  0  0
   38.1880   21.6280   41.6940 H   0  0  0  0  0  0  0  0  0  0  0  0
   38.6250   21.3690   40.1500 H   0  0  0  0  0  0  0  0  0  0  0  0
  1  2  1  0  0  0  0
  2  3  2  0  0  0  0
  2  7  1  0  0  0  0
  3  4  1  0  0  0  0
  4  8  1  0  0  0  0
  4  5  2  0  0  0  0
  5  9  1  0  0  0  0
  6  5  1  0  0  0  0
  6 10  1  0  0  0  0
  7  6  2  0  0  0  0
 11 22  1  0  0  0  0
 11  7  1  0  0  0  0
 12 11  2  0  0  0  0
 13 14  2  0  0  0  0
 13 12  1  0  0  0  0
 14 15  1  0  0  0  0
 15 16  2  0  0  0  0
 15 22  1  0  0  0  0
 16 17  1  0  0  0  0
 17 18  1  0  0  0  0
 17 19  2  0  0  0  0
 19 20  1  0  0  0  0
 21 19  1  0  0  0  0
 22 21  2  0  0  0  0
 23 31  1  0  0  0  0
 23 28  1  0  0  0  0
 24 23  2  0  0  0  0
 25 24  1  0  0  0  0
 25 26  2  0  0  0  0
 26 27  1  0  0  0  0
 27 28  2  0  0  0  0
 27  3  1  0  0  0  0
 29 24  1  0  0  0  0
 30 25  1  0  0  0  0
 31 32  1  0  0  0  0
 33 31  1  0  0  0  0
M  END
>  <minimizedAffinity>
-5.994133

$$$$

 OpenBabel03252506113D

 33 36  0  0  0  0  0  0  0  0999 V2000
   38.8220   30.1150   40.8770 F   0  0  0  0  0  0  0  0  0  0  0  0
   39.9460   29.7550   41.5050 C   0  0  0  0  0  0  0  0  0  0  0  0
   41.1070   30.4700   41.2960 C   0  0  0  0  0  0  0  0  0  0  0  0
   42.3140   30.1640   41.9030 C   0  0  0  0  0  0  0  0  0  0  0  0
   42.3740   29.0790   42.7760 C   0  0  0  0  0  0  0  0  0  0  0  0
   41.1900   28.3850   42.9610 C   0  0  0  0  0  0  0  0  0  0  0  0
   39.9870   28.6740   42.3660 C   0  0  0  0  0  0  0  0  0  0  0  0
   43.1870   30.7680   41.6930 H   0  0  0  0  0  0  0  0  0  0  0  0
   43.2990   28.8110   43.2690 H   0  0  0  0  0  0  0  0  0  0  0  0
   41.2990   27.5480   43.6580 H   0  0  0  0  0  0  0  0  0  0  0  0
   38.7820   27.8870   42.6310 C   0  0  0  0  0  0  0  0  0  0  0  0
   37.9380   28.4600   43.5330 N   0  0  0  0  0  0  0  0  0  0  0  0
   36.7820   27.8310   43.8670 C   0  0  0  0  0  3  0  0  0  0  0  0
   36.4660   26.6320   43.3030 N   0  0  0  0  0  0  0  0  0  0  0  0
   37.2740   26.0400   42.4110 C   0  0  0  0  0  0  0  0  0  0  0  0
   36.9830   24.8260   41.8160 C   0  0  0  0  0  3  0  0  0  0  0  0
   37.8400   24.2480   40.8960 C   0  0  0  0  0  0  0  0  0  0  0  0
   37.6710   23.3190   40.4040 H   0  0  0  0  0  0  0  0  0  0  0  0
   39.0010   24.9390   40.5980 C   0  0  0  0  0  0  0  0  0  0  0  0
   39.7010   24.5070   39.8740 H   0  0  0  0  0  0  0  0  0  0  0  0
   39.3650   26.1640   41.1550 C   0  0  0  0  0  3  0  0  0  0  0  0
   38.4520   26.6570   42.0560 C   0  0  0  0  0  0  0  0  0  0  0  0
   40.6750   32.5170   38.2540 C   0  0  0  0  0  0  0  0  0  0  0  0
   41.0740   33.7860   38.7090 C   0  0  0  0  0  0  0  0  0  0  0  0
   41.4890   33.9380   40.0590 C   0  0  0  0  0  0  0  0  0  0  0  0
   41.4720   32.8160   40.8330 N   0  0  0  0  0  0  0  0  0  0  0  0
   41.0910   31.6270   40.3790 C   0  0  0  0  0  0  0  0  0  0  0  0
   40.6980   31.4850   39.1050 N   0  0  0  0  0  0  0  0  0  0  0  0
   41.0640   34.6340   38.0380 H   0  0  0  0  0  0  0  0  0  0  0  0
   41.7970   34.8900   40.4340 H   0  0  0  0  0  0  0  0  0  0  0  0
   40.2640   32.3670   36.9170 N   0  0  0  0  0  0  0  0  0  0  0  0
   39.4970   31.7680   36.5290 H   0  0  0  0  0  0  0  0  0  0  0  0
   40.6390   32.8210   36.0570 H   0  0  0  0  0  0  0  0  0  0  0  0
  1  2  1  0  0  0  0
  2  7  1  0  0  0  0
  3  2  2  0  0  0  0
  3  4  1  0  0  0  0
  4  5  2  0  0  0  0
  5  6  1  0  0  0  0
  5  9  1  0  0  0  0
  6 10  1  0  0  0  0
  7 11  1  0  0  0  0
  7  6  2  0  0  0  0
  8  4  1  0  0  0  0
 11 12  1  0  0  0  0
 12 13  2  0  0  0  0
 14 13  1  0  0  0  0
 15 14  2  0  0  0  0
 16 15  1  0  0  0  0
 17 16  2  0  0  0  0
 18 17  1  0  0  0  0
 19 17  1  0  0  0  0
 19 21  2  0  0  0  0
 20 19  1  0  0  0  0
 21 22  1  0  0  0  0
 22 15  1  0  0  0  0
 22 11  2  0  0  0  0
 23 24  2  0  0  0  0
 23 28  1  0  0  0  0
 24 25  1  0  0  0  0
 25 30  1  0  0  0  0
 25 26  2  0  0  0  0
 27 26  1  0  0  0  0
 27  3  1  0  0  0  0
 28 27  2  0  0  0  0
 29 24  1  0  0  0  0
 31 23  1  0  0  0  0
 32 31  1  0  0  0  0
 33 31  1  0  0  0  0
M  END
>  <minimizedAffinity>
-5.98483324

$$$$

 OpenBabel03252506113D

 33 36  0  0  0  0  0  0  0  0999 V2000
   39.0000   28.7930   39.0670 F   0  0  0  0  0  0  0  0  0  0  0  0
   38.0130   29.4550   39.6780 C   0  0  0  0  0  0  0  0  0  0  0  0
   38.2070   30.7620   40.0750 C   0  0  0  0  0  0  0  0  0  0  0  0
   37.2400   31.5210   40.7140 C   0  0  0  0  0  0  0  0  0  0  0  0
   35.9980   30.9460   40.9770 C   0  0  0  0  0  0  0  0  0  0  0  0
   35.8390   29.6330   40.5650 C   0  0  0  0  0  0  0  0  0  0  0  0
   36.7870   28.8690   39.9320 C   0  0  0  0  0  0  0  0  0  0  0  0
   37.4610   32.5410   40.9980 H   0  0  0  0  0  0  0  0  0  0  0  0
   35.2180   31.5080   41.4740 H   0  0  0  0  0  0  0  0  0  0  0  0
   34.8440   29.2390   40.7950 H   0  0  0  0  0  0  0  0  0  0  0  0
   36.5240   27.4880   39.5250 C   0  0  0  0  0  0  0  0  0  0  0  0
   36.0130   27.3740   38.2680 N   0  0  0  0  0  0  0  0  0  0  0  0
   35.7250   26.1440   37.7670 C   0  0  0  0  0  3  0  0  0  0  0  0
   35.9450   25.0290   38.5190 N   0  0  0  0  0  0  0  0  0  0  0  0
   36.4480   25.1060   39.7610 C   0  0  0  0  0  0  0  0  0  0  0  0
   36.6880   23.9950   40.5480 C   0  0  0  0  0  3  0  0  0  0  0  0
   37.2120   24.1140   41.8240 C   0  0  0  0  0  0  0  0  0  0  0  0
   37.4190   23.2990   42.4770 H   0  0  0  0  0  0  0  0  0  0  0  0
   37.4840   25.3930   42.2750 C   0  0  0  0  0  0  0  0  0  0  0  0
   37.8990   25.5200   43.2810 H   0  0  0  0  0  0  0  0  0  0  0  0
   37.2700   26.5590   41.5420 C   0  0  0  0  0  3  0  0  0  0  0  0
   36.7480   26.3400   40.2890 C   0  0  0  0  0  0  0  0  0  0  0  0
   40.9370   32.5700   38.3680 C   0  0  0  0  0  0  0  0  0  0  0  0
   41.9230   32.6040   39.3700 C   0  0  0  0  0  0  0  0  0  0  0  0
   41.6500   32.0070   40.6300 C   0  0  0  0  0  0  0  0  0  0  0  0
   40.4230   31.4300   40.7800 N   0  0  0  0  0  0  0  0  0  0  0  0
   39.5080   31.4120   39.8170 C   0  0  0  0  0  0  0  0  0  0  0  0
   39.7660   31.9760   38.6280 N   0  0  0  0  0  0  0  0  0  0  0  0
   42.8770   33.0780   39.1820 H   0  0  0  0  0  0  0  0  0  0  0  0
   42.3780   32.0180   41.4110 H   0  0  0  0  0  0  0  0  0  0  0  0
   41.2080   33.1610   37.1210 N   0  0  0  0  0  0  0  0  0  0  0  0
   40.5640   33.7030   36.4960 H   0  0  0  0  0  0  0  0  0  0  0  0
   42.0990   33.1770   36.5780 H   0  0  0  0  0  0  0  0  0  0  0  0
  1  2  1  0  0  0  0
  2  7  2  0  0  0  0
  2  3  1  0  0  0  0
  3  4  2  0  0  0  0
  4  5  1  0  0  0  0
  4  8  1  0  0  0  0
  5  9  1  0  0  0  0
  6 10  1  0  0  0  0
  6  5  2  0  0  0  0
  7  6  1  0  0  0  0
 11  7  1  0  0  0  0
 11 22  1  0  0  0  0
 12 11  2  0  0  0  0
 13 12  1  0  0  0  0
 13 14  2  0  0  0  0
 14 15  1  0  0  0  0
 15 22  2  0  0  0  0
 15 16  1  0  0  0  0
 16 17  2  0  0  0  0
 17 19  1  0  0  0  0
 17 18  1  0  0  0  0
 19 20  1  0  0  0  0
 21 19  2  0  0  0  0
 22 21  1  0  0  0  0
 23 28  2  0  0  0  0
 23 24  1  0  0  0  0
 24 25  2  0  0  0  0
 25 26  1  0  0  0  0
 25 30  1  0  0  0  0
 27  3  1  0  0  0  0
 27 26  2  0  0  0  0
 28 27  1  0  0  0  0
 29 24  1  0  0  0  0
 31 23  1  0  0  0  0
 32 31  1  0  0  0  0
 33 31  1  0  0  0  0
M  END
>  <minimizedAffinity>
-5.96967936

$$$$
