
 OpenBabel03252505073D

 46 50  0  0  1  0  0  0  0  0999 V2000
   44.5770   35.6000   44.6260 C   0  0  0  0  0  0  0  0  0  0  0  0
   45.2280   35.6120   43.3710 C   0  0  0  0  0  0  0  0  0  0  0  0
   46.3010   34.7030   43.1730 C   0  0  0  0  0  0  0  0  0  0  0  0
   46.6410   33.8760   44.1970 N   0  0  0  0  0  0  0  0  0  0  0  0
   45.9990   33.8920   45.3760 C   0  0  0  0  0  0  0  0  0  0  0  0
   44.9590   34.7590   45.5960 N   0  0  0  0  0  0  0  0  0  0  0  0
   43.7730   36.3070   44.7190 H   0  0  0  0  0  0  0  0  0  0  0  0
   44.9700   36.2590   42.5570 H   0  0  0  0  0  0  0  0  0  0  0  0
   46.4220   32.9740   46.4540 C   0  0  2  0  0  0  0  0  0  0  0  0
   46.9720   31.7560   45.7620 C   0  0  0  0  0  0  0  0  0  0  0  0
   46.0860   30.5710   45.7860 C   0  0  0  0  0  0  0  0  0  0  0  0
   45.8060   30.3000   47.2570 C   0  0  0  0  0  0  0  0  0  0  0  0
   45.0240   31.3670   47.8650 C   0  0  0  0  0  0  0  0  0  0  0  0
   45.3740   32.7410   47.4210 C   0  0  0  0  0  0  0  0  0  0  0  0
   47.2750   33.5070   46.9640 H   0  0  0  0  0  0  0  0  0  0  0  0
   47.2620   31.9580   44.7020 H   0  0  0  0  0  0  0  0  0  0  0  0
   47.9210   31.4750   46.2630 H   0  0  0  0  0  0  0  0  0  0  0  0
   45.1050   30.7610   45.3260 H   0  0  0  0  0  0  0  0  0  0  0  0
   46.6470   29.7210   45.3590 H   0  0  0  0  0  0  0  0  0  0  0  0
   45.1280   29.4120   47.2430 H   0  0  0  0  0  0  0  0  0  0  0  0
   46.7080   29.9870   47.8110 H   0  0  0  0  0  0  0  0  0  0  0  0
   44.2350   31.4540   48.5690 H   0  0  0  0  0  0  0  0  0  0  0  0
   44.6870   33.8670   47.9360 N   0  0  0  0  0  0  0  0  0  0  0  0
   45.1170   34.5320   48.6190 H   0  0  0  0  0  0  0  0  0  0  0  0
   43.7040   34.0000   47.5900 H   0  0  0  0  0  0  0  0  0  0  0  0
   47.0010   34.6910   41.9010 C   0  0  0  0  0  0  0  0  0  0  0  0
   48.1430   35.4080   41.7800 C   0  0  0  0  0  0  0  0  0  0  0  0
   48.7750   35.3470   40.5190 C   0  0  0  0  0  0  0  0  0  0  0  0
   48.1600   34.5720   39.5620 C   0  0  0  0  0  0  0  0  0  0  0  0
   47.0130   33.8520   39.6750 C   0  0  0  0  0  0  0  0  0  0  0  0
   46.4990   33.9830   40.9210 N   0  0  0  0  0  0  0  0  0  0  0  0
   48.5550   35.9870   42.5770 H   0  0  0  0  0  0  0  0  0  0  0  0
   49.6730   35.8960   40.3840 H   0  0  0  0  0  0  0  0  0  0  0  0
   48.7220   34.5880   38.6230 H   0  0  0  0  0  0  0  0  0  0  0  0
   46.5610   33.1120   38.5210 C   0  0  0  0  0  0  0  0  0  0  0  0
   47.4370   32.8060   37.5530 N   0  0  0  0  0  0  0  0  0  0  0  0
   47.1100   32.1250   36.4480 C   0  0  0  0  0  3  0  0  0  0  0  0
   45.8440   31.6860   36.2250 N   0  0  0  0  0  0  0  0  0  0  0  0
   44.8850   31.9540   37.1600 C   0  0  0  0  0  0  0  0  0  0  0  0
   43.5830   31.5350   36.9900 C   0  0  0  0  0  3  0  0  0  0  0  0
   42.6080   31.7990   37.9260 C   0  0  0  0  0  0  0  0  0  0  0  0
   41.6250   31.4190   37.6810 H   0  0  0  0  0  0  0  0  0  0  0  0
   43.0030   32.5140   39.0620 C   0  0  0  0  0  0  0  0  0  0  0  0
   42.2100   32.7000   39.7720 H   0  0  0  0  0  0  0  0  0  0  0  0
   44.3140   32.9110   39.1880 C   0  0  0  0  0  3  0  0  0  0  0  0
   45.2920   32.6560   38.2670 C   0  0  0  0  0  0  0  0  0  0  0  0
  1  7  1  0  0  0  0
  1  6  1  0  0  0  0
  2  1  2  0  0  0  0
  3  2  1  0  0  0  0
  3  4  2  0  0  0  0
  4  5  1  0  0  0  0
  5  6  2  0  0  0  0
  5  9  1  0  0  0  0
  8  2  1  0  0  0  0
  9 15  1  1  0  0  0
  9 14  1  0  0  0  0
 10 11  1  0  0  0  0
 10 17  1  0  0  0  0
 10  9  1  0  0  0  0
 11 12  1  0  0  0  0
 12 21  1  0  0  0  0
 12 13  1  0  0  0  0
 13 22  1  0  0  0  0
 14 13  2  0  0  0  0
 14 23  1  0  0  0  0
 16 10  1  0  0  0  0
 18 11  1  0  0  0  0
 19 11  1  0  0  0  0
 20 12  1  0  0  0  0
 23 24  1  0  0  0  0
 25 23  1  0  0  0  0
 26  3  1  0  0  0  0
 27 26  1  0  0  0  0
 27 32  1  0  0  0  0
 28 27  2  0  0  0  0
 29 30  2  0  0  0  0
 29 28  1  0  0  0  0
 30 31  1  0  0  0  0
 31 26  2  0  0  0  0
 33 28  1  0  0  0  0
 34 29  1  0  0  0  0
 35 30  1  0  0  0  0
 36 35  2  0  0  0  0
 37 36  1  0  0  0  0
 38 37  2  0  0  0  0
 38 39  1  0  0  0  0
 39 46  1  0  0  0  0
 40 39  2  0  0  0  0
 40 41  1  0  0  0  0
 41 43  2  0  0  0  0
 42 41  1  0  0  0  0
 43 45  1  0  0  0  0
 43 44  1  0  0  0  0
 46 35  1  0  0  0  0
 46 45  2  0  0  0  0
M  END
>  <minimizedAffinity>
-7.86568832

>  <minimizedRMSD>
0.455269217

$$$$
