
 OpenBabel03252502223D

 36 39  0  0  1  0  0  0  0  0999 V2000
   36.4990   28.9450   40.0930 N   0  0  0  0  0  0  0  0  0  0  0  0
   35.1090   29.3050   40.0130 C   0  0  0  0  0  0  0  0  0  0  0  0
   34.6320   28.7790   38.6640 C   0  0  0  0  0  0  0  0  0  0  0  0
   35.3300   29.4300   37.5270 C   0  0  0  0  0  0  0  0  0  0  0  0
   36.7640   29.7680   37.7880 C   0  0  0  0  0  0  0  0  0  0  0  0
   37.3930   29.0750   38.9500 C   0  0  1  0  0  0  0  0  0  0  0  0
   35.0570   30.4100   40.0450 H   0  0  0  0  0  0  0  0  0  0  0  0
   34.5190   28.8470   40.8110 H   0  0  0  0  0  0  0  0  0  0  0  0
   34.7240   27.6750   38.6820 H   0  0  0  0  0  0  0  0  0  0  0  0
   33.5450   29.0680   38.6150 H   0  0  0  0  0  0  0  0  0  0  0  0
   35.3290   28.6900   36.6790 H   0  0  0  0  0  0  0  0  0  0  0  0
   34.7940   30.3200   37.1240 H   0  0  0  0  0  0  0  0  0  0  0  0
   37.4200   29.6330   36.9150 H   0  0  0  0  0  0  0  0  0  0  0  0
   36.7940   30.8690   38.0240 H   0  0  0  0  0  0  0  0  0  0  0  0
   37.5950   28.0490   38.6610 H   0  0  0  0  0  0  0  0  0  0  0  0
   38.5110   29.8970   39.4210 C   0  0  0  0  0  0  0  0  0  0  0  0
   39.7150   29.3390   39.6990 N   0  0  0  0  0  0  0  0  0  0  0  0
   40.7800   30.0370   40.1340 C   0  0  0  0  0  3  0  0  0  0  0  0
   40.7040   31.3620   40.3220 N   0  0  0  0  0  0  0  0  0  0  0  0
   39.5610   31.9820   40.0730 C   0  0  0  0  0  0  0  0  0  0  0  0
   39.4680   33.3360   40.2610 C   0  0  0  0  0  3  0  0  0  0  0  0
   38.2740   33.9590   39.9970 C   0  0  0  0  0  0  0  0  0  0  0  0
   38.2260   35.0380   40.1540 H   0  0  0  0  0  0  0  0  0  0  0  0
   37.1580   33.2700   39.5480 C   0  0  0  0  0  0  0  0  0  0  0  0
   36.2470   33.8180   39.3570 H   0  0  0  0  0  0  0  0  0  0  0  0
   37.2840   31.9150   39.3700 C   0  0  0  0  0  3  0  0  0  0  0  0
   38.4620   31.2660   39.6250 C   0  0  0  0  0  0  0  0  0  0  0  0
   38.0250   26.7080   42.6770 C   0  0  0  0  0  0  0  0  0  0  0  0
   37.4650   27.0900   41.4420 C   0  0  0  0  0  0  0  0  0  0  0  0
   37.0770   28.4410   41.2980 C   0  0  0  0  0  0  0  0  0  0  0  0
   37.2630   29.2960   42.3540 N   0  0  0  0  0  0  0  0  0  0  0  0
   37.8130   28.8590   43.5270 C   0  0  0  0  0  0  0  0  0  0  0  0
   38.1900   27.5630   43.6780 N   0  0  0  0  0  0  0  0  0  0  0  0
   38.2690   25.6550   42.6330 H   0  0  0  0  0  0  0  0  0  0  0  0
   37.3000   26.4630   40.5900 H   0  0  0  0  0  0  0  0  0  0  0  0
   37.9680   29.5080   44.3650 H   0  0  0  0  0  0  0  0  0  0  0  0
  1 30  1  0  0  0  0
  2  7  1  0  0  0  0
  2  1  1  0  0  0  0
  2  8  1  0  0  0  0
  3  9  1  0  0  0  0
  3  2  1  0  0  0  0
  4  5  1  0  0  0  0
  4  3  1  0  0  0  0
  5 14  1  0  0  0  0
  5  6  1  0  0  0  0
  6 15  1  6  0  0  0
  6 16  1  0  0  0  0
  6  1  1  0  0  0  0
 10  3  1  0  0  0  0
 11  4  1  0  0  0  0
 12  4  1  0  0  0  0
 13  5  1  0  0  0  0
 16 27  2  0  0  0  0
 16 17  1  0  0  0  0
 17 18  2  0  0  0  0
 18 19  1  0  0  0  0
 20 21  1  0  0  0  0
 20 19  2  0  0  0  0
 22 23  1  0  0  0  0
 22 21  2  0  0  0  0
 24 22  1  0  0  0  0
 25 24  1  0  0  0  0
 26 24  2  0  0  0  0
 26 27  1  0  0  0  0
 27 20  1  0  0  0  0
 28 33  1  0  0  0  0
 29 28  2  0  0  0  0
 30 29  1  0  0  0  0
 30 31  2  0  0  0  0
 31 32  1  0  0  0  0
 32 33  2  0  0  0  0
 32 36  1  0  0  0  0
 34 28  1  0  0  0  0
 35 29  1  0  0  0  0
M  END
>  <minimizedAffinity>
-5.79036427

$$$$

 OpenBabel03252502223D

 36 39  0  0  1  0  0  0  0  0999 V2000
   38.4550   30.8280   40.9140 N   0  0  0  0  0  0  0  0  0  0  0  0
   39.6890   31.4240   40.4780 C   0  0  0  0  0  0  0  0  0  0  0  0
   39.6030   32.8860   40.9020 C   0  0  0  0  0  0  0  0  0  0  0  0
   38.4940   33.6040   40.2250 C   0  0  0  0  0  0  0  0  0  0  0  0
   37.2740   32.7740   39.9770 C   0  0  0  0  0  0  0  0  0  0  0  0
   37.1770   31.5110   40.7660 C   0  0  1  0  0  0  0  0  0  0  0  0
   39.7210   31.3360   39.3750 H   0  0  0  0  0  0  0  0  0  0  0  0
   40.5590   30.9600   40.9480 H   0  0  0  0  0  0  0  0  0  0  0  0
   39.5530   32.9130   42.0080 H   0  0  0  0  0  0  0  0  0  0  0  0
   40.5730   33.3400   40.5540 H   0  0  0  0  0  0  0  0  0  0  0  0
   38.1760   34.4350   40.9150 H   0  0  0  0  0  0  0  0  0  0  0  0
   38.8030   34.1210   39.2870 H   0  0  0  0  0  0  0  0  0  0  0  0
   36.3290   33.3240   40.0960 H   0  0  0  0  0  0  0  0  0  0  0  0
   37.3130   32.4670   38.8930 H   0  0  0  0  0  0  0  0  0  0  0  0
   36.9020   31.7710   41.7830 H   0  0  0  0  0  0  0  0  0  0  0  0
   36.3180   30.5790   40.0300 C   0  0  0  0  0  0  0  0  0  0  0  0
   35.3400   29.8870   40.6650 N   0  0  0  0  0  0  0  0  0  0  0  0
   34.5190   29.0180   40.0490 C   0  0  0  0  0  3  0  0  0  0  0  0
   34.6290   28.7820   38.7340 N   0  0  0  0  0  0  0  0  0  0  0  0
   35.5610   29.4180   38.0410 C   0  0  0  0  0  0  0  0  0  0  0  0
   35.6860   29.1870   36.6970 C   0  0  0  0  0  3  0  0  0  0  0  0
   36.6590   29.8570   35.9990 C   0  0  0  0  0  0  0  0  0  0  0  0
   36.7370   29.6560   34.9290 H   0  0  0  0  0  0  0  0  0  0  0  0
   37.5200   30.7590   36.6030 C   0  0  0  0  0  0  0  0  0  0  0  0
   38.2650   31.2560   35.9990 H   0  0  0  0  0  0  0  0  0  0  0  0
   37.3700   30.9690   37.9510 C   0  0  0  0  0  3  0  0  0  0  0  0
   36.4090   30.3140   38.6740 C   0  0  0  0  0  0  0  0  0  0  0  0
   38.6600   27.1350   41.4920 C   0  0  0  0  0  0  0  0  0  0  0  0
   38.7340   28.3580   40.7950 C   0  0  0  0  0  0  0  0  0  0  0  0
   38.4160   29.5320   41.5130 C   0  0  0  0  0  0  0  0  0  0  0  0
   38.0560   29.4210   42.8320 N   0  0  0  0  0  0  0  0  0  0  0  0
   38.0040   28.2020   43.4490 C   0  0  0  0  0  0  0  0  0  0  0  0
   38.3080   27.0660   42.7690 N   0  0  0  0  0  0  0  0  0  0  0  0
   38.9310   26.3360   40.8150 H   0  0  0  0  0  0  0  0  0  0  0  0
   39.0090   28.4970   39.7700 H   0  0  0  0  0  0  0  0  0  0  0  0
   37.7260   28.0900   44.4770 H   0  0  0  0  0  0  0  0  0  0  0  0
  1 30  1  0  0  0  0
  2  3  1  0  0  0  0
  2  1  1  0  0  0  0
  2  8  1  0  0  0  0
  3  9  1  0  0  0  0
  4  3  1  0  0  0  0
  4 11  1  0  0  0  0
  5 13  1  0  0  0  0
  5  4  1  0  0  0  0
  5  6  1  0  0  0  0
  6  1  1  0  0  0  0
  6 15  1  1  0  0  0
  7  2  1  0  0  0  0
 10  3  1  0  0  0  0
 12  4  1  0  0  0  0
 14  5  1  0  0  0  0
 16 17  1  0  0  0  0
 16  6  1  0  0  0  0
 18 17  2  0  0  0  0
 19 18  1  0  0  0  0
 20 27  1  0  0  0  0
 20 19  2  0  0  0  0
 21 20  1  0  0  0  0
 22 24  1  0  0  0  0
 22 21  2  0  0  0  0
 23 22  1  0  0  0  0
 24 26  2  0  0  0  0
 25 24  1  0  0  0  0
 26 27  1  0  0  0  0
 27 16  2  0  0  0  0
 28 33  1  0  0  0  0
 29 28  2  0  0  0  0
 29 30  1  0  0  0  0
 30 31  2  0  0  0  0
 31 32  1  0  0  0  0
 32 36  1  0  0  0  0
 33 32  2  0  0  0  0
 34 28  1  0  0  0  0
 35 29  1  0  0  0  0
M  END
>  <minimizedAffinity>
-5.62749195

$$$$

 OpenBabel03252502223D

 36 39  0  0  1  0  0  0  0  0999 V2000
   37.2520   28.2750   40.8380 N   0  0  0  0  0  0  0  0  0  0  0  0
   37.8050   26.9950   41.1880 C   0  0  0  0  0  0  0  0  0  0  0  0
   37.0680   26.5690   42.4540 C   0  0  0  0  0  0  0  0  0  0  0  0
   37.3190   27.4920   43.5890 C   0  0  0  0  0  0  0  0  0  0  0  0
   37.4710   28.9290   43.2010 C   0  0  0  0  0  0  0  0  0  0  0  0
   36.9700   29.2910   41.8430 C   0  0  1  0  0  0  0  0  0  0  0  0
   38.8810   27.1510   41.3940 H   0  0  0  0  0  0  0  0  0  0  0  0
   37.6440   26.2500   40.4060 H   0  0  0  0  0  0  0  0  0  0  0  0
   35.9980   26.4480   42.1950 H   0  0  0  0  0  0  0  0  0  0  0  0
   37.5110   25.5680   42.7160 H   0  0  0  0  0  0  0  0  0  0  0  0
   36.4150   27.4390   44.2570 H   0  0  0  0  0  0  0  0  0  0  0  0
   38.1690   27.1790   44.2400 H   0  0  0  0  0  0  0  0  0  0  0  0
   37.0350   29.6340   43.9250 H   0  0  0  0  0  0  0  0  0  0  0  0
   38.5770   29.1430   43.1970 H   0  0  0  0  0  0  0  0  0  0  0  0
   35.8860   29.3240   41.8830 H   0  0  0  0  0  0  0  0  0  0  0  0
   37.6850   30.4900   41.3980 C   0  0  0  0  0  0  0  0  0  0  0  0
   37.0300   31.4970   40.7690 N   0  0  0  0  0  0  0  0  0  0  0  0
   37.6270   32.6220   40.3360 C   0  0  0  0  0  3  0  0  0  0  0  0
   38.9430   32.8120   40.5080 N   0  0  0  0  0  0  0  0  0  0  0  0
   39.6540   31.8750   41.1150 C   0  0  0  0  0  0  0  0  0  0  0  0
   41.0000   32.0550   41.2990 C   0  0  0  0  0  3  0  0  0  0  0  0
   41.7180   31.0720   41.9300 C   0  0  0  0  0  0  0  0  0  0  0  0
   42.7880   31.2400   42.0640 H   0  0  0  0  0  0  0  0  0  0  0  0
   41.1340   29.9010   42.3880 C   0  0  0  0  0  0  0  0  0  0  0  0
   41.7540   29.1640   42.8770 H   0  0  0  0  0  0  0  0  0  0  0  0
   39.7850   29.7510   42.1890 C   0  0  0  0  0  3  0  0  0  0  0  0
   39.0420   30.7150   41.5620 C   0  0  0  0  0  0  0  0  0  0  0  0
   35.4490   29.1220   37.6680 C   0  0  0  0  0  0  0  0  0  0  0  0
   35.6240   28.7810   39.0250 C   0  0  0  0  0  0  0  0  0  0  0  0
   36.9500   28.6200   39.4850 C   0  0  0  0  0  0  0  0  0  0  0  0
   37.9820   28.7990   38.5990 N   0  0  0  0  0  0  0  0  0  0  0  0
   37.7420   29.1290   37.2950 C   0  0  0  0  0  0  0  0  0  0  0  0
   36.4720   29.2880   36.8400 N   0  0  0  0  0  0  0  0  0  0  0  0
   34.3900   29.2110   37.4700 H   0  0  0  0  0  0  0  0  0  0  0  0
   34.8550   28.6310   39.7540 H   0  0  0  0  0  0  0  0  0  0  0  0
   38.5310   29.2750   36.5850 H   0  0  0  0  0  0  0  0  0  0  0  0
  1  2  1  0  0  0  0
  1  6  1  0  0  0  0
  2  7  1  0  0  0  0
  2  3  1  0  0  0  0
  3 10  1  0  0  0  0
  3  4  1  0  0  0  0
  4 12  1  0  0  0  0
  4 11  1  0  0  0  0
  5  4  1  0  0  0  0
  5 13  1  0  0  0  0
  6 15  1  1  0  0  0
  6  5  1  0  0  0  0
  8  2  1  0  0  0  0
  9  3  1  0  0  0  0
 14  5  1  0  0  0  0
 16 27  1  0  0  0  0
 16  6  1  0  0  0  0
 17 16  2  0  0  0  0
 18 19  2  0  0  0  0
 18 17  1  0  0  0  0
 19 20  1  0  0  0  0
 20 21  2  0  0  0  0
 20 27  1  0  0  0  0
 21 22  1  0  0  0  0
 22 23  1  0  0  0  0
 22 24  2  0  0  0  0
 24 25  1  0  0  0  0
 26 24  1  0  0  0  0
 27 26  2  0  0  0  0
 28 29  1  0  0  0  0
 29 30  2  0  0  0  0
 29 35  1  0  0  0  0
 30  1  1  0  0  0  0
 31 30  1  0  0  0  0
 32 31  2  0  0  0  0
 33 32  1  0  0  0  0
 33 28  2  0  0  0  0
 34 28  1  0  0  0  0
 36 32  1  0  0  0  0
M  END
>  <minimizedAffinity>
-5.48881006

$$$$

 OpenBabel03252502223D

 36 39  0  0  1  0  0  0  0  0999 V2000
   37.6550   29.3960   38.9520 N   0  0  0  0  0  0  0  0  0  0  0  0
   37.5210   28.9370   37.5960 C   0  0  0  0  0  0  0  0  0  0  0  0
   36.2670   29.6200   37.0600 C   0  0  0  0  0  0  0  0  0  0  0  0
   35.0450   29.2090   37.7950 C   0  0  0  0  0  0  0  0  0  0  0  0
   35.2520   28.9570   39.2560 C   0  0  0  0  0  0  0  0  0  0  0  0
   36.5060   29.5160   39.8400 C   0  0  1  0  0  0  0  0  0  0  0  0
   37.3840   27.8390   37.6360 H   0  0  0  0  0  0  0  0  0  0  0  0
   38.3780   29.2170   36.9800 H   0  0  0  0  0  0  0  0  0  0  0  0
   36.4520   30.7120   37.0610 H   0  0  0  0  0  0  0  0  0  0  0  0
   36.1740   29.2500   36.0010 H   0  0  0  0  0  0  0  0  0  0  0  0
   34.3180   30.0660   37.7230 H   0  0  0  0  0  0  0  0  0  0  0  0
   34.5110   28.3480   37.3310 H   0  0  0  0  0  0  0  0  0  0  0  0
   34.4100   29.2770   39.8870 H   0  0  0  0  0  0  0  0  0  0  0  0
   35.3170   27.8390   39.3800 H   0  0  0  0  0  0  0  0  0  0  0  0
   36.3760   30.5880   39.9530 H   0  0  0  0  0  0  0  0  0  0  0  0
   36.8470   28.7290   41.0280 C   0  0  0  0  0  0  0  0  0  0  0  0
   37.1640   29.3380   42.1970 N   0  0  0  0  0  0  0  0  0  0  0  0
   37.4860   28.6740   43.3220 C   0  0  0  0  0  3  0  0  0  0  0  0
   37.5110   27.3340   43.3470 N   0  0  0  0  0  0  0  0  0  0  0  0
   37.2120   26.6640   42.2440 C   0  0  0  0  0  0  0  0  0  0  0  0
   37.2340   25.2950   42.2540 C   0  0  0  0  0  3  0  0  0  0  0  0
   36.9210   24.6210   41.1000 C   0  0  0  0  0  0  0  0  0  0  0  0
   36.9450   23.5300   41.1340 H   0  0  0  0  0  0  0  0  0  0  0  0
   36.5860   25.2740   39.9250 C   0  0  0  0  0  0  0  0  0  0  0  0
   36.3490   24.6870   39.0500 H   0  0  0  0  0  0  0  0  0  0  0  0
   36.5730   26.6460   39.9480 C   0  0  0  0  0  3  0  0  0  0  0  0
   36.8810   27.3460   41.0830 C   0  0  0  0  0  0  0  0  0  0  0  0
   41.1740   29.2960   40.2230 C   0  0  0  0  0  0  0  0  0  0  0  0
   39.9680   28.8230   39.6680 C   0  0  0  0  0  0  0  0  0  0  0  0
   38.9220   29.7580   39.5020 C   0  0  0  0  0  0  0  0  0  0  0  0
   39.1340   31.0590   39.8840 N   0  0  0  0  0  0  0  0  0  0  0  0
   40.3300   31.4510   40.4150 C   0  0  0  0  0  0  0  0  0  0  0  0
   41.3440   30.5620   40.5800 N   0  0  0  0  0  0  0  0  0  0  0  0
   41.8710   28.4710   40.2850 H   0  0  0  0  0  0  0  0  0  0  0  0
   39.7540   27.8220   39.3560 H   0  0  0  0  0  0  0  0  0  0  0  0
   40.5190   32.4610   40.7210 H   0  0  0  0  0  0  0  0  0  0  0  0
  1 30  1  0  0  0  0
  1  6  1  0  0  0  0
  2  7  1  0  0  0  0
  2  1  1  0  0  0  0
  3  9  1  0  0  0  0
  3  2  1  0  0  0  0
  3  4  1  0  0  0  0
  4  5  1  0  0  0  0
  5 14  1  0  0  0  0
  5  6  1  0  0  0  0
  5 13  1  0  0  0  0
  6 15  1  1  0  0  0
  6 16  1  0  0  0  0
  8  2  1  0  0  0  0
 10  3  1  0  0  0  0
 11  4  1  0  0  0  0
 12  4  1  0  0  0  0
 16 27  2  0  0  0  0
 16 17  1  0  0  0  0
 17 18  2  0  0  0  0
 18 19  1  0  0  0  0
 20 21  1  0  0  0  0
 20 19  2  0  0  0  0
 22 23  1  0  0  0  0
 22 21  2  0  0  0  0
 24 26  2  0  0  0  0
 24 22  1  0  0  0  0
 25 24  1  0  0  0  0
 26 27  1  0  0  0  0
 27 20  1  0  0  0  0
 28 34  1  0  0  0  0
 28 33  1  0  0  0  0
 29 28  2  0  0  0  0
 30 29  1  0  0  0  0
 30 31  2  0  0  0  0
 31 32  1  0  0  0  0
 32 33  2  0  0  0  0
 32 36  1  0  0  0  0
 35 29  1  0  0  0  0
M  END
>  <minimizedAffinity>
-5.4231472

$$$$

 OpenBabel03252502223D

 36 39  0  0  1  0  0  0  0  0999 V2000
   39.6640   31.6710   40.5520 N   0  0  0  0  0  0  0  0  0  0  0  0
   40.0260   32.7660   39.6930 C   0  0  0  0  0  0  0  0  0  0  0  0
   39.1500   33.9330   40.1350 C   0  0  0  0  0  0  0  0  0  0  0  0
   37.7050   33.6610   39.9300 C   0  0  0  0  0  0  0  0  0  0  0  0
   37.3030   32.2360   40.1460 C   0  0  0  0  0  0  0  0  0  0  0  0
   38.2770   31.3940   40.9010 C   0  0  1  0  0  0  0  0  0  0  0  0
   39.7820   32.4610   38.6570 H   0  0  0  0  0  0  0  0  0  0  0  0
   41.0780   33.0410   39.7990 H   0  0  0  0  0  0  0  0  0  0  0  0
   39.4210   34.1810   41.1800 H   0  0  0  0  0  0  0  0  0  0  0  0
   39.4430   34.7800   39.4550 H   0  0  0  0  0  0  0  0  0  0  0  0
   37.1480   34.2660   40.6970 H   0  0  0  0  0  0  0  0  0  0  0  0
   37.3170   34.0230   38.9500 H   0  0  0  0  0  0  0  0  0  0  0  0
   36.3150   32.1180   40.6170 H   0  0  0  0  0  0  0  0  0  0  0  0
   37.2100   31.7720   39.1240 H   0  0  0  0  0  0  0  0  0  0  0  0
   38.2140   31.6640   41.9500 H   0  0  0  0  0  0  0  0  0  0  0  0
   38.0530   29.9940   40.5290 C   0  0  0  0  0  0  0  0  0  0  0  0
   38.1420   29.5960   39.2360 N   0  0  0  0  0  0  0  0  0  0  0  0
   37.9480   28.3280   38.8300 C   0  0  0  0  0  3  0  0  0  0  0  0
   37.6470   27.3620   39.7090 N   0  0  0  0  0  0  0  0  0  0  0  0
   37.5420   27.6700   40.9920 C   0  0  0  0  0  0  0  0  0  0  0  0
   37.2350   26.6940   41.9030 C   0  0  0  0  0  3  0  0  0  0  0  0
   37.1310   27.0350   43.2280 C   0  0  0  0  0  0  0  0  0  0  0  0
   36.8860   26.2390   43.9330 H   0  0  0  0  0  0  0  0  0  0  0  0
   37.3240   28.3320   43.6800 C   0  0  0  0  0  0  0  0  0  0  0  0
   37.2290   28.5360   44.7360 H   0  0  0  0  0  0  0  0  0  0  0  0
   37.6310   29.2860   42.7430 C   0  0  0  0  0  3  0  0  0  0  0  0
   37.7410   28.9760   41.4140 C   0  0  0  0  0  0  0  0  0  0  0  0
   41.8970   29.8330   42.9290 C   0  0  0  0  0  0  0  0  0  0  0  0
   40.9050   30.7360   42.4960 C   0  0  0  0  0  0  0  0  0  0  0  0
   40.6450   30.7950   41.1090 C   0  0  0  0  0  0  0  0  0  0  0  0
   41.3640   29.9820   40.2690 N   0  0  0  0  0  0  0  0  0  0  0  0
   42.3130   29.1280   40.7560 C   0  0  0  0  0  0  0  0  0  0  0  0
   42.5710   29.0620   42.0880 N   0  0  0  0  0  0  0  0  0  0  0  0
   41.9780   29.9030   44.0060 H   0  0  0  0  0  0  0  0  0  0  0  0
   40.3190   31.3900   43.1090 H   0  0  0  0  0  0  0  0  0  0  0  0
   42.8860   28.4840   40.1200 H   0  0  0  0  0  0  0  0  0  0  0  0
  1  6  1  0  0  0  0
  1 30  1  0  0  0  0
  2  8  1  0  0  0  0
  2  3  1  0  0  0  0
  2  1  1  0  0  0  0
  3  9  1  0  0  0  0
  4  3  1  0  0  0  0
  4  5  1  0  0  0  0
  4 11  1  0  0  0  0
  5 13  1  0  0  0  0
  5  6  1  0  0  0  0
  6 15  1  1  0  0  0
  7  2  1  0  0  0  0
 10  3  1  0  0  0  0
 12  4  1  0  0  0  0
 14  5  1  0  0  0  0
 16  6  1  0  0  0  0
 16 27  1  0  0  0  0
 17 16  2  0  0  0  0
 18 17  1  0  0  0  0
 18 19  2  0  0  0  0
 19 20  1  0  0  0  0
 20 27  2  0  0  0  0
 20 21  1  0  0  0  0
 21 22  2  0  0  0  0
 22 24  1  0  0  0  0
 22 23  1  0  0  0  0
 24 25  1  0  0  0  0
 26 24  2  0  0  0  0
 27 26  1  0  0  0  0
 28 34  1  0  0  0  0
 29 28  1  0  0  0  0
 29 35  1  0  0  0  0
 30 29  2  0  0  0  0
 31 32  2  0  0  0  0
 31 30  1  0  0  0  0
 32 33  1  0  0  0  0
 33 28  2  0  0  0  0
 36 32  1  0  0  0  0
M  END
>  <minimizedAffinity>
-5.40128088

$$$$

 OpenBabel03252502223D

 36 39  0  0  1  0  0  0  0  0999 V2000
   38.1540   28.0300   41.1310 N   0  0  0  0  0  0  0  0  0  0  0  0
   38.2090   26.7180   41.7170 C   0  0  0  0  0  0  0  0  0  0  0  0
   36.9500   26.6040   42.5710 C   0  0  0  0  0  0  0  0  0  0  0  0
   36.9310   27.5900   43.6800 C   0  0  0  0  0  0  0  0  0  0  0  0
   37.5520   28.9110   43.3500 C   0  0  0  0  0  0  0  0  0  0  0  0
   37.7350   29.1970   41.8970 C   0  0  1  0  0  0  0  0  0  0  0  0
   39.1170   26.6830   42.3490 H   0  0  0  0  0  0  0  0  0  0  0  0
   38.2080   25.9300   40.9610 H   0  0  0  0  0  0  0  0  0  0  0  0
   36.0770   26.6670   41.8920 H   0  0  0  0  0  0  0  0  0  0  0  0
   37.0070   25.5750   43.0230 H   0  0  0  0  0  0  0  0  0  0  0  0
   35.8490   27.7990   43.9100 H   0  0  0  0  0  0  0  0  0  0  0  0
   37.3510   27.1980   44.6350 H   0  0  0  0  0  0  0  0  0  0  0  0
   37.0380   29.7720   43.8040 H   0  0  0  0  0  0  0  0  0  0  0  0
   38.5840   28.9000   43.8020 H   0  0  0  0  0  0  0  0  0  0  0  0
   36.7660   29.4480   41.4780 H   0  0  0  0  0  0  0  0  0  0  0  0
   38.8250   30.1680   41.7570 C   0  0  0  0  0  0  0  0  0  0  0  0
   40.0580   29.9030   42.2530 N   0  0  0  0  0  0  0  0  0  0  0  0
   41.1000   30.7490   42.1580 C   0  0  0  0  0  3  0  0  0  0  0  0
   40.9680   31.9360   41.5490 N   0  0  0  0  0  0  0  0  0  0  0  0
   39.7930   32.2700   41.0370 C   0  0  0  0  0  0  0  0  0  0  0  0
   39.6430   33.4800   40.4120 C   0  0  0  0  0  3  0  0  0  0  0  0
   38.4170   33.8050   39.8890 C   0  0  0  0  0  0  0  0  0  0  0  0
   38.3240   34.7740   39.3950 H   0  0  0  0  0  0  0  0  0  0  0  0
   37.3240   32.9560   39.9700 C   0  0  0  0  0  0  0  0  0  0  0  0
   36.3860   33.2700   39.5370 H   0  0  0  0  0  0  0  0  0  0  0  0
   37.5070   31.7520   40.6020 C   0  0  0  0  0  3  0  0  0  0  0  0
   38.7180   31.4000   41.1340 C   0  0  0  0  0  0  0  0  0  0  0  0
   38.0290   28.8680   37.4850 C   0  0  0  0  0  0  0  0  0  0  0  0
   37.5630   28.6730   38.8010 C   0  0  0  0  0  0  0  0  0  0  0  0
   38.5080   28.2600   39.7670 C   0  0  0  0  0  0  0  0  0  0  0  0
   39.8100   28.0730   39.3770 N   0  0  0  0  0  0  0  0  0  0  0  0
   40.1960   28.2810   38.0830 C   0  0  0  0  0  0  0  0  0  0  0  0
   39.2970   28.6780   37.1440 N   0  0  0  0  0  0  0  0  0  0  0  0
   37.1970   29.1800   36.8680 H   0  0  0  0  0  0  0  0  0  0  0  0
   36.5610   28.8050   39.1530 H   0  0  0  0  0  0  0  0  0  0  0  0
   41.2060   28.1410   37.7550 H   0  0  0  0  0  0  0  0  0  0  0  0
  1  2  1  0  0  0  0
  1  6  1  0  0  0  0
  2  7  1  0  0  0  0
  2  3  1  0  0  0  0
  3 10  1  0  0  0  0
  3  4  1  0  0  0  0
  4 11  1  0  0  0  0
  4 12  1  0  0  0  0
  5  4  1  0  0  0  0
  5 14  1  0  0  0  0
  5 13  1  0  0  0  0
  6 15  1  6  0  0  0
  6  5  1  0  0  0  0
  8  2  1  0  0  0  0
  9  3  1  0  0  0  0
 16  6  1  0  0  0  0
 16 17  1  0  0  0  0
 18 17  2  0  0  0  0
 19 18  1  0  0  0  0
 20 27  1  0  0  0  0
 20 19  2  0  0  0  0
 21 20  1  0  0  0  0
 22 24  1  0  0  0  0
 22 21  2  0  0  0  0
 23 22  1  0  0  0  0
 24 26  2  0  0  0  0
 25 24  1  0  0  0  0
 26 27  1  0  0  0  0
 27 16  2  0  0  0  0
 28 29  1  0  0  0  0
 29 35  1  0  0  0  0
 29 30  2  0  0  0  0
 30  1  1  0  0  0  0
 31 30  1  0  0  0  0
 32 31  2  0  0  0  0
 33 28  2  0  0  0  0
 33 32  1  0  0  0  0
 34 28  1  0  0  0  0
 36 32  1  0  0  0  0
M  END
>  <minimizedAffinity>
-5.35295725

$$$$

 OpenBabel03252502223D

 36 39  0  0  1  0  0  0  0  0999 V2000
   37.0000   29.4780   38.5710 N   0  0  0  0  0  0  0  0  0  0  0  0
   36.2910   28.5800   37.7010 C   0  0  0  0  0  0  0  0  0  0  0  0
   34.8530   29.0870   37.6820 C   0  0  0  0  0  0  0  0  0  0  0  0
   34.2130   29.0150   39.0190 C   0  0  0  0  0  0  0  0  0  0  0  0
   35.1360   29.2800   40.1670 C   0  0  0  0  0  0  0  0  0  0  0  0
   36.4230   29.9520   39.8220 C   0  0  1  0  0  0  0  0  0  0  0  0
   36.3460   27.5730   38.1580 H   0  0  0  0  0  0  0  0  0  0  0  0
   36.6930   28.5880   36.6860 H   0  0  0  0  0  0  0  0  0  0  0  0
   34.8600   30.1010   37.2360 H   0  0  0  0  0  0  0  0  0  0  0  0
   34.3110   28.3750   37.0000 H   0  0  0  0  0  0  0  0  0  0  0  0
   33.4310   29.8240   39.0500 H   0  0  0  0  0  0  0  0  0  0  0  0
   33.6470   28.0700   39.1940 H   0  0  0  0  0  0  0  0  0  0  0  0
   34.6710   29.8380   40.9930 H   0  0  0  0  0  0  0  0  0  0  0  0
   35.4100   28.2750   40.5960 H   0  0  0  0  0  0  0  0  0  0  0  0
   36.2150   31.0000   39.6320 H   0  0  0  0  0  0  0  0  0  0  0  0
   37.4040   29.6160   40.8580 C   0  0  0  0  0  0  0  0  0  0  0  0
   38.1720   30.5780   41.4250 N   0  0  0  0  0  0  0  0  0  0  0  0
   39.0900   30.3360   42.3790 C   0  0  0  0  0  3  0  0  0  0  0  0
   39.3000   29.0910   42.8310 N   0  0  0  0  0  0  0  0  0  0  0  0
   38.5890   28.0950   42.3270 C   0  0  0  0  0  0  0  0  0  0  0  0
   38.7930   26.8180   42.7790 C   0  0  0  0  0  3  0  0  0  0  0  0
   38.0450   25.8000   42.2430 C   0  0  0  0  0  0  0  0  0  0  0  0
   38.2260   24.7920   42.6200 H   0  0  0  0  0  0  0  0  0  0  0  0
   37.0920   26.0150   41.2590 C   0  0  0  0  0  0  0  0  0  0  0  0
   36.5360   25.1720   40.8770 H   0  0  0  0  0  0  0  0  0  0  0  0
   36.9120   27.3050   40.8280 C   0  0  0  0  0  3  0  0  0  0  0  0
   37.6430   28.3410   41.3440 C   0  0  0  0  0  0  0  0  0  0  0  0
   40.6700   29.6720   37.8580 C   0  0  0  0  0  0  0  0  0  0  0  0
   39.4260   29.0900   38.1760 C   0  0  0  0  0  0  0  0  0  0  0  0
   38.3100   29.9520   38.2570 C   0  0  0  0  0  0  0  0  0  0  0  0
   38.4940   31.2920   38.0280 N   0  0  0  0  0  0  0  0  0  0  0  0
   39.7300   31.7920   37.7240 C   0  0  0  0  0  0  0  0  0  0  0  0
   40.8110   30.9730   37.6420 N   0  0  0  0  0  0  0  0  0  0  0  0
   41.4180   28.8920   37.8330 H   0  0  0  0  0  0  0  0  0  0  0  0
   39.2310   28.0540   38.3630 H   0  0  0  0  0  0  0  0  0  0  0  0
   39.8980   32.8340   37.5400 H   0  0  0  0  0  0  0  0  0  0  0  0
  1  6  1  0  0  0  0
  2  7  1  0  0  0  0
  2  1  1  0  0  0  0
  3  2  1  0  0  0  0
  3  4  1  0  0  0  0
  4 11  1  0  0  0  0
  4 12  1  0  0  0  0
  4  5  1  0  0  0  0
  5 14  1  0  0  0  0
  5 13  1  0  0  0  0
  6 15  1  6  0  0  0
  6  5  1  0  0  0  0
  6 16  1  0  0  0  0
  8  2  1  0  0  0  0
  9  3  1  0  0  0  0
 10  3  1  0  0  0  0
 16 27  2  0  0  0  0
 16 17  1  0  0  0  0
 17 18  2  0  0  0  0
 18 19  1  0  0  0  0
 20 21  1  0  0  0  0
 20 19  2  0  0  0  0
 22 23  1  0  0  0  0
 22 21  2  0  0  0  0
 24 22  1  0  0  0  0
 25 24  1  0  0  0  0
 26 24  2  0  0  0  0
 26 27  1  0  0  0  0
 27 20  1  0  0  0  0
 28 29  1  0  0  0  0
 29 30  2  0  0  0  0
 29 35  1  0  0  0  0
 30  1  1  0  0  0  0
 31 30  1  0  0  0  0
 32 31  2  0  0  0  0
 33 32  1  0  0  0  0
 33 28  2  0  0  0  0
 34 28  1  0  0  0  0
 36 32  1  0  0  0  0
M  END
>  <minimizedAffinity>
-5.34115791

$$$$

 OpenBabel03252502223D

 36 39  0  0  1  0  0  0  0  0999 V2000
   36.3450   29.3480   38.1910 N   0  0  0  0  0  0  0  0  0  0  0  0
   35.9440   29.3540   36.8100 C   0  0  0  0  0  0  0  0  0  0  0  0
   34.5380   28.7650   36.7950 C   0  0  0  0  0  0  0  0  0  0  0  0
   34.5120   27.3570   37.2630 C   0  0  0  0  0  0  0  0  0  0  0  0
   35.4950   27.0430   38.3470 C   0  0  0  0  0  0  0  0  0  0  0  0
   36.0640   28.2190   39.0680 C   0  0  1  0  0  0  0  0  0  0  0  0
   36.6510   28.6990   36.2640 H   0  0  0  0  0  0  0  0  0  0  0  0
   35.9200   30.3630   36.3930 H   0  0  0  0  0  0  0  0  0  0  0  0
   33.8810   29.4470   37.3700 H   0  0  0  0  0  0  0  0  0  0  0  0
   34.2390   28.7740   35.7100 H   0  0  0  0  0  0  0  0  0  0  0  0
   33.4920   27.1780   37.7020 H   0  0  0  0  0  0  0  0  0  0  0  0
   34.5990   26.6100   36.4400 H   0  0  0  0  0  0  0  0  0  0  0  0
   35.1190   26.3320   39.0980 H   0  0  0  0  0  0  0  0  0  0  0  0
   36.3650   26.5270   37.8490 H   0  0  0  0  0  0  0  0  0  0  0  0
   35.3040   28.5980   39.7450 H   0  0  0  0  0  0  0  0  0  0  0  0
   37.3600   27.8270   39.6290 C   0  0  0  0  0  0  0  0  0  0  0  0
   38.4140   27.5570   38.8180 N   0  0  0  0  0  0  0  0  0  0  0  0
   39.6280   27.1930   39.2680 C   0  0  0  0  0  3  0  0  0  0  0  0
   39.8680   27.0750   40.5820 N   0  0  0  0  0  0  0  0  0  0  0  0
   38.8900   27.3220   41.4400 C   0  0  0  0  0  0  0  0  0  0  0  0
   39.1200   27.2050   42.7850 C   0  0  0  0  0  3  0  0  0  0  0  0
   38.0920   27.4660   43.6560 C   0  0  0  0  0  0  0  0  0  0  0  0
   38.3010   27.3660   44.7220 H   0  0  0  0  0  0  0  0  0  0  0  0
   36.8300   27.8420   43.2250 C   0  0  0  0  0  0  0  0  0  0  0  0
   36.0620   28.0340   43.9610 H   0  0  0  0  0  0  0  0  0  0  0  0
   36.6320   27.9510   41.8720 C   0  0  0  0  0  3  0  0  0  0  0  0
   37.6370   27.6970   40.9790 C   0  0  0  0  0  0  0  0  0  0  0  0
   37.3470   32.1780   40.4270 C   0  0  0  0  0  0  0  0  0  0  0  0
   36.5760   31.1030   39.9400 C   0  0  0  0  0  0  0  0  0  0  0  0
   37.0410   30.4490   38.7780 C   0  0  0  0  0  0  0  0  0  0  0  0
   38.2010   30.8890   38.1920 N   0  0  0  0  0  0  0  0  0  0  0  0
   38.9010   31.9390   38.7180 C   0  0  0  0  0  0  0  0  0  0  0  0
   38.4650   32.5760   39.8350 N   0  0  0  0  0  0  0  0  0  0  0  0
   36.8670   32.5720   41.3130 H   0  0  0  0  0  0  0  0  0  0  0  0
   35.6670   30.7230   40.3580 H   0  0  0  0  0  0  0  0  0  0  0  0
   39.8090   32.3000   38.2790 H   0  0  0  0  0  0  0  0  0  0  0  0
  1 30  1  0  0  0  0
  1  6  1  0  0  0  0
  2  1  1  0  0  0  0
  3  2  1  0  0  0  0
  3  4  1  0  0  0  0
  3  9  1  0  0  0  0
  4 11  1  0  0  0  0
  4  5  1  0  0  0  0
  5  6  1  0  0  0  0
  5 13  1  0  0  0  0
  6 16  1  0  0  0  0
  6 15  1  1  0  0  0
  7  2  1  0  0  0  0
  8  2  1  0  0  0  0
 10  3  1  0  0  0  0
 12  4  1  0  0  0  0
 14  5  1  0  0  0  0
 16 27  1  0  0  0  0
 17 18  1  0  0  0  0
 17 16  2  0  0  0  0
 18 19  2  0  0  0  0
 19 20  1  0  0  0  0
 20 21  1  0  0  0  0
 21 22  2  0  0  0  0
 22 23  1  0  0  0  0
 24 22  1  0  0  0  0
 24 25  1  0  0  0  0
 26 24  2  0  0  0  0
 27 20  2  0  0  0  0
 27 26  1  0  0  0  0
 28 34  1  0  0  0  0
 29 35  1  0  0  0  0
 29 28  1  0  0  0  0
 30 29  2  0  0  0  0
 31 32  2  0  0  0  0
 31 30  1  0  0  0  0
 32 33  1  0  0  0  0
 33 28  2  0  0  0  0
 36 32  1  0  0  0  0
M  END
>  <minimizedAffinity>
-5.29015779

$$$$

 OpenBabel03252502223D

 36 39  0  0  1  0  0  0  0  0999 V2000
   37.6440   29.2510   41.3610 N   0  0  0  0  0  0  0  0  0  0  0  0
   37.4920   29.2070   42.7900 C   0  0  0  0  0  0  0  0  0  0  0  0
   38.2020   27.9310   43.2310 C   0  0  0  0  0  0  0  0  0  0  0  0
   37.5650   26.7110   42.6750 C   0  0  0  0  0  0  0  0  0  0  0  0
   37.0050   26.8750   41.2970 C   0  0  0  0  0  0  0  0  0  0  0  0
   37.4930   28.0610   40.5340 C   0  0  1  0  0  0  0  0  0  0  0  0
   36.4070   29.1460   43.0000 H   0  0  0  0  0  0  0  0  0  0  0  0
   37.9540   30.0670   43.2790 H   0  0  0  0  0  0  0  0  0  0  0  0
   39.2750   28.0380   42.9790 H   0  0  0  0  0  0  0  0  0  0  0  0
   38.0740   27.9090   44.3490 H   0  0  0  0  0  0  0  0  0  0  0  0
   38.3720   25.9300   42.5970 H   0  0  0  0  0  0  0  0  0  0  0  0
   36.8000   26.2590   43.3480 H   0  0  0  0  0  0  0  0  0  0  0  0
   37.1250   25.9860   40.6590 H   0  0  0  0  0  0  0  0  0  0  0  0
   35.8930   27.0130   41.4190 H   0  0  0  0  0  0  0  0  0  0  0  0
   38.5020   27.8500   40.1950 H   0  0  0  0  0  0  0  0  0  0  0  0
   36.4810   28.4060   39.5320 C   0  0  0  0  0  0  0  0  0  0  0  0
   35.2180   28.7290   39.9040 N   0  0  0  0  0  0  0  0  0  0  0  0
   34.2440   29.0550   39.0350 C   0  0  0  0  0  3  0  0  0  0  0  0
   34.4790   29.0780   37.7150 N   0  0  0  0  0  0  0  0  0  0  0  0
   35.6880   28.7760   37.2710 C   0  0  0  0  0  0  0  0  0  0  0  0
   35.9440   28.7950   35.9250 C   0  0  0  0  0  3  0  0  0  0  0  0
   37.2040   28.4770   35.4880 C   0  0  0  0  0  0  0  0  0  0  0  0
   37.3820   28.5010   34.4110 H   0  0  0  0  0  0  0  0  0  0  0  0
   38.2300   28.1370   36.3560 C   0  0  0  0  0  0  0  0  0  0  0  0
   39.2010   27.8970   35.9480 H   0  0  0  0  0  0  0  0  0  0  0  0
   37.9430   28.1270   37.6970 C   0  0  0  0  0  3  0  0  0  0  0  0
   36.6940   28.4390   38.1640 C   0  0  0  0  0  0  0  0  0  0  0  0
   37.4700   32.7120   39.9450 C   0  0  0  0  0  0  0  0  0  0  0  0
   37.0620   31.5660   40.6570 C   0  0  0  0  0  0  0  0  0  0  0  0
   37.9480   30.4660   40.6740 C   0  0  0  0  0  0  0  0  0  0  0  0
   39.1410   30.5700   40.0050 N   0  0  0  0  0  0  0  0  0  0  0  0
   39.4750   31.7120   39.3330 C   0  0  0  0  0  0  0  0  0  0  0  0
   38.6320   32.7780   39.3100 N   0  0  0  0  0  0  0  0  0  0  0  0
   36.6930   33.4610   40.0250 H   0  0  0  0  0  0  0  0  0  0  0  0
   36.1440   31.4360   41.1930 H   0  0  0  0  0  0  0  0  0  0  0  0
   40.4010   31.8170   38.8040 H   0  0  0  0  0  0  0  0  0  0  0  0
  1  2  1  0  0  0  0
  2  7  1  0  0  0  0
  2  3  1  0  0  0  0
  2  8  1  0  0  0  0
  3 10  1  0  0  0  0
  4  3  1  0  0  0  0
  4 12  1  0  0  0  0
  5 14  1  0  0  0  0
  5  4  1  0  0  0  0
  6 15  1  6  0  0  0
  6  5  1  0  0  0  0
  6  1  1  0  0  0  0
  9  3  1  0  0  0  0
 11  4  1  0  0  0  0
 13  5  1  0  0  0  0
 16 17  1  0  0  0  0
 16  6  1  0  0  0  0
 18 17  2  0  0  0  0
 19 18  1  0  0  0  0
 20 19  2  0  0  0  0
 20 27  1  0  0  0  0
 21 20  1  0  0  0  0
 22 21  2  0  0  0  0
 22 24  1  0  0  0  0
 23 22  1  0  0  0  0
 24 26  2  0  0  0  0
 25 24  1  0  0  0  0
 26 27  1  0  0  0  0
 27 16  2  0  0  0  0
 28 34  1  0  0  0  0
 28 29  1  0  0  0  0
 29 30  2  0  0  0  0
 29 35  1  0  0  0  0
 30  1  1  0  0  0  0
 31 30  1  0  0  0  0
 32 31  2  0  0  0  0
 33 32  1  0  0  0  0
 33 28  2  0  0  0  0
 36 32  1  0  0  0  0
M  END
>  <minimizedAffinity>
-5.26622343

$$$$
