
 OpenBabel03252507433D

 34 37  0  0  0  0  0  0  0  0999 V2000
   45.3090   34.4390   41.4250 C   0  0  0  0  0  0  0  0  0  0  0  0
   44.9010   35.2800   42.5050 C   0  0  0  0  0  0  0  0  0  0  0  0
   43.1820   35.7620   41.9820 S   0  0  0  0  0  0  0  0  0  0  0  0
   43.3400   34.7390   40.4070 C   0  0  0  0  0  0  0  0  0  0  0  0
   44.3900   34.3130   40.5080 N   0  0  0  0  0  0  0  0  0  0  0  0
   45.4770   35.5410   43.3800 H   0  0  0  0  0  0  0  0  0  0  0  0
   42.1280   34.8010   39.5780 C   0  0  0  0  0  0  0  0  0  0  0  0
   41.9890   35.4550   38.4100 N   0  0  0  0  0  0  0  0  0  0  0  0
   40.8570   35.4700   37.7060 C   0  0  0  0  0  3  0  0  0  0  0  0
   39.7560   34.8220   38.1190 N   0  0  0  0  0  0  0  0  0  0  0  0
   39.7930   34.1430   39.2660 C   0  0  0  0  0  0  0  0  0  0  0  0
   38.6650   33.4770   39.6960 C   0  0  0  0  0  3  0  0  0  0  0  0
   38.7090   32.7670   40.8970 C   0  0  0  0  0  0  0  0  0  0  0  0
   37.8030   32.2590   41.1950 H   0  0  0  0  0  0  0  0  0  0  0  0
   39.9060   32.7780   41.5960 C   0  0  0  0  0  0  0  0  0  0  0  0
   39.8110   32.1900   42.5140 H   0  0  0  0  0  0  0  0  0  0  0  0
   41.0170   33.4510   41.1470 C   0  0  0  0  0  3  0  0  0  0  0  0
   40.9810   34.1520   39.9650 C   0  0  0  0  0  0  0  0  0  0  0  0
   46.6480   33.8130   41.4270 C   0  0  0  0  0  0  0  0  0  0  0  0
   46.4840   32.7010   41.3310 H   0  0  0  0  0  0  0  0  0  0  0  0
   47.1480   33.9420   42.4100 H   0  0  0  0  0  0  0  0  0  0  0  0
   47.5560   34.2350   40.3340 C   0  0  0  0  0  0  0  0  0  0  0  0
   47.0160   34.6170   39.4730 H   0  0  0  0  0  0  0  0  0  0  0  0
   48.1380   35.1210   40.7310 H   0  0  0  0  0  0  0  0  0  0  0  0
   48.5780   33.2290   39.9740 C   0  0  0  0  0  0  0  0  0  0  0  0
   48.6520   32.8900   38.6040 C   0  0  0  0  0  0  0  0  0  0  0  0
   49.5850   31.9580   38.1850 C   0  0  0  0  0  0  0  0  0  0  0  0
   50.4040   31.4030   39.1340 N   0  0  0  0  0  0  0  0  0  0  0  0
   50.2970   31.7570   40.4340 C   0  0  0  0  0  0  0  0  0  0  0  0
   49.4010   32.6510   40.8370 N   0  0  0  0  0  0  0  0  0  0  0  0
   49.6490   31.6940   37.1490 H   0  0  0  0  0  0  0  0  0  0  0  0
   50.9820   31.2750   41.1400 H   0  0  0  0  0  0  0  0  0  0  0  0
   47.5460   33.6560   37.4200 S   0  0  0  0  0  0  0  0  0  0  0  0
   46.2960   32.9800   37.5400 H   0  0  0  0  0  0  0  0  0  0  0  0
  1 19  1  0  0  0  0
  1  2  2  0  0  0  0
  2  6  1  0  0  0  0
  3  2  1  0  0  0  0
  4  5  2  0  0  0  0
  4  3  1  0  0  0  0
  5  1  1  0  0  0  0
  7 18  1  0  0  0  0
  7  4  1  0  0  0  0
  8  7  2  0  0  0  0
  9 10  2  0  0  0  0
  9  8  1  0  0  0  0
 10 11  1  0  0  0  0
 11 12  2  0  0  0  0
 11 18  1  0  0  0  0
 12 13  1  0  0  0  0
 13 14  1  0  0  0  0
 13 15  2  0  0  0  0
 15 16  1  0  0  0  0
 17 15  1  0  0  0  0
 18 17  2  0  0  0  0
 19 21  1  0  0  0  0
 20 19  1  0  0  0  0
 22 24  1  0  0  0  0
 22 19  1  0  0  0  0
 23 22  1  0  0  0  0
 25 22  1  0  0  0  0
 25 30  1  0  0  0  0
 26 25  2  0  0  0  0
 27 26  1  0  0  0  0
 27 28  2  0  0  0  0
 28 29  1  0  0  0  0
 29 30  2  0  0  0  0
 29 32  1  0  0  0  0
 31 27  1  0  0  0  0
 33 34  1  0  0  0  0
 33 26  1  0  0  0  0
M  END
>  <minimizedAffinity>
-5.59431171

>  <minimizedRMSD>
2.82093811

$$$$
