
 OpenBabel03252507323D

 52 56  0  0  1  0  0  0  0  0999 V2000
   46.9500   32.7450   45.5680 C   0  0  0  0  0  0  0  0  0  0  0  0
   45.8880   33.4420   46.1260 C   0  0  0  0  0  0  0  0  0  0  0  0
   45.2010   34.4070   45.3530 C   0  0  0  0  0  0  0  0  0  0  0  0
   45.6590   34.5930   44.0500 N   0  0  0  0  0  0  0  0  0  0  0  0
   46.7040   33.8810   43.5700 C   0  0  0  0  0  0  0  0  0  0  0  0
   47.3310   32.9810   44.3120 N   0  0  0  0  0  0  0  0  0  0  0  0
   45.4060   33.4880   47.0780 H   0  0  0  0  0  0  0  0  0  0  0  0
   44.3790   35.0250   45.6020 H   0  0  0  0  0  0  0  0  0  0  0  0
   47.6040   31.7510   46.3940 C   0  0  2  0  0  0  0  0  0  0  0  0
   47.3690   30.3090   45.8450 C   0  0  0  0  0  0  0  0  0  0  0  0
   48.1880   29.3430   46.6280 C   0  0  0  0  0  0  0  0  0  0  0  0
   48.1770   29.5230   48.1070 C   0  0  0  0  0  0  0  0  0  0  0  0
   48.1650   30.8990   48.5420 C   0  0  0  0  0  0  0  0  0  0  0  0
   47.1640   31.7870   47.7750 C   0  0  2  0  0  0  0  0  0  0  0  0
   48.7100   31.8520   46.2850 H   0  0  0  0  0  0  0  0  0  0  0  0
   46.2990   30.0910   45.7990 H   0  0  0  0  0  0  0  0  0  0  0  0
   47.7310   30.3700   44.7980 H   0  0  0  0  0  0  0  0  0  0  0  0
   47.7490   28.3230   46.4320 H   0  0  0  0  0  0  0  0  0  0  0  0
   49.1790   29.3040   46.1370 H   0  0  0  0  0  0  0  0  0  0  0  0
   49.2920   29.2710   48.3270 H   0  0  0  0  0  0  0  0  0  0  0  0
   47.8110   28.7020   48.7260 H   0  0  0  0  0  0  0  0  0  0  0  0
   47.8430   30.9480   49.6240 H   0  0  0  0  0  0  0  0  0  0  0  0
   49.1150   31.4810   48.5210 H   0  0  0  0  0  0  0  0  0  0  0  0
   47.2740   32.7360   48.3020 H   0  0  0  0  0  0  0  0  0  0  0  0
   45.8300   31.1900   47.8900 N   0  0  0  0  0  0  0  0  0  0  0  0
   45.1440   30.6430   48.9870 C   0  0  0  0  0  0  0  0  0  0  0  0
   44.5910   31.3640   49.8950 O   0  0  0  0  0  0  0  0  0  0  0  0
   45.1000   29.2150   49.0090 N   0  0  0  0  0  0  0  0  0  0  0  0
   45.1910   31.0350   47.0220 H   0  0  0  0  0  0  0  0  0  0  0  0
   44.6080   28.6860   48.2410 H   0  0  0  0  0  0  0  0  0  0  0  0
   45.3580   28.3230   49.4890 H   0  0  0  0  0  0  0  0  0  0  0  0
   47.1510   34.1570   42.2090 C   0  0  0  0  0  0  0  0  0  0  0  0
   48.1880   34.9820   41.9350 C   0  0  0  0  0  0  0  0  0  0  0  0
   48.6280   35.2600   40.6570 C   0  0  0  0  0  0  0  0  0  0  0  0
   47.9390   34.6380   39.6380 C   0  0  0  0  0  0  0  0  0  0  0  0
   46.8660   33.7810   39.8820 C   0  0  0  0  0  0  0  0  0  0  0  0
   46.5430   33.5990   41.1760 N   0  0  0  0  0  0  0  0  0  0  0  0
   48.7140   35.4610   42.7490 H   0  0  0  0  0  0  0  0  0  0  0  0
   49.4560   35.9200   40.4400 H   0  0  0  0  0  0  0  0  0  0  0  0
   48.2810   34.8530   38.6410 H   0  0  0  0  0  0  0  0  0  0  0  0
   46.2610   33.2150   38.6910 C   0  0  0  0  0  0  0  0  0  0  0  0
   44.9580   32.8850   38.6560 N   0  0  0  0  0  0  0  0  0  0  0  0
   44.3020   32.3670   37.6370 C   0  0  0  0  0  0  0  0  0  0  0  0
   44.9420   32.1170   36.4800 N   0  0  0  0  0  0  0  0  0  0  0  0
   46.2710   32.4080   36.3870 C   0  0  0  0  0  0  0  0  0  0  0  0
   46.9480   32.1620   35.2130 C   0  0  0  0  0  0  0  0  0  0  0  0
   48.3080   32.4520   35.0940 C   0  0  0  0  0  0  0  0  0  0  0  0
   48.7230   32.2140   34.1260 H   0  0  0  0  0  0  0  0  0  0  0  0
   48.9270   33.0000   36.2240 C   0  0  0  0  0  0  0  0  0  0  0  0
   49.9820   33.2030   36.0720 H   0  0  0  0  0  0  0  0  0  0  0  0
   48.1950   33.2200   37.3620 C   0  0  0  0  0  0  0  0  0  0  0  0
   46.8730   32.9440   37.4950 C   0  0  0  0  0  0  0  0  0  0  0  0
  1  2  1  0  0  0  0
  1  9  1  0  0  0  0
  2  7  1  0  0  0  0
  3  8  1  0  0  0  0
  3  2  2  0  0  0  0
  4  3  1  0  0  0  0
  5  4  2  0  0  0  0
  5  6  1  0  0  0  0
  6  1  2  0  0  0  0
  9 15  1  6  0  0  0
  9 14  1  0  0  0  0
 10  9  1  0  0  0  0
 10 11  1  0  0  0  0
 11 12  1  0  0  0  0
 12 20  1  0  0  0  0
 12 13  1  0  0  0  0
 12 21  1  0  0  0  0
 13 22  1  0  0  0  0
 14 25  1  0  0  0  0
 14 24  1  1  0  0  0
 14 13  1  0  0  0  0
 16 10  1  0  0  0  0
 17 10  1  0  0  0  0
 18 11  1  0  0  0  0
 19 11  1  0  0  0  0
 23 13  1  0  0  0  0
 25 26  1  0  0  0  0
 26 28  1  0  0  0  0
 26 27  2  0  0  0  0
 28 31  1  0  0  0  0
 29 25  1  0  0  0  0
 30 28  1  0  0  0  0
 32  5  1  0  0  0  0
 33 32  1  0  0  0  0
 33 38  1  0  0  0  0
 34 33  2  0  0  0  0
 35 36  2  0  0  0  0
 35 34  1  0  0  0  0
 36 37  1  0  0  0  0
 37 32  2  0  0  0  0
 39 34  1  0  0  0  0
 40 35  1  0  0  0  0
 41 36  1  0  0  0  0
 42 41  1  0  0  0  0
 43 42  2  0  0  0  0
 44 43  1  0  0  0  0
 45 44  2  0  0  0  0
 45 52  1  0  0  0  0
 46 45  1  0  0  0  0
 47 46  2  0  0  0  0
 47 49  1  0  0  0  0
 48 47  1  0  0  0  0
 49 51  2  0  0  0  0
 50 49  1  0  0  0  0
 51 52  1  0  0  0  0
 52 41  2  0  0  0  0
M  END
>  <minimizedAffinity>
-7.02871656

>  <minimizedRMSD>
0.447966367

$$$$
