
 OpenBabel03252505073D

 46 50  0  0  1  0  0  0  0  0999 V2000
   44.5900   35.6070   44.6260 C   0  0  0  0  0  0  0  0  0  0  0  0
   45.2340   35.6000   43.3670 C   0  0  0  0  0  0  0  0  0  0  0  0
   46.2950   34.6770   43.1700 C   0  0  0  0  0  0  0  0  0  0  0  0
   46.6310   33.8550   44.1990 N   0  0  0  0  0  0  0  0  0  0  0  0
   45.9970   33.8900   45.3820 C   0  0  0  0  0  0  0  0  0  0  0  0
   44.9690   34.7700   45.6010 N   0  0  0  0  0  0  0  0  0  0  0  0
   43.7960   36.3240   44.7180 H   0  0  0  0  0  0  0  0  0  0  0  0
   44.9770   36.2430   42.5490 H   0  0  0  0  0  0  0  0  0  0  0  0
   46.4160   32.9750   46.4650 C   0  0  2  0  0  0  0  0  0  0  0  0
   46.9690   31.7550   45.7800 C   0  0  0  0  0  0  0  0  0  0  0  0
   46.0840   30.5700   45.8060 C   0  0  0  0  0  0  0  0  0  0  0  0
   45.7990   30.3050   47.2770 C   0  0  0  0  0  0  0  0  0  0  0  0
   45.0140   31.3740   47.8770 C   0  0  0  0  0  0  0  0  0  0  0  0
   45.3650   32.7460   47.4290 C   0  0  0  0  0  0  0  0  0  0  0  0
   47.2680   33.5110   46.9760 H   0  0  0  0  0  0  0  0  0  0  0  0
   47.2640   31.9520   44.7210 H   0  0  0  0  0  0  0  0  0  0  0  0
   47.9170   31.4760   46.2860 H   0  0  0  0  0  0  0  0  0  0  0  0
   45.1040   30.7570   45.3410 H   0  0  0  0  0  0  0  0  0  0  0  0
   46.6470   29.7180   45.3850 H   0  0  0  0  0  0  0  0  0  0  0  0
   45.1210   29.4160   47.2640 H   0  0  0  0  0  0  0  0  0  0  0  0
   46.6990   29.9940   47.8350 H   0  0  0  0  0  0  0  0  0  0  0  0
   44.2220   31.4640   48.5790 H   0  0  0  0  0  0  0  0  0  0  0  0
   44.6760   33.8740   47.9370 N   0  0  0  0  0  0  0  0  0  0  0  0
   45.1030   34.5420   48.6190 H   0  0  0  0  0  0  0  0  0  0  0  0
   43.6940   34.0060   47.5870 H   0  0  0  0  0  0  0  0  0  0  0  0
   46.9860   34.6460   41.8940 C   0  0  0  0  0  0  0  0  0  0  0  0
   48.1170   35.3760   41.7480 C   0  0  0  0  0  0  0  0  0  0  0  0
   48.7410   35.2950   40.4840 C   0  0  0  0  0  0  0  0  0  0  0  0
   48.1310   34.4900   39.5490 C   0  0  0  0  0  0  0  0  0  0  0  0
   46.9950   33.7570   39.6880 C   0  0  0  0  0  0  0  0  0  0  0  0
   46.4870   33.9090   40.9340 N   0  0  0  0  0  0  0  0  0  0  0  0
   48.5260   35.9790   42.5290 H   0  0  0  0  0  0  0  0  0  0  0  0
   49.6300   35.8530   40.3310 H   0  0  0  0  0  0  0  0  0  0  0  0
   48.6860   34.4920   38.6070 H   0  0  0  0  0  0  0  0  0  0  0  0
   46.5460   32.9840   38.5540 C   0  0  0  0  0  0  0  0  0  0  0  0
   46.7990   33.4280   37.3130 N   0  0  0  0  0  0  0  0  0  0  0  0
   46.4230   32.7810   36.2050 C   0  0  0  0  0  3  0  0  0  0  0  0
   45.7430   31.6060   36.2570 N   0  0  0  0  0  0  0  0  0  0  0  0
   45.4420   31.0780   37.4800 C   0  0  0  0  0  0  0  0  0  0  0  0
   44.7540   29.8900   37.5960 C   0  0  0  0  0  3  0  0  0  0  0  0
   44.4430   29.3490   38.8260 C   0  0  0  0  0  0  0  0  0  0  0  0
   43.9030   28.4130   38.7870 H   0  0  0  0  0  0  0  0  0  0  0  0
   44.8610   30.0660   39.9520 C   0  0  0  0  0  0  0  0  0  0  0  0
   44.5990   29.6080   40.8960 H   0  0  0  0  0  0  0  0  0  0  0  0
   45.5440   31.2490   39.7860 C   0  0  0  0  0  3  0  0  0  0  0  0
   45.8590   31.7960   38.5730 C   0  0  0  0  0  0  0  0  0  0  0  0
  1  7  1  0  0  0  0
  1  6  1  0  0  0  0
  2  1  2  0  0  0  0
  3  2  1  0  0  0  0
  3  4  2  0  0  0  0
  4  5  1  0  0  0  0
  5  6  2  0  0  0  0
  5  9  1  0  0  0  0
  8  2  1  0  0  0  0
  9 15  1  1  0  0  0
  9 14  1  0  0  0  0
 10 11  1  0  0  0  0
 10 17  1  0  0  0  0
 10  9  1  0  0  0  0
 11 12  1  0  0  0  0
 12 21  1  0  0  0  0
 12 13  1  0  0  0  0
 13 22  1  0  0  0  0
 14 13  2  0  0  0  0
 14 23  1  0  0  0  0
 16 10  1  0  0  0  0
 18 11  1  0  0  0  0
 19 11  1  0  0  0  0
 20 12  1  0  0  0  0
 23 24  1  0  0  0  0
 25 23  1  0  0  0  0
 26  3  1  0  0  0  0
 27 26  1  0  0  0  0
 27 32  1  0  0  0  0
 28 27  2  0  0  0  0
 29 30  2  0  0  0  0
 29 28  1  0  0  0  0
 30 31  1  0  0  0  0
 31 26  2  0  0  0  0
 33 28  1  0  0  0  0
 34 29  1  0  0  0  0
 35 46  1  0  0  0  0
 35 30  1  0  0  0  0
 36 35  2  0  0  0  0
 37 38  2  0  0  0  0
 37 36  1  0  0  0  0
 38 39  1  0  0  0  0
 39 40  2  0  0  0  0
 39 46  1  0  0  0  0
 40 41  1  0  0  0  0
 41 43  2  0  0  0  0
 42 41  1  0  0  0  0
 43 44  1  0  0  0  0
 45 43  1  0  0  0  0
 46 45  2  0  0  0  0
M  END
>  <minimizedAffinity>
-7.50367689

>  <minimizedRMSD>
0.0754231811

$$$$
