
 OpenBabel03242516253D

 46 51  0  0  0  0  0  0  0  0999 V2000
   49.7760   30.2130   49.4240 C   0  0  0  0  0  0  0  0  0  0  0  0
   50.0170   31.3850   50.0790 N   0  0  0  0  0  0  0  0  0  0  0  0
   50.6690   31.4510   51.2430 C   0  0  0  0  0  0  0  0  0  0  0  0
   51.1060   30.3070   51.7930 N   0  0  0  0  0  0  0  0  0  0  0  0
   50.9170   29.1090   51.2230 C   0  0  0  0  0  0  0  0  0  0  0  0
   51.3760   27.9240   51.7640 C   0  0  0  0  0  0  0  0  0  0  0  0
   51.1660   26.7190   51.1160 C   0  0  0  0  0  0  0  0  0  0  0  0
   50.4850   26.6410   49.8950 C   0  0  0  0  0  0  0  0  0  0  0  0
   50.0420   27.8510   49.3900 C   0  0  0  0  0  0  0  0  0  0  0  0
   50.2400   29.0560   50.0150 C   0  0  0  0  0  0  0  0  0  0  0  0
   50.8350   32.3940   51.7160 H   0  0  0  0  0  0  0  0  0  0  0  0
   51.8930   28.0030   52.6980 H   0  0  0  0  0  0  0  0  0  0  0  0
   51.5890   25.8690   51.6570 H   0  0  0  0  0  0  0  0  0  0  0  0
   50.4190   25.6400   49.5440 H   0  0  0  0  0  0  0  0  0  0  0  0
   49.2670   27.5360   48.1970 C   0  0  0  0  0  0  0  0  0  0  0  0
   47.9280   27.3900   47.9560 N   0  0  0  0  0  0  0  0  0  0  0  0
   47.5040   27.0960   46.6990 C   0  0  0  0  0  3  0  0  0  0  0  0
   48.3180   26.9320   45.6280 N   0  0  0  0  0  0  0  0  0  0  0  0
   49.6440   27.0680   45.8170 C   0  0  0  0  0  0  0  0  0  0  0  0
   50.4390   26.9170   44.7160 C   0  0  0  0  0  3  0  0  0  0  0  0
   51.7900   27.0620   44.8330 C   0  0  0  0  0  0  0  0  0  0  0  0
   52.4500   26.9560   43.9950 H   0  0  0  0  0  0  0  0  0  0  0  0
   52.3610   27.3620   46.0580 C   0  0  0  0  0  0  0  0  0  0  0  0
   53.4190   27.4870   46.1920 H   0  0  0  0  0  0  0  0  0  0  0  0
   51.4910   27.4960   47.1150 C   0  0  0  0  0  3  0  0  0  0  0  0
   50.1120   27.3670   47.0900 C   0  0  0  0  0  0  0  0  0  0  0  0
   48.9240   30.0960   47.8790 S   0  0  0  0  0  0  0  0  0  0  0  0
   46.0450   32.7330   46.8900 C   0  0  0  0  0  0  0  0  0  0  0  0
   47.1590   31.9470   46.9190 C   0  0  0  0  0  0  0  0  0  0  0  0
   47.4210   31.0680   47.9480 C   0  0  0  0  0  0  0  0  0  0  0  0
   46.5250   30.9560   49.0200 C   0  0  0  0  0  0  0  0  0  0  0  0
   45.4100   31.7220   49.0190 C   0  0  0  0  0  0  0  0  0  0  0  0
   45.1800   32.5950   47.9680 C   0  0  0  0  0  0  0  0  0  0  0  0
   47.8680   32.0180   46.0820 H   0  0  0  0  0  0  0  0  0  0  0  0
   46.7190   30.2810   49.8180 H   0  0  0  0  0  0  0  0  0  0  0  0
   44.6730   31.6850   49.8210 H   0  0  0  0  0  0  0  0  0  0  0  0
   44.2850   33.2010   47.9780 H   0  0  0  0  0  0  0  0  0  0  0  0
   44.5640   35.5050   45.0360 C   0  0  0  0  0  0  0  0  0  0  0  0
   45.2020   35.4540   43.7970 C   0  0  0  0  0  0  0  0  0  0  0  0
   46.1600   34.4530   43.5930 C   0  0  0  0  0  0  0  0  0  0  0  0
   46.4310   33.5730   44.6000 N   0  0  0  0  0  0  0  0  0  0  0  0
   45.7760   33.6610   45.8050 C   0  0  0  0  0  0  0  0  0  0  0  0
   44.8580   34.6210   46.0020 N   0  0  0  0  0  0  0  0  0  0  0  0
   43.8370   36.3070   45.1270 H   0  0  0  0  0  0  0  0  0  0  0  0
   45.0590   36.0990   42.9340 H   0  0  0  0  0  0  0  0  0  0  0  0
   46.7310   34.2920   42.6790 H   0  0  0  0  0  0  0  0  0  0  0  0
  1 10  2  0  0  0  0
  1  2  1  0  0  0  0
  2  3  2  0  0  0  0
  3 11  1  0  0  0  0
  3  4  1  0  0  0  0
  5  6  1  0  0  0  0
  5  4  2  0  0  0  0
  6 12  1  0  0  0  0
  7 13  1  0  0  0  0
  7  6  2  0  0  0  0
  8  7  1  0  0  0  0
  9  8  2  0  0  0  0
  9 10  1  0  0  0  0
 10  5  1  0  0  0  0
 14  8  1  0  0  0  0
 15  9  1  0  0  0  0
 16 15  1  0  0  0  0
 17 16  2  0  0  0  0
 18 19  2  0  0  0  0
 18 17  1  0  0  0  0
 19 26  1  0  0  0  0
 20 21  2  0  0  0  0
 20 19  1  0  0  0  0
 21 23  1  0  0  0  0
 22 21  1  0  0  0  0
 23 24  1  0  0  0  0
 23 25  2  0  0  0  0
 26 25  1  0  0  0  0
 26 15  2  0  0  0  0
 27 30  1  0  0  0  0
 27  1  1  0  0  0  0
 28 29  2  0  0  0  0
 28 33  1  0  0  0  0
 29 30  1  0  0  0  0
 30 31  2  0  0  0  0
 31 35  1  0  0  0  0
 32 31  1  0  0  0  0
 32 36  1  0  0  0  0
 33 37  1  0  0  0  0
 33 32  2  0  0  0  0
 34 29  1  0  0  0  0
 38 44  1  0  0  0  0
 38 43  1  0  0  0  0
 39 38  2  0  0  0  0
 40 39  1  0  0  0  0
 40 41  2  0  0  0  0
 41 42  1  0  0  0  0
 42 43  2  0  0  0  0
 42 28  1  0  0  0  0
 45 39  1  0  0  0  0
 46 40  1  0  0  0  0
M  END
>  <minimizedAffinity>
-6.64309263

>  <minimizedRMSD>
0.705591559

$$$$
