
 OpenBabel03252506573D

 41 46  0  0  0  0  0  0  0  0999 V2000
   47.2530   31.3890   45.0940 C   0  0  0  0  0  0  0  0  0  0  0  0
   46.9090   32.7260   45.0570 C   0  0  0  0  0  0  0  0  0  0  0  0
   46.2820   33.3570   46.1140 C   0  0  0  0  0  0  0  0  0  0  0  0
   45.9710   32.6370   47.2780 C   0  0  0  0  0  0  0  0  0  0  0  0
   45.3800   32.9100   48.4720 N   0  0  0  0  0  0  0  0  0  0  0  0
   45.3680   31.7690   49.2120 C   0  0  0  0  0  0  0  0  0  0  0  0
   45.9510   30.8100   48.4590 N   0  0  0  0  0  0  0  0  0  0  0  0
   46.3290   31.3100   47.2750 C   0  0  0  0  0  0  0  0  0  0  0  0
   46.9460   30.6630   46.2520 C   0  0  0  0  0  0  0  0  0  0  0  0
   47.7480   30.8890   44.2570 H   0  0  0  0  0  0  0  0  0  0  0  0
   46.0070   34.3990   46.0990 H   0  0  0  0  0  0  0  0  0  0  0  0
   45.0510   33.8700   48.6390 H   0  0  0  0  0  0  0  0  0  0  0  0
   44.9470   31.7490   50.1970 H   0  0  0  0  0  0  0  0  0  0  0  0
   46.6330   35.1920   42.3410 C   0  0  0  0  0  0  0  0  0  0  0  0
   47.8250   35.0070   41.6460 C   0  0  0  0  0  0  0  0  0  0  0  0
   48.7280   34.0320   42.1090 C   0  0  0  0  0  0  0  0  0  0  0  0
   48.3840   33.3150   43.2240 N   0  0  0  0  0  0  0  0  0  0  0  0
   47.2080   33.5240   43.8790 C   0  0  0  0  0  0  0  0  0  0  0  0
   46.3370   34.4550   43.4430 N   0  0  0  0  0  0  0  0  0  0  0  0
   45.9830   35.9510   41.9410 H   0  0  0  0  0  0  0  0  0  0  0  0
   48.1370   35.5390   40.7750 H   0  0  0  0  0  0  0  0  0  0  0  0
   49.6850   33.7770   41.6780 H   0  0  0  0  0  0  0  0  0  0  0  0
   47.2910   29.2350   46.3430 C   0  0  0  0  0  0  0  0  0  0  0  0
   48.4450   28.7300   46.8810 C   0  0  0  0  0  0  0  0  0  0  0  0
   48.2760   27.3450   46.7220 C   0  0  0  0  0  0  0  0  0  0  0  0
   47.0820   27.0800   46.1180 C   0  0  0  0  0  0  0  0  0  0  0  0
   46.5560   28.2660   45.9270 O   0  0  0  0  0  0  0  0  0  0  0  0
   49.2880   29.2370   47.3230 H   0  0  0  0  0  0  0  0  0  0  0  0
   49.0030   26.6780   47.0770 H   0  0  0  0  0  0  0  0  0  0  0  0
   46.3200   25.9270   45.6860 C   0  0  0  0  0  0  0  0  0  0  0  0
   46.8620   25.0530   44.7930 N   0  0  0  0  0  0  0  0  0  0  0  0
   46.2070   24.0390   44.2690 C   0  0  0  0  0  3  0  0  0  0  0  0
   44.9240   23.7590   44.5610 N   0  0  0  0  0  0  0  0  0  0  0  0
   44.2770   24.5700   45.4500 C   0  0  0  0  0  0  0  0  0  0  0  0
   42.9910   24.3270   45.8110 C   0  0  0  0  0  3  0  0  0  0  0  0
   42.3230   25.1100   46.7290 C   0  0  0  0  0  0  0  0  0  0  0  0
   41.3130   24.8140   46.9270 H   0  0  0  0  0  0  0  0  0  0  0  0
   43.0660   26.1670   47.2600 C   0  0  0  0  0  0  0  0  0  0  0  0
   42.5050   26.7670   47.9870 H   0  0  0  0  0  0  0  0  0  0  0  0
   44.3640   26.3790   46.8680 C   0  0  0  0  0  3  0  0  0  0  0  0
   45.0200   25.6040   45.9560 C   0  0  0  0  0  0  0  0  0  0  0  0
  1  9  1  0  0  0  0
  2  1  2  0  0  0  0
  2  3  1  0  0  0  0
  3  4  2  0  0  0  0
  4  5  1  0  0  0  0
  5 12  1  0  0  0  0
  5  6  1  0  0  0  0
  6 13  1  0  0  0  0
  7  6  2  0  0  0  0
  8  4  1  0  0  0  0
  8  7  1  0  0  0  0
  9 23  1  0  0  0  0
  9  8  2  0  0  0  0
 10  1  1  0  0  0  0
 11  3  1  0  0  0  0
 14 19  1  0  0  0  0
 15 16  1  0  0  0  0
 15 14  2  0  0  0  0
 16 17  2  0  0  0  0
 17 18  1  0  0  0  0
 18  2  1  0  0  0  0
 19 18  2  0  0  0  0
 20 14  1  0  0  0  0
 21 15  1  0  0  0  0
 22 16  1  0  0  0  0
 23 24  2  0  0  0  0
 24 28  1  0  0  0  0
 25 24  1  0  0  0  0
 25 29  1  0  0  0  0
 26 25  2  0  0  0  0
 27 26  1  0  0  0  0
 27 23  1  0  0  0  0
 30 41  1  0  0  0  0
 30 26  1  0  0  0  0
 31 30  2  0  0  0  0
 32 33  2  0  0  0  0
 32 31  1  0  0  0  0
 33 34  1  0  0  0  0
 34 35  2  0  0  0  0
 34 41  1  0  0  0  0
 35 36  1  0  0  0  0
 36 37  1  0  0  0  0
 36 38  2  0  0  0  0
 38 39  1  0  0  0  0
 40 38  1  0  0  0  0
 41 40  2  0  0  0  0
M  END
>  <minimizedAffinity>
-6.00650311

>  <minimizedRMSD>
0.736844361

$$$$
