
 OpenBabel03252500193D

 23 25  0  0  0  0  0  0  0  0999 V2000
   46.7910   34.7020   42.1200 C   0  0  0  0  0  0  0  0  0  0  0  0
   47.9590   35.3220   41.9070 N   0  0  0  0  0  0  0  0  0  0  0  0
   48.6270   35.2520   40.7580 C   0  0  0  0  0  3  0  0  0  0  0  0
   48.1790   34.5480   39.7050 N   0  0  0  0  0  0  0  0  0  0  0  0
   47.0100   33.8890   39.8210 C   0  0  0  0  0  0  0  0  0  0  0  0
   46.5340   33.1620   38.7540 C   0  0  0  0  0  3  0  0  0  0  0  0
   45.3450   32.4790   38.8440 C   0  0  0  0  0  0  0  0  0  0  0  0
   45.0500   31.9400   37.9670 H   0  0  0  0  0  0  0  0  0  0  0  0
   44.6510   32.5540   40.0440 C   0  0  0  0  0  0  0  0  0  0  0  0
   43.7180   32.0140   40.1030 H   0  0  0  0  0  0  0  0  0  0  0  0
   45.1730   33.2950   41.0800 C   0  0  0  0  0  3  0  0  0  0  0  0
   46.3580   33.9910   41.0280 C   0  0  0  0  0  0  0  0  0  0  0  0
   44.4980   36.1460   44.6230 C   0  0  0  0  0  0  0  0  0  0  0  0
   45.2480   35.9170   43.4730 C   0  0  0  0  0  0  0  0  0  0  0  0
   46.0820   34.7930   43.3800 C   0  0  0  0  0  0  0  0  0  0  0  0
   46.0410   34.0420   44.4820 N   0  0  0  0  0  0  0  0  0  0  0  0
   45.3450   34.2310   45.5840 C   0  0  0  0  0  0  0  0  0  0  0  0
   44.5510   35.3160   45.6530 N   0  0  0  0  0  0  0  0  0  0  0  0
   45.4110   33.3370   46.6710 N   0  0  0  0  0  0  0  0  0  0  0  0
   43.8570   37.0140   44.6940 H   0  0  0  0  0  0  0  0  0  0  0  0
   45.1480   36.6350   42.6910 H   0  0  0  0  0  0  0  0  0  0  0  0
   46.3270   32.8270   46.8020 H   0  0  0  0  0  0  0  0  0  0  0  0
   44.5630   33.2380   47.2700 H   0  0  0  0  0  0  0  0  0  0  0  0
  1 15  1  0  0  0  0
  2  1  1  0  0  0  0
  3  2  2  0  0  0  0
  4  5  2  0  0  0  0
  4  3  1  0  0  0  0
  5 12  1  0  0  0  0
  6  7  2  0  0  0  0
  6  5  1  0  0  0  0
  7  9  1  0  0  0  0
  8  7  1  0  0  0  0
  9 10  1  0  0  0  0
  9 11  2  0  0  0  0
 12 11  1  0  0  0  0
 12  1  2  0  0  0  0
 13 20  1  0  0  0  0
 13 18  1  0  0  0  0
 14 13  2  0  0  0  0
 15 14  1  0  0  0  0
 15 16  2  0  0  0  0
 16 17  1  0  0  0  0
 17 18  2  0  0  0  0
 17 19  1  0  0  0  0
 19 22  1  0  0  0  0
 19 23  1  0  0  0  0
 21 14  1  0  0  0  0
M  END
>  <minimizedAffinity>
-5.50896406

>  <minimizedRMSD>
0.856988132

$$$$
