
 OpenBabel03252500113D

 34 37  0  0  0  0  0  0  0  0999 V2000
   39.6090   31.0270   41.5850 Cl  0  0  0  0  0  0  0  0  0  0  0  0
   38.4310   30.9300   40.3270 C   0  0  0  0  0  0  0  0  0  0  0  0
   37.4740   29.9520   40.3420 C   0  0  0  0  0  0  0  0  0  0  0  0
   36.5020   29.8400   39.3390 C   0  0  0  0  0  0  0  0  0  0  0  0
   36.5720   30.7830   38.3300 C   0  0  0  0  0  0  0  0  0  0  0  0
   37.5300   31.7600   38.3160 C   0  0  0  0  0  0  0  0  0  0  0  0
   38.4670   31.8530   39.3010 C   0  0  0  0  0  0  0  0  0  0  0  0
   35.7900   29.0340   39.4410 H   0  0  0  0  0  0  0  0  0  0  0  0
   35.7790   30.6340   37.5820 H   0  0  0  0  0  0  0  0  0  0  0  0
   37.4610   32.4160   37.4680 H   0  0  0  0  0  0  0  0  0  0  0  0
   39.4850   32.9010   39.2580 C   0  0  0  0  0  0  0  0  0  0  0  0
   39.1550   34.0070   39.9860 N   0  0  0  0  0  0  0  0  0  0  0  0
   39.9710   35.0710   40.0630 C   0  0  0  0  0  3  0  0  0  0  0  0
   41.1570   35.0980   39.4230 N   0  0  0  0  0  0  0  0  0  0  0  0
   41.5130   34.0260   38.6970 C   0  0  0  0  0  0  0  0  0  0  0  0
   42.7090   33.9410   37.9930 C   0  0  0  0  0  3  0  0  0  0  0  0
   43.0310   32.8040   37.2500 C   0  0  0  0  0  0  0  0  0  0  0  0
   43.9950   32.8650   36.7490 H   0  0  0  0  0  0  0  0  0  0  0  0
   42.1580   31.7170   37.1930 C   0  0  0  0  0  0  0  0  0  0  0  0
   42.4820   30.8810   36.5980 H   0  0  0  0  0  0  0  0  0  0  0  0
   40.9560   31.7770   37.8870 C   0  0  0  0  0  3  0  0  0  0  0  0
   40.7040   32.9170   38.5930 C   0  0  0  0  0  0  0  0  0  0  0  0
   37.4120   28.4920   43.7350 C   0  0  0  0  0  0  0  0  0  0  0  0
   37.4180   27.1040   43.4640 C   0  0  0  0  0  0  0  0  0  0  0  0
   37.4440   26.6980   42.1380 C   0  0  0  0  0  0  0  0  0  0  0  0
   37.4620   27.6450   41.1610 N   0  0  0  0  0  0  0  0  0  0  0  0
   37.4550   28.9790   41.4480 C   0  0  0  0  0  0  0  0  0  0  0  0
   37.4310   29.3880   42.7230 N   0  0  0  0  0  0  0  0  0  0  0  0
   37.3950   28.7640   44.7760 H   0  0  0  0  0  0  0  0  0  0  0  0
   37.4040   26.3750   44.2390 H   0  0  0  0  0  0  0  0  0  0  0  0
   37.4550   25.2560   41.7340 C   0  0  0  0  0  0  0  0  0  0  0  0
   38.7280   24.7390   41.8170 F   0  0  0  0  0  0  0  0  0  0  0  0
   36.6220   24.5510   42.5990 F   0  0  0  0  0  0  0  0  0  0  0  0
   36.9680   25.1840   40.4570 F   0  0  0  0  0  0  0  0  0  0  0  0
  2  3  1  0  0  0  0
  2  1  1  0  0  0  0
  3 27  1  0  0  0  0
  4  8  1  0  0  0  0
  4  3  2  0  0  0  0
  5  4  1  0  0  0  0
  6  5  2  0  0  0  0
  6  7  1  0  0  0  0
  7  2  2  0  0  0  0
  9  5  1  0  0  0  0
 10  6  1  0  0  0  0
 11  7  1  0  0  0  0
 11 12  1  0  0  0  0
 12 13  2  0  0  0  0
 14 13  1  0  0  0  0
 15 14  2  0  0  0  0
 16 15  1  0  0  0  0
 17 16  2  0  0  0  0
 18 17  1  0  0  0  0
 19 17  1  0  0  0  0
 19 21  2  0  0  0  0
 20 19  1  0  0  0  0
 21 22  1  0  0  0  0
 22 15  1  0  0  0  0
 22 11  2  0  0  0  0
 23 29  1  0  0  0  0
 24 23  1  0  0  0  0
 24 30  1  0  0  0  0
 25 24  2  0  0  0  0
 26 27  2  0  0  0  0
 26 25  1  0  0  0  0
 27 28  1  0  0  0  0
 28 23  2  0  0  0  0
 31 32  1  0  0  0  0
 31 25  1  0  0  0  0
 31 33  1  0  0  0  0
 34 31  1  0  0  0  0
M  END
>  <minimizedAffinity>
-6.8379159

$$$$

 OpenBabel03252500113D

 34 37  0  0  0  0  0  0  0  0999 V2000
   39.9230   29.6010   40.1740 Cl  0  0  0  0  0  0  0  0  0  0  0  0
   38.6460   29.8510   39.0390 C   0  0  0  0  0  0  0  0  0  0  0  0
   37.5370   29.0500   39.0480 C   0  0  0  0  0  0  0  0  0  0  0  0
   36.4820   29.2210   38.1440 C   0  0  0  0  0  0  0  0  0  0  0  0
   36.6330   30.2530   37.2370 C   0  0  0  0  0  0  0  0  0  0  0  0
   37.7430   31.0540   37.2270 C   0  0  0  0  0  0  0  0  0  0  0  0
   38.7600   30.8720   38.1170 C   0  0  0  0  0  0  0  0  0  0  0  0
   35.6500   28.5370   38.2320 H   0  0  0  0  0  0  0  0  0  0  0  0
   35.7680   30.3280   36.5610 H   0  0  0  0  0  0  0  0  0  0  0  0
   37.7210   31.8090   36.4630 H   0  0  0  0  0  0  0  0  0  0  0  0
   39.9390   31.7360   38.0800 C   0  0  0  0  0  0  0  0  0  0  0  0
   40.8870   31.3200   37.1920 N   0  0  0  0  0  0  0  0  0  0  0  0
   42.0370   31.9900   37.0220 C   0  0  0  0  0  3  0  0  0  0  0  0
   42.3110   33.1100   37.7210 N   0  0  0  0  0  0  0  0  0  0  0  0
   41.4000   33.5480   38.6040 C   0  0  0  0  0  0  0  0  0  0  0  0
   41.5730   34.6870   39.3820 C   0  0  0  0  0  3  0  0  0  0  0  0
   40.5940   35.0990   40.2880 C   0  0  0  0  0  0  0  0  0  0  0  0
   40.8530   36.0050   40.8330 H   0  0  0  0  0  0  0  0  0  0  0  0
   39.4100   34.3750   40.4390 C   0  0  0  0  0  0  0  0  0  0  0  0
   38.7090   34.7610   41.1580 H   0  0  0  0  0  0  0  0  0  0  0  0
   39.2120   33.2330   39.6740 C   0  0  0  0  0  3  0  0  0  0  0  0
   40.2090   32.8870   38.8070 C   0  0  0  0  0  0  0  0  0  0  0  0
   37.3240   25.6940   40.5790 C   0  0  0  0  0  0  0  0  0  0  0  0
   37.2600   25.9980   41.9590 C   0  0  0  0  0  0  0  0  0  0  0  0
   37.2900   27.3330   42.3360 C   0  0  0  0  0  0  0  0  0  0  0  0
   37.3790   28.2860   41.3700 N   0  0  0  0  0  0  0  0  0  0  0  0
   37.4400   27.9670   40.0440 C   0  0  0  0  0  0  0  0  0  0  0  0
   37.4120   26.6840   39.6640 N   0  0  0  0  0  0  0  0  0  0  0  0
   37.2960   24.6480   40.3300 H   0  0  0  0  0  0  0  0  0  0  0  0
   37.1910   25.2410   42.7040 H   0  0  0  0  0  0  0  0  0  0  0  0
   37.2260   27.7710   43.7670 C   0  0  0  0  0  0  0  0  0  0  0  0
   37.2560   29.1440   43.8540 F   0  0  0  0  0  0  0  0  0  0  0  0
   36.0320   27.3080   44.3150 F   0  0  0  0  0  0  0  0  0  0  0  0
   38.2880   27.2030   44.4180 F   0  0  0  0  0  0  0  0  0  0  0  0
  2  3  1  0  0  0  0
  2  1  1  0  0  0  0
  3 27  1  0  0  0  0
  4  8  1  0  0  0  0
  4  3  2  0  0  0  0
  5  4  1  0  0  0  0
  6  5  2  0  0  0  0
  6  7  1  0  0  0  0
  7  2  2  0  0  0  0
  9  5  1  0  0  0  0
 10  6  1  0  0  0  0
 11  7  1  0  0  0  0
 11 22  1  0  0  0  0
 12 11  2  0  0  0  0
 13 12  1  0  0  0  0
 13 14  2  0  0  0  0
 14 15  1  0  0  0  0
 15 22  2  0  0  0  0
 15 16  1  0  0  0  0
 16 17  2  0  0  0  0
 17 19  1  0  0  0  0
 17 18  1  0  0  0  0
 19 20  1  0  0  0  0
 21 19  2  0  0  0  0
 22 21  1  0  0  0  0
 23 24  1  0  0  0  0
 24 25  2  0  0  0  0
 24 30  1  0  0  0  0
 25 31  1  0  0  0  0
 26 25  1  0  0  0  0
 27 26  2  0  0  0  0
 28 27  1  0  0  0  0
 28 23  2  0  0  0  0
 29 23  1  0  0  0  0
 31 32  1  0  0  0  0
 31 33  1  0  0  0  0
 31 34  1  0  0  0  0
M  END
>  <minimizedAffinity>
-6.78823996

$$$$

 OpenBabel03252500113D

 34 37  0  0  0  0  0  0  0  0999 V2000
   40.7250   30.2620   39.6810 Cl  0  0  0  0  0  0  0  0  0  0  0  0
   39.5400   31.5090   39.8300 C   0  0  0  0  0  0  0  0  0  0  0  0
   38.2590   31.2120   40.2080 C   0  0  0  0  0  0  0  0  0  0  0  0
   37.2700   32.1950   40.3390 C   0  0  0  0  0  0  0  0  0  0  0  0
   37.6700   33.4880   40.0600 C   0  0  0  0  0  0  0  0  0  0  0  0
   38.9520   33.7840   39.6810 C   0  0  0  0  0  0  0  0  0  0  0  0
   39.9010   32.8130   39.5600 C   0  0  0  0  0  0  0  0  0  0  0  0
   36.2890   31.8600   40.6440 H   0  0  0  0  0  0  0  0  0  0  0  0
   36.8450   34.2040   40.1850 H   0  0  0  0  0  0  0  0  0  0  0  0
   39.1130   34.8290   39.4930 H   0  0  0  0  0  0  0  0  0  0  0  0
   41.2600   33.1550   39.1440 C   0  0  0  0  0  0  0  0  0  0  0  0
   41.3980   33.2840   37.7930 N   0  0  0  0  0  0  0  0  0  0  0  0
   42.5750   33.5960   37.2300 C   0  0  0  0  0  3  0  0  0  0  0  0
   43.6810   33.7970   37.9730 N   0  0  0  0  0  0  0  0  0  0  0  0
   43.5830   33.6780   39.3070 C   0  0  0  0  0  0  0  0  0  0  0  0
   44.6540   33.8600   40.1730 C   0  0  0  0  0  3  0  0  0  0  0  0
   44.4990   33.7210   41.5540 C   0  0  0  0  0  0  0  0  0  0  0  0
   45.4140   33.8910   42.1190 H   0  0  0  0  0  0  0  0  0  0  0  0
   43.2580   33.3960   42.1040 C   0  0  0  0  0  0  0  0  0  0  0  0
   43.2250   33.3080   43.1760 H   0  0  0  0  0  0  0  0  0  0  0  0
   42.1710   33.2080   41.2600 C   0  0  0  0  0  3  0  0  0  0  0  0
   42.3930   33.3590   39.9220 C   0  0  0  0  0  0  0  0  0  0  0  0
   37.3470   27.6600   39.7620 C   0  0  0  0  0  0  0  0  0  0  0  0
   37.2320   27.2090   41.0970 C   0  0  0  0  0  0  0  0  0  0  0  0
   37.4660   28.1220   42.1160 C   0  0  0  0  0  0  0  0  0  0  0  0
   37.7930   29.4010   41.7900 N   0  0  0  0  0  0  0  0  0  0  0  0
   37.8980   29.8110   40.4920 C   0  0  0  0  0  0  0  0  0  0  0  0
   37.6760   28.9430   39.4980 N   0  0  0  0  0  0  0  0  0  0  0  0
   37.1560   26.9210   39.0030 H   0  0  0  0  0  0  0  0  0  0  0  0
   36.9750   26.2050   41.3380 H   0  0  0  0  0  0  0  0  0  0  0  0
   37.3700   27.7580   43.5660 C   0  0  0  0  0  0  0  0  0  0  0  0
   38.4680   27.0250   43.9550 F   0  0  0  0  0  0  0  0  0  0  0  0
   37.3220   28.9330   44.3120 F   0  0  0  0  0  0  0  0  0  0  0  0
   36.2110   27.0500   43.7360 F   0  0  0  0  0  0  0  0  0  0  0  0
  1  2  1  0  0  0  0
  2  3  1  0  0  0  0
  3  4  2  0  0  0  0
  3 27  1  0  0  0  0
  4  8  1  0  0  0  0
  5  9  1  0  0  0  0
  5  4  1  0  0  0  0
  6  5  2  0  0  0  0
  7  6  1  0  0  0  0
  7  2  2  0  0  0  0
 10  6  1  0  0  0  0
 11  7  1  0  0  0  0
 11 22  1  0  0  0  0
 12 11  2  0  0  0  0
 13 12  1  0  0  0  0
 13 14  2  0  0  0  0
 14 15  1  0  0  0  0
 15 22  2  0  0  0  0
 15 16  1  0  0  0  0
 16 17  2  0  0  0  0
 17 19  1  0  0  0  0
 17 18  1  0  0  0  0
 19 20  1  0  0  0  0
 21 19  2  0  0  0  0
 22 21  1  0  0  0  0
 23 24  1  0  0  0  0
 24 30  1  0  0  0  0
 24 25  2  0  0  0  0
 25 31  1  0  0  0  0
 26 25  1  0  0  0  0
 27 26  2  0  0  0  0
 28 23  2  0  0  0  0
 28 27  1  0  0  0  0
 29 23  1  0  0  0  0
 31 34  1  0  0  0  0
 31 32  1  0  0  0  0
 31 33  1  0  0  0  0
M  END
>  <minimizedAffinity>
-6.58561277

$$$$

 OpenBabel03252500113D

 34 37  0  0  0  0  0  0  0  0999 V2000
   39.4440   29.7170   40.8100 Cl  0  0  0  0  0  0  0  0  0  0  0  0
   38.1520   29.7920   39.6680 C   0  0  0  0  0  0  0  0  0  0  0  0
   37.0550   28.9840   39.8010 C   0  0  0  0  0  0  0  0  0  0  0  0
   35.9880   29.0150   38.8950 C   0  0  0  0  0  0  0  0  0  0  0  0
   36.1130   29.9140   37.8530 C   0  0  0  0  0  0  0  0  0  0  0  0
   37.2110   30.7220   37.7200 C   0  0  0  0  0  0  0  0  0  0  0  0
   38.2400   30.6780   38.6130 C   0  0  0  0  0  0  0  0  0  0  0  0
   35.1680   28.3380   39.0870 H   0  0  0  0  0  0  0  0  0  0  0  0
   35.2400   29.8840   37.1850 H   0  0  0  0  0  0  0  0  0  0  0  0
   37.1690   31.3640   36.8600 H   0  0  0  0  0  0  0  0  0  0  0  0
   39.4040   31.5450   38.4430 C   0  0  0  0  0  0  0  0  0  0  0  0
   40.3160   31.0590   37.5530 N   0  0  0  0  0  0  0  0  0  0  0  0
   41.4480   31.7210   37.2690 C   0  0  0  0  0  3  0  0  0  0  0  0
   41.7400   32.9010   37.8510 N   0  0  0  0  0  0  0  0  0  0  0  0
   40.8650   33.4090   38.7330 C   0  0  0  0  0  0  0  0  0  0  0  0
   41.0600   34.6150   39.3970 C   0  0  0  0  0  3  0  0  0  0  0  0
   40.1190   35.0980   40.3080 C   0  0  0  0  0  0  0  0  0  0  0  0
   40.3910   36.0520   40.7570 H   0  0  0  0  0  0  0  0  0  0  0  0
   38.9520   34.3820   40.5790 C   0  0  0  0  0  0  0  0  0  0  0  0
   38.2800   34.8240   41.2930 H   0  0  0  0  0  0  0  0  0  0  0  0
   38.7340   33.1730   39.9290 C   0  0  0  0  0  3  0  0  0  0  0  0
   39.6940   32.7590   39.0510 C   0  0  0  0  0  0  0  0  0  0  0  0
   36.5520   27.6050   43.1910 C   0  0  0  0  0  0  0  0  0  0  0  0
   36.8720   26.2390   43.0100 C   0  0  0  0  0  0  0  0  0  0  0  0
   37.2520   25.8210   41.7430 C   0  0  0  0  0  0  0  0  0  0  0  0
   37.3000   26.7340   40.7360 N   0  0  0  0  0  0  0  0  0  0  0  0
   36.9850   28.0470   40.9370 C   0  0  0  0  0  0  0  0  0  0  0  0
   36.6170   28.4670   42.1530 N   0  0  0  0  0  0  0  0  0  0  0  0
   36.2650   27.8880   44.1890 H   0  0  0  0  0  0  0  0  0  0  0  0
   36.8310   25.5360   43.8070 H   0  0  0  0  0  0  0  0  0  0  0  0
   37.6170   24.4000   41.4360 C   0  0  0  0  0  0  0  0  0  0  0  0
   36.4940   23.6720   41.1150 F   0  0  0  0  0  0  0  0  0  0  0  0
   38.4870   24.3960   40.3480 F   0  0  0  0  0  0  0  0  0  0  0  0
   38.2470   23.8910   42.5380 F   0  0  0  0  0  0  0  0  0  0  0  0
  2  3  1  0  0  0  0
  2  1  1  0  0  0  0
  3 27  1  0  0  0  0
  4  8  1  0  0  0  0
  4  3  2  0  0  0  0
  5  4  1  0  0  0  0
  6  5  2  0  0  0  0
  6  7  1  0  0  0  0
  7  2  2  0  0  0  0
  9  5  1  0  0  0  0
 10  6  1  0  0  0  0
 11  7  1  0  0  0  0
 11 22  1  0  0  0  0
 12 11  2  0  0  0  0
 13 12  1  0  0  0  0
 13 14  2  0  0  0  0
 14 15  1  0  0  0  0
 15 22  2  0  0  0  0
 15 16  1  0  0  0  0
 16 17  2  0  0  0  0
 17 19  1  0  0  0  0
 17 18  1  0  0  0  0
 19 20  1  0  0  0  0
 21 19  2  0  0  0  0
 22 21  1  0  0  0  0
 23 29  1  0  0  0  0
 24 23  1  0  0  0  0
 24 30  1  0  0  0  0
 25 24  2  0  0  0  0
 26 27  2  0  0  0  0
 26 25  1  0  0  0  0
 27 28  1  0  0  0  0
 28 23  2  0  0  0  0
 31 25  1  0  0  0  0
 31 34  1  0  0  0  0
 32 31  1  0  0  0  0
 33 31  1  0  0  0  0
M  END
>  <minimizedAffinity>
-6.52379608

$$$$

 OpenBabel03252500113D

 34 37  0  0  0  0  0  0  0  0999 V2000
   40.7180   30.2910   40.7500 Cl  0  0  0  0  0  0  0  0  0  0  0  0
   39.5840   31.5450   40.4020 C   0  0  0  0  0  0  0  0  0  0  0  0
   38.2410   31.2830   40.3710 C   0  0  0  0  0  0  0  0  0  0  0  0
   37.2910   32.2730   40.0920 C   0  0  0  0  0  0  0  0  0  0  0  0
   37.7970   33.5360   39.8470 C   0  0  0  0  0  0  0  0  0  0  0  0
   39.1400   33.7980   39.8780 C   0  0  0  0  0  0  0  0  0  0  0  0
   40.0500   32.8200   40.1520 C   0  0  0  0  0  0  0  0  0  0  0  0
   36.2550   31.9660   40.0900 H   0  0  0  0  0  0  0  0  0  0  0  0
   36.9950   34.2600   39.6380 H   0  0  0  0  0  0  0  0  0  0  0  0
   39.3830   34.8220   39.6630 H   0  0  0  0  0  0  0  0  0  0  0  0
   41.4790   33.1240   40.1700 C   0  0  0  0  0  0  0  0  0  0  0  0
   41.8930   33.7160   41.3280 N   0  0  0  0  0  0  0  0  0  0  0  0
   43.1740   34.0650   41.5240 C   0  0  0  0  0  3  0  0  0  0  0  0
   44.1160   33.8490   40.5840 N   0  0  0  0  0  0  0  0  0  0  0  0
   43.7440   33.2690   39.4320 C   0  0  0  0  0  0  0  0  0  0  0  0
   44.6250   32.9980   38.3910 C   0  0  0  0  0  3  0  0  0  0  0  0
   44.1860   32.3950   37.2110 C   0  0  0  0  0  0  0  0  0  0  0  0
   44.9750   32.2380   36.4770 H   0  0  0  0  0  0  0  0  0  0  0  0
   42.8450   32.0450   37.0430 C   0  0  0  0  0  0  0  0  0  0  0  0
   42.5910   31.5850   36.1040 H   0  0  0  0  0  0  0  0  0  0  0  0
   41.9440   32.3050   38.0670 C   0  0  0  0  0  3  0  0  0  0  0  0
   42.4400   32.8970   39.1930 C   0  0  0  0  0  0  0  0  0  0  0  0
   37.0120   27.8320   39.8920 C   0  0  0  0  0  0  0  0  0  0  0  0
   36.8970   27.3670   41.2220 C   0  0  0  0  0  0  0  0  0  0  0  0
   37.2380   28.2360   42.2490 C   0  0  0  0  0  0  0  0  0  0  0  0
   37.6650   29.4890   41.9350 N   0  0  0  0  0  0  0  0  0  0  0  0
   37.7680   29.9130   40.6420 C   0  0  0  0  0  0  0  0  0  0  0  0
   37.4430   29.0870   39.6400 N   0  0  0  0  0  0  0  0  0  0  0  0
   36.7360   27.1280   39.1260 H   0  0  0  0  0  0  0  0  0  0  0  0
   36.5610   26.3850   41.4540 H   0  0  0  0  0  0  0  0  0  0  0  0
   37.1530   27.8530   43.6950 C   0  0  0  0  0  0  0  0  0  0  0  0
   35.9900   27.1600   43.9440 F   0  0  0  0  0  0  0  0  0  0  0  0
   38.2400   27.0380   43.9980 F   0  0  0  0  0  0  0  0  0  0  0  0
   37.2160   29.0070   44.4290 F   0  0  0  0  0  0  0  0  0  0  0  0
  2  1  1  0  0  0  0
  3  2  1  0  0  0  0
  3 27  1  0  0  0  0
  4  3  2  0  0  0  0
  5  6  2  0  0  0  0
  5  4  1  0  0  0  0
  6  7  1  0  0  0  0
  7 11  1  0  0  0  0
  7  2  2  0  0  0  0
  8  4  1  0  0  0  0
  9  5  1  0  0  0  0
 10  6  1  0  0  0  0
 11 12  1  0  0  0  0
 12 13  2  0  0  0  0
 14 13  1  0  0  0  0
 15 14  2  0  0  0  0
 16 15  1  0  0  0  0
 17 16  2  0  0  0  0
 18 17  1  0  0  0  0
 19 17  1  0  0  0  0
 19 21  2  0  0  0  0
 20 19  1  0  0  0  0
 21 22  1  0  0  0  0
 22 15  1  0  0  0  0
 22 11  2  0  0  0  0
 23 24  1  0  0  0  0
 24 30  1  0  0  0  0
 24 25  2  0  0  0  0
 25 31  1  0  0  0  0
 26 25  1  0  0  0  0
 27 26  2  0  0  0  0
 28 23  2  0  0  0  0
 28 27  1  0  0  0  0
 29 23  1  0  0  0  0
 31 32  1  0  0  0  0
 31 33  1  0  0  0  0
 31 34  1  0  0  0  0
M  END
>  <minimizedAffinity>
-6.51969576

$$$$

 OpenBabel03252500113D

 34 37  0  0  0  0  0  0  0  0999 V2000
   38.6330   28.8470   39.2840 Cl  0  0  0  0  0  0  0  0  0  0  0  0
   38.1100   28.6570   40.9190 C   0  0  0  0  0  0  0  0  0  0  0  0
   38.5520   29.5080   41.8960 C   0  0  0  0  0  0  0  0  0  0  0  0
   38.1520   29.3860   43.2320 C   0  0  0  0  0  0  0  0  0  0  0  0
   37.2800   28.3470   43.5030 C   0  0  0  0  0  0  0  0  0  0  0  0
   36.8390   27.4970   42.5260 C   0  0  0  0  0  0  0  0  0  0  0  0
   37.2400   27.6320   41.2300 C   0  0  0  0  0  0  0  0  0  0  0  0
   38.5560   30.1060   43.9280 H   0  0  0  0  0  0  0  0  0  0  0  0
   37.0090   28.3140   44.5690 H   0  0  0  0  0  0  0  0  0  0  0  0
   36.1710   26.7370   42.8870 H   0  0  0  0  0  0  0  0  0  0  0  0
   36.7610   26.7050   40.2060 C   0  0  0  0  0  0  0  0  0  0  0  0
   36.0160   27.3080   39.2350 N   0  0  0  0  0  0  0  0  0  0  0  0
   35.4940   26.6120   38.2120 C   0  0  0  0  0  3  0  0  0  0  0  0
   35.6800   25.2830   38.0960 N   0  0  0  0  0  0  0  0  0  0  0  0
   36.4080   24.6560   39.0350 C   0  0  0  0  0  0  0  0  0  0  0  0
   36.6630   23.2900   39.0210 C   0  0  0  0  0  3  0  0  0  0  0  0
   37.4250   22.6870   40.0240 C   0  0  0  0  0  0  0  0  0  0  0  0
   37.5510   21.6140   39.8950 H   0  0  0  0  0  0  0  0  0  0  0  0
   37.9520   23.4420   41.0730 C   0  0  0  0  0  0  0  0  0  0  0  0
   38.5260   22.9010   41.8040 H   0  0  0  0  0  0  0  0  0  0  0  0
   37.7100   24.8100   41.1100 C   0  0  0  0  0  3  0  0  0  0  0  0
   36.9590   25.3350   40.0990 C   0  0  0  0  0  0  0  0  0  0  0  0
   41.6530   31.4280   41.3090 C   0  0  0  0  0  0  0  0  0  0  0  0
   41.1550   32.6690   40.8480 C   0  0  0  0  0  0  0  0  0  0  0  0
   39.7800   32.8240   40.7490 C   0  0  0  0  0  0  0  0  0  0  0  0
   38.9750   31.7840   41.0970 N   0  0  0  0  0  0  0  0  0  0  0  0
   39.4810   30.5950   41.5380 C   0  0  0  0  0  0  0  0  0  0  0  0
   40.8050   30.4290   41.6390 N   0  0  0  0  0  0  0  0  0  0  0  0
   42.7250   31.3500   41.3730 H   0  0  0  0  0  0  0  0  0  0  0  0
   41.7970   33.4740   40.5800 H   0  0  0  0  0  0  0  0  0  0  0  0
   39.1410   34.0940   40.2770 C   0  0  0  0  0  0  0  0  0  0  0  0
   39.9940   34.7850   39.4470 F   0  0  0  0  0  0  0  0  0  0  0  0
   37.9860   33.7670   39.5700 F   0  0  0  0  0  0  0  0  0  0  0  0
   38.8170   34.8270   41.3860 F   0  0  0  0  0  0  0  0  0  0  0  0
  1  2  1  0  0  0  0
  2  7  2  0  0  0  0
  2  3  1  0  0  0  0
  3  4  2  0  0  0  0
  4  5  1  0  0  0  0
  4  8  1  0  0  0  0
  5  9  1  0  0  0  0
  6 10  1  0  0  0  0
  6  5  2  0  0  0  0
  7  6  1  0  0  0  0
 11  7  1  0  0  0  0
 12 11  2  0  0  0  0
 13 12  1  0  0  0  0
 14 13  2  0  0  0  0
 14 15  1  0  0  0  0
 15 22  1  0  0  0  0
 16 15  2  0  0  0  0
 16 17  1  0  0  0  0
 17 19  2  0  0  0  0
 18 17  1  0  0  0  0
 19 21  1  0  0  0  0
 19 20  1  0  0  0  0
 22 11  1  0  0  0  0
 22 21  2  0  0  0  0
 23 29  1  0  0  0  0
 23 28  1  0  0  0  0
 24 23  2  0  0  0  0
 25 24  1  0  0  0  0
 25 26  2  0  0  0  0
 26 27  1  0  0  0  0
 27 28  2  0  0  0  0
 27  3  1  0  0  0  0
 30 24  1  0  0  0  0
 31 25  1  0  0  0  0
 31 34  1  0  0  0  0
 32 31  1  0  0  0  0
 33 31  1  0  0  0  0
M  END
>  <minimizedAffinity>
-6.41866827

$$$$

 OpenBabel03252500113D

 34 37  0  0  0  0  0  0  0  0999 V2000
   40.5100   30.1410   39.9250 Cl  0  0  0  0  0  0  0  0  0  0  0  0
   39.2380   31.3070   39.8560 C   0  0  0  0  0  0  0  0  0  0  0  0
   39.5200   32.6400   39.7290 C   0  0  0  0  0  0  0  0  0  0  0  0
   38.5170   33.6150   39.6700 C   0  0  0  0  0  0  0  0  0  0  0  0
   37.2200   33.1450   39.7510 C   0  0  0  0  0  0  0  0  0  0  0  0
   36.9380   31.8110   39.8800 C   0  0  0  0  0  0  0  0  0  0  0  0
   37.9290   30.8760   39.9340 C   0  0  0  0  0  0  0  0  0  0  0  0
   38.8420   34.6410   39.5690 H   0  0  0  0  0  0  0  0  0  0  0  0
   36.4880   33.9640   39.6980 H   0  0  0  0  0  0  0  0  0  0  0  0
   35.8870   31.5980   39.9360 H   0  0  0  0  0  0  0  0  0  0  0  0
   37.6020   29.4600   40.0800 C   0  0  0  0  0  0  0  0  0  0  0  0
   37.4040   28.8240   38.8890 N   0  0  0  0  0  0  0  0  0  0  0  0
   37.0960   27.5190   38.8290 C   0  0  0  0  0  3  0  0  0  0  0  0
   36.9660   26.7720   39.9430 N   0  0  0  0  0  0  0  0  0  0  0  0
   37.1540   27.3650   41.1330 C   0  0  0  0  0  0  0  0  0  0  0  0
   37.0440   26.6990   42.3470 C   0  0  0  0  0  3  0  0  0  0  0  0
   37.2470   27.3640   43.5580 C   0  0  0  0  0  0  0  0  0  0  0  0
   37.1330   26.7270   44.4340 H   0  0  0  0  0  0  0  0  0  0  0  0
   37.5660   28.7220   43.5820 C   0  0  0  0  0  0  0  0  0  0  0  0
   37.7050   29.1580   44.5560 H   0  0  0  0  0  0  0  0  0  0  0  0
   37.6800   29.4120   42.3820 C   0  0  0  0  0  3  0  0  0  0  0  0
   37.4700   28.7020   41.2360 C   0  0  0  0  0  0  0  0  0  0  0  0
   42.8110   33.6550   38.3910 C   0  0  0  0  0  0  0  0  0  0  0  0
   43.5550   33.8890   39.5700 C   0  0  0  0  0  0  0  0  0  0  0  0
   42.9220   33.6960   40.7900 C   0  0  0  0  0  0  0  0  0  0  0  0
   41.6230   33.2930   40.8000 N   0  0  0  0  0  0  0  0  0  0  0  0
   40.9270   33.0740   39.6470 C   0  0  0  0  0  0  0  0  0  0  0  0
   41.5220   33.2550   38.4620 N   0  0  0  0  0  0  0  0  0  0  0  0
   43.3390   33.8130   37.4670 H   0  0  0  0  0  0  0  0  0  0  0  0
   44.5710   34.2040   39.5470 H   0  0  0  0  0  0  0  0  0  0  0  0
   43.6130   33.9110   42.1020 C   0  0  0  0  0  0  0  0  0  0  0  0
   43.3600   32.8650   42.9590 F   0  0  0  0  0  0  0  0  0  0  0  0
   44.9840   33.9860   41.8700 F   0  0  0  0  0  0  0  0  0  0  0  0
   43.1610   35.0980   42.6130 F   0  0  0  0  0  0  0  0  0  0  0  0
  2  1  1  0  0  0  0
  2  7  1  0  0  0  0
  3  2  2  0  0  0  0
  4  3  1  0  0  0  0
  4  5  2  0  0  0  0
  5  6  1  0  0  0  0
  6  7  2  0  0  0  0
  6 10  1  0  0  0  0
  7 11  1  0  0  0  0
  8  4  1  0  0  0  0
  9  5  1  0  0  0  0
 11 22  1  0  0  0  0
 12 11  2  0  0  0  0
 13 12  1  0  0  0  0
 13 14  2  0  0  0  0
 14 15  1  0  0  0  0
 15 22  2  0  0  0  0
 15 16  1  0  0  0  0
 16 17  2  0  0  0  0
 17 19  1  0  0  0  0
 17 18  1  0  0  0  0
 19 20  1  0  0  0  0
 21 19  2  0  0  0  0
 22 21  1  0  0  0  0
 23 28  2  0  0  0  0
 23 24  1  0  0  0  0
 24 25  2  0  0  0  0
 25 26  1  0  0  0  0
 25 31  1  0  0  0  0
 27  3  1  0  0  0  0
 27 26  2  0  0  0  0
 28 27  1  0  0  0  0
 29 23  1  0  0  0  0
 30 24  1  0  0  0  0
 31 34  1  0  0  0  0
 31 32  1  0  0  0  0
 33 31  1  0  0  0  0
M  END
>  <minimizedAffinity>
-6.41169596

$$$$

 OpenBabel03252500113D

 34 37  0  0  0  0  0  0  0  0999 V2000
   39.8780   28.7080   39.5860 Cl  0  0  0  0  0  0  0  0  0  0  0  0
   38.4400   29.4810   40.1480 C   0  0  0  0  0  0  0  0  0  0  0  0
   38.2680   30.8300   39.9960 C   0  0  0  0  0  0  0  0  0  0  0  0
   37.1170   31.4920   40.4400 C   0  0  0  0  0  0  0  0  0  0  0  0
   36.1630   30.6950   41.0440 C   0  0  0  0  0  0  0  0  0  0  0  0
   36.3360   29.3460   41.1970 C   0  0  0  0  0  0  0  0  0  0  0  0
   37.4640   28.7180   40.7570 C   0  0  0  0  0  0  0  0  0  0  0  0
   37.0760   32.5590   40.2730 H   0  0  0  0  0  0  0  0  0  0  0  0
   35.2890   31.2820   41.3640 H   0  0  0  0  0  0  0  0  0  0  0  0
   35.5140   28.8610   41.6880 H   0  0  0  0  0  0  0  0  0  0  0  0
   37.6280   27.2780   40.9400 C   0  0  0  0  0  0  0  0  0  0  0  0
   36.9160   26.5330   40.0450 N   0  0  0  0  0  0  0  0  0  0  0  0
   36.9450   25.1920   40.0610 C   0  0  0  0  0  3  0  0  0  0  0  0
   37.6810   24.5130   40.9640 N   0  0  0  0  0  0  0  0  0  0  0  0
   38.3940   25.2130   41.8600 C   0  0  0  0  0  0  0  0  0  0  0  0
   39.1860   24.6240   42.8380 C   0  0  0  0  0  3  0  0  0  0  0  0
   39.9070   25.3990   43.7490 C   0  0  0  0  0  0  0  0  0  0  0  0
   40.4880   24.8150   44.4610 H   0  0  0  0  0  0  0  0  0  0  0  0
   39.8520   26.7930   43.7020 C   0  0  0  0  0  0  0  0  0  0  0  0
   40.4370   27.3140   44.4400 H   0  0  0  0  0  0  0  0  0  0  0  0
   39.0670   27.4070   42.7350 C   0  0  0  0  0  3  0  0  0  0  0  0
   38.3890   26.5900   41.8760 C   0  0  0  0  0  0  0  0  0  0  0  0
   40.4510   32.3210   37.4150 C   0  0  0  0  0  0  0  0  0  0  0  0
   41.3190   33.1290   38.1870 C   0  0  0  0  0  0  0  0  0  0  0  0
   41.1420   33.1460   39.5630 C   0  0  0  0  0  0  0  0  0  0  0  0
   40.1500   32.3920   40.1080 N   0  0  0  0  0  0  0  0  0  0  0  0
   39.3250   31.6210   39.3410 C   0  0  0  0  0  0  0  0  0  0  0  0
   39.4820   31.5930   38.0120 N   0  0  0  0  0  0  0  0  0  0  0  0
   40.6240   32.3340   36.3530 H   0  0  0  0  0  0  0  0  0  0  0  0
   42.0910   33.7130   37.7470 H   0  0  0  0  0  0  0  0  0  0  0  0
   42.0030   33.9620   40.4780 C   0  0  0  0  0  0  0  0  0  0  0  0
   43.1570   34.3520   39.8380 F   0  0  0  0  0  0  0  0  0  0  0  0
   41.2890   35.0960   40.8580 F   0  0  0  0  0  0  0  0  0  0  0  0
   42.2760   33.1940   41.5780 F   0  0  0  0  0  0  0  0  0  0  0  0
  1  2  1  0  0  0  0
  2  7  1  0  0  0  0
  3  2  2  0  0  0  0
  3  4  1  0  0  0  0
  4  5  2  0  0  0  0
  5  6  1  0  0  0  0
  5  9  1  0  0  0  0
  6 10  1  0  0  0  0
  7 11  1  0  0  0  0
  7  6  2  0  0  0  0
  8  4  1  0  0  0  0
 11 22  1  0  0  0  0
 12 13  1  0  0  0  0
 12 11  2  0  0  0  0
 13 14  2  0  0  0  0
 14 15  1  0  0  0  0
 15 22  2  0  0  0  0
 15 16  1  0  0  0  0
 16 17  2  0  0  0  0
 17 18  1  0  0  0  0
 19 17  1  0  0  0  0
 19 20  1  0  0  0  0
 21 19  2  0  0  0  0
 22 21  1  0  0  0  0
 23 28  2  0  0  0  0
 23 24  1  0  0  0  0
 24 25  2  0  0  0  0
 25 26  1  0  0  0  0
 25 31  1  0  0  0  0
 27  3  1  0  0  0  0
 27 26  2  0  0  0  0
 28 27  1  0  0  0  0
 29 23  1  0  0  0  0
 30 24  1  0  0  0  0
 31 33  1  0  0  0  0
 31 34  1  0  0  0  0
 32 31  1  0  0  0  0
M  END
>  <minimizedAffinity>
-6.3703227

$$$$

 OpenBabel03252500113D

 34 37  0  0  0  0  0  0  0  0999 V2000
   41.2140   31.1060   40.3110 Cl  0  0  0  0  0  0  0  0  0  0  0  0
   40.2470   32.5360   40.2720 C   0  0  0  0  0  0  0  0  0  0  0  0
   38.9250   32.4950   40.6250 C   0  0  0  0  0  0  0  0  0  0  0  0
   38.1090   33.6320   40.6050 C   0  0  0  0  0  0  0  0  0  0  0  0
   38.7240   34.8030   40.2050 C   0  0  0  0  0  0  0  0  0  0  0  0
   40.0460   34.8450   39.8520 C   0  0  0  0  0  0  0  0  0  0  0  0
   40.8250   33.7260   39.8780 C   0  0  0  0  0  0  0  0  0  0  0  0
   37.0790   33.4960   40.9010 H   0  0  0  0  0  0  0  0  0  0  0  0
   38.0250   35.6520   40.2160 H   0  0  0  0  0  0  0  0  0  0  0  0
   40.3820   35.8220   39.5590 H   0  0  0  0  0  0  0  0  0  0  0  0
   42.2320   33.7960   39.4880 C   0  0  0  0  0  0  0  0  0  0  0  0
   42.4490   33.4620   38.1830 N   0  0  0  0  0  0  0  0  0  0  0  0
   43.6800   33.4710   37.6480 C   0  0  0  0  0  3  0  0  0  0  0  0
   44.7630   33.8090   38.3750 N   0  0  0  0  0  0  0  0  0  0  0  0
   44.5870   34.1420   39.6630 C   0  0  0  0  0  0  0  0  0  0  0  0
   45.6270   34.5050   40.5100 C   0  0  0  0  0  3  0  0  0  0  0  0
   45.3890   34.8410   41.8440 C   0  0  0  0  0  0  0  0  0  0  0  0
   46.2880   35.1070   42.3980 H   0  0  0  0  0  0  0  0  0  0  0  0
   44.0960   34.8210   42.3670 C   0  0  0  0  0  0  0  0  0  0  0  0
   44.0000   35.0930   43.4030 H   0  0  0  0  0  0  0  0  0  0  0  0
   43.0370   34.4610   41.5410 C   0  0  0  0  0  3  0  0  0  0  0  0
   43.3400   34.1450   40.2480 C   0  0  0  0  0  0  0  0  0  0  0  0
   38.2190   29.4030   42.5210 C   0  0  0  0  0  0  0  0  0  0  0  0
   37.1740   28.8210   41.7670 C   0  0  0  0  0  0  0  0  0  0  0  0
   36.7350   29.4910   40.6340 C   0  0  0  0  0  0  0  0  0  0  0  0
   37.3250   30.6700   40.2990 N   0  0  0  0  0  0  0  0  0  0  0  0
   38.3320   31.2120   41.0430 C   0  0  0  0  0  0  0  0  0  0  0  0
   38.7670   30.5780   42.1390 N   0  0  0  0  0  0  0  0  0  0  0  0
   38.5310   28.8500   43.3900 H   0  0  0  0  0  0  0  0  0  0  0  0
   36.7220   27.8980   42.0410 H   0  0  0  0  0  0  0  0  0  0  0  0
   35.6370   28.9680   39.7590 C   0  0  0  0  0  0  0  0  0  0  0  0
   35.8580   27.6470   39.4440 F   0  0  0  0  0  0  0  0  0  0  0  0
   34.4340   29.0750   40.4520 F   0  0  0  0  0  0  0  0  0  0  0  0
   35.5990   29.7510   38.6370 F   0  0  0  0  0  0  0  0  0  0  0  0
  2  1  1  0  0  0  0
  2  3  1  0  0  0  0
  3 27  1  0  0  0  0
  4  3  2  0  0  0  0
  4  8  1  0  0  0  0
  5  9  1  0  0  0  0
  5  4  1  0  0  0  0
  6  7  1  0  0  0  0
  6  5  2  0  0  0  0
  7  2  2  0  0  0  0
 10  6  1  0  0  0  0
 11  7  1  0  0  0  0
 11 22  1  0  0  0  0
 12 11  2  0  0  0  0
 13 12  1  0  0  0  0
 13 14  2  0  0  0  0
 14 15  1  0  0  0  0
 15 22  2  0  0  0  0
 15 16  1  0  0  0  0
 16 17  2  0  0  0  0
 17 19  1  0  0  0  0
 17 18  1  0  0  0  0
 19 20  1  0  0  0  0
 21 19  2  0  0  0  0
 22 21  1  0  0  0  0
 23 29  1  0  0  0  0
 24 30  1  0  0  0  0
 24 23  2  0  0  0  0
 25 24  1  0  0  0  0
 26 25  2  0  0  0  0
 26 27  1  0  0  0  0
 27 28  2  0  0  0  0
 28 23  1  0  0  0  0
 31 33  1  0  0  0  0
 31 25  1  0  0  0  0
 32 31  1  0  0  0  0
 34 31  1  0  0  0  0
M  END
>  <minimizedAffinity>
-6.33803082

$$$$
