
 OpenBabel03252507433D

 34 37  0  0  0  0  0  0  0  0999 V2000
   44.3760   34.3900   40.9860 C   0  0  0  0  0  0  0  0  0  0  0  0
   43.9950   35.6070   41.6300 C   0  0  0  0  0  0  0  0  0  0  0  0
   42.1530   35.3970   41.7770 S   0  0  0  0  0  0  0  0  0  0  0  0
   42.2460   33.7100   40.9430 C   0  0  0  0  0  0  0  0  0  0  0  0
   43.3610   33.6080   40.7420 N   0  0  0  0  0  0  0  0  0  0  0  0
   44.6450   36.4130   41.9340 H   0  0  0  0  0  0  0  0  0  0  0  0
   40.9250   33.0770   40.8130 C   0  0  0  0  0  0  0  0  0  0  0  0
   40.3690   32.2000   41.6680 N   0  0  0  0  0  0  0  0  0  0  0  0
   39.1630   31.6630   41.4900 C   0  0  0  0  0  3  0  0  0  0  0  0
   38.4030   31.9650   40.4250 N   0  0  0  0  0  0  0  0  0  0  0  0
   38.8650   32.8250   39.5170 C   0  0  0  0  0  0  0  0  0  0  0  0
   38.0900   33.1380   38.4220 C   0  0  0  0  0  3  0  0  0  0  0  0
   38.5790   34.0390   37.4750 C   0  0  0  0  0  0  0  0  0  0  0  0
   37.9370   34.2550   36.6320 H   0  0  0  0  0  0  0  0  0  0  0  0
   39.8380   34.5730   37.7000 C   0  0  0  0  0  0  0  0  0  0  0  0
   40.1060   35.2600   36.8930 H   0  0  0  0  0  0  0  0  0  0  0  0
   40.5930   34.2460   38.8020 C   0  0  0  0  0  3  0  0  0  0  0  0
   40.1170   33.3580   39.7390 C   0  0  0  0  0  0  0  0  0  0  0  0
   45.7950   34.1230   40.6680 C   0  0  0  0  0  0  0  0  0  0  0  0
   46.3340   34.0350   41.6560 H   0  0  0  0  0  0  0  0  0  0  0  0
   46.2630   34.9950   40.1660 H   0  0  0  0  0  0  0  0  0  0  0  0
   46.0580   32.8860   39.8940 C   0  0  0  0  0  0  0  0  0  0  0  0
   46.1460   32.0110   40.5320 H   0  0  0  0  0  0  0  0  0  0  0  0
   45.1330   32.7010   39.2700 H   0  0  0  0  0  0  0  0  0  0  0  0
   47.1670   33.0040   38.9230 C   0  0  0  0  0  0  0  0  0  0  0  0
   48.3150   32.2300   39.2020 C   0  0  0  0  0  0  0  0  0  0  0  0
   49.3960   32.2820   38.3390 C   0  0  0  0  0  0  0  0  0  0  0  0
   49.2950   33.0950   37.2400 N   0  0  0  0  0  0  0  0  0  0  0  0
   48.1770   33.8190   37.0130 C   0  0  0  0  0  0  0  0  0  0  0  0
   47.1390   33.7690   37.8410 N   0  0  0  0  0  0  0  0  0  0  0  0
   50.2710   31.7000   38.5420 H   0  0  0  0  0  0  0  0  0  0  0  0
   48.1630   34.4480   36.1160 H   0  0  0  0  0  0  0  0  0  0  0  0
   48.3760   31.1920   40.6620 S   0  0  0  0  0  0  0  0  0  0  0  0
   48.6670   32.0550   41.7580 H   0  0  0  0  0  0  0  0  0  0  0  0
  1  2  2  0  0  0  0
  2  3  1  0  0  0  0
  2  6  1  0  0  0  0
  4  3  1  0  0  0  0
  5  4  2  0  0  0  0
  5  1  1  0  0  0  0
  7  4  1  0  0  0  0
  7  8  1  0  0  0  0
  9  8  2  0  0  0  0
 10  9  1  0  0  0  0
 11 18  1  0  0  0  0
 11 10  2  0  0  0  0
 12 11  1  0  0  0  0
 13 15  1  0  0  0  0
 13 12  2  0  0  0  0
 14 13  1  0  0  0  0
 15 17  2  0  0  0  0
 16 15  1  0  0  0  0
 17 18  1  0  0  0  0
 18  7  2  0  0  0  0
 19  1  1  0  0  0  0
 19 20  1  0  0  0  0
 21 19  1  0  0  0  0
 22 23  1  0  0  0  0
 22 19  1  0  0  0  0
 24 22  1  0  0  0  0
 25 26  1  0  0  0  0
 25 22  1  0  0  0  0
 26 33  1  0  0  0  0
 27 31  1  0  0  0  0
 27 26  2  0  0  0  0
 28 27  1  0  0  0  0
 29 28  2  0  0  0  0
 29 30  1  0  0  0  0
 30 25  2  0  0  0  0
 32 29  1  0  0  0  0
 33 34  1  0  0  0  0
M  END
>  <minimizedAffinity>
-5.37288666

>  <minimizedRMSD>
3.20375204

$$$$
