
 OpenBabel03252507323D

 52 56  0  0  1  0  0  0  0  0999 V2000
   46.9980   32.1990   45.2540 C   0  0  0  0  0  0  0  0  0  0  0  0
   45.9600   32.8560   45.9000 C   0  0  0  0  0  0  0  0  0  0  0  0
   45.4510   34.0610   45.3590 C   0  0  0  0  0  0  0  0  0  0  0  0
   46.0500   34.5110   44.1850 N   0  0  0  0  0  0  0  0  0  0  0  0
   47.0610   33.8220   43.6090 C   0  0  0  0  0  0  0  0  0  0  0  0
   47.5200   32.6950   44.1320 N   0  0  0  0  0  0  0  0  0  0  0  0
   45.3960   32.7200   46.7960 H   0  0  0  0  0  0  0  0  0  0  0  0
   44.6740   34.6900   45.7040 H   0  0  0  0  0  0  0  0  0  0  0  0
   47.4660   30.9580   45.8360 C   0  0  2  0  0  0  0  0  0  0  0  0
   46.7020   29.7290   45.2510 C   0  0  0  0  0  0  0  0  0  0  0  0
   47.3240   28.4750   45.7550 C   0  0  0  0  0  0  0  0  0  0  0  0
   47.6580   28.4460   47.2080 C   0  0  0  0  0  0  0  0  0  0  0  0
   48.1510   29.6970   47.7320 C   0  0  0  0  0  0  0  0  0  0  0  0
   47.3370   30.9270   47.2790 C   0  0  2  0  0  0  0  0  0  0  0  0
   48.5070   30.7580   45.4860 H   0  0  0  0  0  0  0  0  0  0  0  0
   45.6290   29.8300   45.4340 H   0  0  0  0  0  0  0  0  0  0  0  0
   46.8530   29.8290   44.1570 H   0  0  0  0  0  0  0  0  0  0  0  0
   46.5670   27.6560   45.5910 H   0  0  0  0  0  0  0  0  0  0  0  0
   48.1410   28.2260   45.0510 H   0  0  0  0  0  0  0  0  0  0  0  0
   48.6640   27.8630   47.1490 H   0  0  0  0  0  0  0  0  0  0  0  0
   47.1880   27.6850   47.8320 H   0  0  0  0  0  0  0  0  0  0  0  0
   48.0760   29.6870   48.8590 H   0  0  0  0  0  0  0  0  0  0  0  0
   49.2100   29.9860   47.5380 H   0  0  0  0  0  0  0  0  0  0  0  0
   47.8310   31.7260   47.8350 H   0  0  0  0  0  0  0  0  0  0  0  0
   45.9350   30.7200   47.6510 N   0  0  0  0  0  0  0  0  0  0  0  0
   45.3170   30.5410   48.8990 C   0  0  0  0  0  0  0  0  0  0  0  0
   45.0960   31.5090   49.7140 O   0  0  0  0  0  0  0  0  0  0  0  0
   44.9420   29.1930   49.1910 N   0  0  0  0  0  0  0  0  0  0  0  0
   45.1510   30.6050   46.9030 H   0  0  0  0  0  0  0  0  0  0  0  0
   44.2270   28.6990   48.5940 H   0  0  0  0  0  0  0  0  0  0  0  0
   45.0540   28.3490   49.7960 H   0  0  0  0  0  0  0  0  0  0  0  0
   47.6630   34.3750   42.4000 C   0  0  0  0  0  0  0  0  0  0  0  0
   48.4990   35.4380   42.4230 C   0  0  0  0  0  0  0  0  0  0  0  0
   49.0790   35.9800   41.2940 C   0  0  0  0  0  0  0  0  0  0  0  0
   48.7570   35.3670   40.1030 C   0  0  0  0  0  0  0  0  0  0  0  0
   47.8990   34.2680   40.0400 C   0  0  0  0  0  0  0  0  0  0  0  0
   47.4050   33.8430   41.2180 N   0  0  0  0  0  0  0  0  0  0  0  0
   48.7380   35.9040   43.3680 H   0  0  0  0  0  0  0  0  0  0  0  0
   49.7460   36.8300   41.3140 H   0  0  0  0  0  0  0  0  0  0  0  0
   49.2080   35.7880   39.2220 H   0  0  0  0  0  0  0  0  0  0  0  0
   47.6740   33.7520   38.7040 C   0  0  0  0  0  0  0  0  0  0  0  0
   48.6320   33.8050   37.7620 N   0  0  0  0  0  0  0  0  0  0  0  0
   48.5420   33.3700   36.5200 C   0  0  0  0  0  3  0  0  0  0  0  0
   47.4030   32.8040   36.0840 N   0  0  0  0  0  0  0  0  0  0  0  0
   46.3530   32.6910   36.9470 C   0  0  0  0  0  0  0  0  0  0  0  0
   45.1750   32.1140   36.5240 C   0  0  0  0  0  3  0  0  0  0  0  0
   44.0870   31.9870   37.3890 C   0  0  0  0  0  0  0  0  0  0  0  0
   43.2240   31.5190   36.9400 H   0  0  0  0  0  0  0  0  0  0  0  0
   44.2680   32.4740   38.6890 C   0  0  0  0  0  0  0  0  0  0  0  0
   43.3890   32.3480   39.3150 H   0  0  0  0  0  0  0  0  0  0  0  0
   45.4650   33.0370   39.0460 C   0  0  0  0  0  3  0  0  0  0  0  0
   46.5320   33.1680   38.2180 C   0  0  0  0  0  0  0  0  0  0  0  0
  1  9  1  0  0  0  0
  1  2  1  0  0  0  0
  2  7  1  0  0  0  0
  3  8  1  0  0  0  0
  3  2  2  0  0  0  0
  4  3  1  0  0  0  0
  5  6  1  0  0  0  0
  5  4  2  0  0  0  0
  6  1  2  0  0  0  0
  9 15  1  6  0  0  0
  9 14  1  0  0  0  0
 10 16  1  0  0  0  0
 10 11  1  0  0  0  0
 10  9  1  0  0  0  0
 11 12  1  0  0  0  0
 12 13  1  0  0  0  0
 12 21  1  0  0  0  0
 13 22  1  0  0  0  0
 14 25  1  0  0  0  0
 14 13  1  0  0  0  0
 14 24  1  1  0  0  0
 17 10  1  0  0  0  0
 18 11  1  0  0  0  0
 19 11  1  0  0  0  0
 20 12  1  0  0  0  0
 23 13  1  0  0  0  0
 25 26  1  0  0  0  0
 26 28  1  0  0  0  0
 26 27  2  0  0  0  0
 28 31  1  0  0  0  0
 29 25  1  0  0  0  0
 30 28  1  0  0  0  0
 32 33  1  0  0  0  0
 32  5  1  0  0  0  0
 33 38  1  0  0  0  0
 34 39  1  0  0  0  0
 34 33  2  0  0  0  0
 35 34  1  0  0  0  0
 36 35  2  0  0  0  0
 36 37  1  0  0  0  0
 37 32  2  0  0  0  0
 40 35  1  0  0  0  0
 41 36  1  0  0  0  0
 42 41  2  0  0  0  0
 43 42  1  0  0  0  0
 44 43  2  0  0  0  0
 44 45  1  0  0  0  0
 45 52  1  0  0  0  0
 46 45  2  0  0  0  0
 46 47  1  0  0  0  0
 47 49  2  0  0  0  0
 48 47  1  0  0  0  0
 49 51  1  0  0  0  0
 49 50  1  0  0  0  0
 52 41  1  0  0  0  0
 52 51  2  0  0  0  0
M  END
>  <minimizedAffinity>
-6.99600697

>  <minimizedRMSD>
1.28363132

$$$$
