
 OpenBabel03242523013D

 34 37  0  0  0  0  0  0  0  0999 V2000
   37.6210   33.5030   39.9690 C   0  0  0  0  0  0  0  0  0  0  0  0
   37.1400   32.2120   40.1910 C   0  0  0  0  0  0  0  0  0  0  0  0
   37.9440   31.1180   40.0340 C   0  0  0  0  0  0  0  0  0  0  0  0
   39.1860   31.4140   39.6610 N   0  0  0  0  0  0  0  0  0  0  0  0
   39.7150   32.6050   39.4310 C   0  0  0  0  0  0  0  0  0  0  0  0
   38.8880   33.6690   39.5980 N   0  0  0  0  0  0  0  0  0  0  0  0
   36.9500   34.3590   40.1040 H   0  0  0  0  0  0  0  0  0  0  0  0
   36.1130   32.0720   40.4930 H   0  0  0  0  0  0  0  0  0  0  0  0
   41.0560   32.9860   39.0250 C   0  0  0  0  0  0  0  0  0  0  0  0
   41.3690   33.2990   37.7600 N   0  0  0  0  0  0  0  0  0  0  0  0
   42.5820   33.6570   37.3220 C   0  0  0  0  0  3  0  0  0  0  0  0
   43.6270   33.7350   38.1640 N   0  0  0  0  0  0  0  0  0  0  0  0
   43.4140   33.4410   39.4520 C   0  0  0  0  0  0  0  0  0  0  0  0
   44.4840   33.5200   40.3180 C   0  0  0  0  0  3  0  0  0  0  0  0
   44.3340   33.2310   41.6550 C   0  0  0  0  0  0  0  0  0  0  0  0
   45.1590   33.2900   42.3380 H   0  0  0  0  0  0  0  0  0  0  0  0
   43.0550   32.8600   42.0840 C   0  0  0  0  0  0  0  0  0  0  0  0
   42.9770   32.6410   43.1400 H   0  0  0  0  0  0  0  0  0  0  0  0
   42.0210   32.7970   41.1760 C   0  0  0  0  0  3  0  0  0  0  0  0
   42.1500   33.0770   39.8560 C   0  0  0  0  0  0  0  0  0  0  0  0
   37.0080   29.6850   37.5740 Cl  0  0  0  0  0  0  0  0  0  0  0  0
   37.0890   29.0110   39.1820 C   0  0  0  0  0  0  0  0  0  0  0  0
   37.5250   29.7380   40.2540 C   0  0  0  0  0  0  0  0  0  0  0  0
   37.5330   29.0830   41.4540 C   0  0  0  0  0  0  0  0  0  0  0  0
   37.1460   27.8010   41.6190 C   0  0  0  0  0  0  0  0  0  0  0  0
   36.7080   27.0760   40.5270 C   0  0  0  0  0  0  0  0  0  0  0  0
   36.6830   27.6960   39.3080 C   0  0  0  0  0  0  0  0  0  0  0  0
   37.8770   29.6410   42.3300 H   0  0  0  0  0  0  0  0  0  0  0  0
   36.3870   26.0450   40.6070 H   0  0  0  0  0  0  0  0  0  0  0  0
   36.3390   27.1200   38.4600 H   0  0  0  0  0  0  0  0  0  0  0  0
   37.1630   27.1100   42.9400 C   0  0  0  0  0  0  0  0  0  0  0  0
   35.9740   27.3800   43.5620 F   0  0  0  0  0  0  0  0  0  0  0  0
   38.2620   27.4960   43.6800 F   0  0  0  0  0  0  0  0  0  0  0  0
   37.2650   25.7420   42.6990 F   0  0  0  0  0  0  0  0  0  0  0  0
  1  7  1  0  0  0  0
  1  2  1  0  0  0  0
  2  8  1  0  0  0  0
  3  2  2  0  0  0  0
  3 23  1  0  0  0  0
  4  3  1  0  0  0  0
  5  6  1  0  0  0  0
  5  4  2  0  0  0  0
  6  1  2  0  0  0  0
  9  5  1  0  0  0  0
  9 20  1  0  0  0  0
 10  9  2  0  0  0  0
 11 10  1  0  0  0  0
 11 12  2  0  0  0  0
 12 13  1  0  0  0  0
 13 20  2  0  0  0  0
 13 14  1  0  0  0  0
 14 15  2  0  0  0  0
 15 17  1  0  0  0  0
 15 16  1  0  0  0  0
 17 18  1  0  0  0  0
 19 17  2  0  0  0  0
 20 19  1  0  0  0  0
 21 22  1  0  0  0  0
 22 27  2  0  0  0  0
 22 23  1  0  0  0  0
 23 24  2  0  0  0  0
 24 25  1  0  0  0  0
 24 28  1  0  0  0  0
 25 31  1  0  0  0  0
 26 29  1  0  0  0  0
 26 25  2  0  0  0  0
 27 26  1  0  0  0  0
 30 27  1  0  0  0  0
 31 32  1  0  0  0  0
 31 33  1  0  0  0  0
 34 31  1  0  0  0  0
M  END
>  <minimizedAffinity>
-6.54859066

$$$$

 OpenBabel03242523013D

 34 37  0  0  0  0  0  0  0  0999 V2000
   33.6010   27.3020   36.5580 C   0  0  0  0  0  0  0  0  0  0  0  0
   34.6970   27.4960   37.4000 C   0  0  0  0  0  0  0  0  0  0  0  0
   34.7200   28.5130   38.3120 C   0  0  0  0  0  0  0  0  0  0  0  0
   33.6230   29.2660   38.3050 N   0  0  0  0  0  0  0  0  0  0  0  0
   32.5490   29.1470   37.5420 C   0  0  0  0  0  0  0  0  0  0  0  0
   32.5590   28.1260   36.6480 N   0  0  0  0  0  0  0  0  0  0  0  0
   33.6140   26.4760   35.8370 H   0  0  0  0  0  0  0  0  0  0  0  0
   35.5440   26.8300   37.3310 H   0  0  0  0  0  0  0  0  0  0  0  0
   31.3290   29.9330   37.4900 C   0  0  0  0  0  0  0  0  0  0  0  0
   30.4390   29.9570   38.4920 N   0  0  0  0  0  0  0  0  0  0  0  0
   29.2990   30.6580   38.5080 C   0  0  0  0  0  3  0  0  0  0  0  0
   28.9480   31.4300   37.4650 N   0  0  0  0  0  0  0  0  0  0  0  0
   29.7740   31.4730   36.4130 C   0  0  0  0  0  0  0  0  0  0  0  0
   29.4160   32.2640   35.3420 C   0  0  0  0  0  3  0  0  0  0  0  0
   30.2200   32.3530   34.2290 C   0  0  0  0  0  0  0  0  0  0  0  0
   29.9520   32.9660   33.3910 H   0  0  0  0  0  0  0  0  0  0  0  0
   31.4050   31.6090   34.2420 C   0  0  0  0  0  0  0  0  0  0  0  0
   32.0100   31.7060   33.3500 H   0  0  0  0  0  0  0  0  0  0  0  0
   31.7140   30.8350   35.3380 C   0  0  0  0  0  3  0  0  0  0  0  0
   30.9350   30.7350   36.4430 C   0  0  0  0  0  0  0  0  0  0  0  0
   36.8480   30.3260   37.2330 Cl  0  0  0  0  0  0  0  0  0  0  0  0
   36.8300   29.6030   38.8210 C   0  0  0  0  0  0  0  0  0  0  0  0
   35.8190   28.7800   39.2330 C   0  0  0  0  0  0  0  0  0  0  0  0
   35.9370   28.2830   40.5010 C   0  0  0  0  0  0  0  0  0  0  0  0
   36.9650   28.5580   41.3300 C   0  0  0  0  0  0  0  0  0  0  0  0
   37.9800   29.3930   40.9020 C   0  0  0  0  0  0  0  0  0  0  0  0
   37.9010   29.9110   39.6390 C   0  0  0  0  0  0  0  0  0  0  0  0
   35.1430   27.6210   40.8580 H   0  0  0  0  0  0  0  0  0  0  0  0
   38.8260   29.6450   41.5290 H   0  0  0  0  0  0  0  0  0  0  0  0
   38.7000   30.5630   39.3130 H   0  0  0  0  0  0  0  0  0  0  0  0
   37.0690   28.0010   42.7090 C   0  0  0  0  0  0  0  0  0  0  0  0
   38.0340   27.0300   42.6900 F   0  0  0  0  0  0  0  0  0  0  0  0
   35.8440   27.5410   43.1450 F   0  0  0  0  0  0  0  0  0  0  0  0
   37.4650   29.0360   43.5530 F   0  0  0  0  0  0  0  0  0  0  0  0
  1  6  2  0  0  0  0
  1  2  1  0  0  0  0
  2  3  2  0  0  0  0
  3 23  1  0  0  0  0
  4  3  1  0  0  0  0
  5  4  2  0  0  0  0
  6  5  1  0  0  0  0
  7  1  1  0  0  0  0
  8  2  1  0  0  0  0
  9  5  1  0  0  0  0
  9 10  1  0  0  0  0
 10 11  2  0  0  0  0
 12 11  1  0  0  0  0
 13 20  1  0  0  0  0
 13 12  2  0  0  0  0
 14 13  1  0  0  0  0
 15 17  1  0  0  0  0
 15 14  2  0  0  0  0
 16 15  1  0  0  0  0
 17 19  2  0  0  0  0
 18 17  1  0  0  0  0
 19 20  1  0  0  0  0
 20  9  2  0  0  0  0
 21 22  1  0  0  0  0
 22 23  2  0  0  0  0
 22 27  1  0  0  0  0
 23 24  1  0  0  0  0
 24 28  1  0  0  0  0
 24 25  2  0  0  0  0
 25 31  1  0  0  0  0
 26 25  1  0  0  0  0
 26 29  1  0  0  0  0
 27 26  2  0  0  0  0
 30 27  1  0  0  0  0
 31 33  1  0  0  0  0
 31 34  1  0  0  0  0
 32 31  1  0  0  0  0
M  END
>  <minimizedAffinity>
-6.4389596

$$$$

 OpenBabel03242523013D

 34 37  0  0  0  0  0  0  0  0999 V2000
   36.9790   31.4860   38.8660 C   0  0  0  0  0  0  0  0  0  0  0  0
   36.8850   30.4120   39.7530 C   0  0  0  0  0  0  0  0  0  0  0  0
   37.9950   29.7180   40.1470 C   0  0  0  0  0  0  0  0  0  0  0  0
   39.1270   30.1660   39.6100 N   0  0  0  0  0  0  0  0  0  0  0  0
   39.2970   31.1720   38.7680 C   0  0  0  0  0  0  0  0  0  0  0  0
   38.1740   31.8390   38.3980 N   0  0  0  0  0  0  0  0  0  0  0  0
   36.0700   32.0220   38.5700 H   0  0  0  0  0  0  0  0  0  0  0  0
   35.9190   30.1220   40.1360 H   0  0  0  0  0  0  0  0  0  0  0  0
   40.5010   31.7040   38.1540 C   0  0  0  0  0  0  0  0  0  0  0  0
   40.8530   32.9930   38.2470 N   0  0  0  0  0  0  0  0  0  0  0  0
   41.9470   33.5450   37.7060 C   0  0  0  0  0  3  0  0  0  0  0  0
   42.8150   32.8050   36.9950 N   0  0  0  0  0  0  0  0  0  0  0  0
   42.5490   31.5020   36.8450 C   0  0  0  0  0  0  0  0  0  0  0  0
   43.4380   30.7420   36.1160 C   0  0  0  0  0  3  0  0  0  0  0  0
   43.2250   29.3960   35.9230 C   0  0  0  0  0  0  0  0  0  0  0  0
   43.9100   28.7940   35.3590 H   0  0  0  0  0  0  0  0  0  0  0  0
   42.0750   28.8480   36.5000 C   0  0  0  0  0  0  0  0  0  0  0  0
   41.9430   27.7880   36.3280 H   0  0  0  0  0  0  0  0  0  0  0  0
   41.2200   29.6530   37.2200 C   0  0  0  0  0  3  0  0  0  0  0  0
   41.4130   30.9800   37.4200 C   0  0  0  0  0  0  0  0  0  0  0  0
   39.0840   30.3280   42.8720 Cl  0  0  0  0  0  0  0  0  0  0  0  0
   38.4610   28.7860   42.3410 C   0  0  0  0  0  0  0  0  0  0  0  0
   37.9860   28.5920   41.0740 C   0  0  0  0  0  0  0  0  0  0  0  0
   37.5310   27.3330   40.7960 C   0  0  0  0  0  0  0  0  0  0  0  0
   37.5290   26.3160   41.6820 C   0  0  0  0  0  0  0  0  0  0  0  0
   38.0110   26.5260   42.9600 C   0  0  0  0  0  0  0  0  0  0  0  0
   38.4770   27.7710   43.2790 C   0  0  0  0  0  0  0  0  0  0  0  0
   37.1460   27.1480   39.7890 H   0  0  0  0  0  0  0  0  0  0  0  0
   38.0300   25.7430   43.7080 H   0  0  0  0  0  0  0  0  0  0  0  0
   38.8510   27.9260   44.2820 H   0  0  0  0  0  0  0  0  0  0  0  0
   37.0280   24.9520   41.3520 C   0  0  0  0  0  0  0  0  0  0  0  0
   36.2600   25.0560   40.2240 F   0  0  0  0  0  0  0  0  0  0  0  0
   36.3490   24.4070   42.4230 F   0  0  0  0  0  0  0  0  0  0  0  0
   38.1350   24.1470   41.0910 F   0  0  0  0  0  0  0  0  0  0  0  0
  1  2  1  0  0  0  0
  2  8  1  0  0  0  0
  2  3  2  0  0  0  0
  3 23  1  0  0  0  0
  4  3  1  0  0  0  0
  5  4  2  0  0  0  0
  6  5  1  0  0  0  0
  6  1  2  0  0  0  0
  7  1  1  0  0  0  0
  9 10  1  0  0  0  0
  9  5  1  0  0  0  0
 11 10  2  0  0  0  0
 12 11  1  0  0  0  0
 13 12  2  0  0  0  0
 13 20  1  0  0  0  0
 14 13  1  0  0  0  0
 15 14  2  0  0  0  0
 15 17  1  0  0  0  0
 16 15  1  0  0  0  0
 17 19  2  0  0  0  0
 18 17  1  0  0  0  0
 19 20  1  0  0  0  0
 20  9  2  0  0  0  0
 22 21  1  0  0  0  0
 22 27  1  0  0  0  0
 23 22  2  0  0  0  0
 24 23  1  0  0  0  0
 24 25  2  0  0  0  0
 25 26  1  0  0  0  0
 26 27  2  0  0  0  0
 26 29  1  0  0  0  0
 27 30  1  0  0  0  0
 28 24  1  0  0  0  0
 31 25  1  0  0  0  0
 31 33  1  0  0  0  0
 32 31  1  0  0  0  0
 34 31  1  0  0  0  0
M  END
>  <minimizedAffinity>
-6.41084051

$$$$

 OpenBabel03242523013D

 34 37  0  0  0  0  0  0  0  0999 V2000
   37.3470   33.0130   39.7370 C   0  0  0  0  0  0  0  0  0  0  0  0
   36.9060   31.7020   39.9230 C   0  0  0  0  0  0  0  0  0  0  0  0
   37.7880   30.6600   39.9930 C   0  0  0  0  0  0  0  0  0  0  0  0
   39.0610   31.0240   39.8690 N   0  0  0  0  0  0  0  0  0  0  0  0
   39.5560   32.2380   39.6900 C   0  0  0  0  0  0  0  0  0  0  0  0
   38.6530   33.2490   39.6260 N   0  0  0  0  0  0  0  0  0  0  0  0
   36.6150   33.8260   39.6850 H   0  0  0  0  0  0  0  0  0  0  0  0
   35.8490   31.5060   40.0140 H   0  0  0  0  0  0  0  0  0  0  0  0
   40.9280   32.6930   39.5500 C   0  0  0  0  0  0  0  0  0  0  0  0
   41.4740   33.6110   40.3590 N   0  0  0  0  0  0  0  0  0  0  0  0
   42.7280   34.0720   40.2840 C   0  0  0  0  0  3  0  0  0  0  0  0
   43.5750   33.6210   39.3420 N   0  0  0  0  0  0  0  0  0  0  0  0
   43.1220   32.7000   38.4830 C   0  0  0  0  0  0  0  0  0  0  0  0
   43.9880   32.2370   37.5160 C   0  0  0  0  0  3  0  0  0  0  0  0
   43.5860   31.2890   36.6030 C   0  0  0  0  0  0  0  0  0  0  0  0
   44.2520   30.9210   35.8470 H   0  0  0  0  0  0  0  0  0  0  0  0
   42.2700   30.8260   36.7070 C   0  0  0  0  0  0  0  0  0  0  0  0
   41.9920   30.0820   35.9720 H   0  0  0  0  0  0  0  0  0  0  0  0
   41.4470   31.3230   37.6930 C   0  0  0  0  0  3  0  0  0  0  0  0
   41.8240   32.2560   38.6010 C   0  0  0  0  0  0  0  0  0  0  0  0
   37.1830   29.1490   37.4770 Cl  0  0  0  0  0  0  0  0  0  0  0  0
   37.1250   28.5020   39.0970 C   0  0  0  0  0  0  0  0  0  0  0  0
   37.4120   29.2650   40.1940 C   0  0  0  0  0  0  0  0  0  0  0  0
   37.3240   28.6270   41.4010 C   0  0  0  0  0  0  0  0  0  0  0  0
   36.9820   27.3310   41.5490 C   0  0  0  0  0  0  0  0  0  0  0  0
   36.6950   26.5710   40.4320 C   0  0  0  0  0  0  0  0  0  0  0  0
   36.7700   27.1710   39.2050 C   0  0  0  0  0  0  0  0  0  0  0  0
   37.5480   29.2140   42.2970 H   0  0  0  0  0  0  0  0  0  0  0  0
   36.4160   25.5260   40.4970 H   0  0  0  0  0  0  0  0  0  0  0  0
   36.5450   26.5670   38.3370 H   0  0  0  0  0  0  0  0  0  0  0  0
   36.8920   26.6610   42.8780 C   0  0  0  0  0  0  0  0  0  0  0  0
   36.6220   25.3370   42.6540 F   0  0  0  0  0  0  0  0  0  0  0  0
   35.9530   27.2790   43.6760 F   0  0  0  0  0  0  0  0  0  0  0  0
   38.1330   26.7860   43.4980 F   0  0  0  0  0  0  0  0  0  0  0  0
  1  2  1  0  0  0  0
  2  3  2  0  0  0  0
  2  8  1  0  0  0  0
  3 23  1  0  0  0  0
  4  3  1  0  0  0  0
  5  4  2  0  0  0  0
  6  5  1  0  0  0  0
  6  1  2  0  0  0  0
  7  1  1  0  0  0  0
  9  5  1  0  0  0  0
  9 10  1  0  0  0  0
 11 10  2  0  0  0  0
 12 11  1  0  0  0  0
 13 20  1  0  0  0  0
 13 12  2  0  0  0  0
 14 13  1  0  0  0  0
 15 17  1  0  0  0  0
 15 14  2  0  0  0  0
 16 15  1  0  0  0  0
 17 19  2  0  0  0  0
 18 17  1  0  0  0  0
 19 20  1  0  0  0  0
 20  9  2  0  0  0  0
 21 22  1  0  0  0  0
 22 27  2  0  0  0  0
 22 23  1  0  0  0  0
 23 24  2  0  0  0  0
 24 25  1  0  0  0  0
 24 28  1  0  0  0  0
 25 31  1  0  0  0  0
 26 29  1  0  0  0  0
 26 25  2  0  0  0  0
 27 26  1  0  0  0  0
 30 27  1  0  0  0  0
 31 34  1  0  0  0  0
 31 33  1  0  0  0  0
 32 31  1  0  0  0  0
M  END
>  <minimizedAffinity>
-6.40240955

$$$$

 OpenBabel03242523013D

 34 37  0  0  0  0  0  0  0  0999 V2000
   34.6840   26.7530   36.4050 C   0  0  0  0  0  0  0  0  0  0  0  0
   35.4770   27.0360   37.5180 C   0  0  0  0  0  0  0  0  0  0  0  0
   35.3180   28.1940   38.2280 C   0  0  0  0  0  0  0  0  0  0  0  0
   34.3590   28.9860   37.7540 N   0  0  0  0  0  0  0  0  0  0  0  0
   33.5700   28.7890   36.7110 C   0  0  0  0  0  0  0  0  0  0  0  0
   33.7540   27.6290   36.0300 N   0  0  0  0  0  0  0  0  0  0  0  0
   34.8370   25.8160   35.8590 H   0  0  0  0  0  0  0  0  0  0  0  0
   36.2320   26.3280   37.8270 H   0  0  0  0  0  0  0  0  0  0  0  0
   32.5120   29.6130   36.1520 C   0  0  0  0  0  0  0  0  0  0  0  0
   32.5240   30.0440   34.8830 N   0  0  0  0  0  0  0  0  0  0  0  0
   31.5830   30.8040   34.3080 C   0  0  0  0  0  3  0  0  0  0  0  0
   30.5030   31.2070   34.9990 N   0  0  0  0  0  0  0  0  0  0  0  0
   30.4000   30.8260   36.2770 C   0  0  0  0  0  0  0  0  0  0  0  0
   29.2930   31.2390   36.9870 C   0  0  0  0  0  3  0  0  0  0  0  0
   29.1260   30.8820   38.3060 C   0  0  0  0  0  0  0  0  0  0  0  0
   28.2680   31.1970   38.8680 H   0  0  0  0  0  0  0  0  0  0  0  0
   30.1250   30.0880   38.8800 C   0  0  0  0  0  0  0  0  0  0  0  0
   29.9570   29.8290   39.9160 H   0  0  0  0  0  0  0  0  0  0  0  0
   31.2100   29.7040   38.1240 C   0  0  0  0  0  3  0  0  0  0  0  0
   31.3920   30.0450   36.8250 C   0  0  0  0  0  0  0  0  0  0  0  0
   36.8320   30.7670   37.9740 Cl  0  0  0  0  0  0  0  0  0  0  0  0
   36.8130   29.7250   39.3750 C   0  0  0  0  0  0  0  0  0  0  0  0
   36.0960   28.5620   39.4040 C   0  0  0  0  0  0  0  0  0  0  0  0
   36.1760   27.8440   40.5660 C   0  0  0  0  0  0  0  0  0  0  0  0
   36.9000   28.2210   41.6400 C   0  0  0  0  0  0  0  0  0  0  0  0
   37.6190   29.4000   41.5970 C   0  0  0  0  0  0  0  0  0  0  0  0
   37.5680   30.1470   40.4530 C   0  0  0  0  0  0  0  0  0  0  0  0
   35.6130   26.9080   40.6180 H   0  0  0  0  0  0  0  0  0  0  0  0
   38.2150   29.7460   42.4320 H   0  0  0  0  0  0  0  0  0  0  0  0
   38.1330   31.0680   40.4290 H   0  0  0  0  0  0  0  0  0  0  0  0
   36.9700   27.4190   42.8940 C   0  0  0  0  0  0  0  0  0  0  0  0
   37.2820   26.1320   42.5450 F   0  0  0  0  0  0  0  0  0  0  0  0
   35.7920   27.5170   43.6050 F   0  0  0  0  0  0  0  0  0  0  0  0
   37.9920   27.9500   43.6780 F   0  0  0  0  0  0  0  0  0  0  0  0
  1  2  1  0  0  0  0
  2  8  1  0  0  0  0
  2  3  2  0  0  0  0
  3 23  1  0  0  0  0
  4  3  1  0  0  0  0
  5  4  2  0  0  0  0
  6  1  2  0  0  0  0
  6  5  1  0  0  0  0
  7  1  1  0  0  0  0
  9  5  1  0  0  0  0
  9 20  1  0  0  0  0
 10  9  2  0  0  0  0
 11 10  1  0  0  0  0
 11 12  2  0  0  0  0
 12 13  1  0  0  0  0
 13 20  2  0  0  0  0
 13 14  1  0  0  0  0
 14 15  2  0  0  0  0
 15 16  1  0  0  0  0
 15 17  1  0  0  0  0
 17 18  1  0  0  0  0
 19 17  2  0  0  0  0
 20 19  1  0  0  0  0
 21 22  1  0  0  0  0
 22 23  2  0  0  0  0
 22 27  1  0  0  0  0
 23 24  1  0  0  0  0
 24 28  1  0  0  0  0
 24 25  2  0  0  0  0
 25 31  1  0  0  0  0
 26 25  1  0  0  0  0
 26 29  1  0  0  0  0
 27 26  2  0  0  0  0
 30 27  1  0  0  0  0
 31 33  1  0  0  0  0
 31 34  1  0  0  0  0
 32 31  1  0  0  0  0
M  END
>  <minimizedAffinity>
-6.3086462

$$$$

 OpenBabel03242523013D

 34 37  0  0  0  0  0  0  0  0999 V2000
   35.3980   25.8050   37.8210 C   0  0  0  0  0  0  0  0  0  0  0  0
   34.3510   26.5680   37.3000 C   0  0  0  0  0  0  0  0  0  0  0  0
   34.3000   27.9220   37.4810 C   0  0  0  0  0  0  0  0  0  0  0  0
   35.3200   28.4080   38.1830 N   0  0  0  0  0  0  0  0  0  0  0  0
   36.3440   27.7550   38.7080 C   0  0  0  0  0  0  0  0  0  0  0  0
   36.3640   26.4130   38.5080 N   0  0  0  0  0  0  0  0  0  0  0  0
   35.4090   24.7220   37.6580 H   0  0  0  0  0  0  0  0  0  0  0  0
   33.5660   26.0810   36.7410 H   0  0  0  0  0  0  0  0  0  0  0  0
   37.4800   28.2300   39.4780 C   0  0  0  0  0  0  0  0  0  0  0  0
   38.5700   28.7620   38.9080 N   0  0  0  0  0  0  0  0  0  0  0  0
   39.6480   29.2180   39.5590 C   0  0  0  0  0  3  0  0  0  0  0  0
   39.7160   29.1730   40.9010 N   0  0  0  0  0  0  0  0  0  0  0  0
   38.6730   28.6570   41.5620 C   0  0  0  0  0  0  0  0  0  0  0  0
   38.7400   28.6110   42.9390 C   0  0  0  0  0  3  0  0  0  0  0  0
   37.7020   28.0930   43.6800 C   0  0  0  0  0  0  0  0  0  0  0  0
   37.7440   28.0520   44.7510 H   0  0  0  0  0  0  0  0  0  0  0  0
   36.5900   27.6250   42.9720 C   0  0  0  0  0  0  0  0  0  0  0  0
   35.7950   27.2270   43.5890 H   0  0  0  0  0  0  0  0  0  0  0  0
   36.5750   27.6970   41.5970 C   0  0  0  0  0  3  0  0  0  0  0  0
   37.5860   28.2020   40.8500 C   0  0  0  0  0  0  0  0  0  0  0  0
   34.5720   28.6270   34.5810 Cl  0  0  0  0  0  0  0  0  0  0  0  0
   33.2950   29.1570   35.6480 C   0  0  0  0  0  0  0  0  0  0  0  0
   33.2500   28.7910   36.9630 C   0  0  0  0  0  0  0  0  0  0  0  0
   32.1940   29.2820   37.6810 C   0  0  0  0  0  0  0  0  0  0  0  0
   31.2340   30.0770   37.1670 C   0  0  0  0  0  0  0  0  0  0  0  0
   31.2910   30.4380   35.8340 C   0  0  0  0  0  0  0  0  0  0  0  0
   32.3320   29.9700   35.0810 C   0  0  0  0  0  0  0  0  0  0  0  0
   32.1320   29.0060   38.7380 H   0  0  0  0  0  0  0  0  0  0  0  0
   30.5450   31.0740   35.3730 H   0  0  0  0  0  0  0  0  0  0  0  0
   32.3670   30.2580   34.0390 H   0  0  0  0  0  0  0  0  0  0  0  0
   30.0930   30.6000   37.9720 C   0  0  0  0  0  0  0  0  0  0  0  0
   28.9370   30.1700   37.3760 F   0  0  0  0  0  0  0  0  0  0  0  0
   30.1650   31.9720   38.0900 F   0  0  0  0  0  0  0  0  0  0  0  0
   30.1920   30.0520   39.2490 F   0  0  0  0  0  0  0  0  0  0  0  0
  1  6  1  0  0  0  0
  2  3  1  0  0  0  0
  2  1  2  0  0  0  0
  3  4  2  0  0  0  0
  4  5  1  0  0  0  0
  5  9  1  0  0  0  0
  6  5  2  0  0  0  0
  7  1  1  0  0  0  0
  8  2  1  0  0  0  0
  9 20  1  0  0  0  0
 10  9  2  0  0  0  0
 10 11  1  0  0  0  0
 11 12  2  0  0  0  0
 12 13  1  0  0  0  0
 13 14  1  0  0  0  0
 14 15  2  0  0  0  0
 15 16  1  0  0  0  0
 17 18  1  0  0  0  0
 17 15  1  0  0  0  0
 19 17  2  0  0  0  0
 20 13  2  0  0  0  0
 20 19  1  0  0  0  0
 21 22  1  0  0  0  0
 22 23  1  0  0  0  0
 23  3  1  0  0  0  0
 23 24  2  0  0  0  0
 24 28  1  0  0  0  0
 25 24  1  0  0  0  0
 25 31  1  0  0  0  0
 26 25  2  0  0  0  0
 27 22  2  0  0  0  0
 27 26  1  0  0  0  0
 29 26  1  0  0  0  0
 30 27  1  0  0  0  0
 31 33  1  0  0  0  0
 31 34  1  0  0  0  0
 32 31  1  0  0  0  0
M  END
>  <minimizedAffinity>
-6.29264784

$$$$

 OpenBabel03242523013D

 34 37  0  0  0  0  0  0  0  0999 V2000
   36.7720   30.2450   38.0430 C   0  0  0  0  0  0  0  0  0  0  0  0
   37.9820   30.7800   37.5980 C   0  0  0  0  0  0  0  0  0  0  0  0
   39.1350   30.6220   38.3150 C   0  0  0  0  0  0  0  0  0  0  0  0
   38.9760   29.9290   39.4400 N   0  0  0  0  0  0  0  0  0  0  0  0
   37.8690   29.3930   39.9270 C   0  0  0  0  0  0  0  0  0  0  0  0
   36.7440   29.5680   39.1890 N   0  0  0  0  0  0  0  0  0  0  0  0
   35.8660   30.3900   37.4440 H   0  0  0  0  0  0  0  0  0  0  0  0
   38.0100   31.3290   36.6690 H   0  0  0  0  0  0  0  0  0  0  0  0
   37.6380   28.6300   41.1410 C   0  0  0  0  0  0  0  0  0  0  0  0
   37.6480   29.1870   42.3600 N   0  0  0  0  0  0  0  0  0  0  0  0
   37.4430   28.5410   43.5150 C   0  0  0  0  0  3  0  0  0  0  0  0
   37.1990   27.2200   43.5340 N   0  0  0  0  0  0  0  0  0  0  0  0
   37.1690   26.5720   42.3640 C   0  0  0  0  0  0  0  0  0  0  0  0
   36.9180   25.2170   42.3810 C   0  0  0  0  0  3  0  0  0  0  0  0
   36.8730   24.4910   41.2120 C   0  0  0  0  0  0  0  0  0  0  0  0
   36.6790   23.4360   41.2140 H   0  0  0  0  0  0  0  0  0  0  0  0
   37.0910   25.1930   40.0220 C   0  0  0  0  0  0  0  0  0  0  0  0
   37.0470   24.5890   39.1260 H   0  0  0  0  0  0  0  0  0  0  0  0
   37.3370   26.5470   40.0620 C   0  0  0  0  0  3  0  0  0  0  0  0
   37.3850   27.2780   41.2020 C   0  0  0  0  0  0  0  0  0  0  0  0
   39.7230   33.4030   39.2650 Cl  0  0  0  0  0  0  0  0  0  0  0  0
   40.7900   32.3990   38.3150 C   0  0  0  0  0  0  0  0  0  0  0  0
   40.4390   31.1390   37.9180 C   0  0  0  0  0  0  0  0  0  0  0  0
   41.3730   30.4680   37.1760 C   0  0  0  0  0  0  0  0  0  0  0  0
   42.5750   30.9750   36.8350 C   0  0  0  0  0  0  0  0  0  0  0  0
   42.9170   32.2500   37.2440 C   0  0  0  0  0  0  0  0  0  0  0  0
   42.0110   32.9550   37.9860 C   0  0  0  0  0  0  0  0  0  0  0  0
   41.1190   29.4580   36.8440 H   0  0  0  0  0  0  0  0  0  0  0  0
   43.8700   32.7020   36.9960 H   0  0  0  0  0  0  0  0  0  0  0  0
   42.2890   33.9520   38.3020 H   0  0  0  0  0  0  0  0  0  0  0  0
   43.5740   30.2230   36.0240 C   0  0  0  0  0  0  0  0  0  0  0  0
   42.9360   29.7710   34.8990 F   0  0  0  0  0  0  0  0  0  0  0  0
   44.1460   29.2110   36.7670 F   0  0  0  0  0  0  0  0  0  0  0  0
   44.5820   31.1140   35.6630 F   0  0  0  0  0  0  0  0  0  0  0  0
  1  6  1  0  0  0  0
  2  1  2  0  0  0  0
  2  3  1  0  0  0  0
  3  4  2  0  0  0  0
  4  5  1  0  0  0  0
  5  9  1  0  0  0  0
  6  5  2  0  0  0  0
  7  1  1  0  0  0  0
  8  2  1  0  0  0  0
  9 20  2  0  0  0  0
  9 10  1  0  0  0  0
 10 11  2  0  0  0  0
 11 12  1  0  0  0  0
 13 14  1  0  0  0  0
 13 12  2  0  0  0  0
 15 16  1  0  0  0  0
 15 14  2  0  0  0  0
 17 19  2  0  0  0  0
 17 15  1  0  0  0  0
 18 17  1  0  0  0  0
 19 20  1  0  0  0  0
 20 13  1  0  0  0  0
 22 21  1  0  0  0  0
 23  3  1  0  0  0  0
 23 22  2  0  0  0  0
 24 23  1  0  0  0  0
 25 24  2  0  0  0  0
 25 26  1  0  0  0  0
 26 27  2  0  0  0  0
 27 30  1  0  0  0  0
 27 22  1  0  0  0  0
 28 24  1  0  0  0  0
 29 26  1  0  0  0  0
 31 33  1  0  0  0  0
 31 25  1  0  0  0  0
 32 31  1  0  0  0  0
 34 31  1  0  0  0  0
M  END
>  <minimizedAffinity>
-6.19700861

$$$$

 OpenBabel03242523013D

 34 37  0  0  0  0  0  0  0  0999 V2000
   36.5550   30.8900   41.4040 C   0  0  0  0  0  0  0  0  0  0  0  0
   36.1220   30.8250   40.0780 C   0  0  0  0  0  0  0  0  0  0  0  0
   36.3490   29.7170   39.3110 C   0  0  0  0  0  0  0  0  0  0  0  0
   37.0050   28.7490   39.9460 N   0  0  0  0  0  0  0  0  0  0  0  0
   37.4460   28.7360   41.1930 C   0  0  0  0  0  0  0  0  0  0  0  0
   37.2020   29.8510   41.9270 N   0  0  0  0  0  0  0  0  0  0  0  0
   36.3560   31.7930   41.9920 H   0  0  0  0  0  0  0  0  0  0  0  0
   35.5960   31.6650   39.6500 H   0  0  0  0  0  0  0  0  0  0  0  0
   38.1620   27.7130   41.9360 C   0  0  0  0  0  0  0  0  0  0  0  0
   39.0660   28.0030   42.8820 N   0  0  0  0  0  0  0  0  0  0  0  0
   39.7580   27.1100   43.6000 C   0  0  0  0  0  3  0  0  0  0  0  0
   39.5850   25.7900   43.4150 N   0  0  0  0  0  0  0  0  0  0  0  0
   38.7010   25.3990   42.4900 C   0  0  0  0  0  0  0  0  0  0  0  0
   38.5220   24.0460   42.2980 C   0  0  0  0  0  3  0  0  0  0  0  0
   37.6290   23.5770   41.3620 C   0  0  0  0  0  0  0  0  0  0  0  0
   37.4810   22.5260   41.2050 H   0  0  0  0  0  0  0  0  0  0  0  0
   36.9200   24.5330   40.6270 C   0  0  0  0  0  0  0  0  0  0  0  0
   36.2280   24.1250   39.9020 H   0  0  0  0  0  0  0  0  0  0  0  0
   37.1380   25.8730   40.8590 C   0  0  0  0  0  3  0  0  0  0  0  0
   38.0130   26.3540   41.7750 C   0  0  0  0  0  0  0  0  0  0  0  0
   38.4100   30.4840   37.2750 Cl  0  0  0  0  0  0  0  0  0  0  0  0
   36.8060   29.8870   36.9320 C   0  0  0  0  0  0  0  0  0  0  0  0
   35.9240   29.5640   37.9240 C   0  0  0  0  0  0  0  0  0  0  0  0
   34.7020   29.1110   37.5090 C   0  0  0  0  0  0  0  0  0  0  0  0
   34.3450   28.9740   36.2160 C   0  0  0  0  0  0  0  0  0  0  0  0
   35.2470   29.3020   35.2220 C   0  0  0  0  0  0  0  0  0  0  0  0
   36.4800   29.7610   35.5940 C   0  0  0  0  0  0  0  0  0  0  0  0
   33.9750   28.8460   38.2820 H   0  0  0  0  0  0  0  0  0  0  0  0
   35.0090   29.2090   34.1690 H   0  0  0  0  0  0  0  0  0  0  0  0
   37.1800   30.0150   34.8090 H   0  0  0  0  0  0  0  0  0  0  0  0
   33.0050   28.4780   35.7900 C   0  0  0  0  0  0  0  0  0  0  0  0
   32.1080   29.4940   35.9860 F   0  0  0  0  0  0  0  0  0  0  0  0
   32.6720   27.3230   36.4670 F   0  0  0  0  0  0  0  0  0  0  0  0
   33.0790   28.1750   34.4330 F   0  0  0  0  0  0  0  0  0  0  0  0
  1  6  1  0  0  0  0
  1  7  1  0  0  0  0
  2  1  2  0  0  0  0
  3  4  2  0  0  0  0
  3  2  1  0  0  0  0
  4  5  1  0  0  0  0
  5  6  2  0  0  0  0
  5  9  1  0  0  0  0
  8  2  1  0  0  0  0
  9 10  1  0  0  0  0
 10 11  2  0  0  0  0
 12 11  1  0  0  0  0
 13 12  2  0  0  0  0
 14 13  1  0  0  0  0
 15 14  2  0  0  0  0
 16 15  1  0  0  0  0
 17 19  2  0  0  0  0
 17 15  1  0  0  0  0
 18 17  1  0  0  0  0
 19 20  1  0  0  0  0
 20  9  2  0  0  0  0
 20 13  1  0  0  0  0
 22 21  1  0  0  0  0
 22 23  1  0  0  0  0
 23  3  1  0  0  0  0
 24 23  2  0  0  0  0
 24 28  1  0  0  0  0
 25 24  1  0  0  0  0
 26 27  1  0  0  0  0
 26 25  2  0  0  0  0
 27 22  2  0  0  0  0
 29 26  1  0  0  0  0
 30 27  1  0  0  0  0
 31 32  1  0  0  0  0
 31 25  1  0  0  0  0
 31 33  1  0  0  0  0
 34 31  1  0  0  0  0
M  END
>  <minimizedAffinity>
-6.16387892

$$$$

 OpenBabel03242523013D

 34 37  0  0  0  0  0  0  0  0999 V2000
   36.9580   28.1300   43.6790 C   0  0  0  0  0  0  0  0  0  0  0  0
   36.8270   26.9300   42.9800 C   0  0  0  0  0  0  0  0  0  0  0  0
   37.4960   26.7140   41.8070 C   0  0  0  0  0  0  0  0  0  0  0  0
   38.2540   27.7390   41.4260 N   0  0  0  0  0  0  0  0  0  0  0  0
   38.4290   28.9030   42.0300 C   0  0  0  0  0  0  0  0  0  0  0  0
   37.7510   29.0820   43.1920 N   0  0  0  0  0  0  0  0  0  0  0  0
   36.4080   28.2710   44.6160 H   0  0  0  0  0  0  0  0  0  0  0  0
   36.1850   26.1540   43.3710 H   0  0  0  0  0  0  0  0  0  0  0  0
   39.2400   30.0510   41.6630 C   0  0  0  0  0  0  0  0  0  0  0  0
   40.5430   30.1420   41.9600 N   0  0  0  0  0  0  0  0  0  0  0  0
   41.3440   31.1690   41.6520 C   0  0  0  0  0  3  0  0  0  0  0  0
   40.8740   32.2380   40.9870 N   0  0  0  0  0  0  0  0  0  0  0  0
   39.5800   32.2410   40.6450 C   0  0  0  0  0  0  0  0  0  0  0  0
   39.0950   33.3360   39.9620 C   0  0  0  0  0  3  0  0  0  0  0  0
   37.7740   33.4020   39.5800 C   0  0  0  0  0  0  0  0  0  0  0  0
   37.3860   34.2490   39.0480 H   0  0  0  0  0  0  0  0  0  0  0  0
   36.9620   32.3140   39.9160 C   0  0  0  0  0  0  0  0  0  0  0  0
   35.9310   32.4040   39.5990 H   0  0  0  0  0  0  0  0  0  0  0  0
   37.4980   31.2450   40.5990 C   0  0  0  0  0  3  0  0  0  0  0  0
   38.7950   31.1620   40.9830 C   0  0  0  0  0  0  0  0  0  0  0  0
   39.4490   24.5880   42.6100 Cl  0  0  0  0  0  0  0  0  0  0  0  0
   38.2740   24.4650   41.3250 C   0  0  0  0  0  0  0  0  0  0  0  0
   37.4210   25.4890   41.0200 C   0  0  0  0  0  0  0  0  0  0  0  0
   36.5560   25.2540   39.9880 C   0  0  0  0  0  0  0  0  0  0  0  0
   36.5080   24.1030   39.2870 C   0  0  0  0  0  0  0  0  0  0  0  0
   37.3750   23.0750   39.6050 C   0  0  0  0  0  0  0  0  0  0  0  0
   38.2580   23.2700   40.6310 C   0  0  0  0  0  0  0  0  0  0  0  0
   35.8610   26.0560   39.7210 H   0  0  0  0  0  0  0  0  0  0  0  0
   37.3770   22.1320   39.0730 H   0  0  0  0  0  0  0  0  0  0  0  0
   38.9330   22.4600   40.8740 H   0  0  0  0  0  0  0  0  0  0  0  0
   35.5550   23.8730   38.1640 C   0  0  0  0  0  0  0  0  0  0  0  0
   36.1920   23.0970   37.2330 F   0  0  0  0  0  0  0  0  0  0  0  0
   35.1020   25.0720   37.6530 F   0  0  0  0  0  0  0  0  0  0  0  0
   34.4590   23.1830   38.6760 F   0  0  0  0  0  0  0  0  0  0  0  0
  1  7  1  0  0  0  0
  2  8  1  0  0  0  0
  2  1  2  0  0  0  0
  3  2  1  0  0  0  0
  4  3  2  0  0  0  0
  4  5  1  0  0  0  0
  5  6  2  0  0  0  0
  6  1  1  0  0  0  0
  9 10  1  0  0  0  0
  9  5  1  0  0  0  0
 11 10  2  0  0  0  0
 12 11  1  0  0  0  0
 13 20  1  0  0  0  0
 13 12  2  0  0  0  0
 14 13  1  0  0  0  0
 15 17  1  0  0  0  0
 15 14  2  0  0  0  0
 16 15  1  0  0  0  0
 17 19  2  0  0  0  0
 18 17  1  0  0  0  0
 19 20  1  0  0  0  0
 20  9  2  0  0  0  0
 22 21  1  0  0  0  0
 23 22  1  0  0  0  0
 23  3  1  0  0  0  0
 24 23  2  0  0  0  0
 25 26  2  0  0  0  0
 25 24  1  0  0  0  0
 26 27  1  0  0  0  0
 27 30  1  0  0  0  0
 27 22  2  0  0  0  0
 28 24  1  0  0  0  0
 29 26  1  0  0  0  0
 31 34  1  0  0  0  0
 31 25  1  0  0  0  0
 32 31  1  0  0  0  0
 33 31  1  0  0  0  0
M  END
>  <minimizedAffinity>
-6.16337824

$$$$
