
 OpenBabel03242516253D

 46 51  0  0  0  0  0  0  0  0999 V2000
   49.7770   30.2120   49.4250 C   0  0  0  0  0  0  0  0  0  0  0  0
   50.0170   31.3840   50.0800 N   0  0  0  0  0  0  0  0  0  0  0  0
   50.6700   31.4500   51.2440 C   0  0  0  0  0  0  0  0  0  0  0  0
   51.1070   30.3060   51.7930 N   0  0  0  0  0  0  0  0  0  0  0  0
   50.9180   29.1090   51.2240 C   0  0  0  0  0  0  0  0  0  0  0  0
   51.3760   27.9230   51.7640 C   0  0  0  0  0  0  0  0  0  0  0  0
   51.1660   26.7180   51.1170 C   0  0  0  0  0  0  0  0  0  0  0  0
   50.4860   26.6410   49.8960 C   0  0  0  0  0  0  0  0  0  0  0  0
   50.0420   27.8510   49.3900 C   0  0  0  0  0  0  0  0  0  0  0  0
   50.2410   29.0550   50.0160 C   0  0  0  0  0  0  0  0  0  0  0  0
   50.8360   32.3930   51.7170 H   0  0  0  0  0  0  0  0  0  0  0  0
   51.8930   28.0020   52.6990 H   0  0  0  0  0  0  0  0  0  0  0  0
   51.5890   25.8680   51.6580 H   0  0  0  0  0  0  0  0  0  0  0  0
   50.4200   25.6390   49.5440 H   0  0  0  0  0  0  0  0  0  0  0  0
   49.2680   27.5350   48.1980 C   0  0  0  0  0  0  0  0  0  0  0  0
   47.9290   27.3900   47.9570 N   0  0  0  0  0  0  0  0  0  0  0  0
   47.5050   27.0970   46.7010 C   0  0  0  0  0  3  0  0  0  0  0  0
   48.3180   26.9320   45.6280 N   0  0  0  0  0  0  0  0  0  0  0  0
   49.6440   27.0680   45.8170 C   0  0  0  0  0  0  0  0  0  0  0  0
   50.4400   26.9170   44.7170 C   0  0  0  0  0  3  0  0  0  0  0  0
   51.7900   27.0620   44.8330 C   0  0  0  0  0  0  0  0  0  0  0  0
   52.4500   26.9550   43.9950 H   0  0  0  0  0  0  0  0  0  0  0  0
   52.3610   27.3610   46.0590 C   0  0  0  0  0  0  0  0  0  0  0  0
   53.4190   27.4850   46.1920 H   0  0  0  0  0  0  0  0  0  0  0  0
   51.4910   27.4950   47.1150 C   0  0  0  0  0  3  0  0  0  0  0  0
   50.1120   27.3660   47.0910 C   0  0  0  0  0  0  0  0  0  0  0  0
   48.9250   30.0950   47.8800 S   0  0  0  0  0  0  0  0  0  0  0  0
   46.0460   32.7320   46.8910 C   0  0  0  0  0  0  0  0  0  0  0  0
   47.1590   31.9460   46.9200 C   0  0  0  0  0  0  0  0  0  0  0  0
   47.4210   31.0670   47.9490 C   0  0  0  0  0  0  0  0  0  0  0  0
   46.5260   30.9550   49.0210 C   0  0  0  0  0  0  0  0  0  0  0  0
   45.4110   31.7210   49.0190 C   0  0  0  0  0  0  0  0  0  0  0  0
   45.1810   32.5940   47.9690 C   0  0  0  0  0  0  0  0  0  0  0  0
   47.8680   32.0170   46.0820 H   0  0  0  0  0  0  0  0  0  0  0  0
   46.7200   30.2800   49.8180 H   0  0  0  0  0  0  0  0  0  0  0  0
   44.6740   31.6840   49.8210 H   0  0  0  0  0  0  0  0  0  0  0  0
   44.2860   33.2010   47.9790 H   0  0  0  0  0  0  0  0  0  0  0  0
   44.5650   35.5040   45.0370 C   0  0  0  0  0  0  0  0  0  0  0  0
   45.2020   35.4530   43.7970 C   0  0  0  0  0  0  0  0  0  0  0  0
   46.1600   34.4510   43.5940 C   0  0  0  0  0  0  0  0  0  0  0  0
   46.4320   33.5720   44.6010 N   0  0  0  0  0  0  0  0  0  0  0  0
   45.7760   33.6600   45.8060 C   0  0  0  0  0  0  0  0  0  0  0  0
   44.8590   34.6200   46.0030 N   0  0  0  0  0  0  0  0  0  0  0  0
   43.8370   36.3060   45.1280 H   0  0  0  0  0  0  0  0  0  0  0  0
   45.0590   36.0980   42.9350 H   0  0  0  0  0  0  0  0  0  0  0  0
   46.7310   34.2910   42.6790 H   0  0  0  0  0  0  0  0  0  0  0  0
  1 10  2  0  0  0  0
  1  2  1  0  0  0  0
  2  3  2  0  0  0  0
  3 11  1  0  0  0  0
  3  4  1  0  0  0  0
  5  6  1  0  0  0  0
  5  4  2  0  0  0  0
  6 12  1  0  0  0  0
  7 13  1  0  0  0  0
  7  6  2  0  0  0  0
  8  7  1  0  0  0  0
  9  8  2  0  0  0  0
  9 10  1  0  0  0  0
 10  5  1  0  0  0  0
 14  8  1  0  0  0  0
 15  9  1  0  0  0  0
 16 15  1  0  0  0  0
 17 16  2  0  0  0  0
 18 19  2  0  0  0  0
 18 17  1  0  0  0  0
 19 26  1  0  0  0  0
 20 21  2  0  0  0  0
 20 19  1  0  0  0  0
 21 23  1  0  0  0  0
 22 21  1  0  0  0  0
 23 24  1  0  0  0  0
 23 25  2  0  0  0  0
 26 25  1  0  0  0  0
 26 15  2  0  0  0  0
 27 30  1  0  0  0  0
 27  1  1  0  0  0  0
 28 29  2  0  0  0  0
 28 33  1  0  0  0  0
 29 30  1  0  0  0  0
 30 31  2  0  0  0  0
 31 35  1  0  0  0  0
 32 31  1  0  0  0  0
 32 36  1  0  0  0  0
 33 37  1  0  0  0  0
 33 32  2  0  0  0  0
 34 29  1  0  0  0  0
 38 44  1  0  0  0  0
 38 43  1  0  0  0  0
 39 38  2  0  0  0  0
 40 39  1  0  0  0  0
 40 41  2  0  0  0  0
 41 42  1  0  0  0  0
 42 43  2  0  0  0  0
 42 28  1  0  0  0  0
 45 39  1  0  0  0  0
 46 40  1  0  0  0  0
M  END
>  <minimizedAffinity>
-6.64325809

>  <minimizedRMSD>
0.946498096

$$$$
