
 OpenBabel03252505073D

 46 50  0  0  1  0  0  0  0  0999 V2000
   44.5960   35.5940   44.6430 C   0  0  0  0  0  0  0  0  0  0  0  0
   45.2310   35.5810   43.3800 C   0  0  0  0  0  0  0  0  0  0  0  0
   46.2880   34.6540   43.1780 C   0  0  0  0  0  0  0  0  0  0  0  0
   46.6280   33.8340   44.2080 N   0  0  0  0  0  0  0  0  0  0  0  0
   46.0010   33.8740   45.3950 C   0  0  0  0  0  0  0  0  0  0  0  0
   44.9780   34.7580   45.6180 N   0  0  0  0  0  0  0  0  0  0  0  0
   43.8040   36.3140   44.7380 H   0  0  0  0  0  0  0  0  0  0  0  0
   44.9720   36.2230   42.5610 H   0  0  0  0  0  0  0  0  0  0  0  0
   46.4240   32.9610   46.4770 C   0  0  2  0  0  0  0  0  0  0  0  0
   46.9770   31.7410   45.7930 C   0  0  0  0  0  0  0  0  0  0  0  0
   46.0930   30.5550   45.8220 C   0  0  0  0  0  0  0  0  0  0  0  0
   45.8120   30.2910   47.2940 C   0  0  0  0  0  0  0  0  0  0  0  0
   45.0270   31.3600   47.8950 C   0  0  0  0  0  0  0  0  0  0  0  0
   45.3760   32.7320   47.4440 C   0  0  0  0  0  0  0  0  0  0  0  0
   47.2760   33.4980   46.9860 H   0  0  0  0  0  0  0  0  0  0  0  0
   47.2690   31.9380   44.7330 H   0  0  0  0  0  0  0  0  0  0  0  0
   47.9260   31.4640   46.2970 H   0  0  0  0  0  0  0  0  0  0  0  0
   45.1130   30.7400   45.3590 H   0  0  0  0  0  0  0  0  0  0  0  0
   46.6570   29.7030   45.4000 H   0  0  0  0  0  0  0  0  0  0  0  0
   45.1360   29.4010   47.2830 H   0  0  0  0  0  0  0  0  0  0  0  0
   46.7130   29.9820   47.8500 H   0  0  0  0  0  0  0  0  0  0  0  0
   44.2370   31.4490   48.5980 H   0  0  0  0  0  0  0  0  0  0  0  0
   44.6860   33.8590   47.9530 N   0  0  0  0  0  0  0  0  0  0  0  0
   45.1140   34.5280   48.6330 H   0  0  0  0  0  0  0  0  0  0  0  0
   43.7030   33.9890   47.6050 H   0  0  0  0  0  0  0  0  0  0  0  0
   46.9700   34.6160   41.8980 C   0  0  0  0  0  0  0  0  0  0  0  0
   48.0800   35.3740   41.7300 C   0  0  0  0  0  0  0  0  0  0  0  0
   48.6970   35.2850   40.4630 C   0  0  0  0  0  0  0  0  0  0  0  0
   48.1030   34.4460   39.5480 C   0  0  0  0  0  0  0  0  0  0  0  0
   46.9880   33.6850   39.7090 C   0  0  0  0  0  0  0  0  0  0  0  0
   46.4850   33.8470   40.9560 N   0  0  0  0  0  0  0  0  0  0  0  0
   48.4780   36.0030   42.4960 H   0  0  0  0  0  0  0  0  0  0  0  0
   49.5700   35.8640   40.2920 H   0  0  0  0  0  0  0  0  0  0  0  0
   48.6510   34.4450   38.6020 H   0  0  0  0  0  0  0  0  0  0  0  0
   46.5520   32.8780   38.5940 C   0  0  0  0  0  0  0  0  0  0  0  0
   47.4620   32.4000   37.7320 N   0  0  0  0  0  0  0  0  0  0  0  0
   47.1520   31.6460   36.6720 C   0  0  0  0  0  3  0  0  0  0  0  0
   45.8690   31.3030   36.3860 N   0  0  0  0  0  0  0  0  0  0  0  0
   44.8760   31.7460   37.2120 C   0  0  0  0  0  0  0  0  0  0  0  0
   43.5550   31.4310   36.9740 C   0  0  0  0  0  3  0  0  0  0  0  0
   42.5440   31.8730   37.8000 C   0  0  0  0  0  0  0  0  0  0  0  0
   41.5500   31.5610   37.5110 H   0  0  0  0  0  0  0  0  0  0  0  0
   42.9230   32.6580   38.8950 C   0  0  0  0  0  0  0  0  0  0  0  0
   42.1020   32.9830   39.5180 H   0  0  0  0  0  0  0  0  0  0  0  0
   44.2540   32.9460   39.0910 C   0  0  0  0  0  3  0  0  0  0  0  0
   45.2670   32.5150   38.2800 C   0  0  0  0  0  0  0  0  0  0  0  0
  1  7  1  0  0  0  0
  1  6  1  0  0  0  0
  2  1  2  0  0  0  0
  3  2  1  0  0  0  0
  3  4  2  0  0  0  0
  4  5  1  0  0  0  0
  5  6  2  0  0  0  0
  5  9  1  0  0  0  0
  8  2  1  0  0  0  0
  9 15  1  1  0  0  0
  9 14  1  0  0  0  0
 10 11  1  0  0  0  0
 10 17  1  0  0  0  0
 10  9  1  0  0  0  0
 11 12  1  0  0  0  0
 12 21  1  0  0  0  0
 12 13  1  0  0  0  0
 13 22  1  0  0  0  0
 14 13  2  0  0  0  0
 14 23  1  0  0  0  0
 16 10  1  0  0  0  0
 18 11  1  0  0  0  0
 19 11  1  0  0  0  0
 20 12  1  0  0  0  0
 23 24  1  0  0  0  0
 25 23  1  0  0  0  0
 26  3  1  0  0  0  0
 27 26  1  0  0  0  0
 27 32  1  0  0  0  0
 28 27  2  0  0  0  0
 29 30  2  0  0  0  0
 29 28  1  0  0  0  0
 30 31  1  0  0  0  0
 31 26  2  0  0  0  0
 33 28  1  0  0  0  0
 34 29  1  0  0  0  0
 35 30  1  0  0  0  0
 36 35  2  0  0  0  0
 37 36  1  0  0  0  0
 38 37  2  0  0  0  0
 38 39  1  0  0  0  0
 39 46  1  0  0  0  0
 40 39  2  0  0  0  0
 40 41  1  0  0  0  0
 41 43  2  0  0  0  0
 42 41  1  0  0  0  0
 43 45  1  0  0  0  0
 43 44  1  0  0  0  0
 46 35  1  0  0  0  0
 46 45  2  0  0  0  0
M  END
>  <minimizedAffinity>
-7.80932188

>  <minimizedRMSD>
0.718635142

$$$$
