
 OpenBabel03242522593D

 34 37  0  0  0  0  0  0  0  0999 V2000
   45.3670   33.2680   47.0750 C   0  0  0  0  0  0  0  0  0  0  0  0
   45.6010   33.8290   45.8190 C   0  0  0  0  0  0  0  0  0  0  0  0
   46.2170   33.1180   44.8270 C   0  0  0  0  0  0  0  0  0  0  0  0
   46.5530   31.8810   45.1830 N   0  0  0  0  0  0  0  0  0  0  0  0
   46.3670   31.2810   46.3460 C   0  0  0  0  0  0  0  0  0  0  0  0
   45.7520   32.0150   47.3080 N   0  0  0  0  0  0  0  0  0  0  0  0
   44.8720   33.8650   47.8490 H   0  0  0  0  0  0  0  0  0  0  0  0
   45.2910   34.8450   45.6250 H   0  0  0  0  0  0  0  0  0  0  0  0
   46.7100   29.9400   46.7890 C   0  0  0  0  0  0  0  0  0  0  0  0
   47.9140   29.6290   47.2890 N   0  0  0  0  0  0  0  0  0  0  0  0
   48.2940   28.4170   47.7130 C   0  0  0  0  0  3  0  0  0  0  0  0
   47.4490   27.3720   47.6670 N   0  0  0  0  0  0  0  0  0  0  0  0
   46.2210   27.5830   47.1830 C   0  0  0  0  0  0  0  0  0  0  0  0
   45.3530   26.5130   47.1340 C   0  0  0  0  0  3  0  0  0  0  0  0
   44.0730   26.6620   46.6470 C   0  0  0  0  0  0  0  0  0  0  0  0
   43.3910   25.8360   46.6040 H   0  0  0  0  0  0  0  0  0  0  0  0
   43.7060   27.9390   46.2110 C   0  0  0  0  0  0  0  0  0  0  0  0
   42.6940   28.0160   45.8360 H   0  0  0  0  0  0  0  0  0  0  0  0
   44.6130   28.9730   46.2820 C   0  0  0  0  0  3  0  0  0  0  0  0
   45.8750   28.8460   46.7570 C   0  0  0  0  0  0  0  0  0  0  0  0
   44.1510   32.4140   42.7730 Cl  0  0  0  0  0  0  0  0  0  0  0  0
   45.5950   33.3540   42.4910 C   0  0  0  0  0  0  0  0  0  0  0  0
   46.4910   33.6250   43.4870 C   0  0  0  0  0  0  0  0  0  0  0  0
   47.5780   34.3700   43.1220 C   0  0  0  0  0  0  0  0  0  0  0  0
   47.7950   34.8310   41.8730 C   0  0  0  0  0  0  0  0  0  0  0  0
   46.8810   34.5510   40.8760 C   0  0  0  0  0  0  0  0  0  0  0  0
   45.7800   33.8080   41.1990 C   0  0  0  0  0  0  0  0  0  0  0  0
   48.3120   34.6020   43.8990 H   0  0  0  0  0  0  0  0  0  0  0  0
   47.0080   34.8990   39.8580 H   0  0  0  0  0  0  0  0  0  0  0  0
   45.0690   33.5940   40.4110 H   0  0  0  0  0  0  0  0  0  0  0  0
   48.9900   35.6410   41.5020 C   0  0  0  0  0  0  0  0  0  0  0  0
   50.1010   34.9220   41.8520 F   0  0  0  0  0  0  0  0  0  0  0  0
   48.9410   36.8870   42.0940 F   0  0  0  0  0  0  0  0  0  0  0  0
   48.9650   35.8200   40.1210 F   0  0  0  0  0  0  0  0  0  0  0  0
  1  6  1  0  0  0  0
  1  7  1  0  0  0  0
  2  1  2  0  0  0  0
  3  4  2  0  0  0  0
  3  2  1  0  0  0  0
  4  5  1  0  0  0  0
  5  9  1  0  0  0  0
  5  6  2  0  0  0  0
  8  2  1  0  0  0  0
  9 10  1  0  0  0  0
 10 11  2  0  0  0  0
 12 11  1  0  0  0  0
 13 12  2  0  0  0  0
 14 13  1  0  0  0  0
 15 14  2  0  0  0  0
 16 15  1  0  0  0  0
 17 19  2  0  0  0  0
 17 15  1  0  0  0  0
 18 17  1  0  0  0  0
 19 20  1  0  0  0  0
 20  9  2  0  0  0  0
 20 13  1  0  0  0  0
 22 21  1  0  0  0  0
 22 23  1  0  0  0  0
 23  3  1  0  0  0  0
 24 23  2  0  0  0  0
 24 28  1  0  0  0  0
 25 24  1  0  0  0  0
 26 27  1  0  0  0  0
 26 25  2  0  0  0  0
 27 22  2  0  0  0  0
 29 26  1  0  0  0  0
 30 27  1  0  0  0  0
 31 32  1  0  0  0  0
 31 25  1  0  0  0  0
 31 33  1  0  0  0  0
 34 31  1  0  0  0  0
M  END
>  <minimizedAffinity>
-6.55637217

>  <minimizedRMSD>
1.7338165

$$$$
