
 OpenBabel03252505073D

 46 50  0  0  1  0  0  0  0  0999 V2000
   44.5960   35.5930   44.6440 C   0  0  0  0  0  0  0  0  0  0  0  0
   45.2300   35.5810   43.3810 C   0  0  0  0  0  0  0  0  0  0  0  0
   46.2870   34.6540   43.1800 C   0  0  0  0  0  0  0  0  0  0  0  0
   46.6280   33.8330   44.2090 N   0  0  0  0  0  0  0  0  0  0  0  0
   46.0010   33.8730   45.3960 C   0  0  0  0  0  0  0  0  0  0  0  0
   44.9780   34.7580   45.6190 N   0  0  0  0  0  0  0  0  0  0  0  0
   43.8040   36.3130   44.7390 H   0  0  0  0  0  0  0  0  0  0  0  0
   44.9710   36.2220   42.5630 H   0  0  0  0  0  0  0  0  0  0  0  0
   46.4250   32.9600   46.4780 C   0  0  2  0  0  0  0  0  0  0  0  0
   46.9780   31.7410   45.7940 C   0  0  0  0  0  0  0  0  0  0  0  0
   46.0940   30.5540   45.8220 C   0  0  0  0  0  0  0  0  0  0  0  0
   45.8130   30.2900   47.2940 C   0  0  0  0  0  0  0  0  0  0  0  0
   45.0280   31.3580   47.8960 C   0  0  0  0  0  0  0  0  0  0  0  0
   45.3770   32.7300   47.4450 C   0  0  0  0  0  0  0  0  0  0  0  0
   47.2770   33.4980   46.9870 H   0  0  0  0  0  0  0  0  0  0  0  0
   47.2690   31.9370   44.7330 H   0  0  0  0  0  0  0  0  0  0  0  0
   47.9270   31.4630   46.2970 H   0  0  0  0  0  0  0  0  0  0  0  0
   45.1130   30.7390   45.3600 H   0  0  0  0  0  0  0  0  0  0  0  0
   46.6580   29.7030   45.4010 H   0  0  0  0  0  0  0  0  0  0  0  0
   45.1370   29.4000   47.2840 H   0  0  0  0  0  0  0  0  0  0  0  0
   46.7150   29.9810   47.8500 H   0  0  0  0  0  0  0  0  0  0  0  0
   44.2380   31.4470   48.5990 H   0  0  0  0  0  0  0  0  0  0  0  0
   44.6870   33.8570   47.9540 N   0  0  0  0  0  0  0  0  0  0  0  0
   45.1140   34.5270   48.6350 H   0  0  0  0  0  0  0  0  0  0  0  0
   43.7030   33.9880   47.6070 H   0  0  0  0  0  0  0  0  0  0  0  0
   46.9690   34.6160   41.8990 C   0  0  0  0  0  0  0  0  0  0  0  0
   48.0800   35.3730   41.7310 C   0  0  0  0  0  0  0  0  0  0  0  0
   48.6970   35.2850   40.4640 C   0  0  0  0  0  0  0  0  0  0  0  0
   48.1020   34.4460   39.5490 C   0  0  0  0  0  0  0  0  0  0  0  0
   46.9860   33.6860   39.7100 C   0  0  0  0  0  0  0  0  0  0  0  0
   46.4830   33.8480   40.9560 N   0  0  0  0  0  0  0  0  0  0  0  0
   48.4780   36.0010   42.4980 H   0  0  0  0  0  0  0  0  0  0  0  0
   49.5700   35.8630   40.2940 H   0  0  0  0  0  0  0  0  0  0  0  0
   48.6500   34.4450   38.6020 H   0  0  0  0  0  0  0  0  0  0  0  0
   46.5490   32.8810   38.5940 C   0  0  0  0  0  0  0  0  0  0  0  0
   47.4580   32.4050   37.7300 N   0  0  0  0  0  0  0  0  0  0  0  0
   47.1470   31.6520   36.6690 C   0  0  0  0  0  3  0  0  0  0  0  0
   45.8650   31.3080   36.3850 N   0  0  0  0  0  0  0  0  0  0  0  0
   44.8730   31.7490   37.2120 C   0  0  0  0  0  0  0  0  0  0  0  0
   43.5520   31.4340   36.9760 C   0  0  0  0  0  3  0  0  0  0  0  0
   42.5410   31.8720   37.8050 C   0  0  0  0  0  0  0  0  0  0  0  0
   41.5470   31.5600   37.5150 H   0  0  0  0  0  0  0  0  0  0  0  0
   42.9210   32.6560   38.9000 C   0  0  0  0  0  0  0  0  0  0  0  0
   42.1000   32.9800   39.5230 H   0  0  0  0  0  0  0  0  0  0  0  0
   44.2520   32.9460   39.0930 C   0  0  0  0  0  3  0  0  0  0  0  0
   45.2640   32.5170   38.2810 C   0  0  0  0  0  0  0  0  0  0  0  0
  1  7  1  0  0  0  0
  1  6  1  0  0  0  0
  2  1  2  0  0  0  0
  3  2  1  0  0  0  0
  3  4  2  0  0  0  0
  4  5  1  0  0  0  0
  5  6  2  0  0  0  0
  5  9  1  0  0  0  0
  8  2  1  0  0  0  0
  9 15  1  1  0  0  0
  9 14  1  0  0  0  0
 10 11  1  0  0  0  0
 10 17  1  0  0  0  0
 10  9  1  0  0  0  0
 11 12  1  0  0  0  0
 12 21  1  0  0  0  0
 12 13  1  0  0  0  0
 13 22  1  0  0  0  0
 14 13  2  0  0  0  0
 14 23  1  0  0  0  0
 16 10  1  0  0  0  0
 18 11  1  0  0  0  0
 19 11  1  0  0  0  0
 20 12  1  0  0  0  0
 23 24  1  0  0  0  0
 25 23  1  0  0  0  0
 26  3  1  0  0  0  0
 27 26  1  0  0  0  0
 27 32  1  0  0  0  0
 28 27  2  0  0  0  0
 29 30  2  0  0  0  0
 29 28  1  0  0  0  0
 30 31  1  0  0  0  0
 31 26  2  0  0  0  0
 33 28  1  0  0  0  0
 34 29  1  0  0  0  0
 35 30  1  0  0  0  0
 36 35  2  0  0  0  0
 37 36  1  0  0  0  0
 38 37  2  0  0  0  0
 38 39  1  0  0  0  0
 39 46  1  0  0  0  0
 40 39  2  0  0  0  0
 40 41  1  0  0  0  0
 41 43  2  0  0  0  0
 42 41  1  0  0  0  0
 43 45  1  0  0  0  0
 43 44  1  0  0  0  0
 46 35  1  0  0  0  0
 46 45  2  0  0  0  0
M  END
>  <minimizedAffinity>
-7.80660486

>  <minimizedRMSD>
0.16721718

$$$$
