
 OpenBabel03252507433D

 34 37  0  0  0  0  0  0  0  0999 V2000
   43.9700   34.2060   42.0120 C   0  0  0  0  0  0  0  0  0  0  0  0
   43.4240   35.5200   42.1320 C   0  0  0  0  0  0  0  0  0  0  0  0
   41.6450   35.2340   41.6700 S   0  0  0  0  0  0  0  0  0  0  0  0
   41.9760   33.3980   41.4030 C   0  0  0  0  0  0  0  0  0  0  0  0
   43.0860   33.3220   41.6430 N   0  0  0  0  0  0  0  0  0  0  0  0
   43.9470   36.4190   42.4200 H   0  0  0  0  0  0  0  0  0  0  0  0
   40.7690   32.6670   40.9900 C   0  0  0  0  0  0  0  0  0  0  0  0
   40.2270   31.6000   41.6040 N   0  0  0  0  0  0  0  0  0  0  0  0
   39.1270   30.9830   41.1740 C   0  0  0  0  0  0  0  0  0  0  0  0
   38.4700   31.3900   40.0770 N   0  0  0  0  0  0  0  0  0  0  0  0
   38.9270   32.4410   39.3960 C   0  0  0  0  0  0  0  0  0  0  0  0
   38.2560   32.8630   38.2680 C   0  0  0  0  0  0  0  0  0  0  0  0
   38.7390   33.9630   37.5600 C   0  0  0  0  0  0  0  0  0  0  0  0
   38.1820   34.2590   36.6820 H   0  0  0  0  0  0  0  0  0  0  0  0
   39.8870   34.5740   38.0420 C   0  0  0  0  0  0  0  0  0  0  0  0
   40.1610   35.4170   37.4020 H   0  0  0  0  0  0  0  0  0  0  0  0
   40.5380   34.1340   39.1700 C   0  0  0  0  0  0  0  0  0  0  0  0
   40.0670   33.0510   39.8720 C   0  0  0  0  0  0  0  0  0  0  0  0
   45.3990   33.9600   42.2990 C   0  0  0  0  0  0  0  0  0  0  0  0
   45.4980   32.8580   42.5230 H   0  0  0  0  0  0  0  0  0  0  0  0
   45.7130   34.4690   43.2340 H   0  0  0  0  0  0  0  0  0  0  0  0
   46.3400   34.2860   41.2010 C   0  0  0  0  0  0  0  0  0  0  0  0
   46.0570   33.8180   40.2620 H   0  0  0  0  0  0  0  0  0  0  0  0
   46.2370   35.3980   41.0160 H   0  0  0  0  0  0  0  0  0  0  0  0
   47.7640   34.0800   41.5420 C   0  0  0  0  0  0  0  0  0  0  0  0
   48.3930   32.9770   40.9190 C   0  0  0  0  0  0  0  0  0  0  0  0
   49.7250   32.7170   41.1830 C   0  0  0  0  0  0  0  0  0  0  0  0
   50.3800   33.5560   42.0490 N   0  0  0  0  0  0  0  0  0  0  0  0
   49.7380   34.5970   42.6220 C   0  0  0  0  0  0  0  0  0  0  0  0
   48.4580   34.8480   42.3690 N   0  0  0  0  0  0  0  0  0  0  0  0
   50.2110   31.8850   40.7170 H   0  0  0  0  0  0  0  0  0  0  0  0
   50.3190   35.2280   43.3050 H   0  0  0  0  0  0  0  0  0  0  0  0
   47.4720   31.9230   39.8000 S   0  0  0  0  0  0  0  0  0  0  0  0
   46.6990   31.0460   40.6160 H   0  0  0  0  0  0  0  0  0  0  0  0
  1  2  2  0  0  0  0
  1 19  1  0  0  0  0
  2  6  1  0  0  0  0
  3  2  1  0  0  0  0
  4  5  2  0  0  0  0
  4  3  1  0  0  0  0
  5  1  1  0  0  0  0
  7  4  1  0  0  0  0
  7  8  1  0  0  0  0
  9  8  2  0  0  0  0
 10  9  1  0  0  0  0
 11 18  1  0  0  0  0
 11 10  2  0  0  0  0
 12 11  1  0  0  0  0
 13 15  1  0  0  0  0
 13 12  2  0  0  0  0
 14 13  1  0  0  0  0
 15 17  2  0  0  0  0
 16 15  1  0  0  0  0
 17 18  1  0  0  0  0
 18  7  2  0  0  0  0
 19 20  1  0  0  0  0
 19 21  1  0  0  0  0
 22 25  1  0  0  0  0
 22 19  1  0  0  0  0
 23 22  1  0  0  0  0
 24 22  1  0  0  0  0
 25 30  1  0  0  0  0
 26 27  1  0  0  0  0
 26 25  2  0  0  0  0
 27 28  2  0  0  0  0
 28 29  1  0  0  0  0
 29 32  1  0  0  0  0
 30 29  2  0  0  0  0
 31 27  1  0  0  0  0
 33 34  1  0  0  0  0
 33 26  1  0  0  0  0
M  END
>  <minimizedAffinity>
-5.66814613

>  <minimizedRMSD>
2.29408836

$$$$
