
 OpenBabel03252509243D

 30 33  0  0  1  0  0  0  0  0999 V2000
   45.3100   32.4890   41.3810 C   0  0  1  0  0  0  0  0  0  0  0  0
   44.4690   33.7270   41.7850 C   0  0  0  0  0  0  0  0  0  0  0  0
   44.1380   32.7320   40.6260 C   0  0  2  0  0  0  0  0  0  0  0  0
   45.3910   31.7360   42.1850 H   0  0  0  0  0  0  0  0  0  0  0  0
   44.8000   34.7200   41.5000 H   0  0  0  0  0  0  0  0  0  0  0  0
   43.8970   33.6090   42.7020 H   0  0  0  0  0  0  0  0  0  0  0  0
   44.2510   33.2070   39.6080 H   0  0  0  0  0  0  0  0  0  0  0  0
   42.8430   32.0710   40.7930 C   0  0  0  0  0  0  0  0  0  0  0  0
   42.5820   31.4750   41.9820 N   0  0  0  0  0  0  0  0  0  0  0  0
   41.3930   30.8590   42.1500 C   0  0  0  0  0  3  0  0  0  0  0  0
   40.4260   30.7930   41.2000 N   0  0  0  0  0  0  0  0  0  0  0  0
   40.6490   31.3760   39.9960 C   0  0  0  0  0  0  0  0  0  0  0  0
   39.7330   31.3670   38.9630 C   0  0  0  0  0  3  0  0  0  0  0  0
   39.9830   31.9680   37.7480 C   0  0  0  0  0  0  0  0  0  0  0  0
   39.2710   31.9630   36.9370 H   0  0  0  0  0  0  0  0  0  0  0  0
   41.2020   32.6030   37.5650 C   0  0  0  0  0  0  0  0  0  0  0  0
   41.3970   33.0730   36.6150 H   0  0  0  0  0  0  0  0  0  0  0  0
   42.0920   32.5960   38.6080 C   0  0  0  0  0  3  0  0  0  0  0  0
   41.8600   32.0010   39.8290 C   0  0  0  0  0  0  0  0  0  0  0  0
   47.9620   34.1230   39.2720 C   0  0  0  0  0  0  0  0  0  0  0  0
   46.6750   33.6890   39.6840 C   0  0  0  0  0  0  0  0  0  0  0  0
   46.6470   32.9320   40.8290 C   0  0  0  0  0  0  0  0  0  0  0  0
   47.8170   32.6280   41.5140 N   0  0  0  0  0  0  0  0  0  0  0  0
   49.0100   33.0610   41.0850 C   0  0  0  0  0  0  0  0  0  0  0  0
   49.0750   33.8150   39.9530 N   0  0  0  0  0  0  0  0  0  0  0  0
   48.0130   34.7260   38.3690 H   0  0  0  0  0  0  0  0  0  0  0  0
   49.8260   32.7600   41.6980 H   0  0  0  0  0  0  0  0  0  0  0  0
   45.4770   33.9830   38.9600 N   0  0  0  0  0  0  0  0  0  0  0  0
   45.4460   33.1070   38.3810 H   0  0  0  0  0  0  0  0  0  0  0  0
   44.8800   34.8350   39.0460 H   0  0  0  0  0  0  0  0  0  0  0  0
  1  2  1  0  0  0  0
  1  4  1  1  0  0  0
  2  6  1  0  0  0  0
  3  7  1  6  0  0  0
  3  8  1  0  0  0  0
  3  1  1  0  0  0  0
  3  2  1  0  0  0  0
  5  2  1  0  0  0  0
  8  9  1  0  0  0  0
  9 10  2  0  0  0  0
 11 10  1  0  0  0  0
 12 11  2  0  0  0  0
 13 12  1  0  0  0  0
 14 13  2  0  0  0  0
 15 14  1  0  0  0  0
 16 14  1  0  0  0  0
 16 18  2  0  0  0  0
 17 16  1  0  0  0  0
 18 19  1  0  0  0  0
 19 12  1  0  0  0  0
 19  8  2  0  0  0  0
 20 21  2  0  0  0  0
 20 25  1  0  0  0  0
 21 22  1  0  0  0  0
 22  1  1  0  0  0  0
 22 23  2  0  0  0  0
 24 23  1  0  0  0  0
 24 27  1  0  0  0  0
 25 24  2  0  0  0  0
 26 20  1  0  0  0  0
 28 30  1  0  0  0  0
 28 21  1  0  0  0  0
 29 28  1  0  0  0  0
M  END
>  <minimizedAffinity>
-2.64475465

>  <minimizedRMSD>
6.67958307

$$$$
