
 OpenBabel03252508363D

 34 37  0  0  0  0  0  0  0  0999 V2000
   39.2130   31.3410   39.7740 C   0  0  0  0  0  0  0  0  0  0  0  0
   39.3760   32.7040   39.5990 C   0  0  0  0  0  0  0  0  0  0  0  0
   38.2560   33.4730   39.6110 C   0  0  0  0  0  0  0  0  0  0  0  0
   36.9840   32.9770   39.7860 C   0  0  0  0  0  0  0  0  0  0  0  0
   36.8540   31.6220   39.9590 C   0  0  0  0  0  0  0  0  0  0  0  0
   37.9520   30.8010   39.9550 C   0  0  0  0  0  0  0  0  0  0  0  0
   38.4200   34.5470   39.4690 H   0  0  0  0  0  0  0  0  0  0  0  0
   36.1650   33.6850   39.7790 H   0  0  0  0  0  0  0  0  0  0  0  0
   35.8510   31.2630   40.1030 H   0  0  0  0  0  0  0  0  0  0  0  0
   37.8360   29.3690   40.1440 C   0  0  0  0  0  0  0  0  0  0  0  0
   37.8040   28.7000   38.9720 N   0  0  0  0  0  0  0  0  0  0  0  0
   37.7000   27.3530   38.9670 C   0  0  0  0  0  3  0  0  0  0  0  0
   37.6280   26.6820   40.1100 N   0  0  0  0  0  0  0  0  0  0  0  0
   37.6530   27.2790   41.3240 C   0  0  0  0  0  0  0  0  0  0  0  0
   37.5780   26.6270   42.5400 C   0  0  0  0  0  3  0  0  0  0  0  0
   37.6130   27.3700   43.7230 C   0  0  0  0  0  0  0  0  0  0  0  0
   37.5500   26.7640   44.6180 H   0  0  0  0  0  0  0  0  0  0  0  0
   37.7210   28.7490   43.6740 C   0  0  0  0  0  0  0  0  0  0  0  0
   37.7410   29.2290   44.6420 H   0  0  0  0  0  0  0  0  0  0  0  0
   37.7950   29.4030   42.4530 C   0  0  0  0  0  3  0  0  0  0  0  0
   37.7590   28.6470   41.3140 C   0  0  0  0  0  0  0  0  0  0  0  0
   42.5510   34.0000   38.0230 C   0  0  0  0  0  0  0  0  0  0  0  0
   41.2290   33.5410   38.1610 C   0  0  0  0  0  0  0  0  0  0  0  0
   40.7360   33.1850   39.4160 C   0  0  0  0  0  0  0  0  0  0  0  0
   41.6150   33.3170   40.4500 N   0  0  0  0  0  0  0  0  0  0  0  0
   42.8660   33.7530   40.3120 C   0  0  0  0  0  0  0  0  0  0  0  0
   43.3330   34.0940   39.1030 N   0  0  0  0  0  0  0  0  0  0  0  0
   42.9900   34.3460   36.7240 N   0  0  0  0  0  0  0  0  0  0  0  0
   40.6110   33.4690   37.2880 H   0  0  0  0  0  0  0  0  0  0  0  0
   43.4710   33.8160   41.2130 H   0  0  0  0  0  0  0  0  0  0  0  0
   42.4620   35.2200   36.4370 H   0  0  0  0  0  0  0  0  0  0  0  0
   43.7020   33.6270   36.4470 H   0  0  0  0  0  0  0  0  0  0  0  0
   41.2650   29.7240   39.7640 N   0  0  0  0  0  0  0  0  0  0  0  0
   40.3480   30.4480   39.7760 C   0  0  0  0  0  0  0  0  0  0  0  0
  1 34  1  0  0  0  0
  1  6  1  0  0  0  0
  2  3  1  0  0  0  0
  2  1  2  0  0  0  0
  3  4  2  0  0  0  0
  4  5  1  0  0  0  0
  5  9  1  0  0  0  0
  6  5  2  0  0  0  0
  6 10  1  0  0  0  0
  7  3  1  0  0  0  0
  8  4  1  0  0  0  0
 10 21  1  0  0  0  0
 11 10  2  0  0  0  0
 12 11  1  0  0  0  0
 12 13  2  0  0  0  0
 13 14  1  0  0  0  0
 14 15  1  0  0  0  0
 15 16  2  0  0  0  0
 16 17  1  0  0  0  0
 18 16  1  0  0  0  0
 18 19  1  0  0  0  0
 20 18  2  0  0  0  0
 21 14  2  0  0  0  0
 21 20  1  0  0  0  0
 22 23  2  0  0  0  0
 22 27  1  0  0  0  0
 23 24  1  0  0  0  0
 24  2  1  0  0  0  0
 24 25  2  0  0  0  0
 26 25  1  0  0  0  0
 26 30  1  0  0  0  0
 27 26  2  0  0  0  0
 28 22  1  0  0  0  0
 29 23  1  0  0  0  0
 31 28  1  0  0  0  0
 32 28  1  0  0  0  0
 33 34  3  0  0  0  0
M  END
>  <minimizedAffinity>
-6.52316809

$$$$

 OpenBabel03252508363D

 34 37  0  0  0  0  0  0  0  0999 V2000
   39.0080   28.2020   41.7480 C   0  0  0  0  0  0  0  0  0  0  0  0
   39.3080   27.6280   42.9710 C   0  0  0  0  0  0  0  0  0  0  0  0
   38.2680   27.3200   43.7880 C   0  0  0  0  0  0  0  0  0  0  0  0
   36.9470   27.5440   43.4700 C   0  0  0  0  0  0  0  0  0  0  0  0
   36.6810   28.1140   42.2500 C   0  0  0  0  0  0  0  0  0  0  0  0
   37.6940   28.4450   41.3880 C   0  0  0  0  0  0  0  0  0  0  0  0
   38.5390   26.8670   44.7480 H   0  0  0  0  0  0  0  0  0  0  0  0
   36.2010   27.2570   44.1990 H   0  0  0  0  0  0  0  0  0  0  0  0
   35.6410   28.2700   42.0230 H   0  0  0  0  0  0  0  0  0  0  0  0
   37.4330   29.0390   40.0920 C   0  0  0  0  0  0  0  0  0  0  0  0
   37.1870   28.1090   39.1450 N   0  0  0  0  0  0  0  0  0  0  0  0
   36.9230   28.4920   37.8770 C   0  0  0  0  0  3  0  0  0  0  0  0
   36.9030   29.7800   37.5570 N   0  0  0  0  0  0  0  0  0  0  0  0
   37.1400   30.7710   38.4470 C   0  0  0  0  0  0  0  0  0  0  0  0
   37.1340   32.1230   38.1640 C   0  0  0  0  0  3  0  0  0  0  0  0
   37.3980   33.0410   39.1820 C   0  0  0  0  0  0  0  0  0  0  0  0
   37.3670   34.0740   38.8550 H   0  0  0  0  0  0  0  0  0  0  0  0
   37.6630   32.5970   40.4660 C   0  0  0  0  0  0  0  0  0  0  0  0
   37.8530   33.3860   41.1800 H   0  0  0  0  0  0  0  0  0  0  0  0
   37.6700   31.2400   40.7500 C   0  0  0  0  0  3  0  0  0  0  0  0
   37.4080   30.3670   39.7310 C   0  0  0  0  0  0  0  0  0  0  0  0
   42.6500   25.9670   43.5330 C   0  0  0  0  0  0  0  0  0  0  0  0
   41.2860   26.1380   43.2400 C   0  0  0  0  0  0  0  0  0  0  0  0
   40.7160   27.4100   43.2670 C   0  0  0  0  0  0  0  0  0  0  0  0
   41.5650   28.4270   43.5900 N   0  0  0  0  0  0  0  0  0  0  0  0
   42.8570   28.2570   43.8670 C   0  0  0  0  0  0  0  0  0  0  0  0
   43.3980   27.0310   43.8380 N   0  0  0  0  0  0  0  0  0  0  0  0
   43.1680   24.6510   43.4870 N   0  0  0  0  0  0  0  0  0  0  0  0
   40.6950   25.2770   42.9970 H   0  0  0  0  0  0  0  0  0  0  0  0
   43.4330   29.1460   44.1100 H   0  0  0  0  0  0  0  0  0  0  0  0
   43.1590   24.3470   42.4710 H   0  0  0  0  0  0  0  0  0  0  0  0
   43.3980   24.3850   44.4750 H   0  0  0  0  0  0  0  0  0  0  0  0
   40.8970   28.8390   40.0590 N   0  0  0  0  0  0  0  0  0  0  0  0
   40.0520   28.5610   40.8170 C   0  0  0  0  0  0  0  0  0  0  0  0
  1  2  1  0  0  0  0
  2 24  1  0  0  0  0
  2  3  2  0  0  0  0
  3  7  1  0  0  0  0
  4  3  1  0  0  0  0
  4  8  1  0  0  0  0
  5  4  2  0  0  0  0
  6  1  2  0  0  0  0
  6  5  1  0  0  0  0
  9  5  1  0  0  0  0
 10  6  1  0  0  0  0
 11 10  2  0  0  0  0
 12 11  1  0  0  0  0
 13 12  2  0  0  0  0
 13 14  1  0  0  0  0
 14 21  1  0  0  0  0
 15 14  2  0  0  0  0
 15 16  1  0  0  0  0
 16 18  2  0  0  0  0
 17 16  1  0  0  0  0
 18 20  1  0  0  0  0
 18 19  1  0  0  0  0
 21 10  1  0  0  0  0
 21 20  2  0  0  0  0
 22 27  1  0  0  0  0
 23 24  1  0  0  0  0
 23 22  2  0  0  0  0
 24 25  2  0  0  0  0
 25 26  1  0  0  0  0
 26 30  1  0  0  0  0
 27 26  2  0  0  0  0
 28 22  1  0  0  0  0
 28 32  1  0  0  0  0
 29 23  1  0  0  0  0
 31 28  1  0  0  0  0
 33 34  3  0  0  0  0
 34  1  1  0  0  0  0
M  END
>  <minimizedAffinity>
-6.23934984

$$$$

 OpenBabel03252508363D

 34 37  0  0  0  0  0  0  0  0999 V2000
   38.1040   27.7230   41.4470 C   0  0  0  0  0  0  0  0  0  0  0  0
   37.2890   26.6720   41.8300 C   0  0  0  0  0  0  0  0  0  0  0  0
   36.6540   26.7790   43.0260 C   0  0  0  0  0  0  0  0  0  0  0  0
   36.7740   27.8620   43.8670 C   0  0  0  0  0  0  0  0  0  0  0  0
   37.5880   28.8900   43.4590 C   0  0  0  0  0  0  0  0  0  0  0  0
   38.2530   28.8320   42.2620 C   0  0  0  0  0  0  0  0  0  0  0  0
   36.0180   25.9310   43.3000 H   0  0  0  0  0  0  0  0  0  0  0  0
   36.2190   27.8390   44.7960 H   0  0  0  0  0  0  0  0  0  0  0  0
   37.6570   29.7260   44.1310 H   0  0  0  0  0  0  0  0  0  0  0  0
   39.1090   29.9090   41.8100 C   0  0  0  0  0  0  0  0  0  0  0  0
   40.3940   29.7320   42.1860 N   0  0  0  0  0  0  0  0  0  0  0  0
   41.3280   30.6470   41.8450 C   0  0  0  0  0  3  0  0  0  0  0  0
   40.9900   31.7200   41.1420 N   0  0  0  0  0  0  0  0  0  0  0  0
   39.7260   31.9690   40.7280 C   0  0  0  0  0  0  0  0  0  0  0  0
   39.3230   33.0700   39.9970 C   0  0  0  0  0  3  0  0  0  0  0  0
   37.9800   33.2040   39.6370 C   0  0  0  0  0  0  0  0  0  0  0  0
   37.7710   34.1010   39.0650 H   0  0  0  0  0  0  0  0  0  0  0  0
   37.0610   32.2390   40.0110 C   0  0  0  0  0  0  0  0  0  0  0  0
   36.0510   32.4350   39.6820 H   0  0  0  0  0  0  0  0  0  0  0  0
   37.4660   31.1340   40.7440 C   0  0  0  0  0  3  0  0  0  0  0  0
   38.7880   31.0330   41.0810 C   0  0  0  0  0  0  0  0  0  0  0  0
   37.6670   23.2520   40.2810 C   0  0  0  0  0  0  0  0  0  0  0  0
   37.7810   24.3150   41.1930 C   0  0  0  0  0  0  0  0  0  0  0  0
   37.1930   25.5480   40.9130 C   0  0  0  0  0  0  0  0  0  0  0  0
   36.5270   25.6230   39.7250 N   0  0  0  0  0  0  0  0  0  0  0  0
   36.4220   24.6110   38.8660 C   0  0  0  0  0  0  0  0  0  0  0  0
   36.9900   23.4290   39.1420 N   0  0  0  0  0  0  0  0  0  0  0  0
   38.2850   22.0270   40.6240 N   0  0  0  0  0  0  0  0  0  0  0  0
   38.3260   24.1620   42.1030 H   0  0  0  0  0  0  0  0  0  0  0  0
   35.8650   24.7930   37.9510 H   0  0  0  0  0  0  0  0  0  0  0  0
   37.7460   21.6230   41.4440 H   0  0  0  0  0  0  0  0  0  0  0  0
   39.0880   21.8990   39.9610 H   0  0  0  0  0  0  0  0  0  0  0  0
   39.4000   27.6830   39.1780 N   0  0  0  0  0  0  0  0  0  0  0  0
   38.8170   27.6940   40.1910 C   0  0  0  0  0  0  0  0  0  0  0  0
  1  2  2  0  0  0  0
  1  6  1  0  0  0  0
  2  3  1  0  0  0  0
  3  7  1  0  0  0  0
  3  4  2  0  0  0  0
  4  8  1  0  0  0  0
  5  4  1  0  0  0  0
  5  9  1  0  0  0  0
  6  5  2  0  0  0  0
 10 11  1  0  0  0  0
 10  6  1  0  0  0  0
 12 11  2  0  0  0  0
 13 12  1  0  0  0  0
 14 21  1  0  0  0  0
 14 13  2  0  0  0  0
 15 14  1  0  0  0  0
 16 15  2  0  0  0  0
 16 18  1  0  0  0  0
 17 16  1  0  0  0  0
 18 20  2  0  0  0  0
 19 18  1  0  0  0  0
 20 21  1  0  0  0  0
 21 10  2  0  0  0  0
 22 28  1  0  0  0  0
 22 23  1  0  0  0  0
 23 29  1  0  0  0  0
 24 23  2  0  0  0  0
 24  2  1  0  0  0  0
 25 24  1  0  0  0  0
 26 27  1  0  0  0  0
 26 25  2  0  0  0  0
 27 22  2  0  0  0  0
 28 31  1  0  0  0  0
 30 26  1  0  0  0  0
 32 28  1  0  0  0  0
 33 34  3  0  0  0  0
 34  1  1  0  0  0  0
M  END
>  <minimizedAffinity>
-6.13064575

$$$$

 OpenBabel03252508363D

 34 37  0  0  0  0  0  0  0  0999 V2000
   38.7050   30.6450   40.2070 C   0  0  0  0  0  0  0  0  0  0  0  0
   38.5710   31.5420   39.1630 C   0  0  0  0  0  0  0  0  0  0  0  0
   37.4900   31.4020   38.3530 C   0  0  0  0  0  0  0  0  0  0  0  0
   36.5310   30.4270   38.5140 C   0  0  0  0  0  0  0  0  0  0  0  0
   36.6900   29.5520   39.5600 C   0  0  0  0  0  0  0  0  0  0  0  0
   37.7640   29.6500   40.4050 C   0  0  0  0  0  0  0  0  0  0  0  0
   37.4130   32.1270   37.5360 H   0  0  0  0  0  0  0  0  0  0  0  0
   35.7100   30.4100   37.8080 H   0  0  0  0  0  0  0  0  0  0  0  0
   35.9220   28.8070   39.6670 H   0  0  0  0  0  0  0  0  0  0  0  0
   37.9450   28.7410   41.5200 C   0  0  0  0  0  0  0  0  0  0  0  0
   37.3650   29.1980   42.6500 N   0  0  0  0  0  0  0  0  0  0  0  0
   37.4380   28.4720   43.7860 C   0  0  0  0  0  3  0  0  0  0  0  0
   38.0780   27.3090   43.7980 N   0  0  0  0  0  0  0  0  0  0  0  0
   38.6840   26.7830   42.7090 C   0  0  0  0  0  0  0  0  0  0  0  0
   39.3640   25.5810   42.6700 C   0  0  0  0  0  3  0  0  0  0  0  0
   39.9470   25.1580   41.4730 C   0  0  0  0  0  0  0  0  0  0  0  0
   40.4530   24.2030   41.5510 H   0  0  0  0  0  0  0  0  0  0  0  0
   39.8440   25.9400   40.3360 C   0  0  0  0  0  0  0  0  0  0  0  0
   40.3270   25.5230   39.4640 H   0  0  0  0  0  0  0  0  0  0  0  0
   39.1630   27.1460   40.3750 C   0  0  0  0  0  3  0  0  0  0  0  0
   38.6030   27.5320   41.5620 C   0  0  0  0  0  0  0  0  0  0  0  0
   41.5310   33.5150   37.9000 C   0  0  0  0  0  0  0  0  0  0  0  0
   40.5430   32.5200   37.9960 C   0  0  0  0  0  0  0  0  0  0  0  0
   39.6080   32.5540   39.0290 C   0  0  0  0  0  0  0  0  0  0  0  0
   39.7340   33.5960   39.9000 N   0  0  0  0  0  0  0  0  0  0  0  0
   40.6730   34.5360   39.8030 C   0  0  0  0  0  0  0  0  0  0  0  0
   41.5680   34.4970   38.8070 N   0  0  0  0  0  0  0  0  0  0  0  0
   42.4490   33.4240   36.8290 N   0  0  0  0  0  0  0  0  0  0  0  0
   40.5220   31.7370   37.2630 H   0  0  0  0  0  0  0  0  0  0  0  0
   40.6710   35.3170   40.5590 H   0  0  0  0  0  0  0  0  0  0  0  0
   41.9090   33.6160   35.9360 H   0  0  0  0  0  0  0  0  0  0  0  0
   43.3810   33.1920   37.2500 H   0  0  0  0  0  0  0  0  0  0  0  0
   40.7210   30.7870   41.8640 N   0  0  0  0  0  0  0  0  0  0  0  0
   39.8240   30.7210   41.1170 C   0  0  0  0  0  0  0  0  0  0  0  0
  1  6  1  0  0  0  0
  1 34  1  0  0  0  0
  2  1  2  0  0  0  0
  3  4  2  0  0  0  0
  3  2  1  0  0  0  0
  4  5  1  0  0  0  0
  5  9  1  0  0  0  0
  5  6  2  0  0  0  0
  6 10  1  0  0  0  0
  7  3  1  0  0  0  0
  8  4  1  0  0  0  0
 10 21  2  0  0  0  0
 10 11  1  0  0  0  0
 11 12  2  0  0  0  0
 12 13  1  0  0  0  0
 14 13  2  0  0  0  0
 15 14  1  0  0  0  0
 16 17  1  0  0  0  0
 16 15  2  0  0  0  0
 18 20  2  0  0  0  0
 18 16  1  0  0  0  0
 19 18  1  0  0  0  0
 20 21  1  0  0  0  0
 21 14  1  0  0  0  0
 22 23  2  0  0  0  0
 22 27  1  0  0  0  0
 23 24  1  0  0  0  0
 24  2  1  0  0  0  0
 24 25  2  0  0  0  0
 26 25  1  0  0  0  0
 26 30  1  0  0  0  0
 27 26  2  0  0  0  0
 28 32  1  0  0  0  0
 28 22  1  0  0  0  0
 29 23  1  0  0  0  0
 31 28  1  0  0  0  0
 34 33  3  0  0  0  0
M  END
>  <minimizedAffinity>
-6.11994362

$$$$

 OpenBabel03252508363D

 34 37  0  0  0  0  0  0  0  0999 V2000
   37.1080   29.5420   39.6510 C   0  0  0  0  0  0  0  0  0  0  0  0
   36.7360   30.4050   38.6350 C   0  0  0  0  0  0  0  0  0  0  0  0
   36.9370   31.7330   38.8380 C   0  0  0  0  0  0  0  0  0  0  0  0
   37.4850   32.2610   39.9860 C   0  0  0  0  0  0  0  0  0  0  0  0
   37.8460   31.3810   40.9750 C   0  0  0  0  0  0  0  0  0  0  0  0
   37.6640   30.0310   40.8210 C   0  0  0  0  0  0  0  0  0  0  0  0
   36.6310   32.3880   38.0160 H   0  0  0  0  0  0  0  0  0  0  0  0
   37.5990   33.3360   40.0370 H   0  0  0  0  0  0  0  0  0  0  0  0
   38.2790   31.8190   41.8560 H   0  0  0  0  0  0  0  0  0  0  0  0
   38.0460   29.0850   41.8500 C   0  0  0  0  0  0  0  0  0  0  0  0
   36.9980   28.7120   42.6140 N   0  0  0  0  0  0  0  0  0  0  0  0
   37.1790   27.8310   43.6230 C   0  0  0  0  0  3  0  0  0  0  0  0
   38.3840   27.3300   43.8670 N   0  0  0  0  0  0  0  0  0  0  0  0
   39.4830   27.6540   43.1470 C   0  0  0  0  0  0  0  0  0  0  0  0
   40.7560   27.1640   43.3620 C   0  0  0  0  0  3  0  0  0  0  0  0
   41.8050   27.5870   42.5420 C   0  0  0  0  0  0  0  0  0  0  0  0
   42.7600   27.1420   42.7940 H   0  0  0  0  0  0  0  0  0  0  0  0
   41.5670   28.4910   41.5210 C   0  0  0  0  0  0  0  0  0  0  0  0
   42.4420   28.7520   40.9440 H   0  0  0  0  0  0  0  0  0  0  0  0
   40.2890   28.9840   41.3060 C   0  0  0  0  0  3  0  0  0  0  0  0
   39.2840   28.5500   42.1270 C   0  0  0  0  0  0  0  0  0  0  0  0
   36.2800   29.1290   35.1130 C   0  0  0  0  0  0  0  0  0  0  0  0
   36.8710   29.7150   36.2460 C   0  0  0  0  0  0  0  0  0  0  0  0
   36.1600   29.8040   37.4420 C   0  0  0  0  0  0  0  0  0  0  0  0
   34.8960   29.2940   37.4130 N   0  0  0  0  0  0  0  0  0  0  0  0
   34.3430   28.7400   36.3350 C   0  0  0  0  0  0  0  0  0  0  0  0
   35.0320   28.6570   35.1890 N   0  0  0  0  0  0  0  0  0  0  0  0
   37.0540   29.0680   33.9310 N   0  0  0  0  0  0  0  0  0  0  0  0
   37.8720   30.0910   36.1730 H   0  0  0  0  0  0  0  0  0  0  0  0
   33.3260   28.3680   36.4360 H   0  0  0  0  0  0  0  0  0  0  0  0
   37.8390   28.3760   34.1060 H   0  0  0  0  0  0  0  0  0  0  0  0
   36.6110   29.7280   33.2470 H   0  0  0  0  0  0  0  0  0  0  0  0
   36.7770   26.9610   39.4220 N   0  0  0  0  0  0  0  0  0  0  0  0
   36.9310   28.1150   39.5200 C   0  0  0  0  0  0  0  0  0  0  0  0
  1  6  1  0  0  0  0
  2  3  1  0  0  0  0
  2  1  2  0  0  0  0
  3  4  2  0  0  0  0
  4  8  1  0  0  0  0
  4  5  1  0  0  0  0
  5  9  1  0  0  0  0
  6  5  2  0  0  0  0
  6 10  1  0  0  0  0
  7  3  1  0  0  0  0
 10 21  2  0  0  0  0
 10 11  1  0  0  0  0
 11 12  2  0  0  0  0
 12 13  1  0  0  0  0
 14 15  1  0  0  0  0
 14 13  2  0  0  0  0
 16 17  1  0  0  0  0
 16 15  2  0  0  0  0
 18 16  1  0  0  0  0
 19 18  1  0  0  0  0
 20 18  2  0  0  0  0
 20 21  1  0  0  0  0
 21 14  1  0  0  0  0
 22 27  2  0  0  0  0
 22 23  1  0  0  0  0
 23 24  2  0  0  0  0
 24  2  1  0  0  0  0
 25 24  1  0  0  0  0
 26 30  1  0  0  0  0
 26 25  2  0  0  0  0
 27 26  1  0  0  0  0
 28 31  1  0  0  0  0
 28 22  1  0  0  0  0
 29 23  1  0  0  0  0
 32 28  1  0  0  0  0
 33 34  3  0  0  0  0
 34  1  1  0  0  0  0
M  END
>  <minimizedAffinity>
-5.86810303

$$$$

 OpenBabel03252508363D

 34 37  0  0  0  0  0  0  0  0999 V2000
   38.7650   29.8340   40.6560 C   0  0  0  0  0  0  0  0  0  0  0  0
   38.3920   31.0450   40.0980 C   0  0  0  0  0  0  0  0  0  0  0  0
   37.1300   31.4820   40.3420 C   0  0  0  0  0  0  0  0  0  0  0  0
   36.2110   30.7950   41.1050 C   0  0  0  0  0  0  0  0  0  0  0  0
   36.6100   29.5980   41.6460 C   0  0  0  0  0  0  0  0  0  0  0  0
   37.8740   29.1120   41.4300 C   0  0  0  0  0  0  0  0  0  0  0  0
   36.8660   32.4420   39.8860 H   0  0  0  0  0  0  0  0  0  0  0  0
   35.2340   31.2400   41.2320 H   0  0  0  0  0  0  0  0  0  0  0  0
   35.8770   29.0880   42.2430 H   0  0  0  0  0  0  0  0  0  0  0  0
   38.3170   27.8550   41.9990 C   0  0  0  0  0  0  0  0  0  0  0  0
   39.1330   28.0350   43.0590 N   0  0  0  0  0  0  0  0  0  0  0  0
   39.6380   26.9640   43.7100 C   0  0  0  0  0  3  0  0  0  0  0  0
   39.3350   25.7340   43.3140 N   0  0  0  0  0  0  0  0  0  0  0  0
   38.5250   25.4710   42.2620 C   0  0  0  0  0  0  0  0  0  0  0  0
   38.1810   24.2130   41.8080 C   0  0  0  0  0  3  0  0  0  0  0  0
   37.3340   24.0850   40.7050 C   0  0  0  0  0  0  0  0  0  0  0  0
   37.1270   23.0570   40.4330 H   0  0  0  0  0  0  0  0  0  0  0  0
   36.8440   25.2140   40.0720 C   0  0  0  0  0  0  0  0  0  0  0  0
   36.1970   25.0080   39.2320 H   0  0  0  0  0  0  0  0  0  0  0  0
   37.1890   26.4780   40.5270 C   0  0  0  0  0  3  0  0  0  0  0  0
   38.0200   26.5680   41.6090 C   0  0  0  0  0  0  0  0  0  0  0  0
   41.0820   33.4540   39.0000 C   0  0  0  0  0  0  0  0  0  0  0  0
   40.1240   32.8100   39.8030 C   0  0  0  0  0  0  0  0  0  0  0  0
   39.3920   31.7360   39.2990 C   0  0  0  0  0  0  0  0  0  0  0  0
   39.6770   31.3830   38.0130 N   0  0  0  0  0  0  0  0  0  0  0  0
   40.5870   31.9980   37.2580 C   0  0  0  0  0  0  0  0  0  0  0  0
   41.2870   33.0290   37.7490 N   0  0  0  0  0  0  0  0  0  0  0  0
   41.7920   34.5360   39.5700 N   0  0  0  0  0  0  0  0  0  0  0  0
   39.9680   33.1590   40.8050 H   0  0  0  0  0  0  0  0  0  0  0  0
   40.7250   31.6240   36.2470 H   0  0  0  0  0  0  0  0  0  0  0  0
   42.4240   34.1350   40.3220 H   0  0  0  0  0  0  0  0  0  0  0  0
   41.4710   35.4010   39.0730 H   0  0  0  0  0  0  0  0  0  0  0  0
   41.1540   28.8450   40.2790 N   0  0  0  0  0  0  0  0  0  0  0  0
   40.0890   29.2940   40.4490 C   0  0  0  0  0  0  0  0  0  0  0  0
  1  6  1  0  0  0  0
  2  3  1  0  0  0  0
  2  1  2  0  0  0  0
  3  4  2  0  0  0  0
  4  8  1  0  0  0  0
  4  5  1  0  0  0  0
  5  9  1  0  0  0  0
  6  5  2  0  0  0  0
  6 10  1  0  0  0  0
  7  3  1  0  0  0  0
 10 11  1  0  0  0  0
 11 12  2  0  0  0  0
 13 12  1  0  0  0  0
 14 13  2  0  0  0  0
 15 14  1  0  0  0  0
 16 15  2  0  0  0  0
 17 16  1  0  0  0  0
 18 20  2  0  0  0  0
 18 16  1  0  0  0  0
 19 18  1  0  0  0  0
 20 21  1  0  0  0  0
 21 10  2  0  0  0  0
 21 14  1  0  0  0  0
 22 28  1  0  0  0  0
 22 23  1  0  0  0  0
 23 29  1  0  0  0  0
 24 23  2  0  0  0  0
 24  2  1  0  0  0  0
 25 24  1  0  0  0  0
 26 27  1  0  0  0  0
 26 25  2  0  0  0  0
 27 22  2  0  0  0  0
 28 31  1  0  0  0  0
 30 26  1  0  0  0  0
 32 28  1  0  0  0  0
 33 34  3  0  0  0  0
 34  1  1  0  0  0  0
M  END
>  <minimizedAffinity>
-5.85428715

$$$$

 OpenBabel03252508363D

 34 37  0  0  0  0  0  0  0  0999 V2000
   38.6380   27.2970   41.5740 C   0  0  0  0  0  0  0  0  0  0  0  0
   39.1580   27.4150   42.8510 C   0  0  0  0  0  0  0  0  0  0  0  0
   38.2790   27.6140   43.8670 C   0  0  0  0  0  0  0  0  0  0  0  0
   36.9150   27.7050   43.6980 C   0  0  0  0  0  0  0  0  0  0  0  0
   36.4290   27.5830   42.4200 C   0  0  0  0  0  0  0  0  0  0  0  0
   37.2740   27.3820   41.3590 C   0  0  0  0  0  0  0  0  0  0  0  0
   38.7220   27.7030   44.8640 H   0  0  0  0  0  0  0  0  0  0  0  0
   36.3110   27.8640   44.5810 H   0  0  0  0  0  0  0  0  0  0  0  0
   35.3610   27.6490   42.3180 H   0  0  0  0  0  0  0  0  0  0  0  0
   36.7790   27.2420   40.0040 C   0  0  0  0  0  0  0  0  0  0  0  0
   36.6980   28.4290   39.3660 N   0  0  0  0  0  0  0  0  0  0  0  0
   36.2560   28.4800   38.0900 C   0  0  0  0  0  3  0  0  0  0  0  0
   35.9000   27.3680   37.4600 N   0  0  0  0  0  0  0  0  0  0  0  0
   35.9520   26.1410   38.0300 C   0  0  0  0  0  0  0  0  0  0  0  0
   35.5920   24.9560   37.4180 C   0  0  0  0  0  3  0  0  0  0  0  0
   35.6940   23.7570   38.1270 C   0  0  0  0  0  0  0  0  0  0  0  0
   35.3880   22.8880   37.5560 H   0  0  0  0  0  0  0  0  0  0  0  0
   36.1530   23.7580   39.4330 C   0  0  0  0  0  0  0  0  0  0  0  0
   36.1960   22.7810   39.8910 H   0  0  0  0  0  0  0  0  0  0  0  0
   36.5140   24.9480   40.0460 C   0  0  0  0  0  3  0  0  0  0  0  0
   36.4030   26.1050   39.3250 C   0  0  0  0  0  0  0  0  0  0  0  0
   42.6390   26.0370   43.3280 C   0  0  0  0  0  0  0  0  0  0  0  0
   41.2400   26.0940   43.2040 C   0  0  0  0  0  0  0  0  0  0  0  0
   40.6030   27.3150   42.9840 C   0  0  0  0  0  0  0  0  0  0  0  0
   41.4260   28.3990   42.9040 N   0  0  0  0  0  0  0  0  0  0  0  0
   42.7510   28.3380   43.0230 C   0  0  0  0  0  0  0  0  0  0  0  0
   43.3560   27.1600   43.2340 N   0  0  0  0  0  0  0  0  0  0  0  0
   43.2240   24.7680   43.5490 N   0  0  0  0  0  0  0  0  0  0  0  0
   40.6740   25.1860   43.2820 H   0  0  0  0  0  0  0  0  0  0  0  0
   43.3000   29.2720   42.9400 H   0  0  0  0  0  0  0  0  0  0  0  0
   43.0960   24.2050   42.6600 H   0  0  0  0  0  0  0  0  0  0  0  0
   43.6010   24.7780   44.5280 H   0  0  0  0  0  0  0  0  0  0  0  0
   40.2060   26.9020   39.5210 N   0  0  0  0  0  0  0  0  0  0  0  0
   39.5000   27.0830   40.4350 C   0  0  0  0  0  0  0  0  0  0  0  0
  1  2  1  0  0  0  0
  2 24  1  0  0  0  0
  2  3  2  0  0  0  0
  3  7  1  0  0  0  0
  4  3  1  0  0  0  0
  4  8  1  0  0  0  0
  5  4  2  0  0  0  0
  6  1  2  0  0  0  0
  6  5  1  0  0  0  0
  9  5  1  0  0  0  0
 10  6  1  0  0  0  0
 11 10  1  0  0  0  0
 12 11  2  0  0  0  0
 13 14  2  0  0  0  0
 13 12  1  0  0  0  0
 14 21  1  0  0  0  0
 15 14  1  0  0  0  0
 15 16  2  0  0  0  0
 16 18  1  0  0  0  0
 17 16  1  0  0  0  0
 18 19  1  0  0  0  0
 18 20  2  0  0  0  0
 21 10  2  0  0  0  0
 21 20  1  0  0  0  0
 22 28  1  0  0  0  0
 23 29  1  0  0  0  0
 23 22  2  0  0  0  0
 24 23  1  0  0  0  0
 25 24  2  0  0  0  0
 25 26  1  0  0  0  0
 26 27  2  0  0  0  0
 27 22  1  0  0  0  0
 28 32  1  0  0  0  0
 30 26  1  0  0  0  0
 31 28  1  0  0  0  0
 33 34  3  0  0  0  0
 34  1  1  0  0  0  0
M  END
>  <minimizedAffinity>
-5.81875515

$$$$

 OpenBabel03252508363D

 34 37  0  0  0  0  0  0  0  0999 V2000
   38.2040   28.1730   40.9580 C   0  0  0  0  0  0  0  0  0  0  0  0
   37.9180   29.2040   41.8370 C   0  0  0  0  0  0  0  0  0  0  0  0
   37.2940   28.8780   42.9990 C   0  0  0  0  0  0  0  0  0  0  0  0
   36.9340   27.5950   43.3460 C   0  0  0  0  0  0  0  0  0  0  0  0
   37.2310   26.5940   42.4540 C   0  0  0  0  0  0  0  0  0  0  0  0
   37.8600   26.8690   41.2680 C   0  0  0  0  0  0  0  0  0  0  0  0
   37.0820   29.7160   43.6720 H   0  0  0  0  0  0  0  0  0  0  0  0
   36.4410   27.4540   44.2980 H   0  0  0  0  0  0  0  0  0  0  0  0
   36.9470   25.6020   42.7540 H   0  0  0  0  0  0  0  0  0  0  0  0
   38.1900   25.8260   40.3180 C   0  0  0  0  0  0  0  0  0  0  0  0
   39.3870   25.2580   40.5790 N   0  0  0  0  0  0  0  0  0  0  0  0
   39.8480   24.2640   39.7890 C   0  0  0  0  0  3  0  0  0  0  0  0
   39.1310   23.8420   38.7550 N   0  0  0  0  0  0  0  0  0  0  0  0
   37.9240   24.3590   38.4280 C   0  0  0  0  0  0  0  0  0  0  0  0
   37.1410   23.9580   37.3630 C   0  0  0  0  0  3  0  0  0  0  0  0
   35.9110   24.5820   37.1380 C   0  0  0  0  0  0  0  0  0  0  0  0
   35.3770   24.1920   36.2800 H   0  0  0  0  0  0  0  0  0  0  0  0
   35.4840   25.5970   37.9770 C   0  0  0  0  0  0  0  0  0  0  0  0
   34.5210   26.0120   37.7190 H   0  0  0  0  0  0  0  0  0  0  0  0
   36.2700   26.0000   39.0450 C   0  0  0  0  0  3  0  0  0  0  0  0
   37.4680   25.3680   39.2380 C   0  0  0  0  0  0  0  0  0  0  0  0
   37.8480   32.7010   40.4200 C   0  0  0  0  0  0  0  0  0  0  0  0
   37.4280   31.4140   40.8000 C   0  0  0  0  0  0  0  0  0  0  0  0
   38.3150   30.5430   41.4310 C   0  0  0  0  0  0  0  0  0  0  0  0
   39.5710   31.0320   41.6360 N   0  0  0  0  0  0  0  0  0  0  0  0
   39.9620   32.2530   41.2740 C   0  0  0  0  0  0  0  0  0  0  0  0
   39.1030   33.0850   40.6680 N   0  0  0  0  0  0  0  0  0  0  0  0
   36.9000   33.5360   39.7850 N   0  0  0  0  0  0  0  0  0  0  0  0
   36.4180   31.1160   40.5950 H   0  0  0  0  0  0  0  0  0  0  0  0
   40.9900   32.5290   41.4920 H   0  0  0  0  0  0  0  0  0  0  0  0
   36.1690   33.7890   40.5100 H   0  0  0  0  0  0  0  0  0  0  0  0
   37.2140   33.6450   38.7900 H   0  0  0  0  0  0  0  0  0  0  0  0
   39.4150   28.6380   38.6900 N   0  0  0  0  0  0  0  0  0  0  0  0
   38.8670   28.4280   39.7010 C   0  0  0  0  0  0  0  0  0  0  0  0
  1  6  2  0  0  0  0
  1  2  1  0  0  0  0
  2  3  2  0  0  0  0
  3  4  1  0  0  0  0
  3  7  1  0  0  0  0
  4  8  1  0  0  0  0
  5  9  1  0  0  0  0
  5  4  2  0  0  0  0
  6  5  1  0  0  0  0
 10 11  1  0  0  0  0
 10  6  1  0  0  0  0
 12 11  2  0  0  0  0
 13 12  1  0  0  0  0
 14 13  2  0  0  0  0
 14 21  1  0  0  0  0
 15 14  1  0  0  0  0
 16 15  2  0  0  0  0
 16 18  1  0  0  0  0
 17 16  1  0  0  0  0
 18 20  2  0  0  0  0
 19 18  1  0  0  0  0
 20 21  1  0  0  0  0
 21 10  2  0  0  0  0
 22 27  2  0  0  0  0
 22 23  1  0  0  0  0
 23 24  2  0  0  0  0
 24 25  1  0  0  0  0
 24  2  1  0  0  0  0
 26 30  1  0  0  0  0
 26 25  2  0  0  0  0
 27 26  1  0  0  0  0
 28 22  1  0  0  0  0
 28 31  1  0  0  0  0
 29 23  1  0  0  0  0
 32 28  1  0  0  0  0
 33 34  3  0  0  0  0
 34  1  1  0  0  0  0
M  END
>  <minimizedAffinity>
-5.70441723

$$$$

 OpenBabel03252508363D

 34 37  0  0  0  0  0  0  0  0999 V2000
   39.7450   32.2040   40.0860 C   0  0  0  0  0  0  0  0  0  0  0  0
   40.3550   33.4370   39.9310 C   0  0  0  0  0  0  0  0  0  0  0  0
   39.5570   34.5350   39.9530 C   0  0  0  0  0  0  0  0  0  0  0  0
   38.1910   34.4900   40.1180 C   0  0  0  0  0  0  0  0  0  0  0  0
   37.6140   33.2540   40.2710 C   0  0  0  0  0  0  0  0  0  0  0  0
   38.3750   32.1130   40.2560 C   0  0  0  0  0  0  0  0  0  0  0  0
   40.0700   35.4940   39.8270 H   0  0  0  0  0  0  0  0  0  0  0  0
   37.6550   35.4310   40.1200 H   0  0  0  0  0  0  0  0  0  0  0  0
   36.5480   33.2490   40.4070 H   0  0  0  0  0  0  0  0  0  0  0  0
   37.7870   30.8000   40.4240 C   0  0  0  0  0  0  0  0  0  0  0  0
   37.9050   30.3460   41.6900 N   0  0  0  0  0  0  0  0  0  0  0  0
   37.4080   29.1340   42.0210 C   0  0  0  0  0  3  0  0  0  0  0  0
   36.8030   28.3860   41.1070 N   0  0  0  0  0  0  0  0  0  0  0  0
   36.6440   28.7700   39.8190 C   0  0  0  0  0  0  0  0  0  0  0  0
   36.0250   28.0280   38.8320 C   0  0  0  0  0  3  0  0  0  0  0  0
   35.9320   28.5460   37.5370 C   0  0  0  0  0  0  0  0  0  0  0  0
   35.4280   27.8870   36.8410 H   0  0  0  0  0  0  0  0  0  0  0  0
   36.4580   29.7940   37.2500 C   0  0  0  0  0  0  0  0  0  0  0  0
   36.3330   30.1030   36.2220 H   0  0  0  0  0  0  0  0  0  0  0  0
   37.0800   30.5380   38.2410 C   0  0  0  0  0  3  0  0  0  0  0  0
   37.1540   30.0020   39.4970 C   0  0  0  0  0  0  0  0  0  0  0  0
   43.7910   33.5620   38.3730 C   0  0  0  0  0  0  0  0  0  0  0  0
   42.3900   33.5670   38.5020 C   0  0  0  0  0  0  0  0  0  0  0  0
   41.8000   33.4380   39.7580 C   0  0  0  0  0  0  0  0  0  0  0  0
   42.6660   33.3120   40.8040 N   0  0  0  0  0  0  0  0  0  0  0  0
   43.9910   33.3080   40.6740 C   0  0  0  0  0  0  0  0  0  0  0  0
   44.5520   33.4330   39.4640 N   0  0  0  0  0  0  0  0  0  0  0  0
   44.3280   33.6970   37.0720 N   0  0  0  0  0  0  0  0  0  0  0  0
   41.7890   33.6700   37.6200 H   0  0  0  0  0  0  0  0  0  0  0  0
   44.5770   33.2020   41.5830 H   0  0  0  0  0  0  0  0  0  0  0  0
   44.1180   34.6850   36.7480 H   0  0  0  0  0  0  0  0  0  0  0  0
   44.7660   32.7760   36.8310 H   0  0  0  0  0  0  0  0  0  0  0  0
   41.1530   30.0030   40.0630 N   0  0  0  0  0  0  0  0  0  0  0  0
   40.5170   30.9840   40.0770 C   0  0  0  0  0  0  0  0  0  0  0  0
  1  6  1  0  0  0  0
  2  3  1  0  0  0  0
  2  1  2  0  0  0  0
  3  4  2  0  0  0  0
  4  8  1  0  0  0  0
  4  5  1  0  0  0  0
  5  9  1  0  0  0  0
  6  5  2  0  0  0  0
  6 10  1  0  0  0  0
  7  3  1  0  0  0  0
 10 11  1  0  0  0  0
 11 12  2  0  0  0  0
 13 12  1  0  0  0  0
 14 13  2  0  0  0  0
 15 14  1  0  0  0  0
 16 15  2  0  0  0  0
 17 16  1  0  0  0  0
 18 16  1  0  0  0  0
 18 20  2  0  0  0  0
 19 18  1  0  0  0  0
 20 21  1  0  0  0  0
 21 14  1  0  0  0  0
 21 10  2  0  0  0  0
 22 23  2  0  0  0  0
 22 27  1  0  0  0  0
 23 24  1  0  0  0  0
 24  2  1  0  0  0  0
 24 25  2  0  0  0  0
 26 25  1  0  0  0  0
 26 30  1  0  0  0  0
 27 26  2  0  0  0  0
 28 22  1  0  0  0  0
 29 23  1  0  0  0  0
 31 28  1  0  0  0  0
 32 28  1  0  0  0  0
 33 34  3  0  0  0  0
 34  1  1  0  0  0  0
M  END
>  <minimizedAffinity>
-5.63921356

$$$$
