
 OpenBabel03252509233D

 30 33  0  0  1  0  0  0  0  0999 V2000
   46.4610   35.0550   41.8860 C   0  0  1  0  0  0  0  0  0  0  0  0
   48.0080   35.0600   41.7920 C   0  0  0  0  0  0  0  0  0  0  0  0
   47.0550   33.9940   41.1620 C   0  0  2  0  0  0  0  0  0  0  0  0
   45.9930   35.9420   41.4240 H   0  0  0  0  0  0  0  0  0  0  0  0
   48.6010   34.7460   42.6450 H   0  0  0  0  0  0  0  0  0  0  0  0
   48.4200   35.8030   41.1140 H   0  0  0  0  0  0  0  0  0  0  0  0
   47.1430   32.9890   41.6670 H   0  0  0  0  0  0  0  0  0  0  0  0
   47.1870   33.9010   39.7070 C   0  0  0  0  0  0  0  0  0  0  0  0
   48.2570   34.4940   39.1260 N   0  0  0  0  0  0  0  0  0  0  0  0
   48.3910   34.4160   37.7840 C   0  0  0  0  0  3  0  0  0  0  0  0
   47.5170   33.7790   36.9650 N   0  0  0  0  0  0  0  0  0  0  0  0
   46.4330   33.1720   37.5080 C   0  0  0  0  0  0  0  0  0  0  0  0
   45.4850   32.4970   36.7650 C   0  0  0  0  0  3  0  0  0  0  0  0
   44.3920   31.8870   37.3410 C   0  0  0  0  0  0  0  0  0  0  0  0
   43.6480   31.3580   36.7660 H   0  0  0  0  0  0  0  0  0  0  0  0
   44.2440   31.9600   38.7180 C   0  0  0  0  0  0  0  0  0  0  0  0
   43.3890   31.4820   39.1680 H   0  0  0  0  0  0  0  0  0  0  0  0
   45.2010   32.6380   39.4310 C   0  0  0  0  0  3  0  0  0  0  0  0
   46.3000   33.2520   38.8720 C   0  0  0  0  0  0  0  0  0  0  0  0
   44.7090   35.3390   45.2040 C   0  0  0  0  0  0  0  0  0  0  0  0
   45.1120   35.6690   43.8830 C   0  0  0  0  0  0  0  0  0  0  0  0
   46.0310   34.8190   43.3170 C   0  0  0  0  0  0  0  0  0  0  0  0
   46.5150   33.7210   44.0170 N   0  0  0  0  0  0  0  0  0  0  0  0
   46.1040   33.4510   45.2630 C   0  0  0  0  0  0  0  0  0  0  0  0
   45.1920   34.2700   45.8550 N   0  0  0  0  0  0  0  0  0  0  0  0
   43.9810   35.9930   45.6750 H   0  0  0  0  0  0  0  0  0  0  0  0
   46.5500   32.5820   45.6870 H   0  0  0  0  0  0  0  0  0  0  0  0
   44.6310   36.8170   43.1790 N   0  0  0  0  0  0  0  0  0  0  0  0
   45.4040   37.4760   43.4420 H   0  0  0  0  0  0  0  0  0  0  0  0
   43.7620   36.8860   42.6020 H   0  0  0  0  0  0  0  0  0  0  0  0
  1  4  1  6  0  0  0
  1 22  1  0  0  0  0
  2  1  1  0  0  0  0
  2  5  1  0  0  0  0
  3  7  1  1  0  0  0
  3  2  1  0  0  0  0
  3  1  1  0  0  0  0
  6  2  1  0  0  0  0
  8  3  1  0  0  0  0
  9  8  1  0  0  0  0
 10  9  2  0  0  0  0
 11 12  2  0  0  0  0
 11 10  1  0  0  0  0
 12 19  1  0  0  0  0
 13 14  2  0  0  0  0
 13 12  1  0  0  0  0
 14 16  1  0  0  0  0
 15 14  1  0  0  0  0
 16 17  1  0  0  0  0
 16 18  2  0  0  0  0
 19 18  1  0  0  0  0
 19  8  2  0  0  0  0
 20 26  1  0  0  0  0
 20 25  1  0  0  0  0
 21 20  2  0  0  0  0
 22 21  1  0  0  0  0
 22 23  2  0  0  0  0
 23 24  1  0  0  0  0
 24 27  1  0  0  0  0
 24 25  2  0  0  0  0
 28 29  1  0  0  0  0
 28 21  1  0  0  0  0
 30 28  1  0  0  0  0
M  END
>  <minimizedAffinity>
-5.74617386

>  <minimizedRMSD>
1.39767754

$$$$
