
 OpenBabel03252509333D

 43 46  0  0  1  0  0  0  0  0999 V2000
   45.3560   31.1710   41.3010 C   0  0  1  0  0  0  0  0  0  0  0  0
   44.5130   32.0590   40.4250 C   0  0  0  0  0  0  0  0  0  0  0  0
   45.1180   31.8310   39.0660 C   0  0  0  0  0  0  0  0  0  0  0  0
   46.5580   31.4650   39.3100 C   0  0  0  0  0  0  0  0  0  0  0  0
   46.7650   31.5450   40.8270 C   0  0  1  0  0  0  0  0  0  0  0  0
   45.2180   30.1100   41.0190 H   0  0  0  0  0  0  0  0  0  0  0  0
   43.4750   31.6380   40.3880 H   0  0  0  0  0  0  0  0  0  0  0  0
   44.5380   33.1010   40.7410 H   0  0  0  0  0  0  0  0  0  0  0  0
   44.6230   30.9820   38.5250 H   0  0  0  0  0  0  0  0  0  0  0  0
   44.9980   32.7290   38.4260 H   0  0  0  0  0  0  0  0  0  0  0  0
   47.1940   32.2300   38.8000 H   0  0  0  0  0  0  0  0  0  0  0  0
   46.8410   30.4880   38.8950 H   0  0  0  0  0  0  0  0  0  0  0  0
   47.4240   30.7150   41.1070 H   0  0  0  0  0  0  0  0  0  0  0  0
   47.1820   32.8790   41.2550 C   0  0  0  0  0  0  0  0  0  0  0  0
   48.4630   33.2760   41.1360 N   0  0  0  0  0  0  0  0  0  0  0  0
   48.8880   34.5100   41.5220 C   0  0  0  0  0  3  0  0  0  0  0  0
   48.0520   35.4160   42.0490 N   0  0  0  0  0  0  0  0  0  0  0  0
   46.7550   35.0950   42.2000 C   0  0  0  0  0  0  0  0  0  0  0  0
   45.8400   35.9930   42.7410 C   0  0  0  0  0  3  0  0  0  0  0  0
   44.5140   35.6470   42.8890 C   0  0  0  0  0  0  0  0  0  0  0  0
   43.8260   36.3620   43.3110 H   0  0  0  0  0  0  0  0  0  0  0  0
   44.0640   34.3820   42.4960 C   0  0  0  0  0  0  0  0  0  0  0  0
   43.0240   34.0990   42.6080 H   0  0  0  0  0  0  0  0  0  0  0  0
   45.0100   33.5250   41.9640 C   0  0  0  0  0  3  0  0  0  0  0  0
   46.3440   33.8280   41.7980 C   0  0  0  0  0  0  0  0  0  0  0  0
   45.2070   31.3940   42.6520 O   0  0  0  0  0  0  0  0  0  0  0  0
   45.1900   30.0940   44.8980 O   0  0  0  0  0  0  0  0  0  0  0  0
   44.9170   29.9350   43.4360 P   0  0  1  0  0  0  0  0  0  0  0  0
   43.3700   29.3630   43.1380 O   0  0  0  0  0  0  0  0  0  0  0  0
   42.7910   29.5980   43.9070 H   0  0  0  0  0  0  0  0  0  0  0  0
   45.9680   28.7750   42.7790 O   0  0  0  0  0  0  0  0  0  0  0  0
   45.5560   27.5430   43.1930 C   0  0  0  0  0  0  0  0  0  0  0  0
   44.5130   27.3830   43.4170 H   0  0  0  0  0  0  0  0  0  0  0  0
   45.7840   26.8480   42.3310 H   0  0  0  0  0  0  0  0  0  0  0  0
   48.4780   26.6720   45.3260 C   0  0  0  0  0  0  0  0  0  0  0  0
   47.7270   27.1590   44.2510 C   0  0  0  0  0  0  0  0  0  0  0  0
   46.3500   27.0350   44.3160 C   0  0  0  0  0  0  0  0  0  0  0  0
   45.7890   26.4460   45.4210 N   0  0  0  0  0  0  0  0  0  0  0  0
   46.5510   25.9870   46.4430 C   0  0  0  0  0  0  0  0  0  0  0  0
   47.8700   26.1020   46.3870 N   0  0  0  0  0  0  0  0  0  0  0  0
   49.5420   26.7930   45.2250 H   0  0  0  0  0  0  0  0  0  0  0  0
   48.1860   27.6180   43.3920 H   0  0  0  0  0  0  0  0  0  0  0  0
   46.0830   25.5230   47.3100 H   0  0  0  0  0  0  0  0  0  0  0  0
  1  6  1  6  0  0  0
  1 26  1  0  0  0  0
  2  8  1  0  0  0  0
  2  1  1  0  0  0  0
  3  4  1  0  0  0  0
  3  2  1  0  0  0  0
  4  5  1  0  0  0  0
  5 13  1  1  0  0  0
  5 14  1  0  0  0  0
  5  1  1  0  0  0  0
  7  2  1  0  0  0  0
  9  3  1  0  0  0  0
 10  3  1  0  0  0  0
 11  4  1  0  0  0  0
 12  4  1  0  0  0  0
 14 25  1  0  0  0  0
 15 14  2  0  0  0  0
 15 16  1  0  0  0  0
 16 17  2  0  0  0  0
 17 18  1  0  0  0  0
 18 19  1  0  0  0  0
 19 20  2  0  0  0  0
 20 21  1  0  0  0  0
 22 23  1  0  0  0  0
 22 20  1  0  0  0  0
 24 22  2  0  0  0  0
 25 24  1  0  0  0  0
 25 18  2  0  0  0  0
 26 28  1  0  0  0  0
 28 27  2  1  0  0  0
 29 28  1  0  0  0  0
 29 30  1  0  0  0  0
 31 32  1  0  0  0  0
 31 28  1  0  0  0  0
 32 33  1  0  0  0  0
 32 37  1  0  0  0  0
 34 32  1  0  0  0  0
 35 40  1  0  0  0  0
 36 37  1  0  0  0  0
 36 35  2  0  0  0  0
 37 38  2  0  0  0  0
 38 39  1  0  0  0  0
 39 43  1  0  0  0  0
 40 39  2  0  0  0  0
 41 35  1  0  0  0  0
 42 36  1  0  0  0  0
M  END
>  <minimizedAffinity>
-2.90854669

>  <minimizedRMSD>
4.54826736

$$$$
