
 OpenBabel03252507323D

 52 56  0  0  1  0  0  0  0  0999 V2000
   46.9960   32.7310   45.5350 C   0  0  0  0  0  0  0  0  0  0  0  0
   45.8960   33.3910   46.0640 C   0  0  0  0  0  0  0  0  0  0  0  0
   45.2190   34.3590   45.2830 C   0  0  0  0  0  0  0  0  0  0  0  0
   45.7270   34.5840   44.0060 N   0  0  0  0  0  0  0  0  0  0  0  0
   46.8060   33.9060   43.5540 C   0  0  0  0  0  0  0  0  0  0  0  0
   47.4220   33.0030   44.3020 N   0  0  0  0  0  0  0  0  0  0  0  0
   45.3750   33.4060   46.9960 H   0  0  0  0  0  0  0  0  0  0  0  0
   44.3740   34.9520   45.5120 H   0  0  0  0  0  0  0  0  0  0  0  0
   47.6370   31.7330   46.3660 C   0  0  2  0  0  0  0  0  0  0  0  0
   47.3890   30.2910   45.8220 C   0  0  0  0  0  0  0  0  0  0  0  0
   48.1960   29.3200   46.6100 C   0  0  0  0  0  0  0  0  0  0  0  0
   48.1840   29.5050   48.0890 C   0  0  0  0  0  0  0  0  0  0  0  0
   48.1860   30.8830   48.5190 C   0  0  0  0  0  0  0  0  0  0  0  0
   47.1950   31.7790   47.7460 C   0  0  2  0  0  0  0  0  0  0  0  0
   48.7450   31.8220   46.2600 H   0  0  0  0  0  0  0  0  0  0  0  0
   46.3170   30.0850   45.7740 H   0  0  0  0  0  0  0  0  0  0  0  0
   47.7530   30.3450   44.7760 H   0  0  0  0  0  0  0  0  0  0  0  0
   47.7470   28.3040   46.4170 H   0  0  0  0  0  0  0  0  0  0  0  0
   49.1880   29.2690   46.1220 H   0  0  0  0  0  0  0  0  0  0  0  0
   49.2960   29.2430   48.3110 H   0  0  0  0  0  0  0  0  0  0  0  0
   47.8080   28.6900   48.7100 H   0  0  0  0  0  0  0  0  0  0  0  0
   47.8620   30.9390   49.5990 H   0  0  0  0  0  0  0  0  0  0  0  0
   49.1420   31.4560   48.4970 H   0  0  0  0  0  0  0  0  0  0  0  0
   47.3140   32.7280   48.2710 H   0  0  0  0  0  0  0  0  0  0  0  0
   45.8550   31.1960   47.8610 N   0  0  0  0  0  0  0  0  0  0  0  0
   45.1600   30.6640   48.9590 C   0  0  0  0  0  0  0  0  0  0  0  0
   44.6110   31.3960   49.8600 O   0  0  0  0  0  0  0  0  0  0  0  0
   45.1010   29.2370   48.9910 N   0  0  0  0  0  0  0  0  0  0  0  0
   45.2180   31.0410   46.9920 H   0  0  0  0  0  0  0  0  0  0  0  0
   44.6070   28.7070   48.2250 H   0  0  0  0  0  0  0  0  0  0  0  0
   45.3480   28.3460   49.4790 H   0  0  0  0  0  0  0  0  0  0  0  0
   47.3020   34.2220   42.2180 C   0  0  0  0  0  0  0  0  0  0  0  0
   48.2300   35.1800   41.9940 C   0  0  0  0  0  0  0  0  0  0  0  0
   48.7130   35.4980   40.7400 C   0  0  0  0  0  0  0  0  0  0  0  0
   48.1880   34.7710   39.6940 C   0  0  0  0  0  0  0  0  0  0  0  0
   47.2300   33.7750   39.8880 C   0  0  0  0  0  0  0  0  0  0  0  0
   46.8490   33.5680   41.1620 N   0  0  0  0  0  0  0  0  0  0  0  0
   48.6280   35.7390   42.8280 H   0  0  0  0  0  0  0  0  0  0  0  0
   49.4540   36.2640   40.5620 H   0  0  0  0  0  0  0  0  0  0  0  0
   48.5640   35.0170   38.7170 H   0  0  0  0  0  0  0  0  0  0  0  0
   46.7920   33.1130   38.6740 C   0  0  0  0  0  0  0  0  0  0  0  0
   47.6520   32.8320   37.6800 N   0  0  0  0  0  0  0  0  0  0  0  0
   47.3700   32.2360   36.5370 C   0  0  0  0  0  3  0  0  0  0  0  0
   46.1110   31.8430   36.2740 N   0  0  0  0  0  0  0  0  0  0  0  0
   45.1420   32.0710   37.2070 C   0  0  0  0  0  0  0  0  0  0  0  0
   43.8460   31.6770   36.9600 C   0  0  0  0  0  3  0  0  0  0  0  0
   42.8380   31.9010   37.9000 C   0  0  0  0  0  0  0  0  0  0  0  0
   41.8650   31.5460   37.5890 H   0  0  0  0  0  0  0  0  0  0  0  0
   43.2240   32.5380   39.0850 C   0  0  0  0  0  0  0  0  0  0  0  0
   42.3990   32.6840   39.7750 H   0  0  0  0  0  0  0  0  0  0  0  0
   44.5320   32.9040   39.2660 C   0  0  0  0  0  3  0  0  0  0  0  0
   45.5230   32.6950   38.3650 C   0  0  0  0  0  0  0  0  0  0  0  0
  1  2  1  0  0  0  0
  1  9  1  0  0  0  0
  2  7  1  0  0  0  0
  3  8  1  0  0  0  0
  3  2  2  0  0  0  0
  4  3  1  0  0  0  0
  5  4  2  0  0  0  0
  5  6  1  0  0  0  0
  6  1  2  0  0  0  0
  9 15  1  6  0  0  0
  9 14  1  0  0  0  0
 10  9  1  0  0  0  0
 10 11  1  0  0  0  0
 11 12  1  0  0  0  0
 12 20  1  0  0  0  0
 12 13  1  0  0  0  0
 12 21  1  0  0  0  0
 13 22  1  0  0  0  0
 14 25  1  0  0  0  0
 14 24  1  1  0  0  0
 14 13  1  0  0  0  0
 16 10  1  0  0  0  0
 17 10  1  0  0  0  0
 18 11  1  0  0  0  0
 19 11  1  0  0  0  0
 23 13  1  0  0  0  0
 25 26  1  0  0  0  0
 26 28  1  0  0  0  0
 26 27  2  0  0  0  0
 28 31  1  0  0  0  0
 29 25  1  0  0  0  0
 30 28  1  0  0  0  0
 32  5  1  0  0  0  0
 33 32  1  0  0  0  0
 33 38  1  0  0  0  0
 34 33  2  0  0  0  0
 35 36  2  0  0  0  0
 35 34  1  0  0  0  0
 36 37  1  0  0  0  0
 37 32  2  0  0  0  0
 39 34  1  0  0  0  0
 40 35  1  0  0  0  0
 41 36  1  0  0  0  0
 42 41  2  0  0  0  0
 43 42  1  0  0  0  0
 44 43  2  0  0  0  0
 44 45  1  0  0  0  0
 45 52  1  0  0  0  0
 46 45  2  0  0  0  0
 46 47  1  0  0  0  0
 47 49  2  0  0  0  0
 48 47  1  0  0  0  0
 49 51  1  0  0  0  0
 49 50  1  0  0  0  0
 52 41  1  0  0  0  0
 52 51  2  0  0  0  0
M  END
>  <minimizedAffinity>
-6.82274818

>  <minimizedRMSD>
0.261450291

$$$$
