
 OpenBabel03252508173D

 50 55  0  0  1  0  0  0  0  0999 V2000
   46.9230   31.7250   48.2790 C   0  0  1  0  0  0  0  0  0  0  0  0
   46.2470   30.8170   49.2480 C   0  0  0  0  0  0  0  0  0  0  0  0
   47.6400   31.2000   49.4560 C   0  0  1  0  0  0  0  0  0  0  0  0
   46.3860   32.7190   48.2660 H   0  0  0  0  0  0  0  0  0  0  0  0
   46.0570   29.7610   48.9380 H   0  0  0  0  0  0  0  0  0  0  0  0
   45.4830   31.1790   49.9660 H   0  0  0  0  0  0  0  0  0  0  0  0
   47.8370   31.9350   50.2640 H   0  0  0  0  0  0  0  0  0  0  0  0
   48.7670   30.2430   49.2260 C   0  0  2  0  0  0  0  0  0  0  0  0
   49.7100   30.1240   50.4510 C   0  0  0  0  0  0  0  0  0  0  0  0
   50.1860   30.8060   49.2280 C   0  0  1  0  0  0  0  0  0  0  0  0
   48.5910   29.2440   48.7920 H   0  0  0  0  0  0  0  0  0  0  0  0
   49.5340   30.7910   51.3150 H   0  0  0  0  0  0  0  0  0  0  0  0
   50.1100   29.1570   50.7410 H   0  0  0  0  0  0  0  0  0  0  0  0
   50.2560   31.9170   49.2130 H   0  0  0  0  0  0  0  0  0  0  0  0
   51.2270   30.0620   48.4720 C   0  0  0  0  0  0  0  0  0  0  0  0
   52.5270   30.0610   48.8260 N   0  0  0  0  0  0  0  0  0  0  0  0
   53.4950   29.4080   48.1790 C   0  0  0  0  0  3  0  0  0  0  0  0
   53.1960   28.6730   47.0690 N   0  0  0  0  0  0  0  0  0  0  0  0
   51.9010   28.6380   46.6660 C   0  0  0  0  0  0  0  0  0  0  0  0
   51.6480   27.8820   45.5400 C   0  0  0  0  0  3  0  0  0  0  0  0
   50.3210   27.8280   45.1020 C   0  0  0  0  0  0  0  0  0  0  0  0
   50.1600   27.2250   44.2140 H   0  0  0  0  0  0  0  0  0  0  0  0
   49.3130   28.4990   45.7650 C   0  0  0  0  0  0  0  0  0  0  0  0
   48.2950   28.4100   45.3620 H   0  0  0  0  0  0  0  0  0  0  0  0
   49.5860   29.2530   46.8930 C   0  0  0  0  0  3  0  0  0  0  0  0
   50.9080   29.3180   47.3450 C   0  0  0  0  0  0  0  0  0  0  0  0
   47.1800   31.1440   46.9280 C   0  0  0  0  0  0  0  0  0  0  0  0
   48.1840   30.8140   46.7040 H   0  0  0  0  0  0  0  0  0  0  0  0
   46.5170   30.2500   46.7370 H   0  0  0  0  0  0  0  0  0  0  0  0
   46.0810   33.0900   46.1690 C   0  0  0  0  0  3  0  0  0  0  0  0
   46.8870   32.1670   45.8530 C   0  0  0  0  0  3  0  0  0  0  0  0
   44.5250   35.9200   44.3870 C   0  0  0  0  0  0  0  0  0  0  0  0
   45.1600   35.8930   43.1480 C   0  0  0  0  0  0  0  0  0  0  0  0
   46.0810   34.9220   42.9700 C   0  0  0  0  0  0  0  0  0  0  0  0
   46.3550   34.0290   43.9640 N   0  0  0  0  0  0  0  0  0  0  0  0
   45.7200   34.0840   45.1540 C   0  0  0  0  0  0  0  0  0  0  0  0
   44.8200   35.0320   45.3300 N   0  0  0  0  0  0  0  0  0  0  0  0
   43.7780   36.6920   44.5580 H   0  0  0  0  0  0  0  0  0  0  0  0
   44.9550   36.5860   42.3630 H   0  0  0  0  0  0  0  0  0  0  0  0
   46.8290   34.7660   41.7240 C   0  0  0  0  0  0  0  0  0  0  0  0
   48.0420   35.3460   41.4630 C   0  0  0  0  0  0  0  0  0  0  0  0
   48.7390   35.1920   40.2830 C   0  0  0  0  0  0  0  0  0  0  0  0
   48.2080   34.4080   39.2770 C   0  0  0  0  0  0  0  0  0  0  0  0
   46.9970   33.8030   39.4820 C   0  0  0  0  0  0  0  0  0  0  0  0
   46.3320   33.9870   40.6840 C   0  0  0  0  0  0  0  0  0  0  0  0
   48.4800   35.9730   42.2510 H   0  0  0  0  0  0  0  0  0  0  0  0
   49.6910   35.6930   40.1770 H   0  0  0  0  0  0  0  0  0  0  0  0
   48.7770   34.3080   38.3680 H   0  0  0  0  0  0  0  0  0  0  0  0
   46.5860   33.1920   38.6920 H   0  0  0  0  0  0  0  0  0  0  0  0
   45.3820   33.4770   40.7690 H   0  0  0  0  0  0  0  0  0  0  0  0
  1  4  1  1  0  0  0
  1  2  1  0  0  0  0
  1  3  1  0  0  0  0
  2  3  1  0  0  0  0
  2  6  1  0  0  0  0
  3  7  1  1  0  0  0
  5  2  1  0  0  0  0
  8 11  1  6  0  0  0
  8 10  1  0  0  0  0
  8  3  1  0  0  0  0
  8  9  1  0  0  0  0
  9 13  1  0  0  0  0
  9 12  1  0  0  0  0
 10 14  1  1  0  0  0
 10  9  1  0  0  0  0
 15 16  1  0  0  0  0
 15 10  1  0  0  0  0
 17 16  2  0  0  0  0
 18 17  1  0  0  0  0
 19 18  2  0  0  0  0
 19 26  1  0  0  0  0
 20 19  1  0  0  0  0
 21 20  2  0  0  0  0
 21 23  1  0  0  0  0
 22 21  1  0  0  0  0
 23 25  2  0  0  0  0
 24 23  1  0  0  0  0
 25 26  1  0  0  0  0
 26 15  2  0  0  0  0
 27  1  1  0  0  0  0
 28 27  1  0  0  0  0
 29 27  1  0  0  0  0
 31 30  2  0  0  0  0
 31 27  1  0  0  0  0
 32 38  1  0  0  0  0
 32 37  1  0  0  0  0
 33 32  2  0  0  0  0
 34 33  1  0  0  0  0
 34 35  2  0  0  0  0
 35 36  1  0  0  0  0
 36 37  2  0  0  0  0
 36 30  1  0  0  0  0
 39 33  1  0  0  0  0
 40 34  1  0  0  0  0
 41 40  1  0  0  0  0
 41 46  1  0  0  0  0
 42 41  2  0  0  0  0
 43 44  2  0  0  0  0
 43 42  1  0  0  0  0
 44 45  1  0  0  0  0
 45 50  1  0  0  0  0
 45 40  2  0  0  0  0
 47 42  1  0  0  0  0
 48 43  1  0  0  0  0
 49 44  1  0  0  0  0
M  END
>  <minimizedAffinity>
-6.59619284

>  <minimizedRMSD>
1.37579298

$$$$
