
 OpenBabel03252508173D

 50 55  0  0  1  0  0  0  0  0999 V2000
   46.6610   31.5190   48.1860 C   0  0  1  0  0  0  0  0  0  0  0  0
   46.3780   30.4470   49.1810 C   0  0  0  0  0  0  0  0  0  0  0  0
   47.5250   31.3310   49.3660 C   0  0  1  0  0  0  0  0  0  0  0  0
   45.7900   32.2370   48.1570 H   0  0  0  0  0  0  0  0  0  0  0  0
   46.5990   29.3900   48.8960 H   0  0  0  0  0  0  0  0  0  0  0  0
   45.5360   30.5120   49.8990 H   0  0  0  0  0  0  0  0  0  0  0  0
   47.4320   32.1060   50.1560 H   0  0  0  0  0  0  0  0  0  0  0  0
   48.9290   30.8630   49.1460 C   0  0  2  0  0  0  0  0  0  0  0  0
   49.5200   30.1380   50.3820 C   0  0  0  0  0  0  0  0  0  0  0  0
   50.0250   31.4770   50.0130 C   0  0  1  0  0  0  0  0  0  0  0  0
   49.2160   30.3260   48.2260 H   0  0  0  0  0  0  0  0  0  0  0  0
   48.9180   30.1080   51.3100 H   0  0  0  0  0  0  0  0  0  0  0  0
   50.1370   29.2540   50.2540 H   0  0  0  0  0  0  0  0  0  0  0  0
   49.7160   32.3630   50.6120 H   0  0  0  0  0  0  0  0  0  0  0  0
   51.4100   31.4870   49.4740 C   0  0  0  0  0  0  0  0  0  0  0  0
   51.8450   30.6010   48.5600 N   0  0  0  0  0  0  0  0  0  0  0  0
   53.0780   30.5720   48.0480 C   0  0  0  0  0  0  0  0  0  0  0  0
   54.0040   31.4880   48.4510 N   0  0  0  0  0  0  0  0  0  0  0  0
   53.6200   32.4080   49.3720 C   0  0  0  0  0  0  0  0  0  0  0  0
   54.5910   33.3150   49.7480 C   0  0  0  0  0  0  0  0  0  0  0  0
   54.2230   34.2750   50.6970 C   0  0  0  0  0  0  0  0  0  0  0  0
   55.0110   34.9700   50.9680 H   0  0  0  0  0  0  0  0  0  0  0  0
   52.9510   34.3110   51.2310 C   0  0  0  0  0  0  0  0  0  0  0  0
   52.7350   35.0950   51.9720 H   0  0  0  0  0  0  0  0  0  0  0  0
   51.9910   33.3940   50.8410 C   0  0  0  0  0  0  0  0  0  0  0  0
   52.3400   32.4280   49.8940 C   0  0  0  0  0  0  0  0  0  0  0  0
   47.1160   31.0460   46.8460 C   0  0  0  0  0  0  0  0  0  0  0  0
   48.1640   30.8100   46.7230 H   0  0  0  0  0  0  0  0  0  0  0  0
   46.5570   30.1160   46.5320 H   0  0  0  0  0  0  0  0  0  0  0  0
   46.0440   33.0200   46.1220 C   0  0  0  0  0  0  0  0  0  0  0  0
   46.8590   32.1070   45.7990 C   0  0  0  0  0  0  0  0  0  0  0  0
   44.5840   35.9440   44.4120 C   0  0  0  0  0  0  0  0  0  0  0  0
   45.2180   35.9270   43.1730 C   0  0  0  0  0  0  0  0  0  0  0  0
   46.1060   34.9310   42.9710 C   0  0  0  0  0  0  0  0  0  0  0  0
   46.3500   34.0050   43.9420 N   0  0  0  0  0  0  0  0  0  0  0  0
   45.7160   34.0500   45.1320 C   0  0  0  0  0  0  0  0  0  0  0  0
   44.8480   35.0230   45.3330 N   0  0  0  0  0  0  0  0  0  0  0  0
   43.8630   36.7360   44.6030 H   0  0  0  0  0  0  0  0  0  0  0  0
   45.0370   36.6460   42.4060 H   0  0  0  0  0  0  0  0  0  0  0  0
   46.8500   34.7820   41.7200 C   0  0  0  0  0  0  0  0  0  0  0  0
   48.0610   35.3640   41.4580 C   0  0  0  0  0  0  0  0  0  0  0  0
   48.7540   35.2160   40.2740 C   0  0  0  0  0  0  0  0  0  0  0  0
   48.2190   34.4370   39.2670 C   0  0  0  0  0  0  0  0  0  0  0  0
   47.0100   33.8300   39.4730 C   0  0  0  0  0  0  0  0  0  0  0  0
   46.3500   34.0080   40.6790 C   0  0  0  0  0  0  0  0  0  0  0  0
   48.5020   35.9870   42.2480 H   0  0  0  0  0  0  0  0  0  0  0  0
   49.7050   35.7190   40.1670 H   0  0  0  0  0  0  0  0  0  0  0  0
   48.7850   34.3420   38.3550 H   0  0  0  0  0  0  0  0  0  0  0  0
   46.5950   33.2230   38.6810 H   0  0  0  0  0  0  0  0  0  0  0  0
   45.3990   33.4970   40.7650 H   0  0  0  0  0  0  0  0  0  0  0  0
  1  4  1  1  0  0  0
  1  2  1  0  0  0  0
  1  3  1  0  0  0  0
  2  3  1  0  0  0  0
  2  6  1  0  0  0  0
  3  7  1  1  0  0  0
  5  2  1  0  0  0  0
  8 11  1  6  0  0  0
  8  3  1  0  0  0  0
  8 10  1  0  0  0  0
  8  9  1  0  0  0  0
  9 12  1  0  0  0  0
 10  9  1  0  0  0  0
 10 14  1  1  0  0  0
 13  9  1  0  0  0  0
 15 26  1  0  0  0  0
 15 10  1  0  0  0  0
 16 15  2  0  0  0  0
 17 18  2  0  0  0  0
 17 16  1  0  0  0  0
 18 19  1  0  0  0  0
 19 20  2  0  0  0  0
 19 26  1  0  0  0  0
 20 21  1  0  0  0  0
 21 22  1  0  0  0  0
 21 23  2  0  0  0  0
 23 24  1  0  0  0  0
 25 23  1  0  0  0  0
 26 25  2  0  0  0  0
 27  1  1  0  0  0  0
 28 27  1  0  0  0  0
 29 27  1  0  0  0  0
 31 30  2  0  0  0  0
 31 27  1  0  0  0  0
 32 38  1  0  0  0  0
 32 37  1  0  0  0  0
 33 32  2  0  0  0  0
 34 33  1  0  0  0  0
 34 35  2  0  0  0  0
 35 36  1  0  0  0  0
 36 37  2  0  0  0  0
 36 30  1  0  0  0  0
 39 33  1  0  0  0  0
 40 34  1  0  0  0  0
 41 40  1  0  0  0  0
 41 46  1  0  0  0  0
 42 41  2  0  0  0  0
 43 44  2  0  0  0  0
 43 42  1  0  0  0  0
 44 45  1  0  0  0  0
 45 50  1  0  0  0  0
 45 40  2  0  0  0  0
 47 42  1  0  0  0  0
 48 43  1  0  0  0  0
 49 44  1  0  0  0  0
M  END
>  <minimizedAffinity>
-7.09465027

>  <minimizedRMSD>
1.1988591

$$$$
