
 OpenBabel03252501313D

 23 25  0  0  1  0  0  0  0  0999 V2000
   42.5850   32.8590   41.4610 C   0  0  1  0  0  0  0  0  0  0  0  0
   43.3420   32.0450   41.9150 N   0  0  0  0  0  0  0  0  0  0  0  0
   44.0780   31.1710   42.3530 C   0  0  0  0  0  0  0  0  0  0  0  0
   44.9070   32.0530   42.9260 N   0  0  0  0  0  0  0  0  0  0  0  0
   44.6760   33.4060   42.8280 C   0  0  0  0  0  0  0  0  0  0  0  0
   45.7070   34.1790   43.4220 C   0  0  0  0  0  0  0  0  0  0  0  0
   45.5660   35.5350   43.2460 C   0  0  0  0  0  0  0  0  0  0  0  0
   46.3570   36.0710   43.7110 H   0  0  0  0  0  0  0  0  0  0  0  0
   44.5220   36.1380   42.5520 C   0  0  0  0  0  0  0  0  0  0  0  0
   44.4560   37.1730   42.4420 H   0  0  0  0  0  0  0  0  0  0  0  0
   43.6500   35.1880   42.0720 C   0  0  0  0  0  0  0  0  0  0  0  0
   43.5190   33.7740   42.0920 C   0  0  0  0  0  0  0  0  0  0  0  0
   41.6540   33.8010   40.8360 C   0  0  0  0  0  0  0  0  0  0  0  0
   40.5510   34.4980   41.2030 C   0  0  0  0  0  0  0  0  0  0  0  0
   40.0230   35.4780   40.4070 C   0  0  0  0  0  0  0  0  0  0  0  0
   40.7110   35.6680   39.2260 N   0  0  0  0  0  0  0  0  0  0  0  0
   41.7840   34.9940   38.8540 C   0  0  0  0  0  0  0  0  0  0  0  0
   42.3050   34.0170   39.6600 N   0  0  0  0  0  0  0  0  0  0  0  0
   39.1550   35.9630   40.8000 H   0  0  0  0  0  0  0  0  0  0  0  0
   42.0140   35.4220   37.8980 H   0  0  0  0  0  0  0  0  0  0  0  0
   39.9090   34.0100   42.4070 N   0  0  0  0  0  0  0  0  0  0  0  0
   39.5130   34.7510   43.0630 H   0  0  0  0  0  0  0  0  0  0  0  0
   39.4780   33.6050   43.2180 H   0  0  0  0  0  0  0  0  0  0  0  0
  1 13  1  6  0  0  0
  1  2  1  0  0  0  0
  1 12  1  0  0  0  0
  2  3  1  0  0  0  0
  3  4  1  0  0  0  0
  5  4  1  0  0  0  0
  5  6  1  0  0  0  0
  7  6  2  0  0  0  0
  7  8  1  0  0  0  0
  9  7  1  0  0  0  0
 10  9  1  0  0  0  0
 11 12  1  0  0  0  0
 11  9  2  0  0  0  0
 12  5  2  0  0  0  0
 13 14  1  0  0  0  0
 14 21  1  0  0  0  0
 15 19  1  0  0  0  0
 15 14  2  0  0  0  0
 16 15  1  0  0  0  0
 17 16  2  0  0  0  0
 17 18  1  0  0  0  0
 18 13  2  0  0  0  0
 20 17  1  0  0  0  0
 21 22  1  0  0  0  0
 21 23  1  0  0  0  0
M  END
>  <minimizedAffinity>
-4.96296453

>  <minimizedRMSD>
6.09643602

$$$$
