
 OpenBabel03252506563D

 41 46  0  0  0  0  0  0  0  0999 V2000
   47.3440   31.5680   45.3740 C   0  0  0  0  0  0  0  0  0  0  0  0
   46.6730   32.7740   45.3290 C   0  0  0  0  0  0  0  0  0  0  0  0
   45.8540   33.2040   46.3550 C   0  0  0  0  0  0  0  0  0  0  0  0
   45.6800   32.4050   47.4960 C   0  0  0  0  0  0  0  0  0  0  0  0
   44.9820   32.4950   48.6600 N   0  0  0  0  0  0  0  0  0  0  0  0
   45.2240   31.3740   49.3900 C   0  0  0  0  0  0  0  0  0  0  0  0
   46.0690   30.6110   48.6630 N   0  0  0  0  0  0  0  0  0  0  0  0
   46.3660   31.2140   47.5030 C   0  0  0  0  0  0  0  0  0  0  0  0
   47.1760   30.7650   46.5100 C   0  0  0  0  0  0  0  0  0  0  0  0
   47.9910   31.2280   44.5620 H   0  0  0  0  0  0  0  0  0  0  0  0
   45.3240   34.1420   46.3330 H   0  0  0  0  0  0  0  0  0  0  0  0
   44.4110   33.3360   48.8150 H   0  0  0  0  0  0  0  0  0  0  0  0
   44.7750   31.2290   50.3520 H   0  0  0  0  0  0  0  0  0  0  0  0
   45.9920   35.3240   42.7660 C   0  0  0  0  0  0  0  0  0  0  0  0
   47.1390   35.2710   41.9780 C   0  0  0  0  0  0  0  0  0  0  0  0
   48.1510   34.3560   42.3250 C   0  0  0  0  0  0  0  0  0  0  0  0
   47.9510   33.5650   43.4250 N   0  0  0  0  0  0  0  0  0  0  0  0
   46.8150   33.6450   44.1730 C   0  0  0  0  0  0  0  0  0  0  0  0
   45.8420   34.5180   43.8470 N   0  0  0  0  0  0  0  0  0  0  0  0
   45.2550   36.0410   42.4510 H   0  0  0  0  0  0  0  0  0  0  0  0
   47.3400   35.8650   41.1140 H   0  0  0  0  0  0  0  0  0  0  0  0
   49.0900   34.2020   41.8140 H   0  0  0  0  0  0  0  0  0  0  0  0
   47.8700   29.4710   46.6100 C   0  0  0  0  0  0  0  0  0  0  0  0
   49.1860   29.2990   46.9460 C   0  0  0  0  0  0  0  0  0  0  0  0
   49.3360   27.9040   46.8950 C   0  0  0  0  0  0  0  0  0  0  0  0
   48.1570   27.3140   46.5430 C   0  0  0  0  0  0  0  0  0  0  0  0
   47.3340   28.3230   46.3920 O   0  0  0  0  0  0  0  0  0  0  0  0
   49.9430   30.0270   47.1930 H   0  0  0  0  0  0  0  0  0  0  0  0
   50.2530   27.4600   47.1410 H   0  0  0  0  0  0  0  0  0  0  0  0
   47.6370   25.9800   46.3250 C   0  0  0  0  0  0  0  0  0  0  0  0
   47.6100   25.4620   45.0650 N   0  0  0  0  0  0  0  0  0  0  0  0
   47.0620   24.3050   44.7600 C   0  0  0  0  0  3  0  0  0  0  0  0
   46.4690   23.5080   45.6660 N   0  0  0  0  0  0  0  0  0  0  0  0
   46.4390   23.9240   46.9660 C   0  0  0  0  0  0  0  0  0  0  0  0
   45.8810   23.1560   47.9360 C   0  0  0  0  0  3  0  0  0  0  0  0
   45.8650   23.5390   49.2620 C   0  0  0  0  0  0  0  0  0  0  0  0
   45.3950   22.8440   49.9280 H   0  0  0  0  0  0  0  0  0  0  0  0
   46.4650   24.7710   49.5320 C   0  0  0  0  0  0  0  0  0  0  0  0
   46.4350   25.0410   50.5940 H   0  0  0  0  0  0  0  0  0  0  0  0
   47.0170   25.5190   48.5220 C   0  0  0  0  0  3  0  0  0  0  0  0
   47.0270   25.1380   47.2120 C   0  0  0  0  0  0  0  0  0  0  0  0
  1  9  1  0  0  0  0
  2  1  2  0  0  0  0
  2  3  1  0  0  0  0
  3  4  2  0  0  0  0
  4  8  1  0  0  0  0
  4  5  1  0  0  0  0
  5 12  1  0  0  0  0
  5  6  1  0  0  0  0
  6 13  1  0  0  0  0
  7  6  2  0  0  0  0
  8  7  1  0  0  0  0
  9 23  1  0  0  0  0
  9  8  2  0  0  0  0
 10  1  1  0  0  0  0
 11  3  1  0  0  0  0
 14 19  1  0  0  0  0
 15 16  1  0  0  0  0
 15 14  2  0  0  0  0
 16 17  2  0  0  0  0
 17 18  1  0  0  0  0
 18  2  1  0  0  0  0
 19 18  2  0  0  0  0
 20 14  1  0  0  0  0
 21 15  1  0  0  0  0
 22 16  1  0  0  0  0
 23 24  2  0  0  0  0
 24 28  1  0  0  0  0
 25 24  1  0  0  0  0
 25 29  1  0  0  0  0
 26 25  2  0  0  0  0
 27 26  1  0  0  0  0
 27 23  1  0  0  0  0
 30 26  1  0  0  0  0
 30 41  1  0  0  0  0
 31 30  2  0  0  0  0
 32 31  1  0  0  0  0
 32 33  2  0  0  0  0
 33 34  1  0  0  0  0
 34 41  2  0  0  0  0
 34 35  1  0  0  0  0
 35 36  2  0  0  0  0
 36 38  1  0  0  0  0
 36 37  1  0  0  0  0
 38 39  1  0  0  0  0
 40 38  2  0  0  0  0
 41 40  1  0  0  0  0
M  END
>  <minimizedAffinity>
-5.88174295

>  <minimizedRMSD>
0.953645945

$$$$
