
 OpenBabel03252501513D

 48 52  0  0  1  0  0  0  0  0999 V2000
   47.5760   34.1480   43.2830 C   0  0  0  0  0  0  0  0  0  0  0  0
   47.7280   35.2290   43.5300 H   0  0  0  0  0  0  0  0  0  0  0  0
   47.6130   33.5510   44.2190 H   0  0  0  0  0  0  0  0  0  0  0  0
   48.6030   33.7120   42.3970 N   0  0  0  0  0  0  0  0  0  0  0  0
   49.8290   34.4040   42.5760 C   0  0  0  0  0  0  0  0  0  0  0  0
   50.9470   33.4420   42.2730 C   0  0  0  0  0  0  0  0  0  0  0  0
   50.3340   32.1160   42.5880 C   0  0  0  0  0  0  0  0  0  0  0  0
   48.8430   32.2910   42.4800 C   0  0  2  0  0  0  0  0  0  0  0  0
   49.8890   35.2320   41.8380 H   0  0  0  0  0  0  0  0  0  0  0  0
   49.9460   34.8800   43.5710 H   0  0  0  0  0  0  0  0  0  0  0  0
   51.1760   33.4680   41.1830 H   0  0  0  0  0  0  0  0  0  0  0  0
   51.8570   33.6620   42.8560 H   0  0  0  0  0  0  0  0  0  0  0  0
   50.5440   31.8700   43.6590 H   0  0  0  0  0  0  0  0  0  0  0  0
   50.7120   31.2770   41.9710 H   0  0  0  0  0  0  0  0  0  0  0  0
   48.2920   31.8880   43.3390 H   0  0  0  0  0  0  0  0  0  0  0  0
   48.4220   31.7440   41.1640 C   0  0  0  0  0  0  0  0  0  0  0  0
   48.1470   30.4320   40.9800 N   0  0  0  0  0  0  0  0  0  0  0  0
   47.7660   29.9170   39.7970 C   0  0  0  0  0  0  0  0  0  0  0  0
   47.6240   30.6690   38.6910 N   0  0  0  0  0  0  0  0  0  0  0  0
   47.8820   31.9840   38.8040 C   0  0  0  0  0  0  0  0  0  0  0  0
   47.7420   32.7760   37.6790 C   0  0  0  0  0  0  0  0  0  0  0  0
   48.0000   34.1280   37.7650 C   0  0  0  0  0  0  0  0  0  0  0  0
   47.8630   34.6710   36.8270 H   0  0  0  0  0  0  0  0  0  0  0  0
   48.3980   34.6880   38.9830 C   0  0  0  0  0  0  0  0  0  0  0  0
   48.5720   35.7410   38.9430 H   0  0  0  0  0  0  0  0  0  0  0  0
   48.5250   33.8550   40.0880 C   0  0  0  0  0  0  0  0  0  0  0  0
   48.2730   32.5000   40.0220 C   0  0  0  0  0  0  0  0  0  0  0  0
   45.7520   34.7130   41.7440 C   0  0  0  0  0  0  0  0  0  0  0  0
   46.1950   33.9240   42.7330 C   0  0  0  0  0  0  0  0  0  0  0  0
   44.0620   33.4200   40.3650 C   0  0  0  0  0  0  0  0  0  0  0  0
   44.4140   34.5560   41.1560 C   0  0  0  0  0  0  0  0  0  0  0  0
   43.4510   35.5500   41.3770 C   0  0  0  0  0  0  0  0  0  0  0  0
   42.2190   35.3830   40.8230 N   0  0  0  0  0  0  0  0  0  0  0  0
   41.9200   34.3170   40.0930 C   0  0  0  0  0  0  0  0  0  0  0  0
   42.8370   33.3510   39.8700 N   0  0  0  0  0  0  0  0  0  0  0  0
   44.8210   32.6670   40.2080 H   0  0  0  0  0  0  0  0  0  0  0  0
   43.6680   36.4240   41.9660 H   0  0  0  0  0  0  0  0  0  0  0  0
   39.7430   33.5740   41.6550 F   0  0  0  0  0  0  0  0  0  0  0  0
   39.5100   33.8020   40.3330 C   0  0  0  0  0  0  0  0  0  0  0  0
   40.5850   34.1780   39.5180 C   0  0  0  0  0  0  0  0  0  0  0  0
   40.4240   34.4250   38.1730 C   0  0  0  0  0  0  0  0  0  0  0  0
   39.1410   34.2860   37.6470 C   0  0  0  0  0  0  0  0  0  0  0  0
   38.0410   33.9080   38.4520 C   0  0  0  0  0  0  0  0  0  0  0  0
   38.2500   33.6690   39.8040 C   0  0  0  0  0  0  0  0  0  0  0  0
   41.2280   34.7140   37.5250 H   0  0  0  0  0  0  0  0  0  0  0  0
   38.9010   34.4550   36.6080 H   0  0  0  0  0  0  0  0  0  0  0  0
   37.0550   33.7990   38.0550 H   0  0  0  0  0  0  0  0  0  0  0  0
   37.4510   33.3770   40.4690 H   0  0  0  0  0  0  0  0  0  0  0  0
  1  2  1  0  0  0  0
  1  3  1  0  0  0  0
  4  8  1  0  0  0  0
  4  5  1  0  0  0  0
  4  1  1  0  0  0  0
  5 10  1  0  0  0  0
  6  5  1  0  0  0  0
  6  7  1  0  0  0  0
  6 12  1  0  0  0  0
  7 13  1  0  0  0  0
  8  7  1  0  0  0  0
  8 15  1  1  0  0  0
  9  5  1  0  0  0  0
 11  6  1  0  0  0  0
 14  7  1  0  0  0  0
 16  8  1  0  0  0  0
 17 16  1  0  0  0  0
 18 17  2  0  0  0  0
 19 20  2  0  0  0  0
 19 18  1  0  0  0  0
 20 27  1  0  0  0  0
 21 22  2  0  0  0  0
 21 20  1  0  0  0  0
 22 24  1  0  0  0  0
 23 22  1  0  0  0  0
 24 26  2  0  0  0  0
 25 24  1  0  0  0  0
 27 26  1  0  0  0  0
 27 16  2  0  0  0  0
 28 29  2  0  0  0  0
 29  1  1  0  0  0  0
 30 31  1  0  0  0  0
 31 32  2  0  0  0  0
 31 28  1  0  0  0  0
 32 37  1  0  0  0  0
 33 32  1  0  0  0  0
 34 33  2  0  0  0  0
 35 34  1  0  0  0  0
 35 30  2  0  0  0  0
 36 30  1  0  0  0  0
 39 38  1  0  0  0  0
 40 34  1  0  0  0  0
 40 39  2  0  0  0  0
 41 40  1  0  0  0  0
 42 41  2  0  0  0  0
 42 43  1  0  0  0  0
 43 44  2  0  0  0  0
 44 39  1  0  0  0  0
 44 48  1  0  0  0  0
 45 41  1  0  0  0  0
 46 42  1  0  0  0  0
 47 43  1  0  0  0  0
M  END
>  <minimizedAffinity>
-6.77458048

>  <minimizedRMSD>
2.21794605

$$$$
