
 OpenBabel03242522503D

 29 31  0  0  0  0  0  0  0  0999 V2000
   47.2520   31.5640   47.9490 O   0  0  0  0  0  0  0  0  0  0  0  0
   44.8020   30.7100   47.7540 O   0  0  0  0  0  0  0  0  0  0  0  0
   45.6630   31.8830   48.2980 P   0  0  1  0  0  0  0  0  0  0  0  0
   45.3550   31.9110   49.9510 O   0  0  0  0  0  0  0  0  0  0  0  0
   45.1660   31.0020   50.2970 H   0  0  0  0  0  0  0  0  0  0  0  0
   45.1130   33.2960   47.5690 O   0  0  0  0  0  0  0  0  0  0  0  0
   46.9530   33.2310   44.4360 C   0  0  0  0  0  0  0  0  0  0  0  0
   46.5300   32.9040   45.7430 C   0  0  0  0  0  0  0  0  0  0  0  0
   45.5040   33.6340   46.2930 C   0  0  0  0  0  0  0  0  0  0  0  0
   44.9420   34.6390   45.5560 N   0  0  0  0  0  0  0  0  0  0  0  0
   45.3680   34.9220   44.3170 C   0  0  0  0  0  0  0  0  0  0  0  0
   46.3620   34.2330   43.7490 N   0  0  0  0  0  0  0  0  0  0  0  0
   47.7490   32.7160   43.9170 H   0  0  0  0  0  0  0  0  0  0  0  0
   47.0890   32.0950   46.1400 H   0  0  0  0  0  0  0  0  0  0  0  0
   44.9090   35.7160   43.7600 H   0  0  0  0  0  0  0  0  0  0  0  0
   48.1520   30.6680   48.4040 C   0  0  0  0  0  0  0  0  0  0  0  0
   48.3860   30.8200   49.6960 O   0  0  0  0  0  0  0  0  0  0  0  0
   49.0100   29.5160   47.8910 C   0  0  0  0  0  0  0  0  0  0  0  0
   50.3390   29.5790   47.8790 N   0  0  0  0  0  0  0  0  0  0  0  0
   51.1210   28.6260   47.4360 C   0  0  0  0  0  3  0  0  0  0  0  0
   50.6120   27.5010   46.9560 N   0  0  0  0  0  0  0  0  0  0  0  0
   49.2810   27.3760   46.9400 C   0  0  0  0  0  0  0  0  0  0  0  0
   48.7830   26.2130   46.4300 C   0  0  0  0  0  3  0  0  0  0  0  0
   47.4190   25.9560   46.3410 C   0  0  0  0  0  0  0  0  0  0  0  0
   47.0860   25.0250   45.9310 H   0  0  0  0  0  0  0  0  0  0  0  0
   46.6090   26.9890   46.8190 C   0  0  0  0  0  0  0  0  0  0  0  0
   45.5390   26.7390   46.7270 H   0  0  0  0  0  0  0  0  0  0  0  0
   47.1620   28.1420   47.3240 C   0  0  0  0  0  3  0  0  0  0  0  0
   48.4930   28.3740   47.4040 C   0  0  0  0  0  0  0  0  0  0  0  0
  1  3  1  0  0  0  0
  1 16  1  0  0  0  0
  3  2  2  6  0  0  0
  3  4  1  0  0  0  0
  4  5  1  0  0  0  0
  6  3  1  0  0  0  0
  7  8  1  0  0  0  0
  8 14  1  0  0  0  0
  8  9  2  0  0  0  0
  9  6  1  0  0  0  0
 10  9  1  0  0  0  0
 11 10  2  0  0  0  0
 12 11  1  0  0  0  0
 12  7  2  0  0  0  0
 13  7  1  0  0  0  0
 15 11  1  0  0  0  0
 16 17  2  0  0  0  0
 18 16  1  0  0  0  0
 19 18  1  0  0  0  0
 20 19  2  0  0  0  0
 21 20  1  0  0  0  0
 22 21  2  0  0  0  0
 22 29  1  0  0  0  0
 23 22  1  0  0  0  0
 24 23  2  0  0  0  0
 24 26  1  0  0  0  0
 25 24  1  0  0  0  0
 26 28  2  0  0  0  0
 27 26  1  0  0  0  0
 28 29  1  0  0  0  0
 29 18  2  0  0  0  0
M  END
>  <minimizedAffinity>
-4.64226007

>  <minimizedRMSD>
0.861063421

$$$$
