
 OpenBabel03242522503D

 29 31  0  0  0  0  0  0  0  0999 V2000
   47.4500   32.1540   48.1450 O   0  0  0  0  0  0  0  0  0  0  0  0
   45.3020   30.8140   47.5440 O   0  0  0  0  0  0  0  0  0  0  0  0
   45.7990   32.0810   48.2930 P   0  0  1  0  0  0  0  0  0  0  0  0
   45.3000   31.8630   49.8840 O   0  0  0  0  0  0  0  0  0  0  0  0
   45.2860   30.9040   50.1280 H   0  0  0  0  0  0  0  0  0  0  0  0
   45.0300   33.4110   47.6070 O   0  0  0  0  0  0  0  0  0  0  0  0
   46.6700   33.5500   44.3660 C   0  0  0  0  0  0  0  0  0  0  0  0
   46.3290   33.1390   45.6740 C   0  0  0  0  0  0  0  0  0  0  0  0
   45.3410   33.8300   46.3330 C   0  0  0  0  0  0  0  0  0  0  0  0
   44.7360   34.8800   45.6980 N   0  0  0  0  0  0  0  0  0  0  0  0
   45.0840   35.2420   44.4560 C   0  0  0  0  0  0  0  0  0  0  0  0
   46.0400   34.5930   43.7840 N   0  0  0  0  0  0  0  0  0  0  0  0
   47.4310   33.0710   43.7670 H   0  0  0  0  0  0  0  0  0  0  0  0
   46.9100   32.3080   45.9830 H   0  0  0  0  0  0  0  0  0  0  0  0
   44.5930   36.0690   43.9800 H   0  0  0  0  0  0  0  0  0  0  0  0
   48.4660   31.3790   48.5750 C   0  0  0  0  0  0  0  0  0  0  0  0
   49.2200   32.0050   49.4620 O   0  0  0  0  0  0  0  0  0  0  0  0
   49.0410   29.9830   48.3530 C   0  0  0  0  0  0  0  0  0  0  0  0
   48.2900   28.9720   47.9250 N   0  0  0  0  0  0  0  0  0  0  0  0
   48.7300   27.7540   47.7350 C   0  0  0  0  0  3  0  0  0  0  0  0
   49.9980   27.4460   47.9680 N   0  0  0  0  0  0  0  0  0  0  0  0
   50.8050   28.4210   48.4020 C   0  0  0  0  0  0  0  0  0  0  0  0
   52.1010   28.0750   48.6460 C   0  0  0  0  0  3  0  0  0  0  0  0
   53.0440   28.9840   49.1140 C   0  0  0  0  0  0  0  0  0  0  0  0
   54.0480   28.6570   49.2870 H   0  0  0  0  0  0  0  0  0  0  0  0
   52.5480   30.2760   49.3090 C   0  0  0  0  0  0  0  0  0  0  0  0
   53.3320   30.9580   49.6800 H   0  0  0  0  0  0  0  0  0  0  0  0
   51.2310   30.5700   49.0470 C   0  0  0  0  0  3  0  0  0  0  0  0
   50.3270   29.6730   48.5910 C   0  0  0  0  0  0  0  0  0  0  0  0
  1  3  1  0  0  0  0
  1 16  1  0  0  0  0
  3  2  2  6  0  0  0
  3  4  1  0  0  0  0
  4  5  1  0  0  0  0
  6  3  1  0  0  0  0
  7  8  1  0  0  0  0
  8 14  1  0  0  0  0
  8  9  2  0  0  0  0
  9  6  1  0  0  0  0
 10  9  1  0  0  0  0
 11 10  2  0  0  0  0
 12  7  2  0  0  0  0
 12 11  1  0  0  0  0
 13  7  1  0  0  0  0
 15 11  1  0  0  0  0
 16 17  2  0  0  0  0
 18 16  1  0  0  0  0
 18 29  1  0  0  0  0
 19 18  2  0  0  0  0
 20 19  1  0  0  0  0
 20 21  2  0  0  0  0
 21 22  1  0  0  0  0
 22 29  2  0  0  0  0
 22 23  1  0  0  0  0
 23 24  2  0  0  0  0
 24 25  1  0  0  0  0
 24 26  1  0  0  0  0
 26 27  1  0  0  0  0
 28 26  2  0  0  0  0
 29 28  1  0  0  0  0
M  END
>  <minimizedAffinity>
-5.01887465

>  <minimizedRMSD>
0.110358484

$$$$
