
 OpenBabel03242519413D

 32 35  0  0  1  0  0  0  0  0999 V2000
   47.9770   32.6410   41.7790 O   0  0  0  0  0  0  0  0  0  0  0  0
   46.9890   33.7310   41.3320 P   0  0  2  0  0  0  0  0  0  0  0  0
   45.4690   33.4930   42.1010 O   0  0  0  0  0  0  0  0  0  0  0  0
   44.3480   35.8970   44.5580 C   0  0  0  0  0  0  0  0  0  0  0  0
   44.5940   35.2920   43.3060 C   0  0  0  0  0  0  0  0  0  0  0  0
   45.2410   34.0530   43.3210 C   0  0  0  0  0  0  0  0  0  0  0  0
   45.5930   33.4990   44.5070 N   0  0  0  0  0  0  0  0  0  0  0  0
   45.3410   34.1080   45.6780 C   0  0  0  0  0  0  0  0  0  0  0  0
   44.7200   35.3060   45.7110 N   0  0  0  0  0  0  0  0  0  0  0  0
   43.8500   36.8580   44.5640 H   0  0  0  0  0  0  0  0  0  0  0  0
   44.2980   35.7620   42.3840 H   0  0  0  0  0  0  0  0  0  0  0  0
   45.6630   33.5850   46.5750 H   0  0  0  0  0  0  0  0  0  0  0  0
   46.7140   33.5840   39.7140 O   0  0  0  0  0  0  0  0  0  0  0  0
   45.7000   33.1870   38.9790 C   0  0  1  0  0  3  0  0  0  0  0  0
   45.9160   33.2150   37.6510 O   0  0  0  0  0  0  0  0  0  0  0  0
   44.4910   32.7250   38.4600 C   0  0  1  0  0  0  0  0  0  0  0  0
   44.3170   31.6710   37.6410 N   0  0  0  0  0  2  0  0  0  0  0  0
   43.1460   31.2230   37.1470 C   0  0  0  0  0  3  0  0  0  0  0  0
   42.0700   31.8770   37.4990 N   0  0  0  0  0  0  0  0  0  0  0  0
   42.0050   32.9370   38.2900 C   0  0  0  0  0  0  0  0  0  0  0  0
   40.7930   33.5090   38.5680 C   0  0  0  0  0  3  0  0  0  0  0  0
   40.8040   34.6020   39.4020 C   0  0  0  0  0  0  0  0  0  0  0  0
   39.8530   35.0560   39.6240 H   0  0  0  0  0  0  0  0  0  0  0  0
   41.9900   35.0730   39.9180 C   0  0  0  0  0  0  0  0  0  0  0  0
   41.9560   35.9310   40.5690 H   0  0  0  0  0  0  0  0  0  0  0  0
   43.1490   34.4180   39.5710 C   0  0  0  0  0  3  0  0  0  0  0  0
   43.2460   33.3110   38.7370 C   0  0  0  0  0  0  0  0  0  0  0  0
   47.5400   35.2030   41.8330 O   0  0  0  0  0  0  0  0  0  0  0  0
   48.7950   35.4690   41.3030 C   0  0  0  0  0  0  0  0  0  0  0  0
   49.2500   36.7240   41.6920 F   0  0  0  0  0  0  0  0  0  0  0  0
   49.6770   34.4790   41.5990 F   0  0  0  0  0  0  0  0  0  0  0  0
   48.6280   35.5260   39.9310 F   0  0  0  0  0  0  0  0  0  0  0  0
  2  1  2  1  0  0  0
  2 28  1  0  0  0  0
  2  3  1  0  0  0  0
  3  6  1  0  0  0  0
  4 10  1  0  0  0  0
  4  9  1  0  0  0  0
  5  6  1  0  0  0  0
  5  4  2  0  0  0  0
  6  7  2  0  0  0  0
  7  8  1  0  0  0  0
  8  9  2  0  0  0  0
  8 12  1  0  0  0  0
 11  5  1  0  0  0  0
 13  2  1  0  0  0  0
 14 13  1  1  0  0  0
 15 16  1  0  0  0  0
 15 14  1  0  0  0  0
 16 17  1  1  0  0  0
 16 27  1  0  0  0  0
 16 14  1  0  0  0  0
 18 19  2  0  0  0  0
 18 17  1  0  0  0  0
 19 20  1  0  0  0  0
 20 21  2  0  0  0  0
 20 27  1  0  0  0  0
 21 22  1  0  0  0  0
 22 23  1  0  0  0  0
 22 24  2  0  0  0  0
 24 25  1  0  0  0  0
 26 24  1  0  0  0  0
 27 26  2  0  0  0  0
 29 31  1  0  0  0  0
 29 30  1  0  0  0  0
 29 28  1  0  0  0  0
 32 29  1  0  0  0  0
M  END
>  <minimizedAffinity>
-5.98527718

>  <minimizedRMSD>
1.66614914

$$$$
