
 OpenBabel03242519413D

 32 35  0  0  1  0  0  0  0  0999 V2000
   47.9870   32.6490   41.7940 O   0  0  0  0  0  0  0  0  0  0  0  0
   46.9960   33.7320   41.3370 P   0  0  2  0  0  0  0  0  0  0  0  0
   45.4760   33.4940   42.1030 O   0  0  0  0  0  0  0  0  0  0  0  0
   44.3500   35.8970   44.5580 C   0  0  0  0  0  0  0  0  0  0  0  0
   44.5980   35.2920   43.3070 C   0  0  0  0  0  0  0  0  0  0  0  0
   45.2440   34.0530   43.3220 C   0  0  0  0  0  0  0  0  0  0  0  0
   45.5950   33.4990   44.5090 N   0  0  0  0  0  0  0  0  0  0  0  0
   45.3410   34.1090   45.6800 C   0  0  0  0  0  0  0  0  0  0  0  0
   44.7200   35.3070   45.7120 N   0  0  0  0  0  0  0  0  0  0  0  0
   43.8520   36.8590   44.5630 H   0  0  0  0  0  0  0  0  0  0  0  0
   44.3050   35.7630   42.3850 H   0  0  0  0  0  0  0  0  0  0  0  0
   45.6600   33.5840   46.5780 H   0  0  0  0  0  0  0  0  0  0  0  0
   46.7270   33.5720   39.7190 O   0  0  0  0  0  0  0  0  0  0  0  0
   45.7130   33.1800   38.9840 C   0  0  1  0  0  3  0  0  0  0  0  0
   45.9260   33.2130   37.6550 O   0  0  0  0  0  0  0  0  0  0  0  0
   44.5020   32.7220   38.4640 C   0  0  1  0  0  0  0  0  0  0  0  0
   44.3250   31.6690   37.6440 N   0  0  0  0  0  2  0  0  0  0  0  0
   43.1530   31.2250   37.1490 C   0  0  0  0  0  3  0  0  0  0  0  0
   42.0790   31.8820   37.5000 N   0  0  0  0  0  0  0  0  0  0  0  0
   42.0170   32.9410   38.2920 C   0  0  0  0  0  0  0  0  0  0  0  0
   40.8060   33.5160   38.5700 C   0  0  0  0  0  3  0  0  0  0  0  0
   40.8200   34.6070   39.4060 C   0  0  0  0  0  0  0  0  0  0  0  0
   39.8700   35.0650   39.6280 H   0  0  0  0  0  0  0  0  0  0  0  0
   42.0060   35.0750   39.9230 C   0  0  0  0  0  0  0  0  0  0  0  0
   41.9750   35.9330   40.5740 H   0  0  0  0  0  0  0  0  0  0  0  0
   43.1640   34.4180   39.5740 C   0  0  0  0  0  3  0  0  0  0  0  0
   43.2590   33.3110   38.7400 C   0  0  0  0  0  0  0  0  0  0  0  0
   47.5410   35.2090   41.8300 O   0  0  0  0  0  0  0  0  0  0  0  0
   48.7970   35.4740   41.3030 C   0  0  0  0  0  0  0  0  0  0  0  0
   49.2540   36.7280   41.6970 F   0  0  0  0  0  0  0  0  0  0  0  0
   49.6780   34.4830   41.5990 F   0  0  0  0  0  0  0  0  0  0  0  0
   48.6340   35.5360   39.9310 F   0  0  0  0  0  0  0  0  0  0  0  0
  2  1  2  1  0  0  0
  2 28  1  0  0  0  0
  2  3  1  0  0  0  0
  3  6  1  0  0  0  0
  4 10  1  0  0  0  0
  4  9  1  0  0  0  0
  5  6  1  0  0  0  0
  5  4  2  0  0  0  0
  6  7  2  0  0  0  0
  7  8  1  0  0  0  0
  8  9  2  0  0  0  0
  8 12  1  0  0  0  0
 11  5  1  0  0  0  0
 13  2  1  0  0  0  0
 14 13  1  1  0  0  0
 15 16  1  0  0  0  0
 15 14  1  0  0  0  0
 16 17  1  1  0  0  0
 16 27  1  0  0  0  0
 16 14  1  0  0  0  0
 18 19  2  0  0  0  0
 18 17  1  0  0  0  0
 19 20  1  0  0  0  0
 20 21  2  0  0  0  0
 20 27  1  0  0  0  0
 21 22  1  0  0  0  0
 22 23  1  0  0  0  0
 22 24  2  0  0  0  0
 24 25  1  0  0  0  0
 26 24  1  0  0  0  0
 27 26  2  0  0  0  0
 29 31  1  0  0  0  0
 29 30  1  0  0  0  0
 29 28  1  0  0  0  0
 32 29  1  0  0  0  0
M  END
>  <minimizedAffinity>
-5.98336554

>  <minimizedRMSD>
1.51482689

$$$$
