
 OpenBabel03242519413D

 32 35  0  0  1  0  0  0  0  0999 V2000
   48.0380   32.8720   41.6790 O   0  0  0  0  0  0  0  0  0  0  0  0
   47.1920   34.0930   41.2830 P   0  0  2  0  0  0  0  0  0  0  0  0
   45.5950   33.9200   41.8980 O   0  0  0  0  0  0  0  0  0  0  0  0
   44.3910   35.9070   44.6680 C   0  0  0  0  0  0  0  0  0  0  0  0
   44.6750   35.5060   43.3450 C   0  0  0  0  0  0  0  0  0  0  0  0
   45.3300   34.2820   43.1840 C   0  0  0  0  0  0  0  0  0  0  0  0
   45.6550   33.5510   44.2780 N   0  0  0  0  0  0  0  0  0  0  0  0
   45.3670   33.9690   45.5230 C   0  0  0  0  0  0  0  0  0  0  0  0
   44.7360   35.1450   45.7250 N   0  0  0  0  0  0  0  0  0  0  0  0
   43.8860   36.8540   44.8110 H   0  0  0  0  0  0  0  0  0  0  0  0
   44.4010   36.1130   42.5000 H   0  0  0  0  0  0  0  0  0  0  0  0
   45.6690   33.3120   46.3360 H   0  0  0  0  0  0  0  0  0  0  0  0
   47.0490   34.1450   39.6420 O   0  0  0  0  0  0  0  0  0  0  0  0
   46.7220   33.2760   38.7130 C   0  0  1  0  0  3  0  0  0  0  0  0
   47.0740   33.6230   37.4610 O   0  0  0  0  0  0  0  0  0  0  0  0
   46.2640   32.2000   37.9540 C   0  0  2  0  0  0  0  0  0  0  0  0
   45.3270   32.2380   36.9880 N   0  0  0  0  0  2  0  0  0  0  0  0
   44.8920   31.1970   36.2490 C   0  0  0  0  0  3  0  0  0  0  0  0
   45.4340   30.0330   36.4960 N   0  0  0  0  0  0  0  0  0  0  0  0
   46.3690   29.7640   37.3950 C   0  0  0  0  0  0  0  0  0  0  0  0
   46.8410   28.4860   37.5280 C   0  0  0  0  0  3  0  0  0  0  0  0
   47.8150   28.2850   38.4770 C   0  0  0  0  0  0  0  0  0  0  0  0
   48.1900   27.2820   38.5860 H   0  0  0  0  0  0  0  0  0  0  0  0
   48.2740   29.3350   39.2400 C   0  0  0  0  0  0  0  0  0  0  0  0
   49.0360   29.1360   39.9720 H   0  0  0  0  0  0  0  0  0  0  0  0
   47.7250   30.5780   39.0190 C   0  0  0  0  0  3  0  0  0  0  0  0
   46.7400   30.8860   38.0890 C   0  0  0  0  0  0  0  0  0  0  0  0
   47.8210   35.4430   41.9900 O   0  0  0  0  0  0  0  0  0  0  0  0
   49.0600   35.7550   41.4480 C   0  0  0  0  0  0  0  0  0  0  0  0
   49.4440   37.0500   41.7790 F   0  0  0  0  0  0  0  0  0  0  0  0
   49.9960   34.8310   41.7880 F   0  0  0  0  0  0  0  0  0  0  0  0
   48.8930   35.7410   40.0750 F   0  0  0  0  0  0  0  0  0  0  0  0
  2  1  2  1  0  0  0
  2  3  1  0  0  0  0
  2 28  1  0  0  0  0
  3  6  1  0  0  0  0
  4 10  1  0  0  0  0
  4  9  1  0  0  0  0
  5  4  2  0  0  0  0
  6  5  1  0  0  0  0
  6  7  2  0  0  0  0
  7  8  1  0  0  0  0
  8  9  2  0  0  0  0
  8 12  1  0  0  0  0
 11  5  1  0  0  0  0
 13  2  1  0  0  0  0
 14 13  1  1  0  0  0
 15 16  1  0  0  0  0
 15 14  1  0  0  0  0
 16 17  1  6  0  0  0
 16 27  1  0  0  0  0
 16 14  1  0  0  0  0
 18 19  2  0  0  0  0
 18 17  1  0  0  0  0
 19 20  1  0  0  0  0
 20 21  2  0  0  0  0
 20 27  1  0  0  0  0
 21 22  1  0  0  0  0
 22 23  1  0  0  0  0
 22 24  2  0  0  0  0
 24 25  1  0  0  0  0
 26 24  1  0  0  0  0
 27 26  2  0  0  0  0
 29 30  1  0  0  0  0
 29 31  1  0  0  0  0
 29 28  1  0  0  0  0
 32 29  1  0  0  0  0
M  END
>  <minimizedAffinity>
-5.10663652

>  <minimizedRMSD>
1.17554939

$$$$
