
 OpenBabel03242510243D

 41 45  0  0  1  0  0  0  0  0999 V2000
   40.4380   30.2070   41.9050 C   0  0  2  0  0  0  0  0  0  0  0  0
   40.8350   28.8260   41.2590 C   0  0  0  0  0  0  0  0  0  0  0  0
   39.4220   29.2120   41.5440 C   0  0  1  0  0  0  0  0  0  0  0  0
   40.8070   30.2300   42.9500 H   0  0  0  0  0  0  0  0  0  0  0  0
   41.2000   28.8800   40.2100 H   0  0  0  0  0  0  0  0  0  0  0  0
   41.2460   28.0600   41.9080 H   0  0  0  0  0  0  0  0  0  0  0  0
   38.7840   29.5430   40.6850 H   0  0  0  0  0  0  0  0  0  0  0  0
   39.8730   31.6610   39.9360 N   0  0  0  0  0  0  0  0  0  0  0  0
   40.6820   31.4380   41.0510 C   0  0  0  0  0  0  0  0  0  0  0  0
   41.6360   32.1100   41.5170 O   0  0  0  0  0  0  0  0  0  0  0  0
   39.7090   30.7620   39.3990 H   0  0  0  0  0  0  0  0  0  0  0  0
   37.8840   33.0580   39.5140 C   0  0  1  0  0  0  0  0  0  0  0  0
   38.4410   33.5400   40.7030 C   0  0  0  0  0  0  0  0  0  0  0  0
   39.3590   32.9430   39.5990 C   0  0  1  0  0  0  0  0  0  0  0  0
   37.4410   33.7380   38.7420 H   0  0  0  0  0  0  0  0  0  0  0  0
   38.5480   33.0850   41.7030 H   0  0  0  0  0  0  0  0  0  0  0  0
   38.5100   34.6670   40.8200 H   0  0  0  0  0  0  0  0  0  0  0  0
   40.0860   33.6910   39.2460 H   0  0  0  0  0  0  0  0  0  0  0  0
   36.9020   30.9300   38.3920 C   0  0  0  0  0  0  0  0  0  0  0  0
   37.1050   31.7420   39.5540 C   0  0  0  0  0  0  0  0  0  0  0  0
   36.5480   31.3060   40.7400 C   0  0  0  0  0  0  0  0  0  0  0  0
   35.8470   30.1480   40.7480 N   0  0  0  0  0  0  0  0  0  0  0  0
   35.6630   29.3900   39.6330 C   0  0  0  0  0  0  0  0  0  0  0  0
   36.2160   29.8050   38.4150 N   0  0  0  0  0  0  0  0  0  0  0  0
   37.3760   31.3240   37.5410 H   0  0  0  0  0  0  0  0  0  0  0  0
   36.6830   31.8930   41.6370 H   0  0  0  0  0  0  0  0  0  0  0  0
   35.0950   28.4660   39.6680 H   0  0  0  0  0  0  0  0  0  0  0  0
   38.6870   28.5260   42.6860 C   0  0  0  0  0  0  0  0  0  0  0  0
   37.9190   29.2250   43.3750 O   0  0  0  0  0  0  0  0  0  0  0  0
   39.0280   27.0780   42.7820 C   0  0  0  0  0  0  0  0  0  0  0  0
   40.0040   26.6240   43.5900 N   0  0  0  0  0  0  0  0  0  0  0  0
   40.3110   25.3260   43.6780 C   0  0  0  0  0  3  0  0  0  0  0  0
   39.6860   24.3630   42.9810 N   0  0  0  0  0  0  0  0  0  0  0  0
   38.7000   24.7440   42.1540 C   0  0  0  0  0  0  0  0  0  0  0  0
   38.0450   23.7960   41.4310 C   0  0  0  0  0  3  0  0  0  0  0  0
   37.0240   24.1240   40.5640 C   0  0  0  0  0  0  0  0  0  0  0  0
   36.5260   23.3420   40.0070 H   0  0  0  0  0  0  0  0  0  0  0  0
   36.6950   25.4810   40.4650 C   0  0  0  0  0  0  0  0  0  0  0  0
   35.8990   25.7030   39.7840 H   0  0  0  0  0  0  0  0  0  0  0  0
   37.3790   26.4000   41.2110 C   0  0  0  0  0  3  0  0  0  0  0  0
   38.3970   26.0830   42.0760 C   0  0  0  0  0  0  0  0  0  0  0  0
  1  4  1  1  0  0  0
  2  3  1  0  0  0  0
  2  1  1  0  0  0  0
  2  6  1  0  0  0  0
  3  7  1  6  0  0  0
  3  1  1  0  0  0  0
  3 28  1  0  0  0  0
  5  2  1  0  0  0  0
  8  9  1  0  0  0  0
  9 10  2  0  0  0  0
  9  1  1  0  0  0  0
 11  8  1  0  0  0  0
 12 15  1  6  0  0  0
 12 20  1  0  0  0  0
 12 14  1  0  0  0  0
 12 13  1  0  0  0  0
 13 17  1  0  0  0  0
 13 16  1  0  0  0  0
 14 18  1  6  0  0  0
 14  8  1  0  0  0  0
 14 13  1  0  0  0  0
 19 24  2  0  0  0  0
 19 20  1  0  0  0  0
 20 21  2  0  0  0  0
 21 22  1  0  0  0  0
 21 26  1  0  0  0  0
 23 27  1  0  0  0  0
 23 22  2  0  0  0  0
 24 23  1  0  0  0  0
 25 19  1  0  0  0  0
 28 30  1  0  0  0  0
 28 29  2  0  0  0  0
 30 31  1  0  0  0  0
 31 32  2  0  0  0  0
 33 32  1  0  0  0  0
 34 33  2  0  0  0  0
 35 34  1  0  0  0  0
 36 35  2  0  0  0  0
 37 36  1  0  0  0  0
 38 36  1  0  0  0  0
 38 40  2  0  0  0  0
 39 38  1  0  0  0  0
 40 41  1  0  0  0  0
 41 34  1  0  0  0  0
 41 30  2  0  0  0  0
M  END
>  <minimizedAffinity>
-6.07415295

$$$$

 OpenBabel03242510243D

 41 45  0  0  1  0  0  0  0  0999 V2000
   41.4950   30.1720   40.6890 C   0  0  2  0  0  0  0  0  0  0  0  0
   41.7330   28.7840   39.9830 C   0  0  0  0  0  0  0  0  0  0  0  0
   40.5660   29.0510   40.8720 C   0  0  1  0  0  0  0  0  0  0  0  0
   42.2900   30.3280   41.4450 H   0  0  0  0  0  0  0  0  0  0  0  0
   41.5730   28.7770   38.8820 H   0  0  0  0  0  0  0  0  0  0  0  0
   42.4900   28.1260   40.3960 H   0  0  0  0  0  0  0  0  0  0  0  0
   39.5710   29.2360   40.3930 H   0  0  0  0  0  0  0  0  0  0  0  0
   39.8280   31.5850   39.4510 N   0  0  0  0  0  0  0  0  0  0  0  0
   41.1620   31.3370   39.7750 C   0  0  0  0  0  0  0  0  0  0  0  0
   42.2120   31.9380   39.4330 O   0  0  0  0  0  0  0  0  0  0  0  0
   39.3120   30.6830   39.2410 H   0  0  0  0  0  0  0  0  0  0  0  0
   37.8100   32.9930   39.6380 C   0  0  1  0  0  0  0  0  0  0  0  0
   38.5930   33.3020   40.7550 C   0  0  0  0  0  0  0  0  0  0  0  0
   39.2720   32.8930   39.4160 C   0  0  1  0  0  0  0  0  0  0  0  0
   37.2320   33.7720   39.0780 H   0  0  0  0  0  0  0  0  0  0  0  0
   38.8880   32.7040   41.6350 H   0  0  0  0  0  0  0  0  0  0  0  0
   38.6960   34.4000   41.0240 H   0  0  0  0  0  0  0  0  0  0  0  0
   39.9240   33.6990   39.0450 H   0  0  0  0  0  0  0  0  0  0  0  0
   36.7870   30.9310   38.4310 C   0  0  0  0  0  0  0  0  0  0  0  0
   37.0400   31.6700   39.6310 C   0  0  0  0  0  0  0  0  0  0  0  0
   36.5390   31.1570   40.8120 C   0  0  0  0  0  0  0  0  0  0  0  0
   35.8440   29.9960   40.7790 N   0  0  0  0  0  0  0  0  0  0  0  0
   35.6130   29.3080   39.6280 C   0  0  0  0  0  0  0  0  0  0  0  0
   36.1080   29.8010   38.4150 N   0  0  0  0  0  0  0  0  0  0  0  0
   37.2210   31.3810   37.5860 H   0  0  0  0  0  0  0  0  0  0  0  0
   36.7110   31.6890   41.7360 H   0  0  0  0  0  0  0  0  0  0  0  0
   35.0510   28.3790   39.6310 H   0  0  0  0  0  0  0  0  0  0  0  0
   40.5240   28.4030   42.2480 C   0  0  0  0  0  0  0  0  0  0  0  0
   41.5910   28.3530   42.8910 O   0  0  0  0  0  0  0  0  0  0  0  0
   39.1580   27.9230   42.6010 C   0  0  0  0  0  0  0  0  0  0  0  0
   38.2870   28.6840   43.2890 N   0  0  0  0  0  0  0  0  0  0  0  0
   37.0610   28.2560   43.6060 C   0  0  0  0  0  3  0  0  0  0  0  0
   36.5850   27.0440   43.2740 N   0  0  0  0  0  0  0  0  0  0  0  0
   37.4030   26.2310   42.5870 C   0  0  0  0  0  0  0  0  0  0  0  0
   36.9550   24.9940   42.2350 C   0  0  0  0  0  3  0  0  0  0  0  0
   37.7460   24.1130   41.5280 C   0  0  0  0  0  0  0  0  0  0  0  0
   37.3560   23.1390   41.2660 H   0  0  0  0  0  0  0  0  0  0  0  0
   39.0320   24.5520   41.1920 C   0  0  0  0  0  0  0  0  0  0  0  0
   39.6220   23.8460   40.6440 H   0  0  0  0  0  0  0  0  0  0  0  0
   39.4400   25.8030   41.5660 C   0  0  0  0  0  3  0  0  0  0  0  0
   38.6600   26.6870   42.2690 C   0  0  0  0  0  0  0  0  0  0  0  0
  1  3  1  0  0  0  0
  1  4  1  1  0  0  0
  2  6  1  0  0  0  0
  2  1  1  0  0  0  0
  2  3  1  0  0  0  0
  3  7  1  6  0  0  0
  3 28  1  0  0  0  0
  5  2  1  0  0  0  0
  8  9  1  0  0  0  0
  9  1  1  0  0  0  0
 10  9  2  0  0  0  0
 11  8  1  0  0  0  0
 12 15  1  6  0  0  0
 12 13  1  0  0  0  0
 13 17  1  0  0  0  0
 13 16  1  0  0  0  0
 14 18  1  6  0  0  0
 14  8  1  0  0  0  0
 14 12  1  0  0  0  0
 14 13  1  0  0  0  0
 19 20  1  0  0  0  0
 20 12  1  0  0  0  0
 20 21  2  0  0  0  0
 21 26  1  0  0  0  0
 22 21  1  0  0  0  0
 23 27  1  0  0  0  0
 23 22  2  0  0  0  0
 24 19  2  0  0  0  0
 24 23  1  0  0  0  0
 25 19  1  0  0  0  0
 28 30  1  0  0  0  0
 28 29  2  0  0  0  0
 30 31  1  0  0  0  0
 31 32  2  0  0  0  0
 33 32  1  0  0  0  0
 34 33  2  0  0  0  0
 35 34  1  0  0  0  0
 36 35  2  0  0  0  0
 37 36  1  0  0  0  0
 38 36  1  0  0  0  0
 38 40  2  0  0  0  0
 39 38  1  0  0  0  0
 40 41  1  0  0  0  0
 41 34  1  0  0  0  0
 41 30  2  0  0  0  0
M  END
>  <minimizedAffinity>
-5.88160324

$$$$

 OpenBabel03242510243D

 41 45  0  0  1  0  0  0  0  0999 V2000
   34.8090   29.4030   38.9140 C   0  0  2  0  0  0  0  0  0  0  0  0
   36.1150   30.0450   38.3090 C   0  0  0  0  0  0  0  0  0  0  0  0
   36.1310   29.1360   39.4920 C   0  0  1  0  0  0  0  0  0  0  0  0
   34.1900   30.2080   39.3590 H   0  0  0  0  0  0  0  0  0  0  0  0
   36.4300   29.6390   37.3230 H   0  0  0  0  0  0  0  0  0  0  0  0
   36.3150   31.0890   38.5240 H   0  0  0  0  0  0  0  0  0  0  0  0
   36.4610   28.0780   39.3380 H   0  0  0  0  0  0  0  0  0  0  0  0
   32.8570   28.6940   37.5010 N   0  0  0  0  0  0  0  0  0  0  0  0
   34.1040   28.3800   38.0430 C   0  0  0  0  0  0  0  0  0  0  0  0
   34.8030   27.3410   37.9360 O   0  0  0  0  0  0  0  0  0  0  0  0
   32.2430   29.1820   38.2150 H   0  0  0  0  0  0  0  0  0  0  0  0
   31.3620   29.1470   35.5910 C   0  0  1  0  0  0  0  0  0  0  0  0
   32.6270   29.5960   35.1980 C   0  0  0  0  0  0  0  0  0  0  0  0
   32.4960   28.3820   36.1620 C   0  0  1  0  0  0  0  0  0  0  0  0
   30.6640   28.6290   34.8850 H   0  0  0  0  0  0  0  0  0  0  0  0
   33.2610   30.4220   35.5630 H   0  0  0  0  0  0  0  0  0  0  0  0
   32.9620   29.3320   34.1460 H   0  0  0  0  0  0  0  0  0  0  0  0
   32.9520   27.4810   35.7230 H   0  0  0  0  0  0  0  0  0  0  0  0
   29.6160   29.4320   37.4950 C   0  0  0  0  0  0  0  0  0  0  0  0
   30.5620   29.9980   36.5800 C   0  0  0  0  0  0  0  0  0  0  0  0
   30.7240   31.3690   36.5990 C   0  0  0  0  0  0  0  0  0  0  0  0
   29.9910   32.1030   37.4690 N   0  0  0  0  0  0  0  0  0  0  0  0
   29.0960   31.5480   38.3310 C   0  0  0  0  0  0  0  0  0  0  0  0
   28.9090   30.1610   38.3360 N   0  0  0  0  0  0  0  0  0  0  0  0
   29.5720   28.3850   37.4280 H   0  0  0  0  0  0  0  0  0  0  0  0
   31.4300   31.8290   35.9230 H   0  0  0  0  0  0  0  0  0  0  0  0
   28.5210   32.1620   39.0170 H   0  0  0  0  0  0  0  0  0  0  0  0
   36.4170   29.7230   40.8670 C   0  0  0  0  0  0  0  0  0  0  0  0
   36.0140   30.8800   41.0920 O   0  0  0  0  0  0  0  0  0  0  0  0
   37.1590   28.7690   41.7400 C   0  0  0  0  0  0  0  0  0  0  0  0
   36.5690   27.6910   42.2880 N   0  0  0  0  0  0  0  0  0  0  0  0
   37.2320   26.8340   43.0700 C   0  0  0  0  0  3  0  0  0  0  0  0
   38.5320   26.9620   43.3820 N   0  0  0  0  0  0  0  0  0  0  0  0
   39.1860   28.0170   42.8690 C   0  0  0  0  0  0  0  0  0  0  0  0
   40.5040   28.1790   43.1640 C   0  0  0  0  0  3  0  0  0  0  0  0
   41.2300   29.2420   42.6690 C   0  0  0  0  0  0  0  0  0  0  0  0
   42.2770   29.3380   42.9240 H   0  0  0  0  0  0  0  0  0  0  0  0
   40.5450   30.1450   41.8480 C   0  0  0  0  0  0  0  0  0  0  0  0
   41.1350   30.9590   41.4800 H   0  0  0  0  0  0  0  0  0  0  0  0
   39.2190   29.9420   41.5780 C   0  0  0  0  0  3  0  0  0  0  0  0
   38.4880   28.8880   42.0660 C   0  0  0  0  0  0  0  0  0  0  0  0
  1  4  1  1  0  0  0
  1  3  1  0  0  0  0
  2  6  1  0  0  0  0
  2  1  1  0  0  0  0
  2  3  1  0  0  0  0
  3  7  1  6  0  0  0
  3 28  1  0  0  0  0
  5  2  1  0  0  0  0
  8  9  1  0  0  0  0
  8 11  1  0  0  0  0
  9  1  1  0  0  0  0
 10  9  2  0  0  0  0
 12 15  1  6  0  0  0
 12 14  1  0  0  0  0
 12 20  1  0  0  0  0
 13 16  1  0  0  0  0
 13 12  1  0  0  0  0
 13 14  1  0  0  0  0
 14 18  1  6  0  0  0
 14  8  1  0  0  0  0
 17 13  1  0  0  0  0
 19 24  1  0  0  0  0
 20 21  1  0  0  0  0
 20 19  2  0  0  0  0
 21 22  2  0  0  0  0
 22 23  1  0  0  0  0
 23 24  2  0  0  0  0
 23 27  1  0  0  0  0
 25 19  1  0  0  0  0
 26 21  1  0  0  0  0
 28 29  2  0  0  0  0
 28 30  1  0  0  0  0
 30 41  2  0  0  0  0
 30 31  1  0  0  0  0
 31 32  2  0  0  0  0
 32 33  1  0  0  0  0
 34 35  1  0  0  0  0
 34 33  2  0  0  0  0
 36 37  1  0  0  0  0
 36 35  2  0  0  0  0
 38 36  1  0  0  0  0
 39 38  1  0  0  0  0
 40 38  2  0  0  0  0
 40 41  1  0  0  0  0
 41 34  1  0  0  0  0
M  END
>  <minimizedAffinity>
-5.81792212

$$$$

 OpenBabel03242510243D

 41 45  0  0  1  0  0  0  0  0999 V2000
   39.1740   29.2730   41.6640 C   0  0  2  0  0  0  0  0  0  0  0  0
   39.7410   30.4150   42.5900 C   0  0  0  0  0  0  0  0  0  0  0  0
   38.4100   30.5000   41.9200 C   0  0  1  0  0  0  0  0  0  0  0  0
   39.7930   29.2180   40.7460 H   0  0  0  0  0  0  0  0  0  0  0  0
   39.7750   30.1730   43.6750 H   0  0  0  0  0  0  0  0  0  0  0  0
   40.5070   31.0660   42.1830 H   0  0  0  0  0  0  0  0  0  0  0  0
   37.4970   30.3150   42.5400 H   0  0  0  0  0  0  0  0  0  0  0  0
   39.6820   26.8730   42.2030 N   0  0  0  0  0  0  0  0  0  0  0  0
   38.8280   27.9650   42.3530 C   0  0  0  0  0  0  0  0  0  0  0  0
   37.7550   28.0830   42.9970 O   0  0  0  0  0  0  0  0  0  0  0  0
   40.0130   26.7820   41.2000 H   0  0  0  0  0  0  0  0  0  0  0  0
   39.6300   24.5960   43.1520 C   0  0  1  0  0  0  0  0  0  0  0  0
   40.9710   24.8500   42.8480 C   0  0  0  0  0  0  0  0  0  0  0  0
   40.0360   26.0150   43.2810 C   0  0  1  0  0  0  0  0  0  0  0  0
   39.3190   24.0390   44.0730 H   0  0  0  0  0  0  0  0  0  0  0  0
   41.4930   24.9950   41.8860 H   0  0  0  0  0  0  0  0  0  0  0  0
   41.7410   24.5460   43.6250 H   0  0  0  0  0  0  0  0  0  0  0  0
   40.4100   26.4990   44.1960 H   0  0  0  0  0  0  0  0  0  0  0  0
   37.2500   24.4150   42.1230 C   0  0  0  0  0  0  0  0  0  0  0  0
   38.6700   24.2750   42.0040 C   0  0  0  0  0  0  0  0  0  0  0  0
   39.1650   23.8090   40.8010 C   0  0  0  0  0  0  0  0  0  0  0  0
   38.2960   23.5130   39.8070 N   0  0  0  0  0  0  0  0  0  0  0  0
   36.9490   23.6520   39.9380 C   0  0  0  0  0  0  0  0  0  0  0  0
   36.4160   24.1210   41.1450 N   0  0  0  0  0  0  0  0  0  0  0  0
   36.9630   24.7930   43.0610 H   0  0  0  0  0  0  0  0  0  0  0  0
   40.2310   23.6920   40.6770 H   0  0  0  0  0  0  0  0  0  0  0  0
   36.2750   23.4050   39.1240 H   0  0  0  0  0  0  0  0  0  0  0  0
   38.2330   31.4620   40.7540 C   0  0  0  0  0  0  0  0  0  0  0  0
   38.3090   32.6810   41.0000 O   0  0  0  0  0  0  0  0  0  0  0  0
   37.9900   30.7460   39.4690 C   0  0  0  0  0  0  0  0  0  0  0  0
   38.9060   30.7130   38.4830 N   0  0  0  0  0  0  0  0  0  0  0  0
   38.6910   30.0720   37.3300 C   0  0  0  0  0  3  0  0  0  0  0  0
   37.5580   29.4080   37.0470 N   0  0  0  0  0  0  0  0  0  0  0  0
   36.5990   29.4000   37.9860 C   0  0  0  0  0  0  0  0  0  0  0  0
   35.4370   28.7380   37.7330 C   0  0  0  0  0  3  0  0  0  0  0  0
   34.4150   28.6930   38.6570 C   0  0  0  0  0  0  0  0  0  0  0  0
   33.5050   28.1570   38.4200 H   0  0  0  0  0  0  0  0  0  0  0  0
   34.6300   29.3620   39.8670 C   0  0  0  0  0  0  0  0  0  0  0  0
   33.8180   29.3090   40.5630 H   0  0  0  0  0  0  0  0  0  0  0  0
   35.8140   30.0140   40.0790 C   0  0  0  0  0  3  0  0  0  0  0  0
   36.8370   30.0640   39.1660 C   0  0  0  0  0  0  0  0  0  0  0  0
  1  4  1  6  0  0  0
  1  3  1  0  0  0  0
  1  9  1  0  0  0  0
  1  2  1  0  0  0  0
  2  5  1  0  0  0  0
  3  7  1  1  0  0  0
  3  2  1  0  0  0  0
  6  2  1  0  0  0  0
  8  9  1  0  0  0  0
  8 14  1  0  0  0  0
  9 10  2  0  0  0  0
 11  8  1  0  0  0  0
 12 14  1  0  0  0  0
 12 15  1  1  0  0  0
 13 12  1  0  0  0  0
 13 14  1  0  0  0  0
 13 17  1  0  0  0  0
 14 18  1  1  0  0  0
 16 13  1  0  0  0  0
 19 25  1  0  0  0  0
 20 19  1  0  0  0  0
 20 12  1  0  0  0  0
 21 20  2  0  0  0  0
 22 23  2  0  0  0  0
 22 21  1  0  0  0  0
 23 24  1  0  0  0  0
 24 19  2  0  0  0  0
 26 21  1  0  0  0  0
 27 23  1  0  0  0  0
 28 29  2  0  0  0  0
 28  3  1  0  0  0  0
 30 28  1  0  0  0  0
 31 30  2  0  0  0  0
 32 31  1  0  0  0  0
 33 32  2  0  0  0  0
 33 34  1  0  0  0  0
 34 41  1  0  0  0  0
 35 34  2  0  0  0  0
 35 36  1  0  0  0  0
 36 38  2  0  0  0  0
 37 36  1  0  0  0  0
 38 40  1  0  0  0  0
 38 39  1  0  0  0  0
 41 30  1  0  0  0  0
 41 40  2  0  0  0  0
M  END
>  <minimizedAffinity>
-5.6774745

$$$$

 OpenBabel03242510243D

 41 45  0  0  1  0  0  0  0  0999 V2000
   36.8110   27.4330   38.8900 C   0  0  2  0  0  0  0  0  0  0  0  0
   37.4950   27.0500   37.5240 C   0  0  0  0  0  0  0  0  0  0  0  0
   37.9620   28.1840   38.3740 C   0  0  1  0  0  0  0  0  0  0  0  0
   35.7930   27.8190   38.6830 H   0  0  0  0  0  0  0  0  0  0  0  0
   38.0780   26.1030   37.5340 H   0  0  0  0  0  0  0  0  0  0  0  0
   36.9930   27.3360   36.6050 H   0  0  0  0  0  0  0  0  0  0  0  0
   38.8830   28.0340   38.9910 H   0  0  0  0  0  0  0  0  0  0  0  0
   37.7910   26.7350   41.0950 N   0  0  0  0  0  0  0  0  0  0  0  0
   36.9610   26.4270   40.0170 C   0  0  0  0  0  0  0  0  0  0  0  0
   36.2640   25.4070   39.7860 O   0  0  0  0  0  0  0  0  0  0  0  0
   38.6930   27.1850   40.7660 H   0  0  0  0  0  0  0  0  0  0  0  0
   37.8960   27.4450   43.4560 C   0  0  1  0  0  0  0  0  0  0  0  0
   36.5550   27.5780   43.0790 C   0  0  0  0  0  0  0  0  0  0  0  0
   37.4360   26.4630   42.4450 C   0  0  1  0  0  0  0  0  0  0  0  0
   38.1990   27.0720   44.4690 H   0  0  0  0  0  0  0  0  0  0  0  0
   36.0570   28.2510   42.3600 H   0  0  0  0  0  0  0  0  0  0  0  0
   35.7740   27.2050   43.8140 H   0  0  0  0  0  0  0  0  0  0  0  0
   37.0200   25.4660   42.6560 H   0  0  0  0  0  0  0  0  0  0  0  0
   40.3100   28.2500   42.9300 C   0  0  0  0  0  0  0  0  0  0  0  0
   38.8980   28.4920   42.9670 C   0  0  0  0  0  0  0  0  0  0  0  0
   38.4550   29.7340   42.5580 C   0  0  0  0  0  0  0  0  0  0  0  0
   39.3610   30.6510   42.1480 N   0  0  0  0  0  0  0  0  0  0  0  0
   40.6990   30.4040   42.1200 C   0  0  0  0  0  0  0  0  0  0  0  0
   41.1810   29.1540   42.5280 N   0  0  0  0  0  0  0  0  0  0  0  0
   40.5560   27.2760   43.2360 H   0  0  0  0  0  0  0  0  0  0  0  0
   37.3960   29.9500   42.5730 H   0  0  0  0  0  0  0  0  0  0  0  0
   41.4040   31.1600   41.7880 H   0  0  0  0  0  0  0  0  0  0  0  0
   37.7060   29.6090   37.9060 C   0  0  0  0  0  0  0  0  0  0  0  0
   36.5950   29.8560   37.3990 O   0  0  0  0  0  0  0  0  0  0  0  0
   38.8780   30.4970   38.1480 C   0  0  0  0  0  0  0  0  0  0  0  0
   40.1190   30.1750   37.7360 N   0  0  0  0  0  0  0  0  0  0  0  0
   41.1720   30.9700   37.9510 C   0  0  0  0  0  3  0  0  0  0  0  0
   41.0970   32.1500   38.5890 N   0  0  0  0  0  0  0  0  0  0  0  0
   39.8890   32.5350   39.0290 C   0  0  0  0  0  0  0  0  0  0  0  0
   39.7750   33.7240   39.6810 C   0  0  0  0  0  3  0  0  0  0  0  0
   38.5620   34.1750   40.1560 C   0  0  0  0  0  0  0  0  0  0  0  0
   38.5110   35.1260   40.6690 H   0  0  0  0  0  0  0  0  0  0  0  0
   37.4530   33.3500   39.9360 C   0  0  0  0  0  0  0  0  0  0  0  0
   36.5260   33.7280   40.3170 H   0  0  0  0  0  0  0  0  0  0  0  0
   37.6140   32.1630   39.2760 C   0  0  0  0  0  3  0  0  0  0  0  0
   38.8170   31.7050   38.7990 C   0  0  0  0  0  0  0  0  0  0  0  0
  1  4  1  6  0  0  0
  1  9  1  0  0  0  0
  2  5  1  0  0  0  0
  2  3  1  0  0  0  0
  2  1  1  0  0  0  0
  3  1  1  0  0  0  0
  3  7  1  1  0  0  0
  6  2  1  0  0  0  0
  8 14  1  0  0  0  0
  9  8  1  0  0  0  0
 10  9  2  0  0  0  0
 11  8  1  0  0  0  0
 12 15  1  1  0  0  0
 13 12  1  0  0  0  0
 13 17  1  0  0  0  0
 14 18  1  1  0  0  0
 14 13  1  0  0  0  0
 14 12  1  0  0  0  0
 16 13  1  0  0  0  0
 19 20  1  0  0  0  0
 19 25  1  0  0  0  0
 20 12  1  0  0  0  0
 21 26  1  0  0  0  0
 21 20  2  0  0  0  0
 22 21  1  0  0  0  0
 23 22  2  0  0  0  0
 23 24  1  0  0  0  0
 24 19  2  0  0  0  0
 27 23  1  0  0  0  0
 28 30  1  0  0  0  0
 28  3  1  0  0  0  0
 29 28  2  0  0  0  0
 30 41  1  0  0  0  0
 31 32  1  0  0  0  0
 31 30  2  0  0  0  0
 32 33  2  0  0  0  0
 33 34  1  0  0  0  0
 34 35  1  0  0  0  0
 35 36  2  0  0  0  0
 36 37  1  0  0  0  0
 38 36  1  0  0  0  0
 38 39  1  0  0  0  0
 40 38  2  0  0  0  0
 41 34  2  0  0  0  0
 41 40  1  0  0  0  0
M  END
>  <minimizedAffinity>
-5.66858006

$$$$

 OpenBabel03242510243D

 41 45  0  0  1  0  0  0  0  0999 V2000
   38.0540   30.3160   39.3390 C   0  0  2  0  0  0  0  0  0  0  0  0
   37.2470   29.6260   38.1760 C   0  0  0  0  0  0  0  0  0  0  0  0
   36.5870   30.3440   39.3050 C   0  0  1  0  0  0  0  0  0  0  0  0
   38.5540   29.5320   39.9410 H   0  0  0  0  0  0  0  0  0  0  0  0
   37.3110   30.1320   37.1880 H   0  0  0  0  0  0  0  0  0  0  0  0
   37.1520   28.5450   38.1940 H   0  0  0  0  0  0  0  0  0  0  0  0
   36.1820   31.3680   39.1100 H   0  0  0  0  0  0  0  0  0  0  0  0
   40.1510   31.3410   38.4100 N   0  0  0  0  0  0  0  0  0  0  0  0
   38.8790   31.5300   38.9500 C   0  0  0  0  0  0  0  0  0  0  0  0
   38.2400   32.5860   39.1890 O   0  0  0  0  0  0  0  0  0  0  0  0
   40.6780   30.5830   38.9320 H   0  0  0  0  0  0  0  0  0  0  0  0
   41.8140   32.9550   37.5640 C   0  0  1  0  0  0  0  0  0  0  0  0
   42.1110   31.7400   36.9360 C   0  0  0  0  0  0  0  0  0  0  0  0
   40.6400   32.0890   37.3040 C   0  0  1  0  0  0  0  0  0  0  0  0
   41.8870   33.9380   37.0300 H   0  0  0  0  0  0  0  0  0  0  0  0
   42.4810   30.7790   37.3330 H   0  0  0  0  0  0  0  0  0  0  0  0
   42.3440   31.7780   35.8260 H   0  0  0  0  0  0  0  0  0  0  0  0
   40.0060   32.1140   36.4040 H   0  0  0  0  0  0  0  0  0  0  0  0
   41.6710   34.1780   39.8520 C   0  0  0  0  0  0  0  0  0  0  0  0
   42.2050   33.1320   39.0320 C   0  0  0  0  0  0  0  0  0  0  0  0
   43.1220   32.2760   39.6100 C   0  0  0  0  0  0  0  0  0  0  0  0
   43.4680   32.4640   40.9050 N   0  0  0  0  0  0  0  0  0  0  0  0
   42.9500   33.4640   41.6690 C   0  0  0  0  0  0  0  0  0  0  0  0
   42.0170   34.3480   41.1130 N   0  0  0  0  0  0  0  0  0  0  0  0
   40.9670   34.7660   39.3410 H   0  0  0  0  0  0  0  0  0  0  0  0
   43.5450   31.4760   39.0210 H   0  0  0  0  0  0  0  0  0  0  0  0
   43.2470   33.5920   42.7050 H   0  0  0  0  0  0  0  0  0  0  0  0
   35.8540   29.5340   40.3640 C   0  0  0  0  0  0  0  0  0  0  0  0
   34.6130   29.4630   40.2750 O   0  0  0  0  0  0  0  0  0  0  0  0
   36.7880   28.9420   41.3640 C   0  0  0  0  0  0  0  0  0  0  0  0
   37.3600   29.6790   42.3340 N   0  0  0  0  0  0  0  0  0  0  0  0
   38.1970   29.1510   43.2320 C   0  0  0  0  0  3  0  0  0  0  0  0
   38.5450   27.8540   43.2540 N   0  0  0  0  0  0  0  0  0  0  0  0
   38.0120   27.0590   42.3140 C   0  0  0  0  0  0  0  0  0  0  0  0
   38.3420   25.7380   42.3050 C   0  0  0  0  0  3  0  0  0  0  0  0
   37.8270   24.8710   41.3650 C   0  0  0  0  0  0  0  0  0  0  0  0
   38.1130   23.8270   41.3900 H   0  0  0  0  0  0  0  0  0  0  0  0
   36.9490   25.4140   40.4200 C   0  0  0  0  0  0  0  0  0  0  0  0
   36.5670   24.7160   39.7040 H   0  0  0  0  0  0  0  0  0  0  0  0
   36.6450   26.7470   40.4670 C   0  0  0  0  0  3  0  0  0  0  0  0
   37.1520   27.6180   41.3980 C   0  0  0  0  0  0  0  0  0  0  0  0
  1  4  1  1  0  0  0
  2  6  1  0  0  0  0
  2  3  1  0  0  0  0
  2  1  1  0  0  0  0
  3  7  1  6  0  0  0
  3  1  1  0  0  0  0
  3 28  1  0  0  0  0
  5  2  1  0  0  0  0
  8 11  1  0  0  0  0
  8  9  1  0  0  0  0
  9 10  2  0  0  0  0
  9  1  1  0  0  0  0
 12 15  1  6  0  0  0
 12 20  1  0  0  0  0
 13 14  1  0  0  0  0
 13 16  1  0  0  0  0
 13 12  1  0  0  0  0
 14 18  1  6  0  0  0
 14 12  1  0  0  0  0
 14  8  1  0  0  0  0
 17 13  1  0  0  0  0
 19 24  1  0  0  0  0
 20 21  1  0  0  0  0
 20 19  2  0  0  0  0
 21 22  2  0  0  0  0
 22 23  1  0  0  0  0
 23 27  1  0  0  0  0
 24 23  2  0  0  0  0
 25 19  1  0  0  0  0
 26 21  1  0  0  0  0
 28 30  1  0  0  0  0
 29 28  2  0  0  0  0
 30 41  2  0  0  0  0
 30 31  1  0  0  0  0
 31 32  2  0  0  0  0
 32 33  1  0  0  0  0
 34 33  2  0  0  0  0
 35 34  1  0  0  0  0
 36 37  1  0  0  0  0
 36 35  2  0  0  0  0
 38 40  2  0  0  0  0
 38 36  1  0  0  0  0
 39 38  1  0  0  0  0
 40 41  1  0  0  0  0
 41 34  1  0  0  0  0
M  END
>  <minimizedAffinity>
-5.64419127

$$$$

 OpenBabel03242510243D

 41 45  0  0  1  0  0  0  0  0999 V2000
   36.2710   30.1980   39.2630 C   0  0  2  0  0  0  0  0  0  0  0  0
   36.3530   29.4470   37.8800 C   0  0  0  0  0  0  0  0  0  0  0  0
   37.4970   30.2120   38.4560 C   0  0  1  0  0  0  0  0  0  0  0  0
   35.5650   31.0460   39.1670 H   0  0  0  0  0  0  0  0  0  0  0  0
   36.3700   28.3370   37.9430 H   0  0  0  0  0  0  0  0  0  0  0  0
   35.8720   29.9060   37.0230 H   0  0  0  0  0  0  0  0  0  0  0  0
   38.3300   29.6350   38.9300 H   0  0  0  0  0  0  0  0  0  0  0  0
   37.2930   28.9740   41.2040 N   0  0  0  0  0  0  0  0  0  0  0  0
   36.1430   29.3180   40.4930 C   0  0  0  0  0  0  0  0  0  0  0  0
   34.9380   29.0210   40.6930 O   0  0  0  0  0  0  0  0  0  0  0  0
   38.0860   28.7210   40.5480 H   0  0  0  0  0  0  0  0  0  0  0  0
   37.9120   27.7560   43.2590 C   0  0  1  0  0  0  0  0  0  0  0  0
   38.8000   28.8330   43.1740 C   0  0  0  0  0  0  0  0  0  0  0  0
   37.3510   28.9730   42.6250 C   0  0  1  0  0  0  0  0  0  0  0  0
   37.4820   27.4100   44.2340 H   0  0  0  0  0  0  0  0  0  0  0  0
   39.6020   29.0690   42.4540 H   0  0  0  0  0  0  0  0  0  0  0  0
   39.0030   29.4090   44.1310 H   0  0  0  0  0  0  0  0  0  0  0  0
   36.8120   29.7800   43.1440 H   0  0  0  0  0  0  0  0  0  0  0  0
   37.1000   25.5990   42.0570 C   0  0  0  0  0  0  0  0  0  0  0  0
   38.1290   26.5570   42.3330 C   0  0  0  0  0  0  0  0  0  0  0  0
   39.3610   26.3540   41.7430 C   0  0  0  0  0  0  0  0  0  0  0  0
   39.5350   25.2770   40.9440 N   0  0  0  0  0  0  0  0  0  0  0  0
   38.5460   24.3760   40.6930 C   0  0  0  0  0  0  0  0  0  0  0  0
   37.2850   24.5530   41.2770 N   0  0  0  0  0  0  0  0  0  0  0  0
   36.1930   25.8410   42.5280 H   0  0  0  0  0  0  0  0  0  0  0  0
   40.1590   27.0580   41.9290 H   0  0  0  0  0  0  0  0  0  0  0  0
   38.7150   23.5190   40.0490 H   0  0  0  0  0  0  0  0  0  0  0  0
   37.8910   31.5370   37.8190 C   0  0  0  0  0  0  0  0  0  0  0  0
   37.5710   31.7180   36.6280 O   0  0  0  0  0  0  0  0  0  0  0  0
   38.6200   32.4220   38.7720 C   0  0  0  0  0  0  0  0  0  0  0  0
   37.9770   33.2730   39.5940 N   0  0  0  0  0  0  0  0  0  0  0  0
   38.6290   34.0670   40.4500 C   0  0  0  0  0  3  0  0  0  0  0  0
   39.9660   34.0940   40.5720 N   0  0  0  0  0  0  0  0  0  0  0  0
   40.6720   33.2700   39.7810 C   0  0  0  0  0  0  0  0  0  0  0  0
   42.0290   33.2700   39.8770 C   0  0  0  0  0  3  0  0  0  0  0  0
   42.8100   32.4470   39.0920 C   0  0  0  0  0  0  0  0  0  0  0  0
   43.8860   32.4750   39.1960 H   0  0  0  0  0  0  0  0  0  0  0  0
   42.1370   31.6120   38.1930 C   0  0  0  0  0  0  0  0  0  0  0  0
   42.7700   30.9850   37.5980 H   0  0  0  0  0  0  0  0  0  0  0  0
   40.7710   31.6440   38.1310 C   0  0  0  0  0  3  0  0  0  0  0  0
   39.9860   32.4600   38.9070 C   0  0  0  0  0  0  0  0  0  0  0  0
  1  4  1  1  0  0  0
  1  9  1  0  0  0  0
  2  5  1  0  0  0  0
  2  3  1  0  0  0  0
  2  1  1  0  0  0  0
  3  7  1  1  0  0  0
  3  1  1  0  0  0  0
  6  2  1  0  0  0  0
  8 14  1  0  0  0  0
  9 10  2  0  0  0  0
  9  8  1  0  0  0  0
 11  8  1  0  0  0  0
 12 15  1  1  0  0  0
 13 12  1  0  0  0  0
 13 17  1  0  0  0  0
 14 18  1  1  0  0  0
 14 13  1  0  0  0  0
 14 12  1  0  0  0  0
 16 13  1  0  0  0  0
 19 20  1  0  0  0  0
 19 25  1  0  0  0  0
 20 12  1  0  0  0  0
 21 26  1  0  0  0  0
 21 20  2  0  0  0  0
 22 21  1  0  0  0  0
 23 22  2  0  0  0  0
 23 24  1  0  0  0  0
 24 19  2  0  0  0  0
 27 23  1  0  0  0  0
 28  3  1  0  0  0  0
 28 30  1  0  0  0  0
 29 28  2  0  0  0  0
 30 41  2  0  0  0  0
 30 31  1  0  0  0  0
 31 32  2  0  0  0  0
 32 33  1  0  0  0  0
 34 35  1  0  0  0  0
 34 33  2  0  0  0  0
 36 37  1  0  0  0  0
 36 35  2  0  0  0  0
 38 36  1  0  0  0  0
 39 38  1  0  0  0  0
 40 38  2  0  0  0  0
 40 41  1  0  0  0  0
 41 34  1  0  0  0  0
M  END
>  <minimizedAffinity>
-5.64093971

$$$$

 OpenBabel03242510243D

 41 45  0  0  1  0  0  0  0  0999 V2000
   37.0970   28.7800   38.0580 C   0  0  2  0  0  0  0  0  0  0  0  0
   35.9360   29.8080   37.7830 C   0  0  0  0  0  0  0  0  0  0  0  0
   36.6260   29.6990   39.1010 C   0  0  1  0  0  0  0  0  0  0  0  0
   36.6790   27.7540   38.0290 H   0  0  0  0  0  0  0  0  0  0  0  0
   36.2000   30.6550   37.1130 H   0  0  0  0  0  0  0  0  0  0  0  0
   34.9180   29.4330   37.7600 H   0  0  0  0  0  0  0  0  0  0  0  0
   37.3870   30.4770   39.3620 H   0  0  0  0  0  0  0  0  0  0  0  0
   39.2690   30.0110   37.7760 N   0  0  0  0  0  0  0  0  0  0  0  0
   38.3960   29.0260   37.3120 C   0  0  0  0  0  0  0  0  0  0  0  0
   38.4890   28.2480   36.3300 O   0  0  0  0  0  0  0  0  0  0  0  0
   38.7400   30.8830   38.0650 H   0  0  0  0  0  0  0  0  0  0  0  0
   41.4040   30.6410   38.8410 C   0  0  1  0  0  0  0  0  0  0  0  0
   41.1670   29.3150   39.2210 C   0  0  0  0  0  0  0  0  0  0  0  0
   40.6780   29.8290   37.8360 C   0  0  1  0  0  0  0  0  0  0  0  0
   42.4280   31.0180   38.5910 H   0  0  0  0  0  0  0  0  0  0  0  0
   40.3880   28.8600   39.8570 H   0  0  0  0  0  0  0  0  0  0  0  0
   42.0490   28.6020   39.1780 H   0  0  0  0  0  0  0  0  0  0  0  0
   41.1380   29.2520   37.0190 H   0  0  0  0  0  0  0  0  0  0  0  0
   39.7830   31.5140   40.6760 C   0  0  0  0  0  0  0  0  0  0  0  0
   40.5940   31.7490   39.5190 C   0  0  0  0  0  0  0  0  0  0  0  0
   40.6120   33.0300   39.0030 C   0  0  0  0  0  0  0  0  0  0  0  0
   39.8730   33.9890   39.6060 N   0  0  0  0  0  0  0  0  0  0  0  0
   39.1070   33.7480   40.7050 C   0  0  0  0  0  0  0  0  0  0  0  0
   39.0680   32.4600   41.2520 N   0  0  0  0  0  0  0  0  0  0  0  0
   39.8450   30.5210   41.0120 H   0  0  0  0  0  0  0  0  0  0  0  0
   41.2140   33.2410   38.1310 H   0  0  0  0  0  0  0  0  0  0  0  0
   38.5230   34.5370   41.1680 H   0  0  0  0  0  0  0  0  0  0  0  0
   35.8770   29.0870   40.2760 C   0  0  0  0  0  0  0  0  0  0  0  0
   34.6340   29.0450   40.2040 O   0  0  0  0  0  0  0  0  0  0  0  0
   36.8010   28.6270   41.3510 C   0  0  0  0  0  0  0  0  0  0  0  0
   37.3130   29.4720   42.2660 N   0  0  0  0  0  0  0  0  0  0  0  0
   38.1420   29.0610   43.2320 C   0  0  0  0  0  3  0  0  0  0  0  0
   38.5380   27.7870   43.3820 N   0  0  0  0  0  0  0  0  0  0  0  0
   38.0660   26.8890   42.5030 C   0  0  0  0  0  0  0  0  0  0  0  0
   38.4470   25.5880   42.6240 C   0  0  0  0  0  3  0  0  0  0  0  0
   37.9970   24.6190   41.7520 C   0  0  0  0  0  0  0  0  0  0  0  0
   38.3210   23.5940   41.8800 H   0  0  0  0  0  0  0  0  0  0  0  0
   37.1290   25.0380   40.7370 C   0  0  0  0  0  0  0  0  0  0  0  0
   36.7970   24.2630   40.0770 H   0  0  0  0  0  0  0  0  0  0  0  0
   36.7720   26.3560   40.6540 C   0  0  0  0  0  3  0  0  0  0  0  0
   37.2150   27.3280   41.5160 C   0  0  0  0  0  0  0  0  0  0  0  0
  1  4  1  1  0  0  0
  1  3  1  0  0  0  0
  2  1  1  0  0  0  0
  2  3  1  0  0  0  0
  3  7  1  1  0  0  0
  3 28  1  0  0  0  0
  5  2  1  0  0  0  0
  6  2  1  0  0  0  0
  8 14  1  0  0  0  0
  8 11  1  0  0  0  0
  9  8  1  0  0  0  0
  9  1  1  0  0  0  0
 10  9  2  0  0  0  0
 12 15  1  6  0  0  0
 12 13  1  0  0  0  0
 12 20  1  0  0  0  0
 13 16  1  0  0  0  0
 14 18  1  6  0  0  0
 14 12  1  0  0  0  0
 14 13  1  0  0  0  0
 17 13  1  0  0  0  0
 19 25  1  0  0  0  0
 19 24  1  0  0  0  0
 20 19  2  0  0  0  0
 21 20  1  0  0  0  0
 21 22  2  0  0  0  0
 22 23  1  0  0  0  0
 23 27  1  0  0  0  0
 23 24  2  0  0  0  0
 26 21  1  0  0  0  0
 28 30  1  0  0  0  0
 29 28  2  0  0  0  0
 30 41  2  0  0  0  0
 30 31  1  0  0  0  0
 31 32  2  0  0  0  0
 32 33  1  0  0  0  0
 34 35  1  0  0  0  0
 34 33  2  0  0  0  0
 36 37  1  0  0  0  0
 36 35  2  0  0  0  0
 38 36  1  0  0  0  0
 39 38  1  0  0  0  0
 40 38  2  0  0  0  0
 40 41  1  0  0  0  0
 41 34  1  0  0  0  0
M  END
>  <minimizedAffinity>
-5.63253593

$$$$

 OpenBabel03242510243D

 41 45  0  0  1  0  0  0  0  0999 V2000
   35.8460   27.5720   38.7230 C   0  0  2  0  0  0  0  0  0  0  0  0
   36.6520   28.7270   38.0160 C   0  0  0  0  0  0  0  0  0  0  0  0
   36.9290   28.2820   39.4120 C   0  0  1  0  0  0  0  0  0  0  0  0
   34.8040   27.9130   38.8850 H   0  0  0  0  0  0  0  0  0  0  0  0
   37.3410   28.3980   37.2060 H   0  0  0  0  0  0  0  0  0  0  0  0
   36.1760   29.6970   37.9240 H   0  0  0  0  0  0  0  0  0  0  0  0
   37.8240   27.6330   39.5890 H   0  0  0  0  0  0  0  0  0  0  0  0
   37.0150   25.3490   38.7250 N   0  0  0  0  0  0  0  0  0  0  0  0
   36.0450   26.1770   38.1580 C   0  0  0  0  0  0  0  0  0  0  0  0
   35.2490   25.9730   37.2080 O   0  0  0  0  0  0  0  0  0  0  0  0
   37.9050   25.8870   38.9270 H   0  0  0  0  0  0  0  0  0  0  0  0
   37.1880   23.4750   40.3210 C   0  0  1  0  0  0  0  0  0  0  0  0
   35.8190   23.7120   40.1620 C   0  0  0  0  0  0  0  0  0  0  0  0
   36.7970   23.9670   38.9790 C   0  0  1  0  0  0  0  0  0  0  0  0
   37.6100   22.4410   40.4140 H   0  0  0  0  0  0  0  0  0  0  0  0
   35.1840   24.5710   40.4410 H   0  0  0  0  0  0  0  0  0  0  0  0
   35.1500   22.8040   40.0380 H   0  0  0  0  0  0  0  0  0  0  0  0
   36.5360   23.3390   38.1130 H   0  0  0  0  0  0  0  0  0  0  0  0
   39.4330   24.4380   41.2070 C   0  0  0  0  0  0  0  0  0  0  0  0
   38.0010   24.4460   41.1790 C   0  0  0  0  0  0  0  0  0  0  0  0
   37.3550   25.3630   41.9850 C   0  0  0  0  0  0  0  0  0  0  0  0
   38.0940   26.1990   42.7510 N   0  0  0  0  0  0  0  0  0  0  0  0
   39.4550   26.1770   42.7640 C   0  0  0  0  0  0  0  0  0  0  0  0
   40.1400   25.2590   41.9590 N   0  0  0  0  0  0  0  0  0  0  0  0
   39.8410   23.7270   40.5510 H   0  0  0  0  0  0  0  0  0  0  0  0
   36.2750   25.3970   41.9880 H   0  0  0  0  0  0  0  0  0  0  0  0
   40.0230   26.8580   43.3900 H   0  0  0  0  0  0  0  0  0  0  0  0
   36.5370   29.1930   40.5670 C   0  0  0  0  0  0  0  0  0  0  0  0
   35.3520   29.1500   40.9520 O   0  0  0  0  0  0  0  0  0  0  0  0
   37.6850   30.0070   41.0540 C   0  0  0  0  0  0  0  0  0  0  0  0
   38.6180   29.5060   41.8850 N   0  0  0  0  0  0  0  0  0  0  0  0
   39.6500   30.2350   42.3230 C   0  0  0  0  0  3  0  0  0  0  0  0
   39.8540   31.5180   41.9820 N   0  0  0  0  0  0  0  0  0  0  0  0
   38.9610   32.0830   41.1550 C   0  0  0  0  0  0  0  0  0  0  0  0
   39.1360   33.3820   40.7880 C   0  0  0  0  0  3  0  0  0  0  0  0
   38.2540   34.0190   39.9410 C   0  0  0  0  0  0  0  0  0  0  0  0
   38.4260   35.0530   39.6710 H   0  0  0  0  0  0  0  0  0  0  0  0
   37.1700   33.2650   39.4770 C   0  0  0  0  0  0  0  0  0  0  0  0
   36.5040   33.7870   38.8220 H   0  0  0  0  0  0  0  0  0  0  0  0
   37.0350   31.9620   39.8710 C   0  0  0  0  0  3  0  0  0  0  0  0
   37.9070   31.3190   40.7140 C   0  0  0  0  0  0  0  0  0  0  0  0
  1  4  1  1  0  0  0
  1  3  1  0  0  0  0
  2  1  1  0  0  0  0
  2  3  1  0  0  0  0
  3  7  1  1  0  0  0
  3 28  1  0  0  0  0
  5  2  1  0  0  0  0
  6  2  1  0  0  0  0
  8 11  1  0  0  0  0
  8 14  1  0  0  0  0
  9  1  1  0  0  0  0
  9  8  1  0  0  0  0
 10  9  2  0  0  0  0
 12 15  1  1  0  0  0
 12 20  1  0  0  0  0
 13 12  1  0  0  0  0
 13 16  1  0  0  0  0
 14 18  1  6  0  0  0
 14 13  1  0  0  0  0
 14 12  1  0  0  0  0
 17 13  1  0  0  0  0
 19 24  1  0  0  0  0
 20 19  2  0  0  0  0
 20 21  1  0  0  0  0
 21 26  1  0  0  0  0
 21 22  2  0  0  0  0
 22 23  1  0  0  0  0
 23 27  1  0  0  0  0
 24 23  2  0  0  0  0
 25 19  1  0  0  0  0
 28 29  2  0  0  0  0
 28 30  1  0  0  0  0
 30 31  1  0  0  0  0
 31 32  2  0  0  0  0
 33 32  1  0  0  0  0
 34 33  2  0  0  0  0
 35 34  1  0  0  0  0
 36 35  2  0  0  0  0
 37 36  1  0  0  0  0
 38 40  2  0  0  0  0
 38 36  1  0  0  0  0
 39 38  1  0  0  0  0
 40 41  1  0  0  0  0
 41 30  2  0  0  0  0
 41 34  1  0  0  0  0
M  END
>  <minimizedAffinity>
-5.61439419

$$$$
