
 OpenBabel03242510223D

 41 45  0  0  1  0  0  0  0  0999 V2000
   49.1780   33.7470   41.0970 C   0  0  2  0  0  0  0  0  0  0  0  0
   48.4820   35.1580   41.0150 C   0  0  0  0  0  0  0  0  0  0  0  0
   47.9250   33.9400   40.3570 C   0  0  1  0  0  0  0  0  0  0  0  0
   50.1330   33.7870   40.5370 H   0  0  0  0  0  0  0  0  0  0  0  0
   48.0150   35.5130   41.9600 H   0  0  0  0  0  0  0  0  0  0  0  0
   48.9060   35.8960   40.3420 H   0  0  0  0  0  0  0  0  0  0  0  0
   47.0560   33.4310   40.8450 H   0  0  0  0  0  0  0  0  0  0  0  0
   48.0380   33.1080   43.2420 N   0  0  0  0  0  0  0  0  0  0  0  0
   49.1970   33.0910   42.4650 C   0  0  0  0  0  0  0  0  0  0  0  0
   50.3290   32.5980   42.6970 O   0  0  0  0  0  0  0  0  0  0  0  0
   47.5650   34.0560   43.2010 H   0  0  0  0  0  0  0  0  0  0  0  0
   46.1960   32.0430   44.4930 C   0  0  1  0  0  0  0  0  0  0  0  0
   46.3560   31.2820   43.3310 C   0  0  0  0  0  0  0  0  0  0  0  0
   47.5860   31.9800   43.9800 C   0  0  1  0  0  0  0  0  0  0  0  0
   45.9680   31.5790   45.4870 H   0  0  0  0  0  0  0  0  0  0  0  0
   46.1860   31.5190   42.2660 H   0  0  0  0  0  0  0  0  0  0  0  0
   46.3340   30.1530   43.4480 H   0  0  0  0  0  0  0  0  0  0  0  0
   48.3470   31.2410   44.2710 H   0  0  0  0  0  0  0  0  0  0  0  0
   45.0240   33.9280   43.1400 C   0  0  0  0  0  0  0  0  0  0  0  0
   45.5030   33.4030   44.3840 C   0  0  0  0  0  0  0  0  0  0  0  0
   45.3390   34.1860   45.5100 C   0  0  0  0  0  0  0  0  0  0  0  0
   44.7410   35.3940   45.3860 N   0  0  0  0  0  0  0  0  0  0  0  0
   44.2930   35.8760   44.1950 C   0  0  0  0  0  0  0  0  0  0  0  0
   44.4440   35.1070   43.0350 N   0  0  0  0  0  0  0  0  0  0  0  0
   45.1710   33.2600   42.3420 H   0  0  0  0  0  0  0  0  0  0  0  0
   45.6880   33.8210   46.4640 H   0  0  0  0  0  0  0  0  0  0  0  0
   43.8180   36.8500   44.1250 H   0  0  0  0  0  0  0  0  0  0  0  0
   47.9910   33.8270   38.8410 C   0  0  0  0  0  0  0  0  0  0  0  0
   48.4060   34.8180   38.2100 O   0  0  0  0  0  0  0  0  0  0  0  0
   47.5280   32.4950   38.3580 C   0  0  0  0  0  0  0  0  0  0  0  0
   48.3790   31.4750   38.1430 N   0  0  0  0  0  0  0  0  0  0  0  0
   47.9680   30.2790   37.7100 C   0  0  0  0  0  3  0  0  0  0  0  0
   46.6830   29.9830   37.4510 N   0  0  0  0  0  0  0  0  0  0  0  0
   45.7770   30.9540   37.6430 C   0  0  0  0  0  0  0  0  0  0  0  0
   44.4660   30.6900   37.3900 C   0  0  0  0  0  3  0  0  0  0  0  0
   43.4880   31.6460   37.5690 C   0  0  0  0  0  0  0  0  0  0  0  0
   42.4560   31.3990   37.3570 H   0  0  0  0  0  0  0  0  0  0  0  0
   43.9100   32.9020   38.0220 C   0  0  0  0  0  0  0  0  0  0  0  0
   43.1270   33.6220   38.1500 H   0  0  0  0  0  0  0  0  0  0  0  0
   45.2370   33.1230   38.2630 C   0  0  0  0  0  3  0  0  0  0  0  0
   46.2190   32.1790   38.0890 C   0  0  0  0  0  0  0  0  0  0  0  0
  1  4  1  6  0  0  0
  1  9  1  0  0  0  0
  2  1  1  0  0  0  0
  2  5  1  0  0  0  0
  3  7  1  1  0  0  0
  3  2  1  0  0  0  0
  3  1  1  0  0  0  0
  6  2  1  0  0  0  0
  8 14  1  0  0  0  0
  9 10  2  0  0  0  0
  9  8  1  0  0  0  0
 11  8  1  0  0  0  0
 12 15  1  1  0  0  0
 13 17  1  0  0  0  0
 13 14  1  0  0  0  0
 13 12  1  0  0  0  0
 14 18  1  1  0  0  0
 14 12  1  0  0  0  0
 16 13  1  0  0  0  0
 19 20  1  0  0  0  0
 20 12  1  0  0  0  0
 20 21  2  0  0  0  0
 21 26  1  0  0  0  0
 22 21  1  0  0  0  0
 23 22  2  0  0  0  0
 24 19  2  0  0  0  0
 24 23  1  0  0  0  0
 25 19  1  0  0  0  0
 27 23  1  0  0  0  0
 28  3  1  0  0  0  0
 29 28  2  0  0  0  0
 30 28  1  0  0  0  0
 31 30  1  0  0  0  0
 32 31  2  0  0  0  0
 33 34  2  0  0  0  0
 33 32  1  0  0  0  0
 34 41  1  0  0  0  0
 35 36  2  0  0  0  0
 35 34  1  0  0  0  0
 36 38  1  0  0  0  0
 37 36  1  0  0  0  0
 38 39  1  0  0  0  0
 38 40  2  0  0  0  0
 41 40  1  0  0  0  0
 41 30  2  0  0  0  0
M  END
>  <minimizedAffinity>
-4.89651394

>  <minimizedRMSD>
1.24418688

$$$$
