
 OpenBabel03242510223D

 41 45  0  0  1  0  0  0  0  0999 V2000
   49.0280   33.5840   41.1510 C   0  0  2  0  0  0  0  0  0  0  0  0
   48.4990   35.0680   41.1830 C   0  0  0  0  0  0  0  0  0  0  0  0
   47.7330   33.9480   40.5630 C   0  0  1  0  0  0  0  0  0  0  0  0
   49.9140   33.5360   40.4870 H   0  0  0  0  0  0  0  0  0  0  0  0
   48.1840   35.4390   42.1830 H   0  0  0  0  0  0  0  0  0  0  0  0
   48.9300   35.7770   40.4840 H   0  0  0  0  0  0  0  0  0  0  0  0
   46.8690   33.5240   41.1340 H   0  0  0  0  0  0  0  0  0  0  0  0
   48.0440   32.9610   43.3760 N   0  0  0  0  0  0  0  0  0  0  0  0
   49.1200   32.8800   42.4920 C   0  0  0  0  0  0  0  0  0  0  0  0
   50.2250   32.2910   42.6000 O   0  0  0  0  0  0  0  0  0  0  0  0
   47.6490   33.9440   43.4070 H   0  0  0  0  0  0  0  0  0  0  0  0
   46.1830   31.9400   44.6350 C   0  0  1  0  0  0  0  0  0  0  0  0
   46.3270   31.1680   43.4780 C   0  0  0  0  0  0  0  0  0  0  0  0
   47.5700   31.8460   44.1210 C   0  0  1  0  0  0  0  0  0  0  0  0
   45.9460   31.4870   45.6320 H   0  0  0  0  0  0  0  0  0  0  0  0
   46.1600   31.4030   42.4120 H   0  0  0  0  0  0  0  0  0  0  0  0
   46.2830   30.0410   43.6020 H   0  0  0  0  0  0  0  0  0  0  0  0
   48.3180   31.0940   44.4160 H   0  0  0  0  0  0  0  0  0  0  0  0
   45.0750   33.8520   43.2670 C   0  0  0  0  0  0  0  0  0  0  0  0
   45.5170   33.3130   44.5180 C   0  0  0  0  0  0  0  0  0  0  0  0
   45.3410   34.0920   45.6450 C   0  0  0  0  0  0  0  0  0  0  0  0
   44.7670   35.3110   45.5140 N   0  0  0  0  0  0  0  0  0  0  0  0
   44.3540   35.8070   44.3170 C   0  0  0  0  0  0  0  0  0  0  0  0
   44.5180   35.0410   43.1560 N   0  0  0  0  0  0  0  0  0  0  0  0
   45.2270   33.1860   42.4690 H   0  0  0  0  0  0  0  0  0  0  0  0
   45.6620   33.7160   46.6050 H   0  0  0  0  0  0  0  0  0  0  0  0
   43.8980   36.7900   44.2420 H   0  0  0  0  0  0  0  0  0  0  0  0
   47.6170   33.8840   39.0470 C   0  0  0  0  0  0  0  0  0  0  0  0
   48.2890   34.7000   38.3860 O   0  0  0  0  0  0  0  0  0  0  0  0
   46.6830   32.8130   38.6000 C   0  0  0  0  0  0  0  0  0  0  0  0
   47.1020   31.7430   37.9010 N   0  0  0  0  0  0  0  0  0  0  0  0
   46.2670   30.7790   37.4980 C   0  0  0  0  0  3  0  0  0  0  0  0
   44.9470   30.7850   37.7490 N   0  0  0  0  0  0  0  0  0  0  0  0
   44.4580   31.8240   38.4440 C   0  0  0  0  0  0  0  0  0  0  0  0
   43.1260   31.8650   38.7160 C   0  0  0  0  0  3  0  0  0  0  0  0
   42.5620   32.9050   39.4250 C   0  0  0  0  0  0  0  0  0  0  0  0
   41.5000   32.9020   39.6220 H   0  0  0  0  0  0  0  0  0  0  0  0
   43.4300   33.9180   39.8500 C   0  0  0  0  0  0  0  0  0  0  0  0
   42.9630   34.7120   40.3980 H   0  0  0  0  0  0  0  0  0  0  0  0
   44.7620   33.8380   39.5540 C   0  0  0  0  0  3  0  0  0  0  0  0
   45.3320   32.8060   38.8500 C   0  0  0  0  0  0  0  0  0  0  0  0
  1  4  1  6  0  0  0
  1  2  1  0  0  0  0
  1  9  1  0  0  0  0
  2  5  1  0  0  0  0
  3  7  1  1  0  0  0
  3  1  1  0  0  0  0
  3  2  1  0  0  0  0
  6  2  1  0  0  0  0
  8 11  1  0  0  0  0
  8 14  1  0  0  0  0
  9 10  2  0  0  0  0
  9  8  1  0  0  0  0
 12 15  1  1  0  0  0
 13 17  1  0  0  0  0
 13 14  1  0  0  0  0
 13 12  1  0  0  0  0
 14 18  1  1  0  0  0
 14 12  1  0  0  0  0
 16 13  1  0  0  0  0
 19 20  1  0  0  0  0
 20 12  1  0  0  0  0
 20 21  2  0  0  0  0
 21 26  1  0  0  0  0
 22 21  1  0  0  0  0
 23 22  2  0  0  0  0
 24 19  2  0  0  0  0
 24 23  1  0  0  0  0
 25 19  1  0  0  0  0
 27 23  1  0  0  0  0
 28  3  1  0  0  0  0
 29 28  2  0  0  0  0
 30 41  1  0  0  0  0
 30 28  1  0  0  0  0
 31 30  2  0  0  0  0
 32 33  2  0  0  0  0
 32 31  1  0  0  0  0
 33 34  1  0  0  0  0
 34 35  2  0  0  0  0
 34 41  1  0  0  0  0
 35 36  1  0  0  0  0
 36 37  1  0  0  0  0
 36 38  2  0  0  0  0
 38 39  1  0  0  0  0
 40 38  1  0  0  0  0
 41 40  2  0  0  0  0
M  END
>  <minimizedAffinity>
-5.02719545

>  <minimizedRMSD>
0.6492365

$$$$
