
 OpenBabel03242510223D

 41 45  0  0  1  0  0  0  0  0999 V2000
   49.0710   33.6910   41.1590 C   0  0  2  0  0  0  0  0  0  0  0  0
   48.5270   35.1690   41.1720 C   0  0  0  0  0  0  0  0  0  0  0  0
   47.7810   34.0370   40.5510 C   0  0  1  0  0  0  0  0  0  0  0  0
   49.9670   33.6470   40.5080 H   0  0  0  0  0  0  0  0  0  0  0  0
   48.1940   35.5440   42.1650 H   0  0  0  0  0  0  0  0  0  0  0  0
   48.9600   35.8780   40.4740 H   0  0  0  0  0  0  0  0  0  0  0  0
   46.9130   33.6080   41.1120 H   0  0  0  0  0  0  0  0  0  0  0  0
   48.0420   33.0270   43.3520 N   0  0  0  0  0  0  0  0  0  0  0  0
   49.1520   32.9980   42.5070 C   0  0  0  0  0  0  0  0  0  0  0  0
   50.2810   32.4680   42.6580 O   0  0  0  0  0  0  0  0  0  0  0  0
   47.5960   33.9880   43.3630 H   0  0  0  0  0  0  0  0  0  0  0  0
   46.2230   31.9550   44.6290 C   0  0  1  0  0  0  0  0  0  0  0  0
   46.3560   31.2050   43.4550 C   0  0  0  0  0  0  0  0  0  0  0  0
   47.6010   31.8920   44.0860 C   0  0  1  0  0  0  0  0  0  0  0  0
   46.0130   31.4810   45.6220 H   0  0  0  0  0  0  0  0  0  0  0  0
   46.1650   31.4550   42.3970 H   0  0  0  0  0  0  0  0  0  0  0  0
   46.3320   30.0750   43.5610 H   0  0  0  0  0  0  0  0  0  0  0  0
   48.3660   31.1470   44.3540 H   0  0  0  0  0  0  0  0  0  0  0  0
   45.0730   33.8790   43.3130 C   0  0  0  0  0  0  0  0  0  0  0  0
   45.5330   33.3180   44.5490 C   0  0  0  0  0  0  0  0  0  0  0  0
   45.3520   34.0680   45.6940 C   0  0  0  0  0  0  0  0  0  0  0  0
   44.7580   35.2800   45.5970 N   0  0  0  0  0  0  0  0  0  0  0  0
   44.3270   35.7970   44.4140 C   0  0  0  0  0  0  0  0  0  0  0  0
   44.4960   35.0620   43.2350 N   0  0  0  0  0  0  0  0  0  0  0  0
   45.2310   33.2350   42.4990 H   0  0  0  0  0  0  0  0  0  0  0  0
   45.6870   33.6750   46.6430 H   0  0  0  0  0  0  0  0  0  0  0  0
   43.8550   36.7730   44.3650 H   0  0  0  0  0  0  0  0  0  0  0  0
   47.6880   33.9600   39.0330 C   0  0  0  0  0  0  0  0  0  0  0  0
   48.3630   34.7760   38.3760 O   0  0  0  0  0  0  0  0  0  0  0  0
   46.7670   32.8780   38.5820 C   0  0  0  0  0  0  0  0  0  0  0  0
   47.1970   31.8270   37.8600 N   0  0  0  0  0  0  0  0  0  0  0  0
   46.3740   30.8560   37.4530 C   0  0  0  0  0  3  0  0  0  0  0  0
   45.0580   30.8320   37.7230 N   0  0  0  0  0  0  0  0  0  0  0  0
   44.5600   31.8510   38.4400 C   0  0  0  0  0  0  0  0  0  0  0  0
   43.2300   31.8620   38.7310 C   0  0  0  0  0  3  0  0  0  0  0  0
   42.6580   32.8800   39.4650 C   0  0  0  0  0  0  0  0  0  0  0  0
   41.5980   32.8530   39.6760 H   0  0  0  0  0  0  0  0  0  0  0  0
   43.5120   33.9020   39.8950 C   0  0  0  0  0  0  0  0  0  0  0  0
   43.0380   34.6780   40.4610 H   0  0  0  0  0  0  0  0  0  0  0  0
   44.8410   33.8510   39.5790 C   0  0  0  0  0  3  0  0  0  0  0  0
   45.4210   32.8430   38.8500 C   0  0  0  0  0  0  0  0  0  0  0  0
  1  4  1  6  0  0  0
  1  2  1  0  0  0  0
  1  9  1  0  0  0  0
  2  5  1  0  0  0  0
  3  7  1  1  0  0  0
  3  1  1  0  0  0  0
  3  2  1  0  0  0  0
  6  2  1  0  0  0  0
  8 11  1  0  0  0  0
  8 14  1  0  0  0  0
  9 10  2  0  0  0  0
  9  8  1  0  0  0  0
 12 15  1  1  0  0  0
 13 17  1  0  0  0  0
 13 14  1  0  0  0  0
 13 12  1  0  0  0  0
 14 18  1  1  0  0  0
 14 12  1  0  0  0  0
 16 13  1  0  0  0  0
 19 20  1  0  0  0  0
 20 12  1  0  0  0  0
 20 21  2  0  0  0  0
 21 26  1  0  0  0  0
 22 21  1  0  0  0  0
 23 22  2  0  0  0  0
 24 19  2  0  0  0  0
 24 23  1  0  0  0  0
 25 19  1  0  0  0  0
 27 23  1  0  0  0  0
 28  3  1  0  0  0  0
 29 28  2  0  0  0  0
 30 41  1  0  0  0  0
 30 28  1  0  0  0  0
 31 30  2  0  0  0  0
 32 33  2  0  0  0  0
 32 31  1  0  0  0  0
 33 34  1  0  0  0  0
 34 35  2  0  0  0  0
 34 41  1  0  0  0  0
 35 36  1  0  0  0  0
 36 37  1  0  0  0  0
 36 38  2  0  0  0  0
 38 39  1  0  0  0  0
 40 38  1  0  0  0  0
 41 40  2  0  0  0  0
M  END
>  <minimizedAffinity>
-5.07610178

>  <minimizedRMSD>
0.39920041

$$$$
