
 OpenBabel03252500563D

 37 38  0  0  0  0  0  0  0  0999 V2000
   42.9180   34.4040   38.9690 O   0  0  0  0  0  0  0  0  0  0  0  0
   43.2030   33.9100   40.3820 P   0  0  1  0  0  0  0  0  0  0  0  0
   43.4090   32.2350   40.3420 O   0  0  0  0  0  0  0  0  0  0  0  0
   42.8400   31.7400   40.9590 H   0  0  0  0  0  0  0  0  0  0  0  0
   44.6490   34.6020   40.9280 O   0  0  0  0  0  0  0  0  0  0  0  0
   46.7190   34.2140   41.9890 C   0  0  0  0  0  0  0  0  0  0  0  0
   45.3420   34.2500   42.0800 C   0  0  0  0  0  0  0  0  0  0  0  0
   44.7580   33.9340   43.3140 C   0  0  0  0  0  0  0  0  0  0  0  0
   45.5810   33.6130   44.3380 N   0  0  0  0  0  0  0  0  0  0  0  0
   46.9120   33.5840   44.2260 C   0  0  0  0  0  0  0  0  0  0  0  0
   47.4820   33.8850   43.0500 N   0  0  0  0  0  0  0  0  0  0  0  0
   43.6950   33.9820   43.3160 H   0  0  0  0  0  0  0  0  0  0  0  0
   47.5080   33.3150   45.0960 H   0  0  0  0  0  0  0  0  0  0  0  0
   47.3970   34.5310   40.7340 C   0  0  0  0  0  0  0  0  0  0  0  0
   47.7190   33.6310   40.1540 H   0  0  0  0  0  0  0  0  0  0  0  0
   46.7140   35.0960   40.0600 H   0  0  0  0  0  0  0  0  0  0  0  0
   48.6090   35.3730   41.0260 C   0  0  0  0  0  0  0  0  0  0  0  0
   49.2570   34.7940   41.7230 H   0  0  0  0  0  0  0  0  0  0  0  0
   49.1670   35.6530   40.1090 H   0  0  0  0  0  0  0  0  0  0  0  0
   48.2760   36.2700   41.5840 H   0  0  0  0  0  0  0  0  0  0  0  0
   41.8850   34.2430   41.3990 O   0  0  0  0  0  0  0  0  0  0  0  0
   40.6820   33.6110   41.1390 C   0  0  0  0  0  0  0  0  0  0  0  0
   39.7020   34.3300   40.4780 C   0  0  0  0  0  0  0  0  0  0  0  0
   38.4660   33.7910   40.1710 C   0  0  0  0  0  0  0  0  0  0  0  0
   38.2220   32.5110   40.5390 N   0  0  0  0  0  0  0  0  0  0  0  0
   39.1690   31.8020   41.1840 C   0  0  0  0  0  0  0  0  0  0  0  0
   40.3530   32.3560   41.4640 N   0  0  0  0  0  0  0  0  0  0  0  0
   39.8670   35.3450   40.1740 H   0  0  0  0  0  0  0  0  0  0  0  0
   37.7160   34.3580   39.6580 H   0  0  0  0  0  0  0  0  0  0  0  0
   36.6470   30.5420   41.2270 N   0  0  0  0  0  0  0  0  0  0  0  0
   37.6100   29.9820   41.9070 C   0  0  0  0  0  0  0  0  0  0  0  0
   38.9220   30.4380   41.5810 N   0  0  0  0  0  0  0  0  0  0  0  0
   37.5460   28.9720   42.9350 N   0  0  0  0  0  0  0  0  0  0  0  0
   37.9370   28.0300   42.8140 H   0  0  0  0  0  0  0  0  0  0  0  0
   35.6490   30.3350   41.3310 H   0  0  0  0  0  0  0  0  0  0  0  0
   39.7560   29.7800   41.6240 H   0  0  0  0  0  0  0  0  0  0  0  0
   37.0590   29.3270   43.7960 H   0  0  0  0  0  0  0  0  0  0  0  0
  2  1  2  6  0  0  0
  2  5  1  0  0  0  0
  2 21  1  0  0  0  0
  3  2  1  0  0  0  0
  3  4  1  0  0  0  0
  5  7  1  0  0  0  0
  6  7  2  0  0  0  0
  6 11  1  0  0  0  0
  7  8  1  0  0  0  0
  8 12  1  0  0  0  0
  8  9  2  0  0  0  0
 10  9  1  0  0  0  0
 10 13  1  0  0  0  0
 11 10  2  0  0  0  0
 14 17  1  0  0  0  0
 14  6  1  0  0  0  0
 15 14  1  0  0  0  0
 16 14  1  0  0  0  0
 17 20  1  0  0  0  0
 17 18  1  0  0  0  0
 19 17  1  0  0  0  0
 22 21  1  0  0  0  0
 22 27  1  0  0  0  0
 23 22  2  0  0  0  0
 24 23  1  0  0  0  0
 24 25  2  0  0  0  0
 25 26  1  0  0  0  0
 26 27  2  0  0  0  0
 26 32  1  0  0  0  0
 28 23  1  0  0  0  0
 29 24  1  0  0  0  0
 30 35  1  0  0  0  0
 30 31  2  0  0  0  0
 31 33  1  0  0  0  0
 32 36  1  0  0  0  0
 32 31  1  0  0  0  0
 33 37  1  0  0  0  0
 34 33  1  0  0  0  0
M  END
>  <minimizedAffinity>
-5.79827404

>  <minimizedRMSD>
1.335989

$$$$
