
 OpenBabel03252500573D

 37 38  0  0  0  0  0  0  0  0999 V2000
   43.8910   33.5470   39.5800 O   0  0  0  0  0  0  0  0  0  0  0  0
   43.2550   34.3400   40.7150 P   0  0  1  0  0  0  0  0  0  0  0  0
   42.5280   33.2620   41.7920 O   0  0  0  0  0  0  0  0  0  0  0  0
   41.5890   33.4440   41.9790 H   0  0  0  0  0  0  0  0  0  0  0  0
   44.4660   35.1770   41.5510 O   0  0  0  0  0  0  0  0  0  0  0  0
   46.5370   34.3310   42.2970 C   0  0  0  0  0  0  0  0  0  0  0  0
   45.2350   34.6790   42.5960 C   0  0  0  0  0  0  0  0  0  0  0  0
   44.7970   34.5030   43.9150 C   0  0  0  0  0  0  0  0  0  0  0  0
   45.6780   34.0050   44.8120 N   0  0  0  0  0  0  0  0  0  0  0  0
   46.9340   33.6760   44.4990 C   0  0  0  0  0  0  0  0  0  0  0  0
   47.3650   33.8400   43.2390 N   0  0  0  0  0  0  0  0  0  0  0  0
   43.7860   34.7900   44.0780 H   0  0  0  0  0  0  0  0  0  0  0  0
   47.5840   33.2800   45.2760 H   0  0  0  0  0  0  0  0  0  0  0  0
   47.0630   34.4870   40.9410 C   0  0  0  0  0  0  0  0  0  0  0  0
   47.1740   33.5230   40.3860 H   0  0  0  0  0  0  0  0  0  0  0  0
   46.3720   35.1090   40.3300 H   0  0  0  0  0  0  0  0  0  0  0  0
   48.4070   35.1610   41.0060 C   0  0  0  0  0  0  0  0  0  0  0  0
   49.0650   34.5310   41.6470 H   0  0  0  0  0  0  0  0  0  0  0  0
   48.8580   35.3140   40.0060 H   0  0  0  0  0  0  0  0  0  0  0  0
   48.2810   36.1230   41.5420 H   0  0  0  0  0  0  0  0  0  0  0  0
   42.0410   35.3610   40.1100 O   0  0  0  0  0  0  0  0  0  0  0  0
   40.8530   34.7900   39.6930 C   0  0  0  0  0  0  0  0  0  0  0  0
   40.5040   34.9210   38.3590 C   0  0  0  0  0  0  0  0  0  0  0  0
   39.3390   34.3870   37.8420 C   0  0  0  0  0  0  0  0  0  0  0  0
   38.5180   33.7150   38.6830 N   0  0  0  0  0  0  0  0  0  0  0  0
   38.8480   33.5810   39.9820 C   0  0  0  0  0  0  0  0  0  0  0  0
   39.9830   34.1100   40.4480 N   0  0  0  0  0  0  0  0  0  0  0  0
   41.1340   35.4480   37.6700 H   0  0  0  0  0  0  0  0  0  0  0  0
   39.0810   34.4960   36.8070 H   0  0  0  0  0  0  0  0  0  0  0  0
   39.3470   31.0160   41.0380 N   0  0  0  0  0  0  0  0  0  0  0  0
   38.1240   31.4640   41.1040 C   0  0  0  0  0  0  0  0  0  0  0  0
   37.9840   32.8670   40.8890 N   0  0  0  0  0  0  0  0  0  0  0  0
   36.8940   30.7540   41.3610 N   0  0  0  0  0  0  0  0  0  0  0  0
   36.3270   30.9130   42.2020 H   0  0  0  0  0  0  0  0  0  0  0  0
   39.6300   30.0380   41.1660 H   0  0  0  0  0  0  0  0  0  0  0  0
   37.2340   33.4250   41.3970 H   0  0  0  0  0  0  0  0  0  0  0  0
   36.6720   30.0740   40.5910 H   0  0  0  0  0  0  0  0  0  0  0  0
  2  1  2  6  0  0  0
  2  5  1  0  0  0  0
  2  3  1  0  0  0  0
  3  4  1  0  0  0  0
  5  7  1  0  0  0  0
  6  7  2  0  0  0  0
  6 11  1  0  0  0  0
  7  8  1  0  0  0  0
  8 12  1  0  0  0  0
  8  9  2  0  0  0  0
 10  9  1  0  0  0  0
 10 13  1  0  0  0  0
 11 10  2  0  0  0  0
 14 17  1  0  0  0  0
 14  6  1  0  0  0  0
 15 14  1  0  0  0  0
 16 14  1  0  0  0  0
 17 20  1  0  0  0  0
 17 18  1  0  0  0  0
 19 17  1  0  0  0  0
 21  2  1  0  0  0  0
 22 21  1  0  0  0  0
 22 27  1  0  0  0  0
 23 22  2  0  0  0  0
 24 23  1  0  0  0  0
 24 25  2  0  0  0  0
 25 26  1  0  0  0  0
 26 27  2  0  0  0  0
 26 32  1  0  0  0  0
 28 23  1  0  0  0  0
 29 24  1  0  0  0  0
 30 31  2  0  0  0  0
 30 35  1  0  0  0  0
 31 33  1  0  0  0  0
 32 31  1  0  0  0  0
 32 36  1  0  0  0  0
 33 34  1  0  0  0  0
 37 33  1  0  0  0  0
M  END
>  <minimizedAffinity>
-6.3450346

>  <minimizedRMSD>
1.2583679

$$$$
