
 OpenBabel03242517343D

 22 22  0  0  0  0  0  0  0  0999 V2000
   44.0580   35.3250   41.8040 C   0  0  0  0  0  3  0  0  0  0  0  0
   43.0790   34.7330   41.1270 C   0  0  0  0  0  3  0  0  0  0  0  0
   44.3100   35.7690   44.2630 C   0  0  0  0  0  0  0  0  0  0  0  0
   44.5030   34.9270   43.1450 C   0  0  0  0  0  0  0  0  0  0  0  0
   45.1270   33.7050   43.3300 C   0  0  0  0  0  0  0  0  0  0  0  0
   45.5300   33.3650   44.5970 N   0  0  0  0  0  0  0  0  0  0  0  0
   45.3280   34.1920   45.6320 C   0  0  0  0  0  0  0  0  0  0  0  0
   44.7300   35.3660   45.4550 N   0  0  0  0  0  0  0  0  0  0  0  0
   43.8180   36.7110   44.0610 H   0  0  0  0  0  0  0  0  0  0  0  0
   45.3050   33.0140   42.5150 H   0  0  0  0  0  0  0  0  0  0  0  0
   45.6790   33.8420   46.5970 H   0  0  0  0  0  0  0  0  0  0  0  0
   42.6780   35.1910   39.7630 C   0  0  0  0  0  0  0  0  0  0  0  0
   42.9960   34.4870   38.9750 H   0  0  0  0  0  0  0  0  0  0  0  0
   43.1890   36.1590   39.5850 H   0  0  0  0  0  0  0  0  0  0  0  0
   40.9170   34.1470   37.8390 N   0  0  0  0  0  0  0  0  0  0  0  0
   40.4270   34.7060   38.8770 C   0  0  0  0  0  0  0  0  0  0  0  0
   41.2580   35.4760   39.7370 N   0  0  0  0  0  0  0  0  0  0  0  0
   39.0360   34.5900   39.2320 N   0  0  0  0  0  0  0  0  0  0  0  0
   38.7410   34.4150   40.2180 H   0  0  0  0  0  0  0  0  0  0  0  0
   40.2570   33.5870   37.2360 H   0  0  0  0  0  0  0  0  0  0  0  0
   40.8160   36.2320   40.3280 H   0  0  0  0  0  0  0  0  0  0  0  0
   38.1050   34.6240   38.8050 H   0  0  0  0  0  0  0  0  0  0  0  0
  1  4  1  0  0  0  0
  2  1  2  0  0  0  0
  3  8  1  0  0  0  0
  4  5  1  0  0  0  0
  4  3  2  0  0  0  0
  5  6  2  0  0  0  0
  6  7  1  0  0  0  0
  7 11  1  0  0  0  0
  8  7  2  0  0  0  0
  9  3  1  0  0  0  0
 10  5  1  0  0  0  0
 12  2  1  0  0  0  0
 13 12  1  0  0  0  0
 14 12  1  0  0  0  0
 15 16  2  0  0  0  0
 16 18  1  0  0  0  0
 16 17  1  0  0  0  0
 17 12  1  0  0  0  0
 17 21  1  0  0  0  0
 18 19  1  0  0  0  0
 20 15  1  0  0  0  0
 22 18  1  0  0  0  0
M  END
>  <minimizedAffinity>
-4.05805111

>  <minimizedRMSD>
0.25547725

$$$$
