
 OpenBabel03252500563D

 37 38  0  0  0  0  0  0  0  0999 V2000
   43.7740   34.7960   40.1470 O   0  0  0  0  0  0  0  0  0  0  0  0
   43.3100   34.7250   41.5960 P   0  0  1  0  0  0  0  0  0  0  0  0
   43.1310   33.1050   42.0330 O   0  0  0  0  0  0  0  0  0  0  0  0
   42.2580   32.8760   42.4010 H   0  0  0  0  0  0  0  0  0  0  0  0
   44.4980   35.4070   42.5910 O   0  0  0  0  0  0  0  0  0  0  0  0
   46.5630   34.3450   43.0040 C   0  0  0  0  0  0  0  0  0  0  0  0
   45.3200   34.7190   43.4750 C   0  0  0  0  0  0  0  0  0  0  0  0
   44.9910   34.3800   44.7940 C   0  0  0  0  0  0  0  0  0  0  0  0
   45.9100   33.7080   45.5220 N   0  0  0  0  0  0  0  0  0  0  0  0
   47.1070   33.3550   45.0440 C   0  0  0  0  0  0  0  0  0  0  0  0
   47.4340   33.6750   43.7830 N   0  0  0  0  0  0  0  0  0  0  0  0
   44.0210   34.6990   45.0940 H   0  0  0  0  0  0  0  0  0  0  0  0
   47.7940   32.8140   45.6910 H   0  0  0  0  0  0  0  0  0  0  0  0
   46.9760   34.6640   41.6380 C   0  0  0  0  0  0  0  0  0  0  0  0
   47.0410   33.7730   40.9660 H   0  0  0  0  0  0  0  0  0  0  0  0
   46.2360   35.3470   41.1630 H   0  0  0  0  0  0  0  0  0  0  0  0
   48.3190   35.3410   41.6730 C   0  0  0  0  0  0  0  0  0  0  0  0
   49.0290   34.6460   42.1790 H   0  0  0  0  0  0  0  0  0  0  0  0
   48.6860   35.6140   40.6630 H   0  0  0  0  0  0  0  0  0  0  0  0
   48.2360   36.2310   42.3260 H   0  0  0  0  0  0  0  0  0  0  0  0
   41.7960   35.4750   41.7660 O   0  0  0  0  0  0  0  0  0  0  0  0
   40.6920   34.8530   41.2110 C   0  0  0  0  0  0  0  0  0  0  0  0
   40.0650   35.4750   40.1450 C   0  0  0  0  0  0  0  0  0  0  0  0
   38.9550   34.9370   39.5200 C   0  0  0  0  0  0  0  0  0  0  0  0
   38.4760   33.7570   39.9800 N   0  0  0  0  0  0  0  0  0  0  0  0
   39.0780   33.1430   41.0180 C   0  0  0  0  0  0  0  0  0  0  0  0
   40.1500   33.6930   41.5970 N   0  0  0  0  0  0  0  0  0  0  0  0
   40.4220   36.4090   39.7590 H   0  0  0  0  0  0  0  0  0  0  0  0
   38.4800   35.4280   38.6960 H   0  0  0  0  0  0  0  0  0  0  0  0
   40.6260   31.1550   42.2790 N   0  0  0  0  0  0  0  0  0  0  0  0
   39.4550   30.8030   41.8230 C   0  0  0  0  0  0  0  0  0  0  0  0
   38.5780   31.8860   41.5180 N   0  0  0  0  0  0  0  0  0  0  0  0
   38.9170   29.4870   41.5810 N   0  0  0  0  0  0  0  0  0  0  0  0
   38.1230   29.1060   42.1100 H   0  0  0  0  0  0  0  0  0  0  0  0
   41.3770   30.5090   42.5480 H   0  0  0  0  0  0  0  0  0  0  0  0
   37.5290   31.7930   41.6540 H   0  0  0  0  0  0  0  0  0  0  0  0
   39.4360   28.9910   40.8130 H   0  0  0  0  0  0  0  0  0  0  0  0
  2  1  2  6  0  0  0
  2 21  1  0  0  0  0
  2  3  1  0  0  0  0
  2  5  1  0  0  0  0
  3  4  1  0  0  0  0
  5  7  1  0  0  0  0
  6  7  2  0  0  0  0
  6 11  1  0  0  0  0
  7  8  1  0  0  0  0
  8 12  1  0  0  0  0
  8  9  2  0  0  0  0
 10  9  1  0  0  0  0
 10 13  1  0  0  0  0
 11 10  2  0  0  0  0
 14 17  1  0  0  0  0
 14  6  1  0  0  0  0
 15 14  1  0  0  0  0
 16 14  1  0  0  0  0
 17 18  1  0  0  0  0
 17 20  1  0  0  0  0
 19 17  1  0  0  0  0
 22 27  1  0  0  0  0
 22 21  1  0  0  0  0
 23 22  2  0  0  0  0
 24 25  2  0  0  0  0
 24 23  1  0  0  0  0
 25 26  1  0  0  0  0
 26 32  1  0  0  0  0
 26 27  2  0  0  0  0
 28 23  1  0  0  0  0
 29 24  1  0  0  0  0
 30 35  1  0  0  0  0
 31 30  2  0  0  0  0
 32 36  1  0  0  0  0
 32 31  1  0  0  0  0
 33 31  1  0  0  0  0
 33 34  1  0  0  0  0
 37 33  1  0  0  0  0
M  END
>  <minimizedAffinity>
-5.77305508

>  <minimizedRMSD>
0.159062475

$$$$
