
 OpenBabel03252500563D

 37 38  0  0  0  0  0  0  0  0999 V2000
   42.7200   35.0000   39.0720 O   0  0  0  0  0  0  0  0  0  0  0  0
   42.9670   34.4370   40.4670 P   0  0  1  0  0  0  0  0  0  0  0  0
   43.3350   32.7950   40.3340 O   0  0  0  0  0  0  0  0  0  0  0  0
   42.7800   32.2080   40.8800 H   0  0  0  0  0  0  0  0  0  0  0  0
   44.3050   35.2190   41.1480 O   0  0  0  0  0  0  0  0  0  0  0  0
   46.3060   34.3350   42.0280 C   0  0  0  0  0  0  0  0  0  0  0  0
   45.0250   34.7940   42.2580 C   0  0  0  0  0  0  0  0  0  0  0  0
   44.5580   34.7950   43.5790 C   0  0  0  0  0  0  0  0  0  0  0  0
   45.3910   34.3460   44.5450 N   0  0  0  0  0  0  0  0  0  0  0  0
   46.6280   33.9060   44.2970 C   0  0  0  0  0  0  0  0  0  0  0  0
   47.0870   33.9000   43.0370 N   0  0  0  0  0  0  0  0  0  0  0  0
   43.5640   35.1610   43.6870 H   0  0  0  0  0  0  0  0  0  0  0  0
   47.2400   33.5600   45.1270 H   0  0  0  0  0  0  0  0  0  0  0  0
   46.8610   34.3040   40.6750 C   0  0  0  0  0  0  0  0  0  0  0  0
   46.9130   33.2800   40.2310 H   0  0  0  0  0  0  0  0  0  0  0  0
   46.2230   34.9000   39.9850 H   0  0  0  0  0  0  0  0  0  0  0  0
   48.2470   34.8900   40.6960 C   0  0  0  0  0  0  0  0  0  0  0  0
   48.8510   34.2910   41.4160 H   0  0  0  0  0  0  0  0  0  0  0  0
   48.7220   34.9000   39.6940 H   0  0  0  0  0  0  0  0  0  0  0  0
   48.1800   35.9110   41.1210 H   0  0  0  0  0  0  0  0  0  0  0  0
   41.5650   34.5770   41.4140 O   0  0  0  0  0  0  0  0  0  0  0  0
   40.4610   33.8210   41.0640 C   0  0  0  0  0  0  0  0  0  0  0  0
   39.4800   34.4230   40.2940 C   0  0  0  0  0  0  0  0  0  0  0  0
   38.3390   33.7550   39.8920 C   0  0  0  0  0  0  0  0  0  0  0  0
   38.1900   32.4640   40.2740 N   0  0  0  0  0  0  0  0  0  0  0  0
   39.1380   31.8690   41.0230 C   0  0  0  0  0  0  0  0  0  0  0  0
   40.2290   32.5460   41.3940 N   0  0  0  0  0  0  0  0  0  0  0  0
   39.5720   35.4430   39.9770 H   0  0  0  0  0  0  0  0  0  0  0  0
   37.5880   34.2320   39.2960 H   0  0  0  0  0  0  0  0  0  0  0  0
   36.6870   30.5390   41.4400 N   0  0  0  0  0  0  0  0  0  0  0  0
   37.7580   30.0000   41.9560 C   0  0  0  0  0  0  0  0  0  0  0  0
   38.9910   30.4950   41.4370 N   0  0  0  0  0  0  0  0  0  0  0  0
   37.8800   28.9800   42.9690 N   0  0  0  0  0  0  0  0  0  0  0  0
   38.2720   28.0500   42.7770 H   0  0  0  0  0  0  0  0  0  0  0  0
   35.7220   30.3030   41.6950 H   0  0  0  0  0  0  0  0  0  0  0  0
   39.8380   29.8600   41.3420 H   0  0  0  0  0  0  0  0  0  0  0  0
   37.5220   29.3140   43.8990 H   0  0  0  0  0  0  0  0  0  0  0  0
  2  1  2  6  0  0  0
  2  5  1  0  0  0  0
  2 21  1  0  0  0  0
  3  2  1  0  0  0  0
  3  4  1  0  0  0  0
  5  7  1  0  0  0  0
  6  7  2  0  0  0  0
  6 11  1  0  0  0  0
  7  8  1  0  0  0  0
  8 12  1  0  0  0  0
  8  9  2  0  0  0  0
 10  9  1  0  0  0  0
 10 13  1  0  0  0  0
 11 10  2  0  0  0  0
 14 17  1  0  0  0  0
 14  6  1  0  0  0  0
 15 14  1  0  0  0  0
 16 14  1  0  0  0  0
 17 20  1  0  0  0  0
 17 18  1  0  0  0  0
 19 17  1  0  0  0  0
 22 27  1  0  0  0  0
 22 21  1  0  0  0  0
 23 22  2  0  0  0  0
 24 25  2  0  0  0  0
 24 23  1  0  0  0  0
 25 26  1  0  0  0  0
 26 27  2  0  0  0  0
 26 32  1  0  0  0  0
 28 23  1  0  0  0  0
 29 24  1  0  0  0  0
 30 35  1  0  0  0  0
 30 31  2  0  0  0  0
 31 33  1  0  0  0  0
 32 31  1  0  0  0  0
 33 37  1  0  0  0  0
 34 33  1  0  0  0  0
 36 32  1  0  0  0  0
M  END
>  <minimizedAffinity>
-5.85217619

>  <minimizedRMSD>
1.28019702

$$$$
