
 OpenBabel03252506283D

 46 49  0  0  0  0  0  0  0  0999 V2000
   47.1530   30.2720   48.1140 C   0  0  0  0  0  0  0  0  0  0  0  0
   47.5940   30.9670   48.8580 H   0  0  0  0  0  0  0  0  0  0  0  0
   47.7250   29.3480   48.0690 H   0  0  0  0  0  0  0  0  0  0  0  0
   46.7150   32.4260   45.3010 C   0  0  0  0  0  0  0  0  0  0  0  0
   47.4650   31.3640   44.7390 C   0  0  0  0  0  0  0  0  0  0  0  0
   47.7090   30.4580   45.7050 C   0  0  0  0  0  0  0  0  0  0  0  0
   47.1360   30.9350   46.8200 N   0  0  0  0  0  0  0  0  0  0  0  0
   46.5420   32.1060   46.5870 N   0  0  0  0  0  0  0  0  0  0  0  0
   47.8200   31.2370   43.7040 H   0  0  0  0  0  0  0  0  0  0  0  0
   48.2610   29.5130   45.6230 H   0  0  0  0  0  0  0  0  0  0  0  0
   44.8580   35.4350   44.4060 C   0  0  0  0  0  0  0  0  0  0  0  0
   45.3810   35.8040   43.1770 C   0  0  0  0  0  0  0  0  0  0  0  0
   46.3940   34.9920   42.6550 C   0  0  0  0  0  0  0  0  0  0  0  0
   46.7850   33.9220   43.3740 N   0  0  0  0  0  0  0  0  0  0  0  0
   46.2700   33.5840   44.5550 C   0  0  0  0  0  0  0  0  0  0  0  0
   45.2900   34.3620   45.0700 N   0  0  0  0  0  0  0  0  0  0  0  0
   44.0760   36.0770   44.7910 H   0  0  0  0  0  0  0  0  0  0  0  0
   45.0930   36.6540   42.5710 H   0  0  0  0  0  0  0  0  0  0  0  0
   49.1870   35.2210   42.1970 N   0  0  0  0  0  0  0  0  0  0  0  0
   48.4220   34.9860   41.1620 C   0  0  0  0  0  0  0  0  0  0  0  0
   47.0250   35.2520   41.3940 N   0  0  0  0  0  0  0  0  0  0  0  0
   48.7510   34.5100   39.8410 N   0  0  0  0  0  0  0  0  0  0  0  0
   49.4140   33.7020   39.9300 H   0  0  0  0  0  0  0  0  0  0  0  0
   50.2280   35.0720   42.1740 H   0  0  0  0  0  0  0  0  0  0  0  0
   46.4000   35.6560   40.6350 H   0  0  0  0  0  0  0  0  0  0  0  0
   48.2870   35.0390   39.0440 H   0  0  0  0  0  0  0  0  0  0  0  0
   45.7650   29.9760   48.5640 C   0  0  0  0  0  0  0  0  0  0  0  0
   45.8020   29.6710   49.6310 H   0  0  0  0  0  0  0  0  0  0  0  0
   45.1950   30.9450   48.5530 H   0  0  0  0  0  0  0  0  0  0  0  0
   44.9830   27.5910   48.0390 C   0  0  0  0  0  0  0  0  0  0  0  0
   45.0400   28.9440   47.8220 C   0  0  0  0  0  0  0  0  0  0  0  0
   44.3020   29.4240   46.7330 C   0  0  0  0  0  0  0  0  0  0  0  0
   43.5680   28.5920   45.9360 C   0  0  0  0  0  0  0  0  0  0  0  0
   42.7820   28.7690   44.8500 N   0  0  0  0  0  0  0  0  0  0  0  0
   42.2740   27.5990   44.4270 C   0  0  0  0  0  0  0  0  0  0  0  0
   42.7310   26.5920   45.2540 C   0  0  0  0  0  0  0  0  0  0  0  0
   43.5220   27.2480   46.1670 C   0  0  0  0  0  0  0  0  0  0  0  0
   44.2450   26.7650   47.2340 C   0  0  0  0  0  0  0  0  0  0  0  0
   45.5680   27.2570   48.8910 H   0  0  0  0  0  0  0  0  0  0  0  0
   44.2590   30.4670   46.4510 H   0  0  0  0  0  0  0  0  0  0  0  0
   42.5900   29.6920   44.3940 H   0  0  0  0  0  0  0  0  0  0  0  0
   41.6160   27.4870   43.5740 H   0  0  0  0  0  0  0  0  0  0  0  0
   42.4750   25.5440   45.1400 H   0  0  0  0  0  0  0  0  0  0  0  0
   44.2270   25.3280   47.5220 C   0  0  0  0  0  0  0  0  0  0  0  0
   44.9810   24.8230   48.4030 O   0  0  0  0  0  0  0  0  0  0  0  0
   43.5690   24.6550   46.9900 H   0  0  0  0  0  0  0  0  0  0  0  0
  1 27  1  0  0  0  0
  1  2  1  0  0  0  0
  3  1  1  0  0  0  0
  4  8  2  0  0  0  0
  5  4  1  0  0  0  0
  5  6  2  0  0  0  0
  6  7  1  0  0  0  0
  7  1  1  0  0  0  0
  8  7  1  0  0  0  0
  9  5  1  0  0  0  0
 10  6  1  0  0  0  0
 11 17  1  0  0  0  0
 11 16  1  0  0  0  0
 12 11  2  0  0  0  0
 13 12  1  0  0  0  0
 13 14  2  0  0  0  0
 14 15  1  0  0  0  0
 15 16  2  0  0  0  0
 15  4  1  0  0  0  0
 18 12  1  0  0  0  0
 20 21  1  0  0  0  0
 20 19  2  0  0  0  0
 21 13  1  0  0  0  0
 22 23  1  0  0  0  0
 22 20  1  0  0  0  0
 24 19  1  0  0  0  0
 25 21  1  0  0  0  0
 26 22  1  0  0  0  0
 27 28  1  0  0  0  0
 29 27  1  0  0  0  0
 30 39  1  0  0  0  0
 31 30  1  0  0  0  0
 31 27  1  0  0  0  0
 32 31  2  0  0  0  0
 33 37  2  0  0  0  0
 33 32  1  0  0  0  0
 34 33  1  0  0  0  0
 35 34  1  0  0  0  0
 35 36  2  0  0  0  0
 36 37  1  0  0  0  0
 37 38  1  0  0  0  0
 38 44  1  0  0  0  0
 38 30  2  0  0  0  0
 40 32  1  0  0  0  0
 41 34  1  0  0  0  0
 42 35  1  0  0  0  0
 43 36  1  0  0  0  0
 44 45  2  0  0  0  0
 46 44  1  0  0  0  0
M  END
>  <minimizedAffinity>
-5.68990946

>  <minimizedRMSD>
0.656461239

$$$$
