
 OpenBabel03252506283D

 46 49  0  0  0  0  0  0  0  0999 V2000
   46.9970   30.4180   48.1290 C   0  0  0  0  0  0  0  0  0  0  0  0
   47.3560   31.1740   48.8580 H   0  0  0  0  0  0  0  0  0  0  0  0
   47.5670   29.4970   48.2210 H   0  0  0  0  0  0  0  0  0  0  0  0
   46.9260   32.3660   45.1380 C   0  0  0  0  0  0  0  0  0  0  0  0
   47.6250   31.2090   44.7140 C   0  0  0  0  0  0  0  0  0  0  0  0
   47.7290   30.3680   45.7610 C   0  0  0  0  0  0  0  0  0  0  0  0
   47.1210   30.9740   46.7920 N   0  0  0  0  0  0  0  0  0  0  0  0
   46.6400   32.1640   46.4280 N   0  0  0  0  0  0  0  0  0  0  0  0
   48.0380   30.9730   43.7210 H   0  0  0  0  0  0  0  0  0  0  0  0
   48.2080   29.3810   45.7910 H   0  0  0  0  0  0  0  0  0  0  0  0
   45.2210   35.2750   43.7470 C   0  0  0  0  0  0  0  0  0  0  0  0
   46.0060   35.6440   42.6660 C   0  0  0  0  0  0  0  0  0  0  0  0
   47.1430   34.8680   42.4210 C   0  0  0  0  0  0  0  0  0  0  0  0
   47.3930   33.8290   43.2410 N   0  0  0  0  0  0  0  0  0  0  0  0
   46.6260   33.4890   44.2760 C   0  0  0  0  0  0  0  0  0  0  0  0
   45.5230   34.2330   44.5230 N   0  0  0  0  0  0  0  0  0  0  0  0
   44.3470   35.8890   43.9190 H   0  0  0  0  0  0  0  0  0  0  0  0
   45.8370   36.4700   41.9860 H   0  0  0  0  0  0  0  0  0  0  0  0
   48.0740   32.9780   40.5160 N   0  0  0  0  0  0  0  0  0  0  0  0
   48.1790   34.2470   40.2100 C   0  0  0  0  0  0  0  0  0  0  0  0
   48.0460   35.1330   41.3380 N   0  0  0  0  0  0  0  0  0  0  0  0
   48.4030   34.8900   38.9390 N   0  0  0  0  0  0  0  0  0  0  0  0
   47.7800   34.4460   38.2220 H   0  0  0  0  0  0  0  0  0  0  0  0
   48.1510   32.2160   39.7940 H   0  0  0  0  0  0  0  0  0  0  0  0
   48.6150   36.0280   41.4160 H   0  0  0  0  0  0  0  0  0  0  0  0
   49.1290   35.6660   38.9510 H   0  0  0  0  0  0  0  0  0  0  0  0
   45.5670   30.1500   48.4490 C   0  0  0  0  0  0  0  0  0  0  0  0
   45.4730   30.0250   49.5480 H   0  0  0  0  0  0  0  0  0  0  0  0
   44.9890   31.0850   48.2070 H   0  0  0  0  0  0  0  0  0  0  0  0
   44.9550   27.6730   48.2010 C   0  0  0  0  0  0  0  0  0  0  0  0
   44.9570   28.9860   47.8060 C   0  0  0  0  0  0  0  0  0  0  0  0
   44.2800   29.2720   46.6140 C   0  0  0  0  0  0  0  0  0  0  0  0
   43.6550   28.2970   45.8880 C   0  0  0  0  0  0  0  0  0  0  0  0
   42.9460   28.2800   44.7360 N   0  0  0  0  0  0  0  0  0  0  0  0
   42.5350   27.0350   44.4420 C   0  0  0  0  0  0  0  0  0  0  0  0
   42.9790   26.1770   45.4280 C   0  0  0  0  0  0  0  0  0  0  0  0
   43.6620   26.9950   46.2960 C   0  0  0  0  0  0  0  0  0  0  0  0
   44.3250   26.7040   47.4660 C   0  0  0  0  0  0  0  0  0  0  0  0
   45.4890   27.4910   49.1280 H   0  0  0  0  0  0  0  0  0  0  0  0
   44.2040   30.2640   46.1890 H   0  0  0  0  0  0  0  0  0  0  0  0
   42.7420   29.1210   44.1470 H   0  0  0  0  0  0  0  0  0  0  0  0
   41.9520   26.7700   43.5700 H   0  0  0  0  0  0  0  0  0  0  0  0
   42.7880   25.1090   45.4410 H   0  0  0  0  0  0  0  0  0  0  0  0
   44.3610   25.3190   47.9450 C   0  0  0  0  0  0  0  0  0  0  0  0
   45.0960   24.9760   48.9160 O   0  0  0  0  0  0  0  0  0  0  0  0
   43.7610   24.5470   47.4840 H   0  0  0  0  0  0  0  0  0  0  0  0
  1  3  1  0  0  0  0
  1 27  1  0  0  0  0
  1  2  1  0  0  0  0
  4  8  2  0  0  0  0
  5  4  1  0  0  0  0
  5  6  2  0  0  0  0
  6 10  1  0  0  0  0
  6  7  1  0  0  0  0
  7  1  1  0  0  0  0
  8  7  1  0  0  0  0
  9  5  1  0  0  0  0
 11 17  1  0  0  0  0
 11 16  1  0  0  0  0
 12 11  2  0  0  0  0
 13 12  1  0  0  0  0
 13 14  2  0  0  0  0
 14 15  1  0  0  0  0
 15 16  2  0  0  0  0
 15  4  1  0  0  0  0
 18 12  1  0  0  0  0
 20 19  2  0  0  0  0
 20 21  1  0  0  0  0
 21 25  1  0  0  0  0
 21 13  1  0  0  0  0
 22 26  1  0  0  0  0
 22 20  1  0  0  0  0
 23 22  1  0  0  0  0
 24 19  1  0  0  0  0
 27 28  1  0  0  0  0
 29 27  1  0  0  0  0
 30 39  1  0  0  0  0
 31 30  1  0  0  0  0
 31 27  1  0  0  0  0
 32 31  2  0  0  0  0
 33 37  2  0  0  0  0
 33 32  1  0  0  0  0
 34 33  1  0  0  0  0
 35 34  1  0  0  0  0
 35 36  2  0  0  0  0
 36 43  1  0  0  0  0
 36 37  1  0  0  0  0
 37 38  1  0  0  0  0
 38 44  1  0  0  0  0
 38 30  2  0  0  0  0
 40 32  1  0  0  0  0
 41 34  1  0  0  0  0
 42 35  1  0  0  0  0
 44 45  2  0  0  0  0
 46 44  1  0  0  0  0
M  END
>  <minimizedAffinity>
-5.56289053

>  <minimizedRMSD>
0.981508315

$$$$
