
 OpenBabel03242517443D

 28 29  0  0  0  0  0  0  0  0999 V2000
   41.2110   33.6140   40.4740 C   0  0  0  0  0  0  0  0  0  0  0  0
   40.1460   33.9240   39.6440 C   0  0  0  0  0  0  0  0  0  0  0  0
   39.6020   35.1980   39.6680 C   0  0  0  0  0  0  0  0  0  0  0  0
   40.0940   36.1660   40.4970 C   0  0  0  0  0  0  0  0  0  0  0  0
   41.1480   35.8500   41.3150 C   0  0  0  0  0  0  0  0  0  0  0  0
   41.7340   34.5830   41.3330 C   0  0  0  0  0  0  0  0  0  0  0  0
   39.8130   33.1090   39.0180 H   0  0  0  0  0  0  0  0  0  0  0  0
   38.7830   35.2790   38.9670 H   0  0  0  0  0  0  0  0  0  0  0  0
   39.6140   37.1320   40.4550 H   0  0  0  0  0  0  0  0  0  0  0  0
   41.5050   36.6520   41.9410 H   0  0  0  0  0  0  0  0  0  0  0  0
   43.9610   36.2620   42.3230 N   0  0  0  0  0  0  0  0  0  0  0  0
   44.0340   35.0000   42.2130 C   0  0  0  0  0  0  0  0  0  0  0  0
   42.8320   34.2820   42.1750 N   0  0  0  0  0  0  0  0  0  0  0  0
   45.3040   34.3290   42.1420 N   0  0  0  0  0  0  0  0  0  0  0  0
   45.9310   34.8070   41.4320 H   0  0  0  0  0  0  0  0  0  0  0  0
   43.1530   36.8740   42.3920 H   0  0  0  0  0  0  0  0  0  0  0  0
   42.7570   33.4400   42.8250 H   0  0  0  0  0  0  0  0  0  0  0  0
   45.4270   33.4930   42.7810 H   0  0  0  0  0  0  0  0  0  0  0  0
   41.9940   32.0240   40.5190 S   0  0  0  0  0  0  0  0  0  0  0  0
   41.1240   30.7450   42.8150 C   0  0  0  0  0  0  0  0  0  0  0  0
   40.9980   30.8680   41.4190 C   0  0  0  0  0  0  0  0  0  0  0  0
   40.0790   30.0660   40.7710 C   0  0  0  0  0  0  0  0  0  0  0  0
   39.3390   29.1970   41.5060 N   0  0  0  0  0  0  0  0  0  0  0  0
   39.4810   29.1010   42.8320 C   0  0  0  0  0  0  0  0  0  0  0  0
   40.3480   29.8480   43.4980 N   0  0  0  0  0  0  0  0  0  0  0  0
   41.8590   31.3960   43.2820 H   0  0  0  0  0  0  0  0  0  0  0  0
   40.0050   30.1860   39.6900 H   0  0  0  0  0  0  0  0  0  0  0  0
   38.8690   28.3920   43.3880 H   0  0  0  0  0  0  0  0  0  0  0  0
  1 19  1  0  0  0  0
  1  6  1  0  0  0  0
  2  3  1  0  0  0  0
  2  1  2  0  0  0  0
  3  4  2  0  0  0  0
  4  5  1  0  0  0  0
  5  6  2  0  0  0  0
  5 10  1  0  0  0  0
  6 13  1  0  0  0  0
  7  2  1  0  0  0  0
  8  3  1  0  0  0  0
  9  4  1  0  0  0  0
 11 16  1  0  0  0  0
 12 11  2  0  0  0  0
 13 12  1  0  0  0  0
 13 17  1  0  0  0  0
 14 12  1  0  0  0  0
 14 18  1  0  0  0  0
 15 14  1  0  0  0  0
 19 21  1  0  0  0  0
 20 26  1  0  0  0  0
 20 25  1  0  0  0  0
 21 20  2  0  0  0  0
 22 21  1  0  0  0  0
 22 23  2  0  0  0  0
 23 24  1  0  0  0  0
 24 28  1  0  0  0  0
 24 25  2  0  0  0  0
 27 22  1  0  0  0  0
M  END
>  <minimizedAffinity>
-4.64089823

>  <minimizedRMSD>
5.12843418

$$$$
