
 OpenBabel03242521233D

 41 43  0  0  0  0  0  0  0  0999 V2000
   45.4100   33.4460   46.0100 C   0  0  0  0  0  0  0  0  0  0  0  0
   44.9160   34.6880   46.2430 C   0  0  0  0  0  0  0  0  0  0  0  0
   44.5620   35.5790   45.2610 C   0  0  0  0  0  0  0  0  0  0  0  0
   44.7340   35.1450   43.9920 N   0  0  0  0  0  0  0  0  0  0  0  0
   45.2190   33.9260   43.7440 C   0  0  0  0  0  0  0  0  0  0  0  0
   45.5650   33.0550   44.7160 N   0  0  0  0  0  0  0  0  0  0  0  0
   44.8040   34.9710   47.2820 H   0  0  0  0  0  0  0  0  0  0  0  0
   44.1690   36.5670   45.4470 H   0  0  0  0  0  0  0  0  0  0  0  0
   45.1550   31.3920   49.0290 C   0  0  0  0  0  0  0  0  0  0  0  0
   46.4360   30.8220   49.0870 C   0  0  0  0  0  0  0  0  0  0  0  0
   47.3710   31.1320   48.1160 C   0  0  0  0  0  0  0  0  0  0  0  0
   46.9990   31.9970   47.1240 N   0  0  0  0  0  0  0  0  0  0  0  0
   45.7710   32.5340   47.0810 C   0  0  0  0  0  0  0  0  0  0  0  0
   44.8650   32.2320   48.0250 N   0  0  0  0  0  0  0  0  0  0  0  0
   44.3840   31.1880   49.7590 H   0  0  0  0  0  0  0  0  0  0  0  0
   46.6520   30.1480   49.9020 H   0  0  0  0  0  0  0  0  0  0  0  0
   49.7230   32.2770   49.3940 N   0  0  0  0  0  0  0  0  0  0  0  0
   49.5860   31.0340   49.1390 C   0  0  0  0  0  0  0  0  0  0  0  0
   48.6540   30.5520   48.1990 N   0  0  0  0  0  0  0  0  0  0  0  0
   50.4320   30.1030   49.8500 N   0  0  0  0  0  0  0  0  0  0  0  0
   51.0400   29.4720   50.3840 H   0  0  0  0  0  0  0  0  0  0  0  0
   49.1380   32.9750   48.9010 H   0  0  0  0  0  0  0  0  0  0  0  0
   48.9200   29.7690   47.5730 H   0  0  0  0  0  0  0  0  0  0  0  0
   50.9030   30.3920   50.7400 H   0  0  0  0  0  0  0  0  0  0  0  0
   45.4010   33.4680   42.3480 C   0  0  0  0  0  0  0  0  0  0  0  0
   44.3940   32.7770   41.7170 C   0  0  0  0  0  0  0  0  0  0  0  0
   44.4640   32.3040   40.4140 C   0  0  0  0  0  0  0  0  0  0  0  0
   45.6350   32.5590   39.7210 C   0  0  0  0  0  0  0  0  0  0  0  0
   46.6350   33.2460   40.3480 C   0  0  0  0  0  0  0  0  0  0  0  0
   46.5620   33.7110   41.6390 C   0  0  0  0  0  0  0  0  0  0  0  0
   43.4610   32.5640   42.2430 H   0  0  0  0  0  0  0  0  0  0  0  0
   43.6720   31.7680   39.9350 H   0  0  0  0  0  0  0  0  0  0  0  0
   45.8170   32.2490   38.7080 H   0  0  0  0  0  0  0  0  0  0  0  0
   47.5730   33.4630   39.8290 H   0  0  0  0  0  0  0  0  0  0  0  0
   47.5470   34.4000   42.2860 O   0  0  0  0  0  0  0  0  0  0  0  0
   49.9330   35.3160   42.8290 O   0  0  0  0  0  0  0  0  0  0  0  0
   49.1240   34.6590   41.7070 P   0  0  0  0  0  0  0  0  0  0  0  0
   49.8880   33.2980   41.1320 O   0  0  0  0  0  0  0  0  0  0  0  0
   50.2300   33.3740   40.2200 H   0  0  0  0  0  0  0  0  0  0  0  0
   49.0390   35.8040   40.4550 O   0  0  0  0  0  0  0  0  0  0  0  0
   49.0200   35.3040   39.6000 H   0  0  0  0  0  0  0  0  0  0  0  0
  1  2  1  0  0  0  0
  1 13  1  0  0  0  0
  2  7  1  0  0  0  0
  3  8  1  0  0  0  0
  3  2  2  0  0  0  0
  4  3  1  0  0  0  0
  5  4  2  0  0  0  0
  5  6  1  0  0  0  0
  6  1  2  0  0  0  0
  9 10  1  0  0  0  0
  9 15  1  0  0  0  0
 10 16  1  0  0  0  0
 11 19  1  0  0  0  0
 11 10  2  0  0  0  0
 12 11  1  0  0  0  0
 13 12  2  0  0  0  0
 13 14  1  0  0  0  0
 14  9  2  0  0  0  0
 18 17  2  0  0  0  0
 18 20  1  0  0  0  0
 19 18  1  0  0  0  0
 20 21  1  0  0  0  0
 20 24  1  0  0  0  0
 22 17  1  0  0  0  0
 23 19  1  0  0  0  0
 25  5  1  0  0  0  0
 26 31  1  0  0  0  0
 26 25  1  0  0  0  0
 27 26  2  0  0  0  0
 28 29  2  0  0  0  0
 28 27  1  0  0  0  0
 29 30  1  0  0  0  0
 30 35  1  0  0  0  0
 30 25  2  0  0  0  0
 32 27  1  0  0  0  0
 33 28  1  0  0  0  0
 34 29  1  0  0  0  0
 37 35  1  0  0  0  0
 37 36  2  0  0  0  0
 38 37  1  0  0  0  0
 39 38  1  0  0  0  0
 40 37  1  0  0  0  0
 41 40  1  0  0  0  0
M  END
>  <minimizedAffinity>
-6.19494057

>  <minimizedRMSD>
0.726176977

$$$$
