
 OpenBabel03252500563D

 37 38  0  0  0  0  0  0  0  0999 V2000
   43.8800   34.6490   40.1120 O   0  0  0  0  0  0  0  0  0  0  0  0
   43.3960   34.6460   41.5570 P   0  0  1  0  0  0  0  0  0  0  0  0
   43.1530   33.0490   42.0460 O   0  0  0  0  0  0  0  0  0  0  0  0
   42.2680   32.8650   42.4100 H   0  0  0  0  0  0  0  0  0  0  0  0
   44.5970   35.3180   42.5430 O   0  0  0  0  0  0  0  0  0  0  0  0
   46.6780   34.2800   42.9410 C   0  0  0  0  0  0  0  0  0  0  0  0
   45.4270   34.6220   43.4140 C   0  0  0  0  0  0  0  0  0  0  0  0
   45.0960   34.2440   44.7230 C   0  0  0  0  0  0  0  0  0  0  0  0
   46.0230   33.5690   45.4380 N   0  0  0  0  0  0  0  0  0  0  0  0
   47.2280   33.2490   44.9580 C   0  0  0  0  0  0  0  0  0  0  0  0
   47.5570   33.6050   43.7070 N   0  0  0  0  0  0  0  0  0  0  0  0
   44.1190   34.5380   45.0250 H   0  0  0  0  0  0  0  0  0  0  0  0
   47.9210   32.7030   45.5950 H   0  0  0  0  0  0  0  0  0  0  0  0
   47.0920   34.6400   41.5860 C   0  0  0  0  0  0  0  0  0  0  0  0
   47.1830   33.7670   40.8940 H   0  0  0  0  0  0  0  0  0  0  0  0
   46.3400   35.3170   41.1210 H   0  0  0  0  0  0  0  0  0  0  0  0
   48.4190   35.3470   41.6450 C   0  0  0  0  0  0  0  0  0  0  0  0
   49.1410   34.6570   42.1410 H   0  0  0  0  0  0  0  0  0  0  0  0
   48.7860   35.6520   40.6460 H   0  0  0  0  0  0  0  0  0  0  0  0
   48.3110   36.2200   42.3190 H   0  0  0  0  0  0  0  0  0  0  0  0
   41.9090   35.4550   41.6810 O   0  0  0  0  0  0  0  0  0  0  0  0
   40.7820   34.8350   41.1730 C   0  0  0  0  0  0  0  0  0  0  0  0
   40.0960   35.4730   40.1540 C   0  0  0  0  0  0  0  0  0  0  0  0
   38.9580   34.9380   39.5780 C   0  0  0  0  0  0  0  0  0  0  0  0
   38.5120   33.7460   40.0390 N   0  0  0  0  0  0  0  0  0  0  0  0
   39.1720   33.1170   41.0310 C   0  0  0  0  0  0  0  0  0  0  0  0
   40.2690   33.6640   41.5650 N   0  0  0  0  0  0  0  0  0  0  0  0
   40.4260   36.4170   39.7680 H   0  0  0  0  0  0  0  0  0  0  0  0
   38.4370   35.4410   38.7890 H   0  0  0  0  0  0  0  0  0  0  0  0
   40.6460   31.3780   42.6890 N   0  0  0  0  0  0  0  0  0  0  0  0
   39.6120   30.8810   42.0660 C   0  0  0  0  0  0  0  0  0  0  0  0
   38.7080   31.8470   41.5320 N   0  0  0  0  0  0  0  0  0  0  0  0
   39.2480   29.5040   41.8360 N   0  0  0  0  0  0  0  0  0  0  0  0
   38.4110   29.0740   42.2480 H   0  0  0  0  0  0  0  0  0  0  0  0
   41.3920   30.8300   43.1310 H   0  0  0  0  0  0  0  0  0  0  0  0
   37.6630   31.6530   41.4920 H   0  0  0  0  0  0  0  0  0  0  0  0
   39.9390   29.0200   41.2090 H   0  0  0  0  0  0  0  0  0  0  0  0
  2  1  2  6  0  0  0
  2 21  1  0  0  0  0
  2  3  1  0  0  0  0
  2  5  1  0  0  0  0
  3  4  1  0  0  0  0
  5  7  1  0  0  0  0
  6  7  2  0  0  0  0
  6 11  1  0  0  0  0
  7  8  1  0  0  0  0
  8 12  1  0  0  0  0
  8  9  2  0  0  0  0
 10  9  1  0  0  0  0
 10 13  1  0  0  0  0
 11 10  2  0  0  0  0
 14 17  1  0  0  0  0
 14  6  1  0  0  0  0
 15 14  1  0  0  0  0
 16 14  1  0  0  0  0
 17 18  1  0  0  0  0
 17 20  1  0  0  0  0
 19 17  1  0  0  0  0
 22 27  1  0  0  0  0
 22 21  1  0  0  0  0
 23 22  2  0  0  0  0
 24 25  2  0  0  0  0
 24 23  1  0  0  0  0
 25 26  1  0  0  0  0
 26 32  1  0  0  0  0
 26 27  2  0  0  0  0
 28 23  1  0  0  0  0
 29 24  1  0  0  0  0
 30 35  1  0  0  0  0
 31 30  2  0  0  0  0
 32 31  1  0  0  0  0
 33 31  1  0  0  0  0
 33 34  1  0  0  0  0
 36 32  1  0  0  0  0
 37 33  1  0  0  0  0
M  END
>  <minimizedAffinity>
-5.84887743

>  <minimizedRMSD>
0.235940143

$$$$
