
 OpenBabel03252500563D

 37 38  0  0  0  0  0  0  0  0999 V2000
   43.6870   34.8450   40.1460 O   0  0  0  0  0  0  0  0  0  0  0  0
   43.2610   34.7220   41.6040 P   0  0  1  0  0  0  0  0  0  0  0  0
   43.1400   33.0850   41.9990 O   0  0  0  0  0  0  0  0  0  0  0  0
   42.2830   32.8210   42.3810 H   0  0  0  0  0  0  0  0  0  0  0  0
   44.4530   35.4110   42.5880 O   0  0  0  0  0  0  0  0  0  0  0  0
   46.5210   34.3540   42.9980 C   0  0  0  0  0  0  0  0  0  0  0  0
   45.2800   34.7300   43.4730 C   0  0  0  0  0  0  0  0  0  0  0  0
   44.9570   34.3980   44.7950 C   0  0  0  0  0  0  0  0  0  0  0  0
   45.8810   33.7310   45.5230 N   0  0  0  0  0  0  0  0  0  0  0  0
   47.0760   33.3770   45.0420 C   0  0  0  0  0  0  0  0  0  0  0  0
   47.3970   33.6900   43.7770 N   0  0  0  0  0  0  0  0  0  0  0  0
   43.9880   34.7160   45.0980 H   0  0  0  0  0  0  0  0  0  0  0  0
   47.7670   32.8410   45.6890 H   0  0  0  0  0  0  0  0  0  0  0  0
   46.9270   34.6660   41.6290 C   0  0  0  0  0  0  0  0  0  0  0  0
   46.9800   33.7730   40.9590 H   0  0  0  0  0  0  0  0  0  0  0  0
   46.1900   35.3540   41.1570 H   0  0  0  0  0  0  0  0  0  0  0  0
   48.2760   35.3310   41.6520 C   0  0  0  0  0  0  0  0  0  0  0  0
   48.9830   34.6320   42.1560 H   0  0  0  0  0  0  0  0  0  0  0  0
   48.6390   35.5990   40.6400 H   0  0  0  0  0  0  0  0  0  0  0  0
   48.2060   36.2240   42.3040 H   0  0  0  0  0  0  0  0  0  0  0  0
   41.7300   35.4210   41.8290 O   0  0  0  0  0  0  0  0  0  0  0  0
   40.6380   34.8110   41.2390 C   0  0  0  0  0  0  0  0  0  0  0  0
   40.0580   35.4350   40.1480 C   0  0  0  0  0  0  0  0  0  0  0  0
   38.9640   34.9080   39.4870 C   0  0  0  0  0  0  0  0  0  0  0  0
   38.4530   33.7380   39.9370 N   0  0  0  0  0  0  0  0  0  0  0  0
   39.0090   33.1220   40.9980 C   0  0  0  0  0  0  0  0  0  0  0  0
   40.0670   33.6610   41.6130 N   0  0  0  0  0  0  0  0  0  0  0  0
   40.4420   36.3620   39.7700 H   0  0  0  0  0  0  0  0  0  0  0  0
   38.5260   35.4010   38.6440 H   0  0  0  0  0  0  0  0  0  0  0  0
   40.4390   30.7030   41.2130 N   0  0  0  0  0  0  0  0  0  0  0  0
   39.1360   30.6350   41.2470 C   0  0  0  0  0  0  0  0  0  0  0  0
   38.4750   31.8750   41.4870 N   0  0  0  0  0  0  0  0  0  0  0  0
   38.2680   29.4950   41.0780 N   0  0  0  0  0  0  0  0  0  0  0  0
   37.6760   29.1320   41.8350 H   0  0  0  0  0  0  0  0  0  0  0  0
   41.0710   29.9110   41.0520 H   0  0  0  0  0  0  0  0  0  0  0  0
   37.5650   31.9120   42.0370 H   0  0  0  0  0  0  0  0  0  0  0  0
   38.3270   29.1040   40.1050 H   0  0  0  0  0  0  0  0  0  0  0  0
  2  1  2  6  0  0  0
  2 21  1  0  0  0  0
  2  3  1  0  0  0  0
  2  5  1  0  0  0  0
  3  4  1  0  0  0  0
  5  7  1  0  0  0  0
  6  7  2  0  0  0  0
  6 11  1  0  0  0  0
  7  8  1  0  0  0  0
  8 12  1  0  0  0  0
  8  9  2  0  0  0  0
 10  9  1  0  0  0  0
 10 13  1  0  0  0  0
 11 10  2  0  0  0  0
 14 17  1  0  0  0  0
 14  6  1  0  0  0  0
 15 14  1  0  0  0  0
 16 14  1  0  0  0  0
 17 18  1  0  0  0  0
 17 20  1  0  0  0  0
 19 17  1  0  0  0  0
 22 27  1  0  0  0  0
 22 21  1  0  0  0  0
 23 22  2  0  0  0  0
 24 25  2  0  0  0  0
 24 23  1  0  0  0  0
 25 26  1  0  0  0  0
 26 32  1  0  0  0  0
 26 27  2  0  0  0  0
 28 23  1  0  0  0  0
 29 24  1  0  0  0  0
 30 31  2  0  0  0  0
 31 32  1  0  0  0  0
 32 36  1  0  0  0  0
 33 31  1  0  0  0  0
 33 34  1  0  0  0  0
 35 30  1  0  0  0  0
 37 33  1  0  0  0  0
M  END
>  <minimizedAffinity>
-5.67789698

>  <minimizedRMSD>
0.160920337

$$$$
