
 OpenBabel03252506283D

 46 49  0  0  0  0  0  0  0  0999 V2000
   46.9330   30.5040   48.1130 C   0  0  0  0  0  0  0  0  0  0  0  0
   47.2950   31.2450   48.8540 H   0  0  0  0  0  0  0  0  0  0  0  0
   47.5430   29.6040   48.1430 H   0  0  0  0  0  0  0  0  0  0  0  0
   46.6030   32.5320   45.1930 C   0  0  0  0  0  0  0  0  0  0  0  0
   47.4170   31.4740   44.7210 C   0  0  0  0  0  0  0  0  0  0  0  0
   47.6280   30.6140   45.7360 C   0  0  0  0  0  0  0  0  0  0  0  0
   46.9750   31.1150   46.7950 N   0  0  0  0  0  0  0  0  0  0  0  0
   46.3620   32.2570   46.4790 N   0  0  0  0  0  0  0  0  0  0  0  0
   47.8370   31.3180   43.7150 H   0  0  0  0  0  0  0  0  0  0  0  0
   48.2120   29.6840   45.7250 H   0  0  0  0  0  0  0  0  0  0  0  0
   44.8800   35.5770   44.1630 C   0  0  0  0  0  0  0  0  0  0  0  0
   45.3100   35.7870   42.8620 C   0  0  0  0  0  0  0  0  0  0  0  0
   46.2120   34.8550   42.3400 C   0  0  0  0  0  0  0  0  0  0  0  0
   46.5950   33.8300   43.1270 N   0  0  0  0  0  0  0  0  0  0  0  0
   46.1710   33.6450   44.3760 C   0  0  0  0  0  0  0  0  0  0  0  0
   45.2980   34.5410   44.8920 N   0  0  0  0  0  0  0  0  0  0  0  0
   44.1830   36.3100   44.5470 H   0  0  0  0  0  0  0  0  0  0  0  0
   45.0250   36.5970   42.2010 H   0  0  0  0  0  0  0  0  0  0  0  0
   48.8430   35.6580   41.6340 N   0  0  0  0  0  0  0  0  0  0  0  0
   48.1550   34.9900   40.7430 C   0  0  0  0  0  0  0  0  0  0  0  0
   46.7400   34.9460   41.0100 N   0  0  0  0  0  0  0  0  0  0  0  0
   48.5840   34.3010   39.5510 N   0  0  0  0  0  0  0  0  0  0  0  0
   49.4350   33.7330   39.7780 H   0  0  0  0  0  0  0  0  0  0  0  0
   49.8870   35.7730   41.5690 H   0  0  0  0  0  0  0  0  0  0  0  0
   46.0220   34.9800   40.2260 H   0  0  0  0  0  0  0  0  0  0  0  0
   47.9880   34.4820   38.6900 H   0  0  0  0  0  0  0  0  0  0  0  0
   45.5310   30.1660   48.4830 C   0  0  0  0  0  0  0  0  0  0  0  0
   45.4900   30.0040   49.5810 H   0  0  0  0  0  0  0  0  0  0  0  0
   44.9040   31.0810   48.2960 H   0  0  0  0  0  0  0  0  0  0  0  0
   44.9570   27.6800   48.2180 C   0  0  0  0  0  0  0  0  0  0  0  0
   44.9420   28.9960   47.8300 C   0  0  0  0  0  0  0  0  0  0  0  0
   44.2700   29.2780   46.6350 C   0  0  0  0  0  0  0  0  0  0  0  0
   43.6640   28.2980   45.9000 C   0  0  0  0  0  0  0  0  0  0  0  0
   42.9630   28.2770   44.7430 N   0  0  0  0  0  0  0  0  0  0  0  0
   42.5730   27.0280   44.4400 C   0  0  0  0  0  0  0  0  0  0  0  0
   43.0230   26.1710   45.4240 C   0  0  0  0  0  0  0  0  0  0  0  0
   43.6880   26.9940   46.3010 C   0  0  0  0  0  0  0  0  0  0  0  0
   44.3470   26.7060   47.4740 C   0  0  0  0  0  0  0  0  0  0  0  0
   45.4880   27.5020   49.1480 H   0  0  0  0  0  0  0  0  0  0  0  0
   44.1820   30.2710   46.2150 H   0  0  0  0  0  0  0  0  0  0  0  0
   42.7500   29.1180   44.1570 H   0  0  0  0  0  0  0  0  0  0  0  0
   41.9990   26.7590   43.5620 H   0  0  0  0  0  0  0  0  0  0  0  0
   42.8480   25.1000   45.4300 H   0  0  0  0  0  0  0  0  0  0  0  0
   44.4010   25.3200   47.9460 C   0  0  0  0  0  0  0  0  0  0  0  0
   45.0950   24.9920   48.9510 O   0  0  0  0  0  0  0  0  0  0  0  0
   43.8490   24.5330   47.4490 H   0  0  0  0  0  0  0  0  0  0  0  0
  1  3  1  0  0  0  0
  1 27  1  0  0  0  0
  1  2  1  0  0  0  0
  4  8  2  0  0  0  0
  5  4  1  0  0  0  0
  5  6  2  0  0  0  0
  6  7  1  0  0  0  0
  7  1  1  0  0  0  0
  8  7  1  0  0  0  0
  9  5  1  0  0  0  0
 10  6  1  0  0  0  0
 11 17  1  0  0  0  0
 11 16  1  0  0  0  0
 12 11  2  0  0  0  0
 13 12  1  0  0  0  0
 13 14  2  0  0  0  0
 14 15  1  0  0  0  0
 15 16  2  0  0  0  0
 15  4  1  0  0  0  0
 18 12  1  0  0  0  0
 20 21  1  0  0  0  0
 20 19  2  0  0  0  0
 21 13  1  0  0  0  0
 22 23  1  0  0  0  0
 22 20  1  0  0  0  0
 24 19  1  0  0  0  0
 25 21  1  0  0  0  0
 26 22  1  0  0  0  0
 27 28  1  0  0  0  0
 29 27  1  0  0  0  0
 30 39  1  0  0  0  0
 31 30  1  0  0  0  0
 31 27  1  0  0  0  0
 32 31  2  0  0  0  0
 33 37  2  0  0  0  0
 33 32  1  0  0  0  0
 34 33  1  0  0  0  0
 35 34  1  0  0  0  0
 35 36  2  0  0  0  0
 36 43  1  0  0  0  0
 36 37  1  0  0  0  0
 37 38  1  0  0  0  0
 38 44  1  0  0  0  0
 38 30  2  0  0  0  0
 40 32  1  0  0  0  0
 41 34  1  0  0  0  0
 42 35  1  0  0  0  0
 44 45  2  0  0  0  0
 46 44  1  0  0  0  0
M  END
>  <minimizedAffinity>
-5.67186165

>  <minimizedRMSD>
0.607050061

$$$$
