
 OpenBabel03242517353D

 22 22  0  0  0  0  0  0  0  0999 V2000
   44.0560   35.3380   41.8660 C   0  0  0  0  0  3  0  0  0  0  0  0
   43.1080   34.7240   41.1650 C   0  0  0  0  0  3  0  0  0  0  0  0
   44.3200   35.7350   44.3330 C   0  0  0  0  0  0  0  0  0  0  0  0
   44.5140   34.9180   43.1960 C   0  0  0  0  0  0  0  0  0  0  0  0
   45.1500   33.6990   43.3520 C   0  0  0  0  0  0  0  0  0  0  0  0
   45.5650   33.3370   44.6090 N   0  0  0  0  0  0  0  0  0  0  0  0
   45.3610   34.1410   45.6620 C   0  0  0  0  0  0  0  0  0  0  0  0
   44.7510   35.3120   45.5130 N   0  0  0  0  0  0  0  0  0  0  0  0
   43.8170   36.6760   44.1530 H   0  0  0  0  0  0  0  0  0  0  0  0
   45.3290   33.0260   42.5220 H   0  0  0  0  0  0  0  0  0  0  0  0
   45.7220   33.7740   46.6180 H   0  0  0  0  0  0  0  0  0  0  0  0
   42.6920   35.2080   39.8150 C   0  0  0  0  0  0  0  0  0  0  0  0
   43.0130   34.5260   39.0090 H   0  0  0  0  0  0  0  0  0  0  0  0
   43.1890   36.1870   39.6550 H   0  0  0  0  0  0  0  0  0  0  0  0
   40.9570   34.3160   37.7940 N   0  0  0  0  0  0  0  0  0  0  0  0
   40.4530   34.7710   38.8730 C   0  0  0  0  0  0  0  0  0  0  0  0
   41.2680   35.4750   39.8040 N   0  0  0  0  0  0  0  0  0  0  0  0
   39.0620   34.6070   39.2070 N   0  0  0  0  0  0  0  0  0  0  0  0
   38.7640   34.3400   40.1730 H   0  0  0  0  0  0  0  0  0  0  0  0
   40.3070   33.8020   37.1380 H   0  0  0  0  0  0  0  0  0  0  0  0
   40.8120   36.1690   40.4580 H   0  0  0  0  0  0  0  0  0  0  0  0
   38.1320   34.6650   38.7780 H   0  0  0  0  0  0  0  0  0  0  0  0
  1  4  1  0  0  0  0
  2  1  2  0  0  0  0
  3  8  1  0  0  0  0
  4  5  1  0  0  0  0
  4  3  2  0  0  0  0
  5  6  2  0  0  0  0
  6  7  1  0  0  0  0
  7 11  1  0  0  0  0
  8  7  2  0  0  0  0
  9  3  1  0  0  0  0
 10  5  1  0  0  0  0
 12  2  1  0  0  0  0
 13 12  1  0  0  0  0
 14 12  1  0  0  0  0
 15 16  2  0  0  0  0
 16 18  1  0  0  0  0
 16 17  1  0  0  0  0
 17 12  1  0  0  0  0
 17 21  1  0  0  0  0
 18 19  1  0  0  0  0
 20 15  1  0  0  0  0
 22 18  1  0  0  0  0
M  END
>  <minimizedAffinity>
-4.06236506

>  <minimizedRMSD>
0.348164886

$$$$
