
 OpenBabel03242521233D

 41 43  0  0  0  0  0  0  0  0999 V2000
   45.2570   33.6460   45.7130 C   0  0  0  0  0  0  0  0  0  0  0  0
   44.8120   34.8910   46.0190 C   0  0  0  0  0  0  0  0  0  0  0  0
   44.4830   35.8470   45.0900 C   0  0  0  0  0  0  0  0  0  0  0  0
   44.6270   35.4770   43.7980 N   0  0  0  0  0  0  0  0  0  0  0  0
   45.0650   34.2560   43.4790 C   0  0  0  0  0  0  0  0  0  0  0  0
   45.3870   33.3210   44.3980 N   0  0  0  0  0  0  0  0  0  0  0  0
   44.7200   35.1210   47.0720 H   0  0  0  0  0  0  0  0  0  0  0  0
   44.1290   36.8370   45.3340 H   0  0  0  0  0  0  0  0  0  0  0  0
   45.8390   32.1340   48.9950 C   0  0  0  0  0  0  0  0  0  0  0  0
   46.2150   30.8300   48.6380 C   0  0  0  0  0  0  0  0  0  0  0  0
   46.2710   30.4720   47.3040 C   0  0  0  0  0  0  0  0  0  0  0  0
   45.9520   31.4220   46.3730 N   0  0  0  0  0  0  0  0  0  0  0  0
   45.5930   32.6640   46.7290 C   0  0  0  0  0  0  0  0  0  0  0  0
   45.5390   33.0100   48.0250 N   0  0  0  0  0  0  0  0  0  0  0  0
   45.7770   32.4720   50.0200 H   0  0  0  0  0  0  0  0  0  0  0  0
   46.4520   30.1380   49.4330 H   0  0  0  0  0  0  0  0  0  0  0  0
   48.7930   29.6500   46.1020 N   0  0  0  0  0  0  0  0  0  0  0  0
   48.0160   28.8610   46.7390 C   0  0  0  0  0  0  0  0  0  0  0  0
   46.6590   29.1580   46.9690 N   0  0  0  0  0  0  0  0  0  0  0  0
   48.5700   27.6180   47.2260 N   0  0  0  0  0  0  0  0  0  0  0  0
   49.0020   26.7520   47.5690 H   0  0  0  0  0  0  0  0  0  0  0  0
   48.4310   30.5470   45.7350 H   0  0  0  0  0  0  0  0  0  0  0  0
   45.9510   28.4020   46.8930 H   0  0  0  0  0  0  0  0  0  0  0  0
   49.6060   27.5090   47.3320 H   0  0  0  0  0  0  0  0  0  0  0  0
   45.2170   33.8690   42.0580 C   0  0  0  0  0  0  0  0  0  0  0  0
   44.1790   33.2540   41.4000 C   0  0  0  0  0  0  0  0  0  0  0  0
   44.2190   32.8510   40.0720 C   0  0  0  0  0  0  0  0  0  0  0  0
   45.3950   33.0970   39.3830 C   0  0  0  0  0  0  0  0  0  0  0  0
   46.4260   33.7080   40.0360 C   0  0  0  0  0  0  0  0  0  0  0  0
   46.3810   34.1050   41.3520 C   0  0  0  0  0  0  0  0  0  0  0  0
   43.2420   33.0500   41.9230 H   0  0  0  0  0  0  0  0  0  0  0  0
   43.4030   32.3740   39.5730 H   0  0  0  0  0  0  0  0  0  0  0  0
   45.5570   32.8370   38.3530 H   0  0  0  0  0  0  0  0  0  0  0  0
   47.3680   33.9170   39.5210 H   0  0  0  0  0  0  0  0  0  0  0  0
   47.3990   34.7170   42.0260 O   0  0  0  0  0  0  0  0  0  0  0  0
   49.8400   35.3840   42.6760 O   0  0  0  0  0  0  0  0  0  0  0  0
   49.0220   34.7890   41.5250 P   0  0  0  0  0  0  0  0  0  0  0  0
   49.6600   33.3390   41.0190 O   0  0  0  0  0  0  0  0  0  0  0  0
   50.0530   33.3540   40.1250 H   0  0  0  0  0  0  0  0  0  0  0  0
   49.1250   35.9040   40.2480 O   0  0  0  0  0  0  0  0  0  0  0  0
   49.0950   35.3870   39.4030 H   0  0  0  0  0  0  0  0  0  0  0  0
  1  2  1  0  0  0  0
  1 13  1  0  0  0  0
  2  7  1  0  0  0  0
  3  8  1  0  0  0  0
  3  2  2  0  0  0  0
  4  3  1  0  0  0  0
  5  4  2  0  0  0  0
  5  6  1  0  0  0  0
  6  1  2  0  0  0  0
  9 15  1  0  0  0  0
 10  9  1  0  0  0  0
 10 16  1  0  0  0  0
 11 10  2  0  0  0  0
 12 13  2  0  0  0  0
 12 11  1  0  0  0  0
 13 14  1  0  0  0  0
 14  9  2  0  0  0  0
 17 18  2  0  0  0  0
 18 19  1  0  0  0  0
 18 20  1  0  0  0  0
 19 11  1  0  0  0  0
 20 24  1  0  0  0  0
 20 21  1  0  0  0  0
 22 17  1  0  0  0  0
 23 19  1  0  0  0  0
 25  5  1  0  0  0  0
 26 31  1  0  0  0  0
 26 25  1  0  0  0  0
 27 26  2  0  0  0  0
 28 29  2  0  0  0  0
 28 27  1  0  0  0  0
 29 30  1  0  0  0  0
 30 35  1  0  0  0  0
 30 25  2  0  0  0  0
 32 27  1  0  0  0  0
 33 28  1  0  0  0  0
 34 29  1  0  0  0  0
 37 35  1  0  0  0  0
 37 36  2  0  0  0  0
 38 37  1  0  0  0  0
 39 38  1  0  0  0  0
 40 37  1  0  0  0  0
 41 40  1  0  0  0  0
M  END
>  <minimizedAffinity>
-6.13537979

>  <minimizedRMSD>
1.3913089

$$$$
