
 OpenBabel03252500563D

 37 38  0  0  0  0  0  0  0  0999 V2000
   43.9280   34.5950   40.1110 O   0  0  0  0  0  0  0  0  0  0  0  0
   43.4170   34.6450   41.5450 P   0  0  1  0  0  0  0  0  0  0  0  0
   43.1190   33.0700   42.0720 O   0  0  0  0  0  0  0  0  0  0  0  0
   42.2220   32.9200   42.4230 H   0  0  0  0  0  0  0  0  0  0  0  0
   44.6170   35.3110   42.5370 O   0  0  0  0  0  0  0  0  0  0  0  0
   46.6910   34.2620   42.9380 C   0  0  0  0  0  0  0  0  0  0  0  0
   45.4410   34.6100   43.4090 C   0  0  0  0  0  0  0  0  0  0  0  0
   45.1050   34.2320   44.7160 C   0  0  0  0  0  0  0  0  0  0  0  0
   46.0280   33.5520   45.4340 N   0  0  0  0  0  0  0  0  0  0  0  0
   47.2320   33.2260   44.9560 C   0  0  0  0  0  0  0  0  0  0  0  0
   47.5650   33.5830   43.7060 N   0  0  0  0  0  0  0  0  0  0  0  0
   44.1290   34.5310   45.0170 H   0  0  0  0  0  0  0  0  0  0  0  0
   47.9210   32.6770   45.5940 H   0  0  0  0  0  0  0  0  0  0  0  0
   47.1110   34.6220   41.5850 C   0  0  0  0  0  0  0  0  0  0  0  0
   47.2270   33.7460   40.9000 H   0  0  0  0  0  0  0  0  0  0  0  0
   46.3480   35.2780   41.1080 H   0  0  0  0  0  0  0  0  0  0  0  0
   48.4210   35.3580   41.6520 C   0  0  0  0  0  0  0  0  0  0  0  0
   49.1530   34.6890   42.1590 H   0  0  0  0  0  0  0  0  0  0  0  0
   48.7910   35.6650   40.6530 H   0  0  0  0  0  0  0  0  0  0  0  0
   48.2880   36.2330   42.3180 H   0  0  0  0  0  0  0  0  0  0  0  0
   41.9510   35.4990   41.6170 O   0  0  0  0  0  0  0  0  0  0  0  0
   40.8230   34.9090   41.0770 C   0  0  0  0  0  0  0  0  0  0  0  0
   40.2420   35.5110   39.9740 C   0  0  0  0  0  0  0  0  0  0  0  0
   39.1130   35.0010   39.3590 C   0  0  0  0  0  0  0  0  0  0  0  0
   38.5680   33.8710   39.8670 N   0  0  0  0  0  0  0  0  0  0  0  0
   39.1250   33.2770   40.9410 C   0  0  0  0  0  0  0  0  0  0  0  0
   40.2160   33.7980   41.5090 N   0  0  0  0  0  0  0  0  0  0  0  0
   40.6520   36.4060   39.5490 H   0  0  0  0  0  0  0  0  0  0  0  0
   38.6750   35.4770   38.5060 H   0  0  0  0  0  0  0  0  0  0  0  0
   40.5800   31.0130   41.7780 N   0  0  0  0  0  0  0  0  0  0  0  0
   39.3010   30.8600   41.5680 C   0  0  0  0  0  0  0  0  0  0  0  0
   38.5540   32.0730   41.4920 N   0  0  0  0  0  0  0  0  0  0  0  0
   38.5320   29.6520   41.4010 N   0  0  0  0  0  0  0  0  0  0  0  0
   37.8150   29.3520   42.0720 H   0  0  0  0  0  0  0  0  0  0  0  0
   41.2640   30.2530   41.8590 H   0  0  0  0  0  0  0  0  0  0  0  0
   37.5520   32.1190   41.8430 H   0  0  0  0  0  0  0  0  0  0  0  0
   38.8020   29.1380   40.5230 H   0  0  0  0  0  0  0  0  0  0  0  0
  2  1  2  6  0  0  0
  2 21  1  0  0  0  0
  2  3  1  0  0  0  0
  2  5  1  0  0  0  0
  3  4  1  0  0  0  0
  5  7  1  0  0  0  0
  6  7  2  0  0  0  0
  6 11  1  0  0  0  0
  7  8  1  0  0  0  0
  8 12  1  0  0  0  0
  8  9  2  0  0  0  0
 10  9  1  0  0  0  0
 10 13  1  0  0  0  0
 11 10  2  0  0  0  0
 14 17  1  0  0  0  0
 14  6  1  0  0  0  0
 15 14  1  0  0  0  0
 16 14  1  0  0  0  0
 17 18  1  0  0  0  0
 17 20  1  0  0  0  0
 19 17  1  0  0  0  0
 22 27  1  0  0  0  0
 22 21  1  0  0  0  0
 23 22  2  0  0  0  0
 24 25  2  0  0  0  0
 24 23  1  0  0  0  0
 25 26  1  0  0  0  0
 26 32  1  0  0  0  0
 26 27  2  0  0  0  0
 28 23  1  0  0  0  0
 29 24  1  0  0  0  0
 30 35  1  0  0  0  0
 31 30  2  0  0  0  0
 32 31  1  0  0  0  0
 32 36  1  0  0  0  0
 33 31  1  0  0  0  0
 33 34  1  0  0  0  0
 37 33  1  0  0  0  0
M  END
>  <minimizedAffinity>
-5.69639015

>  <minimizedRMSD>
0.301805377

$$$$
