
 OpenBabel03252500563D

 37 38  0  0  0  0  0  0  0  0999 V2000
   43.8130   33.9950   39.4050 O   0  0  0  0  0  0  0  0  0  0  0  0
   43.4530   34.2450   40.8650 P   0  0  1  0  0  0  0  0  0  0  0  0
   43.2160   32.7590   41.6300 O   0  0  0  0  0  0  0  0  0  0  0  0
   42.3600   32.6700   42.0880 H   0  0  0  0  0  0  0  0  0  0  0  0
   44.7480   35.0250   41.6270 O   0  0  0  0  0  0  0  0  0  0  0  0
   46.8390   34.2640   42.4100 C   0  0  0  0  0  0  0  0  0  0  0  0
   45.5080   34.5180   42.6750 C   0  0  0  0  0  0  0  0  0  0  0  0
   45.0340   34.2470   43.9650 C   0  0  0  0  0  0  0  0  0  0  0  0
   45.9100   33.7550   44.8700 N   0  0  0  0  0  0  0  0  0  0  0  0
   47.1950   33.5170   44.5900 C   0  0  0  0  0  0  0  0  0  0  0  0
   47.6610   33.7730   43.3590 N   0  0  0  0  0  0  0  0  0  0  0  0
   44.0020   34.4650   44.1020 H   0  0  0  0  0  0  0  0  0  0  0  0
   47.8390   33.1200   45.3720 H   0  0  0  0  0  0  0  0  0  0  0  0
   47.4040   34.5220   41.0870 C   0  0  0  0  0  0  0  0  0  0  0  0
   47.6840   33.5960   40.5270 H   0  0  0  0  0  0  0  0  0  0  0  0
   46.6600   35.0480   40.4470 H   0  0  0  0  0  0  0  0  0  0  0  0
   48.6280   35.3860   41.2300 C   0  0  0  0  0  0  0  0  0  0  0  0
   49.3390   34.8470   41.8970 H   0  0  0  0  0  0  0  0  0  0  0  0
   49.1010   35.6220   40.2570 H   0  0  0  0  0  0  0  0  0  0  0  0
   48.3340   36.3070   41.7700 H   0  0  0  0  0  0  0  0  0  0  0  0
   42.0010   35.1180   40.9700 O   0  0  0  0  0  0  0  0  0  0  0  0
   40.8130   34.4370   40.7790 C   0  0  0  0  0  0  0  0  0  0  0  0
   39.7610   35.1200   40.1920 C   0  0  0  0  0  0  0  0  0  0  0  0
   38.5330   34.5300   39.9570 C   0  0  0  0  0  0  0  0  0  0  0  0
   38.3680   33.2360   40.3210 N   0  0  0  0  0  0  0  0  0  0  0  0
   39.3850   32.5620   40.8940 C   0  0  0  0  0  0  0  0  0  0  0  0
   40.5590   33.1650   41.1050 N   0  0  0  0  0  0  0  0  0  0  0  0
   39.8630   36.1440   39.8930 H   0  0  0  0  0  0  0  0  0  0  0  0
   37.7280   35.0700   39.5010 H   0  0  0  0  0  0  0  0  0  0  0  0
   40.6710   31.3230   43.0730 N   0  0  0  0  0  0  0  0  0  0  0  0
   40.1490   30.5460   42.1640 C   0  0  0  0  0  0  0  0  0  0  0  0
   39.2230   31.1840   41.2860 N   0  0  0  0  0  0  0  0  0  0  0  0
   40.3670   29.1420   41.9160 N   0  0  0  0  0  0  0  0  0  0  0  0
   39.6320   28.4360   42.0370 H   0  0  0  0  0  0  0  0  0  0  0  0
   41.3520   31.0330   43.7840 H   0  0  0  0  0  0  0  0  0  0  0  0
   38.3870   30.6570   40.8980 H   0  0  0  0  0  0  0  0  0  0  0  0
   41.3520   28.9530   41.6020 H   0  0  0  0  0  0  0  0  0  0  0  0
  2  1  2  6  0  0  0
  2 21  1  0  0  0  0
  2  5  1  0  0  0  0
  2  3  1  0  0  0  0
  3  4  1  0  0  0  0
  5  7  1  0  0  0  0
  6  7  2  0  0  0  0
  6 11  1  0  0  0  0
  7  8  1  0  0  0  0
  8 12  1  0  0  0  0
  8  9  2  0  0  0  0
 10  9  1  0  0  0  0
 10 13  1  0  0  0  0
 11 10  2  0  0  0  0
 14 17  1  0  0  0  0
 14  6  1  0  0  0  0
 15 14  1  0  0  0  0
 16 14  1  0  0  0  0
 17 20  1  0  0  0  0
 17 18  1  0  0  0  0
 19 17  1  0  0  0  0
 22 21  1  0  0  0  0
 22 27  1  0  0  0  0
 23 22  2  0  0  0  0
 24 23  1  0  0  0  0
 24 25  2  0  0  0  0
 25 26  1  0  0  0  0
 26 27  2  0  0  0  0
 26 32  1  0  0  0  0
 28 23  1  0  0  0  0
 29 24  1  0  0  0  0
 30 35  1  0  0  0  0
 31 30  2  0  0  0  0
 32 31  1  0  0  0  0
 33 34  1  0  0  0  0
 33 31  1  0  0  0  0
 36 32  1  0  0  0  0
 37 33  1  0  0  0  0
M  END
>  <minimizedAffinity>
-5.43470097

>  <minimizedRMSD>
0.959456682

$$$$
