
 OpenBabel03252506283D

 46 49  0  0  0  0  0  0  0  0999 V2000
   46.9290   30.4990   48.1080 C   0  0  0  0  0  0  0  0  0  0  0  0
   47.2910   31.2390   48.8510 H   0  0  0  0  0  0  0  0  0  0  0  0
   47.5380   29.5980   48.1380 H   0  0  0  0  0  0  0  0  0  0  0  0
   46.6020   32.5310   45.1910 C   0  0  0  0  0  0  0  0  0  0  0  0
   47.4170   31.4730   44.7180 C   0  0  0  0  0  0  0  0  0  0  0  0
   47.6270   30.6130   45.7330 C   0  0  0  0  0  0  0  0  0  0  0  0
   46.9720   31.1120   46.7910 N   0  0  0  0  0  0  0  0  0  0  0  0
   46.3590   32.2540   46.4760 N   0  0  0  0  0  0  0  0  0  0  0  0
   47.8390   31.3190   43.7130 H   0  0  0  0  0  0  0  0  0  0  0  0
   48.2120   29.6840   45.7220 H   0  0  0  0  0  0  0  0  0  0  0  0
   44.8800   35.5770   44.1630 C   0  0  0  0  0  0  0  0  0  0  0  0
   45.3110   35.7880   42.8620 C   0  0  0  0  0  0  0  0  0  0  0  0
   46.2120   34.8560   42.3390 C   0  0  0  0  0  0  0  0  0  0  0  0
   46.5940   33.8300   43.1250 N   0  0  0  0  0  0  0  0  0  0  0  0
   46.1700   33.6440   44.3740 C   0  0  0  0  0  0  0  0  0  0  0  0
   45.2970   34.5400   44.8910 N   0  0  0  0  0  0  0  0  0  0  0  0
   44.1840   36.3100   44.5470 H   0  0  0  0  0  0  0  0  0  0  0  0
   45.0260   36.5980   42.2020 H   0  0  0  0  0  0  0  0  0  0  0  0
   48.8440   35.6570   41.6330 N   0  0  0  0  0  0  0  0  0  0  0  0
   48.1550   34.9910   40.7420 C   0  0  0  0  0  0  0  0  0  0  0  0
   46.7400   34.9470   41.0090 N   0  0  0  0  0  0  0  0  0  0  0  0
   48.5830   34.3020   39.5500 N   0  0  0  0  0  0  0  0  0  0  0  0
   49.4340   33.7330   39.7760 H   0  0  0  0  0  0  0  0  0  0  0  0
   49.8880   35.7720   41.5690 H   0  0  0  0  0  0  0  0  0  0  0  0
   46.0220   34.9820   40.2250 H   0  0  0  0  0  0  0  0  0  0  0  0
   47.9870   34.4840   38.6880 H   0  0  0  0  0  0  0  0  0  0  0  0
   45.5260   30.1620   48.4780 C   0  0  0  0  0  0  0  0  0  0  0  0
   45.4840   30.0000   49.5750 H   0  0  0  0  0  0  0  0  0  0  0  0
   44.9000   31.0780   48.2890 H   0  0  0  0  0  0  0  0  0  0  0  0
   44.9520   27.6770   48.2120 C   0  0  0  0  0  0  0  0  0  0  0  0
   44.9380   28.9930   47.8240 C   0  0  0  0  0  0  0  0  0  0  0  0
   44.2650   29.2750   46.6290 C   0  0  0  0  0  0  0  0  0  0  0  0
   43.6600   28.2950   45.8930 C   0  0  0  0  0  0  0  0  0  0  0  0
   42.9590   28.2750   44.7370 N   0  0  0  0  0  0  0  0  0  0  0  0
   42.5690   27.0250   44.4330 C   0  0  0  0  0  0  0  0  0  0  0  0
   43.0180   26.1680   45.4170 C   0  0  0  0  0  0  0  0  0  0  0  0
   43.6830   26.9910   46.2940 C   0  0  0  0  0  0  0  0  0  0  0  0
   44.3420   26.7030   47.4670 C   0  0  0  0  0  0  0  0  0  0  0  0
   45.4820   27.4980   49.1420 H   0  0  0  0  0  0  0  0  0  0  0  0
   44.1780   30.2680   46.2090 H   0  0  0  0  0  0  0  0  0  0  0  0
   42.7470   29.1160   44.1500 H   0  0  0  0  0  0  0  0  0  0  0  0
   41.9950   26.7570   43.5540 H   0  0  0  0  0  0  0  0  0  0  0  0
   42.8430   25.0970   45.4230 H   0  0  0  0  0  0  0  0  0  0  0  0
   44.3940   25.3160   47.9390 C   0  0  0  0  0  0  0  0  0  0  0  0
   45.0870   24.9880   48.9460 O   0  0  0  0  0  0  0  0  0  0  0  0
   43.8440   24.5300   47.4410 H   0  0  0  0  0  0  0  0  0  0  0  0
  1  3  1  0  0  0  0
  1 27  1  0  0  0  0
  1  2  1  0  0  0  0
  4  8  2  0  0  0  0
  5  4  1  0  0  0  0
  5  6  2  0  0  0  0
  6  7  1  0  0  0  0
  7  1  1  0  0  0  0
  8  7  1  0  0  0  0
  9  5  1  0  0  0  0
 10  6  1  0  0  0  0
 11 17  1  0  0  0  0
 11 16  1  0  0  0  0
 12 11  2  0  0  0  0
 13 12  1  0  0  0  0
 13 14  2  0  0  0  0
 14 15  1  0  0  0  0
 15 16  2  0  0  0  0
 15  4  1  0  0  0  0
 18 12  1  0  0  0  0
 20 21  1  0  0  0  0
 20 19  2  0  0  0  0
 21 13  1  0  0  0  0
 22 23  1  0  0  0  0
 22 20  1  0  0  0  0
 24 19  1  0  0  0  0
 25 21  1  0  0  0  0
 26 22  1  0  0  0  0
 27 28  1  0  0  0  0
 29 27  1  0  0  0  0
 30 39  1  0  0  0  0
 31 30  1  0  0  0  0
 31 27  1  0  0  0  0
 32 31  2  0  0  0  0
 33 37  2  0  0  0  0
 33 32  1  0  0  0  0
 34 33  1  0  0  0  0
 35 34  1  0  0  0  0
 35 36  2  0  0  0  0
 36 43  1  0  0  0  0
 36 37  1  0  0  0  0
 37 38  1  0  0  0  0
 38 44  1  0  0  0  0
 38 30  2  0  0  0  0
 40 32  1  0  0  0  0
 41 34  1  0  0  0  0
 42 35  1  0  0  0  0
 44 45  2  0  0  0  0
 46 44  1  0  0  0  0
M  END
>  <minimizedAffinity>
-5.66662121

>  <minimizedRMSD>
0.537463427

$$$$
