
 OpenBabel03242521213D

 35 37  0  0  0  0  0  0  0  0999 V2000
   41.6660   29.8330   37.0390 C   0  0  0  0  0  0  0  0  0  0  0  0
   40.9150   28.9110   36.3610 C   0  0  0  0  0  0  0  0  0  0  0  0
   41.2840   28.3860   35.1320 C   0  0  0  0  0  0  0  0  0  0  0  0
   42.4750   28.8260   34.5730 C   0  0  0  0  0  0  0  0  0  0  0  0
   43.2080   29.7490   35.2710 C   0  0  0  0  0  0  0  0  0  0  0  0
   42.8620   30.2810   36.4870 C   0  0  0  0  0  0  0  0  0  0  0  0
   39.9750   28.5440   36.7680 H   0  0  0  0  0  0  0  0  0  0  0  0
   40.6580   27.6630   34.6400 H   0  0  0  0  0  0  0  0  0  0  0  0
   42.7610   28.4160   33.6170 H   0  0  0  0  0  0  0  0  0  0  0  0
   44.1180   30.0480   34.7770 H   0  0  0  0  0  0  0  0  0  0  0  0
   41.2160   30.1660   40.6590 C   0  0  0  0  0  0  0  0  0  0  0  0
   40.3430   31.1900   40.7000 C   0  0  0  0  0  0  0  0  0  0  0  0
   39.8570   31.8210   39.5830 C   0  0  0  0  0  0  0  0  0  0  0  0
   40.3060   31.3570   38.4010 N   0  0  0  0  0  0  0  0  0  0  0  0
   41.1770   30.3350   38.3570 C   0  0  0  0  0  0  0  0  0  0  0  0
   41.6520   29.7180   39.4530 N   0  0  0  0  0  0  0  0  0  0  0  0
   40.0080   31.5340   41.6680 H   0  0  0  0  0  0  0  0  0  0  0  0
   39.1550   32.6440   39.6260 H   0  0  0  0  0  0  0  0  0  0  0  0
   41.2700   28.5120   43.9430 C   0  0  0  0  0  0  0  0  0  0  0  0
   42.6310   28.3150   44.1490 C   0  0  0  0  0  0  0  0  0  0  0  0
   43.5360   28.7420   43.1770 C   0  0  0  0  0  0  0  0  0  0  0  0
   43.0380   29.3420   42.0530 N   0  0  0  0  0  0  0  0  0  0  0  0
   41.7120   29.5200   41.8770 C   0  0  0  0  0  0  0  0  0  0  0  0
   40.8570   29.1120   42.8040 N   0  0  0  0  0  0  0  0  0  0  0  0
   40.5930   28.1730   44.7100 H   0  0  0  0  0  0  0  0  0  0  0  0
   43.0760   27.8540   45.0080 H   0  0  0  0  0  0  0  0  0  0  0  0
   44.6090   28.6570   43.1990 H   0  0  0  0  0  0  0  0  0  0  0  0
   44.6860   29.8870   38.7090 N   0  0  0  0  0  0  0  0  0  0  0  0
   44.7880   30.9450   37.9380 C   0  0  0  0  0  0  0  0  0  0  0  0
   43.6370   31.2430   37.1890 N   0  0  0  0  0  0  0  0  0  0  0  0
   45.9480   31.7950   37.8090 N   0  0  0  0  0  0  0  0  0  0  0  0
   45.7550   32.8100   37.6580 H   0  0  0  0  0  0  0  0  0  0  0  0
   45.5050   29.6190   39.2860 H   0  0  0  0  0  0  0  0  0  0  0  0
   43.3260   32.2590   37.1380 H   0  0  0  0  0  0  0  0  0  0  0  0
   46.8350   31.2140   37.8920 H   0  0  0  0  0  0  0  0  0  0  0  0
  1 15  1  0  0  0  0
  2  7  1  0  0  0  0
  2  1  2  0  0  0  0
  3  2  1  0  0  0  0
  4  3  2  0  0  0  0
  4  5  1  0  0  0  0
  5  6  2  0  0  0  0
  6  1  1  0  0  0  0
  6 30  1  0  0  0  0
  8  3  1  0  0  0  0
  9  4  1  0  0  0  0
 10  5  1  0  0  0  0
 11 12  1  0  0  0  0
 11 23  1  0  0  0  0
 12 17  1  0  0  0  0
 13 18  1  0  0  0  0
 13 12  2  0  0  0  0
 14 13  1  0  0  0  0
 15 14  2  0  0  0  0
 15 16  1  0  0  0  0
 16 11  2  0  0  0  0
 19 20  1  0  0  0  0
 19 25  1  0  0  0  0
 20 26  1  0  0  0  0
 21 27  1  0  0  0  0
 21 20  2  0  0  0  0
 22 21  1  0  0  0  0
 23 22  2  0  0  0  0
 23 24  1  0  0  0  0
 24 19  2  0  0  0  0
 28 33  1  0  0  0  0
 29 28  2  0  0  0  0
 30 29  1  0  0  0  0
 31 35  1  0  0  0  0
 31 29  1  0  0  0  0
 32 31  1  0  0  0  0
 34 30  1  0  0  0  0
M  END
>  <minimizedAffinity>
-2.29995966

>  <minimizedRMSD>
8.38064098

$$$$
