
 OpenBabel03252500563D

 37 38  0  0  0  0  0  0  0  0999 V2000
   43.5520   33.2430   39.3800 O   0  0  0  0  0  0  0  0  0  0  0  0
   43.0090   34.1840   40.4490 P   0  0  1  0  0  0  0  0  0  0  0  0
   42.3640   33.2630   41.7080 O   0  0  0  0  0  0  0  0  0  0  0  0
   41.4430   33.4810   41.9410 H   0  0  0  0  0  0  0  0  0  0  0  0
   44.2850   35.1050   41.0740 O   0  0  0  0  0  0  0  0  0  0  0  0
   46.3590   34.3100   41.8670 C   0  0  0  0  0  0  0  0  0  0  0  0
   45.0880   34.7640   42.1570 C   0  0  0  0  0  0  0  0  0  0  0  0
   44.7120   34.8450   43.5040 C   0  0  0  0  0  0  0  0  0  0  0  0
   45.6190   34.4740   44.4360 N   0  0  0  0  0  0  0  0  0  0  0  0
   46.8440   34.0370   44.1320 C   0  0  0  0  0  0  0  0  0  0  0  0
   47.2150   33.9550   42.8450 N   0  0  0  0  0  0  0  0  0  0  0  0
   43.7220   35.2030   43.6570 H   0  0  0  0  0  0  0  0  0  0  0  0
   47.5180   33.7550   44.9380 H   0  0  0  0  0  0  0  0  0  0  0  0
   46.8200   34.1980   40.4840 C   0  0  0  0  0  0  0  0  0  0  0  0
   46.8230   33.1520   40.0920 H   0  0  0  0  0  0  0  0  0  0  0  0
   46.1480   34.7730   39.8080 H   0  0  0  0  0  0  0  0  0  0  0  0
   48.2140   34.7540   40.3810 C   0  0  0  0  0  0  0  0  0  0  0  0
   48.8550   34.1790   41.0900 H   0  0  0  0  0  0  0  0  0  0  0  0
   48.6200   34.7030   39.3510 H   0  0  0  0  0  0  0  0  0  0  0  0
   48.1950   35.7960   40.7560 H   0  0  0  0  0  0  0  0  0  0  0  0
   41.7560   35.1360   39.8120 O   0  0  0  0  0  0  0  0  0  0  0  0
   40.5470   34.5250   39.5340 C   0  0  0  0  0  0  0  0  0  0  0  0
   40.0430   34.6410   38.2490 C   0  0  0  0  0  0  0  0  0  0  0  0
   38.8430   34.0680   37.8690 C   0  0  0  0  0  0  0  0  0  0  0  0
   38.1480   33.3720   38.7990 N   0  0  0  0  0  0  0  0  0  0  0  0
   38.6290   33.2530   40.0520 C   0  0  0  0  0  0  0  0  0  0  0  0
   39.7920   33.8210   40.3840 N   0  0  0  0  0  0  0  0  0  0  0  0
   40.5720   35.1850   37.4920 H   0  0  0  0  0  0  0  0  0  0  0  0
   38.4650   34.1650   36.8720 H   0  0  0  0  0  0  0  0  0  0  0  0
   38.9510   30.5120   40.6210 N   0  0  0  0  0  0  0  0  0  0  0  0
   37.8620   31.0890   41.0500 C   0  0  0  0  0  0  0  0  0  0  0  0
   37.8980   32.5150   41.0530 N   0  0  0  0  0  0  0  0  0  0  0  0
   36.6310   30.5020   41.5180 N   0  0  0  0  0  0  0  0  0  0  0  0
   36.3070   30.5940   42.4880 H   0  0  0  0  0  0  0  0  0  0  0  0
   39.1000   29.4990   40.5510 H   0  0  0  0  0  0  0  0  0  0  0  0
   37.3850   33.0720   41.7980 H   0  0  0  0  0  0  0  0  0  0  0  0
   36.1320   29.9850   40.7510 H   0  0  0  0  0  0  0  0  0  0  0  0
  2  1  2  6  0  0  0
  2  5  1  0  0  0  0
  2  3  1  0  0  0  0
  3  4  1  0  0  0  0
  5  7  1  0  0  0  0
  6  7  2  0  0  0  0
  6 11  1  0  0  0  0
  7  8  1  0  0  0  0
  8 12  1  0  0  0  0
  8  9  2  0  0  0  0
 10  9  1  0  0  0  0
 10 13  1  0  0  0  0
 11 10  2  0  0  0  0
 14  6  1  0  0  0  0
 15 14  1  0  0  0  0
 16 14  1  0  0  0  0
 17 14  1  0  0  0  0
 17 20  1  0  0  0  0
 17 18  1  0  0  0  0
 19 17  1  0  0  0  0
 21  2  1  0  0  0  0
 22 21  1  0  0  0  0
 22 27  1  0  0  0  0
 23 22  2  0  0  0  0
 24 23  1  0  0  0  0
 24 25  2  0  0  0  0
 25 26  1  0  0  0  0
 26 27  2  0  0  0  0
 26 32  1  0  0  0  0
 28 23  1  0  0  0  0
 29 24  1  0  0  0  0
 30 31  2  0  0  0  0
 31 32  1  0  0  0  0
 31 33  1  0  0  0  0
 32 36  1  0  0  0  0
 33 34  1  0  0  0  0
 35 30  1  0  0  0  0
 37 33  1  0  0  0  0
M  END
>  <minimizedAffinity>
-6.46356297

>  <minimizedRMSD>
1.43175292

$$$$
