
 OpenBabel03252509193D

 42 44  0  0  1  0  0  0  0  0999 V2000
   48.1330   29.1270   47.9290 C   0  0  1  0  0  0  0  0  0  0  0  0
   48.0100   28.1260   46.8470 C   0  0  0  0  0  0  0  0  0  0  0  0
   49.2820   27.3790   46.5420 C   0  0  0  0  0  0  0  0  0  0  0  0
   50.0270   26.9330   47.7650 C   0  0  0  0  0  0  0  0  0  0  0  0
   50.0600   27.9840   48.8440 C   0  0  0  0  0  0  0  0  0  0  0  0
   49.6270   29.3350   48.2650 C   0  0  2  0  0  0  0  0  0  0  0  0
   47.7100   28.7120   48.8800 H   0  0  0  0  0  0  0  0  0  0  0  0
   47.6550   28.5890   45.9190 H   0  0  0  0  0  0  0  0  0  0  0  0
   47.2540   27.3560   47.1210 H   0  0  0  0  0  0  0  0  0  0  0  0
   48.9960   26.4690   45.9900 H   0  0  0  0  0  0  0  0  0  0  0  0
   49.8900   28.0320   45.8820 H   0  0  0  0  0  0  0  0  0  0  0  0
   51.0830   26.7510   47.4610 H   0  0  0  0  0  0  0  0  0  0  0  0
   49.6340   25.9600   48.1400 H   0  0  0  0  0  0  0  0  0  0  0  0
   51.0110   28.0520   49.3910 H   0  0  0  0  0  0  0  0  0  0  0  0
   49.2340   27.7040   49.5550 H   0  0  0  0  0  0  0  0  0  0  0  0
   50.1920   29.5580   47.3350 H   0  0  0  0  0  0  0  0  0  0  0  0
   49.7690   30.3690   49.2890 C   0  0  0  0  0  0  0  0  0  0  0  0
   48.9460   30.5060   50.2220 O   0  0  0  0  0  0  0  0  0  0  0  0
   52.5250   30.6570   48.1210 N   0  0  0  0  0  0  0  0  0  0  0  0
   52.0090   31.4480   48.9120 C   0  0  0  0  0  0  0  0  0  0  0  0
   50.7340   31.3620   49.4890 N   0  0  0  0  0  0  0  0  0  0  0  0
   52.9070   32.5440   49.2060 N   0  0  0  0  0  0  0  0  0  0  0  0
   53.2020   33.2980   48.5370 H   0  0  0  0  0  0  0  0  0  0  0  0
   52.2240   29.8130   47.6990 H   0  0  0  0  0  0  0  0  0  0  0  0
   50.5140   32.1450   50.1120 H   0  0  0  0  0  0  0  0  0  0  0  0
   53.3240   32.6360   50.1520 H   0  0  0  0  0  0  0  0  0  0  0  0
   46.4010   32.5050   46.4080 C   0  0  0  0  0  0  0  0  0  0  0  0
   46.2300   32.3980   47.7860 C   0  0  0  0  0  0  0  0  0  0  0  0
   46.7480   31.3330   48.3990 C   0  0  0  0  0  0  0  0  0  0  0  0
   47.4480   30.3480   47.6630 C   0  0  0  0  0  0  0  0  0  0  0  0
   47.3600   30.9900   45.9610 S   0  0  0  0  0  0  0  0  0  0  0  0
   45.6950   33.1540   48.3420 H   0  0  0  0  0  0  0  0  0  0  0  0
   46.7170   31.0780   49.4430 H   0  0  0  0  0  0  0  0  0  0  0  0
   44.6320   35.4750   45.0320 C   0  0  0  0  0  0  0  0  0  0  0  0
   45.2260   35.5640   43.7750 C   0  0  0  0  0  0  0  0  0  0  0  0
   46.2000   34.6160   43.4390 C   0  0  0  0  0  0  0  0  0  0  0  0
   46.5150   33.6500   44.3710 N   0  0  0  0  0  0  0  0  0  0  0  0
   45.9110   33.6140   45.5680 C   0  0  0  0  0  0  0  0  0  0  0  0
   44.9620   34.5330   45.9020 N   0  0  0  0  0  0  0  0  0  0  0  0
   43.8830   36.1590   45.3650 H   0  0  0  0  0  0  0  0  0  0  0  0
   44.9500   36.3270   43.0890 H   0  0  0  0  0  0  0  0  0  0  0  0
   46.7020   34.6150   42.4940 H   0  0  0  0  0  0  0  0  0  0  0  0
  1  6  1  0  0  0  0
  1  7  1  1  0  0  0
  2  9  1  0  0  0  0
  2  1  1  0  0  0  0
  3  2  1  0  0  0  0
  3  4  1  0  0  0  0
  4 13  1  0  0  0  0
  4  5  1  0  0  0  0
  5 14  1  0  0  0  0
  5 15  1  0  0  0  0
  6 16  1  6  0  0  0
  6  5  1  0  0  0  0
  6 17  1  0  0  0  0
  8  2  1  0  0  0  0
 10  3  1  0  0  0  0
 11  3  1  0  0  0  0
 12  4  1  0  0  0  0
 17 21  1  0  0  0  0
 17 18  2  0  0  0  0
 19 20  2  0  0  0  0
 20 22  1  0  0  0  0
 20 21  1  0  0  0  0
 21 25  1  0  0  0  0
 22 26  1  0  0  0  0
 23 22  1  0  0  0  0
 24 19  1  0  0  0  0
 27 28  2  0  0  0  0
 28 32  1  0  0  0  0
 28 29  1  0  0  0  0
 29 33  1  0  0  0  0
 30  1  1  0  0  0  0
 30 29  2  0  0  0  0
 31 27  1  0  0  0  0
 31 30  1  0  0  0  0
 34 40  1  0  0  0  0
 34 39  1  0  0  0  0
 35 34  2  0  0  0  0
 36 35  1  0  0  0  0
 36 37  2  0  0  0  0
 37 38  1  0  0  0  0
 38 39  2  0  0  0  0
 38 27  1  0  0  0  0
 41 35  1  0  0  0  0
 42 36  1  0  0  0  0
M  END
>  <minimizedAffinity>
-5.18438768

>  <minimizedRMSD>
2.03081274

$$$$
