
 OpenBabel03242512273D

 21 21  0  0  0  0  0  0  0  0999 V2000
   45.0770   34.9480   44.3660 C   0  0  0  0  0  0  0  0  0  0  0  0
   46.0940   34.6540   43.4510 C   0  0  0  0  0  0  0  0  0  0  0  0
   47.0500   33.6990   43.8200 C   0  0  0  0  0  0  0  0  0  0  0  0
   46.9300   33.1240   45.0310 N   0  0  0  0  0  0  0  0  0  0  0  0
   45.9430   33.4280   45.8860 C   0  0  0  0  0  0  0  0  0  0  0  0
   45.0150   34.3360   45.5630 N   0  0  0  0  0  0  0  0  0  0  0  0
   44.0900   35.9200   44.0090 N   0  0  0  0  0  0  0  0  0  0  0  0
   46.1600   35.1300   42.4950 H   0  0  0  0  0  0  0  0  0  0  0  0
   47.8670   33.4190   43.1630 H   0  0  0  0  0  0  0  0  0  0  0  0
   43.0640   35.8770   44.1960 H   0  0  0  0  0  0  0  0  0  0  0  0
   44.4510   36.7540   43.5130 H   0  0  0  0  0  0  0  0  0  0  0  0
   45.8410   32.7880   47.1910 C   0  0  0  0  0  0  0  0  0  0  0  0
   44.8480   32.9480   47.9570 O   0  0  0  0  0  0  0  0  0  0  0  0
   45.8620   31.4700   49.6330 N   0  0  0  0  0  0  0  0  0  0  0  0
   46.9040   31.2780   48.8760 C   0  0  0  0  0  0  0  0  0  0  0  0
   46.9170   31.9450   47.6180 N   0  0  0  0  0  0  0  0  0  0  0  0
   48.0480   30.4650   49.1710 N   0  0  0  0  0  0  0  0  0  0  0  0
   47.8090   29.5730   48.6560 H   0  0  0  0  0  0  0  0  0  0  0  0
   45.8000   31.0000   50.5780 H   0  0  0  0  0  0  0  0  0  0  0  0
   47.7420   31.8250   46.9580 H   0  0  0  0  0  0  0  0  0  0  0  0
   48.9130   30.6310   49.7270 H   0  0  0  0  0  0  0  0  0  0  0  0
  1  6  1  0  0  0  0
  2  3  1  0  0  0  0
  2  1  2  0  0  0  0
  3  4  2  0  0  0  0
  4  5  1  0  0  0  0
  5 12  1  0  0  0  0
  6  5  2  0  0  0  0
  7 10  1  0  0  0  0
  7  1  1  0  0  0  0
  8  2  1  0  0  0  0
  9  3  1  0  0  0  0
 11  7  1  0  0  0  0
 12 16  1  0  0  0  0
 12 13  2  0  0  0  0
 14 19  1  0  0  0  0
 15 17  1  0  0  0  0
 15 14  2  0  0  0  0
 16 15  1  0  0  0  0
 17 21  1  0  0  0  0
 18 17  1  0  0  0  0
 20 16  1  0  0  0  0
M  END
>  <minimizedAffinity>
-5.13748217

>  <minimizedRMSD>
0.813711762

$$$$
