
 OpenBabel03242523553D

 44 46  0  0  1  0  0  0  0  0999 V2000
   42.8140   34.5320   38.7380 C   0  0  1  0  0  0  0  0  0  0  0  0
   42.9500   35.1770   40.1080 C   0  0  1  0  0  0  0  0  0  0  0  0
   41.6510   35.3730   40.6310 O   0  0  0  0  0  0  0  0  0  0  0  0
   40.7210   35.7200   39.6430 C   0  0  0  0  0  0  0  0  0  0  0  0
   40.4350   34.5590   38.7120 C   0  0  2  0  0  0  0  0  0  0  0  0
   41.6590   33.5950   38.8320 C   0  0  1  0  0  0  0  0  0  0  0  0
   43.7690   34.0060   38.5390 H   0  0  0  0  0  0  0  0  0  0  0  0
   43.5090   36.1210   40.0900 H   0  0  0  0  0  0  0  0  0  0  0  0
   39.7980   35.9530   40.1720 H   0  0  0  0  0  0  0  0  0  0  0  0
   41.0050   36.6430   39.0970 H   0  0  0  0  0  0  0  0  0  0  0  0
   39.5030   34.0270   38.9860 H   0  0  0  0  0  0  0  0  0  0  0  0
   41.4490   33.2930   39.9130 H   0  0  0  0  0  0  0  0  0  0  0  0
   42.5870   35.5120   37.7520 O   0  0  0  0  0  0  0  0  0  0  0  0
   43.4330   35.6660   37.3010 H   0  0  0  0  0  0  0  0  0  0  0  0
   40.4480   34.9990   37.3970 O   0  0  0  0  0  0  0  0  0  0  0  0
   39.7320   34.5230   36.8880 H   0  0  0  0  0  0  0  0  0  0  0  0
   43.4960   34.1840   40.9310 O   0  0  0  0  0  0  0  0  0  0  0  0
   44.5970   34.3270   41.6800 C   0  0  0  0  0  0  0  0  0  0  0  0
   45.8580   34.4330   41.0950 C   0  0  0  0  0  0  0  0  0  0  0  0
   46.9710   34.5800   41.8970 C   0  0  0  0  0  0  0  0  0  0  0  0
   46.8000   34.6190   43.2720 N   0  0  0  0  0  0  0  0  0  0  0  0
   45.5640   34.5130   43.8090 C   0  0  0  0  0  0  0  0  0  0  0  0
   44.4710   34.3690   43.0170 N   0  0  0  0  0  0  0  0  0  0  0  0
   45.9640   34.4000   40.0190 H   0  0  0  0  0  0  0  0  0  0  0  0
   45.4290   34.5430   44.8900 H   0  0  0  0  0  0  0  0  0  0  0  0
   48.3550   34.6800   41.3330 C   0  0  0  0  0  0  0  0  0  0  0  0
   49.0690   36.0180   41.5090 C   0  0  0  0  0  0  0  0  0  0  0  0
   49.4980   34.7050   42.1940 C   0  0  0  0  0  0  0  0  0  0  0  0
   48.4000   34.2860   40.2950 H   0  0  0  0  0  0  0  0  0  0  0  0
   48.5550   36.7790   42.0960 H   0  0  0  0  0  0  0  0  0  0  0  0
   49.6950   36.3520   40.6850 H   0  0  0  0  0  0  0  0  0  0  0  0
   49.3480   34.7450   43.2990 H   0  0  0  0  0  0  0  0  0  0  0  0
   50.4910   34.2860   41.9370 H   0  0  0  0  0  0  0  0  0  0  0  0
   41.5450   32.6630   37.8640 O   0  0  0  0  0  0  0  0  0  0  0  0
   40.9230   31.4880   37.8240 C   0  0  0  0  0  0  0  0  0  0  0  0
   39.6330   31.3920   37.5240 O   0  0  0  0  0  0  0  0  0  0  0  0
   40.3910   28.9850   36.2300 N   0  0  0  0  0  0  0  0  0  0  0  0
   41.0960   29.0430   37.2340 C   0  0  0  0  0  0  0  0  0  0  0  0
   41.4180   30.1290   38.0630 N   0  0  0  0  0  0  0  0  0  0  0  0
   41.6390   27.7410   37.5360 N   0  0  0  0  0  0  0  0  0  0  0  0
   42.6420   27.5140   37.7120 H   0  0  0  0  0  0  0  0  0  0  0  0
   39.8550   29.6340   35.7090 H   0  0  0  0  0  0  0  0  0  0  0  0
   42.0430   29.9340   38.8600 H   0  0  0  0  0  0  0  0  0  0  0  0
   41.1640   26.8180   37.6340 H   0  0  0  0  0  0  0  0  0  0  0  0
  1  7  1  6  0  0  0
  1  6  1  0  0  0  0
  1  2  1  0  0  0  0
  2  8  1  6  0  0  0
  2  3  1  0  0  0  0
  2 17  1  0  0  0  0
  4  9  1  0  0  0  0
  4  3  1  0  0  0  0
  5  6  1  0  0  0  0
  5 11  1  1  0  0  0
  5  4  1  0  0  0  0
  6 12  1  1  0  0  0
 10  4  1  0  0  0  0
 13  1  1  0  0  0  0
 14 13  1  0  0  0  0
 15  5  1  0  0  0  0
 16 15  1  0  0  0  0
 17 18  1  0  0  0  0
 18 23  1  0  0  0  0
 19 18  2  0  0  0  0
 19 20  1  0  0  0  0
 20 21  2  0  0  0  0
 21 22  1  0  0  0  0
 22 25  1  0  0  0  0
 23 22  2  0  0  0  0
 24 19  1  0  0  0  0
 26 27  1  0  0  0  0
 26 20  1  0  0  0  0
 26 28  1  0  0  0  0
 27 30  1  0  0  0  0
 27 28  1  0  0  0  0
 28 32  1  0  0  0  0
 29 26  1  0  0  0  0
 31 27  1  0  0  0  0
 33 28  1  0  0  0  0
 34  6  1  0  0  0  0
 35 34  1  0  0  0  0
 35 39  1  0  0  0  0
 36 35  2  0  0  0  0
 37 38  2  0  0  0  0
 38 40  1  0  0  0  0
 38 39  1  0  0  0  0
 39 43  1  0  0  0  0
 40 44  1  0  0  0  0
 40 41  1  0  0  0  0
 42 37  1  0  0  0  0
M  END
>  <minimizedAffinity>
-5.8559432

>  <minimizedRMSD>
0.123991475

$$$$
