
 OpenBabel03242523173D

 26 27  0  0  0  0  0  0  0  0999 V2000
   45.8390   34.6560   44.1530 C   0  0  0  0  0  0  0  0  0  0  0  0
   46.8420   33.9030   43.6370 C   0  0  0  0  0  0  0  0  0  0  0  0
   47.2600   32.8400   44.4140 C   0  0  0  0  0  0  0  0  0  0  0  0
   46.6270   32.6390   45.6390 N   0  0  0  0  0  0  0  0  0  0  0  0
   45.6550   33.4030   46.0970 C   0  0  0  0  0  0  0  0  0  0  0  0
   45.2200   34.4650   45.3470 N   0  0  0  0  0  0  0  0  0  0  0  0
   48.0530   32.1750   44.0970 H   0  0  0  0  0  0  0  0  0  0  0  0
   45.2990   33.0790   47.0670 H   0  0  0  0  0  0  0  0  0  0  0  0
   45.1380   35.7540   43.5080 C   0  0  0  0  0  0  0  0  0  0  0  0
   45.1200   36.9290   43.1730 O   0  0  0  0  0  0  0  0  0  0  0  0
   44.3010   34.9120   40.6690 N   0  0  0  0  0  0  0  0  0  0  0  0
   43.6390   34.7900   41.7310 C   0  0  0  0  0  0  0  0  0  0  0  0
   43.8930   35.1260   43.0810 N   0  0  0  0  0  0  0  0  0  0  0  0
   42.4800   34.1700   41.1280 N   0  0  0  0  0  0  0  0  0  0  0  0
   42.1540   33.1630   41.1540 H   0  0  0  0  0  0  0  0  0  0  0  0
   45.2180   35.2970   40.5040 H   0  0  0  0  0  0  0  0  0  0  0  0
   43.0080   34.8130   43.5890 H   0  0  0  0  0  0  0  0  0  0  0  0
   41.7220   34.5950   40.5370 H   0  0  0  0  0  0  0  0  0  0  0  0
   47.5210   34.1570   42.4220 C   0  0  0  0  0  0  0  0  0  0  0  0
   47.9540   35.3150   41.8650 C   0  0  0  0  0  0  0  0  0  0  0  0
   49.0770   34.4630   42.4560 C   0  0  0  0  0  0  0  0  0  0  0  0
   47.5910   33.1380   41.8360 H   0  0  0  0  0  0  0  0  0  0  0  0
   48.0910   35.4640   40.7590 H   0  0  0  0  0  0  0  0  0  0  0  0
   47.8540   36.3130   42.3720 H   0  0  0  0  0  0  0  0  0  0  0  0
   49.4630   34.7040   43.4670 H   0  0  0  0  0  0  0  0  0  0  0  0
   49.7450   33.9430   41.7950 H   0  0  0  0  0  0  0  0  0  0  0  0
  1  6  1  0  0  0  0
  2  1  2  0  0  0  0
  2  3  1  0  0  0  0
  3  4  2  0  0  0  0
  4  5  1  0  0  0  0
  5  8  1  0  0  0  0
  6  5  2  0  0  0  0
  7  3  1  0  0  0  0
  9  1  1  0  0  0  0
 10  9  2  0  0  0  0
 11 12  2  0  0  0  0
 12 13  1  0  0  0  0
 13  9  1  0  0  0  0
 13 17  1  0  0  0  0
 14 15  1  0  0  0  0
 14 12  1  0  0  0  0
 16 11  1  0  0  0  0
 18 14  1  0  0  0  0
 19 21  1  0  0  0  0
 19  2  1  0  0  0  0
 20 24  1  0  0  0  0
 20 19  1  0  0  0  0
 20 21  1  0  0  0  0
 21 25  1  0  0  0  0
 22 19  1  0  0  0  0
 23 20  1  0  0  0  0
 26 21  1  0  0  0  0
M  END
>  <minimizedAffinity>
-4.99543285

>  <minimizedRMSD>
1.52878952

$$$$
