
 OpenBabel03242512283D

 21 21  0  0  0  0  0  0  0  0999 V2000
   45.0820   34.9700   44.3530 C   0  0  0  0  0  0  0  0  0  0  0  0
   46.1270   34.7140   43.4590 C   0  0  0  0  0  0  0  0  0  0  0  0
   47.0760   33.7480   43.8190 C   0  0  0  0  0  0  0  0  0  0  0  0
   46.9230   33.1270   45.0030 N   0  0  0  0  0  0  0  0  0  0  0  0
   45.9090   33.3950   45.8390 C   0  0  0  0  0  0  0  0  0  0  0  0
   44.9880   34.3130   45.5230 N   0  0  0  0  0  0  0  0  0  0  0  0
   44.1030   35.9520   44.0050 N   0  0  0  0  0  0  0  0  0  0  0  0
   46.2190   35.2260   42.5240 H   0  0  0  0  0  0  0  0  0  0  0  0
   47.9120   33.4960   43.1760 H   0  0  0  0  0  0  0  0  0  0  0  0
   43.0720   35.8990   44.1590 H   0  0  0  0  0  0  0  0  0  0  0  0
   44.4740   36.8060   43.5520 H   0  0  0  0  0  0  0  0  0  0  0  0
   45.7720   32.7060   47.1150 C   0  0  0  0  0  0  0  0  0  0  0  0
   44.7830   32.8800   47.8850 O   0  0  0  0  0  0  0  0  0  0  0  0
   46.0500   31.7490   49.7040 N   0  0  0  0  0  0  0  0  0  0  0  0
   46.9250   31.3180   48.8430 C   0  0  0  0  0  0  0  0  0  0  0  0
   46.8040   31.7940   47.5080 N   0  0  0  0  0  0  0  0  0  0  0  0
   48.0070   30.4080   49.0920 N   0  0  0  0  0  0  0  0  0  0  0  0
   47.5900   29.4920   48.7660 H   0  0  0  0  0  0  0  0  0  0  0  0
   46.0930   31.4270   50.7110 H   0  0  0  0  0  0  0  0  0  0  0  0
   47.4910   31.4750   46.7610 H   0  0  0  0  0  0  0  0  0  0  0  0
   48.9640   30.5320   49.4810 H   0  0  0  0  0  0  0  0  0  0  0  0
  1  6  1  0  0  0  0
  2  3  1  0  0  0  0
  2  1  2  0  0  0  0
  3  4  2  0  0  0  0
  4  5  1  0  0  0  0
  5 12  1  0  0  0  0
  6  5  2  0  0  0  0
  7 10  1  0  0  0  0
  7  1  1  0  0  0  0
  8  2  1  0  0  0  0
  9  3  1  0  0  0  0
 11  7  1  0  0  0  0
 12 16  1  0  0  0  0
 12 13  2  0  0  0  0
 14 19  1  0  0  0  0
 15 17  1  0  0  0  0
 15 14  2  0  0  0  0
 16 15  1  0  0  0  0
 17 21  1  0  0  0  0
 18 17  1  0  0  0  0
 20 16  1  0  0  0  0
M  END
>  <minimizedAffinity>
-5.0608592

>  <minimizedRMSD>
0.814965427

$$$$
