
 OpenBabel03242512283D

 21 21  0  0  0  0  0  0  0  0999 V2000
   44.9150   35.0130   44.5240 C   0  0  0  0  0  0  0  0  0  0  0  0
   45.8650   34.8030   43.5180 C   0  0  0  0  0  0  0  0  0  0  0  0
   46.8940   33.8870   43.7700 C   0  0  0  0  0  0  0  0  0  0  0  0
   46.9050   33.2660   44.9640 N   0  0  0  0  0  0  0  0  0  0  0  0
   45.9800   33.4900   45.9080 C   0  0  0  0  0  0  0  0  0  0  0  0
   44.9850   34.3590   45.6970 N   0  0  0  0  0  0  0  0  0  0  0  0
   43.8560   35.9450   44.2870 N   0  0  0  0  0  0  0  0  0  0  0  0
   45.8270   35.3140   42.5790 H   0  0  0  0  0  0  0  0  0  0  0  0
   47.6650   33.6730   43.0380 H   0  0  0  0  0  0  0  0  0  0  0  0
   42.8530   35.8420   44.5560 H   0  0  0  0  0  0  0  0  0  0  0  0
   44.1320   36.8130   43.7950 H   0  0  0  0  0  0  0  0  0  0  0  0
   46.0190   32.8020   47.1920 C   0  0  0  0  0  0  0  0  0  0  0  0
   45.0020   32.6710   47.9310 O   0  0  0  0  0  0  0  0  0  0  0  0
   46.5870   30.0870   47.1360 N   0  0  0  0  0  0  0  0  0  0  0  0
   47.5360   30.8550   47.5890 C   0  0  0  0  0  0  0  0  0  0  0  0
   47.2680   32.2530   47.6280 N   0  0  0  0  0  0  0  0  0  0  0  0
   48.8300   30.4480   48.0570 N   0  0  0  0  0  0  0  0  0  0  0  0
   49.4270   30.6220   47.2010 H   0  0  0  0  0  0  0  0  0  0  0  0
   46.7330   29.0400   47.0840 H   0  0  0  0  0  0  0  0  0  0  0  0
   48.0050   32.9290   47.9890 H   0  0  0  0  0  0  0  0  0  0  0  0
   49.1710   30.0740   48.9670 H   0  0  0  0  0  0  0  0  0  0  0  0
  1  6  1  0  0  0  0
  2  3  1  0  0  0  0
  2  1  2  0  0  0  0
  3  4  2  0  0  0  0
  4  5  1  0  0  0  0
  5 12  1  0  0  0  0
  6  5  2  0  0  0  0
  7  1  1  0  0  0  0
  7 10  1  0  0  0  0
  8  2  1  0  0  0  0
  9  3  1  0  0  0  0
 11  7  1  0  0  0  0
 12 16  1  0  0  0  0
 12 13  2  0  0  0  0
 14 15  2  0  0  0  0
 15 16  1  0  0  0  0
 15 17  1  0  0  0  0
 16 20  1  0  0  0  0
 17 21  1  0  0  0  0
 18 17  1  0  0  0  0
 19 14  1  0  0  0  0
M  END
>  <minimizedAffinity>
-4.49243498

>  <minimizedRMSD>
0.622184873

$$$$
