
 OpenBabel03242523173D

 26 27  0  0  0  0  0  0  0  0999 V2000
   45.8720   34.6370   44.1310 C   0  0  0  0  0  0  0  0  0  0  0  0
   46.9010   33.8890   43.6620 C   0  0  0  0  0  0  0  0  0  0  0  0
   47.3070   32.8450   44.4710 C   0  0  0  0  0  0  0  0  0  0  0  0
   46.6350   32.6570   45.6770 N   0  0  0  0  0  0  0  0  0  0  0  0
   45.6390   33.4140   46.0900 C   0  0  0  0  0  0  0  0  0  0  0  0
   45.2150   34.4580   45.3070 N   0  0  0  0  0  0  0  0  0  0  0  0
   48.1180   32.1860   44.1920 H   0  0  0  0  0  0  0  0  0  0  0  0
   45.2540   33.1030   47.0520 H   0  0  0  0  0  0  0  0  0  0  0  0
   45.1780   35.7150   43.4440 C   0  0  0  0  0  0  0  0  0  0  0  0
   45.0800   36.9100   43.2070 O   0  0  0  0  0  0  0  0  0  0  0  0
   44.6030   32.6920   43.3930 N   0  0  0  0  0  0  0  0  0  0  0  0
   43.9810   33.6010   42.7880 C   0  0  0  0  0  0  0  0  0  0  0  0
   44.1310   35.0050   42.7200 N   0  0  0  0  0  0  0  0  0  0  0  0
   43.0150   32.7360   42.1490 N   0  0  0  0  0  0  0  0  0  0  0  0
   41.9890   32.5810   42.3630 H   0  0  0  0  0  0  0  0  0  0  0  0
   45.4000   32.7360   44.0070 H   0  0  0  0  0  0  0  0  0  0  0  0
   43.3450   35.3120   42.0650 H   0  0  0  0  0  0  0  0  0  0  0  0
   43.1340   32.0810   41.3350 H   0  0  0  0  0  0  0  0  0  0  0  0
   47.6170   34.1320   42.4660 C   0  0  0  0  0  0  0  0  0  0  0  0
   47.9650   35.2890   41.8520 C   0  0  0  0  0  0  0  0  0  0  0  0
   49.1320   34.5940   42.5530 C   0  0  0  0  0  0  0  0  0  0  0  0
   47.8160   33.0900   41.9550 H   0  0  0  0  0  0  0  0  0  0  0  0
   48.1480   35.3810   40.7460 H   0  0  0  0  0  0  0  0  0  0  0  0
   47.7430   36.3030   42.2840 H   0  0  0  0  0  0  0  0  0  0  0  0
   49.4380   34.9360   43.5620 H   0  0  0  0  0  0  0  0  0  0  0  0
   49.8810   34.1020   41.9620 H   0  0  0  0  0  0  0  0  0  0  0  0
  1  6  1  0  0  0  0
  2  1  2  0  0  0  0
  2  3  1  0  0  0  0
  3  4  2  0  0  0  0
  4  5  1  0  0  0  0
  5  8  1  0  0  0  0
  6  5  2  0  0  0  0
  7  3  1  0  0  0  0
  9  1  1  0  0  0  0
 10  9  2  0  0  0  0
 11 16  1  0  0  0  0
 12 11  2  0  0  0  0
 13 12  1  0  0  0  0
 13  9  1  0  0  0  0
 14 15  1  0  0  0  0
 14 12  1  0  0  0  0
 17 13  1  0  0  0  0
 18 14  1  0  0  0  0
 19 21  1  0  0  0  0
 19  2  1  0  0  0  0
 20 24  1  0  0  0  0
 20 19  1  0  0  0  0
 20 21  1  0  0  0  0
 21 25  1  0  0  0  0
 22 19  1  0  0  0  0
 23 20  1  0  0  0  0
 26 21  1  0  0  0  0
M  END
>  <minimizedAffinity>
-4.81295919

>  <minimizedRMSD>
1.24000227

$$$$
