
 OpenBabel03242512273D

 21 21  0  0  0  0  0  0  0  0999 V2000
   44.9350   35.1360   44.0720 C   0  0  0  0  0  0  0  0  0  0  0  0
   46.0000   34.9640   43.1800 C   0  0  0  0  0  0  0  0  0  0  0  0
   46.9980   34.0420   43.5230 C   0  0  0  0  0  0  0  0  0  0  0  0
   46.8690   33.3800   44.6870 N   0  0  0  0  0  0  0  0  0  0  0  0
   45.8360   33.5680   45.5200 C   0  0  0  0  0  0  0  0  0  0  0  0
   44.8670   34.4420   45.2210 N   0  0  0  0  0  0  0  0  0  0  0  0
   43.9060   36.0730   43.7410 N   0  0  0  0  0  0  0  0  0  0  0  0
   46.0710   35.5080   42.2610 H   0  0  0  0  0  0  0  0  0  0  0  0
   47.8520   33.8560   42.8810 H   0  0  0  0  0  0  0  0  0  0  0  0
   42.8780   35.9590   43.8840 H   0  0  0  0  0  0  0  0  0  0  0  0
   44.2330   36.9590   43.3160 H   0  0  0  0  0  0  0  0  0  0  0  0
   45.7250   32.8350   46.7750 C   0  0  0  0  0  0  0  0  0  0  0  0
   44.9370   33.1790   47.7020 O   0  0  0  0  0  0  0  0  0  0  0  0
   47.9690   32.8110   48.4070 N   0  0  0  0  0  0  0  0  0  0  0  0
   47.6970   31.6910   47.8020 C   0  0  0  0  0  0  0  0  0  0  0  0
   46.5490   31.6780   46.9590 N   0  0  0  0  0  0  0  0  0  0  0  0
   48.4270   30.4590   47.8900 N   0  0  0  0  0  0  0  0  0  0  0  0
   47.8590   29.9300   48.6110 H   0  0  0  0  0  0  0  0  0  0  0  0
   48.8100   32.8760   49.0450 H   0  0  0  0  0  0  0  0  0  0  0  0
   46.2770   30.7910   46.4390 H   0  0  0  0  0  0  0  0  0  0  0  0
   49.2840   30.1050   47.4150 H   0  0  0  0  0  0  0  0  0  0  0  0
  1  6  1  0  0  0  0
  2  3  1  0  0  0  0
  2  1  2  0  0  0  0
  3  4  2  0  0  0  0
  4  5  1  0  0  0  0
  5 12  1  0  0  0  0
  6  5  2  0  0  0  0
  7 10  1  0  0  0  0
  7  1  1  0  0  0  0
  8  2  1  0  0  0  0
  9  3  1  0  0  0  0
 11  7  1  0  0  0  0
 12 16  1  0  0  0  0
 12 13  2  0  0  0  0
 14 19  1  0  0  0  0
 15 17  1  0  0  0  0
 15 14  2  0  0  0  0
 16 15  1  0  0  0  0
 17 18  1  0  0  0  0
 20 16  1  0  0  0  0
 21 17  1  0  0  0  0
M  END
>  <minimizedAffinity>
-4.41644955

>  <minimizedRMSD>
0.766260087

$$$$
