
 OpenBabel03242523553D

 44 46  0  0  1  0  0  0  0  0999 V2000
   42.8130   34.5360   38.7390 C   0  0  1  0  0  0  0  0  0  0  0  0
   42.9560   35.1860   40.1060 C   0  0  1  0  0  0  0  0  0  0  0  0
   41.6590   35.3940   40.6300 O   0  0  0  0  0  0  0  0  0  0  0  0
   40.7310   35.7450   39.6410 C   0  0  0  0  0  0  0  0  0  0  0  0
   40.4340   34.5830   38.7160 C   0  0  2  0  0  0  0  0  0  0  0  0
   41.6500   33.6090   38.8390 C   0  0  1  0  0  0  0  0  0  0  0  0
   43.7630   34.0010   38.5420 H   0  0  0  0  0  0  0  0  0  0  0  0
   43.5230   36.1250   40.0840 H   0  0  0  0  0  0  0  0  0  0  0  0
   39.8110   35.9880   40.1710 H   0  0  0  0  0  0  0  0  0  0  0  0
   41.0220   36.6640   39.0910 H   0  0  0  0  0  0  0  0  0  0  0  0
   39.4980   34.0600   38.9930 H   0  0  0  0  0  0  0  0  0  0  0  0
   41.4390   33.3140   39.9210 H   0  0  0  0  0  0  0  0  0  0  0  0
   42.5930   35.5130   37.7500 O   0  0  0  0  0  0  0  0  0  0  0  0
   43.4400   35.6580   37.2970 H   0  0  0  0  0  0  0  0  0  0  0  0
   40.4490   35.0170   37.3990 O   0  0  0  0  0  0  0  0  0  0  0  0
   39.7290   34.5460   36.8920 H   0  0  0  0  0  0  0  0  0  0  0  0
   43.4940   34.1920   40.9330 O   0  0  0  0  0  0  0  0  0  0  0  0
   44.5950   34.3280   41.6820 C   0  0  0  0  0  0  0  0  0  0  0  0
   45.8560   34.4360   41.0960 C   0  0  0  0  0  0  0  0  0  0  0  0
   46.9710   34.5770   41.8990 C   0  0  0  0  0  0  0  0  0  0  0  0
   46.8000   34.6090   43.2740 N   0  0  0  0  0  0  0  0  0  0  0  0
   45.5650   34.5020   43.8110 C   0  0  0  0  0  0  0  0  0  0  0  0
   44.4710   34.3640   43.0190 N   0  0  0  0  0  0  0  0  0  0  0  0
   45.9620   34.4080   40.0200 H   0  0  0  0  0  0  0  0  0  0  0  0
   45.4300   34.5270   44.8920 H   0  0  0  0  0  0  0  0  0  0  0  0
   48.3540   34.6780   41.3340 C   0  0  0  0  0  0  0  0  0  0  0  0
   49.0680   36.0160   41.5110 C   0  0  0  0  0  0  0  0  0  0  0  0
   49.4970   34.7020   42.1940 C   0  0  0  0  0  0  0  0  0  0  0  0
   48.3990   34.2850   40.2960 H   0  0  0  0  0  0  0  0  0  0  0  0
   48.5550   36.7760   42.0990 H   0  0  0  0  0  0  0  0  0  0  0  0
   49.6930   36.3510   40.6870 H   0  0  0  0  0  0  0  0  0  0  0  0
   49.3480   34.7410   43.3000 H   0  0  0  0  0  0  0  0  0  0  0  0
   50.4910   34.2830   41.9370 H   0  0  0  0  0  0  0  0  0  0  0  0
   41.5270   32.6750   37.8750 O   0  0  0  0  0  0  0  0  0  0  0  0
   40.8790   31.5140   37.8330 C   0  0  0  0  0  0  0  0  0  0  0  0
   39.5650   31.4550   37.6470 O   0  0  0  0  0  0  0  0  0  0  0  0
   40.6560   29.2520   35.8530 N   0  0  0  0  0  0  0  0  0  0  0  0
   41.1970   29.1740   36.9520 C   0  0  0  0  0  0  0  0  0  0  0  0
   41.3640   30.1360   37.9600 N   0  0  0  0  0  0  0  0  0  0  0  0
   41.7190   27.8430   37.1550 N   0  0  0  0  0  0  0  0  0  0  0  0
   42.6880   27.5960   37.4500 H   0  0  0  0  0  0  0  0  0  0  0  0
   40.1910   29.9650   35.3470 H   0  0  0  0  0  0  0  0  0  0  0  0
   41.8640   29.8350   38.8100 H   0  0  0  0  0  0  0  0  0  0  0  0
   41.2560   26.9130   37.0520 H   0  0  0  0  0  0  0  0  0  0  0  0
  1  7  1  6  0  0  0
  1  6  1  0  0  0  0
  1  2  1  0  0  0  0
  2  8  1  6  0  0  0
  2  3  1  0  0  0  0
  2 17  1  0  0  0  0
  4  9  1  0  0  0  0
  4  3  1  0  0  0  0
  5  6  1  0  0  0  0
  5 11  1  1  0  0  0
  5  4  1  0  0  0  0
  6 12  1  1  0  0  0
 10  4  1  0  0  0  0
 13  1  1  0  0  0  0
 14 13  1  0  0  0  0
 15  5  1  0  0  0  0
 16 15  1  0  0  0  0
 17 18  1  0  0  0  0
 18 23  1  0  0  0  0
 19 18  2  0  0  0  0
 19 20  1  0  0  0  0
 20 21  2  0  0  0  0
 21 22  1  0  0  0  0
 22 25  1  0  0  0  0
 23 22  2  0  0  0  0
 24 19  1  0  0  0  0
 26 27  1  0  0  0  0
 26 20  1  0  0  0  0
 26 28  1  0  0  0  0
 27 30  1  0  0  0  0
 27 28  1  0  0  0  0
 28 32  1  0  0  0  0
 29 26  1  0  0  0  0
 31 27  1  0  0  0  0
 33 28  1  0  0  0  0
 34  6  1  0  0  0  0
 35 34  1  0  0  0  0
 35 39  1  0  0  0  0
 36 35  2  0  0  0  0
 37 38  2  0  0  0  0
 38 40  1  0  0  0  0
 38 39  1  0  0  0  0
 39 43  1  0  0  0  0
 40 41  1  0  0  0  0
 42 37  1  0  0  0  0
 44 40  1  0  0  0  0
M  END
>  <minimizedAffinity>
-5.89716339

>  <minimizedRMSD>
0.217185751

$$$$
