
 OpenBabel03242523173D

 26 27  0  0  0  0  0  0  0  0999 V2000
   45.9440   34.7610   43.9760 C   0  0  0  0  0  0  0  0  0  0  0  0
   46.9420   33.9920   43.4720 C   0  0  0  0  0  0  0  0  0  0  0  0
   47.3260   32.9160   44.2490 C   0  0  0  0  0  0  0  0  0  0  0  0
   46.6670   32.7190   45.4600 N   0  0  0  0  0  0  0  0  0  0  0  0
   45.7010   33.4970   45.9070 C   0  0  0  0  0  0  0  0  0  0  0  0
   45.3000   34.5730   45.1570 N   0  0  0  0  0  0  0  0  0  0  0  0
   48.1120   32.2390   43.9410 H   0  0  0  0  0  0  0  0  0  0  0  0
   45.3210   33.1730   46.8670 H   0  0  0  0  0  0  0  0  0  0  0  0
   45.2760   35.8770   43.3270 C   0  0  0  0  0  0  0  0  0  0  0  0
   45.1460   37.0850   43.1980 O   0  0  0  0  0  0  0  0  0  0  0  0
   44.3920   32.9290   43.3400 N   0  0  0  0  0  0  0  0  0  0  0  0
   44.0270   33.8350   42.5500 C   0  0  0  0  0  0  0  0  0  0  0  0
   44.3440   35.2070   42.4270 N   0  0  0  0  0  0  0  0  0  0  0  0
   43.1370   33.0110   41.7630 N   0  0  0  0  0  0  0  0  0  0  0  0
   42.0780   32.9730   41.7440 H   0  0  0  0  0  0  0  0  0  0  0  0
   45.0310   32.9520   44.1190 H   0  0  0  0  0  0  0  0  0  0  0  0
   43.7640   35.5260   41.5900 H   0  0  0  0  0  0  0  0  0  0  0  0
   43.3600   32.2770   41.0440 H   0  0  0  0  0  0  0  0  0  0  0  0
   47.6480   34.2430   42.2720 C   0  0  0  0  0  0  0  0  0  0  0  0
   48.1380   35.3920   41.7460 C   0  0  0  0  0  0  0  0  0  0  0  0
   49.2160   34.4790   42.3320 C   0  0  0  0  0  0  0  0  0  0  0  0
   47.6810   33.2340   41.6640 H   0  0  0  0  0  0  0  0  0  0  0  0
   48.2970   35.5590   40.6450 H   0  0  0  0  0  0  0  0  0  0  0  0
   48.0760   36.3830   42.2730 H   0  0  0  0  0  0  0  0  0  0  0  0
   49.5980   34.6810   43.3530 H   0  0  0  0  0  0  0  0  0  0  0  0
   49.8690   33.9450   41.6680 H   0  0  0  0  0  0  0  0  0  0  0  0
  1  6  1  0  0  0  0
  2  1  2  0  0  0  0
  2  3  1  0  0  0  0
  3  4  2  0  0  0  0
  4  5  1  0  0  0  0
  5  8  1  0  0  0  0
  6  5  2  0  0  0  0
  7  3  1  0  0  0  0
  9  1  1  0  0  0  0
 10  9  2  0  0  0  0
 11 16  1  0  0  0  0
 12 11  2  0  0  0  0
 13 12  1  0  0  0  0
 13  9  1  0  0  0  0
 14 12  1  0  0  0  0
 15 14  1  0  0  0  0
 17 13  1  0  0  0  0
 18 14  1  0  0  0  0
 19 21  1  0  0  0  0
 19  2  1  0  0  0  0
 20 19  1  0  0  0  0
 20 24  1  0  0  0  0
 20 21  1  0  0  0  0
 21 25  1  0  0  0  0
 22 19  1  0  0  0  0
 23 20  1  0  0  0  0
 26 21  1  0  0  0  0
M  END
>  <minimizedAffinity>
-4.81196928

>  <minimizedRMSD>
0.959578931

$$$$
