
 OpenBabel03242512273D

 21 21  0  0  0  0  0  0  0  0999 V2000
   45.0120   34.9410   44.4080 C   0  0  0  0  0  0  0  0  0  0  0  0
   45.8540   35.0420   43.2950 C   0  0  0  0  0  0  0  0  0  0  0  0
   47.0010   34.2380   43.2660 C   0  0  0  0  0  0  0  0  0  0  0  0
   47.2210   33.4190   44.3100 N   0  0  0  0  0  0  0  0  0  0  0  0
   46.3950   33.3450   45.3640 C   0  0  0  0  0  0  0  0  0  0  0  0
   45.2910   34.1010   45.4210 N   0  0  0  0  0  0  0  0  0  0  0  0
   43.8360   35.7530   44.4570 N   0  0  0  0  0  0  0  0  0  0  0  0
   45.6490   35.7040   42.4800 H   0  0  0  0  0  0  0  0  0  0  0  0
   47.6990   34.2620   42.4360 H   0  0  0  0  0  0  0  0  0  0  0  0
   42.8890   35.4740   44.7950 H   0  0  0  0  0  0  0  0  0  0  0  0
   43.9540   36.7250   44.1180 H   0  0  0  0  0  0  0  0  0  0  0  0
   46.6610   32.4490   46.4810 C   0  0  0  0  0  0  0  0  0  0  0  0
   47.2920   32.8100   47.5150 O   0  0  0  0  0  0  0  0  0  0  0  0
   45.2580   31.4690   44.2970 N   0  0  0  0  0  0  0  0  0  0  0  0
   45.4660   30.6210   45.2630 C   0  0  0  0  0  0  0  0  0  0  0  0
   46.1840   31.1010   46.3960 N   0  0  0  0  0  0  0  0  0  0  0  0
   45.0500   29.2500   45.3150 N   0  0  0  0  0  0  0  0  0  0  0  0
   45.9310   28.7520   45.0110 H   0  0  0  0  0  0  0  0  0  0  0  0
   44.7310   31.1660   43.4320 H   0  0  0  0  0  0  0  0  0  0  0  0
   46.3840   30.4530   47.2160 H   0  0  0  0  0  0  0  0  0  0  0  0
   44.1510   28.7890   45.5700 H   0  0  0  0  0  0  0  0  0  0  0  0
  1  7  1  0  0  0  0
  1  6  1  0  0  0  0
  2  1  2  0  0  0  0
  3  2  1  0  0  0  0
  3  4  2  0  0  0  0
  4  5  1  0  0  0  0
  5  6  2  0  0  0  0
  5 12  1  0  0  0  0
  7 10  1  0  0  0  0
  8  2  1  0  0  0  0
  9  3  1  0  0  0  0
 11  7  1  0  0  0  0
 12 13  2  0  0  0  0
 14 15  2  0  0  0  0
 15 17  1  0  0  0  0
 15 16  1  0  0  0  0
 16 12  1  0  0  0  0
 16 20  1  0  0  0  0
 17 21  1  0  0  0  0
 18 17  1  0  0  0  0
 19 14  1  0  0  0  0
M  END
>  <minimizedAffinity>
-4.36472559

>  <minimizedRMSD>
2.11051583

$$$$
