
 OpenBabel03242512283D

 21 21  0  0  0  0  0  0  0  0999 V2000
   44.9490   35.0870   44.1980 C   0  0  0  0  0  0  0  0  0  0  0  0
   45.7390   35.3120   43.0650 C   0  0  0  0  0  0  0  0  0  0  0  0
   46.9190   34.5690   42.9310 C   0  0  0  0  0  0  0  0  0  0  0  0
   47.2190   33.6860   43.9010 N   0  0  0  0  0  0  0  0  0  0  0  0
   46.4410   33.4930   44.9750 C   0  0  0  0  0  0  0  0  0  0  0  0
   45.3070   34.1880   45.1310 N   0  0  0  0  0  0  0  0  0  0  0  0
   43.7400   35.8350   44.3530 N   0  0  0  0  0  0  0  0  0  0  0  0
   45.4700   36.0230   42.3120 H   0  0  0  0  0  0  0  0  0  0  0  0
   47.5800   34.6890   42.0800 H   0  0  0  0  0  0  0  0  0  0  0  0
   42.8210   35.4850   44.7040 H   0  0  0  0  0  0  0  0  0  0  0  0
   43.7990   36.8340   44.0860 H   0  0  0  0  0  0  0  0  0  0  0  0
   46.7930   32.5290   46.0090 C   0  0  0  0  0  0  0  0  0  0  0  0
   46.9700   32.8540   47.2190 O   0  0  0  0  0  0  0  0  0  0  0  0
   45.0040   31.2030   44.3550 N   0  0  0  0  0  0  0  0  0  0  0  0
   46.0120   30.4970   44.7810 C   0  0  0  0  0  0  0  0  0  0  0  0
   46.9450   31.1560   45.6320 N   0  0  0  0  0  0  0  0  0  0  0  0
   46.2900   29.1210   44.4860 N   0  0  0  0  0  0  0  0  0  0  0  0
   46.9950   29.2140   43.7010 H   0  0  0  0  0  0  0  0  0  0  0  0
   44.2800   30.7630   43.7210 H   0  0  0  0  0  0  0  0  0  0  0  0
   47.7880   30.6300   46.0090 H   0  0  0  0  0  0  0  0  0  0  0  0
   45.9410   28.2250   44.8840 H   0  0  0  0  0  0  0  0  0  0  0  0
  1  7  1  0  0  0  0
  1  6  1  0  0  0  0
  2  1  2  0  0  0  0
  3  2  1  0  0  0  0
  3  4  2  0  0  0  0
  4  5  1  0  0  0  0
  5  6  2  0  0  0  0
  5 12  1  0  0  0  0
  7 10  1  0  0  0  0
  8  2  1  0  0  0  0
  9  3  1  0  0  0  0
 11  7  1  0  0  0  0
 12 13  2  0  0  0  0
 14 15  2  0  0  0  0
 15 16  1  0  0  0  0
 16 12  1  0  0  0  0
 16 20  1  0  0  0  0
 17 15  1  0  0  0  0
 17 21  1  0  0  0  0
 18 17  1  0  0  0  0
 19 14  1  0  0  0  0
M  END
>  <minimizedAffinity>
-4.33418369

>  <minimizedRMSD>
1.62239206

$$$$
