
 OpenBabel03242512283D

 21 21  0  0  0  0  0  0  0  0999 V2000
   44.9670   34.8720   44.5980 C   0  0  0  0  0  0  0  0  0  0  0  0
   45.8570   34.5690   43.5620 C   0  0  0  0  0  0  0  0  0  0  0  0
   46.8810   33.6500   43.8260 C   0  0  0  0  0  0  0  0  0  0  0  0
   46.9440   33.1160   45.0590 N   0  0  0  0  0  0  0  0  0  0  0  0
   46.0750   33.4280   46.0320 C   0  0  0  0  0  0  0  0  0  0  0  0
   45.0860   34.3020   45.8100 N   0  0  0  0  0  0  0  0  0  0  0  0
   43.9140   35.8080   44.3490 N   0  0  0  0  0  0  0  0  0  0  0  0
   45.7780   35.0120   42.5910 H   0  0  0  0  0  0  0  0  0  0  0  0
   47.6070   33.3670   43.0720 H   0  0  0  0  0  0  0  0  0  0  0  0
   42.9250   35.7480   44.6760 H   0  0  0  0  0  0  0  0  0  0  0  0
   44.1800   36.6320   43.7810 H   0  0  0  0  0  0  0  0  0  0  0  0
   46.1700   32.8330   47.3580 C   0  0  0  0  0  0  0  0  0  0  0  0
   45.1660   32.3780   47.9790 O   0  0  0  0  0  0  0  0  0  0  0  0
   47.1130   30.5670   48.6520 N   0  0  0  0  0  0  0  0  0  0  0  0
   47.9200   31.5880   48.6370 C   0  0  0  0  0  0  0  0  0  0  0  0
   47.4580   32.7640   47.9790 N   0  0  0  0  0  0  0  0  0  0  0  0
   49.2320   31.6630   49.2140 N   0  0  0  0  0  0  0  0  0  0  0  0
   49.8430   31.4730   48.3700 H   0  0  0  0  0  0  0  0  0  0  0  0
   47.4050   29.6680   49.1270 H   0  0  0  0  0  0  0  0  0  0  0  0
   48.0750   33.6290   47.9350 H   0  0  0  0  0  0  0  0  0  0  0  0
   49.5750   31.8470   50.1790 H   0  0  0  0  0  0  0  0  0  0  0  0
  1  6  1  0  0  0  0
  2  3  1  0  0  0  0
  2  1  2  0  0  0  0
  3  4  2  0  0  0  0
  4  5  1  0  0  0  0
  5 12  1  0  0  0  0
  6  5  2  0  0  0  0
  7  1  1  0  0  0  0
  7 10  1  0  0  0  0
  8  2  1  0  0  0  0
  9  3  1  0  0  0  0
 11  7  1  0  0  0  0
 12 13  2  0  0  0  0
 12 16  1  0  0  0  0
 14 19  1  0  0  0  0
 15 14  2  0  0  0  0
 15 17  1  0  0  0  0
 16 15  1  0  0  0  0
 17 21  1  0  0  0  0
 18 17  1  0  0  0  0
 20 16  1  0  0  0  0
M  END
>  <minimizedAffinity>
-5.1242733

>  <minimizedRMSD>
1.05770171

$$$$
