
 OpenBabel03252509193D

 42 44  0  0  1  0  0  0  0  0999 V2000
   37.8090   26.3470   42.0570 C   0  0  1  0  0  0  0  0  0  0  0  0
   36.6500   26.1190   41.1670 C   0  0  0  0  0  0  0  0  0  0  0  0
   36.7780   24.9120   40.2750 C   0  0  0  0  0  0  0  0  0  0  0  0
   37.3140   23.6990   40.9750 C   0  0  0  0  0  0  0  0  0  0  0  0
   38.4540   24.0200   41.9070 C   0  0  0  0  0  0  0  0  0  0  0  0
   38.9760   25.4320   41.6220 C   0  0  2  0  0  0  0  0  0  0  0  0
   37.5710   25.9870   43.0910 H   0  0  0  0  0  0  0  0  0  0  0  0
   36.4610   26.9940   40.5330 H   0  0  0  0  0  0  0  0  0  0  0  0
   35.7280   25.9650   41.7710 H   0  0  0  0  0  0  0  0  0  0  0  0
   35.7630   24.6610   39.9270 H   0  0  0  0  0  0  0  0  0  0  0  0
   37.3980   25.2160   39.4060 H   0  0  0  0  0  0  0  0  0  0  0  0
   37.7200   23.0180   40.1930 H   0  0  0  0  0  0  0  0  0  0  0  0
   36.4980   23.1400   41.4890 H   0  0  0  0  0  0  0  0  0  0  0  0
   39.2610   23.2740   41.9200 H   0  0  0  0  0  0  0  0  0  0  0  0
   37.9890   24.0920   42.9290 H   0  0  0  0  0  0  0  0  0  0  0  0
   39.1680   25.5620   40.5350 H   0  0  0  0  0  0  0  0  0  0  0  0
   40.1510   25.6910   42.4520 C   0  0  0  0  0  0  0  0  0  0  0  0
   40.1700   25.4520   43.6800 O   0  0  0  0  0  0  0  0  0  0  0  0
   42.8820   24.7750   43.3160 N   0  0  0  0  0  0  0  0  0  0  0  0
   42.6630   25.7380   42.5790 C   0  0  0  0  0  0  0  0  0  0  0  0
   41.4140   26.2090   42.1490 N   0  0  0  0  0  0  0  0  0  0  0  0
   43.8990   26.3730   42.1780 N   0  0  0  0  0  0  0  0  0  0  0  0
   44.6250   25.9640   41.5420 H   0  0  0  0  0  0  0  0  0  0  0  0
   42.3030   24.1170   43.7760 H   0  0  0  0  0  0  0  0  0  0  0  0
   41.4760   27.0210   41.5270 H   0  0  0  0  0  0  0  0  0  0  0  0
   44.1320   27.3240   42.5250 H   0  0  0  0  0  0  0  0  0  0  0  0
   38.8720   30.2660   41.5690 C   0  0  0  0  0  0  0  0  0  0  0  0
   38.8510   29.8870   42.9090 C   0  0  0  0  0  0  0  0  0  0  0  0
   38.5130   28.6300   43.1970 C   0  0  0  0  0  0  0  0  0  0  0  0
   38.1890   27.7170   42.1660 C   0  0  0  0  0  0  0  0  0  0  0  0
   38.3780   28.7320   40.6660 S   0  0  0  0  0  0  0  0  0  0  0  0
   39.1010   30.5890   43.6910 H   0  0  0  0  0  0  0  0  0  0  0  0
   38.4400   28.1580   44.1610 H   0  0  0  0  0  0  0  0  0  0  0  0
   40.6390   33.3660   40.5130 C   0  0  0  0  0  0  0  0  0  0  0  0
   39.5640   34.1280   40.0590 C   0  0  0  0  0  0  0  0  0  0  0  0
   38.2830   33.5660   40.1280 C   0  0  0  0  0  0  0  0  0  0  0  0
   38.1600   32.2930   40.6420 N   0  0  0  0  0  0  0  0  0  0  0  0
   39.2320   31.6040   41.0640 C   0  0  0  0  0  0  0  0  0  0  0  0
   40.4810   32.1450   40.9990 N   0  0  0  0  0  0  0  0  0  0  0  0
   41.6460   33.7200   40.4930 H   0  0  0  0  0  0  0  0  0  0  0  0
   39.7090   35.1070   39.6710 H   0  0  0  0  0  0  0  0  0  0  0  0
   37.4080   34.0860   39.8010 H   0  0  0  0  0  0  0  0  0  0  0  0
  1 30  1  0  0  0  0
  1  7  1  1  0  0  0
  2  9  1  0  0  0  0
  2  1  1  0  0  0  0
  3  4  1  0  0  0  0
  3  2  1  0  0  0  0
  4 13  1  0  0  0  0
  4  5  1  0  0  0  0
  5 14  1  0  0  0  0
  5 15  1  0  0  0  0
  6 16  1  6  0  0  0
  6  5  1  0  0  0  0
  6  1  1  0  0  0  0
  6 17  1  0  0  0  0
  8  2  1  0  0  0  0
 10  3  1  0  0  0  0
 11  3  1  0  0  0  0
 12  4  1  0  0  0  0
 17 18  2  0  0  0  0
 19 24  1  0  0  0  0
 20 19  2  0  0  0  0
 21 17  1  0  0  0  0
 21 20  1  0  0  0  0
 22 26  1  0  0  0  0
 22 20  1  0  0  0  0
 23 22  1  0  0  0  0
 25 21  1  0  0  0  0
 27 28  2  0  0  0  0
 28 29  1  0  0  0  0
 28 32  1  0  0  0  0
 29 33  1  0  0  0  0
 30 29  2  0  0  0  0
 31 27  1  0  0  0  0
 31 30  1  0  0  0  0
 34 39  1  0  0  0  0
 35 36  1  0  0  0  0
 35 34  2  0  0  0  0
 36 37  2  0  0  0  0
 37 38  1  0  0  0  0
 38 27  1  0  0  0  0
 39 38  2  0  0  0  0
 40 34  1  0  0  0  0
 41 35  1  0  0  0  0
 42 36  1  0  0  0  0
M  END
>  <minimizedAffinity>
-5.93343639

$$$$

 OpenBabel03252509193D

 42 44  0  0  1  0  0  0  0  0999 V2000
   37.4480   27.0230   42.1840 C   0  0  1  0  0  0  0  0  0  0  0  0
   37.4660   25.5540   42.0200 C   0  0  0  0  0  0  0  0  0  0  0  0
   38.8230   24.9240   42.1970 C   0  0  0  0  0  0  0  0  0  0  0  0
   39.5890   25.4610   43.3680 C   0  0  0  0  0  0  0  0  0  0  0  0
   39.4760   26.9580   43.5030 C   0  0  0  0  0  0  0  0  0  0  0  0
   38.9010   27.5520   42.2140 C   0  0  2  0  0  0  0  0  0  0  0  0
   37.0570   27.2880   43.2000 H   0  0  0  0  0  0  0  0  0  0  0  0
   37.0790   25.2610   41.0370 H   0  0  0  0  0  0  0  0  0  0  0  0
   36.8000   25.0760   42.7730 H   0  0  0  0  0  0  0  0  0  0  0  0
   38.6570   23.8510   42.3850 H   0  0  0  0  0  0  0  0  0  0  0  0
   39.3650   25.0480   41.2360 H   0  0  0  0  0  0  0  0  0  0  0  0
   40.6660   25.2340   43.1920 H   0  0  0  0  0  0  0  0  0  0  0  0
   39.3050   24.9340   44.3080 H   0  0  0  0  0  0  0  0  0  0  0  0
   40.4010   27.4620   43.8160 H   0  0  0  0  0  0  0  0  0  0  0  0
   38.6730   27.1250   44.2740 H   0  0  0  0  0  0  0  0  0  0  0  0
   39.4550   27.1720   41.3290 H   0  0  0  0  0  0  0  0  0  0  0  0
   38.8990   29.0110   42.3110 C   0  0  0  0  0  0  0  0  0  0  0  0
   38.4680   29.6150   43.3190 O   0  0  0  0  0  0  0  0  0  0  0  0
   40.4960   31.5070   42.8210 N   0  0  0  0  0  0  0  0  0  0  0  0
   40.0720   31.1560   41.7190 C   0  0  0  0  0  0  0  0  0  0  0  0
   39.3220   30.0080   41.4270 N   0  0  0  0  0  0  0  0  0  0  0  0
   40.4480   32.1050   40.6940 N   0  0  0  0  0  0  0  0  0  0  0  0
   41.4200   32.2800   40.3420 H   0  0  0  0  0  0  0  0  0  0  0  0
   40.4400   31.1250   43.7330 H   0  0  0  0  0  0  0  0  0  0  0  0
   39.0900   29.9150   40.4330 H   0  0  0  0  0  0  0  0  0  0  0  0
   39.7230   32.6900   40.2350 H   0  0  0  0  0  0  0  0  0  0  0  0
   35.4380   28.4540   38.9230 C   0  0  0  0  0  0  0  0  0  0  0  0
   35.1270   29.1560   40.0840 C   0  0  0  0  0  0  0  0  0  0  0  0
   35.7180   28.7790   41.2190 C   0  0  0  0  0  0  0  0  0  0  0  0
   36.6320   27.6980   41.2310 C   0  0  0  0  0  0  0  0  0  0  0  0
   36.6470   27.1760   39.4860 S   0  0  0  0  0  0  0  0  0  0  0  0
   34.4300   29.9810   40.0690 H   0  0  0  0  0  0  0  0  0  0  0  0
   35.6050   29.1930   42.2050 H   0  0  0  0  0  0  0  0  0  0  0  0
   34.9600   29.1380   35.2960 C   0  0  0  0  0  0  0  0  0  0  0  0
   33.5720   29.2480   35.2400 C   0  0  0  0  0  0  0  0  0  0  0  0
   32.8500   29.0890   36.4300 C   0  0  0  0  0  0  0  0  0  0  0  0
   33.5540   28.8330   37.5870 N   0  0  0  0  0  0  0  0  0  0  0  0
   34.8930   28.7360   37.5810 C   0  0  0  0  0  0  0  0  0  0  0  0
   35.6010   28.8890   36.4280 N   0  0  0  0  0  0  0  0  0  0  0  0
   35.5820   29.2450   34.4360 H   0  0  0  0  0  0  0  0  0  0  0  0
   33.0730   29.4470   34.3230 H   0  0  0  0  0  0  0  0  0  0  0  0
   31.7840   29.1600   36.4700 H   0  0  0  0  0  0  0  0  0  0  0  0
  1  6  1  0  0  0  0
  1  7  1  1  0  0  0
  2  1  1  0  0  0  0
  2  3  1  0  0  0  0
  2  9  1  0  0  0  0
  3 10  1  0  0  0  0
  3  4  1  0  0  0  0
  4  5  1  0  0  0  0
  4 13  1  0  0  0  0
  5 14  1  0  0  0  0
  5 15  1  0  0  0  0
  6 16  1  6  0  0  0
  6 17  1  0  0  0  0
  6  5  1  0  0  0  0
  8  2  1  0  0  0  0
 11  3  1  0  0  0  0
 12  4  1  0  0  0  0
 17 18  2  0  0  0  0
 19 24  1  0  0  0  0
 20 19  2  0  0  0  0
 21 20  1  0  0  0  0
 21 17  1  0  0  0  0
 22 20  1  0  0  0  0
 23 22  1  0  0  0  0
 25 21  1  0  0  0  0
 26 22  1  0  0  0  0
 27 31  1  0  0  0  0
 27 28  2  0  0  0  0
 28 29  1  0  0  0  0
 29 30  2  0  0  0  0
 29 33  1  0  0  0  0
 30  1  1  0  0  0  0
 31 30  1  0  0  0  0
 32 28  1  0  0  0  0
 34 39  1  0  0  0  0
 35 34  2  0  0  0  0
 35 36  1  0  0  0  0
 36 42  1  0  0  0  0
 36 37  2  0  0  0  0
 38 37  1  0  0  0  0
 38 27  1  0  0  0  0
 39 38  2  0  0  0  0
 40 34  1  0  0  0  0
 41 35  1  0  0  0  0
M  END
>  <minimizedAffinity>
-5.82797384

$$$$

 OpenBabel03252509193D

 42 44  0  0  1  0  0  0  0  0999 V2000
   37.0430   28.0740   41.4710 C   0  0  1  0  0  0  0  0  0  0  0  0
   36.9710   26.7890   42.1990 C   0  0  0  0  0  0  0  0  0  0  0  0
   38.2670   26.3630   42.8400 C   0  0  0  0  0  0  0  0  0  0  0  0
   38.9850   27.4750   43.5430 C   0  0  0  0  0  0  0  0  0  0  0  0
   38.9660   28.7660   42.7670 C   0  0  0  0  0  0  0  0  0  0  0  0
   38.5230   28.4970   41.3250 C   0  0  2  0  0  0  0  0  0  0  0  0
   36.6020   28.8910   42.0970 H   0  0  0  0  0  0  0  0  0  0  0  0
   36.6340   25.9800   41.5410 H   0  0  0  0  0  0  0  0  0  0  0  0
   36.2230   26.8550   43.0210 H   0  0  0  0  0  0  0  0  0  0  0  0
   38.0140   25.6080   43.6030 H   0  0  0  0  0  0  0  0  0  0  0  0
   38.8800   25.8890   42.0450 H   0  0  0  0  0  0  0  0  0  0  0  0
   40.0530   27.1710   43.6380 H   0  0  0  0  0  0  0  0  0  0  0  0
   38.6010   27.6050   44.5820 H   0  0  0  0  0  0  0  0  0  0  0  0
   39.9000   29.3440   42.8130 H   0  0  0  0  0  0  0  0  0  0  0  0
   38.1260   29.3670   43.2130 H   0  0  0  0  0  0  0  0  0  0  0  0
   39.1090   27.6600   40.8880 H   0  0  0  0  0  0  0  0  0  0  0  0
   38.6150   29.7340   40.5510 C   0  0  0  0  0  0  0  0  0  0  0  0
   39.2310   29.7990   39.4640 O   0  0  0  0  0  0  0  0  0  0  0  0
   37.2490   31.6380   38.6670 N   0  0  0  0  0  0  0  0  0  0  0  0
   37.4740   31.8650   39.8570 C   0  0  0  0  0  0  0  0  0  0  0  0
   38.1090   31.0170   40.7760 N   0  0  0  0  0  0  0  0  0  0  0  0
   36.9900   33.1750   40.2330 N   0  0  0  0  0  0  0  0  0  0  0  0
   35.9840   33.4660   40.2960 H   0  0  0  0  0  0  0  0  0  0  0  0
   37.4290   30.8700   38.0680 H   0  0  0  0  0  0  0  0  0  0  0  0
   38.1750   31.4140   41.7180 H   0  0  0  0  0  0  0  0  0  0  0  0
   37.6610   33.9290   40.4730 H   0  0  0  0  0  0  0  0  0  0  0  0
   34.5600   28.6060   38.2660 C   0  0  0  0  0  0  0  0  0  0  0  0
   35.5420   27.6510   38.0200 C   0  0  0  0  0  0  0  0  0  0  0  0
   36.4190   27.3920   38.9910 C   0  0  0  0  0  0  0  0  0  0  0  0
   36.3420   28.0710   40.2300 C   0  0  0  0  0  0  0  0  0  0  0  0
   34.9090   29.1690   39.9900 S   0  0  0  0  0  0  0  0  0  0  0  0
   35.5950   27.1350   37.0720 H   0  0  0  0  0  0  0  0  0  0  0  0
   37.2400   26.6970   38.9870 H   0  0  0  0  0  0  0  0  0  0  0  0
   31.4040   29.7440   36.6550 C   0  0  0  0  0  0  0  0  0  0  0  0
   31.7800   29.7130   35.3130 C   0  0  0  0  0  0  0  0  0  0  0  0
   33.0840   29.3070   35.0040 C   0  0  0  0  0  0  0  0  0  0  0  0
   33.9200   28.9620   36.0430 N   0  0  0  0  0  0  0  0  0  0  0  0
   33.5040   29.0120   37.3180 C   0  0  0  0  0  0  0  0  0  0  0  0
   32.2370   29.4060   37.6270 N   0  0  0  0  0  0  0  0  0  0  0  0
   30.4300   30.0420   36.9740 H   0  0  0  0  0  0  0  0  0  0  0  0
   31.0980   29.9890   34.5450 H   0  0  0  0  0  0  0  0  0  0  0  0
   33.4480   29.2560   34.0000 H   0  0  0  0  0  0  0  0  0  0  0  0
  1  7  1  1  0  0  0
  1  2  1  0  0  0  0
  2  3  1  0  0  0  0
  2  9  1  0  0  0  0
  3  4  1  0  0  0  0
  3 10  1  0  0  0  0
  4 12  1  0  0  0  0
  4 13  1  0  0  0  0
  5 14  1  0  0  0  0
  5 15  1  0  0  0  0
  5  4  1  0  0  0  0
  6 16  1  6  0  0  0
  6  1  1  0  0  0  0
  6  5  1  0  0  0  0
  8  2  1  0  0  0  0
 11  3  1  0  0  0  0
 17 21  1  0  0  0  0
 17  6  1  0  0  0  0
 18 17  2  0  0  0  0
 19 20  2  0  0  0  0
 20 22  1  0  0  0  0
 20 21  1  0  0  0  0
 21 25  1  0  0  0  0
 22 23  1  0  0  0  0
 22 26  1  0  0  0  0
 24 19  1  0  0  0  0
 27 31  1  0  0  0  0
 28 27  2  0  0  0  0
 28 29  1  0  0  0  0
 29 30  2  0  0  0  0
 30  1  1  0  0  0  0
 31 30  1  0  0  0  0
 32 28  1  0  0  0  0
 33 29  1  0  0  0  0
 34 40  1  0  0  0  0
 34 39  1  0  0  0  0
 35 34  2  0  0  0  0
 36 35  1  0  0  0  0
 36 37  2  0  0  0  0
 37 38  1  0  0  0  0
 38 39  2  0  0  0  0
 38 27  1  0  0  0  0
 41 35  1  0  0  0  0
 42 36  1  0  0  0  0
M  END
>  <minimizedAffinity>
-5.77290869

$$$$

 OpenBabel03252509193D

 42 44  0  0  1  0  0  0  0  0999 V2000
   40.7600   31.3220   42.2610 C   0  0  1  0  0  0  0  0  0  0  0  0
   42.0020   31.1310   43.0400 C   0  0  0  0  0  0  0  0  0  0  0  0
   43.2520   31.6100   42.3480 C   0  0  0  0  0  0  0  0  0  0  0  0
   43.0970   32.9430   41.6800 C   0  0  0  0  0  0  0  0  0  0  0  0
   41.7830   33.0840   40.9560 C   0  0  0  0  0  0  0  0  0  0  0  0
   41.1220   31.7100   40.8090 C   0  0  2  0  0  0  0  0  0  0  0  0
   40.2090   32.2220   42.6380 H   0  0  0  0  0  0  0  0  0  0  0  0
   42.1430   30.0770   43.3080 H   0  0  0  0  0  0  0  0  0  0  0  0
   41.9420   31.6910   44.0010 H   0  0  0  0  0  0  0  0  0  0  0  0
   44.0240   31.7270   43.1250 H   0  0  0  0  0  0  0  0  0  0  0  0
   43.5580   30.8090   41.6440 H   0  0  0  0  0  0  0  0  0  0  0  0
   43.8990   33.0230   40.9110 H   0  0  0  0  0  0  0  0  0  0  0  0
   43.2670   33.7750   42.4020 H   0  0  0  0  0  0  0  0  0  0  0  0
   41.8410   33.6200   39.9980 H   0  0  0  0  0  0  0  0  0  0  0  0
   41.1130   33.6450   41.6640 H   0  0  0  0  0  0  0  0  0  0  0  0
   41.8440   30.9730   40.3950 H   0  0  0  0  0  0  0  0  0  0  0  0
   39.9050   31.8390   40.0090 C   0  0  0  0  0  0  0  0  0  0  0  0
   39.4120   30.8780   39.3790 O   0  0  0  0  0  0  0  0  0  0  0  0
   36.9030   32.0060   39.9920 N   0  0  0  0  0  0  0  0  0  0  0  0
   37.6620   32.9500   39.7650 C   0  0  0  0  0  0  0  0  0  0  0  0
   39.0630   32.9270   39.7570 N   0  0  0  0  0  0  0  0  0  0  0  0
   36.9150   34.1580   39.4920 N   0  0  0  0  0  0  0  0  0  0  0  0
   36.3380   34.6970   40.1820 H   0  0  0  0  0  0  0  0  0  0  0  0
   37.0420   31.0510   40.2120 H   0  0  0  0  0  0  0  0  0  0  0  0
   39.4850   33.8390   39.5540 H   0  0  0  0  0  0  0  0  0  0  0  0
   36.9210   34.5690   38.5390 H   0  0  0  0  0  0  0  0  0  0  0  0
   38.7800   27.7460   42.1290 C   0  0  0  0  0  0  0  0  0  0  0  0
   37.9920   28.7670   42.6520 C   0  0  0  0  0  0  0  0  0  0  0  0
   38.5300   29.9840   42.7520 C   0  0  0  0  0  0  0  0  0  0  0  0
   39.8610   30.2180   42.3330 C   0  0  0  0  0  0  0  0  0  0  0  0
   40.3890   28.5740   41.7560 S   0  0  0  0  0  0  0  0  0  0  0  0
   36.9760   28.5810   42.9690 H   0  0  0  0  0  0  0  0  0  0  0  0
   38.0830   30.8870   43.1280 H   0  0  0  0  0  0  0  0  0  0  0  0
   36.8710   24.5610   41.8860 C   0  0  0  0  0  0  0  0  0  0  0  0
   37.8810   23.6910   41.4820 C   0  0  0  0  0  0  0  0  0  0  0  0
   39.1690   24.2120   41.3090 C   0  0  0  0  0  0  0  0  0  0  0  0
   39.3630   25.5550   41.5480 N   0  0  0  0  0  0  0  0  0  0  0  0
   38.3520   26.3480   41.9350 C   0  0  0  0  0  0  0  0  0  0  0  0
   37.0960   25.8470   42.1050 N   0  0  0  0  0  0  0  0  0  0  0  0
   35.8630   24.2440   42.0400 H   0  0  0  0  0  0  0  0  0  0  0  0
   37.6830   22.6610   41.3100 H   0  0  0  0  0  0  0  0  0  0  0  0
   39.9980   23.6100   41.0020 H   0  0  0  0  0  0  0  0  0  0  0  0
  1 30  1  0  0  0  0
  1  7  1  1  0  0  0
  1  2  1  0  0  0  0
  2  8  1  0  0  0  0
  2  9  1  0  0  0  0
  3  2  1  0  0  0  0
  3 10  1  0  0  0  0
  4  3  1  0  0  0  0
  4 13  1  0  0  0  0
  5 15  1  0  0  0  0
  5  4  1  0  0  0  0
  6 16  1  6  0  0  0
  6  5  1  0  0  0  0
  6  1  1  0  0  0  0
 11  3  1  0  0  0  0
 12  4  1  0  0  0  0
 14  5  1  0  0  0  0
 17  6  1  0  0  0  0
 18 17  2  0  0  0  0
 19 24  1  0  0  0  0
 20 19  2  0  0  0  0
 21 20  1  0  0  0  0
 21 17  1  0  0  0  0
 22 20  1  0  0  0  0
 22 23  1  0  0  0  0
 25 21  1  0  0  0  0
 26 22  1  0  0  0  0
 27 28  2  0  0  0  0
 28 29  1  0  0  0  0
 28 32  1  0  0  0  0
 29 33  1  0  0  0  0
 30 29  2  0  0  0  0
 31 27  1  0  0  0  0
 31 30  1  0  0  0  0
 34 40  1  0  0  0  0
 34 39  1  0  0  0  0
 35 34  2  0  0  0  0
 36 35  1  0  0  0  0
 36 37  2  0  0  0  0
 37 38  1  0  0  0  0
 38 39  2  0  0  0  0
 38 27  1  0  0  0  0
 41 35  1  0  0  0  0
 42 36  1  0  0  0  0
M  END
>  <minimizedAffinity>
-5.70401049

$$$$

 OpenBabel03252509193D

 42 44  0  0  1  0  0  0  0  0999 V2000
   39.0510   26.7910   41.4910 C   0  0  1  0  0  0  0  0  0  0  0  0
   40.0400   25.6950   41.5700 C   0  0  0  0  0  0  0  0  0  0  0  0
   39.6350   24.5540   42.4670 C   0  0  0  0  0  0  0  0  0  0  0  0
   38.2040   24.1360   42.3020 C   0  0  0  0  0  0  0  0  0  0  0  0
   37.2650   25.3070   42.1700 C   0  0  0  0  0  0  0  0  0  0  0  0
   37.9810   26.5950   42.5890 C   0  0  2  0  0  0  0  0  0  0  0  0
   38.4640   26.7070   40.5400 H   0  0  0  0  0  0  0  0  0  0  0  0
   41.0150   26.0650   41.9070 H   0  0  0  0  0  0  0  0  0  0  0  0
   40.2050   25.2540   40.5610 H   0  0  0  0  0  0  0  0  0  0  0  0
   40.2580   23.6890   42.1880 H   0  0  0  0  0  0  0  0  0  0  0  0
   39.8760   24.8600   43.5070 H   0  0  0  0  0  0  0  0  0  0  0  0
   37.9100   23.5900   43.2270 H   0  0  0  0  0  0  0  0  0  0  0  0
   38.0930   23.4140   41.4600 H   0  0  0  0  0  0  0  0  0  0  0  0
   36.3010   25.1830   42.6830 H   0  0  0  0  0  0  0  0  0  0  0  0
   37.0940   25.4260   41.0640 H   0  0  0  0  0  0  0  0  0  0  0  0
   38.4770   26.4620   43.5740 H   0  0  0  0  0  0  0  0  0  0  0  0
   37.0320   27.7070   42.5660 C   0  0  0  0  0  0  0  0  0  0  0  0
   36.9520   28.5390   43.4970 O   0  0  0  0  0  0  0  0  0  0  0  0
   36.3730   30.4390   41.4970 N   0  0  0  0  0  0  0  0  0  0  0  0
   35.8120   29.3960   41.1560 C   0  0  0  0  0  0  0  0  0  0  0  0
   36.0760   28.1010   41.6240 N   0  0  0  0  0  0  0  0  0  0  0  0
   34.7900   29.6580   40.1670 N   0  0  0  0  0  0  0  0  0  0  0  0
   34.9540   29.9740   39.1800 H   0  0  0  0  0  0  0  0  0  0  0  0
   37.1000   30.6520   42.1340 H   0  0  0  0  0  0  0  0  0  0  0  0
   35.4910   27.3820   41.1880 H   0  0  0  0  0  0  0  0  0  0  0  0
   33.7880   29.5350   40.4070 H   0  0  0  0  0  0  0  0  0  0  0  0
   40.4660   30.5640   40.7880 C   0  0  0  0  0  0  0  0  0  0  0  0
   40.7770   30.1130   42.0680 C   0  0  0  0  0  0  0  0  0  0  0  0
   40.3630   28.8940   42.4190 C   0  0  0  0  0  0  0  0  0  0  0  0
   39.6340   28.0920   41.5100 C   0  0  0  0  0  0  0  0  0  0  0  0
   39.5250   29.1610   40.0390 S   0  0  0  0  0  0  0  0  0  0  0  0
   41.3350   30.7300   42.7570 H   0  0  0  0  0  0  0  0  0  0  0  0
   40.5040   28.3810   43.3530 H   0  0  0  0  0  0  0  0  0  0  0  0
   41.5750   34.0770   40.2620 C   0  0  0  0  0  0  0  0  0  0  0  0
   41.4980   34.1610   38.8730 C   0  0  0  0  0  0  0  0  0  0  0  0
   41.0730   33.0290   38.1670 C   0  0  0  0  0  0  0  0  0  0  0  0
   40.7560   31.8970   38.8870 N   0  0  0  0  0  0  0  0  0  0  0  0
   40.8490   31.8720   40.2250 C   0  0  0  0  0  0  0  0  0  0  0  0
   41.2610   32.9700   40.9180 N   0  0  0  0  0  0  0  0  0  0  0  0
   41.8890   34.8940   40.8730 H   0  0  0  0  0  0  0  0  0  0  0  0
   41.7540   35.0570   38.3620 H   0  0  0  0  0  0  0  0  0  0  0  0
   40.9870   33.0130   37.1020 H   0  0  0  0  0  0  0  0  0  0  0  0
  1  7  1  6  0  0  0
  1 30  1  0  0  0  0
  1  2  1  0  0  0  0
  1  6  1  0  0  0  0
  2  8  1  0  0  0  0
  2  3  1  0  0  0  0
  3 11  1  0  0  0  0
  4  3  1  0  0  0  0
  4 12  1  0  0  0  0
  5  4  1  0  0  0  0
  5  6  1  0  0  0  0
  5 14  1  0  0  0  0
  6 16  1  1  0  0  0
  9  2  1  0  0  0  0
 10  3  1  0  0  0  0
 13  4  1  0  0  0  0
 15  5  1  0  0  0  0
 17  6  1  0  0  0  0
 17 18  2  0  0  0  0
 19 24  1  0  0  0  0
 20 19  2  0  0  0  0
 20 21  1  0  0  0  0
 21 17  1  0  0  0  0
 22 26  1  0  0  0  0
 22 20  1  0  0  0  0
 23 22  1  0  0  0  0
 25 21  1  0  0  0  0
 27 28  2  0  0  0  0
 28 29  1  0  0  0  0
 28 32  1  0  0  0  0
 29 33  1  0  0  0  0
 30 29  2  0  0  0  0
 31 27  1  0  0  0  0
 31 30  1  0  0  0  0
 34 40  1  0  0  0  0
 34 39  1  0  0  0  0
 35 34  2  0  0  0  0
 36 35  1  0  0  0  0
 36 37  2  0  0  0  0
 37 38  1  0  0  0  0
 38 27  1  0  0  0  0
 38 39  2  0  0  0  0
 41 35  1  0  0  0  0
 42 36  1  0  0  0  0
M  END
>  <minimizedAffinity>
-5.67403316

$$$$

 OpenBabel03252509193D

 42 44  0  0  1  0  0  0  0  0999 V2000
   36.7920   28.4860   41.6280 C   0  0  1  0  0  0  0  0  0  0  0  0
   36.6770   27.2490   42.4310 C   0  0  0  0  0  0  0  0  0  0  0  0
   37.9880   26.7260   42.9590 C   0  0  0  0  0  0  0  0  0  0  0  0
   38.8800   27.7920   43.5210 C   0  0  0  0  0  0  0  0  0  0  0  0
   38.8990   29.0410   42.6790 C   0  0  0  0  0  0  0  0  0  0  0  0
   38.2810   28.7510   41.3080 C   0  0  2  0  0  0  0  0  0  0  0  0
   36.5000   29.3710   42.2490 H   0  0  0  0  0  0  0  0  0  0  0  0
   36.1960   26.4490   41.8570 H   0  0  0  0  0  0  0  0  0  0  0  0
   36.0320   27.4280   43.3200 H   0  0  0  0  0  0  0  0  0  0  0  0
   37.7490   26.0360   43.7850 H   0  0  0  0  0  0  0  0  0  0  0  0
   38.4640   26.1570   42.1330 H   0  0  0  0  0  0  0  0  0  0  0  0
   39.9180   27.3870   43.5230 H   0  0  0  0  0  0  0  0  0  0  0  0
   38.6240   28.0080   44.5850 H   0  0  0  0  0  0  0  0  0  0  0  0
   39.8840   29.5240   42.5970 H   0  0  0  0  0  0  0  0  0  0  0  0
   38.1730   29.7430   43.1750 H   0  0  0  0  0  0  0  0  0  0  0  0
   38.7350   27.8410   40.8610 H   0  0  0  0  0  0  0  0  0  0  0  0
   38.4060   29.9360   40.4600 C   0  0  0  0  0  0  0  0  0  0  0  0
   38.9490   29.8990   39.3340 O   0  0  0  0  0  0  0  0  0  0  0  0
   37.0510   31.8330   38.5610 N   0  0  0  0  0  0  0  0  0  0  0  0
   37.3720   32.1060   39.7200 C   0  0  0  0  0  0  0  0  0  0  0  0
   38.0070   31.2630   40.6430 N   0  0  0  0  0  0  0  0  0  0  0  0
   37.0070   33.4660   40.0510 N   0  0  0  0  0  0  0  0  0  0  0  0
   36.0300   33.8330   40.1620 H   0  0  0  0  0  0  0  0  0  0  0  0
   37.1350   31.0240   37.9970 H   0  0  0  0  0  0  0  0  0  0  0  0
   38.1650   31.7030   41.5550 H   0  0  0  0  0  0  0  0  0  0  0  0
   37.7440   34.1800   40.2030 H   0  0  0  0  0  0  0  0  0  0  0  0
   34.9090   27.9370   38.0400 C   0  0  0  0  0  0  0  0  0  0  0  0
   34.3250   28.9520   38.7930 C   0  0  0  0  0  0  0  0  0  0  0  0
   34.8490   29.2220   39.9890 C   0  0  0  0  0  0  0  0  0  0  0  0
   35.9650   28.4960   40.4680 C   0  0  0  0  0  0  0  0  0  0  0  0
   36.2910   27.3320   39.1060 S   0  0  0  0  0  0  0  0  0  0  0  0
   33.4740   29.5030   38.4210 H   0  0  0  0  0  0  0  0  0  0  0  0
   34.5370   29.9600   40.7070 H   0  0  0  0  0  0  0  0  0  0  0  0
   34.7200   26.6990   34.5350 C   0  0  0  0  0  0  0  0  0  0  0  0
   33.3480   26.7860   34.3100 C   0  0  0  0  0  0  0  0  0  0  0  0
   32.5390   27.2610   35.3490 C   0  0  0  0  0  0  0  0  0  0  0  0
   33.1460   27.6150   36.5350 N   0  0  0  0  0  0  0  0  0  0  0  0
   34.4740   27.5090   36.6960 C   0  0  0  0  0  0  0  0  0  0  0  0
   35.2670   27.0480   35.6890 N   0  0  0  0  0  0  0  0  0  0  0  0
   35.4040   26.3460   33.7960 H   0  0  0  0  0  0  0  0  0  0  0  0
   32.9240   26.5010   33.3770 H   0  0  0  0  0  0  0  0  0  0  0  0
   31.4780   27.3580   35.2550 H   0  0  0  0  0  0  0  0  0  0  0  0
  1  7  1  1  0  0  0
  1  2  1  0  0  0  0
  2  3  1  0  0  0  0
  2  9  1  0  0  0  0
  3  4  1  0  0  0  0
  3 10  1  0  0  0  0
  4 12  1  0  0  0  0
  4 13  1  0  0  0  0
  5 15  1  0  0  0  0
  5  4  1  0  0  0  0
  6 16  1  6  0  0  0
  6  1  1  0  0  0  0
  6  5  1  0  0  0  0
  8  2  1  0  0  0  0
 11  3  1  0  0  0  0
 14  5  1  0  0  0  0
 17 21  1  0  0  0  0
 17  6  1  0  0  0  0
 18 17  2  0  0  0  0
 19 20  2  0  0  0  0
 20 22  1  0  0  0  0
 20 21  1  0  0  0  0
 21 25  1  0  0  0  0
 22 23  1  0  0  0  0
 22 26  1  0  0  0  0
 24 19  1  0  0  0  0
 27 28  2  0  0  0  0
 27 31  1  0  0  0  0
 28 29  1  0  0  0  0
 29 30  2  0  0  0  0
 29 33  1  0  0  0  0
 30  1  1  0  0  0  0
 31 30  1  0  0  0  0
 32 28  1  0  0  0  0
 34 39  1  0  0  0  0
 35 34  2  0  0  0  0
 35 36  1  0  0  0  0
 36 37  2  0  0  0  0
 37 38  1  0  0  0  0
 38 27  1  0  0  0  0
 39 38  2  0  0  0  0
 40 34  1  0  0  0  0
 41 35  1  0  0  0  0
 42 36  1  0  0  0  0
M  END
>  <minimizedAffinity>
-5.66637945

$$$$

 OpenBabel03252509193D

 42 44  0  0  1  0  0  0  0  0999 V2000
   36.3060   29.0880   37.5870 C   0  0  1  0  0  0  0  0  0  0  0  0
   35.3700   28.9930   38.7280 C   0  0  0  0  0  0  0  0  0  0  0  0
   33.9260   28.8140   38.3370 C   0  0  0  0  0  0  0  0  0  0  0  0
   33.7190   27.8180   37.2350 C   0  0  0  0  0  0  0  0  0  0  0  0
   34.7450   27.9390   36.1380 C   0  0  0  0  0  0  0  0  0  0  0  0
   35.5010   29.2640   36.2790 C   0  0  2  0  0  0  0  0  0  0  0  0
   36.8260   28.1070   37.4390 H   0  0  0  0  0  0  0  0  0  0  0  0
   35.4430   29.8760   39.3730 H   0  0  0  0  0  0  0  0  0  0  0  0
   35.6310   28.1180   39.3660 H   0  0  0  0  0  0  0  0  0  0  0  0
   33.3980   28.4280   39.2240 H   0  0  0  0  0  0  0  0  0  0  0  0
   33.5330   29.8210   38.0850 H   0  0  0  0  0  0  0  0  0  0  0  0
   32.7280   28.0350   36.7750 H   0  0  0  0  0  0  0  0  0  0  0  0
   33.6600   26.7810   37.6400 H   0  0  0  0  0  0  0  0  0  0  0  0
   34.3510   27.7920   35.1220 H   0  0  0  0  0  0  0  0  0  0  0  0
   35.5140   27.1500   36.3640 H   0  0  0  0  0  0  0  0  0  0  0  0
   34.7880   30.1090   36.3910 H   0  0  0  0  0  0  0  0  0  0  0  0
   36.4140   29.4240   35.1480 C   0  0  0  0  0  0  0  0  0  0  0  0
   37.2640   28.5570   34.8470 O   0  0  0  0  0  0  0  0  0  0  0  0
   36.7860   29.2910   32.1680 N   0  0  0  0  0  0  0  0  0  0  0  0
   36.7400   30.3320   32.8250 C   0  0  0  0  0  0  0  0  0  0  0  0
   36.5730   30.4510   34.2120 N   0  0  0  0  0  0  0  0  0  0  0  0
   36.8860   31.4900   31.9710 N   0  0  0  0  0  0  0  0  0  0  0  0
   36.1890   31.8260   31.2620 H   0  0  0  0  0  0  0  0  0  0  0  0
   36.7240   28.3300   32.3970 H   0  0  0  0  0  0  0  0  0  0  0  0
   36.5530   31.4210   34.5390 H   0  0  0  0  0  0  0  0  0  0  0  0
   37.7410   32.0750   32.0290 H   0  0  0  0  0  0  0  0  0  0  0  0
   39.7120   31.3100   38.0200 C   0  0  0  0  0  0  0  0  0  0  0  0
   38.5600   32.0890   38.0930 C   0  0  0  0  0  0  0  0  0  0  0  0
   37.3820   31.4770   37.9610 C   0  0  0  0  0  0  0  0  0  0  0  0
   37.3170   30.0780   37.7540 C   0  0  0  0  0  0  0  0  0  0  0  0
   39.0740   29.5980   37.7440 S   0  0  0  0  0  0  0  0  0  0  0  0
   38.6170   33.1560   38.2520 H   0  0  0  0  0  0  0  0  0  0  0  0
   36.3960   31.9050   37.9870 H   0  0  0  0  0  0  0  0  0  0  0  0
   43.2960   31.8120   38.8870 C   0  0  0  0  0  0  0  0  0  0  0  0
   43.5600   32.9940   38.1960 C   0  0  0  0  0  0  0  0  0  0  0  0
   42.5170   33.5760   37.4660 C   0  0  0  0  0  0  0  0  0  0  0  0
   41.2900   32.9480   37.4710 N   0  0  0  0  0  0  0  0  0  0  0  0
   41.0930   31.8100   38.1550 C   0  0  0  0  0  0  0  0  0  0  0  0
   42.1030   31.2380   38.8680 N   0  0  0  0  0  0  0  0  0  0  0  0
   44.0350   31.3050   39.4660 H   0  0  0  0  0  0  0  0  0  0  0  0
   44.5230   33.4410   38.2220 H   0  0  0  0  0  0  0  0  0  0  0  0
   42.6390   34.4820   36.9100 H   0  0  0  0  0  0  0  0  0  0  0  0
  1  7  1  6  0  0  0
  1 30  1  0  0  0  0
  1  2  1  0  0  0  0
  2  9  1  0  0  0  0
  2  8  1  0  0  0  0
  3  2  1  0  0  0  0
  3 10  1  0  0  0  0
  4 13  1  0  0  0  0
  4  3  1  0  0  0  0
  5  6  1  0  0  0  0
  5 15  1  0  0  0  0
  5  4  1  0  0  0  0
  6 16  1  1  0  0  0
  6  1  1  0  0  0  0
 11  3  1  0  0  0  0
 12  4  1  0  0  0  0
 14  5  1  0  0  0  0
 17  6  1  0  0  0  0
 18 17  2  0  0  0  0
 19 24  1  0  0  0  0
 19 20  2  0  0  0  0
 20 21  1  0  0  0  0
 21 25  1  0  0  0  0
 21 17  1  0  0  0  0
 22 26  1  0  0  0  0
 22 20  1  0  0  0  0
 23 22  1  0  0  0  0
 27 28  2  0  0  0  0
 27 38  1  0  0  0  0
 28 32  1  0  0  0  0
 29 33  1  0  0  0  0
 29 28  1  0  0  0  0
 30 29  2  0  0  0  0
 31 30  1  0  0  0  0
 31 27  1  0  0  0  0
 34 40  1  0  0  0  0
 35 41  1  0  0  0  0
 35 34  2  0  0  0  0
 36 37  2  0  0  0  0
 36 35  1  0  0  0  0
 37 38  1  0  0  0  0
 38 39  2  0  0  0  0
 39 34  1  0  0  0  0
 42 36  1  0  0  0  0
M  END
>  <minimizedAffinity>
-5.64122868

$$$$

 OpenBabel03252509193D

 42 44  0  0  1  0  0  0  0  0999 V2000
   37.6340   26.4390   40.1320 C   0  0  1  0  0  0  0  0  0  0  0  0
   37.8580   25.0310   39.7400 C   0  0  0  0  0  0  0  0  0  0  0  0
   38.1450   24.1020   40.8920 C   0  0  0  0  0  0  0  0  0  0  0  0
   37.2530   24.3190   42.0770 C   0  0  0  0  0  0  0  0  0  0  0  0
   37.0270   25.7780   42.3790 C   0  0  0  0  0  0  0  0  0  0  0  0
   38.0430   26.6300   41.6110 C   0  0  2  0  0  0  0  0  0  0  0  0
   36.5370   26.6640   40.1360 H   0  0  0  0  0  0  0  0  0  0  0  0
   38.6800   24.9460   39.0200 H   0  0  0  0  0  0  0  0  0  0  0  0
   36.9540   24.6270   39.2310 H   0  0  0  0  0  0  0  0  0  0  0  0
   37.9590   23.0780   40.5320 H   0  0  0  0  0  0  0  0  0  0  0  0
   39.2210   24.2150   41.1370 H   0  0  0  0  0  0  0  0  0  0  0  0
   37.7690   23.8840   42.9640 H   0  0  0  0  0  0  0  0  0  0  0  0
   36.2950   23.7620   41.9650 H   0  0  0  0  0  0  0  0  0  0  0  0
   37.0010   26.0280   43.4490 H   0  0  0  0  0  0  0  0  0  0  0  0
   36.0360   26.0270   41.9070 H   0  0  0  0  0  0  0  0  0  0  0  0
   39.0720   26.2420   41.7670 H   0  0  0  0  0  0  0  0  0  0  0  0
   37.8890   28.0320   41.9950 C   0  0  0  0  0  0  0  0  0  0  0  0
   38.8080   28.6820   42.5400 O   0  0  0  0  0  0  0  0  0  0  0  0
   37.8390   30.9020   41.0990 N   0  0  0  0  0  0  0  0  0  0  0  0
   36.8490   30.2560   41.4480 C   0  0  0  0  0  0  0  0  0  0  0  0
   36.8170   28.9220   41.8760 N   0  0  0  0  0  0  0  0  0  0  0  0
   35.6510   31.0630   41.3670 N   0  0  0  0  0  0  0  0  0  0  0  0
   35.2000   31.4110   40.4860 H   0  0  0  0  0  0  0  0  0  0  0  0
   38.8040   30.6940   41.0250 H   0  0  0  0  0  0  0  0  0  0  0  0
   35.8750   28.5900   42.1050 H   0  0  0  0  0  0  0  0  0  0  0  0
   35.1560   31.3480   42.2330 H   0  0  0  0  0  0  0  0  0  0  0  0
   40.0910   28.8580   37.9320 C   0  0  0  0  0  0  0  0  0  0  0  0
   38.7440   29.1130   37.6900 C   0  0  0  0  0  0  0  0  0  0  0  0
   37.8420   28.3820   38.3470 C   0  0  0  0  0  0  0  0  0  0  0  0
   38.2520   27.3830   39.2600 C   0  0  0  0  0  0  0  0  0  0  0  0
   40.0690   27.4900   39.1730 S   0  0  0  0  0  0  0  0  0  0  0  0
   38.4380   29.8790   36.9920 H   0  0  0  0  0  0  0  0  0  0  0  0
   36.7690   28.4320   38.2920 H   0  0  0  0  0  0  0  0  0  0  0  0
   42.6430   31.3580   36.8890 C   0  0  0  0  0  0  0  0  0  0  0  0
   43.3900   30.5980   35.9910 C   0  0  0  0  0  0  0  0  0  0  0  0
   43.0030   29.2700   35.7710 C   0  0  0  0  0  0  0  0  0  0  0  0
   41.9050   28.7930   36.4550 N   0  0  0  0  0  0  0  0  0  0  0  0
   41.2230   29.5710   37.3090 C   0  0  0  0  0  0  0  0  0  0  0  0
   41.5940   30.8630   37.5280 N   0  0  0  0  0  0  0  0  0  0  0  0
   42.8720   32.3760   37.1120 H   0  0  0  0  0  0  0  0  0  0  0  0
   44.2290   31.0110   35.4870 H   0  0  0  0  0  0  0  0  0  0  0  0
   43.5230   28.6230   35.0980 H   0  0  0  0  0  0  0  0  0  0  0  0
  1  7  1  6  0  0  0
  1  6  1  0  0  0  0
  2  1  1  0  0  0  0
  2  3  1  0  0  0  0
  3 11  1  0  0  0  0
  3  4  1  0  0  0  0
  4  5  1  0  0  0  0
  4 12  1  0  0  0  0
  5 14  1  0  0  0  0
  6 16  1  1  0  0  0
  6 17  1  0  0  0  0
  6  5  1  0  0  0  0
  8  2  1  0  0  0  0
  9  2  1  0  0  0  0
 10  3  1  0  0  0  0
 13  4  1  0  0  0  0
 15  5  1  0  0  0  0
 17 18  2  0  0  0  0
 19 20  2  0  0  0  0
 20 21  1  0  0  0  0
 21 17  1  0  0  0  0
 21 25  1  0  0  0  0
 22 20  1  0  0  0  0
 22 26  1  0  0  0  0
 23 22  1  0  0  0  0
 24 19  1  0  0  0  0
 27 31  1  0  0  0  0
 28 27  2  0  0  0  0
 28 29  1  0  0  0  0
 29 30  2  0  0  0  0
 30  1  1  0  0  0  0
 31 30  1  0  0  0  0
 32 28  1  0  0  0  0
 33 29  1  0  0  0  0
 34 40  1  0  0  0  0
 34 39  1  0  0  0  0
 35 34  2  0  0  0  0
 36 35  1  0  0  0  0
 36 37  2  0  0  0  0
 37 38  1  0  0  0  0
 38 39  2  0  0  0  0
 38 27  1  0  0  0  0
 41 35  1  0  0  0  0
 42 36  1  0  0  0  0
M  END
>  <minimizedAffinity>
-5.63662195

$$$$

 OpenBabel03252509193D

 42 44  0  0  1  0  0  0  0  0999 V2000
   35.6160   27.9740   37.5120 C   0  0  1  0  0  0  0  0  0  0  0  0
   34.2250   27.4930   37.3730 C   0  0  0  0  0  0  0  0  0  0  0  0
   33.3320   28.3960   36.5630 C   0  0  0  0  0  0  0  0  0  0  0  0
   33.9740   28.9120   35.3110 C   0  0  0  0  0  0  0  0  0  0  0  0
   35.4070   29.3280   35.5190 C   0  0  0  0  0  0  0  0  0  0  0  0
   35.7040   29.4360   37.0180 C   0  0  2  0  0  0  0  0  0  0  0  0
   36.2830   27.4210   36.8020 H   0  0  0  0  0  0  0  0  0  0  0  0
   33.7590   27.3420   38.3540 H   0  0  0  0  0  0  0  0  0  0  0  0
   34.2110   26.5020   36.8660 H   0  0  0  0  0  0  0  0  0  0  0  0
   32.4620   27.7940   36.2540 H   0  0  0  0  0  0  0  0  0  0  0  0
   32.9940   29.2080   37.2400 H   0  0  0  0  0  0  0  0  0  0  0  0
   33.4150   29.8260   35.0040 H   0  0  0  0  0  0  0  0  0  0  0  0
   33.8680   28.1820   34.4750 H   0  0  0  0  0  0  0  0  0  0  0  0
   35.7080   30.2330   34.9710 H   0  0  0  0  0  0  0  0  0  0  0  0
   36.0230   28.4530   35.1710 H   0  0  0  0  0  0  0  0  0  0  0  0
   34.9280   30.0480   37.5250 H   0  0  0  0  0  0  0  0  0  0  0  0
   37.0600   29.9470   37.2090 C   0  0  0  0  0  0  0  0  0  0  0  0
   38.0390   29.5050   36.5670 O   0  0  0  0  0  0  0  0  0  0  0  0
   39.0330   32.1420   36.6310 N   0  0  0  0  0  0  0  0  0  0  0  0
   38.4960   31.9470   37.7230 C   0  0  0  0  0  0  0  0  0  0  0  0
   37.5760   30.9400   38.0470 N   0  0  0  0  0  0  0  0  0  0  0  0
   38.9390   32.9200   38.6980 N   0  0  0  0  0  0  0  0  0  0  0  0
   38.7150   33.9450   38.6920 H   0  0  0  0  0  0  0  0  0  0  0  0
   38.9800   31.6940   35.7500 H   0  0  0  0  0  0  0  0  0  0  0  0
   37.2520   30.9800   39.0190 H   0  0  0  0  0  0  0  0  0  0  0  0
   39.5350   32.6250   39.4950 H   0  0  0  0  0  0  0  0  0  0  0  0
   37.6930   26.9850   40.8940 C   0  0  0  0  0  0  0  0  0  0  0  0
   36.6170   27.8280   41.1620 C   0  0  0  0  0  0  0  0  0  0  0  0
   35.8640   28.2250   40.1360 C   0  0  0  0  0  0  0  0  0  0  0  0
   36.1570   27.7970   38.8190 C   0  0  0  0  0  0  0  0  0  0  0  0
   37.6250   26.7470   39.0640 S   0  0  0  0  0  0  0  0  0  0  0  0
   36.3980   28.1500   42.1700 H   0  0  0  0  0  0  0  0  0  0  0  0
   35.0030   28.8700   40.1440 H   0  0  0  0  0  0  0  0  0  0  0  0
   40.1610   26.5030   43.6370 C   0  0  0  0  0  0  0  0  0  0  0  0
   40.2540   25.1130   43.6530 C   0  0  0  0  0  0  0  0  0  0  0  0
   39.4800   24.3910   42.7350 C   0  0  0  0  0  0  0  0  0  0  0  0
   38.6730   25.0970   41.8700 N   0  0  0  0  0  0  0  0  0  0  0  0
   38.6220   26.4380   41.9000 C   0  0  0  0  0  0  0  0  0  0  0  0
   39.3720   27.1470   42.7910 N   0  0  0  0  0  0  0  0  0  0  0  0
   40.7160   27.1250   44.3040 H   0  0  0  0  0  0  0  0  0  0  0  0
   40.8920   24.6120   44.3400 H   0  0  0  0  0  0  0  0  0  0  0  0
   39.4960   23.3230   42.6830 H   0  0  0  0  0  0  0  0  0  0  0  0
  1  7  1  6  0  0  0
  1 30  1  0  0  0  0
  2  1  1  0  0  0  0
  2  8  1  0  0  0  0
  3 11  1  0  0  0  0
  3  2  1  0  0  0  0
  4  5  1  0  0  0  0
  4  3  1  0  0  0  0
  5  6  1  0  0  0  0
  6 17  1  0  0  0  0
  6  1  1  0  0  0  0
  6 16  1  1  0  0  0
  9  2  1  0  0  0  0
 10  3  1  0  0  0  0
 12  4  1  0  0  0  0
 13  4  1  0  0  0  0
 14  5  1  0  0  0  0
 15  5  1  0  0  0  0
 17 21  1  0  0  0  0
 18 17  2  0  0  0  0
 19 20  2  0  0  0  0
 20 21  1  0  0  0  0
 20 22  1  0  0  0  0
 21 25  1  0  0  0  0
 22 26  1  0  0  0  0
 23 22  1  0  0  0  0
 24 19  1  0  0  0  0
 27 28  2  0  0  0  0
 27 38  1  0  0  0  0
 28 32  1  0  0  0  0
 29 33  1  0  0  0  0
 29 28  1  0  0  0  0
 30 31  1  0  0  0  0
 30 29  2  0  0  0  0
 31 27  1  0  0  0  0
 34 35  1  0  0  0  0
 34 40  1  0  0  0  0
 35 41  1  0  0  0  0
 36 35  2  0  0  0  0
 37 38  2  0  0  0  0
 37 36  1  0  0  0  0
 38 39  1  0  0  0  0
 39 34  2  0  0  0  0
 42 36  1  0  0  0  0
M  END
>  <minimizedAffinity>
-5.52114201

$$$$
