
 OpenBabel03242512283D

 21 21  0  0  0  0  0  0  0  0999 V2000
   44.9580   35.0290   44.5010 C   0  0  0  0  0  0  0  0  0  0  0  0
   45.9140   34.9540   43.4820 C   0  0  0  0  0  0  0  0  0  0  0  0
   46.9480   34.0190   43.6220 C   0  0  0  0  0  0  0  0  0  0  0  0
   46.9560   33.2510   44.7270 N   0  0  0  0  0  0  0  0  0  0  0  0
   46.0250   33.3470   45.6860 C   0  0  0  0  0  0  0  0  0  0  0  0
   45.0250   34.2310   45.5820 N   0  0  0  0  0  0  0  0  0  0  0  0
   43.8940   35.9760   44.3780 N   0  0  0  0  0  0  0  0  0  0  0  0
   45.8780   35.5810   42.6160 H   0  0  0  0  0  0  0  0  0  0  0  0
   47.7240   33.9050   42.8730 H   0  0  0  0  0  0  0  0  0  0  0  0
   42.8900   35.8350   44.6250 H   0  0  0  0  0  0  0  0  0  0  0  0
   44.1670   36.9020   44.0020 H   0  0  0  0  0  0  0  0  0  0  0  0
   46.0610   32.5020   46.8720 C   0  0  0  0  0  0  0  0  0  0  0  0
   45.3500   32.7230   47.8950 O   0  0  0  0  0  0  0  0  0  0  0  0
   47.6950   31.8510   49.0170 N   0  0  0  0  0  0  0  0  0  0  0  0
   47.7730   31.0600   47.9870 C   0  0  0  0  0  0  0  0  0  0  0  0
   46.9440   31.3740   46.8730 N   0  0  0  0  0  0  0  0  0  0  0  0
   48.6070   29.9010   47.8460 N   0  0  0  0  0  0  0  0  0  0  0  0
   47.9280   29.1250   48.0880 H   0  0  0  0  0  0  0  0  0  0  0  0
   48.2900   31.6660   49.8730 H   0  0  0  0  0  0  0  0  0  0  0  0
   46.9640   30.7630   46.0020 H   0  0  0  0  0  0  0  0  0  0  0  0
   49.6060   29.7710   47.5850 H   0  0  0  0  0  0  0  0  0  0  0  0
  1  6  1  0  0  0  0
  2  3  1  0  0  0  0
  2  1  2  0  0  0  0
  3  4  2  0  0  0  0
  4  5  1  0  0  0  0
  5 12  1  0  0  0  0
  6  5  2  0  0  0  0
  7  1  1  0  0  0  0
  7 10  1  0  0  0  0
  8  2  1  0  0  0  0
  9  3  1  0  0  0  0
 11  7  1  0  0  0  0
 12 16  1  0  0  0  0
 12 13  2  0  0  0  0
 14 19  1  0  0  0  0
 15 14  2  0  0  0  0
 16 15  1  0  0  0  0
 17 15  1  0  0  0  0
 17 18  1  0  0  0  0
 20 16  1  0  0  0  0
 21 17  1  0  0  0  0
M  END
>  <minimizedAffinity>
-4.55492496

>  <minimizedRMSD>
0.665073276

$$$$
