
 OpenBabel03242523563D

 44 46  0  0  1  0  0  0  0  0999 V2000
   37.9520   32.3400   40.4070 C   0  0  1  0  0  0  0  0  0  0  0  0
   37.3200   31.1140   41.0460 C   0  0  1  0  0  0  0  0  0  0  0  0
   37.0030   30.1980   40.0160 O   0  0  0  0  0  0  0  0  0  0  0  0
   36.5720   30.8350   38.8450 C   0  0  0  0  0  0  0  0  0  0  0  0
   37.7030   31.5800   38.1660 C   0  0  2  0  0  0  0  0  0  0  0  0
   38.7780   31.8390   39.2710 C   0  0  1  0  0  0  0  0  0  0  0  0
   38.5660   32.8260   41.1920 H   0  0  0  0  0  0  0  0  0  0  0  0
   36.4320   31.3470   41.6470 H   0  0  0  0  0  0  0  0  0  0  0  0
   36.2530   30.0380   38.1750 H   0  0  0  0  0  0  0  0  0  0  0  0
   35.6810   31.4740   39.0120 H   0  0  0  0  0  0  0  0  0  0  0  0
   38.1450   30.9960   37.3350 H   0  0  0  0  0  0  0  0  0  0  0  0
   39.0560   30.7410   39.4060 H   0  0  0  0  0  0  0  0  0  0  0  0
   36.9580   33.2280   39.9520 O   0  0  0  0  0  0  0  0  0  0  0  0
   36.8850   33.9380   40.6110 H   0  0  0  0  0  0  0  0  0  0  0  0
   37.2700   32.8400   37.7800 O   0  0  0  0  0  0  0  0  0  0  0  0
   37.6770   33.0680   36.8970 H   0  0  0  0  0  0  0  0  0  0  0  0
   38.3580   30.4850   41.7450 O   0  0  0  0  0  0  0  0  0  0  0  0
   38.2560   29.3100   42.3760 C   0  0  0  0  0  0  0  0  0  0  0  0
   39.3800   28.5210   42.6170 C   0  0  0  0  0  0  0  0  0  0  0  0
   39.2390   27.3140   43.2720 C   0  0  0  0  0  0  0  0  0  0  0  0
   37.9730   26.9200   43.6750 N   0  0  0  0  0  0  0  0  0  0  0  0
   36.9020   27.7070   43.4280 C   0  0  0  0  0  0  0  0  0  0  0  0
   37.0450   28.8940   42.7830 N   0  0  0  0  0  0  0  0  0  0  0  0
   40.3580   28.8500   42.2910 H   0  0  0  0  0  0  0  0  0  0  0  0
   35.9070   27.3990   43.7450 H   0  0  0  0  0  0  0  0  0  0  0  0
   40.4030   26.4110   43.5430 C   0  0  0  0  0  0  0  0  0  0  0  0
   40.1830   24.9210   43.2960 C   0  0  0  0  0  0  0  0  0  0  0  0
   41.1310   25.8100   42.4680 C   0  0  0  0  0  0  0  0  0  0  0  0
   40.8690   26.6340   44.5260 H   0  0  0  0  0  0  0  0  0  0  0  0
   39.2250   24.6270   42.8700 H   0  0  0  0  0  0  0  0  0  0  0  0
   40.6600   24.2330   43.9900 H   0  0  0  0  0  0  0  0  0  0  0  0
   40.7670   25.9430   41.4210 H   0  0  0  0  0  0  0  0  0  0  0  0
   42.2150   25.5780   42.4910 H   0  0  0  0  0  0  0  0  0  0  0  0
   39.6960   32.6840   38.7610 O   0  0  0  0  0  0  0  0  0  0  0  0
   40.9730   32.9020   39.0630 C   0  0  0  0  0  0  0  0  0  0  0  0
   41.3270   33.6610   40.0940 O   0  0  0  0  0  0  0  0  0  0  0  0
   42.5500   34.1610   36.8220 N   0  0  0  0  0  0  0  0  0  0  0  0
   42.8480   33.1150   37.3900 C   0  0  0  0  0  0  0  0  0  0  0  0
   42.2070   32.4240   38.4310 N   0  0  0  0  0  0  0  0  0  0  0  0
   44.0670   32.5770   36.8350 N   0  0  0  0  0  0  0  0  0  0  0  0
   44.9100   32.2760   37.3690 H   0  0  0  0  0  0  0  0  0  0  0  0
   41.8140   34.8190   36.9010 H   0  0  0  0  0  0  0  0  0  0  0  0
   42.6530   31.5510   38.7520 H   0  0  0  0  0  0  0  0  0  0  0  0
   44.3320   32.3910   35.8430 H   0  0  0  0  0  0  0  0  0  0  0  0
  1  2  1  0  0  0  0
  1  7  1  1  0  0  0
  2  8  1  1  0  0  0
  2 17  1  0  0  0  0
  3  2  1  0  0  0  0
  4 10  1  0  0  0  0
  4  3  1  0  0  0  0
  5 11  1  6  0  0  0
  5  4  1  0  0  0  0
  5  6  1  0  0  0  0
  6 12  1  1  0  0  0
  6  1  1  0  0  0  0
  9  4  1  0  0  0  0
 13  1  1  0  0  0  0
 13 14  1  0  0  0  0
 15  5  1  0  0  0  0
 16 15  1  0  0  0  0
 17 18  1  0  0  0  0
 18 19  2  0  0  0  0
 18 23  1  0  0  0  0
 19 20  1  0  0  0  0
 20 26  1  0  0  0  0
 20 21  2  0  0  0  0
 22 21  1  0  0  0  0
 22 25  1  0  0  0  0
 23 22  2  0  0  0  0
 24 19  1  0  0  0  0
 26 29  1  0  0  0  0
 27 26  1  0  0  0  0
 27 31  1  0  0  0  0
 28 33  1  0  0  0  0
 28 27  1  0  0  0  0
 28 26  1  0  0  0  0
 30 27  1  0  0  0  0
 32 28  1  0  0  0  0
 34 35  1  0  0  0  0
 34  6  1  0  0  0  0
 35 36  2  0  0  0  0
 37 42  1  0  0  0  0
 37 38  2  0  0  0  0
 38 39  1  0  0  0  0
 39 43  1  0  0  0  0
 39 35  1  0  0  0  0
 40 41  1  0  0  0  0
 40 38  1  0  0  0  0
 44 40  1  0  0  0  0
M  END
>  <minimizedAffinity>
-6.55115986

$$$$

 OpenBabel03242523563D

 44 46  0  0  1  0  0  0  0  0999 V2000
   39.5840   30.4660   38.5750 C   0  0  1  0  0  0  0  0  0  0  0  0
   40.6980   29.4410   38.7140 C   0  0  1  0  0  0  0  0  0  0  0  0
   41.8870   30.0150   38.2040 O   0  0  0  0  0  0  0  0  0  0  0  0
   41.6540   30.8370   37.0940 C   0  0  0  0  0  0  0  0  0  0  0  0
   40.9200   32.1050   37.4820 C   0  0  2  0  0  0  0  0  0  0  0  0
   40.2060   31.7960   38.8370 C   0  0  1  0  0  0  0  0  0  0  0  0
   38.8160   30.2040   39.3290 H   0  0  0  0  0  0  0  0  0  0  0  0
   40.4790   28.4900   38.2120 H   0  0  0  0  0  0  0  0  0  0  0  0
   42.6370   31.1240   36.7260 H   0  0  0  0  0  0  0  0  0  0  0  0
   41.1580   30.2960   36.2610 H   0  0  0  0  0  0  0  0  0  0  0  0
   41.6100   32.9630   37.6020 H   0  0  0  0  0  0  0  0  0  0  0  0
   41.1680   31.6970   39.4430 H   0  0  0  0  0  0  0  0  0  0  0  0
   39.0280   30.4190   37.2820 O   0  0  0  0  0  0  0  0  0  0  0  0
   38.1980   29.9190   37.3450 H   0  0  0  0  0  0  0  0  0  0  0  0
   39.8950   32.3480   36.5800 O   0  0  0  0  0  0  0  0  0  0  0  0
   39.8310   33.3310   36.4170 H   0  0  0  0  0  0  0  0  0  0  0  0
   40.9390   29.3410   40.0900 O   0  0  0  0  0  0  0  0  0  0  0  0
   40.3200   28.4910   40.9170 C   0  0  0  0  0  0  0  0  0  0  0  0
   39.6440   27.3730   40.4300 C   0  0  0  0  0  0  0  0  0  0  0  0
   39.0180   26.5160   41.3130 C   0  0  0  0  0  0  0  0  0  0  0  0
   39.0820   26.7950   42.6690 N   0  0  0  0  0  0  0  0  0  0  0  0
   39.7450   27.8870   43.1110 C   0  0  0  0  0  0  0  0  0  0  0  0
   40.3600   28.7280   42.2400 N   0  0  0  0  0  0  0  0  0  0  0  0
   39.6090   27.1780   39.3670 H   0  0  0  0  0  0  0  0  0  0  0  0
   39.7960   28.1070   44.1770 H   0  0  0  0  0  0  0  0  0  0  0  0
   38.2590   25.3100   40.8530 C   0  0  0  0  0  0  0  0  0  0  0  0
   38.3230   24.0780   41.7530 C   0  0  0  0  0  0  0  0  0  0  0  0
   37.0500   24.9110   41.5060 C   0  0  0  0  0  0  0  0  0  0  0  0
   38.4580   25.0880   39.7820 H   0  0  0  0  0  0  0  0  0  0  0  0
   38.8520   24.1850   42.7000 H   0  0  0  0  0  0  0  0  0  0  0  0
   38.3630   23.1110   41.2580 H   0  0  0  0  0  0  0  0  0  0  0  0
   36.7220   25.4520   42.4260 H   0  0  0  0  0  0  0  0  0  0  0  0
   36.1940   24.4160   41.0040 H   0  0  0  0  0  0  0  0  0  0  0  0
   39.3720   32.8200   39.1050 O   0  0  0  0  0  0  0  0  0  0  0  0
   38.5040   33.0300   40.0910 C   0  0  0  0  0  0  0  0  0  0  0  0
   38.7730   33.8600   41.0930 O   0  0  0  0  0  0  0  0  0  0  0  0
   37.7310   30.5240   41.5800 N   0  0  0  0  0  0  0  0  0  0  0  0
   36.9410   31.2980   41.0470 C   0  0  0  0  0  0  0  0  0  0  0  0
   37.1650   32.4820   40.3270 N   0  0  0  0  0  0  0  0  0  0  0  0
   35.5870   30.8380   41.2430 N   0  0  0  0  0  0  0  0  0  0  0  0
   34.7890   31.4010   41.6110 H   0  0  0  0  0  0  0  0  0  0  0  0
   38.7160   30.4790   41.6730 H   0  0  0  0  0  0  0  0  0  0  0  0
   36.3310   32.9730   39.9710 H   0  0  0  0  0  0  0  0  0  0  0  0
   35.1590   29.9030   41.0640 H   0  0  0  0  0  0  0  0  0  0  0  0
  1  2  1  0  0  0  0
  1  6  1  0  0  0  0
  1  7  1  1  0  0  0
  2  8  1  6  0  0  0
  2 17  1  0  0  0  0
  3  2  1  0  0  0  0
  4  5  1  0  0  0  0
  4  3  1  0  0  0  0
  5 11  1  1  0  0  0
  5  6  1  0  0  0  0
  6 34  1  0  0  0  0
  6 12  1  1  0  0  0
  9  4  1  0  0  0  0
 10  4  1  0  0  0  0
 13 14  1  0  0  0  0
 13  1  1  0  0  0  0
 15  5  1  0  0  0  0
 16 15  1  0  0  0  0
 17 18  1  0  0  0  0
 18 23  1  0  0  0  0
 19 18  2  0  0  0  0
 19 20  1  0  0  0  0
 20 21  2  0  0  0  0
 21 22  1  0  0  0  0
 22 25  1  0  0  0  0
 23 22  2  0  0  0  0
 24 19  1  0  0  0  0
 26 20  1  0  0  0  0
 26 28  1  0  0  0  0
 26 27  1  0  0  0  0
 27 30  1  0  0  0  0
 28 27  1  0  0  0  0
 28 32  1  0  0  0  0
 29 26  1  0  0  0  0
 31 27  1  0  0  0  0
 33 28  1  0  0  0  0
 34 35  1  0  0  0  0
 35 39  1  0  0  0  0
 35 36  2  0  0  0  0
 37 42  1  0  0  0  0
 38 40  1  0  0  0  0
 38 37  2  0  0  0  0
 39 38  1  0  0  0  0
 40 41  1  0  0  0  0
 43 39  1  0  0  0  0
 44 40  1  0  0  0  0
M  END
>  <minimizedAffinity>
-6.23511934

$$$$

 OpenBabel03242523563D

 44 46  0  0  1  0  0  0  0  0999 V2000
   37.6670   29.0580   42.0270 C   0  0  1  0  0  0  0  0  0  0  0  0
   37.3470   27.6480   41.5590 C   0  0  1  0  0  0  0  0  0  0  0  0
   36.4130   27.7390   40.5010 O   0  0  0  0  0  0  0  0  0  0  0  0
   35.4910   28.7780   40.6870 C   0  0  0  0  0  0  0  0  0  0  0  0
   36.1460   30.1370   40.5490 C   0  0  2  0  0  0  0  0  0  0  0  0
   37.6710   29.9120   40.8050 C   0  0  1  0  0  0  0  0  0  0  0  0
   38.6620   29.0120   42.5130 H   0  0  0  0  0  0  0  0  0  0  0  0
   36.9670   27.0000   42.3590 H   0  0  0  0  0  0  0  0  0  0  0  0
   34.7660   28.6790   39.8810 H   0  0  0  0  0  0  0  0  0  0  0  0
   34.9190   28.6740   41.6320 H   0  0  0  0  0  0  0  0  0  0  0  0
   35.9890   30.5740   39.5440 H   0  0  0  0  0  0  0  0  0  0  0  0
   37.8460   29.2940   39.8620 H   0  0  0  0  0  0  0  0  0  0  0  0
   36.7000   29.5040   42.9480 O   0  0  0  0  0  0  0  0  0  0  0  0
   37.0830   29.4080   43.8350 H   0  0  0  0  0  0  0  0  0  0  0  0
   35.7250   30.9670   41.5780 O   0  0  0  0  0  0  0  0  0  0  0  0
   35.6080   31.8920   41.2230 H   0  0  0  0  0  0  0  0  0  0  0  0
   38.5150   27.1910   40.9350 O   0  0  0  0  0  0  0  0  0  0  0  0
   39.4580   26.4450   41.5220 C   0  0  0  0  0  0  0  0  0  0  0  0
   40.8110   26.7420   41.3700 C   0  0  0  0  0  0  0  0  0  0  0  0
   41.7570   25.9510   41.9910 C   0  0  0  0  0  0  0  0  0  0  0  0
   41.3280   24.8770   42.7540 N   0  0  0  0  0  0  0  0  0  0  0  0
   40.0090   24.6140   42.8830 C   0  0  0  0  0  0  0  0  0  0  0  0
   39.0810   25.3940   42.2710 N   0  0  0  0  0  0  0  0  0  0  0  0
   41.1200   27.5860   40.7680 H   0  0  0  0  0  0  0  0  0  0  0  0
   39.6710   23.7700   43.4830 H   0  0  0  0  0  0  0  0  0  0  0  0
   43.2270   26.2050   41.8520 C   0  0  0  0  0  0  0  0  0  0  0  0
   43.7220   27.5900   42.2600 C   0  0  0  0  0  0  0  0  0  0  0  0
   44.0690   26.2860   43.0050 C   0  0  0  0  0  0  0  0  0  0  0  0
   43.6040   25.8720   40.8610 H   0  0  0  0  0  0  0  0  0  0  0  0
   42.9890   28.2690   42.6920 H   0  0  0  0  0  0  0  0  0  0  0  0
   44.5190   28.0220   41.6590 H   0  0  0  0  0  0  0  0  0  0  0  0
   43.6080   26.2540   44.0220 H   0  0  0  0  0  0  0  0  0  0  0  0
   45.1310   25.9710   43.0350 H   0  0  0  0  0  0  0  0  0  0  0  0
   38.2550   31.1230   40.9060 O   0  0  0  0  0  0  0  0  0  0  0  0
   38.3610   32.1370   40.0520 C   0  0  0  0  0  0  0  0  0  0  0  0
   37.4670   33.1190   40.0210 O   0  0  0  0  0  0  0  0  0  0  0  0
   38.4150   31.2840   37.1600 N   0  0  0  0  0  0  0  0  0  0  0  0
   39.2710   31.9740   37.7060 C   0  0  0  0  0  0  0  0  0  0  0  0
   39.3690   32.4330   39.0290 N   0  0  0  0  0  0  0  0  0  0  0  0
   40.3050   32.3250   36.7610 N   0  0  0  0  0  0  0  0  0  0  0  0
   40.6700   33.2830   36.5710 H   0  0  0  0  0  0  0  0  0  0  0  0
   37.5710   30.8530   37.4470 H   0  0  0  0  0  0  0  0  0  0  0  0
   40.1910   33.0110   39.2600 H   0  0  0  0  0  0  0  0  0  0  0  0
   40.8620   31.7220   36.1170 H   0  0  0  0  0  0  0  0  0  0  0  0
  1  7  1  1  0  0  0
  1 13  1  0  0  0  0
  2  1  1  0  0  0  0
  2  8  1  1  0  0  0
  3  4  1  0  0  0  0
  3  2  1  0  0  0  0
  4 10  1  0  0  0  0
  5 11  1  6  0  0  0
  5  4  1  0  0  0  0
  5  6  1  0  0  0  0
  5 15  1  0  0  0  0
  6 12  1  6  0  0  0
  6 34  1  0  0  0  0
  6  1  1  0  0  0  0
  9  4  1  0  0  0  0
 13 14  1  0  0  0  0
 16 15  1  0  0  0  0
 17 18  1  0  0  0  0
 17  2  1  0  0  0  0
 18 23  1  0  0  0  0
 19 18  2  0  0  0  0
 19 20  1  0  0  0  0
 20 21  2  0  0  0  0
 21 22  1  0  0  0  0
 22 25  1  0  0  0  0
 23 22  2  0  0  0  0
 24 19  1  0  0  0  0
 26 20  1  0  0  0  0
 26 27  1  0  0  0  0
 26 28  1  0  0  0  0
 27 30  1  0  0  0  0
 27 28  1  0  0  0  0
 28 33  1  0  0  0  0
 28 32  1  0  0  0  0
 29 26  1  0  0  0  0
 31 27  1  0  0  0  0
 35 34  1  0  0  0  0
 36 35  2  0  0  0  0
 37 42  1  0  0  0  0
 37 38  2  0  0  0  0
 38 39  1  0  0  0  0
 39 43  1  0  0  0  0
 39 35  1  0  0  0  0
 40 38  1  0  0  0  0
 41 40  1  0  0  0  0
 44 40  1  0  0  0  0
M  END
>  <minimizedAffinity>
-6.1503005

$$$$

 OpenBabel03242523563D

 44 46  0  0  1  0  0  0  0  0999 V2000
   37.3960   32.2110   39.0980 C   0  0  1  0  0  0  0  0  0  0  0  0
   38.8860   32.3920   39.3420 C   0  0  1  0  0  0  0  0  0  0  0  0
   39.2950   31.4260   40.2910 O   0  0  0  0  0  0  0  0  0  0  0  0
   38.3200   31.1890   41.2690 C   0  0  0  0  0  0  0  0  0  0  0  0
   37.1170   30.4690   40.6950 C   0  0  2  0  0  0  0  0  0  0  0  0
   37.1400   30.7440   39.1570 C   0  0  1  0  0  0  0  0  0  0  0  0
   37.1850   32.6370   38.0970 H   0  0  0  0  0  0  0  0  0  0  0  0
   39.1520   33.4030   39.6750 H   0  0  0  0  0  0  0  0  0  0  0  0
   38.7850   30.5250   41.9960 H   0  0  0  0  0  0  0  0  0  0  0  0
   38.0420   32.1080   41.8240 H   0  0  0  0  0  0  0  0  0  0  0  0
   37.1540   29.3790   40.8880 H   0  0  0  0  0  0  0  0  0  0  0  0
   38.0890   30.1430   38.9570 H   0  0  0  0  0  0  0  0  0  0  0  0
   36.6500   32.8910   40.0800 O   0  0  0  0  0  0  0  0  0  0  0  0
   36.3440   33.7220   39.6820 H   0  0  0  0  0  0  0  0  0  0  0  0
   35.9520   31.0670   41.1520 O   0  0  0  0  0  0  0  0  0  0  0  0
   35.2690   30.3590   41.3270 H   0  0  0  0  0  0  0  0  0  0  0  0
   39.5070   31.9790   38.1560 O   0  0  0  0  0  0  0  0  0  0  0  0
   40.7880   32.2020   37.8420 C   0  0  0  0  0  0  0  0  0  0  0  0
   41.6010   31.1780   37.3570 C   0  0  0  0  0  0  0  0  0  0  0  0
   42.9180   31.4440   37.0420 C   0  0  0  0  0  0  0  0  0  0  0  0
   43.3970   32.7330   37.2180 N   0  0  0  0  0  0  0  0  0  0  0  0
   42.5850   33.7040   37.6900 C   0  0  0  0  0  0  0  0  0  0  0  0
   41.2890   33.4390   37.9990 N   0  0  0  0  0  0  0  0  0  0  0  0
   41.2030   30.1800   37.2290 H   0  0  0  0  0  0  0  0  0  0  0  0
   42.9600   34.7170   37.8290 H   0  0  0  0  0  0  0  0  0  0  0  0
   43.8480   30.3850   36.5350 C   0  0  0  0  0  0  0  0  0  0  0  0
   43.5560   29.8290   35.1440 C   0  0  0  0  0  0  0  0  0  0  0  0
   44.7950   30.6740   35.5010 C   0  0  0  0  0  0  0  0  0  0  0  0
   44.0240   29.5990   37.3000 H   0  0  0  0  0  0  0  0  0  0  0  0
   42.7410   30.2900   34.5880 H   0  0  0  0  0  0  0  0  0  0  0  0
   43.7310   28.7660   34.9940 H   0  0  0  0  0  0  0  0  0  0  0  0
   44.7730   31.6730   35.0040 H   0  0  0  0  0  0  0  0  0  0  0  0
   45.7920   30.2000   35.4080 H   0  0  0  0  0  0  0  0  0  0  0  0
   35.9730   30.3050   38.6430 O   0  0  0  0  0  0  0  0  0  0  0  0
   35.6910   29.3790   37.7310 C   0  0  0  0  0  0  0  0  0  0  0  0
   35.1990   28.1930   38.0700 O   0  0  0  0  0  0  0  0  0  0  0  0
   38.0570   28.5860   36.0390 N   0  0  0  0  0  0  0  0  0  0  0  0
   36.9850   28.9930   35.6020 C   0  0  0  0  0  0  0  0  0  0  0  0
   35.8180   29.3970   36.2700 N   0  0  0  0  0  0  0  0  0  0  0  0
   37.0180   29.0320   34.1590 N   0  0  0  0  0  0  0  0  0  0  0  0
   36.3130   28.6170   33.5130 H   0  0  0  0  0  0  0  0  0  0  0  0
   38.4310   28.4180   36.9400 H   0  0  0  0  0  0  0  0  0  0  0  0
   35.0290   29.7030   35.6820 H   0  0  0  0  0  0  0  0  0  0  0  0
   37.7150   29.4590   33.5110 H   0  0  0  0  0  0  0  0  0  0  0  0
  1  7  1  6  0  0  0
  1  6  1  0  0  0  0
  1  2  1  0  0  0  0
  1 13  1  0  0  0  0
  2  8  1  1  0  0  0
  2  3  1  0  0  0  0
  3  4  1  0  0  0  0
  4 10  1  0  0  0  0
  4  9  1  0  0  0  0
  5 11  1  1  0  0  0
  5 15  1  0  0  0  0
  5  4  1  0  0  0  0
  6 12  1  6  0  0  0
  6  5  1  0  0  0  0
 14 13  1  0  0  0  0
 15 16  1  0  0  0  0
 17  2  1  0  0  0  0
 18 23  1  0  0  0  0
 18 17  1  0  0  0  0
 19 18  2  0  0  0  0
 20 21  2  0  0  0  0
 20 19  1  0  0  0  0
 21 22  1  0  0  0  0
 22 25  1  0  0  0  0
 22 23  2  0  0  0  0
 24 19  1  0  0  0  0
 26 20  1  0  0  0  0
 26 29  1  0  0  0  0
 27 28  1  0  0  0  0
 27 26  1  0  0  0  0
 28 26  1  0  0  0  0
 30 27  1  0  0  0  0
 31 27  1  0  0  0  0
 32 28  1  0  0  0  0
 33 28  1  0  0  0  0
 34  6  1  0  0  0  0
 35 36  2  0  0  0  0
 35 34  1  0  0  0  0
 37 42  1  0  0  0  0
 38 37  2  0  0  0  0
 38 39  1  0  0  0  0
 39 35  1  0  0  0  0
 40 38  1  0  0  0  0
 41 40  1  0  0  0  0
 43 39  1  0  0  0  0
 44 40  1  0  0  0  0
M  END
>  <minimizedAffinity>
-6.08519268

$$$$

 OpenBabel03242523563D

 44 46  0  0  1  0  0  0  0  0999 V2000
   38.7660   31.5000   39.9190 C   0  0  1  0  0  0  0  0  0  0  0  0
   39.5450   32.2590   40.9810 C   0  0  1  0  0  0  0  0  0  0  0  0
   38.9450   33.5290   41.1410 O   0  0  0  0  0  0  0  0  0  0  0  0
   38.4690   34.0540   39.9330 C   0  0  0  0  0  0  0  0  0  0  0  0
   37.2690   33.2820   39.4220 C   0  0  2  0  0  0  0  0  0  0  0  0
   37.3350   31.8770   40.1030 C   0  0  1  0  0  0  0  0  0  0  0  0
   38.9450   30.4220   40.1030 H   0  0  0  0  0  0  0  0  0  0  0  0
   40.6130   32.3590   40.7480 H   0  0  0  0  0  0  0  0  0  0  0  0
   38.1370   35.0660   40.1590 H   0  0  0  0  0  0  0  0  0  0  0  0
   39.2670   34.1540   39.1690 H   0  0  0  0  0  0  0  0  0  0  0  0
   36.3140   33.7830   39.6750 H   0  0  0  0  0  0  0  0  0  0  0  0
   37.1350   32.2620   41.1580 H   0  0  0  0  0  0  0  0  0  0  0  0
   39.2160   31.8520   38.6320 O   0  0  0  0  0  0  0  0  0  0  0  0
   39.8040   31.1400   38.3290 H   0  0  0  0  0  0  0  0  0  0  0  0
   37.4140   33.0340   38.0650 O   0  0  0  0  0  0  0  0  0  0  0  0
   36.5240   33.1180   37.6220 H   0  0  0  0  0  0  0  0  0  0  0  0
   39.2630   31.6020   42.1860 O   0  0  0  0  0  0  0  0  0  0  0  0
   39.5970   30.3370   42.4670 C   0  0  0  0  0  0  0  0  0  0  0  0
   38.6260   29.3910   42.7950 C   0  0  0  0  0  0  0  0  0  0  0  0
   39.0060   28.0950   43.0780 C   0  0  0  0  0  0  0  0  0  0  0  0
   40.3520   27.7690   43.0260 N   0  0  0  0  0  0  0  0  0  0  0  0
   41.2700   28.7080   42.7040 C   0  0  0  0  0  0  0  0  0  0  0  0
   40.8930   29.9830   42.4260 N   0  0  0  0  0  0  0  0  0  0  0  0
   37.5820   29.6710   42.8290 H   0  0  0  0  0  0  0  0  0  0  0  0
   42.3280   28.4530   42.6630 H   0  0  0  0  0  0  0  0  0  0  0  0
   38.0160   27.0370   43.4570 C   0  0  0  0  0  0  0  0  0  0  0  0
   36.5770   27.4960   43.6800 C   0  0  0  0  0  0  0  0  0  0  0  0
   37.0300   26.5860   42.5210 C   0  0  0  0  0  0  0  0  0  0  0  0
   38.4060   26.3870   44.2690 H   0  0  0  0  0  0  0  0  0  0  0  0
   36.3560   28.5440   43.4760 H   0  0  0  0  0  0  0  0  0  0  0  0
   36.0260   27.0100   44.4810 H   0  0  0  0  0  0  0  0  0  0  0  0
   36.9420   27.0980   41.5330 H   0  0  0  0  0  0  0  0  0  0  0  0
   36.6230   25.5570   42.4800 H   0  0  0  0  0  0  0  0  0  0  0  0
   36.4140   31.0900   39.5120 O   0  0  0  0  0  0  0  0  0  0  0  0
   36.4910   29.8790   38.9670 C   0  0  0  0  0  0  0  0  0  0  0  0
   36.6770   28.7920   39.7060 O   0  0  0  0  0  0  0  0  0  0  0  0
   38.7010   29.6060   36.9340 N   0  0  0  0  0  0  0  0  0  0  0  0
   37.5180   29.3570   36.7240 C   0  0  0  0  0  0  0  0  0  0  0  0
   36.4000   29.4460   37.5690 N   0  0  0  0  0  0  0  0  0  0  0  0
   37.3370   28.9080   35.3640 N   0  0  0  0  0  0  0  0  0  0  0  0
   36.8380   28.0450   35.0580 H   0  0  0  0  0  0  0  0  0  0  0  0
   39.2250   29.9270   37.7100 H   0  0  0  0  0  0  0  0  0  0  0  0
   35.4910   29.1770   37.1660 H   0  0  0  0  0  0  0  0  0  0  0  0
   37.6520   29.3350   34.4650 H   0  0  0  0  0  0  0  0  0  0  0  0
  1  7  1  1  0  0  0
  1  6  1  0  0  0  0
  1  2  1  0  0  0  0
  2  8  1  6  0  0  0
  2  3  1  0  0  0  0
  2 17  1  0  0  0  0
  4  9  1  0  0  0  0
  4  3  1  0  0  0  0
  5 11  1  1  0  0  0
  5  4  1  0  0  0  0
  5  6  1  0  0  0  0
  6 12  1  1  0  0  0
 10  4  1  0  0  0  0
 13  1  1  0  0  0  0
 14 13  1  0  0  0  0
 15  5  1  0  0  0  0
 16 15  1  0  0  0  0
 17 18  1  0  0  0  0
 18 19  1  0  0  0  0
 19 24  1  0  0  0  0
 19 20  2  0  0  0  0
 20 26  1  0  0  0  0
 21 20  1  0  0  0  0
 22 21  2  0  0  0  0
 23 18  2  0  0  0  0
 23 22  1  0  0  0  0
 25 22  1  0  0  0  0
 26 27  1  0  0  0  0
 26 29  1  0  0  0  0
 27 31  1  0  0  0  0
 28 26  1  0  0  0  0
 28 27  1  0  0  0  0
 30 27  1  0  0  0  0
 32 28  1  0  0  0  0
 33 28  1  0  0  0  0
 34  6  1  0  0  0  0
 35 34  1  0  0  0  0
 35 36  2  0  0  0  0
 37 42  1  0  0  0  0
 38 37  2  0  0  0  0
 38 39  1  0  0  0  0
 39 35  1  0  0  0  0
 40 38  1  0  0  0  0
 41 40  1  0  0  0  0
 43 39  1  0  0  0  0
 44 40  1  0  0  0  0
M  END
>  <minimizedAffinity>
-6.06561518

$$$$

 OpenBabel03242523563D

 44 46  0  0  1  0  0  0  0  0999 V2000
   37.9640   32.3620   39.4020 C   0  0  1  0  0  0  0  0  0  0  0  0
   37.2090   31.1190   39.8450 C   0  0  1  0  0  0  0  0  0  0  0  0
   37.7260   30.0140   39.1290 O   0  0  0  0  0  0  0  0  0  0  0  0
   38.0770   30.3430   37.8130 C   0  0  0  0  0  0  0  0  0  0  0  0
   39.2900   31.2500   37.7680 C   0  0  2  0  0  0  0  0  0  0  0  0
   39.3730   31.9330   39.1710 C   0  0  1  0  0  0  0  0  0  0  0  0
   37.8770   33.0970   40.2270 H   0  0  0  0  0  0  0  0  0  0  0  0
   36.1230   31.1980   39.7080 H   0  0  0  0  0  0  0  0  0  0  0  0
   38.3490   29.4040   37.3350 H   0  0  0  0  0  0  0  0  0  0  0  0
   37.2210   30.7480   37.2340 H   0  0  0  0  0  0  0  0  0  0  0  0
   40.2220   30.6870   37.5630 H   0  0  0  0  0  0  0  0  0  0  0  0
   39.6190   30.9750   39.7400 H   0  0  0  0  0  0  0  0  0  0  0  0
   37.4000   32.8880   38.2230 O   0  0  0  0  0  0  0  0  0  0  0  0
   36.8460   33.6420   38.4830 H   0  0  0  0  0  0  0  0  0  0  0  0
   39.0680   32.2860   36.8740 O   0  0  0  0  0  0  0  0  0  0  0  0
   39.9170   32.4830   36.3860 H   0  0  0  0  0  0  0  0  0  0  0  0
   37.6210   30.8860   41.1630 O   0  0  0  0  0  0  0  0  0  0  0  0
   37.6780   29.6840   41.7490 C   0  0  0  0  0  0  0  0  0  0  0  0
   38.8730   29.1950   42.2760 C   0  0  0  0  0  0  0  0  0  0  0  0
   38.8940   27.9510   42.8740 C   0  0  0  0  0  0  0  0  0  0  0  0
   37.7180   27.2210   42.9350 N   0  0  0  0  0  0  0  0  0  0  0  0
   36.5750   27.7230   42.4150 C   0  0  0  0  0  0  0  0  0  0  0  0
   36.5570   28.9470   41.8270 N   0  0  0  0  0  0  0  0  0  0  0  0
   39.7770   29.7840   42.2150 H   0  0  0  0  0  0  0  0  0  0  0  0
   35.6500   27.1500   42.4630 H   0  0  0  0  0  0  0  0  0  0  0  0
   40.1480   27.3590   43.4420 C   0  0  0  0  0  0  0  0  0  0  0  0
   41.1360   26.7660   42.4410 C   0  0  0  0  0  0  0  0  0  0  0  0
   41.4060   28.0240   43.2900 C   0  0  0  0  0  0  0  0  0  0  0  0
   39.9280   26.6900   44.3010 H   0  0  0  0  0  0  0  0  0  0  0  0
   40.8980   26.8790   41.3840 H   0  0  0  0  0  0  0  0  0  0  0  0
   41.6610   25.8630   42.7470 H   0  0  0  0  0  0  0  0  0  0  0  0
   41.4660   28.9440   42.6600 H   0  0  0  0  0  0  0  0  0  0  0  0
   42.2330   27.9860   44.0260 H   0  0  0  0  0  0  0  0  0  0  0  0
   40.3060   32.9040   39.1010 O   0  0  0  0  0  0  0  0  0  0  0  0
   41.2160   33.3330   39.9710 C   0  0  0  0  0  0  0  0  0  0  0  0
   42.1910   34.1580   39.6100 O   0  0  0  0  0  0  0  0  0  0  0  0
   42.7680   31.1120   41.2940 N   0  0  0  0  0  0  0  0  0  0  0  0
   42.1430   31.9850   41.8890 C   0  0  0  0  0  0  0  0  0  0  0  0
   41.3830   33.0600   41.4020 N   0  0  0  0  0  0  0  0  0  0  0  0
   42.2640   31.7980   43.3160 N   0  0  0  0  0  0  0  0  0  0  0  0
   42.5470   32.5210   44.0120 H   0  0  0  0  0  0  0  0  0  0  0  0
   42.9330   30.8900   40.3430 H   0  0  0  0  0  0  0  0  0  0  0  0
   40.9450   33.6740   42.1040 H   0  0  0  0  0  0  0  0  0  0  0  0
   42.1020   30.9500   43.9020 H   0  0  0  0  0  0  0  0  0  0  0  0
  1  2  1  0  0  0  0
  1  7  1  1  0  0  0
  2  8  1  6  0  0  0
  2 17  1  0  0  0  0
  3  2  1  0  0  0  0
  4  3  1  0  0  0  0
  5 11  1  6  0  0  0
  5  4  1  0  0  0  0
  5  6  1  0  0  0  0
  6  1  1  0  0  0  0
  6 12  1  1  0  0  0
  9  4  1  0  0  0  0
 10  4  1  0  0  0  0
 13 14  1  0  0  0  0
 13  1  1  0  0  0  0
 15  5  1  0  0  0  0
 16 15  1  0  0  0  0
 17 18  1  0  0  0  0
 18 23  2  0  0  0  0
 18 19  1  0  0  0  0
 19 20  2  0  0  0  0
 20 21  1  0  0  0  0
 20 26  1  0  0  0  0
 22 25  1  0  0  0  0
 22 21  2  0  0  0  0
 23 22  1  0  0  0  0
 24 19  1  0  0  0  0
 26 29  1  0  0  0  0
 27 31  1  0  0  0  0
 27 28  1  0  0  0  0
 27 26  1  0  0  0  0
 28 26  1  0  0  0  0
 28 33  1  0  0  0  0
 30 27  1  0  0  0  0
 32 28  1  0  0  0  0
 34  6  1  0  0  0  0
 34 35  1  0  0  0  0
 35 39  1  0  0  0  0
 36 35  2  0  0  0  0
 37 38  2  0  0  0  0
 38 40  1  0  0  0  0
 39 38  1  0  0  0  0
 39 43  1  0  0  0  0
 40 44  1  0  0  0  0
 40 41  1  0  0  0  0
 42 37  1  0  0  0  0
M  END
>  <minimizedAffinity>
-5.95447397

$$$$

 OpenBabel03242523563D

 44 46  0  0  1  0  0  0  0  0999 V2000
   39.7490   30.6990   40.7240 C   0  0  1  0  0  0  0  0  0  0  0  0
   40.5130   30.0350   41.8580 C   0  0  1  0  0  0  0  0  0  0  0  0
   41.3180   31.0180   42.4780 O   0  0  0  0  0  0  0  0  0  0  0  0
   41.8360   31.9430   41.5630 C   0  0  0  0  0  0  0  0  0  0  0  0
   40.7520   32.8390   40.9990 C   0  0  2  0  0  0  0  0  0  0  0  0
   39.4060   32.0700   41.1990 C   0  0  1  0  0  0  0  0  0  0  0  0
   38.8490   30.0780   40.5420 H   0  0  0  0  0  0  0  0  0  0  0  0
   41.1220   29.1820   41.5310 H   0  0  0  0  0  0  0  0  0  0  0  0
   42.5200   32.5720   42.1310 H   0  0  0  0  0  0  0  0  0  0  0  0
   42.4460   31.4620   40.7700 H   0  0  0  0  0  0  0  0  0  0  0  0
   40.7110   33.8180   41.5160 H   0  0  0  0  0  0  0  0  0  0  0  0
   39.4170   32.1340   42.3380 H   0  0  0  0  0  0  0  0  0  0  0  0
   40.5410   30.7540   39.5610 O   0  0  0  0  0  0  0  0  0  0  0  0
   40.2480   30.0320   38.9800 H   0  0  0  0  0  0  0  0  0  0  0  0
   40.9040   32.9520   39.6250 O   0  0  0  0  0  0  0  0  0  0  0  0
   40.6850   33.8860   39.3480 H   0  0  0  0  0  0  0  0  0  0  0  0
   39.5480   29.7330   42.8270 O   0  0  0  0  0  0  0  0  0  0  0  0
   38.7290   28.6750   42.7930 C   0  0  0  0  0  0  0  0  0  0  0  0
   39.2300   27.3800   42.6610 C   0  0  0  0  0  0  0  0  0  0  0  0
   38.3560   26.3120   42.6300 C   0  0  0  0  0  0  0  0  0  0  0  0
   36.9970   26.5610   42.7340 N   0  0  0  0  0  0  0  0  0  0  0  0
   36.5420   27.8270   42.8610 C   0  0  0  0  0  0  0  0  0  0  0  0
   37.4040   28.8760   42.8910 N   0  0  0  0  0  0  0  0  0  0  0  0
   40.2950   27.2130   42.5810 H   0  0  0  0  0  0  0  0  0  0  0  0
   35.4740   28.0240   42.9430 H   0  0  0  0  0  0  0  0  0  0  0  0
   38.8280   24.8990   42.4700 C   0  0  0  0  0  0  0  0  0  0  0  0
   37.8870   23.9440   41.7400 C   0  0  0  0  0  0  0  0  0  0  0  0
   39.2520   24.4080   41.1950 C   0  0  0  0  0  0  0  0  0  0  0  0
   39.2210   24.4920   43.4260 H   0  0  0  0  0  0  0  0  0  0  0  0
   36.9760   24.3710   41.3220 H   0  0  0  0  0  0  0  0  0  0  0  0
   37.8430   22.9220   42.1090 H   0  0  0  0  0  0  0  0  0  0  0  0
   39.1410   25.0570   40.2940 H   0  0  0  0  0  0  0  0  0  0  0  0
   40.0390   23.6420   41.0430 H   0  0  0  0  0  0  0  0  0  0  0  0
   38.4490   32.7320   40.5200 O   0  0  0  0  0  0  0  0  0  0  0  0
   37.5680   32.3380   39.6050 C   0  0  0  0  0  0  0  0  0  0  0  0
   36.5780   31.5040   39.9030 O   0  0  0  0  0  0  0  0  0  0  0  0
   38.8200   30.9580   37.2340 N   0  0  0  0  0  0  0  0  0  0  0  0
   38.0810   31.9360   37.1690 C   0  0  0  0  0  0  0  0  0  0  0  0
   37.4440   32.6700   38.1820 N   0  0  0  0  0  0  0  0  0  0  0  0
   37.8930   32.3270   35.7920 N   0  0  0  0  0  0  0  0  0  0  0  0
   36.9810   32.4950   35.3160 H   0  0  0  0  0  0  0  0  0  0  0  0
   39.1860   30.4000   37.9660 H   0  0  0  0  0  0  0  0  0  0  0  0
   36.8590   33.4640   37.8820 H   0  0  0  0  0  0  0  0  0  0  0  0
   38.5940   32.5090   35.0410 H   0  0  0  0  0  0  0  0  0  0  0  0
  1  7  1  6  0  0  0
  1  6  1  0  0  0  0
  1  2  1  0  0  0  0
  2  8  1  6  0  0  0
  2  3  1  0  0  0  0
  2 17  1  0  0  0  0
  4  9  1  0  0  0  0
  4  3  1  0  0  0  0
  5  6  1  0  0  0  0
  5 11  1  1  0  0  0
  5  4  1  0  0  0  0
  6 12  1  1  0  0  0
 10  4  1  0  0  0  0
 13  1  1  0  0  0  0
 14 13  1  0  0  0  0
 15  5  1  0  0  0  0
 16 15  1  0  0  0  0
 18 17  1  0  0  0  0
 18 23  1  0  0  0  0
 19 18  2  0  0  0  0
 20 19  1  0  0  0  0
 20 21  2  0  0  0  0
 21 22  1  0  0  0  0
 22 23  2  0  0  0  0
 22 25  1  0  0  0  0
 24 19  1  0  0  0  0
 26 20  1  0  0  0  0
 26 29  1  0  0  0  0
 27 31  1  0  0  0  0
 27 26  1  0  0  0  0
 28 27  1  0  0  0  0
 28 26  1  0  0  0  0
 30 27  1  0  0  0  0
 32 28  1  0  0  0  0
 33 28  1  0  0  0  0
 34  6  1  0  0  0  0
 35 36  2  0  0  0  0
 35 34  1  0  0  0  0
 37 42  1  0  0  0  0
 38 37  2  0  0  0  0
 38 39  1  0  0  0  0
 39 35  1  0  0  0  0
 40 38  1  0  0  0  0
 41 40  1  0  0  0  0
 43 39  1  0  0  0  0
 44 40  1  0  0  0  0
M  END
>  <minimizedAffinity>
-5.93217087

$$$$

 OpenBabel03242523563D

 44 46  0  0  1  0  0  0  0  0999 V2000
   38.0250   31.3800   40.5240 C   0  0  1  0  0  0  0  0  0  0  0  0
   37.5600   29.9560   40.2660 C   0  0  1  0  0  0  0  0  0  0  0  0
   37.3060   29.8230   38.8810 O   0  0  0  0  0  0  0  0  0  0  0  0
   36.7600   30.9850   38.3210 C   0  0  0  0  0  0  0  0  0  0  0  0
   37.7720   32.1120   38.2740 C   0  0  2  0  0  0  0  0  0  0  0  0
   38.8550   31.7680   39.3480 C   0  0  1  0  0  0  0  0  0  0  0  0
   38.6120   31.3560   41.4640 H   0  0  0  0  0  0  0  0  0  0  0  0
   36.6770   29.6740   40.8530 H   0  0  0  0  0  0  0  0  0  0  0  0
   36.5050   30.7290   37.2940 H   0  0  0  0  0  0  0  0  0  0  0  0
   35.8100   31.2870   38.8090 H   0  0  0  0  0  0  0  0  0  0  0  0
   38.2430   32.2060   37.2760 H   0  0  0  0  0  0  0  0  0  0  0  0
   39.2590   30.8530   38.7990 H   0  0  0  0  0  0  0  0  0  0  0  0
   36.9200   32.2420   40.6660 O   0  0  0  0  0  0  0  0  0  0  0  0
   36.7950   32.3930   41.6170 H   0  0  0  0  0  0  0  0  0  0  0  0
   37.1850   33.2880   38.7160 O   0  0  0  0  0  0  0  0  0  0  0  0
   37.5280   34.0490   38.1690 H   0  0  0  0  0  0  0  0  0  0  0  0
   38.6890   29.1540   40.4770 O   0  0  0  0  0  0  0  0  0  0  0  0
   38.7830   28.1860   41.3960 C   0  0  0  0  0  0  0  0  0  0  0  0
   38.0560   27.0030   41.2730 C   0  0  0  0  0  0  0  0  0  0  0  0
   38.1780   26.0240   42.2390 C   0  0  0  0  0  0  0  0  0  0  0  0
   39.0280   26.2500   43.3100 N   0  0  0  0  0  0  0  0  0  0  0  0
   39.7190   27.4070   43.4020 C   0  0  0  0  0  0  0  0  0  0  0  0
   39.5970   28.3680   42.4490 N   0  0  0  0  0  0  0  0  0  0  0  0
   37.4000   26.8520   40.4260 H   0  0  0  0  0  0  0  0  0  0  0  0
   40.3870   27.5850   44.2430 H   0  0  0  0  0  0  0  0  0  0  0  0
   37.4110   24.7390   42.1760 C   0  0  0  0  0  0  0  0  0  0  0  0
   36.6390   24.4670   40.8870 C   0  0  0  0  0  0  0  0  0  0  0  0
   37.8620   23.6550   41.3580 C   0  0  0  0  0  0  0  0  0  0  0  0
   36.8090   24.5800   43.0960 H   0  0  0  0  0  0  0  0  0  0  0  0
   36.7590   25.1870   40.0780 H   0  0  0  0  0  0  0  0  0  0  0  0
   35.6740   23.9770   40.9880 H   0  0  0  0  0  0  0  0  0  0  0  0
   38.7420   23.8060   40.6880 H   0  0  0  0  0  0  0  0  0  0  0  0
   37.7130   22.5820   41.5930 H   0  0  0  0  0  0  0  0  0  0  0  0
   39.6520   32.8460   39.4890 O   0  0  0  0  0  0  0  0  0  0  0  0
   40.8340   33.0120   40.0760 C   0  0  0  0  0  0  0  0  0  0  0  0
   41.9100   33.3730   39.3870 O   0  0  0  0  0  0  0  0  0  0  0  0
   41.8330   30.5510   41.5030 N   0  0  0  0  0  0  0  0  0  0  0  0
   41.6960   31.6560   42.0190 C   0  0  0  0  0  0  0  0  0  0  0  0
   41.2400   32.8680   41.4770 N   0  0  0  0  0  0  0  0  0  0  0  0
   42.0890   31.6090   43.4070 N   0  0  0  0  0  0  0  0  0  0  0  0
   42.7540   32.2560   43.8840 H   0  0  0  0  0  0  0  0  0  0  0  0
   41.6810   30.1720   40.6010 H   0  0  0  0  0  0  0  0  0  0  0  0
   41.2140   33.6800   42.1130 H   0  0  0  0  0  0  0  0  0  0  0  0
   41.8010   30.9550   44.1680 H   0  0  0  0  0  0  0  0  0  0  0  0
  1 13  1  0  0  0  0
  1  7  1  1  0  0  0
  2 17  1  0  0  0  0
  2  1  1  0  0  0  0
  2  8  1  1  0  0  0
  3  2  1  0  0  0  0
  4 10  1  0  0  0  0
  4  3  1  0  0  0  0
  5 11  1  6  0  0  0
  5  4  1  0  0  0  0
  5 15  1  0  0  0  0
  5  6  1  0  0  0  0
  6 12  1  6  0  0  0
  6 34  1  0  0  0  0
  6  1  1  0  0  0  0
  9  4  1  0  0  0  0
 13 14  1  0  0  0  0
 16 15  1  0  0  0  0
 17 18  1  0  0  0  0
 18 23  1  0  0  0  0
 19 18  2  0  0  0  0
 19 20  1  0  0  0  0
 20 21  2  0  0  0  0
 21 22  1  0  0  0  0
 22 25  1  0  0  0  0
 23 22  2  0  0  0  0
 24 19  1  0  0  0  0
 26 20  1  0  0  0  0
 26 29  1  0  0  0  0
 27 31  1  0  0  0  0
 27 28  1  0  0  0  0
 27 26  1  0  0  0  0
 28 33  1  0  0  0  0
 28 26  1  0  0  0  0
 30 27  1  0  0  0  0
 32 28  1  0  0  0  0
 34 35  1  0  0  0  0
 35 39  1  0  0  0  0
 36 35  2  0  0  0  0
 37 38  2  0  0  0  0
 38 40  1  0  0  0  0
 39 38  1  0  0  0  0
 39 43  1  0  0  0  0
 40 41  1  0  0  0  0
 40 44  1  0  0  0  0
 42 37  1  0  0  0  0
M  END
>  <minimizedAffinity>
-5.87380409

$$$$

 OpenBabel03242523563D

 44 46  0  0  1  0  0  0  0  0999 V2000
   38.5220   29.7900   37.7690 C   0  0  1  0  0  0  0  0  0  0  0  0
   38.4760   29.8800   39.2860 C   0  0  1  0  0  0  0  0  0  0  0  0
   38.0000   31.1650   39.6340 O   0  0  0  0  0  0  0  0  0  0  0  0
   38.4550   32.1610   38.7610 C   0  0  0  0  0  0  0  0  0  0  0  0
   37.8230   32.0320   37.3890 C   0  0  2  0  0  0  0  0  0  0  0  0
   37.3410   30.5510   37.2710 C   0  0  1  0  0  0  0  0  0  0  0  0
   38.4680   28.7120   37.5140 H   0  0  0  0  0  0  0  0  0  0  0  0
   39.4440   29.6810   39.7630 H   0  0  0  0  0  0  0  0  0  0  0  0
   38.1230   33.1050   39.1890 H   0  0  0  0  0  0  0  0  0  0  0  0
   39.5620   32.2140   38.7160 H   0  0  0  0  0  0  0  0  0  0  0  0
   36.9670   32.7230   37.2600 H   0  0  0  0  0  0  0  0  0  0  0  0
   36.5310   30.6400   38.0700 H   0  0  0  0  0  0  0  0  0  0  0  0
   39.7200   30.3430   37.2780 O   0  0  0  0  0  0  0  0  0  0  0  0
   40.3160   29.6040   37.0750 H   0  0  0  0  0  0  0  0  0  0  0  0
   38.7960   32.1760   36.4100 O   0  0  0  0  0  0  0  0  0  0  0  0
   38.4110   32.6850   35.6420 H   0  0  0  0  0  0  0  0  0  0  0  0
   37.4400   29.0220   39.6760 O   0  0  0  0  0  0  0  0  0  0  0  0
   37.3940   28.3480   40.8310 C   0  0  0  0  0  0  0  0  0  0  0  0
   37.1820   26.9710   40.8550 C   0  0  0  0  0  0  0  0  0  0  0  0
   37.1420   26.3070   42.0650 C   0  0  0  0  0  0  0  0  0  0  0  0
   37.3160   27.0380   43.2300 N   0  0  0  0  0  0  0  0  0  0  0  0
   37.5200   28.3720   43.1750 C   0  0  0  0  0  0  0  0  0  0  0  0
   37.5590   29.0220   41.9830 N   0  0  0  0  0  0  0  0  0  0  0  0
   37.0480   26.4240   39.9310 H   0  0  0  0  0  0  0  0  0  0  0  0
   37.6580   28.9470   44.0900 H   0  0  0  0  0  0  0  0  0  0  0  0
   36.8980   24.8330   42.1600 C   0  0  0  0  0  0  0  0  0  0  0  0
   36.5750   24.1080   40.8550 C   0  0  0  0  0  0  0  0  0  0  0  0
   37.8650   23.8970   41.6720 C   0  0  0  0  0  0  0  0  0  0  0  0
   36.1990   24.5890   42.9880 H   0  0  0  0  0  0  0  0  0  0  0  0
   36.6170   24.6970   39.9400 H   0  0  0  0  0  0  0  0  0  0  0  0
   35.8410   23.3080   40.9080 H   0  0  0  0  0  0  0  0  0  0  0  0
   38.7650   24.2740   41.1310 H   0  0  0  0  0  0  0  0  0  0  0  0
   38.0470   22.8930   42.1050 H   0  0  0  0  0  0  0  0  0  0  0  0
   36.9720   30.3390   35.9920 O   0  0  0  0  0  0  0  0  0  0  0  0
   36.4420   29.2850   35.3780 C   0  0  0  0  0  0  0  0  0  0  0  0
   35.1700   29.2660   34.9960 O   0  0  0  0  0  0  0  0  0  0  0  0
   36.6260   26.7340   36.9760 N   0  0  0  0  0  0  0  0  0  0  0  0
   37.0490   26.8800   35.8330 C   0  0  0  0  0  0  0  0  0  0  0  0
   37.0330   28.0010   34.9880 N   0  0  0  0  0  0  0  0  0  0  0  0
   37.6420   25.6510   35.3610 N   0  0  0  0  0  0  0  0  0  0  0  0
   37.4310   25.1680   34.4610 H   0  0  0  0  0  0  0  0  0  0  0  0
   36.1670   27.3130   37.6350 H   0  0  0  0  0  0  0  0  0  0  0  0
   37.4520   27.8830   34.0530 H   0  0  0  0  0  0  0  0  0  0  0  0
   38.3590   25.0360   35.8020 H   0  0  0  0  0  0  0  0  0  0  0  0
  1  7  1  6  0  0  0
  1  2  1  0  0  0  0
  2  3  1  0  0  0  0
  2 17  1  0  0  0  0
  2  8  1  1  0  0  0
  4  9  1  0  0  0  0
  4  3  1  0  0  0  0
  5 11  1  6  0  0  0
  5  4  1  0  0  0  0
  6  5  1  0  0  0  0
  6  1  1  0  0  0  0
  6 12  1  1  0  0  0
 10  4  1  0  0  0  0
 13  1  1  0  0  0  0
 14 13  1  0  0  0  0
 15  5  1  0  0  0  0
 16 15  1  0  0  0  0
 17 18  1  0  0  0  0
 18 19  2  0  0  0  0
 18 23  1  0  0  0  0
 19 20  1  0  0  0  0
 20 26  1  0  0  0  0
 20 21  2  0  0  0  0
 22 21  1  0  0  0  0
 22 25  1  0  0  0  0
 23 22  2  0  0  0  0
 24 19  1  0  0  0  0
 26 29  1  0  0  0  0
 27 31  1  0  0  0  0
 27 28  1  0  0  0  0
 27 26  1  0  0  0  0
 28 33  1  0  0  0  0
 28 26  1  0  0  0  0
 30 27  1  0  0  0  0
 32 28  1  0  0  0  0
 34  6  1  0  0  0  0
 35 34  1  0  0  0  0
 36 35  2  0  0  0  0
 37 42  1  0  0  0  0
 38 37  2  0  0  0  0
 39 35  1  0  0  0  0
 39 38  1  0  0  0  0
 40 44  1  0  0  0  0
 40 38  1  0  0  0  0
 41 40  1  0  0  0  0
 43 39  1  0  0  0  0
M  END
>  <minimizedAffinity>
-5.84864521

$$$$
