
 OpenBabel03242523173D

 26 27  0  0  0  0  0  0  0  0999 V2000
   46.0140   34.7180   43.8720 C   0  0  0  0  0  0  0  0  0  0  0  0
   47.0530   33.9800   43.4090 C   0  0  0  0  0  0  0  0  0  0  0  0
   47.4240   32.9020   44.1910 C   0  0  0  0  0  0  0  0  0  0  0  0
   46.7100   32.6740   45.3650 N   0  0  0  0  0  0  0  0  0  0  0  0
   45.7060   33.4230   45.7730 C   0  0  0  0  0  0  0  0  0  0  0  0
   45.3160   34.5000   45.0170 N   0  0  0  0  0  0  0  0  0  0  0  0
   48.2390   32.2480   43.9140 H   0  0  0  0  0  0  0  0  0  0  0  0
   45.2860   33.0780   46.7090 H   0  0  0  0  0  0  0  0  0  0  0  0
   45.3520   35.8270   43.2040 C   0  0  0  0  0  0  0  0  0  0  0  0
   45.1180   37.0260   43.1510 O   0  0  0  0  0  0  0  0  0  0  0  0
   44.2420   32.9590   43.0870 N   0  0  0  0  0  0  0  0  0  0  0  0
   44.2040   33.8330   42.1850 C   0  0  0  0  0  0  0  0  0  0  0  0
   44.6650   35.1670   42.1010 N   0  0  0  0  0  0  0  0  0  0  0  0
   43.5110   33.0240   41.2070 N   0  0  0  0  0  0  0  0  0  0  0  0
   42.5050   33.0620   40.8800 H   0  0  0  0  0  0  0  0  0  0  0  0
   44.6260   32.9890   44.0170 H   0  0  0  0  0  0  0  0  0  0  0  0
   44.3840   35.4690   41.1150 H   0  0  0  0  0  0  0  0  0  0  0  0
   43.8660   32.2290   40.6190 H   0  0  0  0  0  0  0  0  0  0  0  0
   47.8110   34.2630   42.2480 C   0  0  0  0  0  0  0  0  0  0  0  0
   48.2530   35.4360   41.7330 C   0  0  0  0  0  0  0  0  0  0  0  0
   49.3530   34.6070   42.3970 C   0  0  0  0  0  0  0  0  0  0  0  0
   47.9490   33.2510   41.6610 H   0  0  0  0  0  0  0  0  0  0  0  0
   48.4670   35.5990   40.6400 H   0  0  0  0  0  0  0  0  0  0  0  0
   48.0920   36.4270   42.2390 H   0  0  0  0  0  0  0  0  0  0  0  0
   49.6590   34.8480   43.4350 H   0  0  0  0  0  0  0  0  0  0  0  0
   50.0790   34.1110   41.7820 H   0  0  0  0  0  0  0  0  0  0  0  0
  1  6  1  0  0  0  0
  2  1  2  0  0  0  0
  2  3  1  0  0  0  0
  3  4  2  0  0  0  0
  4  5  1  0  0  0  0
  5  8  1  0  0  0  0
  6  5  2  0  0  0  0
  7  3  1  0  0  0  0
  9  1  1  0  0  0  0
 10  9  2  0  0  0  0
 11 16  1  0  0  0  0
 12 11  2  0  0  0  0
 13 12  1  0  0  0  0
 13  9  1  0  0  0  0
 14 12  1  0  0  0  0
 15 14  1  0  0  0  0
 17 13  1  0  0  0  0
 18 14  1  0  0  0  0
 19 21  1  0  0  0  0
 19  2  1  0  0  0  0
 20 24  1  0  0  0  0
 20 19  1  0  0  0  0
 20 21  1  0  0  0  0
 21 25  1  0  0  0  0
 22 19  1  0  0  0  0
 23 20  1  0  0  0  0
 26 21  1  0  0  0  0
M  END
>  <minimizedAffinity>
-4.80247927

>  <minimizedRMSD>
0.601121247

$$$$
