
 OpenBabel03242512283D

 21 21  0  0  0  0  0  0  0  0999 V2000
   44.9110   35.0470   44.4800 C   0  0  0  0  0  0  0  0  0  0  0  0
   45.8480   34.8830   43.4540 C   0  0  0  0  0  0  0  0  0  0  0  0
   46.8900   33.9700   43.6590 C   0  0  0  0  0  0  0  0  0  0  0  0
   46.9250   33.3080   44.8300 N   0  0  0  0  0  0  0  0  0  0  0  0
   46.0110   33.4870   45.7950 C   0  0  0  0  0  0  0  0  0  0  0  0
   45.0040   34.3530   45.6290 N   0  0  0  0  0  0  0  0  0  0  0  0
   43.8390   35.9740   44.2920 N   0  0  0  0  0  0  0  0  0  0  0  0
   45.7910   35.4270   42.5340 H   0  0  0  0  0  0  0  0  0  0  0  0
   47.6530   33.7900   42.9090 H   0  0  0  0  0  0  0  0  0  0  0  0
   42.8400   35.8520   44.5710 H   0  0  0  0  0  0  0  0  0  0  0  0
   44.0980   36.8630   43.8270 H   0  0  0  0  0  0  0  0  0  0  0  0
   46.0760   32.7550   47.0520 C   0  0  0  0  0  0  0  0  0  0  0  0
   45.1450   32.7770   47.9080 O   0  0  0  0  0  0  0  0  0  0  0  0
   46.3400   30.0930   46.3200 N   0  0  0  0  0  0  0  0  0  0  0  0
   47.3600   30.6130   46.9380 C   0  0  0  0  0  0  0  0  0  0  0  0
   47.2490   31.9800   47.3250 N   0  0  0  0  0  0  0  0  0  0  0  0
   48.5930   29.9610   47.2750 N   0  0  0  0  0  0  0  0  0  0  0  0
   49.2190   30.2730   46.4810 H   0  0  0  0  0  0  0  0  0  0  0  0
   46.3690   29.0820   46.0100 H   0  0  0  0  0  0  0  0  0  0  0  0
   48.0510   32.4590   47.8320 H   0  0  0  0  0  0  0  0  0  0  0  0
   48.8750   29.3390   48.0610 H   0  0  0  0  0  0  0  0  0  0  0  0
  1  6  1  0  0  0  0
  2  3  1  0  0  0  0
  2  1  2  0  0  0  0
  3  4  2  0  0  0  0
  4  5  1  0  0  0  0
  5 12  1  0  0  0  0
  6  5  2  0  0  0  0
  7  1  1  0  0  0  0
  7 10  1  0  0  0  0
  8  2  1  0  0  0  0
  9  3  1  0  0  0  0
 11  7  1  0  0  0  0
 12 16  1  0  0  0  0
 12 13  2  0  0  0  0
 14 15  2  0  0  0  0
 15 17  1  0  0  0  0
 15 16  1  0  0  0  0
 16 20  1  0  0  0  0
 17 21  1  0  0  0  0
 18 17  1  0  0  0  0
 19 14  1  0  0  0  0
M  END
>  <minimizedAffinity>
-4.46318865

>  <minimizedRMSD>
0.422745466

$$$$
