
 OpenBabel03242512283D

 21 21  0  0  0  0  0  0  0  0999 V2000
   44.9650   35.0470   44.2910 C   0  0  0  0  0  0  0  0  0  0  0  0
   45.7850   35.2280   43.1720 C   0  0  0  0  0  0  0  0  0  0  0  0
   46.9470   34.4500   43.0790 C   0  0  0  0  0  0  0  0  0  0  0  0
   47.2000   33.5770   44.0720 N   0  0  0  0  0  0  0  0  0  0  0  0
   46.3930   33.4280   45.1320 C   0  0  0  0  0  0  0  0  0  0  0  0
   45.2770   34.1570   45.2500 N   0  0  0  0  0  0  0  0  0  0  0  0
   43.7750   35.8320   44.4060 N   0  0  0  0  0  0  0  0  0  0  0  0
   45.5540   35.9310   42.4000 H   0  0  0  0  0  0  0  0  0  0  0  0
   47.6300   34.5340   42.2410 H   0  0  0  0  0  0  0  0  0  0  0  0
   42.8390   35.5150   44.7430 H   0  0  0  0  0  0  0  0  0  0  0  0
   43.8690   36.8230   44.1210 H   0  0  0  0  0  0  0  0  0  0  0  0
   46.6960   32.4750   46.1920 C   0  0  0  0  0  0  0  0  0  0  0  0
   47.1600   32.8230   47.3160 O   0  0  0  0  0  0  0  0  0  0  0  0
   45.1510   31.5570   44.0780 N   0  0  0  0  0  0  0  0  0  0  0  0
   45.6590   30.6390   44.8490 C   0  0  0  0  0  0  0  0  0  0  0  0
   46.4560   31.0850   45.9420 N   0  0  0  0  0  0  0  0  0  0  0  0
   45.5040   29.2190   44.7210 N   0  0  0  0  0  0  0  0  0  0  0  0
   46.3990   28.9540   44.2220 H   0  0  0  0  0  0  0  0  0  0  0  0
   44.5520   31.2820   43.2510 H   0  0  0  0  0  0  0  0  0  0  0  0
   46.8960   30.3810   46.6060 H   0  0  0  0  0  0  0  0  0  0  0  0
   44.7540   28.5570   45.0090 H   0  0  0  0  0  0  0  0  0  0  0  0
  1  7  1  0  0  0  0
  1  6  1  0  0  0  0
  2  1  2  0  0  0  0
  3  2  1  0  0  0  0
  3  4  2  0  0  0  0
  4  5  1  0  0  0  0
  5  6  2  0  0  0  0
  5 12  1  0  0  0  0
  7 10  1  0  0  0  0
  8  2  1  0  0  0  0
  9  3  1  0  0  0  0
 11  7  1  0  0  0  0
 12 13  2  0  0  0  0
 14 15  2  0  0  0  0
 15 16  1  0  0  0  0
 16 12  1  0  0  0  0
 16 20  1  0  0  0  0
 17 15  1  0  0  0  0
 17 21  1  0  0  0  0
 18 17  1  0  0  0  0
 19 14  1  0  0  0  0
M  END
>  <minimizedAffinity>
-4.37798166

>  <minimizedRMSD>
1.94535303

$$$$
