
 OpenBabel03252509193D

 42 44  0  0  1  0  0  0  0  0999 V2000
   48.0630   29.3230   47.9120 C   0  0  1  0  0  0  0  0  0  0  0  0
   48.0420   28.3430   46.8050 C   0  0  0  0  0  0  0  0  0  0  0  0
   49.3650   27.6720   46.5420 C   0  0  0  0  0  0  0  0  0  0  0  0
   50.0790   27.2390   47.7870 C   0  0  0  0  0  0  0  0  0  0  0  0
   50.0070   28.2650   48.8890 C   0  0  0  0  0  0  0  0  0  0  0  0
   49.5270   29.6040   48.3190 C   0  0  2  0  0  0  0  0  0  0  0  0
   47.6210   28.8650   48.8340 H   0  0  0  0  0  0  0  0  0  0  0  0
   47.7040   28.8080   45.8710 H   0  0  0  0  0  0  0  0  0  0  0  0
   47.3180   27.5280   47.0280 H   0  0  0  0  0  0  0  0  0  0  0  0
   49.1540   26.7620   45.9580 H   0  0  0  0  0  0  0  0  0  0  0  0
   49.9650   28.3730   45.9240 H   0  0  0  0  0  0  0  0  0  0  0  0
   51.1560   27.1210   47.5270 H   0  0  0  0  0  0  0  0  0  0  0  0
   49.7230   26.2380   48.1240 H   0  0  0  0  0  0  0  0  0  0  0  0
   50.9280   28.3710   49.4790 H   0  0  0  0  0  0  0  0  0  0  0  0
   49.1670   27.9240   49.5550 H   0  0  0  0  0  0  0  0  0  0  0  0
   50.1190   29.8780   47.4200 H   0  0  0  0  0  0  0  0  0  0  0  0
   49.5670   30.6200   49.3700 C   0  0  0  0  0  0  0  0  0  0  0  0
   49.1790   30.3920   50.5370 O   0  0  0  0  0  0  0  0  0  0  0  0
   51.6990   31.9770   50.9990 N   0  0  0  0  0  0  0  0  0  0  0  0
   51.0010   32.5340   50.1510 C   0  0  0  0  0  0  0  0  0  0  0  0
   49.9940   31.9520   49.3670 N   0  0  0  0  0  0  0  0  0  0  0  0
   51.3440   33.9340   50.0360 N   0  0  0  0  0  0  0  0  0  0  0  0
   52.2420   34.3200   49.6520 H   0  0  0  0  0  0  0  0  0  0  0  0
   51.7520   31.0500   51.3460 H   0  0  0  0  0  0  0  0  0  0  0  0
   49.5530   32.6080   48.7160 H   0  0  0  0  0  0  0  0  0  0  0  0
   50.6740   34.6620   50.3480 H   0  0  0  0  0  0  0  0  0  0  0  0
   46.2490   32.6590   46.3930 C   0  0  0  0  0  0  0  0  0  0  0  0
   45.9710   32.4760   47.7450 C   0  0  0  0  0  0  0  0  0  0  0  0
   46.5030   31.4160   48.3540 C   0  0  0  0  0  0  0  0  0  0  0  0
   47.3250   30.5130   47.6400 C   0  0  0  0  0  0  0  0  0  0  0  0
   47.3370   31.2290   45.9660 S   0  0  0  0  0  0  0  0  0  0  0  0
   45.3430   33.1700   48.2860 H   0  0  0  0  0  0  0  0  0  0  0  0
   46.4020   31.1100   49.3810 H   0  0  0  0  0  0  0  0  0  0  0  0
   44.5020   35.6600   45.0530 C   0  0  0  0  0  0  0  0  0  0  0  0
   45.0680   35.7350   43.7820 C   0  0  0  0  0  0  0  0  0  0  0  0
   46.0170   34.7690   43.4250 C   0  0  0  0  0  0  0  0  0  0  0  0
   46.3360   33.8000   44.3520 N   0  0  0  0  0  0  0  0  0  0  0  0
   45.7590   33.7760   45.5630 C   0  0  0  0  0  0  0  0  0  0  0  0
   44.8350   34.7130   45.9160 N   0  0  0  0  0  0  0  0  0  0  0  0
   43.7720   36.3570   45.4010 H   0  0  0  0  0  0  0  0  0  0  0  0
   44.7900   36.5020   43.1010 H   0  0  0  0  0  0  0  0  0  0  0  0
   46.4960   34.7580   42.4700 H   0  0  0  0  0  0  0  0  0  0  0  0
  1  6  1  0  0  0  0
  1  7  1  1  0  0  0
  2  9  1  0  0  0  0
  2  1  1  0  0  0  0
  3  2  1  0  0  0  0
  3  4  1  0  0  0  0
  4 13  1  0  0  0  0
  4  5  1  0  0  0  0
  5 14  1  0  0  0  0
  5 15  1  0  0  0  0
  6 16  1  6  0  0  0
  6  5  1  0  0  0  0
  6 17  1  0  0  0  0
  8  2  1  0  0  0  0
 10  3  1  0  0  0  0
 11  3  1  0  0  0  0
 12  4  1  0  0  0  0
 17 18  2  0  0  0  0
 19 24  1  0  0  0  0
 20 19  2  0  0  0  0
 21 17  1  0  0  0  0
 21 20  1  0  0  0  0
 22 20  1  0  0  0  0
 22 26  1  0  0  0  0
 23 22  1  0  0  0  0
 25 21  1  0  0  0  0
 27 28  2  0  0  0  0
 28 32  1  0  0  0  0
 28 29  1  0  0  0  0
 29 33  1  0  0  0  0
 30  1  1  0  0  0  0
 30 29  2  0  0  0  0
 31 27  1  0  0  0  0
 31 30  1  0  0  0  0
 34 40  1  0  0  0  0
 34 39  1  0  0  0  0
 35 34  2  0  0  0  0
 36 35  1  0  0  0  0
 36 37  2  0  0  0  0
 37 38  1  0  0  0  0
 38 39  2  0  0  0  0
 38 27  1  0  0  0  0
 41 35  1  0  0  0  0
 42 36  1  0  0  0  0
M  END
>  <minimizedAffinity>
-5.5631609

>  <minimizedRMSD>
1.26459646

$$$$
