
 OpenBabel03242515013D

 36 37  0  0  0  0  0  0  0  0999 V2000
   43.6340   34.9660   40.7670 S   0  0  0  0  0  0  0  0  0  0  0  0
   44.9360   34.6730   41.9660 C   0  0  0  0  0  0  0  0  0  0  0  0
   46.2420   34.5640   41.4720 C   0  0  0  0  0  0  0  0  0  0  0  0
   47.2880   34.3360   42.3590 C   0  0  0  0  0  0  0  0  0  0  0  0
   46.9770   34.2310   43.6720 N   0  0  0  0  0  0  0  0  0  0  0  0
   45.7130   34.3380   44.1450 C   0  0  0  0  0  0  0  0  0  0  0  0
   44.7250   34.5540   43.2870 N   0  0  0  0  0  0  0  0  0  0  0  0
   46.5370   34.6410   40.4420 H   0  0  0  0  0  0  0  0  0  0  0  0
   48.3040   34.2470   42.0210 H   0  0  0  0  0  0  0  0  0  0  0  0
   45.5300   34.2020   45.5800 C   0  0  0  0  0  0  0  0  0  0  0  0
   44.5720   34.8280   46.0870 O   0  0  0  0  0  0  0  0  0  0  0  0
   44.6820   32.8060   47.9660 N   0  0  0  0  0  0  0  0  0  0  0  0
   45.8160   32.7960   47.4190 C   0  0  0  0  0  0  0  0  0  0  0  0
   46.4320   33.3860   46.2830 N   0  0  0  0  0  0  0  0  0  0  0  0
   46.5130   31.9170   48.3120 N   0  0  0  0  0  0  0  0  0  0  0  0
   46.7620   32.0560   49.3370 H   0  0  0  0  0  0  0  0  0  0  0  0
   43.8010   33.2650   47.7540 H   0  0  0  0  0  0  0  0  0  0  0  0
   47.4170   33.1940   46.0680 H   0  0  0  0  0  0  0  0  0  0  0  0
   46.9540   30.9630   48.2570 H   0  0  0  0  0  0  0  0  0  0  0  0
   42.0130   35.1040   41.5370 C   0  0  0  0  0  0  0  0  0  0  0  0
   42.1430   35.5270   42.5580 H   0  0  0  0  0  0  0  0  0  0  0  0
   41.5200   34.1040   41.6360 H   0  0  0  0  0  0  0  0  0  0  0  0
   41.0820   36.0230   40.8040 C   0  0  0  0  0  0  0  0  0  0  0  0
   40.3610   36.4540   41.5400 H   0  0  0  0  0  0  0  0  0  0  0  0
   41.5830   36.8670   40.3090 H   0  0  0  0  0  0  0  0  0  0  0  0
   41.8980   36.2370   37.8700 Cl  0  0  0  0  0  0  0  0  0  0  0  0
   40.5480   35.2980   38.4530 C   0  0  0  0  0  0  0  0  0  0  0  0
   40.2670   35.2740   39.8260 C   0  0  0  0  0  0  0  0  0  0  0  0
   39.1880   34.5110   40.2070 C   0  0  0  0  0  0  0  0  0  0  0  0
   38.3650   33.7740   39.3520 C   0  0  0  0  0  0  0  0  0  0  0  0
   38.6670   33.8170   38.0060 C   0  0  0  0  0  0  0  0  0  0  0  0
   37.6830   32.9180   36.8670 Cl  0  0  0  0  0  0  0  0  0  0  0  0
   39.7380   34.5680   37.5810 C   0  0  0  0  0  0  0  0  0  0  0  0
   38.9760   34.4970   41.2690 H   0  0  0  0  0  0  0  0  0  0  0  0
   37.5370   33.2050   39.7610 H   0  0  0  0  0  0  0  0  0  0  0  0
   39.9390   34.5740   36.5160 H   0  0  0  0  0  0  0  0  0  0  0  0
  1 20  1  0  0  0  0
  1  2  1  0  0  0  0
  2  7  1  0  0  0  0
  3  2  2  0  0  0  0
  3  4  1  0  0  0  0
  4  5  2  0  0  0  0
  5  6  1  0  0  0  0
  6 10  1  0  0  0  0
  7  6  2  0  0  0  0
  8  3  1  0  0  0  0
  9  4  1  0  0  0  0
 10 11  2  0  0  0  0
 10 14  1  0  0  0  0
 13 12  2  0  0  0  0
 13 15  1  0  0  0  0
 14 13  1  0  0  0  0
 15 16  1  0  0  0  0
 17 12  1  0  0  0  0
 18 14  1  0  0  0  0
 19 15  1  0  0  0  0
 20 22  1  0  0  0  0
 20 21  1  0  0  0  0
 23 20  1  0  0  0  0
 23 24  1  0  0  0  0
 25 23  1  0  0  0  0
 26 27  1  0  0  0  0
 27 28  1  0  0  0  0
 28 29  2  0  0  0  0
 28 23  1  0  0  0  0
 29 34  1  0  0  0  0
 30 35  1  0  0  0  0
 30 29  1  0  0  0  0
 31 30  2  0  0  0  0
 32 31  1  0  0  0  0
 33 31  1  0  0  0  0
 33 27  2  0  0  0  0
 36 33  1  0  0  0  0
M  END
>  <minimizedAffinity>
-7.27841854

>  <minimizedRMSD>
0.235639647

$$$$
