
 OpenBabel03242523553D

 44 46  0  0  1  0  0  0  0  0999 V2000
   42.8150   34.5270   38.7400 C   0  0  1  0  0  0  0  0  0  0  0  0
   42.9510   35.1780   40.1070 C   0  0  1  0  0  0  0  0  0  0  0  0
   41.6520   35.3740   40.6300 O   0  0  0  0  0  0  0  0  0  0  0  0
   40.7200   35.7160   39.6410 C   0  0  0  0  0  0  0  0  0  0  0  0
   40.4350   34.5500   38.7160 C   0  0  2  0  0  0  0  0  0  0  0  0
   41.6610   33.5880   38.8390 C   0  0  1  0  0  0  0  0  0  0  0  0
   43.7700   34.0010   38.5420 H   0  0  0  0  0  0  0  0  0  0  0  0
   43.5090   36.1230   40.0840 H   0  0  0  0  0  0  0  0  0  0  0  0
   39.7980   35.9490   40.1700 H   0  0  0  0  0  0  0  0  0  0  0  0
   41.0030   36.6370   39.0910 H   0  0  0  0  0  0  0  0  0  0  0  0
   39.5040   34.0180   38.9930 H   0  0  0  0  0  0  0  0  0  0  0  0
   41.4520   33.2910   39.9210 H   0  0  0  0  0  0  0  0  0  0  0  0
   42.5860   35.5020   37.7500 O   0  0  0  0  0  0  0  0  0  0  0  0
   43.4310   35.6550   37.2980 H   0  0  0  0  0  0  0  0  0  0  0  0
   40.4470   34.9840   37.3980 O   0  0  0  0  0  0  0  0  0  0  0  0
   39.7320   34.5060   36.8920 H   0  0  0  0  0  0  0  0  0  0  0  0
   43.4990   34.1890   40.9340 O   0  0  0  0  0  0  0  0  0  0  0  0
   44.6000   34.3360   41.6810 C   0  0  0  0  0  0  0  0  0  0  0  0
   45.8600   34.4390   41.0950 C   0  0  0  0  0  0  0  0  0  0  0  0
   46.9740   34.5910   41.8950 C   0  0  0  0  0  0  0  0  0  0  0  0
   46.8040   34.6380   43.2700 N   0  0  0  0  0  0  0  0  0  0  0  0
   45.5690   34.5350   43.8090 C   0  0  0  0  0  0  0  0  0  0  0  0
   44.4750   34.3860   43.0180 N   0  0  0  0  0  0  0  0  0  0  0  0
   45.9660   34.4000   40.0190 H   0  0  0  0  0  0  0  0  0  0  0  0
   45.4340   34.5730   44.8890 H   0  0  0  0  0  0  0  0  0  0  0  0
   48.3580   34.6880   41.3300 C   0  0  0  0  0  0  0  0  0  0  0  0
   49.0770   36.0220   41.5100 C   0  0  0  0  0  0  0  0  0  0  0  0
   49.5020   34.7060   42.1890 C   0  0  0  0  0  0  0  0  0  0  0  0
   48.4000   34.2970   40.2910 H   0  0  0  0  0  0  0  0  0  0  0  0
   48.5670   36.7830   42.1000 H   0  0  0  0  0  0  0  0  0  0  0  0
   49.7030   36.3570   40.6860 H   0  0  0  0  0  0  0  0  0  0  0  0
   49.3540   34.7420   43.2950 H   0  0  0  0  0  0  0  0  0  0  0  0
   50.4930   34.2830   41.9300 H   0  0  0  0  0  0  0  0  0  0  0  0
   41.5480   32.6530   37.8750 O   0  0  0  0  0  0  0  0  0  0  0  0
   40.9860   31.4470   37.8620 C   0  0  0  0  0  0  0  0  0  0  0  0
   39.7190   31.2710   37.5040 O   0  0  0  0  0  0  0  0  0  0  0  0
   43.6150   30.2370   37.0180 N   0  0  0  0  0  0  0  0  0  0  0  0
   42.7840   29.6850   37.7330 C   0  0  0  0  0  0  0  0  0  0  0  0
   41.5330   30.1270   38.1910 N   0  0  0  0  0  0  0  0  0  0  0  0
   43.2510   28.3730   38.1170 N   0  0  0  0  0  0  0  0  0  0  0  0
   43.2930   27.9910   39.0850 H   0  0  0  0  0  0  0  0  0  0  0  0
   43.6780   31.1130   36.5610 H   0  0  0  0  0  0  0  0  0  0  0  0
   41.0040   29.4780   38.7940 H   0  0  0  0  0  0  0  0  0  0  0  0
   43.6200   27.5910   37.5330 H   0  0  0  0  0  0  0  0  0  0  0  0
  1  7  1  6  0  0  0
  1  6  1  0  0  0  0
  1  2  1  0  0  0  0
  2  8  1  6  0  0  0
  2  3  1  0  0  0  0
  2 17  1  0  0  0  0
  4  9  1  0  0  0  0
  4  3  1  0  0  0  0
  5  6  1  0  0  0  0
  5 11  1  1  0  0  0
  5  4  1  0  0  0  0
  6 12  1  1  0  0  0
 10  4  1  0  0  0  0
 13  1  1  0  0  0  0
 14 13  1  0  0  0  0
 15  5  1  0  0  0  0
 16 15  1  0  0  0  0
 17 18  1  0  0  0  0
 18 23  1  0  0  0  0
 19 18  2  0  0  0  0
 19 20  1  0  0  0  0
 20 21  2  0  0  0  0
 21 22  1  0  0  0  0
 22 25  1  0  0  0  0
 23 22  2  0  0  0  0
 24 19  1  0  0  0  0
 26 27  1  0  0  0  0
 26 20  1  0  0  0  0
 26 28  1  0  0  0  0
 27 30  1  0  0  0  0
 27 28  1  0  0  0  0
 28 32  1  0  0  0  0
 29 26  1  0  0  0  0
 31 27  1  0  0  0  0
 33 28  1  0  0  0  0
 34  6  1  0  0  0  0
 35 34  1  0  0  0  0
 35 39  1  0  0  0  0
 36 35  2  0  0  0  0
 37 38  2  0  0  0  0
 38 40  1  0  0  0  0
 38 39  1  0  0  0  0
 39 43  1  0  0  0  0
 40 41  1  0  0  0  0
 42 37  1  0  0  0  0
 44 40  1  0  0  0  0
M  END
>  <minimizedAffinity>
-5.83490705

>  <minimizedRMSD>
0.0792280883

$$$$
