
 OpenBabel03252509333D

 39 40  0  0  1  0  0  0  0  0999 V2000
   45.0860   34.3620   42.6800 C   0  0  1  0  0  0  0  0  0  0  0  0
   44.2020   35.4590   42.1550 C   0  0  0  0  0  0  0  0  0  0  0  0
   43.8270   34.9140   40.7970 C   0  0  0  0  0  0  0  0  0  0  0  0
   45.0170   34.0660   40.3630 C   0  0  0  0  0  0  0  0  0  0  0  0
   46.0290   34.1670   41.4910 C   0  0  1  0  0  0  0  0  0  0  0  0
   44.5480   33.4220   42.8210 H   0  0  0  0  0  0  0  0  0  0  0  0
   43.3380   35.6940   42.7810 H   0  0  0  0  0  0  0  0  0  0  0  0
   44.7970   36.3860   42.0380 H   0  0  0  0  0  0  0  0  0  0  0  0
   42.9800   34.2010   40.9970 H   0  0  0  0  0  0  0  0  0  0  0  0
   43.5570   35.6810   40.0570 H   0  0  0  0  0  0  0  0  0  0  0  0
   45.4590   34.6030   39.4910 H   0  0  0  0  0  0  0  0  0  0  0  0
   44.7350   33.0180   40.1370 H   0  0  0  0  0  0  0  0  0  0  0  0
   46.4510   33.1510   41.6040 H   0  0  0  0  0  0  0  0  0  0  0  0
   48.5840   33.6320   40.3850 N   0  0  0  0  0  0  0  0  0  0  0  0
   48.2170   34.8290   40.6980 C   0  0  0  0  0  0  0  0  0  0  0  0
   46.9920   35.1990   41.3390 N   0  0  0  0  0  0  0  0  0  0  0  0
   49.1570   35.8550   40.3540 N   0  0  0  0  0  0  0  0  0  0  0  0
   49.3130   36.8060   39.9670 H   0  0  0  0  0  0  0  0  0  0  0  0
   47.9420   32.8410   40.6100 H   0  0  0  0  0  0  0  0  0  0  0  0
   46.8170   36.1540   41.6710 H   0  0  0  0  0  0  0  0  0  0  0  0
   50.1820   35.7180   40.5080 H   0  0  0  0  0  0  0  0  0  0  0  0
   45.8120   34.7270   43.8140 O   0  0  0  0  0  0  0  0  0  0  0  0
   45.0870   34.0290   46.2090 O   0  0  0  0  0  0  0  0  0  0  0  0
   45.7040   33.4940   44.9570 P   0  0  1  0  0  0  0  0  0  0  0  0
   44.8930   32.1560   44.3550 O   0  0  0  0  0  0  0  0  0  0  0  0
   44.4090   32.3680   43.5180 H   0  0  0  0  0  0  0  0  0  0  0  0
   47.2830   32.9680   45.2870 O   0  0  0  0  0  0  0  0  0  0  0  0
   47.2460   31.6170   45.5010 C   0  0  0  0  0  0  0  0  0  0  0  0
   48.3310   31.2970   45.5150 H   0  0  0  0  0  0  0  0  0  0  0  0
   46.7740   30.9850   44.7660 H   0  0  0  0  0  0  0  0  0  0  0  0
   46.9250   31.3690   49.1960 C   0  0  0  0  0  0  0  0  0  0  0  0
   47.4360   31.7120   47.9400 C   0  0  0  0  0  0  0  0  0  0  0  0
   46.7310   31.2710   46.8210 C   0  0  0  0  0  0  0  0  0  0  0  0
   45.5940   30.5360   47.0240 N   0  0  0  0  0  0  0  0  0  0  0  0
   45.1300   30.2240   48.2460 C   0  0  0  0  0  0  0  0  0  0  0  0
   45.8080   30.6490   49.3270 N   0  0  0  0  0  0  0  0  0  0  0  0
   47.5290   31.7480   50.0280 H   0  0  0  0  0  0  0  0  0  0  0  0
   48.3360   32.2930   47.8020 H   0  0  0  0  0  0  0  0  0  0  0  0
   44.2270   29.6410   48.3790 H   0  0  0  0  0  0  0  0  0  0  0  0
  1  6  1  1  0  0  0
  1 22  1  0  0  0  0
  2  1  1  0  0  0  0
  2  7  1  0  0  0  0
  3  9  1  0  0  0  0
  3  2  1  0  0  0  0
  4  3  1  0  0  0  0
  4  5  1  0  0  0  0
  5 13  1  1  0  0  0
  5  1  1  0  0  0  0
  8  2  1  0  0  0  0
 10  3  1  0  0  0  0
 11  4  1  0  0  0  0
 12  4  1  0  0  0  0
 14 19  1  0  0  0  0
 14 15  2  0  0  0  0
 15 16  1  0  0  0  0
 16  5  1  0  0  0  0
 16 20  1  0  0  0  0
 17 21  1  0  0  0  0
 17 15  1  0  0  0  0
 18 17  1  0  0  0  0
 22 24  1  0  0  0  0
 24 27  1  0  0  0  0
 24 23  2  1  0  0  0
 25 24  1  0  0  0  0
 26 25  1  0  0  0  0
 27 28  1  0  0  0  0
 28 29  1  0  0  0  0
 28 33  1  0  0  0  0
 30 28  1  0  0  0  0
 31 36  1  0  0  0  0
 31 37  1  0  0  0  0
 32 31  2  0  0  0  0
 33 34  2  0  0  0  0
 33 32  1  0  0  0  0
 34 35  1  0  0  0  0
 35 39  1  0  0  0  0
 35 36  2  0  0  0  0
 38 32  1  0  0  0  0
M  END
>  <minimizedAffinity>
-4.84305859

>  <minimizedRMSD>
2.11437893

$$$$
