
 OpenBabel03242514543D

 43 45  0  0  1  0  0  0  0  0999 V2000
   45.6110   32.7950   42.6760 N   0  0  0  0  0  0  0  0  0  0  0  0
   44.3140   32.2200   42.3360 C   0  0  0  0  0  0  0  0  0  0  0  0
   43.9780   32.3550   40.8840 C   0  0  0  0  0  0  0  0  0  0  0  0
   44.2150   33.6380   40.3610 N   0  0  0  0  0  0  0  0  0  0  0  0
   45.3150   34.3510   40.8470 C   0  0  0  0  0  0  0  0  0  0  0  0
   46.2790   33.4170   41.6060 C   0  0  1  0  0  0  0  0  0  0  0  0
   44.3930   31.1260   42.5560 H   0  0  0  0  0  0  0  0  0  0  0  0
   43.5090   32.5940   43.0040 H   0  0  0  0  0  0  0  0  0  0  0  0
   44.4330   31.5600   40.2590 H   0  0  0  0  0  0  0  0  0  0  0  0
   42.8680   32.1630   40.8100 H   0  0  0  0  0  0  0  0  0  0  0  0
   44.2360   33.6020   39.3170 H   0  0  0  0  0  0  0  0  0  0  0  0
   45.8650   34.9660   40.1050 H   0  0  0  0  0  0  0  0  0  0  0  0
   44.9730   35.0860   41.6230 H   0  0  0  0  0  0  0  0  0  0  0  0
   46.3650   32.5820   40.8360 H   0  0  0  0  0  0  0  0  0  0  0  0
   47.5630   33.9480   41.6640 N   0  0  2  0  0  0  0  0  0  0  0  0
   47.9940   34.6980   42.8020 C   0  0  0  0  0  0  0  0  0  0  0  0
   49.3730   35.1450   42.3360 C   0  0  0  0  0  0  0  0  0  0  0  0
   48.9900   35.7070   40.9760 C   0  0  0  0  0  0  0  0  0  0  0  0
   48.0360   34.6300   40.4850 C   0  0  1  0  0  0  0  0  0  0  0  0
   48.1990   33.9850   43.6410 H   0  0  0  0  0  0  0  0  0  0  0  0
   47.3540   35.5350   43.0730 H   0  0  0  0  0  0  0  0  0  0  0  0
   49.9710   34.2300   42.1610 H   0  0  0  0  0  0  0  0  0  0  0  0
   49.8390   35.8940   42.9780 H   0  0  0  0  0  0  0  0  0  0  0  0
   48.4960   36.6810   41.0320 H   0  0  0  0  0  0  0  0  0  0  0  0
   49.8750   35.6850   40.3020 H   0  0  0  0  0  0  0  0  0  0  0  0
   47.2250   35.1020   39.9190 H   0  0  0  0  0  0  0  0  0  0  0  0
   47.4980   34.2620   37.7910 N   0  0  0  0  0  0  0  0  0  0  0  0
   48.5480   33.6950   38.2840 C   0  0  0  0  0  0  0  0  0  0  0  0
   48.7760   33.6320   39.7050 N   0  0  0  0  0  0  0  0  0  0  0  0
   49.5480   33.0940   37.4400 N   0  0  0  0  0  0  0  0  0  0  0  0
   50.4280   33.6240   37.2660 H   0  0  0  0  0  0  0  0  0  0  0  0
   47.2890   34.3330   36.7670 H   0  0  0  0  0  0  0  0  0  0  0  0
   49.4300   32.9100   40.0990 H   0  0  0  0  0  0  0  0  0  0  0  0
   49.5100   32.1700   36.9630 H   0  0  0  0  0  0  0  0  0  0  0  0
   45.5450   33.5770   44.9150 C   0  0  0  0  0  0  0  0  0  0  0  0
   46.0220   32.6570   44.0120 C   0  0  0  0  0  0  0  0  0  0  0  0
   46.8660   31.6730   44.4880 C   0  0  0  0  0  0  0  0  0  0  0  0
   47.2050   31.6270   45.7990 N   0  0  0  0  0  0  0  0  0  0  0  0
   46.7140   32.5520   46.6620 C   0  0  0  0  0  0  0  0  0  0  0  0
   45.8930   33.5140   46.2160 N   0  0  0  0  0  0  0  0  0  0  0  0
   44.8780   34.3850   44.6440 H   0  0  0  0  0  0  0  0  0  0  0  0
   47.2350   30.9610   43.7820 H   0  0  0  0  0  0  0  0  0  0  0  0
   46.9760   32.5230   47.7000 H   0  0  0  0  0  0  0  0  0  0  0  0
  1 36  1  0  0  0  0
  2  7  1  0  0  0  0
  2  1  1  0  0  0  0
  2  8  1  0  0  0  0
  3  2  1  0  0  0  0
  4  5  1  0  0  0  0
  4  3  1  0  0  0  0
  5  6  1  0  0  0  0
  5 13  1  0  0  0  0
  6 14  1  6  0  0  0
  6 15  1  0  0  0  0
  6  1  1  0  0  0  0
  9  3  1  0  0  0  0
 10  3  1  0  0  0  0
 11  4  1  0  0  0  0
 12  5  1  0  0  0  0
 15 16  1  1  0  0  0
 16 21  1  0  0  0  0
 16 20  1  0  0  0  0
 17 16  1  0  0  0  0
 17 23  1  0  0  0  0
 18 24  1  0  0  0  0
 18 17  1  0  0  0  0
 19 26  1  6  0  0  0
 19 18  1  0  0  0  0
 19 15  1  0  0  0  0
 22 17  1  0  0  0  0
 25 18  1  0  0  0  0
 27 28  2  0  0  0  0
 28 29  1  0  0  0  0
 29 33  1  0  0  0  0
 29 19  1  0  0  0  0
 30 28  1  0  0  0  0
 31 30  1  0  0  0  0
 32 27  1  0  0  0  0
 34 30  1  0  0  0  0
 35 40  1  0  0  0  0
 36 37  1  0  0  0  0
 36 35  2  0  0  0  0
 37 38  2  0  0  0  0
 38 39  1  0  0  0  0
 39 43  1  0  0  0  0
 40 39  2  0  0  0  0
 41 35  1  0  0  0  0
 42 37  1  0  0  0  0
M  END
>  <minimizedAffinity>
-5.45283747

>  <minimizedRMSD>
4.84351969

$$$$
