
 OpenBabel03252509333D

 39 40  0  0  1  0  0  0  0  0999 V2000
   36.8400   29.4530   38.2450 C   0  0  1  0  0  0  0  0  0  0  0  0
   35.9530   29.4070   37.0330 C   0  0  0  0  0  0  0  0  0  0  0  0
   36.5320   28.2300   36.2840 C   0  0  0  0  0  0  0  0  0  0  0  0
   38.0120   28.2130   36.6480 C   0  0  0  0  0  0  0  0  0  0  0  0
   38.2200   29.3880   37.5870 C   0  0  1  0  0  0  0  0  0  0  0  0
   36.7410   28.5630   38.8710 H   0  0  0  0  0  0  0  0  0  0  0  0
   34.8860   29.3030   37.2460 H   0  0  0  0  0  0  0  0  0  0  0  0
   36.0900   30.3340   36.4430 H   0  0  0  0  0  0  0  0  0  0  0  0
   36.0710   27.3250   36.7700 H   0  0  0  0  0  0  0  0  0  0  0  0
   36.3590   28.2500   35.1990 H   0  0  0  0  0  0  0  0  0  0  0  0
   38.5510   28.4620   35.7030 H   0  0  0  0  0  0  0  0  0  0  0  0
   38.3310   27.2500   37.0950 H   0  0  0  0  0  0  0  0  0  0  0  0
   38.9120   29.0260   38.3700 H   0  0  0  0  0  0  0  0  0  0  0  0
   40.0430   31.1650   38.8370 N   0  0  0  0  0  0  0  0  0  0  0  0
   39.6000   31.3750   37.6410 C   0  0  0  0  0  0  0  0  0  0  0  0
   38.6180   30.5950   36.9530 N   0  0  0  0  0  0  0  0  0  0  0  0
   40.1750   32.5080   36.9780 N   0  0  0  0  0  0  0  0  0  0  0  0
   40.5630   32.9060   36.1010 H   0  0  0  0  0  0  0  0  0  0  0  0
   39.6620   30.3540   39.3690 H   0  0  0  0  0  0  0  0  0  0  0  0
   38.2210   30.8890   36.0530 H   0  0  0  0  0  0  0  0  0  0  0  0
   40.3330   33.4070   37.4890 H   0  0  0  0  0  0  0  0  0  0  0  0
   36.7150   30.6290   38.9830 O   0  0  0  0  0  0  0  0  0  0  0  0
   38.1640   30.6480   41.1400 O   0  0  0  0  0  0  0  0  0  0  0  0
   36.8140   30.2640   40.6250 P   0  0  1  0  0  0  0  0  0  0  0  0
   35.5640   30.9650   41.4950 O   0  0  0  0  0  0  0  0  0  0  0  0
   35.0970   31.6590   40.9680 H   0  0  0  0  0  0  0  0  0  0  0  0
   36.6050   28.5880   40.7850 O   0  0  0  0  0  0  0  0  0  0  0  0
   36.5880   28.2860   42.1190 C   0  0  0  0  0  0  0  0  0  0  0  0
   35.5970   27.7650   42.2850 H   0  0  0  0  0  0  0  0  0  0  0  0
   36.6080   29.0900   42.8370 H   0  0  0  0  0  0  0  0  0  0  0  0
   39.5880   26.7380   43.6750 C   0  0  0  0  0  0  0  0  0  0  0  0
   38.6300   27.6990   43.3360 C   0  0  0  0  0  0  0  0  0  0  0  0
   37.5990   27.3000   42.4870 C   0  0  0  0  0  0  0  0  0  0  0  0
   37.5920   26.0040   42.0440 N   0  0  0  0  0  0  0  0  0  0  0  0
   38.5300   25.1060   42.3900 C   0  0  0  0  0  0  0  0  0  0  0  0
   39.5260   25.4880   43.2100 N   0  0  0  0  0  0  0  0  0  0  0  0
   40.3670   27.1210   44.3440 H   0  0  0  0  0  0  0  0  0  0  0  0
   38.6530   28.7170   43.6960 H   0  0  0  0  0  0  0  0  0  0  0  0
   38.5010   24.0860   42.0260 H   0  0  0  0  0  0  0  0  0  0  0  0
  1  6  1  1  0  0  0
  1 22  1  0  0  0  0
  2  7  1  0  0  0  0
  2  1  1  0  0  0  0
  3  4  1  0  0  0  0
  3  9  1  0  0  0  0
  3  2  1  0  0  0  0
  4 12  1  0  0  0  0
  4  5  1  0  0  0  0
  5  1  1  0  0  0  0
  5 13  1  1  0  0  0
  8  2  1  0  0  0  0
 10  3  1  0  0  0  0
 11  4  1  0  0  0  0
 14 19  1  0  0  0  0
 15 14  2  0  0  0  0
 16  5  1  0  0  0  0
 16 15  1  0  0  0  0
 17 21  1  0  0  0  0
 17 15  1  0  0  0  0
 18 17  1  0  0  0  0
 20 16  1  0  0  0  0
 22 24  1  0  0  0  0
 24 27  1  0  0  0  0
 24 23  2  1  0  0  0
 24 25  1  0  0  0  0
 26 25  1  0  0  0  0
 27 28  1  0  0  0  0
 28 29  1  0  0  0  0
 28 33  1  0  0  0  0
 28 30  1  0  0  0  0
 31 37  1  0  0  0  0
 32 31  1  0  0  0  0
 32 38  1  0  0  0  0
 33 32  2  0  0  0  0
 34 35  2  0  0  0  0
 34 33  1  0  0  0  0
 35 36  1  0  0  0  0
 36 31  2  0  0  0  0
 39 35  1  0  0  0  0
M  END
>  <minimizedAffinity>
-5.29724979

$$$$

 OpenBabel03252509333D

 39 40  0  0  1  0  0  0  0  0999 V2000
   36.4630   29.4130   40.4230 C   0  0  1  0  0  0  0  0  0  0  0  0
   35.0430   29.2840   39.9440 C   0  0  0  0  0  0  0  0  0  0  0  0
   35.2480   29.0590   38.4650 C   0  0  0  0  0  0  0  0  0  0  0  0
   36.5320   29.8040   38.1200 C   0  0  0  0  0  0  0  0  0  0  0  0
   37.0070   30.4320   39.4190 C   0  0  1  0  0  0  0  0  0  0  0  0
   37.0360   28.4930   40.2890 H   0  0  0  0  0  0  0  0  0  0  0  0
   34.4650   28.4930   40.4270 H   0  0  0  0  0  0  0  0  0  0  0  0
   34.5120   30.2410   40.1110 H   0  0  0  0  0  0  0  0  0  0  0  0
   35.4780   27.9610   38.3690 H   0  0  0  0  0  0  0  0  0  0  0  0
   34.3980   29.3600   37.8360 H   0  0  0  0  0  0  0  0  0  0  0  0
   36.2160   30.6450   37.4580 H   0  0  0  0  0  0  0  0  0  0  0  0
   37.2970   29.1470   37.6610 H   0  0  0  0  0  0  0  0  0  0  0  0
   38.1050   30.3070   39.4260 H   0  0  0  0  0  0  0  0  0  0  0  0
   38.6170   32.6570   38.7130 N   0  0  0  0  0  0  0  0  0  0  0  0
   37.4190   32.8040   39.1730 C   0  0  0  0  0  0  0  0  0  0  0  0
   36.5570   31.7600   39.6390 N   0  0  0  0  0  0  0  0  0  0  0  0
   36.9480   34.1570   39.2010 N   0  0  0  0  0  0  0  0  0  0  0  0
   36.1620   34.8150   39.0330 H   0  0  0  0  0  0  0  0  0  0  0  0
   39.0140   31.6940   38.6670 H   0  0  0  0  0  0  0  0  0  0  0  0
   35.6640   31.9590   40.1060 H   0  0  0  0  0  0  0  0  0  0  0  0
   37.5730   34.9370   39.5100 H   0  0  0  0  0  0  0  0  0  0  0  0
   36.5700   29.9140   41.7200 O   0  0  0  0  0  0  0  0  0  0  0  0
   38.5910   29.6910   43.3370 O   0  0  0  0  0  0  0  0  0  0  0  0
   37.5490   28.8870   42.6280 P   0  0  1  0  0  0  0  0  0  0  0  0
   36.6490   27.9290   43.6700 O   0  0  0  0  0  0  0  0  0  0  0  0
   35.7220   28.2610   43.7610 H   0  0  0  0  0  0  0  0  0  0  0  0
   38.3000   27.8160   41.5480 O   0  0  0  0  0  0  0  0  0  0  0  0
   38.0850   26.5400   41.9940 C   0  0  0  0  0  0  0  0  0  0  0  0
   37.4000   26.6580   42.8870 H   0  0  0  0  0  0  0  0  0  0  0  0
   38.9230   25.9650   42.3540 H   0  0  0  0  0  0  0  0  0  0  0  0
   36.0800   23.7610   40.5540 C   0  0  0  0  0  0  0  0  0  0  0  0
   36.7980   24.5210   41.4830 C   0  0  0  0  0  0  0  0  0  0  0  0
   37.3320   25.7310   41.0420 C   0  0  0  0  0  0  0  0  0  0  0  0
   37.1190   26.0940   39.7390 N   0  0  0  0  0  0  0  0  0  0  0  0
   36.4220   25.3390   38.8720 C   0  0  0  0  0  0  0  0  0  0  0  0
   35.9070   24.1710   39.2950 N   0  0  0  0  0  0  0  0  0  0  0  0
   35.6900   22.8250   40.9690 H   0  0  0  0  0  0  0  0  0  0  0  0
   36.9550   24.2170   42.5070 H   0  0  0  0  0  0  0  0  0  0  0  0
   36.2680   25.6490   37.8460 H   0  0  0  0  0  0  0  0  0  0  0  0
  1  6  1  6  0  0  0
  1 22  1  0  0  0  0
  2  8  1  0  0  0  0
  2  1  1  0  0  0  0
  2  7  1  0  0  0  0
  3  2  1  0  0  0  0
  4  3  1  0  0  0  0
  4  5  1  0  0  0  0
  5 13  1  1  0  0  0
  5 16  1  0  0  0  0
  5  1  1  0  0  0  0
  9  3  1  0  0  0  0
 10  3  1  0  0  0  0
 11  4  1  0  0  0  0
 12  4  1  0  0  0  0
 14 15  2  0  0  0  0
 15 17  1  0  0  0  0
 15 16  1  0  0  0  0
 16 20  1  0  0  0  0
 17 21  1  0  0  0  0
 18 17  1  0  0  0  0
 19 14  1  0  0  0  0
 22 24  1  0  0  0  0
 24 23  2  1  0  0  0
 24 25  1  0  0  0  0
 25 26  1  0  0  0  0
 27 28  1  0  0  0  0
 27 24  1  0  0  0  0
 28 30  1  0  0  0  0
 28 29  1  0  0  0  0
 31 37  1  0  0  0  0
 31 32  1  0  0  0  0
 32 38  1  0  0  0  0
 33 32  2  0  0  0  0
 33 28  1  0  0  0  0
 34 33  1  0  0  0  0
 35 36  1  0  0  0  0
 35 34  2  0  0  0  0
 36 31  2  0  0  0  0
 39 35  1  0  0  0  0
M  END
>  <minimizedAffinity>
-5.28540277

$$$$

 OpenBabel03252509333D

 39 40  0  0  1  0  0  0  0  0999 V2000
   36.9000   31.0470   40.2070 C   0  0  1  0  0  0  0  0  0  0  0  0
   37.0660   30.4310   38.8450 C   0  0  0  0  0  0  0  0  0  0  0  0
   35.7310   29.7510   38.6610 C   0  0  0  0  0  0  0  0  0  0  0  0
   35.2770   29.3710   40.0670 C   0  0  0  0  0  0  0  0  0  0  0  0
   36.3800   29.8460   40.9970 C   0  0  1  0  0  0  0  0  0  0  0  0
   36.1180   31.8090   40.2290 H   0  0  0  0  0  0  0  0  0  0  0  0
   37.3060   31.1370   38.0470 H   0  0  0  0  0  0  0  0  0  0  0  0
   37.8730   29.6740   38.8810 H   0  0  0  0  0  0  0  0  0  0  0  0
   35.0380   30.5660   38.3100 H   0  0  0  0  0  0  0  0  0  0  0  0
   35.7460   28.8950   37.9720 H   0  0  0  0  0  0  0  0  0  0  0  0
   35.2990   28.2560   40.0910 H   0  0  0  0  0  0  0  0  0  0  0  0
   34.2880   29.7980   40.3270 H   0  0  0  0  0  0  0  0  0  0  0  0
   35.8630   30.2650   41.8810 H   0  0  0  0  0  0  0  0  0  0  0  0
   37.0250   29.1840   43.6780 N   0  0  0  0  0  0  0  0  0  0  0  0
   37.5580   28.5640   42.6780 C   0  0  0  0  0  0  0  0  0  0  0  0
   37.3700   28.8730   41.2940 N   0  0  0  0  0  0  0  0  0  0  0  0
   38.4100   27.4680   43.0350 N   0  0  0  0  0  0  0  0  0  0  0  0
   38.7140   26.4940   42.8400 H   0  0  0  0  0  0  0  0  0  0  0  0
   36.3940   29.9900   43.4810 H   0  0  0  0  0  0  0  0  0  0  0  0
   37.9190   28.4180   40.5540 H   0  0  0  0  0  0  0  0  0  0  0  0
   39.0800   27.5470   43.8350 H   0  0  0  0  0  0  0  0  0  0  0  0
   38.0950   31.5050   40.7600 O   0  0  0  0  0  0  0  0  0  0  0  0
   37.1700   33.5880   39.5130 O   0  0  0  0  0  0  0  0  0  0  0  0
   38.3720   33.0850   40.2440 P   0  0  1  0  0  0  0  0  0  0  0  0
   38.8260   34.0840   41.5130 O   0  0  0  0  0  0  0  0  0  0  0  0
   38.6450   33.6640   42.3900 H   0  0  0  0  0  0  0  0  0  0  0  0
   39.7000   33.0480   39.1880 O   0  0  0  0  0  0  0  0  0  0  0  0
   40.4810   34.1410   39.4460 C   0  0  0  0  0  0  0  0  0  0  0  0
   39.9690   34.6650   40.3090 H   0  0  0  0  0  0  0  0  0  0  0  0
   40.5910   34.8960   38.6840 H   0  0  0  0  0  0  0  0  0  0  0  0
   44.1530   33.5870   39.6030 C   0  0  0  0  0  0  0  0  0  0  0  0
   42.8960   33.9360   39.1000 C   0  0  0  0  0  0  0  0  0  0  0  0
   41.8020   33.7830   39.9500 C   0  0  0  0  0  0  0  0  0  0  0  0
   42.0290   33.3050   41.2130 N   0  0  0  0  0  0  0  0  0  0  0  0
   43.2520   32.9780   41.6650 C   0  0  0  0  0  0  0  0  0  0  0  0
   44.3080   33.1250   40.8470 N   0  0  0  0  0  0  0  0  0  0  0  0
   44.9650   33.7320   38.8820 H   0  0  0  0  0  0  0  0  0  0  0  0
   42.7380   34.3120   38.1000 H   0  0  0  0  0  0  0  0  0  0  0  0
   43.4030   32.6020   42.6700 H   0  0  0  0  0  0  0  0  0  0  0  0
  1  6  1  6  0  0  0
  1 22  1  0  0  0  0
  1  5  1  0  0  0  0
  2  8  1  0  0  0  0
  2  1  1  0  0  0  0
  3  2  1  0  0  0  0
  3  4  1  0  0  0  0
  4 11  1  0  0  0  0
  4 12  1  0  0  0  0
  4  5  1  0  0  0  0
  5 16  1  0  0  0  0
  5 13  1  1  0  0  0
  7  2  1  0  0  0  0
  9  3  1  0  0  0  0
 10  3  1  0  0  0  0
 15 17  1  0  0  0  0
 15 14  2  0  0  0  0
 16 15  1  0  0  0  0
 17 21  1  0  0  0  0
 18 17  1  0  0  0  0
 19 14  1  0  0  0  0
 20 16  1  0  0  0  0
 24 23  2  6  0  0  0
 24 22  1  0  0  0  0
 24 25  1  0  0  0  0
 25 26  1  0  0  0  0
 27 28  1  0  0  0  0
 27 24  1  0  0  0  0
 28 33  1  0  0  0  0
 28 29  1  0  0  0  0
 30 28  1  0  0  0  0
 31 36  1  0  0  0  0
 32 31  2  0  0  0  0
 32 33  1  0  0  0  0
 33 34  2  0  0  0  0
 34 35  1  0  0  0  0
 35 39  1  0  0  0  0
 36 35  2  0  0  0  0
 37 31  1  0  0  0  0
 38 32  1  0  0  0  0
M  END
>  <minimizedAffinity>
-5.17535353

$$$$

 OpenBabel03252509333D

 39 40  0  0  1  0  0  0  0  0999 V2000
   36.8410   29.3940   40.2710 C   0  0  1  0  0  0  0  0  0  0  0  0
   35.3610   29.2020   40.4570 C   0  0  0  0  0  0  0  0  0  0  0  0
   34.9080   28.9900   39.0320 C   0  0  0  0  0  0  0  0  0  0  0  0
   35.8830   29.7930   38.1770 C   0  0  0  0  0  0  0  0  0  0  0  0
   36.8510   30.4380   39.1530 C   0  0  1  0  0  0  0  0  0  0  0  0
   37.3340   28.5020   39.8810 H   0  0  0  0  0  0  0  0  0  0  0  0
   35.0840   28.3840   41.1260 H   0  0  0  0  0  0  0  0  0  0  0  0
   34.9170   30.1330   40.8590 H   0  0  0  0  0  0  0  0  0  0  0  0
   35.1170   27.9030   38.8220 H   0  0  0  0  0  0  0  0  0  0  0  0
   33.8580   29.2530   38.8430 H   0  0  0  0  0  0  0  0  0  0  0  0
   35.2760   30.6200   37.7380 H   0  0  0  0  0  0  0  0  0  0  0  0
   36.3960   29.1720   37.4170 H   0  0  0  0  0  0  0  0  0  0  0  0
   37.8460   30.3630   38.6780 H   0  0  0  0  0  0  0  0  0  0  0  0
   38.6340   32.6210   38.8430 N   0  0  0  0  0  0  0  0  0  0  0  0
   37.4360   32.7820   39.2990 C   0  0  0  0  0  0  0  0  0  0  0  0
   36.4900   31.7450   39.5750 N   0  0  0  0  0  0  0  0  0  0  0  0
   37.0610   34.1450   39.5360 N   0  0  0  0  0  0  0  0  0  0  0  0
   36.3290   34.8780   39.4610 H   0  0  0  0  0  0  0  0  0  0  0  0
   38.9640   31.6510   38.6500 H   0  0  0  0  0  0  0  0  0  0  0  0
   35.5990   31.9320   40.0520 H   0  0  0  0  0  0  0  0  0  0  0  0
   37.7300   34.8170   39.9770 H   0  0  0  0  0  0  0  0  0  0  0  0
   37.4830   29.8970   41.4030 O   0  0  0  0  0  0  0  0  0  0  0  0
   39.3580   28.5540   40.2070 O   0  0  0  0  0  0  0  0  0  0  0  0
   39.1260   29.5340   41.3110 P   0  0  1  0  0  0  0  0  0  0  0  0
   40.0610   30.9170   41.1570 O   0  0  0  0  0  0  0  0  0  0  0  0
   39.5110   31.7040   40.9180 H   0  0  0  0  0  0  0  0  0  0  0  0
   39.5740   28.8350   42.7900 O   0  0  0  0  0  0  0  0  0  0  0  0
   38.4710   28.2300   43.3280 C   0  0  0  0  0  0  0  0  0  0  0  0
   37.5920   28.7210   42.8120 H   0  0  0  0  0  0  0  0  0  0  0  0
   38.2770   28.3410   44.3830 H   0  0  0  0  0  0  0  0  0  0  0  0
   37.1010   24.9870   42.1360 C   0  0  0  0  0  0  0  0  0  0  0  0
   37.1690   26.3440   42.4650 C   0  0  0  0  0  0  0  0  0  0  0  0
   38.3760   26.8170   42.9770 C   0  0  0  0  0  0  0  0  0  0  0  0
   39.4080   25.9280   43.1220 N   0  0  0  0  0  0  0  0  0  0  0  0
   39.3080   24.6290   42.7940 C   0  0  0  0  0  0  0  0  0  0  0  0
   38.1440   24.1700   42.3010 N   0  0  0  0  0  0  0  0  0  0  0  0
   36.1240   24.6860   41.7400 H   0  0  0  0  0  0  0  0  0  0  0  0
   36.3430   27.0290   42.3430 H   0  0  0  0  0  0  0  0  0  0  0  0
   40.1400   23.9460   42.9180 H   0  0  0  0  0  0  0  0  0  0  0  0
  1  6  1  6  0  0  0
  1  2  1  0  0  0  0
  1 22  1  0  0  0  0
  2  8  1  0  0  0  0
  2  7  1  0  0  0  0
  3  2  1  0  0  0  0
  4  3  1  0  0  0  0
  4  5  1  0  0  0  0
  5 13  1  6  0  0  0
  5 16  1  0  0  0  0
  5  1  1  0  0  0  0
  9  3  1  0  0  0  0
 10  3  1  0  0  0  0
 11  4  1  0  0  0  0
 12  4  1  0  0  0  0
 14 15  2  0  0  0  0
 15 17  1  0  0  0  0
 15 16  1  0  0  0  0
 16 20  1  0  0  0  0
 17 21  1  0  0  0  0
 18 17  1  0  0  0  0
 19 14  1  0  0  0  0
 24 23  2  6  0  0  0
 24 22  1  0  0  0  0
 24 27  1  0  0  0  0
 25 24  1  0  0  0  0
 26 25  1  0  0  0  0
 27 28  1  0  0  0  0
 28 30  1  0  0  0  0
 29 28  1  0  0  0  0
 31 36  2  0  0  0  0
 31 32  1  0  0  0  0
 32 33  2  0  0  0  0
 33 34  1  0  0  0  0
 33 28  1  0  0  0  0
 35 39  1  0  0  0  0
 35 34  2  0  0  0  0
 36 35  1  0  0  0  0
 37 31  1  0  0  0  0
 38 32  1  0  0  0  0
M  END
>  <minimizedAffinity>
-5.16547155

$$$$

 OpenBabel03252509333D

 39 40  0  0  1  0  0  0  0  0999 V2000
   37.6210   30.6820   40.4370 C   0  0  1  0  0  0  0  0  0  0  0  0
   36.1780   30.9400   40.7740 C   0  0  0  0  0  0  0  0  0  0  0  0
   35.5430   29.6250   40.3880 C   0  0  0  0  0  0  0  0  0  0  0  0
   36.3970   29.0880   39.2440 C   0  0  0  0  0  0  0  0  0  0  0  0
   37.4830   30.1250   39.0190 C   0  0  1  0  0  0  0  0  0  0  0  0
   38.0600   29.8930   41.0500 H   0  0  0  0  0  0  0  0  0  0  0  0
   35.9920   31.2230   41.8130 H   0  0  0  0  0  0  0  0  0  0  0  0
   35.7900   31.7510   40.1280 H   0  0  0  0  0  0  0  0  0  0  0  0
   35.7250   28.9480   41.2690 H   0  0  0  0  0  0  0  0  0  0  0  0
   34.4770   29.6920   40.1310 H   0  0  0  0  0  0  0  0  0  0  0  0
   35.7360   29.1190   38.3450 H   0  0  0  0  0  0  0  0  0  0  0  0
   36.8070   28.0810   39.4540 H   0  0  0  0  0  0  0  0  0  0  0  0
   38.4080   29.5500   38.8280 H   0  0  0  0  0  0  0  0  0  0  0  0
   39.5150   31.2380   37.3830 N   0  0  0  0  0  0  0  0  0  0  0  0
   38.2690   31.5380   37.2180 C   0  0  0  0  0  0  0  0  0  0  0  0
   37.1780   31.1040   38.0370 N   0  0  0  0  0  0  0  0  0  0  0  0
   37.9990   32.3870   36.0960 N   0  0  0  0  0  0  0  0  0  0  0  0
   37.3860   32.5990   35.2850 H   0  0  0  0  0  0  0  0  0  0  0  0
   39.7730   30.6220   38.1830 H   0  0  0  0  0  0  0  0  0  0  0  0
   36.2290   31.4780   37.9230 H   0  0  0  0  0  0  0  0  0  0  0  0
   38.6180   33.2010   35.8770 H   0  0  0  0  0  0  0  0  0  0  0  0
   38.4050   31.8360   40.4250 O   0  0  0  0  0  0  0  0  0  0  0  0
   40.6550   30.5430   40.2950 O   0  0  0  0  0  0  0  0  0  0  0  0
   39.8890   31.5010   41.1490 P   0  0  1  0  0  0  0  0  0  0  0  0
   40.7480   32.9020   41.4830 O   0  0  0  0  0  0  0  0  0  0  0  0
   40.3690   33.6830   41.0100 H   0  0  0  0  0  0  0  0  0  0  0  0
   39.5700   30.7850   42.6530 O   0  0  0  0  0  0  0  0  0  0  0  0
   40.0390   29.5000   42.6220 C   0  0  0  0  0  0  0  0  0  0  0  0
   40.5330   29.3480   43.6280 H   0  0  0  0  0  0  0  0  0  0  0  0
   40.7900   29.2360   41.8950 H   0  0  0  0  0  0  0  0  0  0  0  0
   36.9030   27.6700   43.4200 C   0  0  0  0  0  0  0  0  0  0  0  0
   37.9190   28.6280   43.4840 C   0  0  0  0  0  0  0  0  0  0  0  0
   38.9670   28.5110   42.5730 C   0  0  0  0  0  0  0  0  0  0  0  0
   38.9330   27.4720   41.6810 N   0  0  0  0  0  0  0  0  0  0  0  0
   37.9390   26.5680   41.6470 C   0  0  0  0  0  0  0  0  0  0  0  0
   36.9270   26.6790   42.5250 N   0  0  0  0  0  0  0  0  0  0  0  0
   36.1130   27.8240   44.1640 H   0  0  0  0  0  0  0  0  0  0  0  0
   37.9270   29.4410   44.1960 H   0  0  0  0  0  0  0  0  0  0  0  0
   37.9360   25.7550   40.9300 H   0  0  0  0  0  0  0  0  0  0  0  0
  1  2  1  0  0  0  0
  1  6  1  1  0  0  0
  2  7  1  0  0  0  0
  3  2  1  0  0  0  0
  3  9  1  0  0  0  0
  4 12  1  0  0  0  0
  4  3  1  0  0  0  0
  5 13  1  6  0  0  0
  5  4  1  0  0  0  0
  5  1  1  0  0  0  0
  8  2  1  0  0  0  0
 10  3  1  0  0  0  0
 11  4  1  0  0  0  0
 14 19  1  0  0  0  0
 15 14  2  0  0  0  0
 15 16  1  0  0  0  0
 16  5  1  0  0  0  0
 17 15  1  0  0  0  0
 18 17  1  0  0  0  0
 20 16  1  0  0  0  0
 21 17  1  0  0  0  0
 22  1  1  0  0  0  0
 22 24  1  0  0  0  0
 24 23  2  6  0  0  0
 24 25  1  0  0  0  0
 24 27  1  0  0  0  0
 26 25  1  0  0  0  0
 28 27  1  0  0  0  0
 28 29  1  0  0  0  0
 30 28  1  0  0  0  0
 31 32  1  0  0  0  0
 31 37  1  0  0  0  0
 32 38  1  0  0  0  0
 33 28  1  0  0  0  0
 33 32  2  0  0  0  0
 34 33  1  0  0  0  0
 35 34  2  0  0  0  0
 35 36  1  0  0  0  0
 36 31  2  0  0  0  0
 39 35  1  0  0  0  0
M  END
>  <minimizedAffinity>
-5.1344471

$$$$

 OpenBabel03252509333D

 39 40  0  0  1  0  0  0  0  0999 V2000
   39.5440   32.3700   40.1310 C   0  0  1  0  0  0  0  0  0  0  0  0
   38.3900   33.3330   40.0880 C   0  0  0  0  0  0  0  0  0  0  0  0
   37.4380   32.6140   39.1620 C   0  0  0  0  0  0  0  0  0  0  0  0
   38.3260   31.8130   38.2160 C   0  0  0  0  0  0  0  0  0  0  0  0
   39.7540   32.1140   38.6370 C   0  0  1  0  0  0  0  0  0  0  0  0
   39.2750   31.4130   40.5850 H   0  0  0  0  0  0  0  0  0  0  0  0
   37.9530   33.5710   41.0600 H   0  0  0  0  0  0  0  0  0  0  0  0
   38.7220   34.2820   39.6250 H   0  0  0  0  0  0  0  0  0  0  0  0
   36.9090   31.8660   39.8160 H   0  0  0  0  0  0  0  0  0  0  0  0
   36.7340   33.2720   38.6330 H   0  0  0  0  0  0  0  0  0  0  0  0
   38.1850   32.2830   37.2130 H   0  0  0  0  0  0  0  0  0  0  0  0
   38.0980   30.7290   38.2300 H   0  0  0  0  0  0  0  0  0  0  0  0
   40.2930   31.1510   38.5680 H   0  0  0  0  0  0  0  0  0  0  0  0
   42.5290   32.0910   38.0570 N   0  0  0  0  0  0  0  0  0  0  0  0
   41.7560   33.0370   37.6380 C   0  0  0  0  0  0  0  0  0  0  0  0
   40.3660   33.1910   37.9440 N   0  0  0  0  0  0  0  0  0  0  0  0
   42.3900   34.0010   36.7890 N   0  0  0  0  0  0  0  0  0  0  0  0
   42.3310   34.5910   35.9360 H   0  0  0  0  0  0  0  0  0  0  0  0
   42.1240   31.3590   38.6780 H   0  0  0  0  0  0  0  0  0  0  0  0
   39.8400   34.0320   37.6790 H   0  0  0  0  0  0  0  0  0  0  0  0
   43.3480   34.3610   37.0070 H   0  0  0  0  0  0  0  0  0  0  0  0
   40.7010   32.9110   40.6920 O   0  0  0  0  0  0  0  0  0  0  0  0
   42.0540   30.6980   40.8500 O   0  0  0  0  0  0  0  0  0  0  0  0
   41.4200   31.7590   41.6900 P   0  0  1  0  0  0  0  0  0  0  0  0
   42.4940   32.4580   42.7720 O   0  0  0  0  0  0  0  0  0  0  0  0
   42.7130   33.3890   42.5190 H   0  0  0  0  0  0  0  0  0  0  0  0
   40.1920   31.0710   42.6370 O   0  0  0  0  0  0  0  0  0  0  0  0
   40.3440   29.7120   42.6100 C   0  0  0  0  0  0  0  0  0  0  0  0
   40.7930   29.4500   43.6150 H   0  0  0  0  0  0  0  0  0  0  0  0
   41.0080   29.2750   41.8820 H   0  0  0  0  0  0  0  0  0  0  0  0
   36.7930   28.9030   41.8650 C   0  0  0  0  0  0  0  0  0  0  0  0
   38.0050   29.5980   41.8910 C   0  0  0  0  0  0  0  0  0  0  0  0
   39.0690   29.0040   42.5690 C   0  0  0  0  0  0  0  0  0  0  0  0
   38.8570   27.7860   43.1590 N   0  0  0  0  0  0  0  0  0  0  0  0
   37.6770   27.1440   43.1140 C   0  0  0  0  0  0  0  0  0  0  0  0
   36.6500   27.7160   42.4610 N   0  0  0  0  0  0  0  0  0  0  0  0
   36.0030   29.4290   41.3160 H   0  0  0  0  0  0  0  0  0  0  0  0
   38.1520   30.5590   41.4190 H   0  0  0  0  0  0  0  0  0  0  0  0
   37.5370   26.1810   43.5890 H   0  0  0  0  0  0  0  0  0  0  0  0
  1  6  1  1  0  0  0
  1 22  1  0  0  0  0
  2  1  1  0  0  0  0
  2  7  1  0  0  0  0
  3  9  1  0  0  0  0
  3  2  1  0  0  0  0
  4 12  1  0  0  0  0
  4  5  1  0  0  0  0
  4  3  1  0  0  0  0
  5 13  1  6  0  0  0
  5  1  1  0  0  0  0
  8  2  1  0  0  0  0
 10  3  1  0  0  0  0
 11  4  1  0  0  0  0
 14 19  1  0  0  0  0
 15 16  1  0  0  0  0
 15 14  2  0  0  0  0
 16  5  1  0  0  0  0
 17 21  1  0  0  0  0
 17 15  1  0  0  0  0
 18 17  1  0  0  0  0
 20 16  1  0  0  0  0
 22 24  1  0  0  0  0
 24 23  2  6  0  0  0
 24 27  1  0  0  0  0
 24 25  1  0  0  0  0
 26 25  1  0  0  0  0
 28 27  1  0  0  0  0
 28 29  1  0  0  0  0
 30 28  1  0  0  0  0
 31 32  2  0  0  0  0
 31 36  1  0  0  0  0
 32 33  1  0  0  0  0
 33 28  1  0  0  0  0
 33 34  2  0  0  0  0
 35 34  1  0  0  0  0
 35 39  1  0  0  0  0
 36 35  2  0  0  0  0
 37 31  1  0  0  0  0
 38 32  1  0  0  0  0
M  END
>  <minimizedAffinity>
-5.10240984

$$$$

 OpenBabel03252509333D

 39 40  0  0  1  0  0  0  0  0999 V2000
   41.2630   31.8690   39.2510 C   0  0  1  0  0  0  0  0  0  0  0  0
   41.3650   31.5970   37.7750 C   0  0  0  0  0  0  0  0  0  0  0  0
   42.1150   32.8170   37.2990 C   0  0  0  0  0  0  0  0  0  0  0  0
   41.7110   33.9350   38.2540 C   0  0  0  0  0  0  0  0  0  0  0  0
   40.7380   33.3060   39.2350 C   0  0  1  0  0  0  0  0  0  0  0  0
   42.2380   31.8890   39.7410 H   0  0  0  0  0  0  0  0  0  0  0  0
   41.8560   30.6560   37.5140 H   0  0  0  0  0  0  0  0  0  0  0  0
   40.3500   31.5810   37.3340 H   0  0  0  0  0  0  0  0  0  0  0  0
   43.1980   32.5910   37.5090 H   0  0  0  0  0  0  0  0  0  0  0  0
   41.9440   33.0740   36.2440 H   0  0  0  0  0  0  0  0  0  0  0  0
   41.1200   34.6510   37.6350 H   0  0  0  0  0  0  0  0  0  0  0  0
   42.5800   34.4030   38.7570 H   0  0  0  0  0  0  0  0  0  0  0  0
   40.9950   33.7330   40.2230 H   0  0  0  0  0  0  0  0  0  0  0  0
   38.7350   33.7010   41.2040 N   0  0  0  0  0  0  0  0  0  0  0  0
   38.4560   33.6960   39.9420 C   0  0  0  0  0  0  0  0  0  0  0  0
   39.3690   33.4200   38.8750 N   0  0  0  0  0  0  0  0  0  0  0  0
   37.0920   33.9990   39.6270 N   0  0  0  0  0  0  0  0  0  0  0  0
   36.4260   34.5040   39.0100 H   0  0  0  0  0  0  0  0  0  0  0  0
   39.7130   33.4880   41.4950 H   0  0  0  0  0  0  0  0  0  0  0  0
   39.0550   33.3110   37.9040 H   0  0  0  0  0  0  0  0  0  0  0  0
   36.3080   33.5980   40.1920 H   0  0  0  0  0  0  0  0  0  0  0  0
   40.3600   31.0350   39.9100 O   0  0  0  0  0  0  0  0  0  0  0  0
   42.4330   30.3030   41.2940 O   0  0  0  0  0  0  0  0  0  0  0  0
   40.9830   30.6380   41.4250 P   0  0  1  0  0  0  0  0  0  0  0  0
   40.6950   31.8460   42.5520 O   0  0  0  0  0  0  0  0  0  0  0  0
   40.4130   32.6900   42.1190 H   0  0  0  0  0  0  0  0  0  0  0  0
   40.1360   29.2770   41.9800 O   0  0  0  0  0  0  0  0  0  0  0  0
   39.0680   29.7100   42.7170 C   0  0  0  0  0  0  0  0  0  0  0  0
   39.2600   30.8130   42.8840 H   0  0  0  0  0  0  0  0  0  0  0  0
   38.9110   29.2990   43.7010 H   0  0  0  0  0  0  0  0  0  0  0  0
   35.9590   28.3910   41.1640 C   0  0  0  0  0  0  0  0  0  0  0  0
   37.1600   28.4240   41.8790 C   0  0  0  0  0  0  0  0  0  0  0  0
   37.8120   29.6520   41.9760 C   0  0  0  0  0  0  0  0  0  0  0  0
   37.2370   30.7380   41.3710 N   0  0  0  0  0  0  0  0  0  0  0  0
   36.0790   30.6700   40.6910 C   0  0  0  0  0  0  0  0  0  0  0  0
   35.4490   29.4860   40.5960 N   0  0  0  0  0  0  0  0  0  0  0  0
   35.5030   27.3950   41.1290 H   0  0  0  0  0  0  0  0  0  0  0  0
   37.5980   27.5560   42.3490 H   0  0  0  0  0  0  0  0  0  0  0  0
   35.6450   31.5450   40.2220 H   0  0  0  0  0  0  0  0  0  0  0  0
  1  6  1  1  0  0  0
  1 22  1  0  0  0  0
  2  1  1  0  0  0  0
  3  9  1  0  0  0  0
  3  2  1  0  0  0  0
  3  4  1  0  0  0  0
  4 12  1  0  0  0  0
  4  5  1  0  0  0  0
  5  1  1  0  0  0  0
  5 13  1  1  0  0  0
  7  2  1  0  0  0  0
  8  2  1  0  0  0  0
 10  3  1  0  0  0  0
 11  4  1  0  0  0  0
 14 19  1  0  0  0  0
 15 14  2  0  0  0  0
 16  5  1  0  0  0  0
 16 15  1  0  0  0  0
 17 15  1  0  0  0  0
 17 21  1  0  0  0  0
 18 17  1  0  0  0  0
 20 16  1  0  0  0  0
 22 24  1  0  0  0  0
 24 23  2  6  0  0  0
 24 27  1  0  0  0  0
 24 25  1  0  0  0  0
 26 25  1  0  0  0  0
 27 28  1  0  0  0  0
 28 29  1  0  0  0  0
 28 30  1  0  0  0  0
 31 32  1  0  0  0  0
 32 33  2  0  0  0  0
 32 38  1  0  0  0  0
 33 28  1  0  0  0  0
 34 33  1  0  0  0  0
 35 34  2  0  0  0  0
 36 35  1  0  0  0  0
 36 31  2  0  0  0  0
 37 31  1  0  0  0  0
 39 35  1  0  0  0  0
M  END
>  <minimizedAffinity>
-5.07907724

$$$$

 OpenBabel03252509333D

 39 40  0  0  1  0  0  0  0  0999 V2000
   36.6330   29.3250   38.2260 C   0  0  1  0  0  0  0  0  0  0  0  0
   35.7300   29.2700   37.0250 C   0  0  0  0  0  0  0  0  0  0  0  0
   36.3030   28.0910   36.2760 C   0  0  0  0  0  0  0  0  0  0  0  0
   37.7880   28.0800   36.6210 C   0  0  0  0  0  0  0  0  0  0  0  0
   38.0040   29.2620   37.5500 C   0  0  1  0  0  0  0  0  0  0  0  0
   36.5450   28.4390   38.8580 H   0  0  0  0  0  0  0  0  0  0  0  0
   34.6670   29.1630   37.2540 H   0  0  0  0  0  0  0  0  0  0  0  0
   35.8560   30.1940   36.4280 H   0  0  0  0  0  0  0  0  0  0  0  0
   35.8520   27.1860   36.7730 H   0  0  0  0  0  0  0  0  0  0  0  0
   36.1160   28.1040   35.1930 H   0  0  0  0  0  0  0  0  0  0  0  0
   38.3130   28.3260   35.6680 H   0  0  0  0  0  0  0  0  0  0  0  0
   38.1160   27.1210   37.0690 H   0  0  0  0  0  0  0  0  0  0  0  0
   38.7080   28.9060   38.3260 H   0  0  0  0  0  0  0  0  0  0  0  0
   39.7830   31.0860   38.7960 N   0  0  0  0  0  0  0  0  0  0  0  0
   39.3510   31.2720   37.5930 C   0  0  0  0  0  0  0  0  0  0  0  0
   38.3890   30.4660   36.9040 N   0  0  0  0  0  0  0  0  0  0  0  0
   39.9150   32.4050   36.9200 N   0  0  0  0  0  0  0  0  0  0  0  0
   40.3060   32.7980   36.0420 H   0  0  0  0  0  0  0  0  0  0  0  0
   39.4090   30.2760   39.3350 H   0  0  0  0  0  0  0  0  0  0  0  0
   37.9990   30.7410   35.9950 H   0  0  0  0  0  0  0  0  0  0  0  0
   40.0520   33.3130   37.4210 H   0  0  0  0  0  0  0  0  0  0  0  0
   36.5140   30.5060   38.9590 O   0  0  0  0  0  0  0  0  0  0  0  0
   38.0090   30.1910   41.0600 O   0  0  0  0  0  0  0  0  0  0  0  0
   36.5870   30.1440   40.6030 P   0  0  1  0  0  0  0  0  0  0  0  0
   35.5830   31.1390   41.5050 O   0  0  0  0  0  0  0  0  0  0  0  0
   35.2790   31.9210   40.9810 H   0  0  0  0  0  0  0  0  0  0  0  0
   35.9810   28.5720   40.8040 O   0  0  0  0  0  0  0  0  0  0  0  0
   36.7720   27.9230   41.7120 C   0  0  0  0  0  0  0  0  0  0  0  0
   36.1670   27.9150   42.6690 H   0  0  0  0  0  0  0  0  0  0  0  0
   37.7210   28.3570   41.9830 H   0  0  0  0  0  0  0  0  0  0  0  0
   36.9710   24.7640   39.7630 C   0  0  0  0  0  0  0  0  0  0  0  0
   36.7710   26.1160   40.0600 C   0  0  0  0  0  0  0  0  0  0  0  0
   36.9740   26.5170   41.3800 C   0  0  0  0  0  0  0  0  0  0  0  0
   37.3530   25.5680   42.2910 N   0  0  0  0  0  0  0  0  0  0  0  0
   37.5360   24.2760   41.9720 C   0  0  0  0  0  0  0  0  0  0  0  0
   37.3410   23.8860   40.6990 N   0  0  0  0  0  0  0  0  0  0  0  0
   36.7940   24.5210   38.7090 H   0  0  0  0  0  0  0  0  0  0  0  0
   36.4720   26.8500   39.3260 H   0  0  0  0  0  0  0  0  0  0  0  0
   37.8360   23.5450   42.7130 H   0  0  0  0  0  0  0  0  0  0  0  0
  1  6  1  1  0  0  0
  1 22  1  0  0  0  0
  2  7  1  0  0  0  0
  2  1  1  0  0  0  0
  3  4  1  0  0  0  0
  3  9  1  0  0  0  0
  3  2  1  0  0  0  0
  4 12  1  0  0  0  0
  4  5  1  0  0  0  0
  5  1  1  0  0  0  0
  5 13  1  1  0  0  0
  8  2  1  0  0  0  0
 10  3  1  0  0  0  0
 11  4  1  0  0  0  0
 14 19  1  0  0  0  0
 15 14  2  0  0  0  0
 16  5  1  0  0  0  0
 16 15  1  0  0  0  0
 17 21  1  0  0  0  0
 17 15  1  0  0  0  0
 18 17  1  0  0  0  0
 20 16  1  0  0  0  0
 22 24  1  0  0  0  0
 24 27  1  0  0  0  0
 24 23  2  1  0  0  0
 24 25  1  0  0  0  0
 26 25  1  0  0  0  0
 27 28  1  0  0  0  0
 28 30  1  0  0  0  0
 28 29  1  0  0  0  0
 31 32  2  0  0  0  0
 31 36  1  0  0  0  0
 32 33  1  0  0  0  0
 33 28  1  0  0  0  0
 33 34  2  0  0  0  0
 35 34  1  0  0  0  0
 35 39  1  0  0  0  0
 36 35  2  0  0  0  0
 37 31  1  0  0  0  0
 38 32  1  0  0  0  0
M  END
>  <minimizedAffinity>
-5.07025385

$$$$

 OpenBabel03252509333D

 39 40  0  0  1  0  0  0  0  0999 V2000
   36.8730   30.9690   40.2020 C   0  0  1  0  0  0  0  0  0  0  0  0
   36.9860   30.3400   38.8410 C   0  0  0  0  0  0  0  0  0  0  0  0
   35.6350   29.6790   38.7050 C   0  0  0  0  0  0  0  0  0  0  0  0
   35.2210   29.3160   40.1270 C   0  0  0  0  0  0  0  0  0  0  0  0
   36.3600   29.7810   41.0180 C   0  0  1  0  0  0  0  0  0  0  0  0
   36.1030   31.7420   40.2430 H   0  0  0  0  0  0  0  0  0  0  0  0
   37.2110   31.0360   38.0290 H   0  0  0  0  0  0  0  0  0  0  0  0
   37.7820   29.5710   38.8570 H   0  0  0  0  0  0  0  0  0  0  0  0
   34.9440   30.5010   38.3700 H   0  0  0  0  0  0  0  0  0  0  0  0
   35.6150   28.8170   38.0220 H   0  0  0  0  0  0  0  0  0  0  0  0
   35.2270   28.2010   40.1600 H   0  0  0  0  0  0  0  0  0  0  0  0
   34.2480   29.7600   40.4150 H   0  0  0  0  0  0  0  0  0  0  0  0
   35.8790   30.2150   41.9140 H   0  0  0  0  0  0  0  0  0  0  0  0
   37.1420   29.1890   43.6800 N   0  0  0  0  0  0  0  0  0  0  0  0
   37.6040   28.5260   42.6720 C   0  0  0  0  0  0  0  0  0  0  0  0
   37.3450   28.7950   41.2910 N   0  0  0  0  0  0  0  0  0  0  0  0
   38.4520   27.4230   43.0170 N   0  0  0  0  0  0  0  0  0  0  0  0
   38.7230   26.4370   42.8370 H   0  0  0  0  0  0  0  0  0  0  0  0
   36.5180   30.0030   43.4910 H   0  0  0  0  0  0  0  0  0  0  0  0
   37.8420   28.3050   40.5370 H   0  0  0  0  0  0  0  0  0  0  0  0
   39.1670   27.5120   43.7750 H   0  0  0  0  0  0  0  0  0  0  0  0
   38.0920   31.4120   40.7130 O   0  0  0  0  0  0  0  0  0  0  0  0
   37.0900   33.5410   39.6100 O   0  0  0  0  0  0  0  0  0  0  0  0
   38.3350   33.0130   40.2470 P   0  0  1  0  0  0  0  0  0  0  0  0
   38.8600   33.9610   41.5280 O   0  0  0  0  0  0  0  0  0  0  0  0
   38.7320   33.5040   42.3960 H   0  0  0  0  0  0  0  0  0  0  0  0
   39.5980   33.0260   39.1150 O   0  0  0  0  0  0  0  0  0  0  0  0
   40.7150   32.5150   39.7160 C   0  0  0  0  0  0  0  0  0  0  0  0
   40.3770   31.5350   40.1700 H   0  0  0  0  0  0  0  0  0  0  0  0
   41.1670   33.0610   40.5290 H   0  0  0  0  0  0  0  0  0  0  0  0
   42.4030   31.0480   36.7470 C   0  0  0  0  0  0  0  0  0  0  0  0
   41.3920   31.3850   37.6520 C   0  0  0  0  0  0  0  0  0  0  0  0
   41.7540   32.1510   38.7580 C   0  0  0  0  0  0  0  0  0  0  0  0
   43.0660   32.5230   38.8840 N   0  0  0  0  0  0  0  0  0  0  0  0
   44.0130   32.1810   37.9940 C   0  0  0  0  0  0  0  0  0  0  0  0
   43.6660   31.4410   36.9260 N   0  0  0  0  0  0  0  0  0  0  0  0
   42.0460   30.4450   35.9040 H   0  0  0  0  0  0  0  0  0  0  0  0
   40.3610   31.0820   37.5350 H   0  0  0  0  0  0  0  0  0  0  0  0
   45.0450   32.4880   38.1170 H   0  0  0  0  0  0  0  0  0  0  0  0
  1  6  1  6  0  0  0
  1 22  1  0  0  0  0
  1  5  1  0  0  0  0
  2  8  1  0  0  0  0
  2  1  1  0  0  0  0
  3  2  1  0  0  0  0
  3  4  1  0  0  0  0
  4 11  1  0  0  0  0
  4 12  1  0  0  0  0
  4  5  1  0  0  0  0
  5 16  1  0  0  0  0
  5 13  1  1  0  0  0
  7  2  1  0  0  0  0
  9  3  1  0  0  0  0
 10  3  1  0  0  0  0
 15 17  1  0  0  0  0
 15 14  2  0  0  0  0
 16 15  1  0  0  0  0
 17 21  1  0  0  0  0
 18 17  1  0  0  0  0
 19 14  1  0  0  0  0
 20 16  1  0  0  0  0
 24 23  2  6  0  0  0
 24 22  1  0  0  0  0
 24 25  1  0  0  0  0
 25 26  1  0  0  0  0
 27 28  1  0  0  0  0
 27 24  1  0  0  0  0
 28 29  1  0  0  0  0
 28 30  1  0  0  0  0
 31 36  2  0  0  0  0
 31 32  1  0  0  0  0
 32 33  2  0  0  0  0
 33 34  1  0  0  0  0
 33 28  1  0  0  0  0
 35 39  1  0  0  0  0
 35 34  2  0  0  0  0
 36 35  1  0  0  0  0
 37 31  1  0  0  0  0
 38 32  1  0  0  0  0
M  END
>  <minimizedAffinity>
-5.05813503

$$$$
