
 OpenBabel03242515423D

 37 39  0  0  0  0  0  0  0  0999 V2000
   43.4480   34.0450   40.4090 C   0  0  0  0  0  0  0  0  0  0  0  0
   43.2390   33.6800   39.1240 C   0  0  0  0  0  0  0  0  0  0  0  0
   44.3480   33.1660   38.4210 C   0  0  0  0  0  0  0  0  0  0  0  0
   45.5490   33.0620   39.0380 N   0  0  0  0  0  0  0  0  0  0  0  0
   45.7070   33.4390   40.3190 C   0  0  0  0  0  0  0  0  0  0  0  0
   44.6430   33.9150   40.9470 N   0  0  0  0  0  0  0  0  0  0  0  0
   44.2540   32.7290   37.0660 N   0  0  0  0  0  0  0  0  0  0  0  0
   44.3200   33.5150   36.3680 H   0  0  0  0  0  0  0  0  0  0  0  0
   44.1320   31.7080   36.8570 H   0  0  0  0  0  0  0  0  0  0  0  0
   42.8260   35.8900   37.6140 N   0  0  0  0  0  0  0  0  0  0  0  0
   41.8600   35.0330   37.7400 C   0  0  0  0  0  0  0  0  0  0  0  0
   42.1080   33.7160   38.2950 N   0  0  0  0  0  0  0  0  0  0  0  0
   40.5350   35.4160   37.3170 N   0  0  0  0  0  0  0  0  0  0  0  0
   40.1150   34.7090   36.6740 H   0  0  0  0  0  0  0  0  0  0  0  0
   42.6290   36.8210   37.2170 H   0  0  0  0  0  0  0  0  0  0  0  0
   41.3920   33.0450   37.9500 H   0  0  0  0  0  0  0  0  0  0  0  0
   40.0590   36.2960   37.6210 H   0  0  0  0  0  0  0  0  0  0  0  0
   41.9860   34.6880   41.2660 S   0  0  0  0  0  0  0  0  0  0  0  0
   39.4990   33.9950   40.5830 C   0  0  0  0  0  0  0  0  0  0  0  0
   40.6550   33.5050   41.2060 C   0  0  0  0  0  0  0  0  0  0  0  0
   40.7150   32.2070   41.6960 C   0  0  0  0  0  0  0  0  0  0  0  0
   39.6370   31.3710   41.5810 C   0  0  0  0  0  0  0  0  0  0  0  0
   38.4760   31.8430   40.9610 C   0  0  0  0  0  0  0  0  0  0  0  0
   38.3920   33.1370   40.4640 C   0  0  0  0  0  0  0  0  0  0  0  0
   37.5310   30.7880   40.9760 O   0  0  0  0  0  0  0  0  0  0  0  0
   38.0070   29.8540   41.8860 C   0  0  0  0  0  0  0  0  0  0  0  0
   39.4000   30.0590   41.9600 O   0  0  0  0  0  0  0  0  0  0  0  0
   39.4000   34.9920   40.1850 H   0  0  0  0  0  0  0  0  0  0  0  0
   41.6290   31.9130   42.1570 H   0  0  0  0  0  0  0  0  0  0  0  0
   37.5040   33.5230   39.9830 H   0  0  0  0  0  0  0  0  0  0  0  0
   37.6050   30.1410   42.9000 H   0  0  0  0  0  0  0  0  0  0  0  0
   37.7250   28.8130   41.6480 H   0  0  0  0  0  0  0  0  0  0  0  0
   46.8760   33.3790   41.0440 O   0  0  0  0  0  0  0  0  0  0  0  0
   47.7300   34.5000   41.0030 C   0  0  0  0  0  0  0  0  0  0  0  0
   48.9620   34.2320   41.5450 F   0  0  0  0  0  0  0  0  0  0  0  0
   47.8200   34.8790   39.6510 F   0  0  0  0  0  0  0  0  0  0  0  0
   47.1320   35.5130   41.7360 F   0  0  0  0  0  0  0  0  0  0  0  0
  1  6  1  0  0  0  0
  1 18  1  0  0  0  0
  2  1  2  0  0  0  0
  3  4  2  0  0  0  0
  3  2  1  0  0  0  0
  4  5  1  0  0  0  0
  5  6  2  0  0  0  0
  5 33  1  0  0  0  0
  7  3  1  0  0  0  0
  8  7  1  0  0  0  0
  9  7  1  0  0  0  0
 10 11  2  0  0  0  0
 11 12  1  0  0  0  0
 12  2  1  0  0  0  0
 13 17  1  0  0  0  0
 13 11  1  0  0  0  0
 14 13  1  0  0  0  0
 15 10  1  0  0  0  0
 16 12  1  0  0  0  0
 19 20  1  0  0  0  0
 20 18  1  0  0  0  0
 20 21  2  0  0  0  0
 21 29  1  0  0  0  0
 22 21  1  0  0  0  0
 22 27  1  0  0  0  0
 23 25  1  0  0  0  0
 23 22  2  0  0  0  0
 24 19  2  0  0  0  0
 24 23  1  0  0  0  0
 25 26  1  0  0  0  0
 26 27  1  0  0  0  0
 26 31  1  0  0  0  0
 28 19  1  0  0  0  0
 30 24  1  0  0  0  0
 32 26  1  0  0  0  0
 34 33  1  0  0  0  0
 34 35  1  0  0  0  0
 34 37  1  0  0  0  0
 36 34  1  0  0  0  0
M  END
>  <minimizedAffinity>
-6.08246088

>  <minimizedRMSD>
1.20948541

$$$$
