
 OpenBabel03242515423D

 37 39  0  0  0  0  0  0  0  0999 V2000
   43.4480   34.0460   40.4080 C   0  0  0  0  0  0  0  0  0  0  0  0
   43.2400   33.6810   39.1240 C   0  0  0  0  0  0  0  0  0  0  0  0
   44.3490   33.1670   38.4210 C   0  0  0  0  0  0  0  0  0  0  0  0
   45.5500   33.0620   39.0380 N   0  0  0  0  0  0  0  0  0  0  0  0
   45.7070   33.4400   40.3180 C   0  0  0  0  0  0  0  0  0  0  0  0
   44.6430   33.9160   40.9470 N   0  0  0  0  0  0  0  0  0  0  0  0
   44.2550   32.7290   37.0660 N   0  0  0  0  0  0  0  0  0  0  0  0
   44.3200   33.5150   36.3670 H   0  0  0  0  0  0  0  0  0  0  0  0
   44.1330   31.7080   36.8560 H   0  0  0  0  0  0  0  0  0  0  0  0
   42.8260   35.8900   37.6140 N   0  0  0  0  0  0  0  0  0  0  0  0
   41.8600   35.0330   37.7400 C   0  0  0  0  0  0  0  0  0  0  0  0
   42.1090   33.7170   38.2950 N   0  0  0  0  0  0  0  0  0  0  0  0
   40.5350   35.4170   37.3170 N   0  0  0  0  0  0  0  0  0  0  0  0
   40.1160   34.7100   36.6730 H   0  0  0  0  0  0  0  0  0  0  0  0
   42.6280   36.8220   37.2170 H   0  0  0  0  0  0  0  0  0  0  0  0
   41.3930   33.0450   37.9490 H   0  0  0  0  0  0  0  0  0  0  0  0
   40.0580   36.2960   37.6220 H   0  0  0  0  0  0  0  0  0  0  0  0
   41.9860   34.6890   41.2650 S   0  0  0  0  0  0  0  0  0  0  0  0
   39.4990   33.9960   40.5820 C   0  0  0  0  0  0  0  0  0  0  0  0
   40.6560   33.5060   41.2060 C   0  0  0  0  0  0  0  0  0  0  0  0
   40.7150   32.2080   41.6960 C   0  0  0  0  0  0  0  0  0  0  0  0
   39.6380   31.3720   41.5800 C   0  0  0  0  0  0  0  0  0  0  0  0
   38.4760   31.8440   40.9610 C   0  0  0  0  0  0  0  0  0  0  0  0
   38.3930   33.1380   40.4640 C   0  0  0  0  0  0  0  0  0  0  0  0
   37.5310   30.7890   40.9760 O   0  0  0  0  0  0  0  0  0  0  0  0
   38.0070   29.8550   41.8860 C   0  0  0  0  0  0  0  0  0  0  0  0
   39.4000   30.0600   41.9600 O   0  0  0  0  0  0  0  0  0  0  0  0
   39.4010   34.9930   40.1850 H   0  0  0  0  0  0  0  0  0  0  0  0
   41.6300   31.9140   42.1570 H   0  0  0  0  0  0  0  0  0  0  0  0
   37.5050   33.5240   39.9820 H   0  0  0  0  0  0  0  0  0  0  0  0
   37.6060   30.1420   42.9000 H   0  0  0  0  0  0  0  0  0  0  0  0
   37.7250   28.8140   41.6480 H   0  0  0  0  0  0  0  0  0  0  0  0
   46.8770   33.3800   41.0430 O   0  0  0  0  0  0  0  0  0  0  0  0
   47.7300   34.5010   41.0020 C   0  0  0  0  0  0  0  0  0  0  0  0
   48.9620   34.2340   41.5450 F   0  0  0  0  0  0  0  0  0  0  0  0
   47.8200   34.8810   39.6510 F   0  0  0  0  0  0  0  0  0  0  0  0
   47.1320   35.5140   41.7350 F   0  0  0  0  0  0  0  0  0  0  0  0
  1  6  1  0  0  0  0
  1 18  1  0  0  0  0
  2  1  2  0  0  0  0
  3  4  2  0  0  0  0
  3  2  1  0  0  0  0
  4  5  1  0  0  0  0
  5  6  2  0  0  0  0
  5 33  1  0  0  0  0
  7  3  1  0  0  0  0
  8  7  1  0  0  0  0
  9  7  1  0  0  0  0
 10 11  2  0  0  0  0
 11 12  1  0  0  0  0
 12  2  1  0  0  0  0
 13 17  1  0  0  0  0
 13 11  1  0  0  0  0
 14 13  1  0  0  0  0
 15 10  1  0  0  0  0
 16 12  1  0  0  0  0
 19 20  1  0  0  0  0
 20 18  1  0  0  0  0
 20 21  2  0  0  0  0
 21 29  1  0  0  0  0
 22 21  1  0  0  0  0
 22 27  1  0  0  0  0
 23 25  1  0  0  0  0
 23 22  2  0  0  0  0
 24 19  2  0  0  0  0
 24 23  1  0  0  0  0
 25 26  1  0  0  0  0
 26 27  1  0  0  0  0
 26 31  1  0  0  0  0
 28 19  1  0  0  0  0
 30 24  1  0  0  0  0
 32 26  1  0  0  0  0
 34 33  1  0  0  0  0
 34 35  1  0  0  0  0
 34 37  1  0  0  0  0
 36 34  1  0  0  0  0
M  END
>  <minimizedAffinity>
-6.08655739

>  <minimizedRMSD>
1.2093755

$$$$
