
 OpenBabel03242515413D

 37 39  0  0  0  0  0  0  0  0999 V2000
   43.5430   34.0610   40.3150 C   0  0  0  0  0  0  0  0  0  0  0  0
   43.3210   33.6620   39.0430 C   0  0  0  0  0  0  0  0  0  0  0  0
   44.4180   33.1140   38.3470 C   0  0  0  0  0  0  0  0  0  0  0  0
   45.6220   33.0120   38.9590 N   0  0  0  0  0  0  0  0  0  0  0  0
   45.7940   33.4230   40.2270 C   0  0  0  0  0  0  0  0  0  0  0  0
   44.7400   33.9310   40.8480 N   0  0  0  0  0  0  0  0  0  0  0  0
   44.3080   32.6390   37.0060 N   0  0  0  0  0  0  0  0  0  0  0  0
   44.3780   33.4040   36.2850 H   0  0  0  0  0  0  0  0  0  0  0  0
   44.1720   31.6140   36.8260 H   0  0  0  0  0  0  0  0  0  0  0  0
   42.7910   35.9280   37.6580 N   0  0  0  0  0  0  0  0  0  0  0  0
   41.8690   35.0200   37.7400 C   0  0  0  0  0  0  0  0  0  0  0  0
   42.1840   33.6890   38.2210 N   0  0  0  0  0  0  0  0  0  0  0  0
   40.5250   35.3620   37.3440 N   0  0  0  0  0  0  0  0  0  0  0  0
   40.1350   34.6710   36.6640 H   0  0  0  0  0  0  0  0  0  0  0  0
   42.5470   36.8690   37.3140 H   0  0  0  0  0  0  0  0  0  0  0  0
   41.4990   33.0030   37.8430 H   0  0  0  0  0  0  0  0  0  0  0  0
   40.0080   36.2000   37.6980 H   0  0  0  0  0  0  0  0  0  0  0  0
   42.0950   34.7460   41.1640 S   0  0  0  0  0  0  0  0  0  0  0  0
   39.5700   34.1060   40.5770 C   0  0  0  0  0  0  0  0  0  0  0  0
   40.7460   33.5840   41.1360 C   0  0  0  0  0  0  0  0  0  0  0  0
   40.8070   32.2740   41.5910 C   0  0  0  0  0  0  0  0  0  0  0  0
   39.7130   31.4560   41.5050 C   0  0  0  0  0  0  0  0  0  0  0  0
   38.5320   31.9600   40.9500 C   0  0  0  0  0  0  0  0  0  0  0  0
   38.4460   33.2670   40.4890 C   0  0  0  0  0  0  0  0  0  0  0  0
   37.5720   30.9190   40.9830 O   0  0  0  0  0  0  0  0  0  0  0  0
   38.0740   29.9560   41.8470 C   0  0  0  0  0  0  0  0  0  0  0  0
   39.4730   30.1390   41.8630 O   0  0  0  0  0  0  0  0  0  0  0  0
   39.4690   35.1140   40.2090 H   0  0  0  0  0  0  0  0  0  0  0  0
   41.7370   31.9550   42.0030 H   0  0  0  0  0  0  0  0  0  0  0  0
   37.5430   33.6770   40.0570 H   0  0  0  0  0  0  0  0  0  0  0  0
   37.7240   30.2230   42.8850 H   0  0  0  0  0  0  0  0  0  0  0  0
   37.7660   28.9250   41.5970 H   0  0  0  0  0  0  0  0  0  0  0  0
   46.9670   33.3690   40.9450 O   0  0  0  0  0  0  0  0  0  0  0  0
   47.8680   34.4440   40.8080 C   0  0  0  0  0  0  0  0  0  0  0  0
   49.1330   34.1160   41.2280 F   0  0  0  0  0  0  0  0  0  0  0  0
   47.8420   34.8120   39.4500 F   0  0  0  0  0  0  0  0  0  0  0  0
   47.3990   35.4900   41.5860 F   0  0  0  0  0  0  0  0  0  0  0  0
  1  6  1  0  0  0  0
  1 18  1  0  0  0  0
  2  1  2  0  0  0  0
  3  4  2  0  0  0  0
  3  2  1  0  0  0  0
  4  5  1  0  0  0  0
  5  6  2  0  0  0  0
  5 33  1  0  0  0  0
  7  3  1  0  0  0  0
  8  7  1  0  0  0  0
  9  7  1  0  0  0  0
 10 11  2  0  0  0  0
 11 12  1  0  0  0  0
 12  2  1  0  0  0  0
 13 17  1  0  0  0  0
 13 11  1  0  0  0  0
 14 13  1  0  0  0  0
 15 10  1  0  0  0  0
 16 12  1  0  0  0  0
 19 20  1  0  0  0  0
 20 18  1  0  0  0  0
 20 21  2  0  0  0  0
 21 29  1  0  0  0  0
 22 21  1  0  0  0  0
 22 27  1  0  0  0  0
 23 25  1  0  0  0  0
 23 22  2  0  0  0  0
 24 19  2  0  0  0  0
 24 23  1  0  0  0  0
 25 26  1  0  0  0  0
 26 27  1  0  0  0  0
 26 31  1  0  0  0  0
 28 19  1  0  0  0  0
 30 24  1  0  0  0  0
 32 26  1  0  0  0  0
 34 33  1  0  0  0  0
 34 35  1  0  0  0  0
 34 37  1  0  0  0  0
 36 34  1  0  0  0  0
M  END
>  <minimizedAffinity>
-6.13067818

>  <minimizedRMSD>
1.19867861

$$$$
