
 OpenBabel03242514543D

 43 45  0  0  1  0  0  0  0  0999 V2000
   44.9560   33.9450   41.0440 N   0  0  0  0  0  0  0  0  0  0  0  0
   44.4620   35.1400   41.7190 C   0  0  0  0  0  0  0  0  0  0  0  0
   42.9930   35.3530   41.5280 C   0  0  0  0  0  0  0  0  0  0  0  0
   42.5620   35.1990   40.1980 N   0  0  0  0  0  0  0  0  0  0  0  0
   43.1900   34.2250   39.4150 C   0  0  0  0  0  0  0  0  0  0  0  0
   43.9900   33.2460   40.2970 C   0  0  1  0  0  0  0  0  0  0  0  0
   44.6320   34.9720   42.8110 H   0  0  0  0  0  0  0  0  0  0  0  0
   45.0670   36.0370   41.4640 H   0  0  0  0  0  0  0  0  0  0  0  0
   42.3750   34.7640   42.2360 H   0  0  0  0  0  0  0  0  0  0  0  0
   42.8010   36.4260   41.8190 H   0  0  0  0  0  0  0  0  0  0  0  0
   41.5250   35.0780   40.1680 H   0  0  0  0  0  0  0  0  0  0  0  0
   42.5370   33.6750   38.7060 H   0  0  0  0  0  0  0  0  0  0  0  0
   43.9650   34.7100   38.7640 H   0  0  0  0  0  0  0  0  0  0  0  0
   43.1900   33.0060   41.0710 H   0  0  0  0  0  0  0  0  0  0  0  0
   44.2010   32.0330   39.6510 N   0  0  2  0  0  0  0  0  0  0  0  0
   44.2450   30.8090   40.3880 C   0  0  0  0  0  0  0  0  0  0  0  0
   44.6110   29.8290   39.2810 C   0  0  0  0  0  0  0  0  0  0  0  0
   45.8000   30.5740   38.6940 C   0  0  0  0  0  0  0  0  0  0  0  0
   45.2620   31.9950   38.6750 C   0  0  1  0  0  0  0  0  0  0  0  0
   43.1990   30.5290   40.6740 H   0  0  0  0  0  0  0  0  0  0  0  0
   44.9540   30.7910   41.2120 H   0  0  0  0  0  0  0  0  0  0  0  0
   43.7960   29.8630   38.5320 H   0  0  0  0  0  0  0  0  0  0  0  0
   44.8790   28.8340   39.6370 H   0  0  0  0  0  0  0  0  0  0  0  0
   46.7040   30.4980   39.3050 H   0  0  0  0  0  0  0  0  0  0  0  0
   45.9430   30.2700   37.6330 H   0  0  0  0  0  0  0  0  0  0  0  0
   46.0750   32.6890   38.9120 H   0  0  0  0  0  0  0  0  0  0  0  0
   46.3440   33.8760   36.9500 N   0  0  0  0  0  0  0  0  0  0  0  0
   45.4120   33.1040   36.5010 C   0  0  0  0  0  0  0  0  0  0  0  0
   44.6320   32.2680   37.3780 N   0  0  0  0  0  0  0  0  0  0  0  0
   45.1020   33.0340   35.0940 N   0  0  0  0  0  0  0  0  0  0  0  0
   45.4630   32.2210   34.5510 H   0  0  0  0  0  0  0  0  0  0  0  0
   46.9360   34.5000   36.3510 H   0  0  0  0  0  0  0  0  0  0  0  0
   43.6960   31.9100   37.0650 H   0  0  0  0  0  0  0  0  0  0  0  0
   44.5480   33.7090   34.5300 H   0  0  0  0  0  0  0  0  0  0  0  0
   47.2210   34.3550   40.4670 C   0  0  0  0  0  0  0  0  0  0  0  0
   46.3170   33.6460   41.2230 C   0  0  0  0  0  0  0  0  0  0  0  0
   46.8170   32.7000   42.0960 C   0  0  0  0  0  0  0  0  0  0  0  0
   48.1510   32.4860   42.1940 N   0  0  0  0  0  0  0  0  0  0  0  0
   49.0140   33.2040   41.4320 C   0  0  0  0  0  0  0  0  0  0  0  0
   48.5450   34.1270   40.5800 N   0  0  0  0  0  0  0  0  0  0  0  0
   46.9330   35.1170   39.7550 H   0  0  0  0  0  0  0  0  0  0  0  0
   46.1100   32.1520   42.6810 H   0  0  0  0  0  0  0  0  0  0  0  0
   50.0700   33.0420   41.5040 H   0  0  0  0  0  0  0  0  0  0  0  0
  1 36  1  0  0  0  0
  1  2  1  0  0  0  0
  2  7  1  0  0  0  0
  3  2  1  0  0  0  0
  3 10  1  0  0  0  0
  3  9  1  0  0  0  0
  4  3  1  0  0  0  0
  5  4  1  0  0  0  0
  5  6  1  0  0  0  0
  6  1  1  0  0  0  0
  6 14  1  1  0  0  0
  8  2  1  0  0  0  0
 11  4  1  0  0  0  0
 12  5  1  0  0  0  0
 13  5  1  0  0  0  0
 15  6  1  0  0  0  0
 15 16  1  1  0  0  0
 16 20  1  0  0  0  0
 16 21  1  0  0  0  0
 17 23  1  0  0  0  0
 17 16  1  0  0  0  0
 18 17  1  0  0  0  0
 18 24  1  0  0  0  0
 19 18  1  0  0  0  0
 19 26  1  1  0  0  0
 19 15  1  0  0  0  0
 22 17  1  0  0  0  0
 25 18  1  0  0  0  0
 28 27  2  0  0  0  0
 28 29  1  0  0  0  0
 29 19  1  0  0  0  0
 30 28  1  0  0  0  0
 31 30  1  0  0  0  0
 32 27  1  0  0  0  0
 33 29  1  0  0  0  0
 34 30  1  0  0  0  0
 35 40  2  0  0  0  0
 35 36  1  0  0  0  0
 36 37  2  0  0  0  0
 37 38  1  0  0  0  0
 37 42  1  0  0  0  0
 39 43  1  0  0  0  0
 39 38  2  0  0  0  0
 40 39  1  0  0  0  0
 41 35  1  0  0  0  0
M  END
>  <minimizedAffinity>
-4.37165689

>  <minimizedRMSD>
4.37507677

$$$$
