
 OpenBabel03242513433D

 45 47  0  0  0  0  0  0  0  0999 V2000
   47.6800   30.9980   45.9630 C   0  0  0  0  0  0  0  0  0  0  0  0
   46.9510   32.0420   45.4530 C   0  0  0  0  0  0  0  0  0  0  0  0
   45.9300   32.5200   46.2260 C   0  0  0  0  0  0  0  0  0  0  0  0
   45.6010   32.0230   47.4580 C   0  0  0  0  0  0  0  0  0  0  0  0
   44.6830   32.2680   48.4300 N   0  0  0  0  0  0  0  0  0  0  0  0
   44.8620   31.4050   49.4710 C   0  0  0  0  0  0  0  0  0  0  0  0
   45.9010   30.6240   49.1290 N   0  0  0  0  0  0  0  0  0  0  0  0
   46.3600   30.9790   47.9240 C   0  0  0  0  0  0  0  0  0  0  0  0
   47.4020   30.4420   47.2090 C   0  0  0  0  0  0  0  0  0  0  0  0
   48.5070   30.5880   45.3710 H   0  0  0  0  0  0  0  0  0  0  0  0
   45.3310   33.3540   45.8440 H   0  0  0  0  0  0  0  0  0  0  0  0
   43.9920   33.0360   48.2870 H   0  0  0  0  0  0  0  0  0  0  0  0
   44.2490   31.4090   50.3620 H   0  0  0  0  0  0  0  0  0  0  0  0
   47.2850   34.4060   42.6890 C   0  0  0  0  0  0  0  0  0  0  0  0
   47.8690   33.6300   41.6830 C   0  0  0  0  0  0  0  0  0  0  0  0
   48.1360   32.2810   41.9970 C   0  0  0  0  0  0  0  0  0  0  0  0
   47.8250   31.8060   43.2250 N   0  0  0  0  0  0  0  0  0  0  0  0
   47.2650   32.6050   44.1490 C   0  0  0  0  0  0  0  0  0  0  0  0
   46.9900   33.8950   43.9040 N   0  0  0  0  0  0  0  0  0  0  0  0
   47.0800   35.4520   42.4450 H   0  0  0  0  0  0  0  0  0  0  0  0
   48.5890   31.6760   41.2180 H   0  0  0  0  0  0  0  0  0  0  0  0
   48.1670   34.2530   40.3680 C   0  0  0  0  0  0  0  0  0  0  0  0
   48.7180   35.4860   40.6930 F   0  0  0  0  0  0  0  0  0  0  0  0
   47.0010   34.4370   39.7130 F   0  0  0  0  0  0  0  0  0  0  0  0
   49.0470   33.4380   39.6790 F   0  0  0  0  0  0  0  0  0  0  0  0
   48.1300   29.3890   47.7350 O   0  0  0  0  0  0  0  0  0  0  0  0
   49.7780   28.1440   49.3010 O   0  0  0  0  0  0  0  0  0  0  0  0
   49.4280   29.5430   48.8020 P   0  0  2  0  0  0  0  0  0  0  0  0
   48.8580   30.4060   50.1580 O   0  0  0  0  0  0  0  0  0  0  0  0
   48.7140   31.3320   49.8330 H   0  0  0  0  0  0  0  0  0  0  0  0
   50.7730   30.2950   48.1510 O   0  0  0  0  0  0  0  0  0  0  0  0
   51.8500   30.3620   49.0000 C   0  0  0  0  0  0  0  0  0  0  0  0
   51.6370   29.7680   49.9100 H   0  0  0  0  0  0  0  0  0  0  0  0
   52.7530   29.9690   48.5310 H   0  0  0  0  0  0  0  0  0  0  0  0
   52.0150   31.8420   49.3830 C   0  0  0  0  0  0  0  0  0  0  0  0
   52.5700   32.3970   48.6150 H   0  0  0  0  0  0  0  0  0  0  0  0
   50.9940   32.2900   49.4920 H   0  0  0  0  0  0  0  0  0  0  0  0
   50.7180   31.8380   51.9660 N   0  0  0  0  0  0  0  0  0  0  0  0
   51.9590   32.1200   51.8030 C   0  0  0  0  0  0  0  0  0  0  0  0
   52.7280   31.8660   50.6430 N   0  0  0  0  0  0  0  0  0  0  0  0
   52.5040   32.7500   52.9800 N   0  0  0  0  0  0  0  0  0  0  0  0
   52.3930   33.7410   53.3090 H   0  0  0  0  0  0  0  0  0  0  0  0
   50.2030   31.3800   51.1890 H   0  0  0  0  0  0  0  0  0  0  0  0
   53.7470   31.7170   50.7990 H   0  0  0  0  0  0  0  0  0  0  0  0
   53.1110   32.5110   53.8120 H   0  0  0  0  0  0  0  0  0  0  0  0
  1  9  1  0  0  0  0
  2  1  2  0  0  0  0
  2  3  1  0  0  0  0
  3  4  2  0  0  0  0
  4  8  1  0  0  0  0
  4  5  1  0  0  0  0
  5  6  1  0  0  0  0
  6 13  1  0  0  0  0
  7  6  2  0  0  0  0
  8  7  1  0  0  0  0
  9 26  1  0  0  0  0
  9  8  2  0  0  0  0
 10  1  1  0  0  0  0
 11  3  1  0  0  0  0
 12  5  1  0  0  0  0
 14 19  1  0  0  0  0
 15 16  1  0  0  0  0
 15 14  2  0  0  0  0
 16 17  2  0  0  0  0
 17 18  1  0  0  0  0
 18  2  1  0  0  0  0
 19 18  2  0  0  0  0
 20 14  1  0  0  0  0
 21 16  1  0  0  0  0
 22 23  1  0  0  0  0
 22 15  1  0  0  0  0
 24 22  1  0  0  0  0
 25 22  1  0  0  0  0
 26 28  1  0  0  0  0
 28 27  2  1  0  0  0
 28 29  1  0  0  0  0
 30 29  1  0  0  0  0
 31 28  1  0  0  0  0
 31 32  1  0  0  0  0
 32 35  1  0  0  0  0
 32 33  1  0  0  0  0
 34 32  1  0  0  0  0
 35 37  1  0  0  0  0
 35 40  1  0  0  0  0
 36 35  1  0  0  0  0
 39 38  2  0  0  0  0
 39 41  1  0  0  0  0
 40 44  1  0  0  0  0
 40 39  1  0  0  0  0
 41 42  1  0  0  0  0
 41 45  1  0  0  0  0
 43 38  1  0  0  0  0
M  END
>  <minimizedAffinity>
-5.78798199

>  <minimizedRMSD>
0.685991943

$$$$
