
 OpenBabel03242514543D

 43 45  0  0  1  0  0  0  0  0999 V2000
   37.5700   28.5990   41.2340 N   0  0  0  0  0  0  0  0  0  0  0  0
   36.1970   28.1810   40.9680 C   0  0  0  0  0  0  0  0  0  0  0  0
   35.3640   29.2660   40.3610 C   0  0  0  0  0  0  0  0  0  0  0  0
   35.4930   30.5100   41.0020 N   0  0  0  0  0  0  0  0  0  0  0  0
   36.7480   30.8580   41.5130 C   0  0  0  0  0  0  0  0  0  0  0  0
   37.8460   29.9450   40.9310 C   0  0  1  0  0  0  0  0  0  0  0  0
   36.2650   27.3570   40.2150 H   0  0  0  0  0  0  0  0  0  0  0  0
   35.7260   27.7210   41.8620 H   0  0  0  0  0  0  0  0  0  0  0  0
   35.4940   29.3490   39.2630 H   0  0  0  0  0  0  0  0  0  0  0  0
   34.2940   28.9330   40.4890 H   0  0  0  0  0  0  0  0  0  0  0  0
   35.1270   31.2710   40.3870 H   0  0  0  0  0  0  0  0  0  0  0  0
   37.0330   31.9260   41.4220 H   0  0  0  0  0  0  0  0  0  0  0  0
   36.7720   30.6530   42.6160 H   0  0  0  0  0  0  0  0  0  0  0  0
   37.5770   30.0210   39.8270 H   0  0  0  0  0  0  0  0  0  0  0  0
   39.0990   30.5430   41.0090 N   0  0  2  0  0  0  0  0  0  0  0  0
   39.7980   30.6170   42.2540 C   0  0  0  0  0  0  0  0  0  0  0  0
   41.0120   31.4410   41.8440 C   0  0  0  0  0  0  0  0  0  0  0  0
   40.2930   32.5820   41.1420 C   0  0  0  0  0  0  0  0  0  0  0  0
   39.2540   31.8130   40.3440 C   0  0  1  0  0  0  0  0  0  0  0  0
   40.2140   29.6040   42.4890 H   0  0  0  0  0  0  0  0  0  0  0  0
   39.2420   31.0720   43.0700 H   0  0  0  0  0  0  0  0  0  0  0  0
   41.5530   30.8620   41.0700 H   0  0  0  0  0  0  0  0  0  0  0  0
   41.6190   31.7850   42.6820 H   0  0  0  0  0  0  0  0  0  0  0  0
   39.8230   33.2890   41.8320 H   0  0  0  0  0  0  0  0  0  0  0  0
   40.9790   33.0560   40.4050 H   0  0  0  0  0  0  0  0  0  0  0  0
   38.3230   32.3900   40.3180 H   0  0  0  0  0  0  0  0  0  0  0  0
   37.7780   32.4170   38.0770 N   0  0  0  0  0  0  0  0  0  0  0  0
   39.0110   32.0680   37.9240 C   0  0  0  0  0  0  0  0  0  0  0  0
   39.7800   31.5110   39.0080 N   0  0  0  0  0  0  0  0  0  0  0  0
   39.6860   32.2170   36.6600 N   0  0  0  0  0  0  0  0  0  0  0  0
   40.3350   33.0230   36.5410 H   0  0  0  0  0  0  0  0  0  0  0  0
   37.1790   32.8250   37.3200 H   0  0  0  0  0  0  0  0  0  0  0  0
   40.6390   30.9430   38.8030 H   0  0  0  0  0  0  0  0  0  0  0  0
   39.6110   31.6070   35.8210 H   0  0  0  0  0  0  0  0  0  0  0  0
   38.3690   27.3790   43.1040 C   0  0  0  0  0  0  0  0  0  0  0  0
   38.4310   27.6180   41.7520 C   0  0  0  0  0  0  0  0  0  0  0  0
   39.3310   26.8770   41.0120 C   0  0  0  0  0  0  0  0  0  0  0  0
   40.1200   25.9510   41.6090 N   0  0  0  0  0  0  0  0  0  0  0  0
   40.0330   25.7420   42.9460 C   0  0  0  0  0  0  0  0  0  0  0  0
   39.1630   26.4530   43.6790 N   0  0  0  0  0  0  0  0  0  0  0  0
   37.6990   27.9040   43.7710 H   0  0  0  0  0  0  0  0  0  0  0  0
   39.3740   27.0660   39.9610 H   0  0  0  0  0  0  0  0  0  0  0  0
   40.6520   25.0120   43.4260 H   0  0  0  0  0  0  0  0  0  0  0  0
  1 36  1  0  0  0  0
  2  1  1  0  0  0  0
  2  8  1  0  0  0  0
  3 10  1  0  0  0  0
  3  2  1  0  0  0  0
  3  4  1  0  0  0  0
  4  5  1  0  0  0  0
  5 13  1  0  0  0  0
  6 14  1  6  0  0  0
  6 15  1  0  0  0  0
  6  1  1  0  0  0  0
  6  5  1  0  0  0  0
  7  2  1  0  0  0  0
  9  3  1  0  0  0  0
 11  4  1  0  0  0  0
 12  5  1  0  0  0  0
 15 16  1  1  0  0  0
 16 20  1  0  0  0  0
 16 21  1  0  0  0  0
 17 16  1  0  0  0  0
 17 23  1  0  0  0  0
 18 24  1  0  0  0  0
 18 17  1  0  0  0  0
 19 26  1  6  0  0  0
 19 15  1  0  0  0  0
 19 18  1  0  0  0  0
 22 17  1  0  0  0  0
 25 18  1  0  0  0  0
 28 27  2  0  0  0  0
 28 29  1  0  0  0  0
 29 19  1  0  0  0  0
 30 28  1  0  0  0  0
 31 30  1  0  0  0  0
 32 27  1  0  0  0  0
 33 29  1  0  0  0  0
 34 30  1  0  0  0  0
 35 40  1  0  0  0  0
 35 41  1  0  0  0  0
 36 35  2  0  0  0  0
 37 38  2  0  0  0  0
 37 36  1  0  0  0  0
 38 39  1  0  0  0  0
 39 43  1  0  0  0  0
 39 40  2  0  0  0  0
 42 37  1  0  0  0  0
M  END
>  <minimizedAffinity>
-5.54445839

$$$$

 OpenBabel03242514543D

 43 45  0  0  1  0  0  0  0  0999 V2000
   37.5730   28.6710   41.0100 N   0  0  0  0  0  0  0  0  0  0  0  0
   36.1860   28.2930   40.7620 C   0  0  0  0  0  0  0  0  0  0  0  0
   35.3600   29.4210   40.2280 C   0  0  0  0  0  0  0  0  0  0  0  0
   35.5310   30.6310   40.9210 N   0  0  0  0  0  0  0  0  0  0  0  0
   36.8060   30.9300   41.4140 C   0  0  0  0  0  0  0  0  0  0  0  0
   37.8690   30.0240   40.7610 C   0  0  1  0  0  0  0  0  0  0  0  0
   36.2170   27.5030   39.9710 H   0  0  0  0  0  0  0  0  0  0  0  0
   35.7280   27.8010   41.6470 H   0  0  0  0  0  0  0  0  0  0  0  0
   35.4630   29.5510   39.1320 H   0  0  0  0  0  0  0  0  0  0  0  0
   34.2870   29.1040   40.3690 H   0  0  0  0  0  0  0  0  0  0  0  0
   35.1660   31.4270   40.3520 H   0  0  0  0  0  0  0  0  0  0  0  0
   37.1110   31.9960   41.3640 H   0  0  0  0  0  0  0  0  0  0  0  0
   36.8550   30.6740   42.5060 H   0  0  0  0  0  0  0  0  0  0  0  0
   37.5740   30.1560   39.6700 H   0  0  0  0  0  0  0  0  0  0  0  0
   39.1370   30.5920   40.8330 N   0  0  2  0  0  0  0  0  0  0  0  0
   39.6100   31.1740   42.0510 C   0  0  0  0  0  0  0  0  0  0  0  0
   40.9440   31.7450   41.5870 C   0  0  0  0  0  0  0  0  0  0  0  0
   40.4610   32.4940   40.3550 C   0  0  0  0  0  0  0  0  0  0  0  0
   39.5160   31.4680   39.7530 C   0  0  1  0  0  0  0  0  0  0  0  0
   39.8880   30.3490   42.7550 H   0  0  0  0  0  0  0  0  0  0  0  0
   38.9600   31.9320   42.4840 H   0  0  0  0  0  0  0  0  0  0  0  0
   41.5600   30.8940   41.2390 H   0  0  0  0  0  0  0  0  0  0  0  0
   41.4220   32.4030   42.3130 H   0  0  0  0  0  0  0  0  0  0  0  0
   39.9410   33.4270   40.5900 H   0  0  0  0  0  0  0  0  0  0  0  0
   41.3050   32.6140   39.6390 H   0  0  0  0  0  0  0  0  0  0  0  0
   38.6570   31.9880   39.3130 H   0  0  0  0  0  0  0  0  0  0  0  0
   39.7390   32.2500   37.1030 N   0  0  0  0  0  0  0  0  0  0  0  0
   40.4610   31.2590   37.5070 C   0  0  0  0  0  0  0  0  0  0  0  0
   40.2410   30.6350   38.7870 N   0  0  0  0  0  0  0  0  0  0  0  0
   41.5260   30.7220   36.7000 N   0  0  0  0  0  0  0  0  0  0  0  0
   42.5050   30.9900   36.9370 H   0  0  0  0  0  0  0  0  0  0  0  0
   39.8610   32.7350   36.1820 H   0  0  0  0  0  0  0  0  0  0  0  0
   40.5910   29.6600   38.9620 H   0  0  0  0  0  0  0  0  0  0  0  0
   41.4490   30.0820   35.8840 H   0  0  0  0  0  0  0  0  0  0  0  0
   39.1840   27.0020   40.5130 C   0  0  0  0  0  0  0  0  0  0  0  0
   38.4260   27.6500   41.4600 C   0  0  0  0  0  0  0  0  0  0  0  0
   38.5640   27.2470   42.7740 C   0  0  0  0  0  0  0  0  0  0  0  0
   39.4160   26.2480   43.1050 N   0  0  0  0  0  0  0  0  0  0  0  0
   40.1480   25.6300   42.1450 C   0  0  0  0  0  0  0  0  0  0  0  0
   40.0270   26.0100   40.8640 N   0  0  0  0  0  0  0  0  0  0  0  0
   39.1500   27.2410   39.4590 H   0  0  0  0  0  0  0  0  0  0  0  0
   37.9720   27.7550   43.5060 H   0  0  0  0  0  0  0  0  0  0  0  0
   40.8250   24.8400   42.3980 H   0  0  0  0  0  0  0  0  0  0  0  0
  1 36  1  0  0  0  0
  2  1  1  0  0  0  0
  2  8  1  0  0  0  0
  3 10  1  0  0  0  0
  3  2  1  0  0  0  0
  3  4  1  0  0  0  0
  4  5  1  0  0  0  0
  5 13  1  0  0  0  0
  6 14  1  6  0  0  0
  6 15  1  0  0  0  0
  6  1  1  0  0  0  0
  6  5  1  0  0  0  0
  7  2  1  0  0  0  0
  9  3  1  0  0  0  0
 11  4  1  0  0  0  0
 12  5  1  0  0  0  0
 15 16  1  1  0  0  0
 16 21  1  0  0  0  0
 16 20  1  0  0  0  0
 17 16  1  0  0  0  0
 17 23  1  0  0  0  0
 18 24  1  0  0  0  0
 18 17  1  0  0  0  0
 19 26  1  6  0  0  0
 19 18  1  0  0  0  0
 19 15  1  0  0  0  0
 22 17  1  0  0  0  0
 25 18  1  0  0  0  0
 27 28  2  0  0  0  0
 28 29  1  0  0  0  0
 29 33  1  0  0  0  0
 29 19  1  0  0  0  0
 30 31  1  0  0  0  0
 30 28  1  0  0  0  0
 32 27  1  0  0  0  0
 34 30  1  0  0  0  0
 35 40  2  0  0  0  0
 35 36  1  0  0  0  0
 36 37  2  0  0  0  0
 37 38  1  0  0  0  0
 37 42  1  0  0  0  0
 39 43  1  0  0  0  0
 39 38  2  0  0  0  0
 40 39  1  0  0  0  0
 41 35  1  0  0  0  0
M  END
>  <minimizedAffinity>
-5.29666805

$$$$

 OpenBabel03242514543D

 43 45  0  0  1  0  0  0  0  0999 V2000
   39.2700   31.6600   39.7060 N   0  0  0  0  0  0  0  0  0  0  0  0
   39.7690   32.9800   40.0770 C   0  0  0  0  0  0  0  0  0  0  0  0
   38.7290   33.8360   40.7270 C   0  0  0  0  0  0  0  0  0  0  0  0
   37.4900   33.8340   40.0610 N   0  0  0  0  0  0  0  0  0  0  0  0
   37.0740   32.6440   39.4560 C   0  0  0  0  0  0  0  0  0  0  0  0
   37.9040   31.4500   39.9700 C   0  0  1  0  0  0  0  0  0  0  0  0
   40.5740   32.8050   40.8340 H   0  0  0  0  0  0  0  0  0  0  0  0
   40.2750   33.4830   39.2250 H   0  0  0  0  0  0  0  0  0  0  0  0
   38.6180   33.6330   41.8120 H   0  0  0  0  0  0  0  0  0  0  0  0
   39.1310   34.8890   40.6820 H   0  0  0  0  0  0  0  0  0  0  0  0
   36.7430   34.2030   40.6910 H   0  0  0  0  0  0  0  0  0  0  0  0
   35.9880   32.4220   39.5120 H   0  0  0  0  0  0  0  0  0  0  0  0
   37.2960   32.6850   38.3570 H   0  0  0  0  0  0  0  0  0  0  0  0
   37.8250   31.6440   41.0890 H   0  0  0  0  0  0  0  0  0  0  0  0
   37.2300   30.2470   39.7930 N   0  0  2  0  0  0  0  0  0  0  0  0
   36.2540   30.1000   38.7580 C   0  0  0  0  0  0  0  0  0  0  0  0
   35.7400   28.6970   39.0560 C   0  0  0  0  0  0  0  0  0  0  0  0
   35.4640   28.8610   40.5420 C   0  0  0  0  0  0  0  0  0  0  0  0
   36.7080   29.6160   40.9800 C   0  0  1  0  0  0  0  0  0  0  0  0
   36.7870   30.0010   37.7780 H   0  0  0  0  0  0  0  0  0  0  0  0
   35.4610   30.8440   38.7620 H   0  0  0  0  0  0  0  0  0  0  0  0
   36.5990   28.0060   38.9520 H   0  0  0  0  0  0  0  0  0  0  0  0
   34.8460   28.4230   38.4950 H   0  0  0  0  0  0  0  0  0  0  0  0
   34.5550   29.4320   40.7550 H   0  0  0  0  0  0  0  0  0  0  0  0
   35.5000   27.8660   41.0390 H   0  0  0  0  0  0  0  0  0  0  0  0
   36.4330   30.3400   41.7540 H   0  0  0  0  0  0  0  0  0  0  0  0
   37.1830   29.2040   43.6790 N   0  0  0  0  0  0  0  0  0  0  0  0
   37.7280   28.3920   42.8350 C   0  0  0  0  0  0  0  0  0  0  0  0
   37.7340   28.6640   41.4200 N   0  0  0  0  0  0  0  0  0  0  0  0
   38.3590   27.1700   43.2630 N   0  0  0  0  0  0  0  0  0  0  0  0
   37.8330   26.2780   43.1450 H   0  0  0  0  0  0  0  0  0  0  0  0
   37.1540   29.0490   44.7150 H   0  0  0  0  0  0  0  0  0  0  0  0
   38.4380   28.1930   40.7990 H   0  0  0  0  0  0  0  0  0  0  0  0
   39.3010   27.0530   43.6880 H   0  0  0  0  0  0  0  0  0  0  0  0
   40.9600   30.0220   40.0060 C   0  0  0  0  0  0  0  0  0  0  0  0
   40.2040   30.7770   39.1400 C   0  0  0  0  0  0  0  0  0  0  0  0
   40.4230   30.6070   37.7870 C   0  0  0  0  0  0  0  0  0  0  0  0
   41.3510   29.7270   37.3420 N   0  0  0  0  0  0  0  0  0  0  0  0
   42.0790   28.9990   38.2250 C   0  0  0  0  0  0  0  0  0  0  0  0
   41.8790   29.1510   39.5420 N   0  0  0  0  0  0  0  0  0  0  0  0
   40.8660   30.0790   41.0820 H   0  0  0  0  0  0  0  0  0  0  0  0
   39.8330   31.1970   37.1180 H   0  0  0  0  0  0  0  0  0  0  0  0
   42.8150   28.3010   37.8810 H   0  0  0  0  0  0  0  0  0  0  0  0
  1  6  1  0  0  0  0
  1  2  1  0  0  0  0
  2  3  1  0  0  0  0
  2  7  1  0  0  0  0
  3  9  1  0  0  0  0
  4 11  1  0  0  0  0
  4  3  1  0  0  0  0
  5 12  1  0  0  0  0
  5  6  1  0  0  0  0
  5  4  1  0  0  0  0
  6 14  1  1  0  0  0
  8  2  1  0  0  0  0
 10  3  1  0  0  0  0
 13  5  1  0  0  0  0
 15 16  1  6  0  0  0
 15  6  1  0  0  0  0
 15 19  1  0  0  0  0
 16 21  1  0  0  0  0
 16 17  1  0  0  0  0
 17 18  1  0  0  0  0
 18 24  1  0  0  0  0
 18 19  1  0  0  0  0
 18 25  1  0  0  0  0
 19 29  1  0  0  0  0
 19 26  1  1  0  0  0
 20 16  1  0  0  0  0
 22 17  1  0  0  0  0
 23 17  1  0  0  0  0
 27 32  1  0  0  0  0
 28 30  1  0  0  0  0
 28 27  2  0  0  0  0
 29 28  1  0  0  0  0
 30 34  1  0  0  0  0
 31 30  1  0  0  0  0
 33 29  1  0  0  0  0
 35 41  1  0  0  0  0
 36  1  1  0  0  0  0
 36 35  2  0  0  0  0
 37 36  1  0  0  0  0
 38 37  2  0  0  0  0
 38 39  1  0  0  0  0
 39 40  2  0  0  0  0
 40 35  1  0  0  0  0
 42 37  1  0  0  0  0
 43 39  1  0  0  0  0
M  END
>  <minimizedAffinity>
-5.27428627

$$$$

 OpenBabel03242514543D

 43 45  0  0  1  0  0  0  0  0999 V2000
   37.0830   28.5090   41.2300 N   0  0  0  0  0  0  0  0  0  0  0  0
   36.6480   27.9550   42.5080 C   0  0  0  0  0  0  0  0  0  0  0  0
   37.6130   28.2250   43.6200 C   0  0  0  0  0  0  0  0  0  0  0  0
   38.9540   27.9680   43.2860 N   0  0  0  0  0  0  0  0  0  0  0  0
   39.3690   28.2440   41.9780 C   0  0  0  0  0  0  0  0  0  0  0  0
   38.3410   29.1390   41.2570 C   0  0  1  0  0  0  0  0  0  0  0  0
   35.6940   28.4800   42.7640 H   0  0  0  0  0  0  0  0  0  0  0  0
   36.3760   26.8820   42.4210 H   0  0  0  0  0  0  0  0  0  0  0  0
   37.4820   29.2290   44.0720 H   0  0  0  0  0  0  0  0  0  0  0  0
   37.3320   27.5110   44.4460 H   0  0  0  0  0  0  0  0  0  0  0  0
   39.5910   28.4290   43.9740 H   0  0  0  0  0  0  0  0  0  0  0  0
   40.3940   28.6520   41.8670 H   0  0  0  0  0  0  0  0  0  0  0  0
   39.3780   27.2940   41.3810 H   0  0  0  0  0  0  0  0  0  0  0  0
   38.2100   29.9410   42.0530 H   0  0  0  0  0  0  0  0  0  0  0  0
   38.9180   29.8200   40.1910 N   0  0  2  0  0  0  0  0  0  0  0  0
   40.0380   29.2710   39.4920 C   0  0  0  0  0  0  0  0  0  0  0  0
   40.3580   30.4140   38.5370 C   0  0  0  0  0  0  0  0  0  0  0  0
   40.3900   31.5550   39.5410 C   0  0  0  0  0  0  0  0  0  0  0  0
   39.1660   31.2280   40.3800 C   0  0  1  0  0  0  0  0  0  0  0  0
   39.6740   28.4450   38.8290 H   0  0  0  0  0  0  0  0  0  0  0  0
   40.8860   29.0010   40.1180 H   0  0  0  0  0  0  0  0  0  0  0  0
   39.4690   30.5610   37.8940 H   0  0  0  0  0  0  0  0  0  0  0  0
   41.3050   30.2990   38.0070 H   0  0  0  0  0  0  0  0  0  0  0  0
   41.2990   31.5730   40.1490 H   0  0  0  0  0  0  0  0  0  0  0  0
   40.1750   32.5150   39.0190 H   0  0  0  0  0  0  0  0  0  0  0  0
   39.3720   31.4810   41.4260 H   0  0  0  0  0  0  0  0  0  0  0  0
   38.5880   33.8250   41.1570 N   0  0  0  0  0  0  0  0  0  0  0  0
   37.9340   33.3280   40.1600 C   0  0  0  0  0  0  0  0  0  0  0  0
   37.9940   31.9250   39.8390 N   0  0  0  0  0  0  0  0  0  0  0  0
   37.1090   34.1520   39.3140 N   0  0  0  0  0  0  0  0  0  0  0  0
   37.4870   34.4360   38.3850 H   0  0  0  0  0  0  0  0  0  0  0  0
   38.5750   34.8370   41.4290 H   0  0  0  0  0  0  0  0  0  0  0  0
   37.2340   31.4860   39.2620 H   0  0  0  0  0  0  0  0  0  0  0  0
   36.1540   34.5130   39.5100 H   0  0  0  0  0  0  0  0  0  0  0  0
   35.1000   29.1660   40.1060 C   0  0  0  0  0  0  0  0  0  0  0  0
   36.2020   28.3450   40.1480 C   0  0  0  0  0  0  0  0  0  0  0  0
   36.3550   27.4280   39.1280 C   0  0  0  0  0  0  0  0  0  0  0  0
   35.4460   27.3490   38.1270 N   0  0  0  0  0  0  0  0  0  0  0  0
   34.3700   28.1740   38.1170 C   0  0  0  0  0  0  0  0  0  0  0  0
   34.2060   29.0710   39.1010 N   0  0  0  0  0  0  0  0  0  0  0  0
   34.8880   29.9170   40.8550 H   0  0  0  0  0  0  0  0  0  0  0  0
   37.2140   26.7920   39.1660 H   0  0  0  0  0  0  0  0  0  0  0  0
   33.6460   28.1190   37.3290 H   0  0  0  0  0  0  0  0  0  0  0  0
  1  6  1  0  0  0  0
  1  2  1  0  0  0  0
  2  7  1  0  0  0  0
  2  3  1  0  0  0  0
  3  9  1  0  0  0  0
  3 10  1  0  0  0  0
  4  3  1  0  0  0  0
  4 11  1  0  0  0  0
  5  4  1  0  0  0  0
  6  5  1  0  0  0  0
  6 14  1  1  0  0  0
  8  2  1  0  0  0  0
 12  5  1  0  0  0  0
 13  5  1  0  0  0  0
 15 16  1  1  0  0  0
 15 19  1  0  0  0  0
 15  6  1  0  0  0  0
 16 21  1  0  0  0  0
 17 16  1  0  0  0  0
 17 18  1  0  0  0  0
 18 24  1  0  0  0  0
 18 19  1  0  0  0  0
 19 26  1  1  0  0  0
 20 16  1  0  0  0  0
 22 17  1  0  0  0  0
 23 17  1  0  0  0  0
 25 18  1  0  0  0  0
 27 32  1  0  0  0  0
 28 27  2  0  0  0  0
 29 28  1  0  0  0  0
 29 19  1  0  0  0  0
 30 34  1  0  0  0  0
 30 28  1  0  0  0  0
 31 30  1  0  0  0  0
 33 29  1  0  0  0  0
 35 36  1  0  0  0  0
 35 41  1  0  0  0  0
 36  1  1  0  0  0  0
 37 42  1  0  0  0  0
 37 36  2  0  0  0  0
 38 37  1  0  0  0  0
 39 38  2  0  0  0  0
 39 40  1  0  0  0  0
 40 35  2  0  0  0  0
 43 39  1  0  0  0  0
M  END
>  <minimizedAffinity>
-5.23142576

$$$$

 OpenBabel03242514543D

 43 45  0  0  1  0  0  0  0  0999 V2000
   37.4910   27.0150   39.0470 N   0  0  0  0  0  0  0  0  0  0  0  0
   36.7880   26.3270   37.9690 C   0  0  0  0  0  0  0  0  0  0  0  0
   35.7850   25.3330   38.4660 C   0  0  0  0  0  0  0  0  0  0  0  0
   36.2680   24.4990   39.4900 N   0  0  0  0  0  0  0  0  0  0  0  0
   37.1610   25.0480   40.4170 C   0  0  0  0  0  0  0  0  0  0  0  0
   37.1460   26.5880   40.3430 C   0  0  1  0  0  0  0  0  0  0  0  0
   36.2240   27.1160   37.4130 H   0  0  0  0  0  0  0  0  0  0  0  0
   37.4940   25.8960   37.2270 H   0  0  0  0  0  0  0  0  0  0  0  0
   34.8130   25.7960   38.7310 H   0  0  0  0  0  0  0  0  0  0  0  0
   35.5470   24.6750   37.5830 H   0  0  0  0  0  0  0  0  0  0  0  0
   35.4710   24.0360   39.9820 H   0  0  0  0  0  0  0  0  0  0  0  0
   37.0490   24.7020   41.4650 H   0  0  0  0  0  0  0  0  0  0  0  0
   38.2100   24.7660   40.1370 H   0  0  0  0  0  0  0  0  0  0  0  0
   36.0220   26.7600   40.3800 H   0  0  0  0  0  0  0  0  0  0  0  0
   37.6090   27.1590   41.5230 N   0  0  2  0  0  0  0  0  0  0  0  0
   38.2500   26.3590   42.5210 C   0  0  0  0  0  0  0  0  0  0  0  0
   38.4450   27.3920   43.6230 C   0  0  0  0  0  0  0  0  0  0  0  0
   37.0300   27.9440   43.6790 C   0  0  0  0  0  0  0  0  0  0  0  0
   36.7150   28.0670   42.1970 C   0  0  1  0  0  0  0  0  0  0  0  0
   39.2880   26.1220   42.1730 H   0  0  0  0  0  0  0  0  0  0  0  0
   37.6810   25.4950   42.8560 H   0  0  0  0  0  0  0  0  0  0  0  0
   39.0960   28.1890   43.2130 H   0  0  0  0  0  0  0  0  0  0  0  0
   38.7650   26.9700   44.5760 H   0  0  0  0  0  0  0  0  0  0  0  0
   36.3240   27.2780   44.1830 H   0  0  0  0  0  0  0  0  0  0  0  0
   37.0490   28.9780   44.0910 H   0  0  0  0  0  0  0  0  0  0  0  0
   35.6610   27.8180   42.0340 H   0  0  0  0  0  0  0  0  0  0  0  0
   34.9630   29.5090   40.6050 N   0  0  0  0  0  0  0  0  0  0  0  0
   35.9880   30.1240   41.0930 C   0  0  0  0  0  0  0  0  0  0  0  0
   37.0680   29.4110   41.7270 N   0  0  0  0  0  0  0  0  0  0  0  0
   36.1070   31.5580   41.0310 N   0  0  0  0  0  0  0  0  0  0  0  0
   35.8920   32.1070   41.8910 H   0  0  0  0  0  0  0  0  0  0  0  0
   34.1550   29.9830   40.1360 H   0  0  0  0  0  0  0  0  0  0  0  0
   38.0110   29.8630   41.8180 H   0  0  0  0  0  0  0  0  0  0  0  0
   36.3880   32.1410   40.2170 H   0  0  0  0  0  0  0  0  0  0  0  0
   37.8970   29.1610   38.1230 C   0  0  0  0  0  0  0  0  0  0  0  0
   38.4100   28.0040   38.6600 C   0  0  0  0  0  0  0  0  0  0  0  0
   39.7820   27.9060   38.7760 C   0  0  0  0  0  0  0  0  0  0  0  0
   40.5840   28.9200   38.3710 N   0  0  0  0  0  0  0  0  0  0  0  0
   40.0450   30.0480   37.8450 C   0  0  0  0  0  0  0  0  0  0  0  0
   38.7130   30.1590   37.7260 N   0  0  0  0  0  0  0  0  0  0  0  0
   36.8390   29.3380   37.9900 H   0  0  0  0  0  0  0  0  0  0  0  0
   40.1750   27.0040   39.1940 H   0  0  0  0  0  0  0  0  0  0  0  0
   40.6710   30.8540   37.5230 H   0  0  0  0  0  0  0  0  0  0  0  0
  1  6  1  0  0  0  0
  2  3  1  0  0  0  0
  2  1  1  0  0  0  0
  3  9  1  0  0  0  0
  3  4  1  0  0  0  0
  4 11  1  0  0  0  0
  4  5  1  0  0  0  0
  5 12  1  0  0  0  0
  6 14  1  1  0  0  0
  6  5  1  0  0  0  0
  6 15  1  0  0  0  0
  7  2  1  0  0  0  0
  8  2  1  0  0  0  0
 10  3  1  0  0  0  0
 13  5  1  0  0  0  0
 15 19  1  0  0  0  0
 15 16  1  1  0  0  0
 16 21  1  0  0  0  0
 16 17  1  0  0  0  0
 17 18  1  0  0  0  0
 17 23  1  0  0  0  0
 18 25  1  0  0  0  0
 18 24  1  0  0  0  0
 19 26  1  6  0  0  0
 19 18  1  0  0  0  0
 20 16  1  0  0  0  0
 22 17  1  0  0  0  0
 27 28  2  0  0  0  0
 28 29  1  0  0  0  0
 29 33  1  0  0  0  0
 29 19  1  0  0  0  0
 30 28  1  0  0  0  0
 30 31  1  0  0  0  0
 32 27  1  0  0  0  0
 34 30  1  0  0  0  0
 35 36  1  0  0  0  0
 36 37  2  0  0  0  0
 36  1  1  0  0  0  0
 37 42  1  0  0  0  0
 38 37  1  0  0  0  0
 39 38  2  0  0  0  0
 40 39  1  0  0  0  0
 40 35  2  0  0  0  0
 41 35  1  0  0  0  0
 43 39  1  0  0  0  0
M  END
>  <minimizedAffinity>
-5.17081356

$$$$

 OpenBabel03242514543D

 43 45  0  0  1  0  0  0  0  0999 V2000
   37.0770   29.8510   39.0760 N   0  0  0  0  0  0  0  0  0  0  0  0
   37.0570   31.0830   38.2940 C   0  0  0  0  0  0  0  0  0  0  0  0
   37.3350   32.3010   39.1180 C   0  0  0  0  0  0  0  0  0  0  0  0
   36.6160   32.3510   40.3240 N   0  0  0  0  0  0  0  0  0  0  0  0
   36.3790   31.1470   40.9960 C   0  0  0  0  0  0  0  0  0  0  0  0
   37.2940   30.0300   40.4540 C   0  0  1  0  0  0  0  0  0  0  0  0
   37.8870   30.9910   37.5500 H   0  0  0  0  0  0  0  0  0  0  0  0
   36.1300   31.1710   37.6880 H   0  0  0  0  0  0  0  0  0  0  0  0
   38.4190   32.4810   39.2720 H   0  0  0  0  0  0  0  0  0  0  0  0
   36.9960   33.1750   38.4900 H   0  0  0  0  0  0  0  0  0  0  0  0
   37.0450   33.0500   40.9710 H   0  0  0  0  0  0  0  0  0  0  0  0
   36.4220   31.1900   42.1040 H   0  0  0  0  0  0  0  0  0  0  0  0
   35.3400   30.7890   40.7690 H   0  0  0  0  0  0  0  0  0  0  0  0
   38.2900   30.5800   40.4890 H   0  0  0  0  0  0  0  0  0  0  0  0
   37.4490   29.0040   41.3800 N   0  0  2  0  0  0  0  0  0  0  0  0
   36.3580   28.1400   41.7050 C   0  0  0  0  0  0  0  0  0  0  0  0
   36.9830   27.3040   42.8140 C   0  0  0  0  0  0  0  0  0  0  0  0
   37.5300   28.4320   43.6750 C   0  0  0  0  0  0  0  0  0  0  0  0
   38.1240   29.3390   42.6100 C   0  0  1  0  0  0  0  0  0  0  0  0
   36.2120   27.4200   40.8600 H   0  0  0  0  0  0  0  0  0  0  0  0
   35.4480   28.6440   42.0250 H   0  0  0  0  0  0  0  0  0  0  0  0
   37.8490   26.7730   42.3730 H   0  0  0  0  0  0  0  0  0  0  0  0
   36.2730   26.6770   43.3530 H   0  0  0  0  0  0  0  0  0  0  0  0
   36.7600   28.9480   44.2550 H   0  0  0  0  0  0  0  0  0  0  0  0
   38.3800   28.0540   44.2870 H   0  0  0  0  0  0  0  0  0  0  0  0
   37.9700   30.3830   42.9030 H   0  0  0  0  0  0  0  0  0  0  0  0
   40.0560   31.3260   42.5640 N   0  0  0  0  0  0  0  0  0  0  0  0
   40.4490   30.0970   42.6160 C   0  0  0  0  0  0  0  0  0  0  0  0
   39.5370   29.0010   42.4050 N   0  0  0  0  0  0  0  0  0  0  0  0
   41.8210   29.7540   42.8880 N   0  0  0  0  0  0  0  0  0  0  0  0
   42.0670   29.4360   43.8490 H   0  0  0  0  0  0  0  0  0  0  0  0
   40.6810   32.1540   42.7100 H   0  0  0  0  0  0  0  0  0  0  0  0
   39.9060   28.0580   42.1270 H   0  0  0  0  0  0  0  0  0  0  0  0
   42.6280   29.7820   42.2320 H   0  0  0  0  0  0  0  0  0  0  0  0
   35.5820   28.2720   38.1280 C   0  0  0  0  0  0  0  0  0  0  0  0
   36.8810   28.6570   38.3620 C   0  0  0  0  0  0  0  0  0  0  0  0
   37.8860   27.8430   37.8790 C   0  0  0  0  0  0  0  0  0  0  0  0
   37.5900   26.7080   37.2010 N   0  0  0  0  0  0  0  0  0  0  0  0
   36.2970   26.3590   36.9880 C   0  0  0  0  0  0  0  0  0  0  0  0
   35.3080   27.1390   37.4510 N   0  0  0  0  0  0  0  0  0  0  0  0
   34.7240   28.8390   38.4630 H   0  0  0  0  0  0  0  0  0  0  0  0
   38.8940   28.1470   38.0640 H   0  0  0  0  0  0  0  0  0  0  0  0
   36.0540   25.4630   36.4530 H   0  0  0  0  0  0  0  0  0  0  0  0
  1  6  1  0  0  0  0
  2  1  1  0  0  0  0
  2  3  1  0  0  0  0
  3  9  1  0  0  0  0
  3  4  1  0  0  0  0
  4 11  1  0  0  0  0
  4  5  1  0  0  0  0
  5 12  1  0  0  0  0
  6 14  1  1  0  0  0
  6  5  1  0  0  0  0
  6 15  1  0  0  0  0
  7  2  1  0  0  0  0
  8  2  1  0  0  0  0
 10  3  1  0  0  0  0
 13  5  1  0  0  0  0
 15 16  1  1  0  0  0
 15 19  1  0  0  0  0
 16 21  1  0  0  0  0
 16 17  1  0  0  0  0
 17 23  1  0  0  0  0
 17 18  1  0  0  0  0
 18 24  1  0  0  0  0
 18 25  1  0  0  0  0
 19 26  1  1  0  0  0
 19 18  1  0  0  0  0
 20 16  1  0  0  0  0
 22 17  1  0  0  0  0
 27 28  2  0  0  0  0
 27 32  1  0  0  0  0
 28 30  1  0  0  0  0
 29 19  1  0  0  0  0
 29 28  1  0  0  0  0
 30 31  1  0  0  0  0
 33 29  1  0  0  0  0
 34 30  1  0  0  0  0
 35 36  1  0  0  0  0
 35 41  1  0  0  0  0
 36  1  1  0  0  0  0
 37 42  1  0  0  0  0
 37 36  2  0  0  0  0
 38 37  1  0  0  0  0
 39 38  2  0  0  0  0
 39 40  1  0  0  0  0
 40 35  2  0  0  0  0
 43 39  1  0  0  0  0
M  END
>  <minimizedAffinity>
-5.16283417

$$$$

 OpenBabel03242514543D

 43 45  0  0  1  0  0  0  0  0999 V2000
   38.1550   29.9180   38.1840 N   0  0  0  0  0  0  0  0  0  0  0  0
   37.1150   29.8940   37.1620 C   0  0  0  0  0  0  0  0  0  0  0  0
   35.8140   29.3520   37.6660 C   0  0  0  0  0  0  0  0  0  0  0  0
   35.9400   28.1680   38.4140 N   0  0  0  0  0  0  0  0  0  0  0  0
   37.0690   28.0250   39.2280 C   0  0  0  0  0  0  0  0  0  0  0  0
   37.7740   29.3810   39.4280 C   0  0  1  0  0  0  0  0  0  0  0  0
   36.9390   30.9600   36.8740 H   0  0  0  0  0  0  0  0  0  0  0  0
   37.4610   29.3950   36.2330 H   0  0  0  0  0  0  0  0  0  0  0  0
   35.2030   30.1130   38.1930 H   0  0  0  0  0  0  0  0  0  0  0  0
   35.2120   29.1030   36.7450 H   0  0  0  0  0  0  0  0  0  0  0  0
   35.0700   27.9960   38.9640 H   0  0  0  0  0  0  0  0  0  0  0  0
   36.9060   27.5170   40.2010 H   0  0  0  0  0  0  0  0  0  0  0  0
   37.8310   27.3900   38.7040 H   0  0  0  0  0  0  0  0  0  0  0  0
   36.8710   30.0130   39.7150 H   0  0  0  0  0  0  0  0  0  0  0  0
   38.5590   29.3830   40.5760 N   0  0  2  0  0  0  0  0  0  0  0  0
   38.9320   28.1570   41.2090 C   0  0  0  0  0  0  0  0  0  0  0  0
   39.6520   28.6870   42.4420 C   0  0  0  0  0  0  0  0  0  0  0  0
   38.5950   29.6690   42.9250 C   0  0  0  0  0  0  0  0  0  0  0  0
   38.1900   30.3170   41.6110 C   0  0  1  0  0  0  0  0  0  0  0  0
   39.7390   27.6740   40.6000 H   0  0  0  0  0  0  0  0  0  0  0  0
   38.1050   27.4960   41.4610 H   0  0  0  0  0  0  0  0  0  0  0  0
   40.5170   29.2790   42.0860 H   0  0  0  0  0  0  0  0  0  0  0  0
   39.8810   27.9240   43.1860 H   0  0  0  0  0  0  0  0  0  0  0  0
   37.7430   29.1850   43.4110 H   0  0  0  0  0  0  0  0  0  0  0  0
   39.0770   30.4620   43.5390 H   0  0  0  0  0  0  0  0  0  0  0  0
   37.1140   30.5200   41.6290 H   0  0  0  0  0  0  0  0  0  0  0  0
   37.0700   32.5700   40.4490 N   0  0  0  0  0  0  0  0  0  0  0  0
   38.2450   32.6770   40.9730 C   0  0  0  0  0  0  0  0  0  0  0  0
   38.9990   31.5190   41.3830 N   0  0  0  0  0  0  0  0  0  0  0  0
   38.8660   33.9600   41.1780 N   0  0  0  0  0  0  0  0  0  0  0  0
   38.8570   34.3630   42.1390 H   0  0  0  0  0  0  0  0  0  0  0  0
   36.4850   33.3810   40.1360 H   0  0  0  0  0  0  0  0  0  0  0  0
   40.0410   31.5850   41.4930 H   0  0  0  0  0  0  0  0  0  0  0  0
   39.3380   34.5610   40.4720 H   0  0  0  0  0  0  0  0  0  0  0  0
   40.4140   29.5870   37.5380 C   0  0  0  0  0  0  0  0  0  0  0  0
   39.3910   30.4660   37.8030 C   0  0  0  0  0  0  0  0  0  0  0  0
   39.6580   31.8150   37.6740 C   0  0  0  0  0  0  0  0  0  0  0  0
   40.8870   32.2430   37.2990 N   0  0  0  0  0  0  0  0  0  0  0  0
   41.8730   31.3470   37.0450 C   0  0  0  0  0  0  0  0  0  0  0  0
   41.6300   30.0340   37.1660 N   0  0  0  0  0  0  0  0  0  0  0  0
   40.3080   28.5130   37.6090 H   0  0  0  0  0  0  0  0  0  0  0  0
   38.8590   32.4940   37.8810 H   0  0  0  0  0  0  0  0  0  0  0  0
   42.8480   31.6770   36.7480 H   0  0  0  0  0  0  0  0  0  0  0  0
  1  6  1  0  0  0  0
  2  3  1  0  0  0  0
  2  1  1  0  0  0  0
  3  9  1  0  0  0  0
  3  4  1  0  0  0  0
  4 11  1  0  0  0  0
  4  5  1  0  0  0  0
  5  6  1  0  0  0  0
  5 12  1  0  0  0  0
  6 14  1  1  0  0  0
  6 15  1  0  0  0  0
  7  2  1  0  0  0  0
  8  2  1  0  0  0  0
 10  3  1  0  0  0  0
 13  5  1  0  0  0  0
 15 16  1  1  0  0  0
 15 19  1  0  0  0  0
 16 21  1  0  0  0  0
 16 17  1  0  0  0  0
 17 18  1  0  0  0  0
 17 23  1  0  0  0  0
 18 24  1  0  0  0  0
 18 25  1  0  0  0  0
 19 26  1  6  0  0  0
 19 18  1  0  0  0  0
 20 16  1  0  0  0  0
 22 17  1  0  0  0  0
 27 28  2  0  0  0  0
 28 30  1  0  0  0  0
 28 29  1  0  0  0  0
 29 33  1  0  0  0  0
 29 19  1  0  0  0  0
 30 31  1  0  0  0  0
 32 27  1  0  0  0  0
 34 30  1  0  0  0  0
 35 41  1  0  0  0  0
 35 36  1  0  0  0  0
 36  1  1  0  0  0  0
 37 36  2  0  0  0  0
 37 42  1  0  0  0  0
 38 37  1  0  0  0  0
 39 40  1  0  0  0  0
 39 38  2  0  0  0  0
 40 35  2  0  0  0  0
 43 39  1  0  0  0  0
M  END
>  <minimizedAffinity>
-5.10231829

$$$$

 OpenBabel03242514543D

 43 45  0  0  1  0  0  0  0  0999 V2000
   38.8210   30.9980   39.5460 N   0  0  0  0  0  0  0  0  0  0  0  0
   38.8410   32.3650   39.0350 C   0  0  0  0  0  0  0  0  0  0  0  0
   38.0860   33.3230   39.9010 C   0  0  0  0  0  0  0  0  0  0  0  0
   36.8220   32.8560   40.3010 N   0  0  0  0  0  0  0  0  0  0  0  0
   36.6800   31.4890   40.5600 C   0  0  0  0  0  0  0  0  0  0  0  0
   38.0590   30.8170   40.7150 C   0  0  1  0  0  0  0  0  0  0  0  0
   39.9130   32.6840   39.0450 H   0  0  0  0  0  0  0  0  0  0  0  0
   38.5340   32.4100   37.9680 H   0  0  0  0  0  0  0  0  0  0  0  0
   38.6830   33.6940   40.7590 H   0  0  0  0  0  0  0  0  0  0  0  0
   37.9170   34.2390   39.2650 H   0  0  0  0  0  0  0  0  0  0  0  0
   36.4700   33.4180   41.1090 H   0  0  0  0  0  0  0  0  0  0  0  0
   36.0120   31.2190   41.4050 H   0  0  0  0  0  0  0  0  0  0  0  0
   36.2230   30.9840   39.6680 H   0  0  0  0  0  0  0  0  0  0  0  0
   38.5340   31.5460   41.4480 H   0  0  0  0  0  0  0  0  0  0  0  0
   37.9700   29.6310   41.4360 N   0  0  2  0  0  0  0  0  0  0  0  0
   36.7320   28.9200   41.5260 C   0  0  0  0  0  0  0  0  0  0  0  0
   37.1190   27.8070   42.4900 C   0  0  0  0  0  0  0  0  0  0  0  0
   37.7560   28.6540   43.5810 C   0  0  0  0  0  0  0  0  0  0  0  0
   38.5760   29.6220   42.7450 C   0  0  1  0  0  0  0  0  0  0  0  0
   36.5520   28.3970   40.5520 H   0  0  0  0  0  0  0  0  0  0  0  0
   35.8880   29.5050   41.8820 H   0  0  0  0  0  0  0  0  0  0  0  0
   37.9280   27.2230   42.0080 H   0  0  0  0  0  0  0  0  0  0  0  0
   36.2750   27.2220   42.8570 H   0  0  0  0  0  0  0  0  0  0  0  0
   37.0260   29.1810   44.2020 H   0  0  0  0  0  0  0  0  0  0  0  0
   38.4790   28.0350   44.1580 H   0  0  0  0  0  0  0  0  0  0  0  0
   38.5600   30.6080   43.2220 H   0  0  0  0  0  0  0  0  0  0  0  0
   40.7630   31.3250   42.7200 N   0  0  0  0  0  0  0  0  0  0  0  0
   40.9820   30.0540   42.7830 C   0  0  0  0  0  0  0  0  0  0  0  0
   39.9320   29.0930   42.5620 N   0  0  0  0  0  0  0  0  0  0  0  0
   42.2900   29.5280   43.0770 N   0  0  0  0  0  0  0  0  0  0  0  0
   42.4760   29.1850   44.0440 H   0  0  0  0  0  0  0  0  0  0  0  0
   41.4930   32.0600   42.8720 H   0  0  0  0  0  0  0  0  0  0  0  0
   40.1720   28.1060   42.2940 H   0  0  0  0  0  0  0  0  0  0  0  0
   43.1030   29.4400   42.4340 H   0  0  0  0  0  0  0  0  0  0  0  0
   38.9160   29.4270   37.7710 C   0  0  0  0  0  0  0  0  0  0  0  0
   39.5560   30.0490   38.8170 C   0  0  0  0  0  0  0  0  0  0  0  0
   40.8670   29.6930   39.0670 C   0  0  0  0  0  0  0  0  0  0  0  0
   41.4880   28.7630   38.3030 N   0  0  0  0  0  0  0  0  0  0  0  0
   40.8260   28.1690   37.2790 C   0  0  0  0  0  0  0  0  0  0  0  0
   39.5530   28.5040   37.0230 N   0  0  0  0  0  0  0  0  0  0  0  0
   37.8920   29.6350   37.4930 H   0  0  0  0  0  0  0  0  0  0  0  0
   41.3590   30.1800   39.8820 H   0  0  0  0  0  0  0  0  0  0  0  0
   41.3100   27.4330   36.6700 H   0  0  0  0  0  0  0  0  0  0  0  0
  1  6  1  0  0  0  0
  2  7  1  0  0  0  0
  2  1  1  0  0  0  0
  2  3  1  0  0  0  0
  3  4  1  0  0  0  0
  3  9  1  0  0  0  0
  4  5  1  0  0  0  0
  4 11  1  0  0  0  0
  5  6  1  0  0  0  0
  5 12  1  0  0  0  0
  6 15  1  0  0  0  0
  6 14  1  1  0  0  0
  8  2  1  0  0  0  0
 10  3  1  0  0  0  0
 13  5  1  0  0  0  0
 15 16  1  1  0  0  0
 15 19  1  0  0  0  0
 16 21  1  0  0  0  0
 16 17  1  0  0  0  0
 17 23  1  0  0  0  0
 17 18  1  0  0  0  0
 18 25  1  0  0  0  0
 18 24  1  0  0  0  0
 19 26  1  1  0  0  0
 19 18  1  0  0  0  0
 20 16  1  0  0  0  0
 22 17  1  0  0  0  0
 27 28  2  0  0  0  0
 27 32  1  0  0  0  0
 28 30  1  0  0  0  0
 29 19  1  0  0  0  0
 29 28  1  0  0  0  0
 30 31  1  0  0  0  0
 33 29  1  0  0  0  0
 34 30  1  0  0  0  0
 35 36  1  0  0  0  0
 36 37  2  0  0  0  0
 36  1  1  0  0  0  0
 37 42  1  0  0  0  0
 38 37  1  0  0  0  0
 39 38  2  0  0  0  0
 40 39  1  0  0  0  0
 40 35  2  0  0  0  0
 41 35  1  0  0  0  0
 43 39  1  0  0  0  0
M  END
>  <minimizedAffinity>
-5.07793093

$$$$

 OpenBabel03242514543D

 43 45  0  0  1  0  0  0  0  0999 V2000
   39.1550   32.0770   40.2960 N   0  0  0  0  0  0  0  0  0  0  0  0
   38.5690   33.4110   40.2190 C   0  0  0  0  0  0  0  0  0  0  0  0
   37.3300   33.4560   39.3800 C   0  0  0  0  0  0  0  0  0  0  0  0
   37.4490   32.7860   38.1500 N   0  0  0  0  0  0  0  0  0  0  0  0
   38.2250   31.6230   38.1090 C   0  0  0  0  0  0  0  0  0  0  0  0
   38.4940   31.0970   39.5340 C   0  0  1  0  0  0  0  0  0  0  0  0
   38.2700   33.6790   41.2630 H   0  0  0  0  0  0  0  0  0  0  0  0
   39.3200   34.1750   39.9240 H   0  0  0  0  0  0  0  0  0  0  0  0
   36.4200   33.1480   39.9340 H   0  0  0  0  0  0  0  0  0  0  0  0
   37.1580   34.5470   39.1510 H   0  0  0  0  0  0  0  0  0  0  0  0
   36.5030   32.6070   37.7450 H   0  0  0  0  0  0  0  0  0  0  0  0
   37.8510   30.8100   37.4530 H   0  0  0  0  0  0  0  0  0  0  0  0
   39.2430   31.8650   37.7060 H   0  0  0  0  0  0  0  0  0  0  0  0
   37.4320   31.1260   39.9410 H   0  0  0  0  0  0  0  0  0  0  0  0
   38.8090   29.7420   39.5250 N   0  0  2  0  0  0  0  0  0  0  0  0
   39.4180   29.1390   38.3810 C   0  0  0  0  0  0  0  0  0  0  0  0
   39.4390   27.6790   38.8130 C   0  0  0  0  0  0  0  0  0  0  0  0
   37.9870   27.5410   39.2420 C   0  0  0  0  0  0  0  0  0  0  0  0
   37.7940   28.8390   40.0090 C   0  0  1  0  0  0  0  0  0  0  0  0
   40.4960   29.4390   38.3530 H   0  0  0  0  0  0  0  0  0  0  0  0
   38.8870   29.2890   37.4430 H   0  0  0  0  0  0  0  0  0  0  0  0
   40.0630   27.6180   39.7260 H   0  0  0  0  0  0  0  0  0  0  0  0
   39.7050   26.9830   38.0160 H   0  0  0  0  0  0  0  0  0  0  0  0
   37.2910   27.4680   38.4010 H   0  0  0  0  0  0  0  0  0  0  0  0
   37.8940   26.7130   39.9800 H   0  0  0  0  0  0  0  0  0  0  0  0
   36.7800   29.2120   39.8310 H   0  0  0  0  0  0  0  0  0  0  0  0
   36.4870   30.3120   41.9590 N   0  0  0  0  0  0  0  0  0  0  0  0
   37.1900   29.2950   42.3340 C   0  0  0  0  0  0  0  0  0  0  0  0
   38.0870   28.6210   41.4300 N   0  0  0  0  0  0  0  0  0  0  0  0
   37.1140   28.7800   43.6770 N   0  0  0  0  0  0  0  0  0  0  0  0
   36.5480   27.9210   43.8430 H   0  0  0  0  0  0  0  0  0  0  0  0
   35.8230   30.8340   42.5790 H   0  0  0  0  0  0  0  0  0  0  0  0
   38.8700   28.0330   41.8100 H   0  0  0  0  0  0  0  0  0  0  0  0
   37.5650   29.1610   44.5330 H   0  0  0  0  0  0  0  0  0  0  0  0
   41.4200   32.6280   40.7360 C   0  0  0  0  0  0  0  0  0  0  0  0
   40.2900   31.9420   41.1130 C   0  0  0  0  0  0  0  0  0  0  0  0
   40.3600   31.1770   42.2600 C   0  0  0  0  0  0  0  0  0  0  0  0
   41.5060   31.1120   42.9790 N   0  0  0  0  0  0  0  0  0  0  0  0
   42.6020   31.8030   42.5780 C   0  0  0  0  0  0  0  0  0  0  0  0
   42.5510   32.5510   41.4660 N   0  0  0  0  0  0  0  0  0  0  0  0
   41.4690   33.2550   39.8560 H   0  0  0  0  0  0  0  0  0  0  0  0
   39.4780   30.6450   42.5480 H   0  0  0  0  0  0  0  0  0  0  0  0
   43.5120   31.7580   43.1400 H   0  0  0  0  0  0  0  0  0  0  0  0
  1 36  1  0  0  0  0
  2  1  1  0  0  0  0
  2  7  1  0  0  0  0
  3  9  1  0  0  0  0
  3  2  1  0  0  0  0
  4  3  1  0  0  0  0
  5  4  1  0  0  0  0
  5  6  1  0  0  0  0
  6 14  1  1  0  0  0
  6  1  1  0  0  0  0
  8  2  1  0  0  0  0
 10  3  1  0  0  0  0
 11  4  1  0  0  0  0
 12  5  1  0  0  0  0
 13  5  1  0  0  0  0
 15 16  1  6  0  0  0
 15  6  1  0  0  0  0
 15 19  1  0  0  0  0
 16 17  1  0  0  0  0
 17 18  1  0  0  0  0
 17 22  1  0  0  0  0
 18 25  1  0  0  0  0
 18 19  1  0  0  0  0
 19 26  1  6  0  0  0
 19 29  1  0  0  0  0
 20 16  1  0  0  0  0
 21 16  1  0  0  0  0
 23 17  1  0  0  0  0
 24 18  1  0  0  0  0
 27 28  2  0  0  0  0
 27 32  1  0  0  0  0
 28 30  1  0  0  0  0
 29 33  1  0  0  0  0
 29 28  1  0  0  0  0
 30 31  1  0  0  0  0
 30 34  1  0  0  0  0
 35 36  2  0  0  0  0
 35 40  1  0  0  0  0
 36 37  1  0  0  0  0
 37 42  1  0  0  0  0
 37 38  2  0  0  0  0
 39 38  1  0  0  0  0
 39 43  1  0  0  0  0
 40 39  2  0  0  0  0
 41 35  1  0  0  0  0
M  END
>  <minimizedAffinity>
-5.06270933

$$$$
