
 OpenBabel03242515443D

 37 39  0  0  0  0  0  0  0  0999 V2000
   37.6280   28.1370   39.9880 C   0  0  0  0  0  0  0  0  0  0  0  0
   37.6390   28.9770   41.0470 C   0  0  0  0  0  0  0  0  0  0  0  0
   37.3630   28.4120   42.3100 C   0  0  0  0  0  0  0  0  0  0  0  0
   37.1000   27.0880   42.4130 N   0  0  0  0  0  0  0  0  0  0  0  0
   37.1000   26.2930   41.3290 C   0  0  0  0  0  0  0  0  0  0  0  0
   37.3650   26.8580   40.1610 N   0  0  0  0  0  0  0  0  0  0  0  0
   37.3630   29.1880   43.5070 N   0  0  0  0  0  0  0  0  0  0  0  0
   36.4600   29.7080   43.6680 H   0  0  0  0  0  0  0  0  0  0  0  0
   38.2130   29.1960   44.1220 H   0  0  0  0  0  0  0  0  0  0  0  0
   35.4940   30.6300   41.0630 N   0  0  0  0  0  0  0  0  0  0  0  0
   36.6750   31.1440   40.9080 C   0  0  0  0  0  0  0  0  0  0  0  0
   37.8640   30.3570   41.1670 N   0  0  0  0  0  0  0  0  0  0  0  0
   36.7790   32.5150   40.4720 N   0  0  0  0  0  0  0  0  0  0  0  0
   37.4070   33.0720   41.0940 H   0  0  0  0  0  0  0  0  0  0  0  0
   34.6600   31.2060   40.8730 H   0  0  0  0  0  0  0  0  0  0  0  0
   38.6590   30.9830   41.4080 H   0  0  0  0  0  0  0  0  0  0  0  0
   36.2850   32.9000   39.6330 H   0  0  0  0  0  0  0  0  0  0  0  0
   38.0010   28.9150   38.3940 S   0  0  0  0  0  0  0  0  0  0  0  0
   36.8030   29.1830   36.0220 C   0  0  0  0  0  0  0  0  0  0  0  0
   36.5340   29.0160   37.3890 C   0  0  0  0  0  0  0  0  0  0  0  0
   35.2310   28.9220   37.8600 C   0  0  0  0  0  0  0  0  0  0  0  0
   34.1730   28.9920   36.9950 C   0  0  0  0  0  0  0  0  0  0  0  0
   34.4230   29.1590   35.6300 C   0  0  0  0  0  0  0  0  0  0  0  0
   35.7170   29.2560   35.1340 C   0  0  0  0  0  0  0  0  0  0  0  0
   33.1680   29.2000   34.9730 O   0  0  0  0  0  0  0  0  0  0  0  0
   32.2180   29.4030   35.9640 C   0  0  0  0  0  0  0  0  0  0  0  0
   32.7980   28.9320   37.1600 O   0  0  0  0  0  0  0  0  0  0  0  0
   37.7940   29.2610   35.6040 H   0  0  0  0  0  0  0  0  0  0  0  0
   35.1130   28.7970   38.9120 H   0  0  0  0  0  0  0  0  0  0  0  0
   35.9320   29.3860   34.0830 H   0  0  0  0  0  0  0  0  0  0  0  0
   32.1100   30.5170   36.1000 H   0  0  0  0  0  0  0  0  0  0  0  0
   31.2350   28.9510   35.7410 H   0  0  0  0  0  0  0  0  0  0  0  0
   36.8470   24.9400   41.3160 O   0  0  0  0  0  0  0  0  0  0  0  0
   37.9440   24.0670   41.4630 C   0  0  0  0  0  0  0  0  0  0  0  0
   39.0030   24.4290   40.6690 F   0  0  0  0  0  0  0  0  0  0  0  0
   38.2790   24.0800   42.8290 F   0  0  0  0  0  0  0  0  0  0  0  0
   37.5260   22.7980   41.0940 F   0  0  0  0  0  0  0  0  0  0  0  0
  1  6  2  0  0  0  0
  1  2  1  0  0  0  0
  2 12  1  0  0  0  0
  2  3  2  0  0  0  0
  3  4  1  0  0  0  0
  3  7  1  0  0  0  0
  5  4  2  0  0  0  0
  6  5  1  0  0  0  0
  7  8  1  0  0  0  0
  7  9  1  0  0  0  0
 11 10  2  0  0  0  0
 11 12  1  0  0  0  0
 12 16  1  0  0  0  0
 13 11  1  0  0  0  0
 13 14  1  0  0  0  0
 15 10  1  0  0  0  0
 17 13  1  0  0  0  0
 18  1  1  0  0  0  0
 19 20  1  0  0  0  0
 20 21  2  0  0  0  0
 20 18  1  0  0  0  0
 21 29  1  0  0  0  0
 22 27  1  0  0  0  0
 22 21  1  0  0  0  0
 23 22  2  0  0  0  0
 24 23  1  0  0  0  0
 24 19  2  0  0  0  0
 25 23  1  0  0  0  0
 25 26  1  0  0  0  0
 26 31  1  0  0  0  0
 26 27  1  0  0  0  0
 28 19  1  0  0  0  0
 30 24  1  0  0  0  0
 32 26  1  0  0  0  0
 33  5  1  0  0  0  0
 33 34  1  0  0  0  0
 34 36  1  0  0  0  0
 35 34  1  0  0  0  0
 37 34  1  0  0  0  0
M  END
>  <minimizedAffinity>
-6.44122124

$$$$

 OpenBabel03242515443D

 37 39  0  0  0  0  0  0  0  0999 V2000
   38.1010   29.3490   41.5540 C   0  0  0  0  0  0  0  0  0  0  0  0
   36.9170   29.8790   41.1740 C   0  0  0  0  0  0  0  0  0  0  0  0
   35.9370   28.9780   40.7090 C   0  0  0  0  0  0  0  0  0  0  0  0
   36.2090   27.6520   40.6580 N   0  0  0  0  0  0  0  0  0  0  0  0
   37.4030   27.1730   41.0460 C   0  0  0  0  0  0  0  0  0  0  0  0
   38.2980   28.0480   41.4790 N   0  0  0  0  0  0  0  0  0  0  0  0
   34.6410   29.4100   40.2970 N   0  0  0  0  0  0  0  0  0  0  0  0
   34.6160   29.7710   39.3070 H   0  0  0  0  0  0  0  0  0  0  0  0
   33.8340   29.3460   40.9650 H   0  0  0  0  0  0  0  0  0  0  0  0
   37.1070   31.2340   38.8370 N   0  0  0  0  0  0  0  0  0  0  0  0
   36.8190   31.8930   39.9170 C   0  0  0  0  0  0  0  0  0  0  0  0
   36.4330   31.1950   41.1280 N   0  0  0  0  0  0  0  0  0  0  0  0
   36.8900   33.3330   39.8870 N   0  0  0  0  0  0  0  0  0  0  0  0
   36.0120   33.7710   40.2480 H   0  0  0  0  0  0  0  0  0  0  0  0
   37.3790   31.7490   37.9860 H   0  0  0  0  0  0  0  0  0  0  0  0
   35.8530   31.8170   41.7270 H   0  0  0  0  0  0  0  0  0  0  0  0
   37.7210   33.8690   39.5460 H   0  0  0  0  0  0  0  0  0  0  0  0
   39.3180   30.5510   42.1530 S   0  0  0  0  0  0  0  0  0  0  0  0
   41.0010   30.2320   40.1050 C   0  0  0  0  0  0  0  0  0  0  0  0
   40.2690   31.2070   40.7980 C   0  0  0  0  0  0  0  0  0  0  0  0
   40.3020   32.5410   40.4130 C   0  0  0  0  0  0  0  0  0  0  0  0
   41.0540   32.9370   39.3410 C   0  0  0  0  0  0  0  0  0  0  0  0
   41.7900   31.9770   38.6380 C   0  0  0  0  0  0  0  0  0  0  0  0
   41.7740   30.6380   39.0040 C   0  0  0  0  0  0  0  0  0  0  0  0
   42.4670   32.6490   37.5910 O   0  0  0  0  0  0  0  0  0  0  0  0
   42.4040   34.0020   37.8940 C   0  0  0  0  0  0  0  0  0  0  0  0
   41.2810   34.1610   38.7310 O   0  0  0  0  0  0  0  0  0  0  0  0
   41.0110   29.1850   40.3610 H   0  0  0  0  0  0  0  0  0  0  0  0
   39.7180   33.2180   40.9940 H   0  0  0  0  0  0  0  0  0  0  0  0
   42.3350   29.8800   38.4750 H   0  0  0  0  0  0  0  0  0  0  0  0
   43.2980   34.2420   38.5380 H   0  0  0  0  0  0  0  0  0  0  0  0
   42.3900   34.6600   37.0060 H   0  0  0  0  0  0  0  0  0  0  0  0
   37.7890   25.8510   41.0360 O   0  0  0  0  0  0  0  0  0  0  0  0
   37.2160   24.9940   41.9980 C   0  0  0  0  0  0  0  0  0  0  0  0
   38.1390   24.1350   42.5400 F   0  0  0  0  0  0  0  0  0  0  0  0
   36.6340   25.8260   42.9720 F   0  0  0  0  0  0  0  0  0  0  0  0
   36.2310   24.2500   41.3680 F   0  0  0  0  0  0  0  0  0  0  0  0
  1 18  1  0  0  0  0
  2  1  2  0  0  0  0
  3  2  1  0  0  0  0
  4  3  2  0  0  0  0
  4  5  1  0  0  0  0
  5  6  2  0  0  0  0
  6  1  1  0  0  0  0
  7  3  1  0  0  0  0
  7  9  1  0  0  0  0
  8  7  1  0  0  0  0
 10 11  2  0  0  0  0
 11 12  1  0  0  0  0
 12  2  1  0  0  0  0
 12 16  1  0  0  0  0
 13 11  1  0  0  0  0
 13 14  1  0  0  0  0
 15 10  1  0  0  0  0
 17 13  1  0  0  0  0
 19 28  1  0  0  0  0
 19 20  1  0  0  0  0
 20 18  1  0  0  0  0
 21 20  2  0  0  0  0
 21 29  1  0  0  0  0
 22 21  1  0  0  0  0
 23 24  1  0  0  0  0
 23 22  2  0  0  0  0
 24 19  2  0  0  0  0
 25 26  1  0  0  0  0
 25 23  1  0  0  0  0
 26 31  1  0  0  0  0
 26 27  1  0  0  0  0
 27 22  1  0  0  0  0
 30 24  1  0  0  0  0
 32 26  1  0  0  0  0
 33  5  1  0  0  0  0
 33 34  1  0  0  0  0
 34 35  1  0  0  0  0
 34 36  1  0  0  0  0
 37 34  1  0  0  0  0
M  END
>  <minimizedAffinity>
-6.22744036

$$$$

 OpenBabel03242515443D

 37 39  0  0  0  0  0  0  0  0999 V2000
   37.6550   28.3870   39.7850 C   0  0  0  0  0  0  0  0  0  0  0  0
   37.8650   29.2330   40.8170 C   0  0  0  0  0  0  0  0  0  0  0  0
   37.8920   28.6670   42.1080 C   0  0  0  0  0  0  0  0  0  0  0  0
   37.7090   27.3340   42.2640 N   0  0  0  0  0  0  0  0  0  0  0  0
   37.5040   26.5330   41.2040 C   0  0  0  0  0  0  0  0  0  0  0  0
   37.4860   27.1000   40.0080 N   0  0  0  0  0  0  0  0  0  0  0  0
   38.1230   29.4500   43.2780 N   0  0  0  0  0  0  0  0  0  0  0  0
   37.2580   29.9360   43.6330 H   0  0  0  0  0  0  0  0  0  0  0  0
   39.0860   29.4930   43.6930 H   0  0  0  0  0  0  0  0  0  0  0  0
   35.6970   30.8120   41.1900 N   0  0  0  0  0  0  0  0  0  0  0  0
   36.8140   31.3650   40.8310 C   0  0  0  0  0  0  0  0  0  0  0  0
   38.0580   30.6210   40.8880 N   0  0  0  0  0  0  0  0  0  0  0  0
   36.7940   32.7330   40.3750 N   0  0  0  0  0  0  0  0  0  0  0  0
   37.4980   33.3180   40.8770 H   0  0  0  0  0  0  0  0  0  0  0  0
   34.8230   31.3580   41.1420 H   0  0  0  0  0  0  0  0  0  0  0  0
   38.8590   31.2770   40.9850 H   0  0  0  0  0  0  0  0  0  0  0  0
   36.1500   33.0900   39.6310 H   0  0  0  0  0  0  0  0  0  0  0  0
   37.6420   29.1680   38.1490 S   0  0  0  0  0  0  0  0  0  0  0  0
   40.2070   28.9230   37.4470 C   0  0  0  0  0  0  0  0  0  0  0  0
   39.2340   29.8760   37.7810 C   0  0  0  0  0  0  0  0  0  0  0  0
   39.5300   31.2330   37.7900 C   0  0  0  0  0  0  0  0  0  0  0  0
   40.7860   31.6730   37.4700 C   0  0  0  0  0  0  0  0  0  0  0  0
   41.7680   30.7360   37.1350 C   0  0  0  0  0  0  0  0  0  0  0  0
   41.4970   29.3730   37.1200 C   0  0  0  0  0  0  0  0  0  0  0  0
   42.9570   31.4520   36.8530 O   0  0  0  0  0  0  0  0  0  0  0  0
   42.7640   32.7340   37.3510 C   0  0  0  0  0  0  0  0  0  0  0  0
   41.3680   32.9290   37.3920 O   0  0  0  0  0  0  0  0  0  0  0  0
   40.0310   27.8590   37.4240 H   0  0  0  0  0  0  0  0  0  0  0  0
   38.7350   31.8920   38.0560 H   0  0  0  0  0  0  0  0  0  0  0  0
   42.2410   28.6320   36.8640 H   0  0  0  0  0  0  0  0  0  0  0  0
   43.1000   32.7280   38.4280 H   0  0  0  0  0  0  0  0  0  0  0  0
   43.3040   33.5180   36.7900 H   0  0  0  0  0  0  0  0  0  0  0  0
   37.3050   25.1710   41.2440 O   0  0  0  0  0  0  0  0  0  0  0  0
   38.4140   24.3570   41.5530 C   0  0  0  0  0  0  0  0  0  0  0  0
   38.2920   23.0950   41.0260 F   0  0  0  0  0  0  0  0  0  0  0  0
   39.5470   25.0270   41.0580 F   0  0  0  0  0  0  0  0  0  0  0  0
   38.4940   24.2570   42.9330 F   0  0  0  0  0  0  0  0  0  0  0  0
  1  6  2  0  0  0  0
  1  2  1  0  0  0  0
  2 12  1  0  0  0  0
  2  3  2  0  0  0  0
  3  4  1  0  0  0  0
  3  7  1  0  0  0  0
  5 33  1  0  0  0  0
  5  4  2  0  0  0  0
  6  5  1  0  0  0  0
  7  8  1  0  0  0  0
  7  9  1  0  0  0  0
 11 12  1  0  0  0  0
 11 10  2  0  0  0  0
 12 16  1  0  0  0  0
 13 11  1  0  0  0  0
 13 14  1  0  0  0  0
 15 10  1  0  0  0  0
 17 13  1  0  0  0  0
 18  1  1  0  0  0  0
 19 20  1  0  0  0  0
 20 21  2  0  0  0  0
 20 18  1  0  0  0  0
 21 29  1  0  0  0  0
 22 21  1  0  0  0  0
 23 22  2  0  0  0  0
 24 23  1  0  0  0  0
 24 19  2  0  0  0  0
 25 23  1  0  0  0  0
 25 26  1  0  0  0  0
 26 27  1  0  0  0  0
 26 31  1  0  0  0  0
 27 22  1  0  0  0  0
 28 19  1  0  0  0  0
 30 24  1  0  0  0  0
 32 26  1  0  0  0  0
 33 34  1  0  0  0  0
 34 37  1  0  0  0  0
 35 34  1  0  0  0  0
 36 34  1  0  0  0  0
M  END
>  <minimizedAffinity>
-6.22567272

$$$$

 OpenBabel03242515443D

 37 39  0  0  0  0  0  0  0  0999 V2000
   36.6490   30.1980   39.3780 C   0  0  0  0  0  0  0  0  0  0  0  0
   37.6470   30.9690   38.8930 C   0  0  0  0  0  0  0  0  0  0  0  0
   37.7670   31.0460   37.4900 C   0  0  0  0  0  0  0  0  0  0  0  0
   36.9040   30.3620   36.7010 N   0  0  0  0  0  0  0  0  0  0  0  0
   35.9270   29.6070   37.2320 C   0  0  0  0  0  0  0  0  0  0  0  0
   35.8450   29.5610   38.5530 N   0  0  0  0  0  0  0  0  0  0  0  0
   38.7670   31.8400   36.8540 N   0  0  0  0  0  0  0  0  0  0  0  0
   39.7040   31.3630   36.7940 H   0  0  0  0  0  0  0  0  0  0  0  0
   38.5240   32.7990   36.5030 H   0  0  0  0  0  0  0  0  0  0  0  0
   36.9870   33.4240   39.8280 N   0  0  0  0  0  0  0  0  0  0  0  0
   38.2420   33.1100   39.7350 C   0  0  0  0  0  0  0  0  0  0  0  0
   38.6460   31.7360   39.5120 N   0  0  0  0  0  0  0  0  0  0  0  0
   39.2270   34.1570   39.8590 N   0  0  0  0  0  0  0  0  0  0  0  0
   39.9600   33.9170   40.5630 H   0  0  0  0  0  0  0  0  0  0  0  0
   36.7190   34.4070   39.9870 H   0  0  0  0  0  0  0  0  0  0  0  0
   39.6100   31.5860   39.8730 H   0  0  0  0  0  0  0  0  0  0  0  0
   39.2050   35.0460   39.3080 H   0  0  0  0  0  0  0  0  0  0  0  0
   36.5360   30.1460   41.1870 S   0  0  0  0  0  0  0  0  0  0  0  0
   38.5410   29.0720   42.5860 C   0  0  0  0  0  0  0  0  0  0  0  0
   37.4110   28.7340   41.8280 C   0  0  0  0  0  0  0  0  0  0  0  0
   37.0400   27.4080   41.6410 C   0  0  0  0  0  0  0  0  0  0  0  0
   37.7750   26.3960   42.1960 C   0  0  0  0  0  0  0  0  0  0  0  0
   38.9040   26.7160   42.9550 C   0  0  0  0  0  0  0  0  0  0  0  0
   39.2960   28.0340   43.1560 C   0  0  0  0  0  0  0  0  0  0  0  0
   39.4700   25.4980   43.4050 O   0  0  0  0  0  0  0  0  0  0  0  0
   38.8900   24.4960   42.6390 C   0  0  0  0  0  0  0  0  0  0  0  0
   37.6590   25.0150   42.1880 O   0  0  0  0  0  0  0  0  0  0  0  0
   38.8720   30.0830   42.7620 H   0  0  0  0  0  0  0  0  0  0  0  0
   36.1690   27.2360   41.0510 H   0  0  0  0  0  0  0  0  0  0  0  0
   40.1660   28.3030   43.7390 H   0  0  0  0  0  0  0  0  0  0  0  0
   39.5230   24.3730   41.7140 H   0  0  0  0  0  0  0  0  0  0  0  0
   38.7960   23.5280   43.1650 H   0  0  0  0  0  0  0  0  0  0  0  0
   34.9990   28.8710   36.5290 O   0  0  0  0  0  0  0  0  0  0  0  0
   35.0420   27.4680   36.6580 C   0  0  0  0  0  0  0  0  0  0  0  0
   34.4070   27.0330   37.7950 F   0  0  0  0  0  0  0  0  0  0  0  0
   34.4540   26.9460   35.4920 F   0  0  0  0  0  0  0  0  0  0  0  0
   36.3740   27.0910   36.7210 F   0  0  0  0  0  0  0  0  0  0  0  0
  1 18  1  0  0  0  0
  2  1  1  0  0  0  0
  2 12  1  0  0  0  0
  3  2  2  0  0  0  0
  4  5  2  0  0  0  0
  4  3  1  0  0  0  0
  5  6  1  0  0  0  0
  6  1  2  0  0  0  0
  7  3  1  0  0  0  0
  8  7  1  0  0  0  0
  9  7  1  0  0  0  0
 10 15  1  0  0  0  0
 11 10  2  0  0  0  0
 11 13  1  0  0  0  0
 12 11  1  0  0  0  0
 12 16  1  0  0  0  0
 13 14  1  0  0  0  0
 17 13  1  0  0  0  0
 18 20  1  0  0  0  0
 19 28  1  0  0  0  0
 19 24  1  0  0  0  0
 20 19  2  0  0  0  0
 21 20  1  0  0  0  0
 21 22  2  0  0  0  0
 22 23  1  0  0  0  0
 23 24  2  0  0  0  0
 23 25  1  0  0  0  0
 24 30  1  0  0  0  0
 26 32  1  0  0  0  0
 26 25  1  0  0  0  0
 27 22  1  0  0  0  0
 27 26  1  0  0  0  0
 29 21  1  0  0  0  0
 31 26  1  0  0  0  0
 33 34  1  0  0  0  0
 33  5  1  0  0  0  0
 34 37  1  0  0  0  0
 34 35  1  0  0  0  0
 36 34  1  0  0  0  0
M  END
>  <minimizedAffinity>
-6.04124165

$$$$

 OpenBabel03242515443D

 37 39  0  0  0  0  0  0  0  0999 V2000
   39.9890   31.8460   40.2100 C   0  0  0  0  0  0  0  0  0  0  0  0
   39.0040   31.3150   39.4540 C   0  0  0  0  0  0  0  0  0  0  0  0
   39.1340   31.4440   38.0560 C   0  0  0  0  0  0  0  0  0  0  0  0
   40.2100   32.0800   37.5350 N   0  0  0  0  0  0  0  0  0  0  0  0
   41.1660   32.5930   38.3290 C   0  0  0  0  0  0  0  0  0  0  0  0
   41.0090   32.4510   39.6370 N   0  0  0  0  0  0  0  0  0  0  0  0
   38.1710   30.9100   37.1490 N   0  0  0  0  0  0  0  0  0  0  0  0
   37.3330   31.5340   37.0150 H   0  0  0  0  0  0  0  0  0  0  0  0
   38.3440   29.9790   36.6950 H   0  0  0  0  0  0  0  0  0  0  0  0
   36.8410   32.7900   40.1480 N   0  0  0  0  0  0  0  0  0  0  0  0
   36.8190   31.5120   40.3700 C   0  0  0  0  0  0  0  0  0  0  0  0
   37.8150   30.6420   39.7750 N   0  0  0  0  0  0  0  0  0  0  0  0
   35.7850   30.9760   41.2200 N   0  0  0  0  0  0  0  0  0  0  0  0
   35.2870   30.1770   40.7660 H   0  0  0  0  0  0  0  0  0  0  0  0
   36.1250   33.3930   40.5810 H   0  0  0  0  0  0  0  0  0  0  0  0
   37.4370   29.6770   39.6900 H   0  0  0  0  0  0  0  0  0  0  0  0
   35.5650   31.3440   42.1740 H   0  0  0  0  0  0  0  0  0  0  0  0
   39.7750   31.6410   41.9980 S   0  0  0  0  0  0  0  0  0  0  0  0
   41.5390   29.7260   42.5930 C   0  0  0  0  0  0  0  0  0  0  0  0
   40.1620   29.9730   42.4870 C   0  0  0  0  0  0  0  0  0  0  0  0
   39.2290   28.9820   42.7680 C   0  0  0  0  0  0  0  0  0  0  0  0
   39.6360   27.7350   43.1560 C   0  0  0  0  0  0  0  0  0  0  0  0
   41.0050   27.4720   43.2660 C   0  0  0  0  0  0  0  0  0  0  0  0
   41.9570   28.4450   42.9900 C   0  0  0  0  0  0  0  0  0  0  0  0
   41.1440   26.1230   43.6790 O   0  0  0  0  0  0  0  0  0  0  0  0
   39.9080   25.5260   43.4730 C   0  0  0  0  0  0  0  0  0  0  0  0
   38.9620   26.5720   43.4950 O   0  0  0  0  0  0  0  0  0  0  0  0
   42.3030   30.4580   42.3870 H   0  0  0  0  0  0  0  0  0  0  0  0
   38.2040   29.2510   42.6620 H   0  0  0  0  0  0  0  0  0  0  0  0
   43.0200   28.2630   43.0690 H   0  0  0  0  0  0  0  0  0  0  0  0
   39.8980   25.1330   42.4160 H   0  0  0  0  0  0  0  0  0  0  0  0
   39.6810   24.7100   44.1810 H   0  0  0  0  0  0  0  0  0  0  0  0
   42.2970   33.2580   37.9120 O   0  0  0  0  0  0  0  0  0  0  0  0
   43.5250   32.5690   37.9820 C   0  0  0  0  0  0  0  0  0  0  0  0
   44.4240   33.0190   37.0480 F   0  0  0  0  0  0  0  0  0  0  0  0
   43.9990   32.7400   39.2960 F   0  0  0  0  0  0  0  0  0  0  0  0
   43.2710   31.2280   37.7450 F   0  0  0  0  0  0  0  0  0  0  0  0
  1 18  1  0  0  0  0
  2 12  1  0  0  0  0
  2  1  2  0  0  0  0
  3  2  1  0  0  0  0
  4  3  2  0  0  0  0
  4  5  1  0  0  0  0
  5  6  2  0  0  0  0
  6  1  1  0  0  0  0
  7  3  1  0  0  0  0
  8  7  1  0  0  0  0
  9  7  1  0  0  0  0
 10 11  2  0  0  0  0
 10 15  1  0  0  0  0
 11 13  1  0  0  0  0
 12 11  1  0  0  0  0
 13 17  1  0  0  0  0
 14 13  1  0  0  0  0
 16 12  1  0  0  0  0
 18 20  1  0  0  0  0
 19 24  1  0  0  0  0
 20 19  2  0  0  0  0
 20 21  1  0  0  0  0
 21 22  2  0  0  0  0
 22 23  1  0  0  0  0
 22 27  1  0  0  0  0
 23 25  1  0  0  0  0
 24 30  1  0  0  0  0
 24 23  2  0  0  0  0
 26 27  1  0  0  0  0
 26 25  1  0  0  0  0
 26 32  1  0  0  0  0
 28 19  1  0  0  0  0
 29 21  1  0  0  0  0
 31 26  1  0  0  0  0
 33 34  1  0  0  0  0
 33  5  1  0  0  0  0
 34 36  1  0  0  0  0
 35 34  1  0  0  0  0
 37 34  1  0  0  0  0
M  END
>  <minimizedAffinity>
-5.98383236

$$$$

 OpenBabel03242515443D

 37 39  0  0  0  0  0  0  0  0999 V2000
   37.6380   28.1680   39.9990 C   0  0  0  0  0  0  0  0  0  0  0  0
   37.6580   29.0100   41.0560 C   0  0  0  0  0  0  0  0  0  0  0  0
   37.3900   28.4490   42.3220 C   0  0  0  0  0  0  0  0  0  0  0  0
   37.1260   27.1250   42.4300 N   0  0  0  0  0  0  0  0  0  0  0  0
   37.1170   26.3270   41.3480 C   0  0  0  0  0  0  0  0  0  0  0  0
   37.3750   26.8900   40.1770 N   0  0  0  0  0  0  0  0  0  0  0  0
   37.3990   29.2270   43.5180 N   0  0  0  0  0  0  0  0  0  0  0  0
   36.4980   29.7480   43.6840 H   0  0  0  0  0  0  0  0  0  0  0  0
   38.2540   29.2350   44.1260 H   0  0  0  0  0  0  0  0  0  0  0  0
   35.5150   30.6660   41.0830 N   0  0  0  0  0  0  0  0  0  0  0  0
   36.6950   31.1780   40.9190 C   0  0  0  0  0  0  0  0  0  0  0  0
   37.8850   30.3900   41.1720 N   0  0  0  0  0  0  0  0  0  0  0  0
   36.7980   32.5480   40.4790 N   0  0  0  0  0  0  0  0  0  0  0  0
   37.4310   33.1060   41.0960 H   0  0  0  0  0  0  0  0  0  0  0  0
   34.6800   31.2430   40.8970 H   0  0  0  0  0  0  0  0  0  0  0  0
   38.6820   31.0150   41.4050 H   0  0  0  0  0  0  0  0  0  0  0  0
   36.2990   32.9320   39.6430 H   0  0  0  0  0  0  0  0  0  0  0  0
   38.0000   28.9430   38.4010 S   0  0  0  0  0  0  0  0  0  0  0  0
   37.9440   26.8720   36.7150 C   0  0  0  0  0  0  0  0  0  0  0  0
   37.2380   28.0290   37.0760 C   0  0  0  0  0  0  0  0  0  0  0  0
   36.0510   28.3740   36.4420 C   0  0  0  0  0  0  0  0  0  0  0  0
   35.5410   27.5880   35.4450 C   0  0  0  0  0  0  0  0  0  0  0  0
   36.2330   26.4310   35.0740 C   0  0  0  0  0  0  0  0  0  0  0  0
   37.4220   26.0650   35.6910 C   0  0  0  0  0  0  0  0  0  0  0  0
   35.4940   25.8140   34.0340 O   0  0  0  0  0  0  0  0  0  0  0  0
   34.5930   26.7670   33.5800 C   0  0  0  0  0  0  0  0  0  0  0  0
   34.4090   27.6680   34.6490 O   0  0  0  0  0  0  0  0  0  0  0  0
   38.8680   26.5580   37.1740 H   0  0  0  0  0  0  0  0  0  0  0  0
   35.5770   29.2690   36.7750 H   0  0  0  0  0  0  0  0  0  0  0  0
   37.9720   25.1750   35.4190 H   0  0  0  0  0  0  0  0  0  0  0  0
   35.1110   27.3590   32.7720 H   0  0  0  0  0  0  0  0  0  0  0  0
   33.6500   26.3420   33.1920 H   0  0  0  0  0  0  0  0  0  0  0  0
   36.8620   24.9740   41.3390 O   0  0  0  0  0  0  0  0  0  0  0  0
   37.9400   24.1030   41.5980 C   0  0  0  0  0  0  0  0  0  0  0  0
   38.2840   24.0860   42.9270 F   0  0  0  0  0  0  0  0  0  0  0  0
   37.5420   22.8350   41.1390 F   0  0  0  0  0  0  0  0  0  0  0  0
   39.0280   24.5480   40.8640 F   0  0  0  0  0  0  0  0  0  0  0  0
  1  6  2  0  0  0  0
  1  2  1  0  0  0  0
  2 12  1  0  0  0  0
  2  3  2  0  0  0  0
  3  4  1  0  0  0  0
  3  7  1  0  0  0  0
  5  4  2  0  0  0  0
  6  5  1  0  0  0  0
  7  8  1  0  0  0  0
  7  9  1  0  0  0  0
 11 10  2  0  0  0  0
 11 12  1  0  0  0  0
 12 16  1  0  0  0  0
 13 11  1  0  0  0  0
 13 14  1  0  0  0  0
 15 10  1  0  0  0  0
 17 13  1  0  0  0  0
 18  1  1  0  0  0  0
 19 20  1  0  0  0  0
 19 28  1  0  0  0  0
 20 18  1  0  0  0  0
 21 29  1  0  0  0  0
 21 20  2  0  0  0  0
 22 21  1  0  0  0  0
 23 22  2  0  0  0  0
 23 24  1  0  0  0  0
 24 19  2  0  0  0  0
 25 23  1  0  0  0  0
 26 25  1  0  0  0  0
 26 27  1  0  0  0  0
 27 22  1  0  0  0  0
 30 24  1  0  0  0  0
 31 26  1  0  0  0  0
 32 26  1  0  0  0  0
 33  5  1  0  0  0  0
 33 34  1  0  0  0  0
 34 35  1  0  0  0  0
 36 34  1  0  0  0  0
 37 34  1  0  0  0  0
M  END
>  <minimizedAffinity>
-5.86674404

$$$$

 OpenBabel03242515443D

 37 39  0  0  0  0  0  0  0  0999 V2000
   37.7310   28.1600   40.0130 C   0  0  0  0  0  0  0  0  0  0  0  0
   37.6490   28.9830   41.0820 C   0  0  0  0  0  0  0  0  0  0  0  0
   37.2750   28.3960   42.3080 C   0  0  0  0  0  0  0  0  0  0  0  0
   37.0160   27.0680   42.3700 N   0  0  0  0  0  0  0  0  0  0  0  0
   37.1110   26.2910   41.2770 C   0  0  0  0  0  0  0  0  0  0  0  0
   37.4670   26.8770   40.1440 N   0  0  0  0  0  0  0  0  0  0  0  0
   37.1700   29.1530   43.5140 N   0  0  0  0  0  0  0  0  0  0  0  0
   36.2530   29.6640   43.6080 H   0  0  0  0  0  0  0  0  0  0  0  0
   37.9670   29.1570   44.1960 H   0  0  0  0  0  0  0  0  0  0  0  0
   35.4910   30.6160   40.9840 N   0  0  0  0  0  0  0  0  0  0  0  0
   36.6740   31.1440   40.9170 C   0  0  0  0  0  0  0  0  0  0  0  0
   37.8510   30.3620   41.2410 N   0  0  0  0  0  0  0  0  0  0  0  0
   36.7940   32.5230   40.5130 N   0  0  0  0  0  0  0  0  0  0  0  0
   37.3730   33.0740   41.1860 H   0  0  0  0  0  0  0  0  0  0  0  0
   34.6660   31.1890   40.7500 H   0  0  0  0  0  0  0  0  0  0  0  0
   38.6220   30.9900   41.5450 H   0  0  0  0  0  0  0  0  0  0  0  0
   36.3520   32.9190   39.6510 H   0  0  0  0  0  0  0  0  0  0  0  0
   38.2270   28.9660   38.4670 S   0  0  0  0  0  0  0  0  0  0  0  0
   40.7490   29.0800   39.3380 C   0  0  0  0  0  0  0  0  0  0  0  0
   39.9790   28.7880   38.2030 C   0  0  0  0  0  0  0  0  0  0  0  0
   40.5740   28.3820   37.0140 C   0  0  0  0  0  0  0  0  0  0  0  0
   41.9340   28.2580   36.9250 C   0  0  0  0  0  0  0  0  0  0  0  0
   42.7160   28.5460   38.0470 C   0  0  0  0  0  0  0  0  0  0  0  0
   42.1460   28.9540   39.2460 C   0  0  0  0  0  0  0  0  0  0  0  0
   44.0700   28.3390   37.6830 O   0  0  0  0  0  0  0  0  0  0  0  0
   44.0920   28.2750   36.2960 C   0  0  0  0  0  0  0  0  0  0  0  0
   42.7950   27.8840   35.9040 O   0  0  0  0  0  0  0  0  0  0  0  0
   40.3390   29.3980   40.2830 H   0  0  0  0  0  0  0  0  0  0  0  0
   39.9180   28.1810   36.1990 H   0  0  0  0  0  0  0  0  0  0  0  0
   42.7320   29.1810   40.1250 H   0  0  0  0  0  0  0  0  0  0  0  0
   44.2180   29.3280   35.9150 H   0  0  0  0  0  0  0  0  0  0  0  0
   44.8900   27.6270   35.8910 H   0  0  0  0  0  0  0  0  0  0  0  0
   36.8710   24.9360   41.2230 O   0  0  0  0  0  0  0  0  0  0  0  0
   37.9480   24.0690   41.4980 C   0  0  0  0  0  0  0  0  0  0  0  0
   39.1100   24.4790   40.8920 F   0  0  0  0  0  0  0  0  0  0  0  0
   38.0710   24.0230   42.8980 F   0  0  0  0  0  0  0  0  0  0  0  0
   37.6130   22.8140   41.0140 F   0  0  0  0  0  0  0  0  0  0  0  0
  1  6  2  0  0  0  0
  1  2  1  0  0  0  0
  2 12  1  0  0  0  0
  2  3  2  0  0  0  0
  3  4  1  0  0  0  0
  3  7  1  0  0  0  0
  5  4  2  0  0  0  0
  6  5  1  0  0  0  0
  7  8  1  0  0  0  0
  7  9  1  0  0  0  0
 11 10  2  0  0  0  0
 11 12  1  0  0  0  0
 12 16  1  0  0  0  0
 13 11  1  0  0  0  0
 13 14  1  0  0  0  0
 15 10  1  0  0  0  0
 17 13  1  0  0  0  0
 18  1  1  0  0  0  0
 19 28  1  0  0  0  0
 20 18  1  0  0  0  0
 20 19  2  0  0  0  0
 21 20  1  0  0  0  0
 22 21  2  0  0  0  0
 22 23  1  0  0  0  0
 23 24  2  0  0  0  0
 24 19  1  0  0  0  0
 24 30  1  0  0  0  0
 25 23  1  0  0  0  0
 26 25  1  0  0  0  0
 27 26  1  0  0  0  0
 27 22  1  0  0  0  0
 29 21  1  0  0  0  0
 31 26  1  0  0  0  0
 32 26  1  0  0  0  0
 33  5  1  0  0  0  0
 33 34  1  0  0  0  0
 34 36  1  0  0  0  0
 35 34  1  0  0  0  0
 37 34  1  0  0  0  0
M  END
>  <minimizedAffinity>
-5.84136724

$$$$

 OpenBabel03242515443D

 37 39  0  0  0  0  0  0  0  0999 V2000
   38.6500   29.7810   39.6840 C   0  0  0  0  0  0  0  0  0  0  0  0
   39.0800   30.7880   40.4760 C   0  0  0  0  0  0  0  0  0  0  0  0
   39.3440   30.4690   41.8240 C   0  0  0  0  0  0  0  0  0  0  0  0
   39.1610   29.2020   42.2660 N   0  0  0  0  0  0  0  0  0  0  0  0
   38.7310   28.2330   41.4380 C   0  0  0  0  0  0  0  0  0  0  0  0
   38.4950   28.5700   40.1800 N   0  0  0  0  0  0  0  0  0  0  0  0
   39.8200   31.4390   42.7570 N   0  0  0  0  0  0  0  0  0  0  0  0
   39.0540   32.0350   43.1660 H   0  0  0  0  0  0  0  0  0  0  0  0
   40.8460   31.4980   42.9680 H   0  0  0  0  0  0  0  0  0  0  0  0
   36.9890   32.5020   40.6300 N   0  0  0  0  0  0  0  0  0  0  0  0
   38.0970   32.9180   40.0990 C   0  0  0  0  0  0  0  0  0  0  0  0
   39.3180   32.1500   40.2400 N   0  0  0  0  0  0  0  0  0  0  0  0
   38.0870   34.1600   39.3650 N   0  0  0  0  0  0  0  0  0  0  0  0
   38.8400   34.8070   39.6900 H   0  0  0  0  0  0  0  0  0  0  0  0
   36.1300   33.0620   40.5180 H   0  0  0  0  0  0  0  0  0  0  0  0
   40.1440   32.7770   40.1500 H   0  0  0  0  0  0  0  0  0  0  0  0
   37.4070   34.3810   38.6010 H   0  0  0  0  0  0  0  0  0  0  0  0
   38.3380   30.2460   37.9600 S   0  0  0  0  0  0  0  0  0  0  0  0
   35.8340   29.4910   38.5020 C   0  0  0  0  0  0  0  0  0  0  0  0
   36.7310   29.6800   37.4410 C   0  0  0  0  0  0  0  0  0  0  0  0
   36.3480   29.4520   36.1250 C   0  0  0  0  0  0  0  0  0  0  0  0
   35.0780   29.0350   35.8340 C   0  0  0  0  0  0  0  0  0  0  0  0
   34.1700   28.8420   36.8810 C   0  0  0  0  0  0  0  0  0  0  0  0
   34.5300   29.0630   38.2040 C   0  0  0  0  0  0  0  0  0  0  0  0
   32.9470   28.4160   36.3060 O   0  0  0  0  0  0  0  0  0  0  0  0
   33.2430   28.0370   35.0040 C   0  0  0  0  0  0  0  0  0  0  0  0
   34.4170   28.7330   34.6530 O   0  0  0  0  0  0  0  0  0  0  0  0
   36.0800   29.6540   39.5400 H   0  0  0  0  0  0  0  0  0  0  0  0
   37.0900   29.6170   35.3780 H   0  0  0  0  0  0  0  0  0  0  0  0
   33.8450   28.9190   39.0280 H   0  0  0  0  0  0  0  0  0  0  0  0
   33.5340   26.9480   35.0310 H   0  0  0  0  0  0  0  0  0  0  0  0
   32.4100   28.1880   34.2940 H   0  0  0  0  0  0  0  0  0  0  0  0
   38.5100   26.9170   41.7770 O   0  0  0  0  0  0  0  0  0  0  0  0
   37.1730   26.4810   41.8690 C   0  0  0  0  0  0  0  0  0  0  0  0
   37.0600   25.3010   42.5620 F   0  0  0  0  0  0  0  0  0  0  0  0
   36.4580   27.5250   42.4830 F   0  0  0  0  0  0  0  0  0  0  0  0
   36.7030   26.2850   40.5800 F   0  0  0  0  0  0  0  0  0  0  0  0
  1  6  2  0  0  0  0
  1  2  1  0  0  0  0
  2  3  2  0  0  0  0
  3  4  1  0  0  0  0
  3  7  1  0  0  0  0
  5 33  1  0  0  0  0
  5  4  2  0  0  0  0
  6  5  1  0  0  0  0
  7  9  1  0  0  0  0
  7  8  1  0  0  0  0
 11 12  1  0  0  0  0
 11 10  2  0  0  0  0
 12  2  1  0  0  0  0
 13 14  1  0  0  0  0
 13 11  1  0  0  0  0
 15 10  1  0  0  0  0
 16 12  1  0  0  0  0
 17 13  1  0  0  0  0
 18  1  1  0  0  0  0
 19 28  1  0  0  0  0
 20 18  1  0  0  0  0
 20 19  2  0  0  0  0
 21 20  1  0  0  0  0
 22 21  2  0  0  0  0
 22 23  1  0  0  0  0
 23 24  2  0  0  0  0
 24 19  1  0  0  0  0
 24 30  1  0  0  0  0
 25 23  1  0  0  0  0
 26 31  1  0  0  0  0
 26 25  1  0  0  0  0
 27 26  1  0  0  0  0
 27 22  1  0  0  0  0
 29 21  1  0  0  0  0
 32 26  1  0  0  0  0
 33 34  1  0  0  0  0
 34 36  1  0  0  0  0
 34 35  1  0  0  0  0
 37 34  1  0  0  0  0
M  END
>  <minimizedAffinity>
-5.7880373

$$$$

 OpenBabel03242515443D

 37 39  0  0  0  0  0  0  0  0999 V2000
   39.4600   30.6190   39.8580 C   0  0  0  0  0  0  0  0  0  0  0  0
   39.6340   31.9170   39.5250 C   0  0  0  0  0  0  0  0  0  0  0  0
   38.5190   32.7670   39.6740 C   0  0  0  0  0  0  0  0  0  0  0  0
   37.3460   32.2670   40.1290 N   0  0  0  0  0  0  0  0  0  0  0  0
   37.2220   30.9670   40.4470 C   0  0  0  0  0  0  0  0  0  0  0  0
   38.2910   30.2000   40.2960 N   0  0  0  0  0  0  0  0  0  0  0  0
   38.5780   34.1610   39.3740 N   0  0  0  0  0  0  0  0  0  0  0  0
   38.4600   34.3730   38.3480 H   0  0  0  0  0  0  0  0  0  0  0  0
   38.7280   34.8540   40.1480 H   0  0  0  0  0  0  0  0  0  0  0  0
   39.7870   32.3390   36.8540 N   0  0  0  0  0  0  0  0  0  0  0  0
   40.8350   32.5730   37.5820 C   0  0  0  0  0  0  0  0  0  0  0  0
   40.7330   32.6350   39.0270 N   0  0  0  0  0  0  0  0  0  0  0  0
   42.1030   32.7720   36.9240 N   0  0  0  0  0  0  0  0  0  0  0  0
   42.5720   33.6480   37.2440 H   0  0  0  0  0  0  0  0  0  0  0  0
   39.8800   32.2990   35.8280 H   0  0  0  0  0  0  0  0  0  0  0  0
   41.5010   33.2200   39.4130 H   0  0  0  0  0  0  0  0  0  0  0  0
   42.5000   32.1150   36.2130 H   0  0  0  0  0  0  0  0  0  0  0  0
   40.9300   29.5770   39.6580 S   0  0  0  0  0  0  0  0  0  0  0  0
   40.6150   26.9300   39.4940 C   0  0  0  0  0  0  0  0  0  0  0  0
   40.6760   27.9860   40.4150 C   0  0  0  0  0  0  0  0  0  0  0  0
   40.5630   27.7570   41.7810 C   0  0  0  0  0  0  0  0  0  0  0  0
   40.3890   26.4870   42.2600 C   0  0  0  0  0  0  0  0  0  0  0  0
   40.3260   25.4230   41.3550 C   0  0  0  0  0  0  0  0  0  0  0  0
   40.4350   25.6260   39.9850 C   0  0  0  0  0  0  0  0  0  0  0  0
   40.1430   24.2370   42.1090 O   0  0  0  0  0  0  0  0  0  0  0  0
   39.7610   24.6420   43.3800 C   0  0  0  0  0  0  0  0  0  0  0  0
   40.2490   25.9560   43.5330 O   0  0  0  0  0  0  0  0  0  0  0  0
   40.6960   27.0530   38.4260 H   0  0  0  0  0  0  0  0  0  0  0  0
   40.6190   28.6120   42.4130 H   0  0  0  0  0  0  0  0  0  0  0  0
   40.3890   24.8190   39.2680 H   0  0  0  0  0  0  0  0  0  0  0  0
   38.6370   24.7360   43.3780 H   0  0  0  0  0  0  0  0  0  0  0  0
   40.0810   23.9550   44.1840 H   0  0  0  0  0  0  0  0  0  0  0  0
   36.0830   30.3520   40.9160 O   0  0  0  0  0  0  0  0  0  0  0  0
   35.4830   29.3730   40.0970 C   0  0  0  0  0  0  0  0  0  0  0  0
   34.1560   29.1900   40.3980 F   0  0  0  0  0  0  0  0  0  0  0  0
   35.6690   29.8010   38.7700 F   0  0  0  0  0  0  0  0  0  0  0  0
   36.1550   28.1790   40.3040 F   0  0  0  0  0  0  0  0  0  0  0  0
  1  6  1  0  0  0  0
  2  3  1  0  0  0  0
  2  1  2  0  0  0  0
  3  4  2  0  0  0  0
  4  5  1  0  0  0  0
  5 33  1  0  0  0  0
  6  5  2  0  0  0  0
  7  3  1  0  0  0  0
  7  9  1  0  0  0  0
  8  7  1  0  0  0  0
 10 11  2  0  0  0  0
 11 12  1  0  0  0  0
 12 16  1  0  0  0  0
 12  2  1  0  0  0  0
 13 14  1  0  0  0  0
 13 11  1  0  0  0  0
 15 10  1  0  0  0  0
 17 13  1  0  0  0  0
 18  1  1  0  0  0  0
 18 20  1  0  0  0  0
 19 24  2  0  0  0  0
 19 20  1  0  0  0  0
 20 21  2  0  0  0  0
 21 22  1  0  0  0  0
 21 29  1  0  0  0  0
 22 27  1  0  0  0  0
 23 25  1  0  0  0  0
 23 22  2  0  0  0  0
 24 23  1  0  0  0  0
 25 26  1  0  0  0  0
 26 27  1  0  0  0  0
 26 32  1  0  0  0  0
 28 19  1  0  0  0  0
 30 24  1  0  0  0  0
 31 26  1  0  0  0  0
 34 37  1  0  0  0  0
 34 35  1  0  0  0  0
 34 33  1  0  0  0  0
 36 34  1  0  0  0  0
M  END
>  <minimizedAffinity>
-5.64468431

$$$$
