
 OpenBabel03252509333D

 39 40  0  0  1  0  0  0  0  0999 V2000
   45.0850   34.3630   42.6800 C   0  0  1  0  0  0  0  0  0  0  0  0
   44.2010   35.4600   42.1540 C   0  0  0  0  0  0  0  0  0  0  0  0
   43.8270   34.9150   40.7970 C   0  0  0  0  0  0  0  0  0  0  0  0
   45.0170   34.0660   40.3630 C   0  0  0  0  0  0  0  0  0  0  0  0
   46.0280   34.1670   41.4920 C   0  0  1  0  0  0  0  0  0  0  0  0
   44.5470   33.4230   42.8210 H   0  0  0  0  0  0  0  0  0  0  0  0
   43.3370   35.6950   42.7810 H   0  0  0  0  0  0  0  0  0  0  0  0
   44.7960   36.3860   42.0380 H   0  0  0  0  0  0  0  0  0  0  0  0
   42.9790   34.2010   40.9960 H   0  0  0  0  0  0  0  0  0  0  0  0
   43.5570   35.6810   40.0570 H   0  0  0  0  0  0  0  0  0  0  0  0
   45.4590   34.6040   39.4910 H   0  0  0  0  0  0  0  0  0  0  0  0
   44.7350   33.0180   40.1370 H   0  0  0  0  0  0  0  0  0  0  0  0
   46.4510   33.1510   41.6040 H   0  0  0  0  0  0  0  0  0  0  0  0
   48.5840   33.6320   40.3850 N   0  0  0  0  0  0  0  0  0  0  0  0
   48.2170   34.8290   40.6980 C   0  0  0  0  0  0  0  0  0  0  0  0
   46.9920   35.1990   41.3390 N   0  0  0  0  0  0  0  0  0  0  0  0
   49.1570   35.8550   40.3540 N   0  0  0  0  0  0  0  0  0  0  0  0
   49.3130   36.8070   39.9680 H   0  0  0  0  0  0  0  0  0  0  0  0
   47.9410   32.8420   40.6100 H   0  0  0  0  0  0  0  0  0  0  0  0
   46.8170   36.1550   41.6710 H   0  0  0  0  0  0  0  0  0  0  0  0
   50.1820   35.7180   40.5080 H   0  0  0  0  0  0  0  0  0  0  0  0
   45.8110   34.7270   43.8140 O   0  0  0  0  0  0  0  0  0  0  0  0
   45.0860   34.0290   46.2090 O   0  0  0  0  0  0  0  0  0  0  0  0
   45.7030   33.4950   44.9570 P   0  0  1  0  0  0  0  0  0  0  0  0
   44.8920   32.1560   44.3550 O   0  0  0  0  0  0  0  0  0  0  0  0
   44.4090   32.3690   43.5180 H   0  0  0  0  0  0  0  0  0  0  0  0
   47.2820   32.9690   45.2870 O   0  0  0  0  0  0  0  0  0  0  0  0
   47.2460   31.6180   45.5010 C   0  0  0  0  0  0  0  0  0  0  0  0
   48.3310   31.2980   45.5140 H   0  0  0  0  0  0  0  0  0  0  0  0
   46.7740   30.9860   44.7660 H   0  0  0  0  0  0  0  0  0  0  0  0
   46.9250   31.3690   49.1960 C   0  0  0  0  0  0  0  0  0  0  0  0
   47.4360   31.7130   47.9400 C   0  0  0  0  0  0  0  0  0  0  0  0
   46.7320   31.2710   46.8210 C   0  0  0  0  0  0  0  0  0  0  0  0
   45.5940   30.5360   47.0240 N   0  0  0  0  0  0  0  0  0  0  0  0
   45.1310   30.2230   48.2460 C   0  0  0  0  0  0  0  0  0  0  0  0
   45.8090   30.6480   49.3270 N   0  0  0  0  0  0  0  0  0  0  0  0
   47.5290   31.7490   50.0280 H   0  0  0  0  0  0  0  0  0  0  0  0
   48.3360   32.2940   47.8010 H   0  0  0  0  0  0  0  0  0  0  0  0
   44.2280   29.6400   48.3780 H   0  0  0  0  0  0  0  0  0  0  0  0
  1  6  1  1  0  0  0
  1 22  1  0  0  0  0
  2  1  1  0  0  0  0
  2  7  1  0  0  0  0
  3  9  1  0  0  0  0
  3  2  1  0  0  0  0
  4  3  1  0  0  0  0
  4  5  1  0  0  0  0
  5 13  1  1  0  0  0
  5  1  1  0  0  0  0
  8  2  1  0  0  0  0
 10  3  1  0  0  0  0
 11  4  1  0  0  0  0
 12  4  1  0  0  0  0
 14 19  1  0  0  0  0
 14 15  2  0  0  0  0
 15 16  1  0  0  0  0
 16  5  1  0  0  0  0
 16 20  1  0  0  0  0
 17 21  1  0  0  0  0
 17 15  1  0  0  0  0
 18 17  1  0  0  0  0
 22 24  1  0  0  0  0
 24 27  1  0  0  0  0
 24 23  2  1  0  0  0
 25 24  1  0  0  0  0
 26 25  1  0  0  0  0
 27 28  1  0  0  0  0
 28 29  1  0  0  0  0
 28 33  1  0  0  0  0
 30 28  1  0  0  0  0
 31 36  1  0  0  0  0
 31 37  1  0  0  0  0
 32 31  2  0  0  0  0
 33 34  2  0  0  0  0
 33 32  1  0  0  0  0
 34 35  1  0  0  0  0
 35 39  1  0  0  0  0
 35 36  2  0  0  0  0
 38 32  1  0  0  0  0
M  END
>  <minimizedAffinity>
-4.84208393

>  <minimizedRMSD>
2.13141608

$$$$
