
 OpenBabel03242513433D

 45 47  0  0  0  0  0  0  0  0999 V2000
   47.7640   31.0680   45.9570 C   0  0  0  0  0  0  0  0  0  0  0  0
   46.9950   32.0750   45.4290 C   0  0  0  0  0  0  0  0  0  0  0  0
   45.9480   32.5160   46.1880 C   0  0  0  0  0  0  0  0  0  0  0  0
   45.6300   32.0190   47.4220 C   0  0  0  0  0  0  0  0  0  0  0  0
   44.6930   32.2350   48.3840 N   0  0  0  0  0  0  0  0  0  0  0  0
   44.8990   31.3910   49.4360 C   0  0  0  0  0  0  0  0  0  0  0  0
   45.9740   30.6520   49.1120 N   0  0  0  0  0  0  0  0  0  0  0  0
   46.4280   31.0140   47.9070 C   0  0  0  0  0  0  0  0  0  0  0  0
   47.4990   30.5150   47.2060 C   0  0  0  0  0  0  0  0  0  0  0  0
   48.6130   30.6880   45.3770 H   0  0  0  0  0  0  0  0  0  0  0  0
   45.3170   33.3190   45.7910 H   0  0  0  0  0  0  0  0  0  0  0  0
   43.9700   32.9690   48.2270 H   0  0  0  0  0  0  0  0  0  0  0  0
   44.2780   31.3780   50.3220 H   0  0  0  0  0  0  0  0  0  0  0  0
   47.2780   34.4290   42.6520 C   0  0  0  0  0  0  0  0  0  0  0  0
   47.8770   33.6600   41.6490 C   0  0  0  0  0  0  0  0  0  0  0  0
   48.1720   32.3180   41.9710 C   0  0  0  0  0  0  0  0  0  0  0  0
   47.8720   31.8440   43.2020 N   0  0  0  0  0  0  0  0  0  0  0  0
   47.2960   32.6360   44.1220 C   0  0  0  0  0  0  0  0  0  0  0  0
   46.9940   33.9180   43.8700 N   0  0  0  0  0  0  0  0  0  0  0  0
   47.0500   35.4690   42.4010 H   0  0  0  0  0  0  0  0  0  0  0  0
   48.6370   31.7180   41.1950 H   0  0  0  0  0  0  0  0  0  0  0  0
   48.1610   34.2810   40.3310 C   0  0  0  0  0  0  0  0  0  0  0  0
   48.7020   35.5210   40.6480 F   0  0  0  0  0  0  0  0  0  0  0  0
   46.9890   34.4520   39.6820 F   0  0  0  0  0  0  0  0  0  0  0  0
   49.0450   33.4720   39.6380 F   0  0  0  0  0  0  0  0  0  0  0  0
   48.2670   29.5000   47.7510 O   0  0  0  0  0  0  0  0  0  0  0  0
   49.9760   28.3280   49.3080 O   0  0  0  0  0  0  0  0  0  0  0  0
   49.4910   29.7150   48.8920 P   0  0  2  0  0  0  0  0  0  0  0  0
   48.7670   30.4020   50.2750 O   0  0  0  0  0  0  0  0  0  0  0  0
   48.5340   31.3290   50.0100 H   0  0  0  0  0  0  0  0  0  0  0  0
   50.7690   30.6580   48.3670 O   0  0  0  0  0  0  0  0  0  0  0  0
   51.6370   31.0390   49.3620 C   0  0  0  0  0  0  0  0  0  0  0  0
   51.5980   30.2990   50.1850 H   0  0  0  0  0  0  0  0  0  0  0  0
   52.6620   31.0970   48.9940 H   0  0  0  0  0  0  0  0  0  0  0  0
   51.1450   32.4010   49.8750 C   0  0  0  0  0  0  0  0  0  0  0  0
   51.3580   33.2040   49.1560 H   0  0  0  0  0  0  0  0  0  0  0  0
   50.0380   32.3360   50.0340 H   0  0  0  0  0  0  0  0  0  0  0  0
   50.8030   30.7760   52.2410 N   0  0  0  0  0  0  0  0  0  0  0  0
   51.3690   31.9270   52.2550 C   0  0  0  0  0  0  0  0  0  0  0  0
   51.8320   32.6440   51.1260 N   0  0  0  0  0  0  0  0  0  0  0  0
   51.4860   32.4290   53.6020 N   0  0  0  0  0  0  0  0  0  0  0  0
   50.7480   32.8610   54.2110 H   0  0  0  0  0  0  0  0  0  0  0  0
   50.6570   30.3020   51.3290 H   0  0  0  0  0  0  0  0  0  0  0  0
   52.6340   33.2880   51.2970 H   0  0  0  0  0  0  0  0  0  0  0  0
   52.2170   32.5390   54.3590 H   0  0  0  0  0  0  0  0  0  0  0  0
  1  9  1  0  0  0  0
  2  1  2  0  0  0  0
  2  3  1  0  0  0  0
  3  4  2  0  0  0  0
  4  8  1  0  0  0  0
  4  5  1  0  0  0  0
  5  6  1  0  0  0  0
  6 13  1  0  0  0  0
  7  6  2  0  0  0  0
  8  7  1  0  0  0  0
  9 26  1  0  0  0  0
  9  8  2  0  0  0  0
 10  1  1  0  0  0  0
 11  3  1  0  0  0  0
 12  5  1  0  0  0  0
 14 19  1  0  0  0  0
 15 16  1  0  0  0  0
 15 14  2  0  0  0  0
 16 17  2  0  0  0  0
 17 18  1  0  0  0  0
 18  2  1  0  0  0  0
 19 18  2  0  0  0  0
 20 14  1  0  0  0  0
 21 16  1  0  0  0  0
 22 23  1  0  0  0  0
 22 15  1  0  0  0  0
 24 22  1  0  0  0  0
 25 22  1  0  0  0  0
 26 28  1  0  0  0  0
 28 27  2  1  0  0  0
 28 29  1  0  0  0  0
 30 29  1  0  0  0  0
 31 28  1  0  0  0  0
 31 32  1  0  0  0  0
 32 35  1  0  0  0  0
 32 33  1  0  0  0  0
 34 32  1  0  0  0  0
 35 37  1  0  0  0  0
 35 40  1  0  0  0  0
 36 35  1  0  0  0  0
 38 39  2  0  0  0  0
 39 41  1  0  0  0  0
 40 44  1  0  0  0  0
 40 39  1  0  0  0  0
 41 42  1  0  0  0  0
 41 45  1  0  0  0  0
 43 38  1  0  0  0  0
M  END
>  <minimizedAffinity>
-6.05320883

>  <minimizedRMSD>
0.930083513

$$$$
