
 OpenBabel03242522393D

 39 40  0  0  0  0  0  0  0  0999 V2000
   46.2250   31.6660   45.6820 C   0  0  0  0  0  0  0  0  0  0  0  0
   46.1690   30.7500   45.0210 H   0  0  0  0  0  0  0  0  0  0  0  0
   45.1900   31.9220   45.8970 H   0  0  0  0  0  0  0  0  0  0  0  0
   47.4020   32.2600   47.7970 C   0  0  0  0  0  0  0  0  0  0  0  0
   47.0580   31.2830   46.8260 C   0  0  0  0  0  0  0  0  0  0  0  0
   47.5470   30.0000   47.0260 C   0  0  0  0  0  0  0  0  0  0  0  0
   48.3150   29.7490   48.1190 N   0  0  0  0  0  0  0  0  0  0  0  0
   48.6120   30.6970   49.0050 C   0  0  0  0  0  0  0  0  0  0  0  0
   48.1680   31.9390   48.8560 N   0  0  0  0  0  0  0  0  0  0  0  0
   47.0680   33.2880   47.7290 H   0  0  0  0  0  0  0  0  0  0  0  0
   47.2920   29.2630   46.3010 H   0  0  0  0  0  0  0  0  0  0  0  0
   49.4650   30.3300   50.1780 C   0  0  0  0  0  0  0  0  0  0  0  0
   49.4300   31.1940   50.8710 H   0  0  0  0  0  0  0  0  0  0  0  0
   49.0850   29.4300   50.6890 H   0  0  0  0  0  0  0  0  0  0  0  0
   50.6570   27.7670   50.5940 N   0  0  0  0  0  0  0  0  0  0  0  0
   51.2160   28.7950   50.0700 C   0  0  0  0  0  0  0  0  0  0  0  0
   50.8130   30.1040   49.6450 N   0  0  0  0  0  0  0  0  0  0  0  0
   52.5030   28.1710   50.0350 N   0  0  0  0  0  0  0  0  0  0  0  0
   53.2110   28.2390   50.8220 H   0  0  0  0  0  0  0  0  0  0  0  0
   49.6730   27.6530   50.8530 H   0  0  0  0  0  0  0  0  0  0  0  0
   51.5490   30.5510   49.0840 H   0  0  0  0  0  0  0  0  0  0  0  0
   52.9030   27.5870   49.2650 H   0  0  0  0  0  0  0  0  0  0  0  0
   46.9940   32.6910   44.8850 C   0  0  0  0  0  0  0  0  0  0  0  0
   47.8940   33.0680   45.4540 H   0  0  0  0  0  0  0  0  0  0  0  0
   47.4710   32.2460   43.9620 H   0  0  0  0  0  0  0  0  0  0  0  0
   46.5000   34.5110   43.3070 C   0  0  0  0  0  0  0  0  0  0  0  0
   46.2340   33.8840   44.5150 C   0  0  0  0  0  0  0  0  0  0  0  0
   45.2860   34.3290   45.3870 C   0  0  0  0  0  0  0  0  0  0  0  0
   44.5580   35.4490   45.0580 C   0  0  0  0  0  0  0  0  0  0  0  0
   44.7590   36.1260   43.8870 C   0  0  0  0  0  0  0  0  0  0  0  0
   45.7410   35.6180   43.0420 C   0  0  0  0  0  0  0  0  0  0  0  0
   45.0260   33.8990   46.3340 H   0  0  0  0  0  0  0  0  0  0  0  0
   43.7820   35.8610   45.7120 H   0  0  0  0  0  0  0  0  0  0  0  0
   44.2060   37.0150   43.5880 H   0  0  0  0  0  0  0  0  0  0  0  0
   45.9070   36.1460   42.1140 H   0  0  0  0  0  0  0  0  0  0  0  0
   47.7010   33.9750   42.1680 S   0  0  0  0  0  0  0  0  0  0  0  0
   49.1030   34.4460   42.5340 O   0  0  0  0  0  0  0  0  0  0  0  0
   47.4320   34.6380   40.8250 O   0  0  0  0  0  0  0  0  0  0  0  0
   47.6750   32.6180   41.9610 H   0  0  0  0  0  0  0  0  0  0  0  0
  1  3  1  0  0  0  0
  1  5  1  0  0  0  0
  2  1  1  0  0  0  0
  4  9  1  0  0  0  0
  5  6  1  0  0  0  0
  5  4  2  0  0  0  0
  6  7  2  0  0  0  0
  7  8  1  0  0  0  0
  8 12  1  0  0  0  0
  9  8  2  0  0  0  0
 10  4  1  0  0  0  0
 11  6  1  0  0  0  0
 12 14  1  0  0  0  0
 12 13  1  0  0  0  0
 15 20  1  0  0  0  0
 16 15  2  0  0  0  0
 17 16  1  0  0  0  0
 17 12  1  0  0  0  0
 18 16  1  0  0  0  0
 18 19  1  0  0  0  0
 21 17  1  0  0  0  0
 22 18  1  0  0  0  0
 23 24  1  0  0  0  0
 23  1  1  0  0  0  0
 25 23  1  0  0  0  0
 26 27  1  0  0  0  0
 27 23  1  0  0  0  0
 27 28  2  0  0  0  0
 28 32  1  0  0  0  0
 29 28  1  0  0  0  0
 29 33  1  0  0  0  0
 30 29  2  0  0  0  0
 31 26  2  0  0  0  0
 31 30  1  0  0  0  0
 34 30  1  0  0  0  0
 35 31  1  0  0  0  0
 36 37  2  0  0  0  0
 36 26  1  0  0  0  0
 38 36  2  0  0  0  0
 39 36  1  0  0  0  0
M  END
>  <minimizedAffinity>
-5.05203104

>  <minimizedRMSD>
0.377595454

$$$$
