
 OpenBabel03242522393D

 39 40  0  0  0  0  0  0  0  0999 V2000
   46.3060   31.5390   45.5790 C   0  0  0  0  0  0  0  0  0  0  0  0
   46.2950   30.6230   44.9160 H   0  0  0  0  0  0  0  0  0  0  0  0
   45.2590   31.7570   45.7770 H   0  0  0  0  0  0  0  0  0  0  0  0
   46.9870   31.9100   47.9480 C   0  0  0  0  0  0  0  0  0  0  0  0
   47.1320   31.1840   46.7370 C   0  0  0  0  0  0  0  0  0  0  0  0
   48.0720   30.1620   46.7270 C   0  0  0  0  0  0  0  0  0  0  0  0
   48.7900   29.9140   47.8540 N   0  0  0  0  0  0  0  0  0  0  0  0
   48.6190   30.6220   48.9680 C   0  0  0  0  0  0  0  0  0  0  0  0
   47.7330   31.6100   49.0270 N   0  0  0  0  0  0  0  0  0  0  0  0
   46.2800   32.7240   48.0540 H   0  0  0  0  0  0  0  0  0  0  0  0
   48.1850   29.6130   45.8220 H   0  0  0  0  0  0  0  0  0  0  0  0
   49.4550   30.2800   50.1610 C   0  0  0  0  0  0  0  0  0  0  0  0
   48.7560   29.8970   50.9320 H   0  0  0  0  0  0  0  0  0  0  0  0
   50.2020   29.5050   49.9240 H   0  0  0  0  0  0  0  0  0  0  0  0
   51.8890   31.0180   48.8640 N   0  0  0  0  0  0  0  0  0  0  0  0
   51.3390   31.6150   49.8550 C   0  0  0  0  0  0  0  0  0  0  0  0
   50.1030   31.5290   50.5750 N   0  0  0  0  0  0  0  0  0  0  0  0
   52.4570   32.4900   50.0430 N   0  0  0  0  0  0  0  0  0  0  0  0
   53.2740   32.2700   50.6830 H   0  0  0  0  0  0  0  0  0  0  0  0
   51.5080   30.2500   48.3050 H   0  0  0  0  0  0  0  0  0  0  0  0
   49.9770   32.3440   51.1890 H   0  0  0  0  0  0  0  0  0  0  0  0
   52.6140   33.4210   49.5960 H   0  0  0  0  0  0  0  0  0  0  0  0
   47.0520   32.5930   44.7980 C   0  0  0  0  0  0  0  0  0  0  0  0
   47.9670   32.9530   45.3550 H   0  0  0  0  0  0  0  0  0  0  0  0
   47.5040   32.1820   43.8470 H   0  0  0  0  0  0  0  0  0  0  0  0
   46.5150   34.4680   43.3000 C   0  0  0  0  0  0  0  0  0  0  0  0
   46.2800   33.7960   44.4900 C   0  0  0  0  0  0  0  0  0  0  0  0
   45.3530   34.2060   45.4020 C   0  0  0  0  0  0  0  0  0  0  0  0
   44.6140   35.3360   45.1320 C   0  0  0  0  0  0  0  0  0  0  0  0
   44.7850   36.0550   43.9820 C   0  0  0  0  0  0  0  0  0  0  0  0
   45.7470   35.5820   43.0950 C   0  0  0  0  0  0  0  0  0  0  0  0
   45.1170   33.7410   46.3380 H   0  0  0  0  0  0  0  0  0  0  0  0
   43.8530   35.7210   45.8190 H   0  0  0  0  0  0  0  0  0  0  0  0
   44.2230   36.9530   43.7290 H   0  0  0  0  0  0  0  0  0  0  0  0
   45.8890   36.1430   42.1830 H   0  0  0  0  0  0  0  0  0  0  0  0
   47.6890   33.9780   42.1140 S   0  0  0  0  0  0  0  0  0  0  0  0
   49.0910   34.4760   42.4410 O   0  0  0  0  0  0  0  0  0  0  0  0
   47.3600   34.6550   40.7920 O   0  0  0  0  0  0  0  0  0  0  0  0
   47.6880   32.6240   41.8860 H   0  0  0  0  0  0  0  0  0  0  0  0
  1  3  1  0  0  0  0
  1  5  1  0  0  0  0
  2  1  1  0  0  0  0
  4 10  1  0  0  0  0
  4  9  1  0  0  0  0
  5  4  2  0  0  0  0
  6  5  1  0  0  0  0
  6  7  2  0  0  0  0
  7  8  1  0  0  0  0
  8  9  2  0  0  0  0
  8 12  1  0  0  0  0
 11  6  1  0  0  0  0
 12 17  1  0  0  0  0
 12 13  1  0  0  0  0
 14 12  1  0  0  0  0
 15 16  2  0  0  0  0
 16 18  1  0  0  0  0
 16 17  1  0  0  0  0
 17 21  1  0  0  0  0
 18 19  1  0  0  0  0
 20 15  1  0  0  0  0
 22 18  1  0  0  0  0
 23 24  1  0  0  0  0
 23  1  1  0  0  0  0
 25 23  1  0  0  0  0
 26 27  1  0  0  0  0
 27 23  1  0  0  0  0
 27 28  2  0  0  0  0
 28 32  1  0  0  0  0
 29 28  1  0  0  0  0
 29 33  1  0  0  0  0
 30 29  2  0  0  0  0
 31 26  2  0  0  0  0
 31 30  1  0  0  0  0
 34 30  1  0  0  0  0
 35 31  1  0  0  0  0
 36 37  2  0  0  0  0
 36 26  1  0  0  0  0
 38 36  2  0  0  0  0
 39 36  1  0  0  0  0
M  END
>  <minimizedAffinity>
-5.27535439

>  <minimizedRMSD>
1.08350885

$$$$
