
 OpenBabel03242522393D

 39 40  0  0  0  0  0  0  0  0999 V2000
   46.2230   31.6580   45.6740 C   0  0  0  0  0  0  0  0  0  0  0  0
   46.1660   30.7390   45.0180 H   0  0  0  0  0  0  0  0  0  0  0  0
   45.1880   31.9160   45.8900 H   0  0  0  0  0  0  0  0  0  0  0  0
   47.3980   32.2620   47.7880 C   0  0  0  0  0  0  0  0  0  0  0  0
   47.0560   31.2820   46.8200 C   0  0  0  0  0  0  0  0  0  0  0  0
   47.5500   30.0000   47.0230 C   0  0  0  0  0  0  0  0  0  0  0  0
   48.3180   29.7540   48.1170 N   0  0  0  0  0  0  0  0  0  0  0  0
   48.6120   30.7060   49.0000 C   0  0  0  0  0  0  0  0  0  0  0  0
   48.1650   31.9470   48.8480 N   0  0  0  0  0  0  0  0  0  0  0  0
   47.0600   33.2890   47.7170 H   0  0  0  0  0  0  0  0  0  0  0  0
   47.2970   29.2610   46.3010 H   0  0  0  0  0  0  0  0  0  0  0  0
   49.4660   30.3440   50.1740 C   0  0  0  0  0  0  0  0  0  0  0  0
   49.0500   30.8930   51.0430 H   0  0  0  0  0  0  0  0  0  0  0  0
   49.4400   29.2610   50.3760 H   0  0  0  0  0  0  0  0  0  0  0  0
   51.2800   28.4110   49.1120 N   0  0  0  0  0  0  0  0  0  0  0  0
   51.5520   29.6230   49.4290 C   0  0  0  0  0  0  0  0  0  0  0  0
   50.8250   30.7870   49.8400 N   0  0  0  0  0  0  0  0  0  0  0  0
   52.9570   29.4390   49.2240 N   0  0  0  0  0  0  0  0  0  0  0  0
   53.6280   29.1330   49.9860 H   0  0  0  0  0  0  0  0  0  0  0  0
   50.3600   27.9620   49.0830 H   0  0  0  0  0  0  0  0  0  0  0  0
   51.4170   31.6250   49.8010 H   0  0  0  0  0  0  0  0  0  0  0  0
   53.4900   29.5740   48.3340 H   0  0  0  0  0  0  0  0  0  0  0  0
   46.9910   32.6790   44.8720 C   0  0  0  0  0  0  0  0  0  0  0  0
   47.8970   33.0520   45.4340 H   0  0  0  0  0  0  0  0  0  0  0  0
   47.4580   32.2330   43.9450 H   0  0  0  0  0  0  0  0  0  0  0  0
   46.5000   34.5080   43.3020 C   0  0  0  0  0  0  0  0  0  0  0  0
   46.2330   33.8760   44.5080 C   0  0  0  0  0  0  0  0  0  0  0  0
   45.2880   34.3200   45.3840 C   0  0  0  0  0  0  0  0  0  0  0  0
   44.5630   35.4450   45.0600 C   0  0  0  0  0  0  0  0  0  0  0  0
   44.7650   36.1260   43.8920 C   0  0  0  0  0  0  0  0  0  0  0  0
   45.7450   35.6190   43.0440 C   0  0  0  0  0  0  0  0  0  0  0  0
   45.0280   33.8870   46.3280 H   0  0  0  0  0  0  0  0  0  0  0  0
   43.7890   35.8560   45.7170 H   0  0  0  0  0  0  0  0  0  0  0  0
   44.2150   37.0180   43.5970 H   0  0  0  0  0  0  0  0  0  0  0  0
   45.9110   36.1500   42.1180 H   0  0  0  0  0  0  0  0  0  0  0  0
   47.6990   33.9740   42.1600 S   0  0  0  0  0  0  0  0  0  0  0  0
   49.1010   34.4450   42.5240 O   0  0  0  0  0  0  0  0  0  0  0  0
   47.4270   34.6390   40.8190 O   0  0  0  0  0  0  0  0  0  0  0  0
   47.6730   32.6170   41.9520 H   0  0  0  0  0  0  0  0  0  0  0  0
  1  3  1  0  0  0  0
  1  5  1  0  0  0  0
  2  1  1  0  0  0  0
  4  9  1  0  0  0  0
  5  6  1  0  0  0  0
  5  4  2  0  0  0  0
  6  7  2  0  0  0  0
  7  8  1  0  0  0  0
  8 12  1  0  0  0  0
  9  8  2  0  0  0  0
 10  4  1  0  0  0  0
 11  6  1  0  0  0  0
 12 14  1  0  0  0  0
 12 13  1  0  0  0  0
 15 16  2  0  0  0  0
 16 17  1  0  0  0  0
 17 12  1  0  0  0  0
 18 16  1  0  0  0  0
 18 19  1  0  0  0  0
 20 15  1  0  0  0  0
 21 17  1  0  0  0  0
 22 18  1  0  0  0  0
 23 24  1  0  0  0  0
 23  1  1  0  0  0  0
 25 23  1  0  0  0  0
 26 27  1  0  0  0  0
 27 23  1  0  0  0  0
 27 28  2  0  0  0  0
 28 32  1  0  0  0  0
 29 28  1  0  0  0  0
 29 33  1  0  0  0  0
 30 29  2  0  0  0  0
 31 26  2  0  0  0  0
 31 30  1  0  0  0  0
 34 30  1  0  0  0  0
 35 31  1  0  0  0  0
 36 37  2  0  0  0  0
 36 26  1  0  0  0  0
 38 36  2  0  0  0  0
 39 36  1  0  0  0  0
M  END
>  <minimizedAffinity>
-4.9711709

>  <minimizedRMSD>
0.221116483

$$$$
