
 OpenBabel03252500203D

 21 21  0  0  0  0  0  0  0  0999 V2000
   44.4990   35.7620   44.6440 C   0  0  0  0  0  0  0  0  0  0  0  0
   44.9640   34.9980   43.5900 C   0  0  0  0  0  0  0  0  0  0  0  0
   45.4690   33.7230   43.9140 C   0  0  0  0  0  0  0  0  0  0  0  0
   45.4730   33.3180   45.2040 N   0  0  0  0  0  0  0  0  0  0  0  0
   45.0030   34.1150   46.1750 C   0  0  0  0  0  0  0  0  0  0  0  0
   44.5160   35.3340   45.8980 N   0  0  0  0  0  0  0  0  0  0  0  0
   44.9980   33.7160   47.5290 N   0  0  0  0  0  0  0  0  0  0  0  0
   44.0940   36.7460   44.4670 H   0  0  0  0  0  0  0  0  0  0  0  0
   45.8530   33.9910   48.0630 H   0  0  0  0  0  0  0  0  0  0  0  0
   44.3120   33.2030   48.1060 H   0  0  0  0  0  0  0  0  0  0  0  0
   42.6950   35.7070   41.9170 N   0  0  0  0  0  0  0  0  0  0  0  0
   43.8180   35.3240   41.3540 C   0  0  0  0  0  0  0  0  0  0  0  0
   44.9500   35.4270   42.2340 N   0  0  0  0  0  0  0  0  0  0  0  0
   44.0640   34.8340   40.0210 N   0  0  0  0  0  0  0  0  0  0  0  0
   43.8160   33.9740   39.4770 H   0  0  0  0  0  0  0  0  0  0  0  0
   41.8330   35.6680   41.3660 H   0  0  0  0  0  0  0  0  0  0  0  0
   45.8450   35.8500   41.8490 H   0  0  0  0  0  0  0  0  0  0  0  0
   44.6400   35.5920   39.5640 H   0  0  0  0  0  0  0  0  0  0  0  0
   45.9570   32.9110   42.8440 N   0  0  0  0  0  0  0  0  0  0  0  0
   46.6360   33.2990   42.1440 H   0  0  0  0  0  0  0  0  0  0  0  0
   45.6280   31.9220   42.7670 H   0  0  0  0  0  0  0  0  0  0  0  0
  1  6  1  0  0  0  0
  2  3  1  0  0  0  0
  2  1  2  0  0  0  0
  3  4  2  0  0  0  0
  4  5  1  0  0  0  0
  5  7  1  0  0  0  0
  6  5  2  0  0  0  0
  7  9  1  0  0  0  0
  7 10  1  0  0  0  0
  8  1  1  0  0  0  0
 12 11  2  0  0  0  0
 12 13  1  0  0  0  0
 13  2  1  0  0  0  0
 14 12  1  0  0  0  0
 15 14  1  0  0  0  0
 16 11  1  0  0  0  0
 17 13  1  0  0  0  0
 18 14  1  0  0  0  0
 19  3  1  0  0  0  0
 20 19  1  0  0  0  0
 21 19  1  0  0  0  0
M  END
>  <minimizedAffinity>
-4.51146889

>  <minimizedRMSD>
1.0524646

$$$$
