
 OpenBabel03242518523D

 38 39  0  0  1  0  0  0  0  0999 V2000
   36.8290   30.3690   39.4640 C   0  0  2  0  0  0  0  0  0  0  0  0
   37.9500   29.6390   38.8310 C   0  0  0  0  0  0  0  0  0  0  0  0
   38.5580   30.5420   37.7950 C   0  0  0  0  0  0  0  0  0  0  0  0
   37.7540   31.7300   37.4200 C   0  0  0  0  0  0  0  0  0  0  0  0
   37.2440   32.5190   38.5830 C   0  0  0  0  0  0  0  0  0  0  0  0
   37.2100   31.6770   39.8880 C   0  0  2  0  0  0  0  0  0  0  0  0
   36.0950   30.4960   38.5770 H   0  0  0  0  0  0  0  0  0  0  0  0
   38.7400   29.2410   39.4620 H   0  0  0  0  0  0  0  0  0  0  0  0
   37.4820   28.7050   38.3750 H   0  0  0  0  0  0  0  0  0  0  0  0
   38.5590   29.8930   36.8480 H   0  0  0  0  0  0  0  0  0  0  0  0
   39.6470   30.7170   37.9370 H   0  0  0  0  0  0  0  0  0  0  0  0
   36.8540   31.3670   36.8380 H   0  0  0  0  0  0  0  0  0  0  0  0
   38.3410   32.3270   36.7080 H   0  0  0  0  0  0  0  0  0  0  0  0
   37.9320   33.3710   38.7540 H   0  0  0  0  0  0  0  0  0  0  0  0
   36.2310   32.9370   38.4170 H   0  0  0  0  0  0  0  0  0  0  0  0
   37.0620   32.3810   40.6150 H   0  0  0  0  0  0  0  0  0  0  0  0
   38.7090   33.6520   41.3380 N   0  0  0  0  0  0  0  0  0  0  0  0
   39.3240   32.5410   41.1170 C   0  0  0  0  0  0  0  0  0  0  0  0
   38.6900   31.6160   40.1980 N   0  0  0  0  0  0  0  0  0  0  0  0
   40.5640   32.2220   41.7370 N   0  0  0  0  0  0  0  0  0  0  0  0
   40.8320   31.2670   42.0990 H   0  0  0  0  0  0  0  0  0  0  0  0
   39.0890   34.3820   41.9840 H   0  0  0  0  0  0  0  0  0  0  0  0
   39.4040   30.9360   39.7890 H   0  0  0  0  0  0  0  0  0  0  0  0
   41.2790   32.9980   41.8480 H   0  0  0  0  0  0  0  0  0  0  0  0
   35.9910   29.5320   40.3500 C   0  0  0  0  0  0  0  0  0  0  0  0
   34.7370   29.4570   40.3010 O   0  0  0  0  0  0  0  0  0  0  0  0
   37.9060   28.7020   43.3210 C   0  0  0  0  0  0  0  0  0  0  0  0
   38.0350   27.2840   43.2770 C   0  0  0  0  0  0  0  0  0  0  0  0
   37.4500   26.6610   42.1680 C   0  0  0  0  0  0  0  0  0  0  0  0
   36.8310   27.4500   41.2580 N   0  0  0  0  0  0  0  0  0  0  0  0
   36.7260   28.7620   41.3300 C   0  0  0  0  0  0  0  0  0  0  0  0
   37.2780   29.4050   42.3880 N   0  0  0  0  0  0  0  0  0  0  0  0
   38.3520   29.2120   44.1720 H   0  0  0  0  0  0  0  0  0  0  0  0
   38.5520   26.7470   44.0560 H   0  0  0  0  0  0  0  0  0  0  0  0
   37.5450   25.2140   42.1520 C   0  0  0  0  0  0  0  0  0  0  0  0
   38.6330   24.7980   42.9230 F   0  0  0  0  0  0  0  0  0  0  0  0
   37.8950   24.8560   40.8400 F   0  0  0  0  0  0  0  0  0  0  0  0
   36.4390   24.5810   42.5940 F   0  0  0  0  0  0  0  0  0  0  0  0
  1  7  1  6  0  0  0
  1  6  1  0  0  0  0
  1 25  1  0  0  0  0
  2  8  1  0  0  0  0
  2  1  1  0  0  0  0
  3 11  1  0  0  0  0
  3  2  1  0  0  0  0
  4  3  1  0  0  0  0
  4  5  1  0  0  0  0
  5 14  1  0  0  0  0
  5  6  1  0  0  0  0
  6 19  1  0  0  0  0
  6 16  1  1  0  0  0
  9  2  1  0  0  0  0
 10  3  1  0  0  0  0
 12  4  1  0  0  0  0
 13  4  1  0  0  0  0
 15  5  1  0  0  0  0
 17 22  1  0  0  0  0
 18 17  2  0  0  0  0
 18 20  1  0  0  0  0
 19 18  1  0  0  0  0
 20 24  1  0  0  0  0
 20 21  1  0  0  0  0
 23 19  1  0  0  0  0
 25 31  1  0  0  0  0
 26 25  2  0  0  0  0
 27 33  1  0  0  0  0
 28 27  1  0  0  0  0
 28 34  1  0  0  0  0
 29 28  2  0  0  0  0
 30 31  2  0  0  0  0
 30 29  1  0  0  0  0
 31 32  1  0  0  0  0
 32 27  2  0  0  0  0
 35 29  1  0  0  0  0
 35 38  1  0  0  0  0
 35 36  1  0  0  0  0
 37 35  1  0  0  0  0
M  END
>  <minimizedAffinity>
-6.09988451

$$$$

 OpenBabel03242518523D

 38 39  0  0  1  0  0  0  0  0999 V2000
   37.7090   31.4890   40.1180 C   0  0  2  0  0  0  0  0  0  0  0  0
   37.0090   32.7420   39.7540 C   0  0  0  0  0  0  0  0  0  0  0  0
   37.9590   33.8820   39.9900 C   0  0  0  0  0  0  0  0  0  0  0  0
   39.1620   33.5670   40.7970 C   0  0  0  0  0  0  0  0  0  0  0  0
   39.8980   32.3430   40.3510 C   0  0  0  0  0  0  0  0  0  0  0  0
   38.9970   31.3960   39.5110 C   0  0  2  0  0  0  0  0  0  0  0  0
   37.8760   31.6310   41.2570 H   0  0  0  0  0  0  0  0  0  0  0  0
   36.5840   32.8340   38.7590 H   0  0  0  0  0  0  0  0  0  0  0  0
   36.0970   32.7860   40.4360 H   0  0  0  0  0  0  0  0  0  0  0  0
   37.3540   34.5960   40.6550 H   0  0  0  0  0  0  0  0  0  0  0  0
   38.1280   34.5170   39.0930 H   0  0  0  0  0  0  0  0  0  0  0  0
   38.8260   33.3890   41.8620 H   0  0  0  0  0  0  0  0  0  0  0  0
   39.7910   34.4670   40.8350 H   0  0  0  0  0  0  0  0  0  0  0  0
   40.7410   32.6600   39.7070 H   0  0  0  0  0  0  0  0  0  0  0  0
   40.3220   31.7590   41.1920 H   0  0  0  0  0  0  0  0  0  0  0  0
   39.6670   30.7410   39.1030 H   0  0  0  0  0  0  0  0  0  0  0  0
   38.5420   30.3020   36.8950 N   0  0  0  0  0  0  0  0  0  0  0  0
   38.4760   31.5870   36.9790 C   0  0  0  0  0  0  0  0  0  0  0  0
   38.9230   32.1830   38.2210 N   0  0  0  0  0  0  0  0  0  0  0  0
   37.9890   32.3930   35.9120 N   0  0  0  0  0  0  0  0  0  0  0  0
   37.3790   33.2460   36.0290 H   0  0  0  0  0  0  0  0  0  0  0  0
   38.2430   29.7810   36.0380 H   0  0  0  0  0  0  0  0  0  0  0  0
   39.1910   33.2070   38.0770 H   0  0  0  0  0  0  0  0  0  0  0  0
   38.2570   32.1230   34.9220 H   0  0  0  0  0  0  0  0  0  0  0  0
   36.8320   30.2990   40.1510 C   0  0  0  0  0  0  0  0  0  0  0  0
   35.8510   30.1020   39.3910 O   0  0  0  0  0  0  0  0  0  0  0  0
   37.8400   28.8570   43.3270 C   0  0  0  0  0  0  0  0  0  0  0  0
   37.7320   27.4510   43.1300 C   0  0  0  0  0  0  0  0  0  0  0  0
   37.3210   27.0520   41.8530 C   0  0  0  0  0  0  0  0  0  0  0  0
   37.0720   28.0220   40.9410 N   0  0  0  0  0  0  0  0  0  0  0  0
   37.1790   29.3180   41.1570 C   0  0  0  0  0  0  0  0  0  0  0  0
   37.5740   29.7480   42.3810 N   0  0  0  0  0  0  0  0  0  0  0  0
   38.1580   29.1940   44.3110 H   0  0  0  0  0  0  0  0  0  0  0  0
   37.9560   26.7580   43.9250 H   0  0  0  0  0  0  0  0  0  0  0  0
   37.1690   25.6220   41.6710 C   0  0  0  0  0  0  0  0  0  0  0  0
   38.4240   25.0210   41.5410 F   0  0  0  0  0  0  0  0  0  0  0  0
   36.5700   25.4450   40.4140 F   0  0  0  0  0  0  0  0  0  0  0  0
   36.5000   25.0050   42.6660 F   0  0  0  0  0  0  0  0  0  0  0  0
  1 25  1  0  0  0  0
  1  7  1  1  0  0  0
  2  3  1  0  0  0  0
  2  1  1  0  0  0  0
  2  9  1  0  0  0  0
  3 10  1  0  0  0  0
  3  4  1  0  0  0  0
  4 13  1  0  0  0  0
  4 12  1  0  0  0  0
  5  4  1  0  0  0  0
  5 15  1  0  0  0  0
  6 16  1  6  0  0  0
  6  1  1  0  0  0  0
  6  5  1  0  0  0  0
  8  2  1  0  0  0  0
 11  3  1  0  0  0  0
 14  5  1  0  0  0  0
 17 18  2  0  0  0  0
 18 19  1  0  0  0  0
 19  6  1  0  0  0  0
 20 21  1  0  0  0  0
 20 18  1  0  0  0  0
 22 17  1  0  0  0  0
 23 19  1  0  0  0  0
 24 20  1  0  0  0  0
 25 31  1  0  0  0  0
 26 25  2  0  0  0  0
 27 33  1  0  0  0  0
 28 27  1  0  0  0  0
 28 34  1  0  0  0  0
 29 28  2  0  0  0  0
 30 31  2  0  0  0  0
 30 29  1  0  0  0  0
 31 32  1  0  0  0  0
 32 27  2  0  0  0  0
 35 29  1  0  0  0  0
 35 38  1  0  0  0  0
 36 35  1  0  0  0  0
 37 35  1  0  0  0  0
M  END
>  <minimizedAffinity>
-5.98526812

$$$$

 OpenBabel03242518523D

 38 39  0  0  1  0  0  0  0  0999 V2000
   38.3760   27.7990   40.7690 C   0  0  2  0  0  0  0  0  0  0  0  0
   37.6930   26.7100   40.0340 C   0  0  0  0  0  0  0  0  0  0  0  0
   36.9830   25.8530   41.0430 C   0  0  0  0  0  0  0  0  0  0  0  0
   37.3740   26.0590   42.4590 C   0  0  0  0  0  0  0  0  0  0  0  0
   37.3860   27.4910   42.8900 C   0  0  0  0  0  0  0  0  0  0  0  0
   37.5040   28.4620   41.6820 C   0  0  2  0  0  0  0  0  0  0  0  0
   39.1520   27.2120   41.3990 H   0  0  0  0  0  0  0  0  0  0  0  0
   37.0010   26.9680   39.2380 H   0  0  0  0  0  0  0  0  0  0  0  0
   38.5230   26.1470   39.4910 H   0  0  0  0  0  0  0  0  0  0  0  0
   37.3560   24.7950   40.8010 H   0  0  0  0  0  0  0  0  0  0  0  0
   35.8930   25.7450   40.8510 H   0  0  0  0  0  0  0  0  0  0  0  0
   38.4230   25.6580   42.5890 H   0  0  0  0  0  0  0  0  0  0  0  0
   36.7360   25.4190   43.0840 H   0  0  0  0  0  0  0  0  0  0  0  0
   36.4290   27.7090   43.4010 H   0  0  0  0  0  0  0  0  0  0  0  0
   38.2050   27.7250   43.6000 H   0  0  0  0  0  0  0  0  0  0  0  0
   37.2810   29.3710   42.0930 H   0  0  0  0  0  0  0  0  0  0  0  0
   35.6920   30.6330   41.1760 N   0  0  0  0  0  0  0  0  0  0  0  0
   35.3430   29.4920   40.6850 C   0  0  0  0  0  0  0  0  0  0  0  0
   36.1070   28.3370   41.1120 N   0  0  0  0  0  0  0  0  0  0  0  0
   34.2630   29.3580   39.7680 N   0  0  0  0  0  0  0  0  0  0  0  0
   34.2580   28.7150   38.9310 H   0  0  0  0  0  0  0  0  0  0  0  0
   35.2000   31.5220   40.9280 H   0  0  0  0  0  0  0  0  0  0  0  0
   35.5460   27.4390   40.9780 H   0  0  0  0  0  0  0  0  0  0  0  0
   33.3960   29.9460   39.9320 H   0  0  0  0  0  0  0  0  0  0  0  0
   39.3010   28.5980   39.9360 C   0  0  0  0  0  0  0  0  0  0  0  0
   40.5140   28.3300   39.7400 O   0  0  0  0  0  0  0  0  0  0  0  0
   37.3850   30.6720   37.6540 C   0  0  0  0  0  0  0  0  0  0  0  0
   37.4700   31.9820   38.2070 C   0  0  0  0  0  0  0  0  0  0  0  0
   38.2330   32.0930   39.3750 C   0  0  0  0  0  0  0  0  0  0  0  0
   38.8100   30.9680   39.8590 N   0  0  0  0  0  0  0  0  0  0  0  0
   38.7090   29.7670   39.3240 C   0  0  0  0  0  0  0  0  0  0  0  0
   37.9790   29.6150   38.1920 N   0  0  0  0  0  0  0  0  0  0  0  0
   36.7980   30.5570   36.7460 H   0  0  0  0  0  0  0  0  0  0  0  0
   36.9720   32.8170   37.7410 H   0  0  0  0  0  0  0  0  0  0  0  0
   38.2790   33.4200   39.9590 C   0  0  0  0  0  0  0  0  0  0  0  0
   39.3860   34.1190   39.4700 F   0  0  0  0  0  0  0  0  0  0  0  0
   38.5580   33.2410   41.3230 F   0  0  0  0  0  0  0  0  0  0  0  0
   37.1730   34.1610   39.7390 F   0  0  0  0  0  0  0  0  0  0  0  0
  1  7  1  1  0  0  0
  1  6  1  0  0  0  0
  2  1  1  0  0  0  0
  2  3  1  0  0  0  0
  3  4  1  0  0  0  0
  4 12  1  0  0  0  0
  4  5  1  0  0  0  0
  4 13  1  0  0  0  0
  5 14  1  0  0  0  0
  5 15  1  0  0  0  0
  6 16  1  1  0  0  0
  6  5  1  0  0  0  0
  8  2  1  0  0  0  0
  9  2  1  0  0  0  0
 10  3  1  0  0  0  0
 11  3  1  0  0  0  0
 18 19  1  0  0  0  0
 18 17  2  0  0  0  0
 19  6  1  0  0  0  0
 20 24  1  0  0  0  0
 20 18  1  0  0  0  0
 21 20  1  0  0  0  0
 22 17  1  0  0  0  0
 23 19  1  0  0  0  0
 25  1  1  0  0  0  0
 26 25  2  0  0  0  0
 27 32  2  0  0  0  0
 27 28  1  0  0  0  0
 28 29  2  0  0  0  0
 29 30  1  0  0  0  0
 29 35  1  0  0  0  0
 31 30  2  0  0  0  0
 31 25  1  0  0  0  0
 32 31  1  0  0  0  0
 33 27  1  0  0  0  0
 34 28  1  0  0  0  0
 35 37  1  0  0  0  0
 36 35  1  0  0  0  0
 38 35  1  0  0  0  0
M  END
>  <minimizedAffinity>
-5.87577057

$$$$

 OpenBabel03242518523D

 38 39  0  0  1  0  0  0  0  0999 V2000
   38.6520   28.4080   41.4460 C   0  0  2  0  0  0  0  0  0  0  0  0
   37.9910   27.1140   41.1660 C   0  0  0  0  0  0  0  0  0  0  0  0
   37.3420   26.6460   42.4390 C   0  0  0  0  0  0  0  0  0  0  0  0
   37.7650   27.3460   43.6760 C   0  0  0  0  0  0  0  0  0  0  0  0
   37.7350   28.8380   43.5790 C   0  0  0  0  0  0  0  0  0  0  0  0
   37.7810   29.3260   42.1050 C   0  0  2  0  0  0  0  0  0  0  0  0
   39.4670   28.1000   42.2110 H   0  0  0  0  0  0  0  0  0  0  0  0
   37.2670   27.0590   40.3590 H   0  0  0  0  0  0  0  0  0  0  0  0
   38.8250   26.4180   40.8210 H   0  0  0  0  0  0  0  0  0  0  0  0
   37.7490   25.5810   42.5660 H   0  0  0  0  0  0  0  0  0  0  0  0
   36.2530   26.4500   42.3400 H   0  0  0  0  0  0  0  0  0  0  0  0
   38.8320   27.0430   43.8960 H   0  0  0  0  0  0  0  0  0  0  0  0
   37.1700   26.9490   44.5110 H   0  0  0  0  0  0  0  0  0  0  0  0
   36.7850   29.1970   44.0200 H   0  0  0  0  0  0  0  0  0  0  0  0
   38.5640   29.3270   44.1300 H   0  0  0  0  0  0  0  0  0  0  0  0
   37.5360   30.3160   42.1810 H   0  0  0  0  0  0  0  0  0  0  0  0
   35.8990   31.1170   40.8790 N   0  0  0  0  0  0  0  0  0  0  0  0
   35.5690   29.8710   40.8660 C   0  0  0  0  0  0  0  0  0  0  0  0
   36.3750   28.9740   41.6700 N   0  0  0  0  0  0  0  0  0  0  0  0
   34.4710   29.3840   40.1030 N   0  0  0  0  0  0  0  0  0  0  0  0
   34.4620   28.4720   39.5700 H   0  0  0  0  0  0  0  0  0  0  0  0
   35.3770   31.8390   40.3320 H   0  0  0  0  0  0  0  0  0  0  0  0
   35.8350   28.0830   41.9030 H   0  0  0  0  0  0  0  0  0  0  0  0
   33.5920   29.9760   40.0620 H   0  0  0  0  0  0  0  0  0  0  0  0
   39.5210   28.8880   40.3500 C   0  0  0  0  0  0  0  0  0  0  0  0
   40.7280   28.5700   40.1910 O   0  0  0  0  0  0  0  0  0  0  0  0
   38.5420   31.9560   38.6770 C   0  0  0  0  0  0  0  0  0  0  0  0
   37.7550   31.5240   37.5720 C   0  0  0  0  0  0  0  0  0  0  0  0
   37.5750   30.1400   37.4660 C   0  0  0  0  0  0  0  0  0  0  0  0
   38.1530   29.3580   38.4080 N   0  0  0  0  0  0  0  0  0  0  0  0
   38.8810   29.7900   39.4190 C   0  0  0  0  0  0  0  0  0  0  0  0
   39.0800   31.1240   39.5580 N   0  0  0  0  0  0  0  0  0  0  0  0
   38.6980   33.0280   38.7830 H   0  0  0  0  0  0  0  0  0  0  0  0
   37.3360   32.2330   36.8750 H   0  0  0  0  0  0  0  0  0  0  0  0
   36.8110   29.7030   36.3140 C   0  0  0  0  0  0  0  0  0  0  0  0
   36.7360   30.7320   35.3720 F   0  0  0  0  0  0  0  0  0  0  0  0
   35.4880   29.5420   36.7560 F   0  0  0  0  0  0  0  0  0  0  0  0
   37.3030   28.6030   35.7080 F   0  0  0  0  0  0  0  0  0  0  0  0
  1  6  1  0  0  0  0
  1  7  1  1  0  0  0
  2  1  1  0  0  0  0
  2  3  1  0  0  0  0
  3 10  1  0  0  0  0
  3  4  1  0  0  0  0
  4 12  1  0  0  0  0
  4 13  1  0  0  0  0
  5  4  1  0  0  0  0
  5 14  1  0  0  0  0
  5 15  1  0  0  0  0
  6 16  1  6  0  0  0
  6  5  1  0  0  0  0
  8  2  1  0  0  0  0
  9  2  1  0  0  0  0
 11  3  1  0  0  0  0
 18 17  2  0  0  0  0
 18 19  1  0  0  0  0
 19 23  1  0  0  0  0
 19  6  1  0  0  0  0
 20 18  1  0  0  0  0
 21 20  1  0  0  0  0
 22 17  1  0  0  0  0
 24 20  1  0  0  0  0
 25  1  1  0  0  0  0
 26 25  2  0  0  0  0
 27 33  1  0  0  0  0
 27 32  1  0  0  0  0
 28 27  2  0  0  0  0
 29 28  1  0  0  0  0
 29 30  2  0  0  0  0
 30 31  1  0  0  0  0
 31 32  2  0  0  0  0
 31 25  1  0  0  0  0
 34 28  1  0  0  0  0
 35 37  1  0  0  0  0
 35 29  1  0  0  0  0
 36 35  1  0  0  0  0
 38 35  1  0  0  0  0
M  END
>  <minimizedAffinity>
-5.74593401

$$$$

 OpenBabel03242518523D

 38 39  0  0  1  0  0  0  0  0999 V2000
   38.4260   30.3530   40.7310 C   0  0  2  0  0  0  0  0  0  0  0  0
   39.2250   30.1570   39.5000 C   0  0  0  0  0  0  0  0  0  0  0  0
   38.2830   30.2010   38.3310 C   0  0  0  0  0  0  0  0  0  0  0  0
   36.8400   30.0890   38.6560 C   0  0  0  0  0  0  0  0  0  0  0  0
   36.3830   31.0080   39.7450 C   0  0  0  0  0  0  0  0  0  0  0  0
   37.5620   31.4850   40.6370 C   0  0  2  0  0  0  0  0  0  0  0  0
   37.7540   29.4080   40.7340 H   0  0  0  0  0  0  0  0  0  0  0  0
   40.0620   30.8220   39.3070 H   0  0  0  0  0  0  0  0  0  0  0  0
   39.7210   29.1370   39.6230 H   0  0  0  0  0  0  0  0  0  0  0  0
   38.5180   29.2300   37.7650 H   0  0  0  0  0  0  0  0  0  0  0  0
   38.5510   30.9640   37.5680 H   0  0  0  0  0  0  0  0  0  0  0  0
   36.6460   29.0310   39.0040 H   0  0  0  0  0  0  0  0  0  0  0  0
   36.2720   30.1990   37.7230 H   0  0  0  0  0  0  0  0  0  0  0  0
   35.9350   31.9060   39.2770 H   0  0  0  0  0  0  0  0  0  0  0  0
   35.6140   30.5550   40.4030 H   0  0  0  0  0  0  0  0  0  0  0  0
   37.1510   32.2510   41.1740 H   0  0  0  0  0  0  0  0  0  0  0  0
   38.8970   33.9160   41.3840 N   0  0  0  0  0  0  0  0  0  0  0  0
   39.0650   33.5440   40.1610 C   0  0  0  0  0  0  0  0  0  0  0  0
   38.2290   32.4580   39.6890 N   0  0  0  0  0  0  0  0  0  0  0  0
   40.0200   34.1590   39.3040 N   0  0  0  0  0  0  0  0  0  0  0  0
   40.6240   33.6460   38.6060 H   0  0  0  0  0  0  0  0  0  0  0  0
   39.4530   34.6910   41.8130 H   0  0  0  0  0  0  0  0  0  0  0  0
   38.1550   32.4700   38.6240 H   0  0  0  0  0  0  0  0  0  0  0  0
   40.1400   35.2100   39.3660 H   0  0  0  0  0  0  0  0  0  0  0  0
   39.1790   30.1150   41.9810 C   0  0  0  0  0  0  0  0  0  0  0  0
   39.7190   31.0080   42.6830 O   0  0  0  0  0  0  0  0  0  0  0  0
   40.3940   27.0700   43.5410 C   0  0  0  0  0  0  0  0  0  0  0  0
   39.3970   26.0970   43.2480 C   0  0  0  0  0  0  0  0  0  0  0  0
   38.3210   26.5520   42.4760 C   0  0  0  0  0  0  0  0  0  0  0  0
   38.3310   27.8480   42.0870 N   0  0  0  0  0  0  0  0  0  0  0  0
   39.2700   28.7270   42.3790 C   0  0  0  0  0  0  0  0  0  0  0  0
   40.3300   28.3280   43.1240 N   0  0  0  0  0  0  0  0  0  0  0  0
   41.2420   26.7430   44.1390 H   0  0  0  0  0  0  0  0  0  0  0  0
   39.4850   25.0840   43.6060 H   0  0  0  0  0  0  0  0  0  0  0  0
   37.2870   25.5690   42.2190 C   0  0  0  0  0  0  0  0  0  0  0  0
   36.2320   25.7390   43.1200 F   0  0  0  0  0  0  0  0  0  0  0  0
   37.8340   24.3220   42.5600 F   0  0  0  0  0  0  0  0  0  0  0  0
   36.7890   25.6030   40.9660 F   0  0  0  0  0  0  0  0  0  0  0  0
  1  7  1  6  0  0  0
  1 25  1  0  0  0  0
  2  9  1  0  0  0  0
  2  1  1  0  0  0  0
  3  4  1  0  0  0  0
  3  2  1  0  0  0  0
  4 12  1  0  0  0  0
  4  5  1  0  0  0  0
  5 15  1  0  0  0  0
  5  6  1  0  0  0  0
  6  1  1  0  0  0  0
  6 16  1  1  0  0  0
  8  2  1  0  0  0  0
 10  3  1  0  0  0  0
 11  3  1  0  0  0  0
 13  4  1  0  0  0  0
 14  5  1  0  0  0  0
 17 22  1  0  0  0  0
 18 17  2  0  0  0  0
 19 18  1  0  0  0  0
 19  6  1  0  0  0  0
 20 24  1  0  0  0  0
 20 18  1  0  0  0  0
 21 20  1  0  0  0  0
 23 19  1  0  0  0  0
 25 31  1  0  0  0  0
 25 26  2  0  0  0  0
 27 33  1  0  0  0  0
 28 27  1  0  0  0  0
 28 34  1  0  0  0  0
 29 28  2  0  0  0  0
 30 31  2  0  0  0  0
 30 29  1  0  0  0  0
 31 32  1  0  0  0  0
 32 27  2  0  0  0  0
 35 29  1  0  0  0  0
 35 37  1  0  0  0  0
 35 36  1  0  0  0  0
 38 35  1  0  0  0  0
M  END
>  <minimizedAffinity>
-5.69006586

$$$$

 OpenBabel03242518523D

 38 39  0  0  1  0  0  0  0  0999 V2000
   36.0340   27.7600   39.1250 C   0  0  2  0  0  0  0  0  0  0  0  0
   36.9100   28.1720   38.0050 C   0  0  0  0  0  0  0  0  0  0  0  0
   36.0520   28.8590   36.9820 C   0  0  0  0  0  0  0  0  0  0  0  0
   34.5880   28.6800   37.1380 C   0  0  0  0  0  0  0  0  0  0  0  0
   34.0810   28.9410   38.5200 C   0  0  0  0  0  0  0  0  0  0  0  0
   35.2080   28.8290   39.5840 C   0  0  2  0  0  0  0  0  0  0  0  0
   35.3400   26.9850   38.6130 H   0  0  0  0  0  0  0  0  0  0  0  0
   37.7750   28.7940   38.2180 H   0  0  0  0  0  0  0  0  0  0  0  0
   37.3690   27.2060   37.6110 H   0  0  0  0  0  0  0  0  0  0  0  0
   36.3000   28.3000   36.0100 H   0  0  0  0  0  0  0  0  0  0  0  0
   36.3910   29.8880   36.7300 H   0  0  0  0  0  0  0  0  0  0  0  0
   34.3430   27.6050   36.8850 H   0  0  0  0  0  0  0  0  0  0  0  0
   34.0880   29.2820   36.3660 H   0  0  0  0  0  0  0  0  0  0  0  0
   33.6890   29.9760   38.5580 H   0  0  0  0  0  0  0  0  0  0  0  0
   33.2570   28.2610   38.8180 H   0  0  0  0  0  0  0  0  0  0  0  0
   34.7800   29.2370   40.4180 H   0  0  0  0  0  0  0  0  0  0  0  0
   35.7330   30.9290   41.4720 N   0  0  0  0  0  0  0  0  0  0  0  0
   36.3710   31.0140   40.3560 C   0  0  0  0  0  0  0  0  0  0  0  0
   35.9620   30.1090   39.2990 N   0  0  0  0  0  0  0  0  0  0  0  0
   37.4290   31.9450   40.1540 N   0  0  0  0  0  0  0  0  0  0  0  0
   38.3170   31.7440   39.6210 H   0  0  0  0  0  0  0  0  0  0  0  0
   35.9560   31.5390   42.2920 H   0  0  0  0  0  0  0  0  0  0  0  0
   36.2530   30.4850   38.3430 H   0  0  0  0  0  0  0  0  0  0  0  0
   37.3230   32.9150   40.5680 H   0  0  0  0  0  0  0  0  0  0  0  0
   36.6930   26.8750   40.1100 C   0  0  0  0  0  0  0  0  0  0  0  0
   36.8860   25.6420   39.9590 O   0  0  0  0  0  0  0  0  0  0  0  0
   36.9590   27.7700   43.6170 C   0  0  0  0  0  0  0  0  0  0  0  0
   38.0330   28.7040   43.6660 C   0  0  0  0  0  0  0  0  0  0  0  0
   38.6220   29.0080   42.4340 C   0  0  0  0  0  0  0  0  0  0  0  0
   38.1240   28.4000   41.3320 N   0  0  0  0  0  0  0  0  0  0  0  0
   37.1290   27.5350   41.3210 C   0  0  0  0  0  0  0  0  0  0  0  0
   36.5300   27.2120   42.4940 N   0  0  0  0  0  0  0  0  0  0  0  0
   36.4830   27.5160   44.5620 H   0  0  0  0  0  0  0  0  0  0  0  0
   38.3540   29.1350   44.6020 H   0  0  0  0  0  0  0  0  0  0  0  0
   39.7450   29.9240   42.4950 C   0  0  0  0  0  0  0  0  0  0  0  0
   40.1310   30.2940   41.2040 F   0  0  0  0  0  0  0  0  0  0  0  0
   40.8330   29.1820   42.9820 F   0  0  0  0  0  0  0  0  0  0  0  0
   39.5090   31.0440   43.2090 F   0  0  0  0  0  0  0  0  0  0  0  0
  1  7  1  6  0  0  0
  1  6  1  0  0  0  0
  1 25  1  0  0  0  0
  2  8  1  0  0  0  0
  2  1  1  0  0  0  0
  3  4  1  0  0  0  0
  3  2  1  0  0  0  0
  4  5  1  0  0  0  0
  5 14  1  0  0  0  0
  5 15  1  0  0  0  0
  5  6  1  0  0  0  0
  6 16  1  1  0  0  0
  9  2  1  0  0  0  0
 10  3  1  0  0  0  0
 11  3  1  0  0  0  0
 12  4  1  0  0  0  0
 13  4  1  0  0  0  0
 17 22  1  0  0  0  0
 18 17  2  0  0  0  0
 19  6  1  0  0  0  0
 19 18  1  0  0  0  0
 20 18  1  0  0  0  0
 20 24  1  0  0  0  0
 21 20  1  0  0  0  0
 23 19  1  0  0  0  0
 25 31  1  0  0  0  0
 26 25  2  0  0  0  0
 27 28  1  0  0  0  0
 27 33  1  0  0  0  0
 28 34  1  0  0  0  0
 29 35  1  0  0  0  0
 29 28  2  0  0  0  0
 30 29  1  0  0  0  0
 31 30  2  0  0  0  0
 31 32  1  0  0  0  0
 32 27  2  0  0  0  0
 35 37  1  0  0  0  0
 35 38  1  0  0  0  0
 36 35  1  0  0  0  0
M  END
>  <minimizedAffinity>
-5.62181139

$$$$

 OpenBabel03242518523D

 38 39  0  0  1  0  0  0  0  0999 V2000
   40.1400   30.1870   41.1540 C   0  0  2  0  0  0  0  0  0  0  0  0
   40.0010   31.4940   41.8340 C   0  0  0  0  0  0  0  0  0  0  0  0
   40.0130   32.5630   40.7790 C   0  0  0  0  0  0  0  0  0  0  0  0
   40.4750   32.1410   39.4340 C   0  0  0  0  0  0  0  0  0  0  0  0
   39.8230   30.8950   38.9240 C   0  0  0  0  0  0  0  0  0  0  0  0
   39.2200   30.0410   40.0730 C   0  0  2  0  0  0  0  0  0  0  0  0
   41.2000   30.2690   40.6920 H   0  0  0  0  0  0  0  0  0  0  0  0
   39.1520   31.6540   42.4920 H   0  0  0  0  0  0  0  0  0  0  0  0
   40.8960   31.5640   42.5360 H   0  0  0  0  0  0  0  0  0  0  0  0
   40.8300   33.2830   41.1420 H   0  0  0  0  0  0  0  0  0  0  0  0
   39.1200   33.2240   40.8000 H   0  0  0  0  0  0  0  0  0  0  0  0
   41.5850   31.9390   39.4990 H   0  0  0  0  0  0  0  0  0  0  0  0
   40.3730   32.9990   38.7550 H   0  0  0  0  0  0  0  0  0  0  0  0
   38.9910   31.1870   38.2530 H   0  0  0  0  0  0  0  0  0  0  0  0
   40.5110   30.2500   38.3410 H   0  0  0  0  0  0  0  0  0  0  0  0
   38.6350   29.3650   39.5770 H   0  0  0  0  0  0  0  0  0  0  0  0
   36.4810   29.1770   39.9950 N   0  0  0  0  0  0  0  0  0  0  0  0
   36.6880   30.3160   40.5640 C   0  0  0  0  0  0  0  0  0  0  0  0
   38.0130   30.8860   40.4190 N   0  0  0  0  0  0  0  0  0  0  0  0
   35.6760   30.9910   41.3030 N   0  0  0  0  0  0  0  0  0  0  0  0
   35.8350   31.5190   42.2030 H   0  0  0  0  0  0  0  0  0  0  0  0
   35.5580   28.6880   40.0440 H   0  0  0  0  0  0  0  0  0  0  0  0
   37.9910   31.9430   40.5730 H   0  0  0  0  0  0  0  0  0  0  0  0
   34.6860   30.9660   40.9250 H   0  0  0  0  0  0  0  0  0  0  0  0
   40.3680   29.0510   42.0730 C   0  0  0  0  0  0  0  0  0  0  0  0
   41.4900   28.6840   42.5070 O   0  0  0  0  0  0  0  0  0  0  0  0
   37.1930   28.3230   43.6770 C   0  0  0  0  0  0  0  0  0  0  0  0
   36.8130   27.0550   43.1540 C   0  0  0  0  0  0  0  0  0  0  0  0
   37.7170   26.4790   42.2550 C   0  0  0  0  0  0  0  0  0  0  0  0
   38.8480   27.1680   41.9730 N   0  0  0  0  0  0  0  0  0  0  0  0
   39.1700   28.3450   42.4720 C   0  0  0  0  0  0  0  0  0  0  0  0
   38.3220   28.9380   43.3480 N   0  0  0  0  0  0  0  0  0  0  0  0
   36.5080   28.7930   44.3790 H   0  0  0  0  0  0  0  0  0  0  0  0
   35.8850   26.5870   43.4460 H   0  0  0  0  0  0  0  0  0  0  0  0
   37.3030   25.2090   41.6910 C   0  0  0  0  0  0  0  0  0  0  0  0
   36.5500   25.4230   40.5330 F   0  0  0  0  0  0  0  0  0  0  0  0
   36.3890   24.6530   42.5990 F   0  0  0  0  0  0  0  0  0  0  0  0
   38.3210   24.3770   41.3910 F   0  0  0  0  0  0  0  0  0  0  0  0
  1  7  1  6  0  0  0
  1  2  1  0  0  0  0
  1 25  1  0  0  0  0
  2  8  1  0  0  0  0
  2  9  1  0  0  0  0
  3 11  1  0  0  0  0
  3 10  1  0  0  0  0
  3  2  1  0  0  0  0
  4 12  1  0  0  0  0
  4  3  1  0  0  0  0
  5  4  1  0  0  0  0
  5  6  1  0  0  0  0
  6 16  1  6  0  0  0
  6 19  1  0  0  0  0
  6  1  1  0  0  0  0
 13  4  1  0  0  0  0
 14  5  1  0  0  0  0
 15  5  1  0  0  0  0
 17 22  1  0  0  0  0
 17 18  2  0  0  0  0
 18 20  1  0  0  0  0
 19 18  1  0  0  0  0
 19 23  1  0  0  0  0
 20 21  1  0  0  0  0
 24 20  1  0  0  0  0
 25 31  1  0  0  0  0
 25 26  2  0  0  0  0
 27 33  1  0  0  0  0
 28 34  1  0  0  0  0
 28 27  2  0  0  0  0
 29 28  1  0  0  0  0
 30 29  2  0  0  0  0
 30 31  1  0  0  0  0
 31 32  2  0  0  0  0
 32 27  1  0  0  0  0
 35 29  1  0  0  0  0
 35 37  1  0  0  0  0
 36 35  1  0  0  0  0
 38 35  1  0  0  0  0
M  END
>  <minimizedAffinity>
-5.60533619

$$$$

 OpenBabel03242518523D

 38 39  0  0  1  0  0  0  0  0999 V2000
   38.4960   28.1950   42.0370 C   0  0  2  0  0  0  0  0  0  0  0  0
   38.3760   27.1830   40.9640 C   0  0  0  0  0  0  0  0  0  0  0  0
   37.3310   26.1890   41.3860 C   0  0  0  0  0  0  0  0  0  0  0  0
   36.9330   26.2340   42.8130 C   0  0  0  0  0  0  0  0  0  0  0  0
   36.6010   27.6030   43.3160 C   0  0  0  0  0  0  0  0  0  0  0  0
   37.2270   28.7160   42.4300 C   0  0  2  0  0  0  0  0  0  0  0  0
   38.8940   27.5600   42.9210 H   0  0  0  0  0  0  0  0  0  0  0  0
   38.1620   27.5150   39.9520 H   0  0  0  0  0  0  0  0  0  0  0  0
   39.4120   26.7150   40.8740 H   0  0  0  0  0  0  0  0  0  0  0  0
   37.8670   25.1800   41.2760 H   0  0  0  0  0  0  0  0  0  0  0  0
   36.5030   26.0720   40.6540 H   0  0  0  0  0  0  0  0  0  0  0  0
   37.8040   25.8520   43.4260 H   0  0  0  0  0  0  0  0  0  0  0  0
   36.1260   25.5040   42.9640 H   0  0  0  0  0  0  0  0  0  0  0  0
   35.5010   27.7290   43.2810 H   0  0  0  0  0  0  0  0  0  0  0  0
   36.9240   27.7740   44.3620 H   0  0  0  0  0  0  0  0  0  0  0  0
   36.7490   29.5620   42.7480 H   0  0  0  0  0  0  0  0  0  0  0  0
   35.7560   30.8820   41.2480 N   0  0  0  0  0  0  0  0  0  0  0  0
   35.7960   29.7950   40.5560 C   0  0  0  0  0  0  0  0  0  0  0  0
   36.3270   28.6190   41.2170 N   0  0  0  0  0  0  0  0  0  0  0  0
   35.3450   29.7360   39.2070 N   0  0  0  0  0  0  0  0  0  0  0  0
   35.8150   29.1900   38.4360 H   0  0  0  0  0  0  0  0  0  0  0  0
   35.3890   31.7800   40.8580 H   0  0  0  0  0  0  0  0  0  0  0  0
   35.9840   27.7270   40.7400 H   0  0  0  0  0  0  0  0  0  0  0  0
   34.4710   30.2790   38.9510 H   0  0  0  0  0  0  0  0  0  0  0  0
   39.6400   29.1160   41.8700 C   0  0  0  0  0  0  0  0  0  0  0  0
   40.8100   28.8990   42.2790 O   0  0  0  0  0  0  0  0  0  0  0  0
   39.2260   32.6590   41.1950 C   0  0  0  0  0  0  0  0  0  0  0  0
   38.8580   32.7190   39.8210 C   0  0  0  0  0  0  0  0  0  0  0  0
   38.7440   31.4830   39.1740 C   0  0  0  0  0  0  0  0  0  0  0  0
   38.9880   30.3680   39.9020 N   0  0  0  0  0  0  0  0  0  0  0  0
   39.3320   30.3460   41.1750 C   0  0  0  0  0  0  0  0  0  0  0  0
   39.4530   31.5220   41.8400 N   0  0  0  0  0  0  0  0  0  0  0  0
   39.3210   33.6050   41.7230 H   0  0  0  0  0  0  0  0  0  0  0  0
   38.6830   33.6640   39.3320 H   0  0  0  0  0  0  0  0  0  0  0  0
   38.4140   31.5520   37.7640 C   0  0  0  0  0  0  0  0  0  0  0  0
   37.2500   32.3050   37.5830 F   0  0  0  0  0  0  0  0  0  0  0  0
   38.0470   30.2520   37.3800 F   0  0  0  0  0  0  0  0  0  0  0  0
   39.3870   32.0760   36.9910 F   0  0  0  0  0  0  0  0  0  0  0  0
  1  6  1  0  0  0  0
  1  7  1  1  0  0  0
  2  3  1  0  0  0  0
  2  1  1  0  0  0  0
  3  4  1  0  0  0  0
  4 13  1  0  0  0  0
  4  5  1  0  0  0  0
  4 12  1  0  0  0  0
  5 15  1  0  0  0  0
  6 16  1  1  0  0  0
  6  5  1  0  0  0  0
  8  2  1  0  0  0  0
  9  2  1  0  0  0  0
 10  3  1  0  0  0  0
 11  3  1  0  0  0  0
 14  5  1  0  0  0  0
 18 19  1  0  0  0  0
 18 17  2  0  0  0  0
 19  6  1  0  0  0  0
 20 18  1  0  0  0  0
 21 20  1  0  0  0  0
 22 17  1  0  0  0  0
 23 19  1  0  0  0  0
 24 20  1  0  0  0  0
 25  1  1  0  0  0  0
 25 26  2  0  0  0  0
 27 33  1  0  0  0  0
 27 32  1  0  0  0  0
 28 27  2  0  0  0  0
 29 28  1  0  0  0  0
 29 30  2  0  0  0  0
 30 31  1  0  0  0  0
 31 32  2  0  0  0  0
 31 25  1  0  0  0  0
 34 28  1  0  0  0  0
 35 29  1  0  0  0  0
 36 35  1  0  0  0  0
 37 35  1  0  0  0  0
 38 35  1  0  0  0  0
M  END
>  <minimizedAffinity>
-5.60416079

$$$$

 OpenBabel03242518523D

 38 39  0  0  1  0  0  0  0  0999 V2000
   37.2860   29.2850   38.9640 C   0  0  2  0  0  0  0  0  0  0  0  0
   38.6340   28.8070   38.5850 C   0  0  0  0  0  0  0  0  0  0  0  0
   38.5010   28.0290   37.3060 C   0  0  0  0  0  0  0  0  0  0  0  0
   37.1210   27.6440   36.9220 C   0  0  0  0  0  0  0  0  0  0  0  0
   36.1350   28.7680   36.9680 C   0  0  0  0  0  0  0  0  0  0  0  0
   36.6180   29.9290   37.8800 C   0  0  2  0  0  0  0  0  0  0  0  0
   36.7270   28.2900   39.1680 H   0  0  0  0  0  0  0  0  0  0  0  0
   39.4360   29.5310   38.4770 H   0  0  0  0  0  0  0  0  0  0  0  0
   38.9790   28.1580   39.4560 H   0  0  0  0  0  0  0  0  0  0  0  0
   39.0120   27.0310   37.5500 H   0  0  0  0  0  0  0  0  0  0  0  0
   39.1460   28.4050   36.4830 H   0  0  0  0  0  0  0  0  0  0  0  0
   36.7680   26.8550   37.6510 H   0  0  0  0  0  0  0  0  0  0  0  0
   37.1670   27.1410   35.9460 H   0  0  0  0  0  0  0  0  0  0  0  0
   36.0210   29.1730   35.9440 H   0  0  0  0  0  0  0  0  0  0  0  0
   35.1300   28.4530   37.3160 H   0  0  0  0  0  0  0  0  0  0  0  0
   35.9760   30.6900   37.6460 H   0  0  0  0  0  0  0  0  0  0  0  0
   37.5150   32.6580   37.9150 N   0  0  0  0  0  0  0  0  0  0  0  0
   38.2410   31.8440   37.2270 C   0  0  0  0  0  0  0  0  0  0  0  0
   37.6980   30.5200   36.9990 N   0  0  0  0  0  0  0  0  0  0  0  0
   39.5150   32.2120   36.7120 N   0  0  0  0  0  0  0  0  0  0  0  0
   40.3610   31.5820   36.6840 H   0  0  0  0  0  0  0  0  0  0  0  0
   37.8220   33.6340   38.1300 H   0  0  0  0  0  0  0  0  0  0  0  0
   38.1500   30.0650   36.1450 H   0  0  0  0  0  0  0  0  0  0  0  0
   39.6300   33.1920   36.3230 H   0  0  0  0  0  0  0  0  0  0  0  0
   37.2170   29.8790   40.3170 C   0  0  0  0  0  0  0  0  0  0  0  0
   37.0420   31.1000   40.5630 O   0  0  0  0  0  0  0  0  0  0  0  0
   37.5230   28.5430   43.6780 C   0  0  0  0  0  0  0  0  0  0  0  0
   37.5420   27.1300   43.5000 C   0  0  0  0  0  0  0  0  0  0  0  0
   37.4690   26.6910   42.1730 C   0  0  0  0  0  0  0  0  0  0  0  0
   37.3890   27.6310   41.2030 N   0  0  0  0  0  0  0  0  0  0  0  0
   37.3690   28.9350   41.4020 C   0  0  0  0  0  0  0  0  0  0  0  0
   37.4390   29.4030   42.6720 N   0  0  0  0  0  0  0  0  0  0  0  0
   37.5790   28.9120   44.7000 H   0  0  0  0  0  0  0  0  0  0  0  0
   37.6100   26.4630   44.3440 H   0  0  0  0  0  0  0  0  0  0  0  0
   37.4430   25.2510   42.0000 C   0  0  0  0  0  0  0  0  0  0  0  0
   38.5430   24.6740   42.6390 F   0  0  0  0  0  0  0  0  0  0  0  0
   37.6730   25.0140   40.6350 F   0  0  0  0  0  0  0  0  0  0  0  0
   36.3220   24.6580   42.4570 F   0  0  0  0  0  0  0  0  0  0  0  0
  1  7  1  1  0  0  0
  1 25  1  0  0  0  0
  2  1  1  0  0  0  0
  2  9  1  0  0  0  0
  3 10  1  0  0  0  0
  3  2  1  0  0  0  0
  4  5  1  0  0  0  0
  4  3  1  0  0  0  0
  4 12  1  0  0  0  0
  5 15  1  0  0  0  0
  5  6  1  0  0  0  0
  6 16  1  1  0  0  0
  6  1  1  0  0  0  0
  8  2  1  0  0  0  0
 11  3  1  0  0  0  0
 13  4  1  0  0  0  0
 14  5  1  0  0  0  0
 17 22  1  0  0  0  0
 18 17  2  0  0  0  0
 19 18  1  0  0  0  0
 19  6  1  0  0  0  0
 20 18  1  0  0  0  0
 21 20  1  0  0  0  0
 23 19  1  0  0  0  0
 24 20  1  0  0  0  0
 25 26  2  0  0  0  0
 25 31  1  0  0  0  0
 27 33  1  0  0  0  0
 28 27  1  0  0  0  0
 28 34  1  0  0  0  0
 29 28  2  0  0  0  0
 30 31  2  0  0  0  0
 30 29  1  0  0  0  0
 31 32  1  0  0  0  0
 32 27  2  0  0  0  0
 35 29  1  0  0  0  0
 35 38  1  0  0  0  0
 35 36  1  0  0  0  0
 37 35  1  0  0  0  0
M  END
>  <minimizedAffinity>
-5.59181309

$$$$
