
 OpenBabel03242522393D

 39 40  0  0  0  0  0  0  0  0999 V2000
   46.2350   31.6560   45.6770 C   0  0  0  0  0  0  0  0  0  0  0  0
   46.1790   30.7380   45.0190 H   0  0  0  0  0  0  0  0  0  0  0  0
   45.2000   31.9110   45.8940 H   0  0  0  0  0  0  0  0  0  0  0  0
   47.3940   32.2520   47.8020 C   0  0  0  0  0  0  0  0  0  0  0  0
   47.0710   31.2790   46.8210 C   0  0  0  0  0  0  0  0  0  0  0  0
   47.5840   30.0030   47.0100 C   0  0  0  0  0  0  0  0  0  0  0  0
   48.3530   29.7560   48.1030 N   0  0  0  0  0  0  0  0  0  0  0  0
   48.6290   30.7010   48.9990 C   0  0  0  0  0  0  0  0  0  0  0  0
   48.1620   31.9360   48.8610 N   0  0  0  0  0  0  0  0  0  0  0  0
   47.0400   33.2740   47.7430 H   0  0  0  0  0  0  0  0  0  0  0  0
   47.3460   29.2680   46.2770 H   0  0  0  0  0  0  0  0  0  0  0  0
   49.4850   30.3380   50.1720 C   0  0  0  0  0  0  0  0  0  0  0  0
   49.0070   30.7990   51.0600 H   0  0  0  0  0  0  0  0  0  0  0  0
   49.5430   29.2460   50.3090 H   0  0  0  0  0  0  0  0  0  0  0  0
   51.4530   28.6400   48.9870 N   0  0  0  0  0  0  0  0  0  0  0  0
   51.6280   29.8390   49.4070 C   0  0  0  0  0  0  0  0  0  0  0  0
   50.8100   30.9070   49.8990 N   0  0  0  0  0  0  0  0  0  0  0  0
   53.0440   29.7780   49.2120 N   0  0  0  0  0  0  0  0  0  0  0  0
   53.7280   29.4600   49.9590 H   0  0  0  0  0  0  0  0  0  0  0  0
   50.5700   28.1280   48.9060 H   0  0  0  0  0  0  0  0  0  0  0  0
   51.3380   31.7880   49.9390 H   0  0  0  0  0  0  0  0  0  0  0  0
   53.5770   30.0250   48.3470 H   0  0  0  0  0  0  0  0  0  0  0  0
   47.0000   32.6800   44.8750 C   0  0  0  0  0  0  0  0  0  0  0  0
   47.9050   33.0560   45.4390 H   0  0  0  0  0  0  0  0  0  0  0  0
   47.4700   32.2350   43.9490 H   0  0  0  0  0  0  0  0  0  0  0  0
   46.5030   34.5060   43.3050 C   0  0  0  0  0  0  0  0  0  0  0  0
   46.2390   33.8740   44.5110 C   0  0  0  0  0  0  0  0  0  0  0  0
   45.2930   34.3160   45.3870 C   0  0  0  0  0  0  0  0  0  0  0  0
   44.5640   35.4380   45.0630 C   0  0  0  0  0  0  0  0  0  0  0  0
   44.7630   36.1190   43.8940 C   0  0  0  0  0  0  0  0  0  0  0  0
   45.7440   35.6140   43.0460 C   0  0  0  0  0  0  0  0  0  0  0  0
   45.0350   33.8830   46.3320 H   0  0  0  0  0  0  0  0  0  0  0  0
   43.7890   35.8470   45.7200 H   0  0  0  0  0  0  0  0  0  0  0  0
   44.2100   37.0090   43.5990 H   0  0  0  0  0  0  0  0  0  0  0  0
   45.9080   36.1450   42.1190 H   0  0  0  0  0  0  0  0  0  0  0  0
   47.7030   33.9750   42.1620 S   0  0  0  0  0  0  0  0  0  0  0  0
   49.1040   34.4480   42.5250 O   0  0  0  0  0  0  0  0  0  0  0  0
   47.4290   34.6390   40.8210 O   0  0  0  0  0  0  0  0  0  0  0  0
   47.6790   32.6170   41.9540 H   0  0  0  0  0  0  0  0  0  0  0  0
  1  3  1  0  0  0  0
  1  5  1  0  0  0  0
  2  1  1  0  0  0  0
  4  9  1  0  0  0  0
  5  6  1  0  0  0  0
  5  4  2  0  0  0  0
  6  7  2  0  0  0  0
  7  8  1  0  0  0  0
  8 12  1  0  0  0  0
  9  8  2  0  0  0  0
 10  4  1  0  0  0  0
 11  6  1  0  0  0  0
 12 14  1  0  0  0  0
 12 13  1  0  0  0  0
 15 16  2  0  0  0  0
 16 17  1  0  0  0  0
 17 21  1  0  0  0  0
 17 12  1  0  0  0  0
 18 16  1  0  0  0  0
 18 19  1  0  0  0  0
 20 15  1  0  0  0  0
 22 18  1  0  0  0  0
 23 24  1  0  0  0  0
 23  1  1  0  0  0  0
 25 23  1  0  0  0  0
 26 27  1  0  0  0  0
 27 23  1  0  0  0  0
 27 28  2  0  0  0  0
 28 32  1  0  0  0  0
 29 28  1  0  0  0  0
 29 33  1  0  0  0  0
 30 29  2  0  0  0  0
 31 26  2  0  0  0  0
 31 30  1  0  0  0  0
 34 30  1  0  0  0  0
 35 31  1  0  0  0  0
 36 37  2  0  0  0  0
 36 26  1  0  0  0  0
 38 36  2  0  0  0  0
 39 36  1  0  0  0  0
M  END
>  <minimizedAffinity>
-4.98874044

>  <minimizedRMSD>
0.395643532

$$$$
