
 OpenBabel03242518333D

 27 28  0  0  0  0  0  0  0  0999 V2000
   37.1100   31.1400   39.0400 C   0  0  0  0  0  0  0  0  0  0  0  0
   36.7390   30.5350   37.8720 C   0  0  0  0  0  0  0  0  0  0  0  0
   37.6400   30.8900   36.8840 C   0  0  0  0  0  0  0  0  0  0  0  0
   38.5430   31.7220   37.5290 C   0  0  0  0  0  0  0  0  0  0  0  0
   38.2100   31.8520   38.7880 O   0  0  0  0  0  0  0  0  0  0  0  0
   35.8780   29.8890   37.7660 H   0  0  0  0  0  0  0  0  0  0  0  0
   37.6470   30.5890   35.8370 H   0  0  0  0  0  0  0  0  0  0  0  0
   41.1690   31.7910   38.5930 N   0  0  0  0  0  0  0  0  0  0  0  0
   40.9510   32.4700   37.4990 C   0  0  0  0  0  0  0  0  0  0  0  0
   39.6630   32.3410   36.9080 N   0  0  0  0  0  0  0  0  0  0  0  0
   41.9610   33.3110   36.9110 N   0  0  0  0  0  0  0  0  0  0  0  0
   41.5850   34.1800   36.4510 H   0  0  0  0  0  0  0  0  0  0  0  0
   42.1270   31.8850   39.0360 H   0  0  0  0  0  0  0  0  0  0  0  0
   39.5890   32.7480   35.9490 H   0  0  0  0  0  0  0  0  0  0  0  0
   42.9730   33.0770   36.9400 H   0  0  0  0  0  0  0  0  0  0  0  0
   36.5300   31.1000   40.3210 O   0  0  0  0  0  0  0  0  0  0  0  0
   36.0700   29.8990   40.8620 C   0  0  0  0  0  0  0  0  0  0  0  0
   34.9240   29.5320   40.4990 O   0  0  0  0  0  0  0  0  0  0  0  0
   36.9590   29.2330   41.7650 C   0  0  0  0  0  0  0  0  0  0  0  0
   36.5530   27.9600   42.0960 C   0  0  0  0  0  0  0  0  0  0  0  0
   37.3840   27.2520   42.9820 C   0  0  0  0  0  0  0  0  0  0  0  0
   38.5050   27.8380   43.4500 N   0  0  0  0  0  0  0  0  0  0  0  0
   38.8480   29.1020   43.0830 C   0  0  0  0  0  0  0  0  0  0  0  0
   38.0680   29.7940   42.2390 N   0  0  0  0  0  0  0  0  0  0  0  0
   35.6580   27.4610   41.7370 H   0  0  0  0  0  0  0  0  0  0  0  0
   37.1450   26.2410   43.2990 H   0  0  0  0  0  0  0  0  0  0  0  0
   39.7680   29.5050   43.5040 H   0  0  0  0  0  0  0  0  0  0  0  0
  1 16  1  0  0  0  0
  2  1  2  0  0  0  0
  3  4  2  0  0  0  0
  3  2  1  0  0  0  0
  4  5  1  0  0  0  0
  5  1  1  0  0  0  0
  6  2  1  0  0  0  0
  7  3  1  0  0  0  0
  8 13  1  0  0  0  0
  9  8  2  0  0  0  0
 10  9  1  0  0  0  0
 10  4  1  0  0  0  0
 11 15  1  0  0  0  0
 11  9  1  0  0  0  0
 12 11  1  0  0  0  0
 14 10  1  0  0  0  0
 16 17  1  0  0  0  0
 17 19  1  0  0  0  0
 18 17  2  0  0  0  0
 19 20  2  0  0  0  0
 19 24  1  0  0  0  0
 20 21  1  0  0  0  0
 21 26  1  0  0  0  0
 21 22  2  0  0  0  0
 23 22  1  0  0  0  0
 23 27  1  0  0  0  0
 24 23  2  0  0  0  0
 25 20  1  0  0  0  0
M  END
>  <minimizedAffinity>
-5.29724121

$$$$

 OpenBabel03242518333D

 27 28  0  0  0  0  0  0  0  0999 V2000
   36.3520   28.7870   41.7120 C   0  0  0  0  0  0  0  0  0  0  0  0
   35.6040   28.7120   40.5700 C   0  0  0  0  0  0  0  0  0  0  0  0
   35.6050   29.9520   39.9580 C   0  0  0  0  0  0  0  0  0  0  0  0
   36.3830   30.7440   40.7910 C   0  0  0  0  0  0  0  0  0  0  0  0
   36.8060   30.0370   41.8090 O   0  0  0  0  0  0  0  0  0  0  0  0
   35.1050   27.8160   40.2250 H   0  0  0  0  0  0  0  0  0  0  0  0
   35.1120   30.2490   39.0320 H   0  0  0  0  0  0  0  0  0  0  0  0
   38.9800   31.8400   40.5040 N   0  0  0  0  0  0  0  0  0  0  0  0
   37.9790   32.6780   40.5370 C   0  0  0  0  0  0  0  0  0  0  0  0
   36.6710   32.1180   40.5680 N   0  0  0  0  0  0  0  0  0  0  0  0
   38.1810   34.1040   40.5430 N   0  0  0  0  0  0  0  0  0  0  0  0
   37.4730   34.6370   41.1100 H   0  0  0  0  0  0  0  0  0  0  0  0
   39.9550   32.2540   40.4810 H   0  0  0  0  0  0  0  0  0  0  0  0
   35.9060   32.8100   40.4110 H   0  0  0  0  0  0  0  0  0  0  0  0
   38.9590   34.5630   40.0290 H   0  0  0  0  0  0  0  0  0  0  0  0
   36.6570   27.8100   42.6760 O   0  0  0  0  0  0  0  0  0  0  0  0
   37.9310   27.2470   42.7490 C   0  0  0  0  0  0  0  0  0  0  0  0
   38.7610   27.8480   43.4770 O   0  0  0  0  0  0  0  0  0  0  0  0
   38.1380   26.0550   41.9840 C   0  0  0  0  0  0  0  0  0  0  0  0
   37.1180   25.1380   42.1090 C   0  0  0  0  0  0  0  0  0  0  0  0
   37.2620   23.9430   41.3820 C   0  0  0  0  0  0  0  0  0  0  0  0
   38.3600   23.7600   40.6210 N   0  0  0  0  0  0  0  0  0  0  0  0
   39.3330   24.7070   40.5420 C   0  0  0  0  0  0  0  0  0  0  0  0
   39.2140   25.8540   41.2280 N   0  0  0  0  0  0  0  0  0  0  0  0
   36.2230   25.2570   42.7120 H   0  0  0  0  0  0  0  0  0  0  0  0
   36.5080   23.1630   41.4180 H   0  0  0  0  0  0  0  0  0  0  0  0
   40.1890   24.4840   39.9070 H   0  0  0  0  0  0  0  0  0  0  0  0
  1  5  1  0  0  0  0
  1 16  1  0  0  0  0
  2  1  2  0  0  0  0
  3  2  1  0  0  0  0
  3  4  2  0  0  0  0
  4  5  1  0  0  0  0
  6  2  1  0  0  0  0
  7  3  1  0  0  0  0
  8  9  2  0  0  0  0
  9 11  1  0  0  0  0
  9 10  1  0  0  0  0
 10  4  1  0  0  0  0
 11 12  1  0  0  0  0
 13  8  1  0  0  0  0
 14 10  1  0  0  0  0
 15 11  1  0  0  0  0
 16 17  1  0  0  0  0
 17 18  2  0  0  0  0
 19 20  1  0  0  0  0
 19 17  1  0  0  0  0
 20 25  1  0  0  0  0
 21 26  1  0  0  0  0
 21 20  2  0  0  0  0
 22 21  1  0  0  0  0
 23 22  2  0  0  0  0
 23 24  1  0  0  0  0
 24 19  2  0  0  0  0
 27 23  1  0  0  0  0
M  END
>  <minimizedAffinity>
-5.24242926

$$$$

 OpenBabel03242518333D

 27 28  0  0  0  0  0  0  0  0999 V2000
   37.1470   29.6130   40.9930 C   0  0  0  0  0  0  0  0  0  0  0  0
   36.2920   30.6750   41.0970 C   0  0  0  0  0  0  0  0  0  0  0  0
   36.8030   31.7280   40.3610 C   0  0  0  0  0  0  0  0  0  0  0  0
   37.9840   31.2310   39.8280 C   0  0  0  0  0  0  0  0  0  0  0  0
   38.1610   29.9930   40.2140 O   0  0  0  0  0  0  0  0  0  0  0  0
   35.3740   30.6640   41.6680 H   0  0  0  0  0  0  0  0  0  0  0  0
   36.3810   32.7230   40.2230 H   0  0  0  0  0  0  0  0  0  0  0  0
   38.2290   30.8970   37.0250 N   0  0  0  0  0  0  0  0  0  0  0  0
   39.0670   31.7150   37.6040 C   0  0  0  0  0  0  0  0  0  0  0  0
   38.8680   31.9650   38.9900 N   0  0  0  0  0  0  0  0  0  0  0  0
   40.1440   32.3380   36.8790 N   0  0  0  0  0  0  0  0  0  0  0  0
   41.0210   32.4760   37.4450 H   0  0  0  0  0  0  0  0  0  0  0  0
   38.3740   30.7080   35.9920 H   0  0  0  0  0  0  0  0  0  0  0  0
   39.4380   32.7540   39.3680 H   0  0  0  0  0  0  0  0  0  0  0  0
   40.0590   32.6260   35.8850 H   0  0  0  0  0  0  0  0  0  0  0  0
   37.0820   28.3230   41.5480 O   0  0  0  0  0  0  0  0  0  0  0  0
   37.6810   28.0400   42.7760 C   0  0  0  0  0  0  0  0  0  0  0  0
   37.5760   28.9270   43.6610 O   0  0  0  0  0  0  0  0  0  0  0  0
   38.3440   26.7750   42.8770 C   0  0  0  0  0  0  0  0  0  0  0  0
   37.6830   25.7550   42.2320 C   0  0  0  0  0  0  0  0  0  0  0  0
   38.2830   24.4850   42.2950 C   0  0  0  0  0  0  0  0  0  0  0  0
   39.4430   24.3340   42.9650 N   0  0  0  0  0  0  0  0  0  0  0  0
   40.0450   25.3850   43.5830 C   0  0  0  0  0  0  0  0  0  0  0  0
   39.4890   26.6050   43.5340 N   0  0  0  0  0  0  0  0  0  0  0  0
   36.7490   25.8450   41.6850 H   0  0  0  0  0  0  0  0  0  0  0  0
   37.8340   23.6200   41.8150 H   0  0  0  0  0  0  0  0  0  0  0  0
   40.9800   25.1820   44.1040 H   0  0  0  0  0  0  0  0  0  0  0  0
  1  2  2  0  0  0  0
  1 16  1  0  0  0  0
  2  6  1  0  0  0  0
  3  2  1  0  0  0  0
  4  5  1  0  0  0  0
  4  3  2  0  0  0  0
  5  1  1  0  0  0  0
  7  3  1  0  0  0  0
  8  9  2  0  0  0  0
  9 10  1  0  0  0  0
 10 14  1  0  0  0  0
 10  4  1  0  0  0  0
 11 12  1  0  0  0  0
 11  9  1  0  0  0  0
 13  8  1  0  0  0  0
 15 11  1  0  0  0  0
 16 17  1  0  0  0  0
 17 19  1  0  0  0  0
 17 18  2  0  0  0  0
 19 24  1  0  0  0  0
 20 21  1  0  0  0  0
 20 19  2  0  0  0  0
 21 22  2  0  0  0  0
 22 23  1  0  0  0  0
 23 27  1  0  0  0  0
 24 23  2  0  0  0  0
 25 20  1  0  0  0  0
 26 21  1  0  0  0  0
M  END
>  <minimizedAffinity>
-5.23257828

$$$$

 OpenBabel03242518333D

 27 28  0  0  0  0  0  0  0  0999 V2000
   36.9580   30.9220   38.9740 C   0  0  0  0  0  0  0  0  0  0  0  0
   36.6620   30.2890   37.7990 C   0  0  0  0  0  0  0  0  0  0  0  0
   37.5620   30.7040   36.8340 C   0  0  0  0  0  0  0  0  0  0  0  0
   38.3870   31.6000   37.4990 C   0  0  0  0  0  0  0  0  0  0  0  0
   38.0110   31.7090   38.7480 O   0  0  0  0  0  0  0  0  0  0  0  0
   35.8520   29.5840   37.6730 H   0  0  0  0  0  0  0  0  0  0  0  0
   37.6190   30.4010   35.7890 H   0  0  0  0  0  0  0  0  0  0  0  0
   41.0810   31.4530   38.3640 N   0  0  0  0  0  0  0  0  0  0  0  0
   40.8060   32.3050   37.4130 C   0  0  0  0  0  0  0  0  0  0  0  0
   39.4770   32.2940   36.9050 N   0  0  0  0  0  0  0  0  0  0  0  0
   41.7950   33.2150   36.8970 N   0  0  0  0  0  0  0  0  0  0  0  0
   41.4120   34.1520   36.6120 H   0  0  0  0  0  0  0  0  0  0  0  0
   42.0710   31.4590   38.7450 H   0  0  0  0  0  0  0  0  0  0  0  0
   39.3470   32.8540   36.0340 H   0  0  0  0  0  0  0  0  0  0  0  0
   42.8000   32.9630   36.8130 H   0  0  0  0  0  0  0  0  0  0  0  0
   36.3470   30.8450   40.2380 O   0  0  0  0  0  0  0  0  0  0  0  0
   35.8750   29.6290   40.7340 C   0  0  0  0  0  0  0  0  0  0  0  0
   34.7490   29.2600   40.3150 O   0  0  0  0  0  0  0  0  0  0  0  0
   36.7320   28.9500   41.6600 C   0  0  0  0  0  0  0  0  0  0  0  0
   37.7120   29.7560   42.1930 C   0  0  0  0  0  0  0  0  0  0  0  0
   38.5870   29.1480   43.1100 C   0  0  0  0  0  0  0  0  0  0  0  0
   38.4270   27.8440   43.4120 N   0  0  0  0  0  0  0  0  0  0  0  0
   37.4370   27.1030   42.8470 C   0  0  0  0  0  0  0  0  0  0  0  0
   36.5910   27.6650   41.9700 N   0  0  0  0  0  0  0  0  0  0  0  0
   37.8650   30.8080   41.9710 H   0  0  0  0  0  0  0  0  0  0  0  0
   39.3900   29.7050   43.5830 H   0  0  0  0  0  0  0  0  0  0  0  0
   37.3740   26.0560   43.1420 H   0  0  0  0  0  0  0  0  0  0  0  0
  1 16  1  0  0  0  0
  2  1  2  0  0  0  0
  3  4  2  0  0  0  0
  3  2  1  0  0  0  0
  4  5  1  0  0  0  0
  5  1  1  0  0  0  0
  6  2  1  0  0  0  0
  7  3  1  0  0  0  0
  8 13  1  0  0  0  0
  9  8  2  0  0  0  0
 10  9  1  0  0  0  0
 10  4  1  0  0  0  0
 11  9  1  0  0  0  0
 12 11  1  0  0  0  0
 14 10  1  0  0  0  0
 15 11  1  0  0  0  0
 16 17  1  0  0  0  0
 17 19  1  0  0  0  0
 18 17  2  0  0  0  0
 19 24  2  0  0  0  0
 19 20  1  0  0  0  0
 20 21  2  0  0  0  0
 21 22  1  0  0  0  0
 21 26  1  0  0  0  0
 23 27  1  0  0  0  0
 23 22  2  0  0  0  0
 24 23  1  0  0  0  0
 25 20  1  0  0  0  0
M  END
>  <minimizedAffinity>
-5.19684839

$$$$

 OpenBabel03242518333D

 27 28  0  0  0  0  0  0  0  0999 V2000
   37.2530   27.0370   42.5130 C   0  0  0  0  0  0  0  0  0  0  0  0
   37.5750   27.6740   43.6790 C   0  0  0  0  0  0  0  0  0  0  0  0
   37.8490   29.0000   43.3980 C   0  0  0  0  0  0  0  0  0  0  0  0
   37.6720   29.1020   42.0260 C   0  0  0  0  0  0  0  0  0  0  0  0
   37.3250   27.9400   41.5340 O   0  0  0  0  0  0  0  0  0  0  0  0
   37.6020   27.1950   44.6480 H   0  0  0  0  0  0  0  0  0  0  0  0
   38.1370   29.7910   44.0900 H   0  0  0  0  0  0  0  0  0  0  0  0
   35.5890   30.8540   41.2390 N   0  0  0  0  0  0  0  0  0  0  0  0
   36.7860   31.1100   40.7850 C   0  0  0  0  0  0  0  0  0  0  0  0
   37.8470   30.2960   41.2720 N   0  0  0  0  0  0  0  0  0  0  0  0
   37.0310   32.1640   39.8350 N   0  0  0  0  0  0  0  0  0  0  0  0
   37.7940   31.9520   39.1420 H   0  0  0  0  0  0  0  0  0  0  0  0
   34.7970   31.4590   40.8780 H   0  0  0  0  0  0  0  0  0  0  0  0
   38.8000   30.6440   41.0290 H   0  0  0  0  0  0  0  0  0  0  0  0
   36.4980   33.0560   39.8370 H   0  0  0  0  0  0  0  0  0  0  0  0
   36.9000   25.7000   42.2630 O   0  0  0  0  0  0  0  0  0  0  0  0
   37.8480   24.7780   41.8180 C   0  0  0  0  0  0  0  0  0  0  0  0
   39.0080   24.9080   42.2860 O   0  0  0  0  0  0  0  0  0  0  0  0
   37.3850   23.7980   40.8830 C   0  0  0  0  0  0  0  0  0  0  0  0
   36.1510   24.0900   40.3480 C   0  0  0  0  0  0  0  0  0  0  0  0
   35.6390   23.1640   39.4210 C   0  0  0  0  0  0  0  0  0  0  0  0
   36.3610   22.0690   39.1130 N   0  0  0  0  0  0  0  0  0  0  0  0
   37.5760   21.8390   39.6800 C   0  0  0  0  0  0  0  0  0  0  0  0
   38.0810   22.7100   40.5660 N   0  0  0  0  0  0  0  0  0  0  0  0
   35.5460   24.9630   40.5750 H   0  0  0  0  0  0  0  0  0  0  0  0
   34.6730   23.3120   38.9460 H   0  0  0  0  0  0  0  0  0  0  0  0
   38.0970   20.9310   39.3800 H   0  0  0  0  0  0  0  0  0  0  0  0
  1  2  2  0  0  0  0
  2  6  1  0  0  0  0
  3  2  1  0  0  0  0
  3  7  1  0  0  0  0
  4  3  2  0  0  0  0
  5  4  1  0  0  0  0
  5  1  1  0  0  0  0
  9  8  2  0  0  0  0
  9 10  1  0  0  0  0
 10  4  1  0  0  0  0
 11 15  1  0  0  0  0
 11  9  1  0  0  0  0
 12 11  1  0  0  0  0
 13  8  1  0  0  0  0
 14 10  1  0  0  0  0
 16  1  1  0  0  0  0
 17 16  1  0  0  0  0
 17 18  2  0  0  0  0
 19 17  1  0  0  0  0
 20 25  1  0  0  0  0
 20 19  2  0  0  0  0
 21 20  1  0  0  0  0
 22 21  2  0  0  0  0
 22 23  1  0  0  0  0
 23 24  2  0  0  0  0
 24 19  1  0  0  0  0
 26 21  1  0  0  0  0
 27 23  1  0  0  0  0
M  END
>  <minimizedAffinity>
-5.16508818

$$$$

 OpenBabel03242518333D

 27 28  0  0  0  0  0  0  0  0999 V2000
   36.4270   28.8140   41.6900 C   0  0  0  0  0  0  0  0  0  0  0  0
   35.6910   28.7500   40.5400 C   0  0  0  0  0  0  0  0  0  0  0  0
   35.6930   29.9980   39.9440 C   0  0  0  0  0  0  0  0  0  0  0  0
   36.4580   30.7830   40.7950 C   0  0  0  0  0  0  0  0  0  0  0  0
   36.8740   30.0660   41.8090 O   0  0  0  0  0  0  0  0  0  0  0  0
   35.2010   27.8570   40.1790 H   0  0  0  0  0  0  0  0  0  0  0  0
   35.2080   30.3050   39.0170 H   0  0  0  0  0  0  0  0  0  0  0  0
   39.0520   31.8950   40.5500 N   0  0  0  0  0  0  0  0  0  0  0  0
   38.0470   32.7280   40.5830 C   0  0  0  0  0  0  0  0  0  0  0  0
   36.7420   32.1620   40.5930 N   0  0  0  0  0  0  0  0  0  0  0  0
   38.2410   34.1550   40.6090 N   0  0  0  0  0  0  0  0  0  0  0  0
   37.5250   34.6770   41.1750 H   0  0  0  0  0  0  0  0  0  0  0  0
   40.0260   32.3140   40.5430 H   0  0  0  0  0  0  0  0  0  0  0  0
   35.9740   32.8520   40.4360 H   0  0  0  0  0  0  0  0  0  0  0  0
   39.0220   34.6240   40.1090 H   0  0  0  0  0  0  0  0  0  0  0  0
   36.7270   27.8270   42.6460 O   0  0  0  0  0  0  0  0  0  0  0  0
   37.6070   26.7860   42.3490 C   0  0  0  0  0  0  0  0  0  0  0  0
   37.0840   25.6680   42.1120 O   0  0  0  0  0  0  0  0  0  0  0  0
   39.0000   27.1190   42.3530 C   0  0  0  0  0  0  0  0  0  0  0  0
   39.5720   27.0760   43.6040 C   0  0  0  0  0  0  0  0  0  0  0  0
   40.9400   27.3930   43.6750 C   0  0  0  0  0  0  0  0  0  0  0  0
   41.6040   27.7150   42.5460 N   0  0  0  0  0  0  0  0  0  0  0  0
   40.9780   27.7400   41.3400 C   0  0  0  0  0  0  0  0  0  0  0  0
   39.6730   27.4400   41.2510 N   0  0  0  0  0  0  0  0  0  0  0  0
   39.0650   26.8200   44.5300 H   0  0  0  0  0  0  0  0  0  0  0  0
   41.4770   27.3850   44.6190 H   0  0  0  0  0  0  0  0  0  0  0  0
   41.5820   28.0100   40.4750 H   0  0  0  0  0  0  0  0  0  0  0  0
  1  5  1  0  0  0  0
  1 16  1  0  0  0  0
  2  1  2  0  0  0  0
  3  2  1  0  0  0  0
  3  4  2  0  0  0  0
  4  5  1  0  0  0  0
  6  2  1  0  0  0  0
  7  3  1  0  0  0  0
  8  9  2  0  0  0  0
  9 10  1  0  0  0  0
  9 11  1  0  0  0  0
 10  4  1  0  0  0  0
 11 12  1  0  0  0  0
 13  8  1  0  0  0  0
 14 10  1  0  0  0  0
 15 11  1  0  0  0  0
 17 19  1  0  0  0  0
 17 16  1  0  0  0  0
 18 17  2  0  0  0  0
 19 20  1  0  0  0  0
 20 21  2  0  0  0  0
 20 25  1  0  0  0  0
 21 26  1  0  0  0  0
 22 21  1  0  0  0  0
 23 22  2  0  0  0  0
 24 23  1  0  0  0  0
 24 19  2  0  0  0  0
 27 23  1  0  0  0  0
M  END
>  <minimizedAffinity>
-5.01281309

$$$$

 OpenBabel03242518333D

 27 28  0  0  0  0  0  0  0  0999 V2000
   37.7180   29.9120   38.4390 C   0  0  0  0  0  0  0  0  0  0  0  0
   36.9640   31.0400   38.6070 C   0  0  0  0  0  0  0  0  0  0  0  0
   37.6510   32.1150   38.0710 C   0  0  0  0  0  0  0  0  0  0  0  0
   38.8280   31.5620   37.5890 C   0  0  0  0  0  0  0  0  0  0  0  0
   38.8420   30.2730   37.8180 O   0  0  0  0  0  0  0  0  0  0  0  0
   35.9930   31.0600   39.0820 H   0  0  0  0  0  0  0  0  0  0  0  0
   37.3450   33.1600   38.0320 H   0  0  0  0  0  0  0  0  0  0  0  0
   41.4410   31.9410   38.6180 N   0  0  0  0  0  0  0  0  0  0  0  0
   41.1360   32.5740   37.5180 C   0  0  0  0  0  0  0  0  0  0  0  0
   39.8640   32.2930   36.9450 N   0  0  0  0  0  0  0  0  0  0  0  0
   42.0390   33.5140   36.9050 N   0  0  0  0  0  0  0  0  0  0  0  0
   41.5620   34.3280   36.4380 H   0  0  0  0  0  0  0  0  0  0  0  0
   42.3880   32.1480   39.0470 H   0  0  0  0  0  0  0  0  0  0  0  0
   39.7350   32.6750   35.9820 H   0  0  0  0  0  0  0  0  0  0  0  0
   43.0710   33.3950   36.9240 H   0  0  0  0  0  0  0  0  0  0  0  0
   37.4690   28.5780   38.8060 O   0  0  0  0  0  0  0  0  0  0  0  0
   38.2980   27.9170   39.7130 C   0  0  0  0  0  0  0  0  0  0  0  0
   39.2040   27.2020   39.2150 O   0  0  0  0  0  0  0  0  0  0  0  0
   38.0140   28.1340   41.1000 C   0  0  0  0  0  0  0  0  0  0  0  0
   37.0000   27.3380   41.5840 C   0  0  0  0  0  0  0  0  0  0  0  0
   36.6720   27.5030   42.9410 C   0  0  0  0  0  0  0  0  0  0  0  0
   37.3480   28.4070   43.6800 N   0  0  0  0  0  0  0  0  0  0  0  0
   38.3400   29.1630   43.1380 C   0  0  0  0  0  0  0  0  0  0  0  0
   38.6680   29.0200   41.8450 N   0  0  0  0  0  0  0  0  0  0  0  0
   36.4390   26.6020   41.0150 H   0  0  0  0  0  0  0  0  0  0  0  0
   35.8870   26.9190   43.4110 H   0  0  0  0  0  0  0  0  0  0  0  0
   38.8380   29.8710   43.8000 H   0  0  0  0  0  0  0  0  0  0  0  0
  1  2  2  0  0  0  0
  1 16  1  0  0  0  0
  2  6  1  0  0  0  0
  3  2  1  0  0  0  0
  4  5  1  0  0  0  0
  4  3  2  0  0  0  0
  5  1  1  0  0  0  0
  7  3  1  0  0  0  0
  8 13  1  0  0  0  0
  9  8  2  0  0  0  0
 10  9  1  0  0  0  0
 10  4  1  0  0  0  0
 11 15  1  0  0  0  0
 11  9  1  0  0  0  0
 12 11  1  0  0  0  0
 14 10  1  0  0  0  0
 16 17  1  0  0  0  0
 17 19  1  0  0  0  0
 18 17  2  0  0  0  0
 19 20  2  0  0  0  0
 19 24  1  0  0  0  0
 20 21  1  0  0  0  0
 21 26  1  0  0  0  0
 21 22  2  0  0  0  0
 23 22  1  0  0  0  0
 23 27  1  0  0  0  0
 24 23  2  0  0  0  0
 25 20  1  0  0  0  0
M  END
>  <minimizedAffinity>
-4.93633413

$$$$

 OpenBabel03242518333D

 27 28  0  0  0  0  0  0  0  0999 V2000
   36.8040   31.1180   39.7770 C   0  0  0  0  0  0  0  0  0  0  0  0
   37.1090   32.3820   39.3550 C   0  0  0  0  0  0  0  0  0  0  0  0
   37.4630   32.3300   38.0190 C   0  0  0  0  0  0  0  0  0  0  0  0
   37.3490   30.9880   37.6880 C   0  0  0  0  0  0  0  0  0  0  0  0
   36.9630   30.3020   38.7340 O   0  0  0  0  0  0  0  0  0  0  0  0
   37.0710   33.2610   39.9850 H   0  0  0  0  0  0  0  0  0  0  0  0
   37.7630   33.1510   37.3670 H   0  0  0  0  0  0  0  0  0  0  0  0
   35.6190   29.2600   36.2560 N   0  0  0  0  0  0  0  0  0  0  0  0
   36.7950   29.4890   35.7380 C   0  0  0  0  0  0  0  0  0  0  0  0
   37.6160   30.4440   36.4010 N   0  0  0  0  0  0  0  0  0  0  0  0
   37.2490   28.8120   34.5500 N   0  0  0  0  0  0  0  0  0  0  0  0
   38.2810   28.6090   34.5380 H   0  0  0  0  0  0  0  0  0  0  0  0
   35.0050   28.5490   35.7640 H   0  0  0  0  0  0  0  0  0  0  0  0
   38.4620   30.7300   35.8610 H   0  0  0  0  0  0  0  0  0  0  0  0
   36.6090   28.5500   33.7750 H   0  0  0  0  0  0  0  0  0  0  0  0
   36.3930   30.6430   41.0340 O   0  0  0  0  0  0  0  0  0  0  0  0
   36.1050   29.2920   41.2310 C   0  0  0  0  0  0  0  0  0  0  0  0
   35.0030   28.8890   40.7790 O   0  0  0  0  0  0  0  0  0  0  0  0
   37.1000   28.5300   41.9250 C   0  0  0  0  0  0  0  0  0  0  0  0
   36.8930   27.1710   41.8620 C   0  0  0  0  0  0  0  0  0  0  0  0
   37.8360   26.3660   42.5250 C   0  0  0  0  0  0  0  0  0  0  0  0
   38.8660   26.9490   43.1700 N   0  0  0  0  0  0  0  0  0  0  0  0
   39.0120   28.3010   43.1950 C   0  0  0  0  0  0  0  0  0  0  0  0
   38.1230   29.0860   42.5680 N   0  0  0  0  0  0  0  0  0  0  0  0
   36.0750   26.6720   41.3500 H   0  0  0  0  0  0  0  0  0  0  0  0
   37.7550   25.2830   42.5290 H   0  0  0  0  0  0  0  0  0  0  0  0
   39.8690   28.6950   43.7380 H   0  0  0  0  0  0  0  0  0  0  0  0
  1 16  1  0  0  0  0
  2  1  2  0  0  0  0
  2  6  1  0  0  0  0
  3  2  1  0  0  0  0
  4  3  2  0  0  0  0
  4  5  1  0  0  0  0
  5  1  1  0  0  0  0
  7  3  1  0  0  0  0
  9  8  2  0  0  0  0
  9 10  1  0  0  0  0
 10  4  1  0  0  0  0
 11  9  1  0  0  0  0
 12 11  1  0  0  0  0
 13  8  1  0  0  0  0
 14 10  1  0  0  0  0
 15 11  1  0  0  0  0
 16 17  1  0  0  0  0
 17 19  1  0  0  0  0
 18 17  2  0  0  0  0
 19 24  1  0  0  0  0
 20 19  2  0  0  0  0
 20 21  1  0  0  0  0
 21 26  1  0  0  0  0
 21 22  2  0  0  0  0
 22 23  1  0  0  0  0
 23 27  1  0  0  0  0
 24 23  2  0  0  0  0
 25 20  1  0  0  0  0
M  END
>  <minimizedAffinity>
-4.83240986

$$$$

 OpenBabel03242518333D

 27 28  0  0  0  0  0  0  0  0999 V2000
   37.1480   26.9630   42.7500 C   0  0  0  0  0  0  0  0  0  0  0  0
   37.9310   27.5890   43.6800 C   0  0  0  0  0  0  0  0  0  0  0  0
   37.7980   28.9570   43.5210 C   0  0  0  0  0  0  0  0  0  0  0  0
   36.9100   29.0940   42.4640 C   0  0  0  0  0  0  0  0  0  0  0  0
   36.5460   27.9130   42.0320 O   0  0  0  0  0  0  0  0  0  0  0  0
   38.5420   27.0750   44.4090 H   0  0  0  0  0  0  0  0  0  0  0  0
   38.2770   29.7530   44.0910 H   0  0  0  0  0  0  0  0  0  0  0  0
   37.7760   30.2240   40.0150 N   0  0  0  0  0  0  0  0  0  0  0  0
   36.9870   30.9500   40.7600 C   0  0  0  0  0  0  0  0  0  0  0  0
   36.4650   30.3360   41.9330 N   0  0  0  0  0  0  0  0  0  0  0  0
   36.6560   32.3090   40.4190 N   0  0  0  0  0  0  0  0  0  0  0  0
   36.5370   32.9460   41.2490 H   0  0  0  0  0  0  0  0  0  0  0  0
   38.1670   30.6790   39.1400 H   0  0  0  0  0  0  0  0  0  0  0  0
   35.7050   30.8790   42.3980 H   0  0  0  0  0  0  0  0  0  0  0  0
   36.5440   32.6300   39.4370 H   0  0  0  0  0  0  0  0  0  0  0  0
   36.9360   25.5960   42.4980 O   0  0  0  0  0  0  0  0  0  0  0  0
   37.7400   24.9000   41.5950 C   0  0  0  0  0  0  0  0  0  0  0  0
   37.1520   24.0760   40.8510 O   0  0  0  0  0  0  0  0  0  0  0  0
   39.1380   25.2100   41.6280 C   0  0  0  0  0  0  0  0  0  0  0  0
   39.8020   24.6400   42.6910 C   0  0  0  0  0  0  0  0  0  0  0  0
   41.1800   24.9080   42.7800 C   0  0  0  0  0  0  0  0  0  0  0  0
   41.7650   25.6860   41.8460 N   0  0  0  0  0  0  0  0  0  0  0  0
   41.0490   26.2190   40.8200 C   0  0  0  0  0  0  0  0  0  0  0  0
   39.7340   25.9760   40.7180 N   0  0  0  0  0  0  0  0  0  0  0  0
   39.3600   24.0110   43.4570 H   0  0  0  0  0  0  0  0  0  0  0  0
   41.7860   24.5010   43.5830 H   0  0  0  0  0  0  0  0  0  0  0  0
   41.5940   26.8370   40.1080 H   0  0  0  0  0  0  0  0  0  0  0  0
  1  2  2  0  0  0  0
  2  6  1  0  0  0  0
  3  2  1  0  0  0  0
  3  7  1  0  0  0  0
  4  3  2  0  0  0  0
  5  4  1  0  0  0  0
  5  1  1  0  0  0  0
  8  9  2  0  0  0  0
  9 10  1  0  0  0  0
 10 14  1  0  0  0  0
 10  4  1  0  0  0  0
 11  9  1  0  0  0  0
 11 12  1  0  0  0  0
 13  8  1  0  0  0  0
 15 11  1  0  0  0  0
 16  1  1  0  0  0  0
 17 19  1  0  0  0  0
 17 16  1  0  0  0  0
 18 17  2  0  0  0  0
 19 20  1  0  0  0  0
 20 21  2  0  0  0  0
 20 25  1  0  0  0  0
 21 26  1  0  0  0  0
 22 21  1  0  0  0  0
 23 22  2  0  0  0  0
 24 23  1  0  0  0  0
 24 19  2  0  0  0  0
 27 23  1  0  0  0  0
M  END
>  <minimizedAffinity>
-4.79624414

$$$$
