
 OpenBabel03242522193D

 43 45  0  0  0  0  0  0  0  0999 V2000
   35.8450   27.7750   39.2600 C   0  0  0  0  0  0  0  0  0  0  0  0
   34.8940   27.2500   39.5400 H   0  0  0  0  0  0  0  0  0  0  0  0
   36.0400   27.4310   38.2110 H   0  0  0  0  0  0  0  0  0  0  0  0
   36.9480   27.3490   40.0850 C   0  0  0  0  0  0  0  0  0  0  0  0
   38.0790   26.6540   39.7530 C   0  0  0  0  0  0  0  0  0  0  0  0
   39.0980   26.3030   40.6130 C   0  0  0  0  0  0  0  0  0  0  0  0
   38.9510   26.6910   41.9220 C   0  0  0  0  0  0  0  0  0  0  0  0
   37.8130   27.3830   42.2420 C   0  0  0  0  0  0  0  0  0  0  0  0
   36.8400   27.7140   41.3950 N   0  0  0  0  0  0  0  0  0  0  0  0
   38.0220   26.4280   38.6660 H   0  0  0  0  0  0  0  0  0  0  0  0
   39.8370   25.7770   40.0550 H   0  0  0  0  0  0  0  0  0  0  0  0
   39.6550   24.1240   43.1310 N   0  0  0  0  0  0  0  0  0  0  0  0
   40.5870   25.0410   42.9620 C   0  0  0  0  0  0  0  0  0  0  0  0
   40.0800   26.3550   42.7110 N   0  0  0  0  0  0  0  0  0  0  0  0
   41.9920   24.7010   43.0400 N   0  0  0  0  0  0  0  0  0  0  0  0
   42.2640   25.1280   43.9700 H   0  0  0  0  0  0  0  0  0  0  0  0
   39.9920   23.1580   43.3150 H   0  0  0  0  0  0  0  0  0  0  0  0
   40.7790   26.9660   43.2330 H   0  0  0  0  0  0  0  0  0  0  0  0
   42.6930   24.1860   42.4400 H   0  0  0  0  0  0  0  0  0  0  0  0
   37.7160   27.7430   43.6960 C   0  0  0  0  0  0  0  0  0  0  0  0
   37.9880   29.1070   43.8740 F   0  0  0  0  0  0  0  0  0  0  0  0
   38.5200   26.9720   44.5010 F   0  0  0  0  0  0  0  0  0  0  0  0
   36.4140   27.5480   44.1340 F   0  0  0  0  0  0  0  0  0  0  0  0
   35.5730   29.2360   39.2000 C   0  0  0  0  0  0  0  0  0  0  0  0
   35.3740   29.6260   40.2370 H   0  0  0  0  0  0  0  0  0  0  0  0
   34.6950   29.4630   38.5350 H   0  0  0  0  0  0  0  0  0  0  0  0
   38.4230   31.5130   38.6540 C   0  0  0  0  0  0  0  0  0  0  0  0
   38.9110   30.9890   37.5210 C   0  0  0  0  0  0  0  0  0  0  0  0
   37.7380   29.5910   37.2210 S   0  0  0  0  0  0  0  0  0  0  0  0
   36.7750   30.0020   38.7500 C   0  0  0  0  0  0  0  0  0  0  0  0
   37.3820   30.8910   39.0930 N   0  0  0  0  0  0  0  0  0  0  0  0
   39.7680   31.2950   36.9250 H   0  0  0  0  0  0  0  0  0  0  0  0
   38.8920   34.7710   40.4880 C   0  0  0  0  0  0  0  0  0  0  0  0
   38.2450   33.6910   39.8600 C   0  0  0  0  0  0  0  0  0  0  0  0
   39.0210   32.6910   39.3370 C   0  0  0  0  0  0  0  0  0  0  0  0
   40.3960   32.8090   39.4630 N   0  0  0  0  0  0  0  0  0  0  0  0
   40.9540   33.8680   40.0760 C   0  0  0  0  0  0  0  0  0  0  0  0
   40.2130   34.8450   40.5850 N   0  0  0  0  0  0  0  0  0  0  0  0
   38.2990   35.5740   40.9080 H   0  0  0  0  0  0  0  0  0  0  0  0
   42.0370   33.8100   40.0910 H   0  0  0  0  0  0  0  0  0  0  0  0
   36.8390   33.7290   39.8180 N   0  0  0  0  0  0  0  0  0  0  0  0
   36.2870   33.9980   38.9790 H   0  0  0  0  0  0  0  0  0  0  0  0
   36.4780   33.4400   40.7650 H   0  0  0  0  0  0  0  0  0  0  0  0
  1  2  1  0  0  0  0
  1  4  1  0  0  0  0
  3  1  1  0  0  0  0
  4  9  1  0  0  0  0
  5  4  2  0  0  0  0
  5  6  1  0  0  0  0
  6  7  2  0  0  0  0
  7  8  1  0  0  0  0
  7 14  1  0  0  0  0
  8 20  1  0  0  0  0
  9  8  2  0  0  0  0
 10  5  1  0  0  0  0
 11  6  1  0  0  0  0
 12 17  1  0  0  0  0
 13 15  1  0  0  0  0
 13 12  2  0  0  0  0
 14 13  1  0  0  0  0
 14 18  1  0  0  0  0
 15 16  1  0  0  0  0
 19 15  1  0  0  0  0
 20 21  1  0  0  0  0
 20 23  1  0  0  0  0
 20 22  1  0  0  0  0
 24  1  1  0  0  0  0
 24 25  1  0  0  0  0
 26 24  1  0  0  0  0
 27 31  1  0  0  0  0
 27 35  1  0  0  0  0
 28 27  2  0  0  0  0
 29 28  1  0  0  0  0
 29 30  1  0  0  0  0
 30 31  2  0  0  0  0
 30 24  1  0  0  0  0
 32 28  1  0  0  0  0
 33 38  1  0  0  0  0
 33 39  1  0  0  0  0
 34 33  2  0  0  0  0
 35 36  2  0  0  0  0
 35 34  1  0  0  0  0
 36 37  1  0  0  0  0
 37 40  1  0  0  0  0
 37 38  2  0  0  0  0
 41 34  1  0  0  0  0
 41 43  1  0  0  0  0
 42 41  1  0  0  0  0
M  END
>  <minimizedAffinity>
-6.89371681

$$$$

 OpenBabel03242522193D

 43 45  0  0  0  0  0  0  0  0999 V2000
   37.5290   30.9860   40.1870 C   0  0  0  0  0  0  0  0  0  0  0  0
   37.6880   31.7060   41.0320 H   0  0  0  0  0  0  0  0  0  0  0  0
   36.4310   31.0660   39.9730 H   0  0  0  0  0  0  0  0  0  0  0  0
   37.8110   29.6290   40.5850 C   0  0  0  0  0  0  0  0  0  0  0  0
   38.3510   28.5950   39.8700 C   0  0  0  0  0  0  0  0  0  0  0  0
   38.6020   27.3250   40.3430 C   0  0  0  0  0  0  0  0  0  0  0  0
   38.2750   27.0880   41.6550 C   0  0  0  0  0  0  0  0  0  0  0  0
   37.7330   28.1300   42.3600 C   0  0  0  0  0  0  0  0  0  0  0  0
   37.4990   29.3520   41.8840 N   0  0  0  0  0  0  0  0  0  0  0  0
   38.5470   28.9700   38.8420 H   0  0  0  0  0  0  0  0  0  0  0  0
   39.0280   26.7550   39.5510 H   0  0  0  0  0  0  0  0  0  0  0  0
   36.6370   24.6700   41.7870 N   0  0  0  0  0  0  0  0  0  0  0  0
   37.9510   24.5660   41.7730 C   0  0  0  0  0  0  0  0  0  0  0  0
   38.6400   25.7830   42.0710 N   0  0  0  0  0  0  0  0  0  0  0  0
   38.5960   23.3030   41.4810 N   0  0  0  0  0  0  0  0  0  0  0  0
   38.9560   23.0210   42.4370 H   0  0  0  0  0  0  0  0  0  0  0  0
   36.1070   23.8020   41.5740 H   0  0  0  0  0  0  0  0  0  0  0  0
   39.4740   25.4330   42.6350 H   0  0  0  0  0  0  0  0  0  0  0  0
   38.7540   22.6990   40.6280 H   0  0  0  0  0  0  0  0  0  0  0  0
   37.3770   27.7790   43.7750 C   0  0  0  0  0  0  0  0  0  0  0  0
   38.4670   27.1660   44.4090 F   0  0  0  0  0  0  0  0  0  0  0  0
   36.2480   27.0020   43.8740 F   0  0  0  0  0  0  0  0  0  0  0  0
   37.1200   28.9420   44.4880 F   0  0  0  0  0  0  0  0  0  0  0  0
   38.2480   31.5020   38.9920 C   0  0  0  0  0  0  0  0  0  0  0  0
   37.5100   31.9590   38.2750 H   0  0  0  0  0  0  0  0  0  0  0  0
   38.8210   30.6850   38.4740 H   0  0  0  0  0  0  0  0  0  0  0  0
   40.9970   33.8900   39.5850 C   0  0  0  0  0  0  0  0  0  0  0  0
   40.3060   34.8820   40.1630 C   0  0  0  0  0  0  0  0  0  0  0  0
   38.5890   34.1950   40.1590 S   0  0  0  0  0  0  0  0  0  0  0  0
   39.1610   32.6320   39.3420 C   0  0  0  0  0  0  0  0  0  0  0  0
   40.2600   32.8830   39.2580 N   0  0  0  0  0  0  0  0  0  0  0  0
   40.6510   35.8430   40.5390 H   0  0  0  0  0  0  0  0  0  0  0  0
   44.3840   34.0190   37.9380 C   0  0  0  0  0  0  0  0  0  0  0  0
   42.9840   33.9720   38.0770 C   0  0  0  0  0  0  0  0  0  0  0  0
   42.4630   33.9420   39.3430 C   0  0  0  0  0  0  0  0  0  0  0  0
   43.3510   33.9620   40.4070 N   0  0  0  0  0  0  0  0  0  0  0  0
   44.6810   34.0080   40.2070 C   0  0  0  0  0  0  0  0  0  0  0  0
   45.1980   34.0350   38.9840 N   0  0  0  0  0  0  0  0  0  0  0  0
   44.8170   34.0420   36.9460 H   0  0  0  0  0  0  0  0  0  0  0  0
   45.2360   34.0170   41.1390 H   0  0  0  0  0  0  0  0  0  0  0  0
   42.2270   33.9570   36.8910 N   0  0  0  0  0  0  0  0  0  0  0  0
   41.7920   33.1040   36.4870 H   0  0  0  0  0  0  0  0  0  0  0  0
   42.1910   34.9410   36.5160 H   0  0  0  0  0  0  0  0  0  0  0  0
  1  4  1  0  0  0  0
  1  2  1  0  0  0  0
  3  1  1  0  0  0  0
  4  9  1  0  0  0  0
  5  6  1  0  0  0  0
  5  4  2  0  0  0  0
  6  7  2  0  0  0  0
  7 14  1  0  0  0  0
  7  8  1  0  0  0  0
  8 20  1  0  0  0  0
  9  8  2  0  0  0  0
 10  5  1  0  0  0  0
 11  6  1  0  0  0  0
 13 12  2  0  0  0  0
 13 14  1  0  0  0  0
 14 18  1  0  0  0  0
 15 13  1  0  0  0  0
 15 16  1  0  0  0  0
 17 12  1  0  0  0  0
 19 15  1  0  0  0  0
 20 22  1  0  0  0  0
 20 21  1  0  0  0  0
 20 23  1  0  0  0  0
 24 30  1  0  0  0  0
 24  1  1  0  0  0  0
 25 24  1  0  0  0  0
 26 24  1  0  0  0  0
 27 28  2  0  0  0  0
 28 32  1  0  0  0  0
 29 28  1  0  0  0  0
 30 29  1  0  0  0  0
 31 30  2  0  0  0  0
 31 27  1  0  0  0  0
 33 34  2  0  0  0  0
 33 38  1  0  0  0  0
 34 35  1  0  0  0  0
 35 27  1  0  0  0  0
 35 36  2  0  0  0  0
 37 36  1  0  0  0  0
 37 40  1  0  0  0  0
 38 37  2  0  0  0  0
 39 33  1  0  0  0  0
 41 34  1  0  0  0  0
 42 41  1  0  0  0  0
 43 41  1  0  0  0  0
M  END
>  <minimizedAffinity>
-6.73390198

$$$$

 OpenBabel03242522193D

 43 45  0  0  0  0  0  0  0  0999 V2000
   37.1660   32.1300   40.2080 C   0  0  0  0  0  0  0  0  0  0  0  0
   37.4420   32.8500   41.0220 H   0  0  0  0  0  0  0  0  0  0  0  0
   36.1770   32.5100   39.8400 H   0  0  0  0  0  0  0  0  0  0  0  0
   36.9710   30.7970   40.7220 C   0  0  0  0  0  0  0  0  0  0  0  0
   35.8830   29.9710   40.6390 C   0  0  0  0  0  0  0  0  0  0  0  0
   35.7920   28.6940   41.1510 C   0  0  0  0  0  0  0  0  0  0  0  0
   36.9030   28.2190   41.8040 C   0  0  0  0  0  0  0  0  0  0  0  0
   37.9830   29.0570   41.8830 C   0  0  0  0  0  0  0  0  0  0  0  0
   38.0520   30.2880   41.3800 N   0  0  0  0  0  0  0  0  0  0  0  0
   35.0920   30.5210   40.0830 H   0  0  0  0  0  0  0  0  0  0  0  0
   34.8260   28.3120   40.9170 H   0  0  0  0  0  0  0  0  0  0  0  0
   37.1240   25.7600   40.2390 N   0  0  0  0  0  0  0  0  0  0  0  0
   37.2190   25.7060   41.5530 C   0  0  0  0  0  0  0  0  0  0  0  0
   36.7420   26.8750   42.2250 N   0  0  0  0  0  0  0  0  0  0  0  0
   37.7600   24.5380   42.2150 N   0  0  0  0  0  0  0  0  0  0  0  0
   36.8880   24.1050   42.6330 H   0  0  0  0  0  0  0  0  0  0  0  0
   37.4620   24.9240   39.7220 H   0  0  0  0  0  0  0  0  0  0  0  0
   36.2900   26.4610   43.0970 H   0  0  0  0  0  0  0  0  0  0  0  0
   38.7130   24.0980   42.3430 H   0  0  0  0  0  0  0  0  0  0  0  0
   39.1420   28.4730   42.6380 C   0  0  0  0  0  0  0  0  0  0  0  0
   40.0320   29.4890   43.0160 F   0  0  0  0  0  0  0  0  0  0  0  0
   39.7950   27.4790   41.9490 F   0  0  0  0  0  0  0  0  0  0  0  0
   38.6840   27.9020   43.8170 F   0  0  0  0  0  0  0  0  0  0  0  0
   38.1400   32.2880   39.0950 C   0  0  0  0  0  0  0  0  0  0  0  0
   37.6280   32.7570   38.2100 H   0  0  0  0  0  0  0  0  0  0  0  0
   38.5840   31.2990   38.7960 H   0  0  0  0  0  0  0  0  0  0  0  0
   41.2310   34.2260   39.6390 C   0  0  0  0  0  0  0  0  0  0  0  0
   40.7200   35.2780   40.2950 C   0  0  0  0  0  0  0  0  0  0  0  0
   38.9240   34.8430   40.3550 S   0  0  0  0  0  0  0  0  0  0  0  0
   39.2230   33.2570   39.4430 C   0  0  0  0  0  0  0  0  0  0  0  0
   40.3410   33.3520   39.3100 N   0  0  0  0  0  0  0  0  0  0  0  0
   41.2180   36.1590   40.6920 H   0  0  0  0  0  0  0  0  0  0  0  0
   44.5100   33.8640   37.8170 C   0  0  0  0  0  0  0  0  0  0  0  0
   43.1260   34.0040   38.0290 C   0  0  0  0  0  0  0  0  0  0  0  0
   42.6760   34.0810   39.3200 C   0  0  0  0  0  0  0  0  0  0  0  0
   43.6180   34.0160   40.3360 N   0  0  0  0  0  0  0  0  0  0  0  0
   44.9290   33.8830   40.0670 C   0  0  0  0  0  0  0  0  0  0  0  0
   45.3770   33.8060   38.8190 N   0  0  0  0  0  0  0  0  0  0  0  0
   44.8870   33.8010   36.8040 H   0  0  0  0  0  0  0  0  0  0  0  0
   45.5310   33.8490   40.9680 H   0  0  0  0  0  0  0  0  0  0  0  0
   42.3080   34.0520   36.8850 N   0  0  0  0  0  0  0  0  0  0  0  0
   41.7460   33.2500   36.5360 H   0  0  0  0  0  0  0  0  0  0  0  0
   42.3780   35.0210   36.4760 H   0  0  0  0  0  0  0  0  0  0  0  0
  1  4  1  0  0  0  0
  1  2  1  0  0  0  0
  3  1  1  0  0  0  0
  4  9  1  0  0  0  0
  5  4  2  0  0  0  0
  5  6  1  0  0  0  0
  6  7  2  0  0  0  0
  7  8  1  0  0  0  0
  7 14  1  0  0  0  0
  8 20  1  0  0  0  0
  9  8  2  0  0  0  0
 10  5  1  0  0  0  0
 11  6  1  0  0  0  0
 12 13  2  0  0  0  0
 13 15  1  0  0  0  0
 13 14  1  0  0  0  0
 14 18  1  0  0  0  0
 15 19  1  0  0  0  0
 15 16  1  0  0  0  0
 17 12  1  0  0  0  0
 20 21  1  0  0  0  0
 20 23  1  0  0  0  0
 22 20  1  0  0  0  0
 24 30  1  0  0  0  0
 24  1  1  0  0  0  0
 25 24  1  0  0  0  0
 26 24  1  0  0  0  0
 27 28  2  0  0  0  0
 28 29  1  0  0  0  0
 28 32  1  0  0  0  0
 30 29  1  0  0  0  0
 31 30  2  0  0  0  0
 31 27  1  0  0  0  0
 33 34  2  0  0  0  0
 33 38  1  0  0  0  0
 34 35  1  0  0  0  0
 35 27  1  0  0  0  0
 35 36  2  0  0  0  0
 37 36  1  0  0  0  0
 37 40  1  0  0  0  0
 38 37  2  0  0  0  0
 39 33  1  0  0  0  0
 41 34  1  0  0  0  0
 42 41  1  0  0  0  0
 43 41  1  0  0  0  0
M  END
>  <minimizedAffinity>
-6.72071266

$$$$

 OpenBabel03242522193D

 43 45  0  0  0  0  0  0  0  0999 V2000
   36.7570   29.1490   41.9820 C   0  0  0  0  0  0  0  0  0  0  0  0
   36.9830   30.1890   42.3340 H   0  0  0  0  0  0  0  0  0  0  0  0
   35.8410   28.8640   42.5620 H   0  0  0  0  0  0  0  0  0  0  0  0
   37.8130   28.2300   42.3310 C   0  0  0  0  0  0  0  0  0  0  0  0
   39.0200   28.4620   42.9310 C   0  0  0  0  0  0  0  0  0  0  0  0
   39.9670   27.5100   43.2440 C   0  0  0  0  0  0  0  0  0  0  0  0
   39.6590   26.2130   42.9150 C   0  0  0  0  0  0  0  0  0  0  0  0
   38.4480   25.9950   42.3120 C   0  0  0  0  0  0  0  0  0  0  0  0
   37.5460   26.9290   42.0190 N   0  0  0  0  0  0  0  0  0  0  0  0
   39.0920   29.5550   43.1190 H   0  0  0  0  0  0  0  0  0  0  0  0
   40.7900   28.0010   43.7080 H   0  0  0  0  0  0  0  0  0  0  0  0
   42.0170   25.2520   41.4800 N   0  0  0  0  0  0  0  0  0  0  0  0
   41.9650   25.1440   42.7920 C   0  0  0  0  0  0  0  0  0  0  0  0
   40.6550   25.3000   43.3440 N   0  0  0  0  0  0  0  0  0  0  0  0
   43.1600   24.8800   43.5680 N   0  0  0  0  0  0  0  0  0  0  0  0
   43.0120   23.8700   43.8500 H   0  0  0  0  0  0  0  0  0  0  0  0
   42.9570   25.1430   41.0490 H   0  0  0  0  0  0  0  0  0  0  0  0
   40.6640   24.5940   44.1420 H   0  0  0  0  0  0  0  0  0  0  0  0
   44.0200   25.4190   43.8610 H   0  0  0  0  0  0  0  0  0  0  0  0
   38.2030   24.5570   41.9590 C   0  0  0  0  0  0  0  0  0  0  0  0
   36.9030   24.3990   41.4550 F   0  0  0  0  0  0  0  0  0  0  0  0
   38.4340   23.6930   43.0030 F   0  0  0  0  0  0  0  0  0  0  0  0
   39.0620   24.1790   40.9350 F   0  0  0  0  0  0  0  0  0  0  0  0
   36.3670   29.2150   40.5480 C   0  0  0  0  0  0  0  0  0  0  0  0
   35.4380   29.8410   40.4380 H   0  0  0  0  0  0  0  0  0  0  0  0
   36.1850   28.1900   40.1250 H   0  0  0  0  0  0  0  0  0  0  0  0
   38.8320   31.4920   39.0160 C   0  0  0  0  0  0  0  0  0  0  0  0
   39.1700   30.7630   37.9430 C   0  0  0  0  0  0  0  0  0  0  0  0
   38.1130   29.2610   38.1650 S   0  0  0  0  0  0  0  0  0  0  0  0
   37.3890   29.9380   39.7310 C   0  0  0  0  0  0  0  0  0  0  0  0
   37.9510   30.9170   39.7630 N   0  0  0  0  0  0  0  0  0  0  0  0
   39.8760   30.9830   37.1460 H   0  0  0  0  0  0  0  0  0  0  0  0
   39.3040   35.0530   40.1540 C   0  0  0  0  0  0  0  0  0  0  0  0
   38.6760   33.8190   39.9060 C   0  0  0  0  0  0  0  0  0  0  0  0
   39.4140   32.8270   39.3170 C   0  0  0  0  0  0  0  0  0  0  0  0
   40.7350   33.1060   39.0040 N   0  0  0  0  0  0  0  0  0  0  0  0
   41.2780   34.3080   39.2670 C   0  0  0  0  0  0  0  0  0  0  0  0
   40.5720   35.2780   39.8370 N   0  0  0  0  0  0  0  0  0  0  0  0
   38.7390   35.8520   40.6180 H   0  0  0  0  0  0  0  0  0  0  0  0
   42.3170   34.3650   38.9620 H   0  0  0  0  0  0  0  0  0  0  0  0
   37.3260   33.7030   40.2870 N   0  0  0  0  0  0  0  0  0  0  0  0
   36.5270   33.7630   39.6250 H   0  0  0  0  0  0  0  0  0  0  0  0
   37.2940   33.5500   41.3290 H   0  0  0  0  0  0  0  0  0  0  0  0
  1  4  1  0  0  0  0
  1  2  1  0  0  0  0
  1  3  1  0  0  0  0
  4  5  1  0  0  0  0
  5 10  1  0  0  0  0
  5  6  2  0  0  0  0
  6 11  1  0  0  0  0
  7  6  1  0  0  0  0
  7 14  1  0  0  0  0
  8  7  2  0  0  0  0
  9  8  1  0  0  0  0
  9  4  2  0  0  0  0
 12 13  2  0  0  0  0
 13 14  1  0  0  0  0
 13 15  1  0  0  0  0
 14 18  1  0  0  0  0
 15 16  1  0  0  0  0
 15 19  1  0  0  0  0
 17 12  1  0  0  0  0
 20  8  1  0  0  0  0
 20 22  1  0  0  0  0
 21 20  1  0  0  0  0
 23 20  1  0  0  0  0
 24  1  1  0  0  0  0
 25 24  1  0  0  0  0
 26 24  1  0  0  0  0
 27 35  1  0  0  0  0
 27 31  1  0  0  0  0
 28 29  1  0  0  0  0
 28 27  2  0  0  0  0
 29 30  1  0  0  0  0
 30 31  2  0  0  0  0
 30 24  1  0  0  0  0
 32 28  1  0  0  0  0
 33 39  1  0  0  0  0
 34 33  1  0  0  0  0
 34 41  1  0  0  0  0
 35 34  2  0  0  0  0
 36 37  2  0  0  0  0
 36 35  1  0  0  0  0
 37 38  1  0  0  0  0
 38 33  2  0  0  0  0
 40 37  1  0  0  0  0
 41 43  1  0  0  0  0
 42 41  1  0  0  0  0
M  END
>  <minimizedAffinity>
-6.55941916

$$$$

 OpenBabel03242522193D

 43 45  0  0  0  0  0  0  0  0999 V2000
   37.5580   29.5800   42.3850 C   0  0  0  0  0  0  0  0  0  0  0  0
   37.9300   30.6370   42.3740 H   0  0  0  0  0  0  0  0  0  0  0  0
   36.6880   29.6100   43.0920 H   0  0  0  0  0  0  0  0  0  0  0  0
   38.5440   28.6750   42.9240 C   0  0  0  0  0  0  0  0  0  0  0  0
   38.3840   27.4720   43.5550 C   0  0  0  0  0  0  0  0  0  0  0  0
   39.3940   26.6620   44.0270 C   0  0  0  0  0  0  0  0  0  0  0  0
   40.6770   27.1170   43.8400 C   0  0  0  0  0  0  0  0  0  0  0  0
   40.8230   28.3240   43.2100 C   0  0  0  0  0  0  0  0  0  0  0  0
   39.8330   29.0920   42.7610 N   0  0  0  0  0  0  0  0  0  0  0  0
   37.2910   27.2720   43.6150 H   0  0  0  0  0  0  0  0  0  0  0  0
   38.9510   25.7950   44.4590 H   0  0  0  0  0  0  0  0  0  0  0  0
   41.6610   24.7060   42.5110 N   0  0  0  0  0  0  0  0  0  0  0  0
   42.3710   25.2520   43.4780 C   0  0  0  0  0  0  0  0  0  0  0  0
   41.6460   26.1840   44.2860 N   0  0  0  0  0  0  0  0  0  0  0  0
   43.7630   24.9020   43.6710 N   0  0  0  0  0  0  0  0  0  0  0  0
   43.7140   24.3080   44.5470 H   0  0  0  0  0  0  0  0  0  0  0  0
   42.1600   24.0240   41.9060 H   0  0  0  0  0  0  0  0  0  0  0  0
   42.0520   26.0000   45.2540 H   0  0  0  0  0  0  0  0  0  0  0  0
   44.6790   25.0940   43.1810 H   0  0  0  0  0  0  0  0  0  0  0  0
   42.2520   28.7620   43.0740 C   0  0  0  0  0  0  0  0  0  0  0  0
   42.3110   30.1360   42.7970 F   0  0  0  0  0  0  0  0  0  0  0  0
   42.9550   28.0410   42.1390 F   0  0  0  0  0  0  0  0  0  0  0  0
   42.9070   28.5830   44.2850 F   0  0  0  0  0  0  0  0  0  0  0  0
   37.0170   29.2600   41.0370 C   0  0  0  0  0  0  0  0  0  0  0  0
   35.8970   29.3770   41.0420 H   0  0  0  0  0  0  0  0  0  0  0  0
   37.2860   28.2150   40.7230 H   0  0  0  0  0  0  0  0  0  0  0  0
   38.6000   31.8920   38.9940 C   0  0  0  0  0  0  0  0  0  0  0  0
   37.8940   31.7500   37.8640 C   0  0  0  0  0  0  0  0  0  0  0  0
   36.7490   30.3680   38.3100 S   0  0  0  0  0  0  0  0  0  0  0  0
   37.4780   30.2440   40.0100 C   0  0  0  0  0  0  0  0  0  0  0  0
   38.2470   31.0670   39.9200 N   0  0  0  0  0  0  0  0  0  0  0  0
   37.9640   32.2950   36.9250 H   0  0  0  0  0  0  0  0  0  0  0  0
   40.7450   34.7050   40.2930 C   0  0  0  0  0  0  0  0  0  0  0  0
   39.6850   33.7840   40.2080 C   0  0  0  0  0  0  0  0  0  0  0  0
   39.6820   32.8980   39.1640 C   0  0  0  0  0  0  0  0  0  0  0  0
   40.7280   32.9670   38.2570 N   0  0  0  0  0  0  0  0  0  0  0  0
   41.7150   33.8710   38.3940 C   0  0  0  0  0  0  0  0  0  0  0  0
   41.7270   34.7360   39.4020 N   0  0  0  0  0  0  0  0  0  0  0  0
   40.7670   35.4150   41.1100 H   0  0  0  0  0  0  0  0  0  0  0  0
   42.4540   33.7940   37.6060 H   0  0  0  0  0  0  0  0  0  0  0  0
   38.7020   33.8510   41.2130 N   0  0  0  0  0  0  0  0  0  0  0  0
   37.7700   34.2930   41.0890 H   0  0  0  0  0  0  0  0  0  0  0  0
   39.0860   33.3820   42.0750 H   0  0  0  0  0  0  0  0  0  0  0  0
  1  4  1  0  0  0  0
  1  3  1  0  0  0  0
  2  1  1  0  0  0  0
  4  5  1  0  0  0  0
  5 10  1  0  0  0  0
  5  6  2  0  0  0  0
  6 11  1  0  0  0  0
  7  6  1  0  0  0  0
  7 14  1  0  0  0  0
  8  7  2  0  0  0  0
  9  4  2  0  0  0  0
  9  8  1  0  0  0  0
 12 13  2  0  0  0  0
 13 15  1  0  0  0  0
 13 14  1  0  0  0  0
 14 18  1  0  0  0  0
 15 16  1  0  0  0  0
 17 12  1  0  0  0  0
 19 15  1  0  0  0  0
 20  8  1  0  0  0  0
 20 23  1  0  0  0  0
 21 20  1  0  0  0  0
 22 20  1  0  0  0  0
 24 25  1  0  0  0  0
 24  1  1  0  0  0  0
 26 24  1  0  0  0  0
 27 35  1  0  0  0  0
 27 31  1  0  0  0  0
 28 29  1  0  0  0  0
 28 27  2  0  0  0  0
 29 30  1  0  0  0  0
 30 24  1  0  0  0  0
 31 30  2  0  0  0  0
 32 28  1  0  0  0  0
 33 39  1  0  0  0  0
 34 33  1  0  0  0  0
 34 41  1  0  0  0  0
 35 34  2  0  0  0  0
 36 37  2  0  0  0  0
 36 35  1  0  0  0  0
 37 38  1  0  0  0  0
 38 33  2  0  0  0  0
 40 37  1  0  0  0  0
 41 43  1  0  0  0  0
 42 41  1  0  0  0  0
M  END
>  <minimizedAffinity>
-6.53433609

$$$$

 OpenBabel03242522193D

 43 45  0  0  0  0  0  0  0  0999 V2000
   37.3120   31.6430   40.1520 C   0  0  0  0  0  0  0  0  0  0  0  0
   37.0340   32.5600   40.7330 H   0  0  0  0  0  0  0  0  0  0  0  0
   36.3300   31.2660   39.7630 H   0  0  0  0  0  0  0  0  0  0  0  0
   37.8760   30.6250   41.0050 C   0  0  0  0  0  0  0  0  0  0  0  0
   38.8370   30.7210   41.9730 C   0  0  0  0  0  0  0  0  0  0  0  0
   39.3070   29.6890   42.7570 C   0  0  0  0  0  0  0  0  0  0  0  0
   38.7490   28.4530   42.5340 C   0  0  0  0  0  0  0  0  0  0  0  0
   37.7890   28.3710   41.5610 C   0  0  0  0  0  0  0  0  0  0  0  0
   37.3490   29.3810   40.8140 N   0  0  0  0  0  0  0  0  0  0  0  0
   39.1680   31.7830   42.0090 H   0  0  0  0  0  0  0  0  0  0  0  0
   40.0430   30.0820   43.4180 H   0  0  0  0  0  0  0  0  0  0  0  0
   41.0100   26.6260   42.2270 N   0  0  0  0  0  0  0  0  0  0  0  0
   40.5350   26.8770   43.4310 C   0  0  0  0  0  0  0  0  0  0  0  0
   39.2360   27.4750   43.4370 N   0  0  0  0  0  0  0  0  0  0  0  0
   41.2980   26.5500   44.6170 N   0  0  0  0  0  0  0  0  0  0  0  0
   40.7670   25.7120   44.9880 H   0  0  0  0  0  0  0  0  0  0  0  0
   41.9530   26.1910   42.1890 H   0  0  0  0  0  0  0  0  0  0  0  0
   38.7850   27.0190   44.2880 H   0  0  0  0  0  0  0  0  0  0  0  0
   42.1530   26.9280   45.1100 H   0  0  0  0  0  0  0  0  0  0  0  0
   37.2540   26.9830   41.3600 C   0  0  0  0  0  0  0  0  0  0  0  0
   36.6540   26.5220   42.5410 F   0  0  0  0  0  0  0  0  0  0  0  0
   38.2020   26.0940   40.9110 F   0  0  0  0  0  0  0  0  0  0  0  0
   36.2510   27.0090   40.4010 F   0  0  0  0  0  0  0  0  0  0  0  0
   38.1200   32.0600   38.9760 C   0  0  0  0  0  0  0  0  0  0  0  0
   37.4580   32.5820   38.2290 H   0  0  0  0  0  0  0  0  0  0  0  0
   38.6200   31.1790   38.4880 H   0  0  0  0  0  0  0  0  0  0  0  0
   41.0800   34.1760   39.5850 C   0  0  0  0  0  0  0  0  0  0  0  0
   40.4910   35.2050   40.2120 C   0  0  0  0  0  0  0  0  0  0  0  0
   38.7200   34.6700   40.2240 S   0  0  0  0  0  0  0  0  0  0  0  0
   39.1360   33.0930   39.3430 C   0  0  0  0  0  0  0  0  0  0  0  0
   40.2500   33.2500   39.2420 N   0  0  0  0  0  0  0  0  0  0  0  0
   40.9260   36.1180   40.6120 H   0  0  0  0  0  0  0  0  0  0  0  0
   44.4270   33.9680   37.8680 C   0  0  0  0  0  0  0  0  0  0  0  0
   43.0320   34.0310   38.0370 C   0  0  0  0  0  0  0  0  0  0  0  0
   42.5390   34.1090   39.3120 C   0  0  0  0  0  0  0  0  0  0  0  0
   43.4520   34.1230   40.3560 N   0  0  0  0  0  0  0  0  0  0  0  0
   44.7770   34.0610   40.1280 C   0  0  0  0  0  0  0  0  0  0  0  0
   45.2650   33.9830   38.8950 N   0  0  0  0  0  0  0  0  0  0  0  0
   44.8380   33.9050   36.8680 H   0  0  0  0  0  0  0  0  0  0  0  0
   45.3520   34.0820   41.0460 H   0  0  0  0  0  0  0  0  0  0  0  0
   42.2470   34.0050   36.8690 N   0  0  0  0  0  0  0  0  0  0  0  0
   41.7430   33.1650   36.5230 H   0  0  0  0  0  0  0  0  0  0  0  0
   42.2730   34.9670   36.4390 H   0  0  0  0  0  0  0  0  0  0  0  0
  1  2  1  0  0  0  0
  1  4  1  0  0  0  0
  3  1  1  0  0  0  0
  4  5  1  0  0  0  0
  5 10  1  0  0  0  0
  5  6  2  0  0  0  0
  6 11  1  0  0  0  0
  7  6  1  0  0  0  0
  7 14  1  0  0  0  0
  8  7  2  0  0  0  0
  9  4  2  0  0  0  0
  9  8  1  0  0  0  0
 12 13  2  0  0  0  0
 13 14  1  0  0  0  0
 13 15  1  0  0  0  0
 14 18  1  0  0  0  0
 15 16  1  0  0  0  0
 15 19  1  0  0  0  0
 17 12  1  0  0  0  0
 20  8  1  0  0  0  0
 20 21  1  0  0  0  0
 22 20  1  0  0  0  0
 23 20  1  0  0  0  0
 24 30  1  0  0  0  0
 24  1  1  0  0  0  0
 25 24  1  0  0  0  0
 26 24  1  0  0  0  0
 27 28  2  0  0  0  0
 28 29  1  0  0  0  0
 28 32  1  0  0  0  0
 30 29  1  0  0  0  0
 31 30  2  0  0  0  0
 31 27  1  0  0  0  0
 33 34  2  0  0  0  0
 33 38  1  0  0  0  0
 34 35  1  0  0  0  0
 35 27  1  0  0  0  0
 35 36  2  0  0  0  0
 37 36  1  0  0  0  0
 37 40  1  0  0  0  0
 38 37  2  0  0  0  0
 39 33  1  0  0  0  0
 41 34  1  0  0  0  0
 42 41  1  0  0  0  0
 43 41  1  0  0  0  0
M  END
>  <minimizedAffinity>
-6.52146435

$$$$

 OpenBabel03242522193D

 43 45  0  0  0  0  0  0  0  0999 V2000
   37.3190   32.7890   39.6180 C   0  0  0  0  0  0  0  0  0  0  0  0
   36.4640   33.4940   39.4510 H   0  0  0  0  0  0  0  0  0  0  0  0
   37.0400   32.2510   40.5620 H   0  0  0  0  0  0  0  0  0  0  0  0
   38.5530   33.4980   39.8540 C   0  0  0  0  0  0  0  0  0  0  0  0
   38.8170   34.5560   40.6800 C   0  0  0  0  0  0  0  0  0  0  0  0
   40.0420   35.1640   40.8540 C   0  0  0  0  0  0  0  0  0  0  0  0
   41.0860   34.6500   40.1240 C   0  0  0  0  0  0  0  0  0  0  0  0
   40.8080   33.5930   39.2990 C   0  0  0  0  0  0  0  0  0  0  0  0
   39.6160   33.0190   39.1460 N   0  0  0  0  0  0  0  0  0  0  0  0
   37.8630   34.8320   41.1800 H   0  0  0  0  0  0  0  0  0  0  0  0
   39.9250   35.9480   41.5640 H   0  0  0  0  0  0  0  0  0  0  0  0
   42.9040   34.1730   42.3640 N   0  0  0  0  0  0  0  0  0  0  0  0
   43.3470   34.7890   41.2870 C   0  0  0  0  0  0  0  0  0  0  0  0
   42.3160   35.2860   40.4280 N   0  0  0  0  0  0  0  0  0  0  0  0
   44.7660   34.9330   41.0390 N   0  0  0  0  0  0  0  0  0  0  0  0
   44.9140   35.9640   41.2360 H   0  0  0  0  0  0  0  0  0  0  0  0
   43.6290   33.8000   43.0080 H   0  0  0  0  0  0  0  0  0  0  0  0
   42.7370   36.2020   40.0820 H   0  0  0  0  0  0  0  0  0  0  0  0
   45.5630   34.3050   40.7450 H   0  0  0  0  0  0  0  0  0  0  0  0
   41.9950   33.1120   38.5160 C   0  0  0  0  0  0  0  0  0  0  0  0
   41.5720   32.3400   37.4240 F   0  0  0  0  0  0  0  0  0  0  0  0
   42.9080   32.4250   39.2800 F   0  0  0  0  0  0  0  0  0  0  0  0
   42.6670   34.2020   37.9820 F   0  0  0  0  0  0  0  0  0  0  0  0
   37.3180   31.7830   38.5230 C   0  0  0  0  0  0  0  0  0  0  0  0
   38.3510   31.7020   38.0840 H   0  0  0  0  0  0  0  0  0  0  0  0
   36.5850   32.0560   37.7150 H   0  0  0  0  0  0  0  0  0  0  0  0
   37.1410   28.5160   40.2260 C   0  0  0  0  0  0  0  0  0  0  0  0
   36.1220   27.9690   39.5500 C   0  0  0  0  0  0  0  0  0  0  0  0
   35.6950   29.3190   38.3610 S   0  0  0  0  0  0  0  0  0  0  0  0
   37.0340   30.4090   39.0360 C   0  0  0  0  0  0  0  0  0  0  0  0
   37.4330   29.7070   39.8270 N   0  0  0  0  0  0  0  0  0  0  0  0
   35.6580   26.9910   39.6600 H   0  0  0  0  0  0  0  0  0  0  0  0
   38.4580   27.5070   43.6100 C   0  0  0  0  0  0  0  0  0  0  0  0
   37.7380   28.2170   42.6320 C   0  0  0  0  0  0  0  0  0  0  0  0
   37.8620   27.8220   41.3260 C   0  0  0  0  0  0  0  0  0  0  0  0
   38.6920   26.7450   41.0550 N   0  0  0  0  0  0  0  0  0  0  0  0
   39.3530   26.1070   42.0360 C   0  0  0  0  0  0  0  0  0  0  0  0
   39.2410   26.4810   43.3060 N   0  0  0  0  0  0  0  0  0  0  0  0
   38.3740   27.8020   44.6480 H   0  0  0  0  0  0  0  0  0  0  0  0
   39.9580   25.2890   41.6600 H   0  0  0  0  0  0  0  0  0  0  0  0
   36.9410   29.2880   43.0790 N   0  0  0  0  0  0  0  0  0  0  0  0
   37.2120   30.2880   43.0010 H   0  0  0  0  0  0  0  0  0  0  0  0
   36.0570   28.8860   43.4880 H   0  0  0  0  0  0  0  0  0  0  0  0
  1  4  1  0  0  0  0
  1  3  1  0  0  0  0
  2  1  1  0  0  0  0
  4  5  1  0  0  0  0
  5  6  2  0  0  0  0
  5 10  1  0  0  0  0
  6 11  1  0  0  0  0
  7 14  1  0  0  0  0
  7  6  1  0  0  0  0
  8  7  2  0  0  0  0
  9  8  1  0  0  0  0
  9  4  2  0  0  0  0
 12 17  1  0  0  0  0
 13 12  2  0  0  0  0
 14 13  1  0  0  0  0
 15 16  1  0  0  0  0
 15 13  1  0  0  0  0
 18 14  1  0  0  0  0
 19 15  1  0  0  0  0
 20 22  1  0  0  0  0
 20  8  1  0  0  0  0
 21 20  1  0  0  0  0
 23 20  1  0  0  0  0
 24 30  1  0  0  0  0
 24  1  1  0  0  0  0
 25 24  1  0  0  0  0
 26 24  1  0  0  0  0
 27 35  1  0  0  0  0
 28 32  1  0  0  0  0
 28 27  2  0  0  0  0
 29 30  1  0  0  0  0
 29 28  1  0  0  0  0
 30 31  2  0  0  0  0
 31 27  1  0  0  0  0
 33 39  1  0  0  0  0
 34 41  1  0  0  0  0
 34 33  2  0  0  0  0
 35 34  1  0  0  0  0
 36 35  2  0  0  0  0
 36 37  1  0  0  0  0
 37 38  2  0  0  0  0
 38 33  1  0  0  0  0
 40 37  1  0  0  0  0
 41 43  1  0  0  0  0
 42 41  1  0  0  0  0
M  END
>  <minimizedAffinity>
-6.47482777

$$$$

 OpenBabel03242522193D

 43 45  0  0  0  0  0  0  0  0999 V2000
   35.9720   29.8480   39.4270 C   0  0  0  0  0  0  0  0  0  0  0  0
   36.1320   30.7340   40.0940 H   0  0  0  0  0  0  0  0  0  0  0  0
   34.8650   29.8470   39.2460 H   0  0  0  0  0  0  0  0  0  0  0  0
   36.3190   28.6150   40.0900 C   0  0  0  0  0  0  0  0  0  0  0  0
   36.3950   27.3410   39.5970 C   0  0  0  0  0  0  0  0  0  0  0  0
   36.7550   26.2160   40.3080 C   0  0  0  0  0  0  0  0  0  0  0  0
   37.0610   26.4050   41.6330 C   0  0  0  0  0  0  0  0  0  0  0  0
   36.9780   27.6840   42.1150 C   0  0  0  0  0  0  0  0  0  0  0  0
   36.6300   28.7590   41.4110 N   0  0  0  0  0  0  0  0  0  0  0  0
   36.1140   27.3840   38.5220 H   0  0  0  0  0  0  0  0  0  0  0  0
   36.7260   25.3820   39.6460 H   0  0  0  0  0  0  0  0  0  0  0  0
   39.2930   24.6550   40.9220 N   0  0  0  0  0  0  0  0  0  0  0  0
   38.7790   24.5940   42.1340 C   0  0  0  0  0  0  0  0  0  0  0  0
   37.4930   25.2090   42.2590 N   0  0  0  0  0  0  0  0  0  0  0  0
   39.4890   23.9420   43.2140 N   0  0  0  0  0  0  0  0  0  0  0  0
   38.9270   23.0520   43.3340 H   0  0  0  0  0  0  0  0  0  0  0  0
   40.2270   24.2160   40.7990 H   0  0  0  0  0  0  0  0  0  0  0  0
   37.0020   24.5580   42.9450 H   0  0  0  0  0  0  0  0  0  0  0  0
   40.3330   24.1500   43.8150 H   0  0  0  0  0  0  0  0  0  0  0  0
   37.2990   27.7990   43.5770 C   0  0  0  0  0  0  0  0  0  0  0  0
   38.5690   27.2630   43.8350 F   0  0  0  0  0  0  0  0  0  0  0  0
   36.3490   27.2270   44.3880 F   0  0  0  0  0  0  0  0  0  0  0  0
   37.3660   29.1400   43.9310 F   0  0  0  0  0  0  0  0  0  0  0  0
   36.6300   30.1190   38.1210 C   0  0  0  0  0  0  0  0  0  0  0  0
   36.2040   31.0600   37.6720 H   0  0  0  0  0  0  0  0  0  0  0  0
   36.4930   29.2630   37.4060 H   0  0  0  0  0  0  0  0  0  0  0  0
   39.9980   31.5160   38.6800 C   0  0  0  0  0  0  0  0  0  0  0  0
   40.7330   30.4180   38.4550 C   0  0  0  0  0  0  0  0  0  0  0  0
   39.4270   29.1690   38.0630 S   0  0  0  0  0  0  0  0  0  0  0  0
   38.0830   30.4250   38.2900 C   0  0  0  0  0  0  0  0  0  0  0  0
   38.7310   31.3130   38.5510 N   0  0  0  0  0  0  0  0  0  0  0  0
   41.8120   30.2830   38.4890 H   0  0  0  0  0  0  0  0  0  0  0  0
   40.8890   34.6940   40.4990 C   0  0  0  0  0  0  0  0  0  0  0  0
   40.2950   33.4470   40.2350 C   0  0  0  0  0  0  0  0  0  0  0  0
   40.5830   32.8340   39.0440 C   0  0  0  0  0  0  0  0  0  0  0  0
   41.4440   33.4860   38.1760 N   0  0  0  0  0  0  0  0  0  0  0  0
   41.9810   34.6800   38.4870 C   0  0  0  0  0  0  0  0  0  0  0  0
   41.7080   35.2840   39.6380 N   0  0  0  0  0  0  0  0  0  0  0  0
   40.6740   35.1960   41.4340 H   0  0  0  0  0  0  0  0  0  0  0  0
   42.6300   35.0550   37.7050 H   0  0  0  0  0  0  0  0  0  0  0  0
   39.4420   32.9250   41.2260 N   0  0  0  0  0  0  0  0  0  0  0  0
   38.4050   32.9540   41.1770 H   0  0  0  0  0  0  0  0  0  0  0  0
   40.0440   32.5160   41.9890 H   0  0  0  0  0  0  0  0  0  0  0  0
  1  4  1  0  0  0  0
  1  2  1  0  0  0  0
  3  1  1  0  0  0  0
  4  9  1  0  0  0  0
  5  4  2  0  0  0  0
  5  6  1  0  0  0  0
  6  7  2  0  0  0  0
  7  8  1  0  0  0  0
  7 14  1  0  0  0  0
  8 20  1  0  0  0  0
  9  8  2  0  0  0  0
 10  5  1  0  0  0  0
 11  6  1  0  0  0  0
 12 13  2  0  0  0  0
 13 14  1  0  0  0  0
 13 15  1  0  0  0  0
 14 18  1  0  0  0  0
 15 16  1  0  0  0  0
 15 19  1  0  0  0  0
 17 12  1  0  0  0  0
 20 21  1  0  0  0  0
 20 23  1  0  0  0  0
 20 22  1  0  0  0  0
 24 30  1  0  0  0  0
 24  1  1  0  0  0  0
 25 24  1  0  0  0  0
 26 24  1  0  0  0  0
 27 35  1  0  0  0  0
 28 32  1  0  0  0  0
 28 27  2  0  0  0  0
 29 30  1  0  0  0  0
 29 28  1  0  0  0  0
 30 31  2  0  0  0  0
 31 27  1  0  0  0  0
 33 39  1  0  0  0  0
 34 33  1  0  0  0  0
 34 41  1  0  0  0  0
 35 34  2  0  0  0  0
 36 37  2  0  0  0  0
 36 35  1  0  0  0  0
 37 38  1  0  0  0  0
 38 33  2  0  0  0  0
 40 37  1  0  0  0  0
 41 43  1  0  0  0  0
 42 41  1  0  0  0  0
M  END
>  <minimizedAffinity>
-6.42447758

$$$$

 OpenBabel03242522193D

 43 45  0  0  0  0  0  0  0  0999 V2000
   36.9710   30.6810   39.6840 C   0  0  0  0  0  0  0  0  0  0  0  0
   35.8930   30.7260   39.3800 H   0  0  0  0  0  0  0  0  0  0  0  0
   37.5260   30.8570   38.7250 H   0  0  0  0  0  0  0  0  0  0  0  0
   37.3300   29.3740   40.1770 C   0  0  0  0  0  0  0  0  0  0  0  0
   37.7520   28.2630   39.5000 C   0  0  0  0  0  0  0  0  0  0  0  0
   38.0920   27.0500   40.0620 C   0  0  0  0  0  0  0  0  0  0  0  0
   37.9920   26.9630   41.4290 C   0  0  0  0  0  0  0  0  0  0  0  0
   37.5660   28.0820   42.0940 C   0  0  0  0  0  0  0  0  0  0  0  0
   37.2430   29.2450   41.5330 N   0  0  0  0  0  0  0  0  0  0  0  0
   37.7690   28.5200   38.4190 H   0  0  0  0  0  0  0  0  0  0  0  0
   38.3850   26.3920   39.2780 H   0  0  0  0  0  0  0  0  0  0  0  0
   36.4160   24.6200   42.1860 N   0  0  0  0  0  0  0  0  0  0  0  0
   37.6990   24.4820   41.9190 C   0  0  0  0  0  0  0  0  0  0  0  0
   38.4350   25.7090   41.9190 N   0  0  0  0  0  0  0  0  0  0  0  0
   38.2720   23.1780   41.6600 N   0  0  0  0  0  0  0  0  0  0  0  0
   38.8200   23.0050   42.5500 H   0  0  0  0  0  0  0  0  0  0  0  0
   35.8550   23.7460   42.1930 H   0  0  0  0  0  0  0  0  0  0  0  0
   39.3670   25.4090   42.3410 H   0  0  0  0  0  0  0  0  0  0  0  0
   38.2530   22.4720   40.8740 H   0  0  0  0  0  0  0  0  0  0  0  0
   37.4560   27.8930   43.5790 C   0  0  0  0  0  0  0  0  0  0  0  0
   38.6140   27.2760   44.0740 F   0  0  0  0  0  0  0  0  0  0  0  0
   36.3290   27.2020   43.9570 F   0  0  0  0  0  0  0  0  0  0  0  0
   37.3840   29.1340   44.1980 F   0  0  0  0  0  0  0  0  0  0  0  0
   37.2550   31.8390   40.5740 C   0  0  0  0  0  0  0  0  0  0  0  0
   37.5210   31.4670   41.6030 H   0  0  0  0  0  0  0  0  0  0  0  0
   36.3740   32.5330   40.6380 H   0  0  0  0  0  0  0  0  0  0  0  0
   40.4380   33.0860   39.1880 C   0  0  0  0  0  0  0  0  0  0  0  0
   40.3950   34.3480   39.6370 C   0  0  0  0  0  0  0  0  0  0  0  0
   38.7890   34.3640   40.5520 S   0  0  0  0  0  0  0  0  0  0  0  0
   38.4720   32.5860   40.1340 C   0  0  0  0  0  0  0  0  0  0  0  0
   39.4100   32.3890   39.5360 N   0  0  0  0  0  0  0  0  0  0  0  0
   41.1090   35.1590   39.5050 H   0  0  0  0  0  0  0  0  0  0  0  0
   42.4650   31.1200   36.6930 C   0  0  0  0  0  0  0  0  0  0  0  0
   41.3520   31.5800   37.4190 C   0  0  0  0  0  0  0  0  0  0  0  0
   41.5560   32.5430   38.3710 C   0  0  0  0  0  0  0  0  0  0  0  0
   42.8510   33.0020   38.5560 N   0  0  0  0  0  0  0  0  0  0  0  0
   43.8750   32.5210   37.8280 C   0  0  0  0  0  0  0  0  0  0  0  0
   43.6890   31.5870   36.9030 N   0  0  0  0  0  0  0  0  0  0  0  0
   42.3270   30.3590   35.9350 H   0  0  0  0  0  0  0  0  0  0  0  0
   44.8190   32.9820   38.0940 H   0  0  0  0  0  0  0  0  0  0  0  0
   40.1060   31.0060   37.1050 N   0  0  0  0  0  0  0  0  0  0  0  0
   39.6420   30.2710   37.6760 H   0  0  0  0  0  0  0  0  0  0  0  0
   39.7560   31.4540   36.2180 H   0  0  0  0  0  0  0  0  0  0  0  0
  1  4  1  0  0  0  0
  1 24  1  0  0  0  0
  2  1  1  0  0  0  0
  3  1  1  0  0  0  0
  4  9  1  0  0  0  0
  5  6  1  0  0  0  0
  5  4  2  0  0  0  0
  6  7  2  0  0  0  0
  7 14  1  0  0  0  0
  7  8  1  0  0  0  0
  8 20  1  0  0  0  0
  9  8  2  0  0  0  0
 10  5  1  0  0  0  0
 11  6  1  0  0  0  0
 12 17  1  0  0  0  0
 13 12  2  0  0  0  0
 14 13  1  0  0  0  0
 14 18  1  0  0  0  0
 15 13  1  0  0  0  0
 15 16  1  0  0  0  0
 19 15  1  0  0  0  0
 20 22  1  0  0  0  0
 20 21  1  0  0  0  0
 20 23  1  0  0  0  0
 24 26  1  0  0  0  0
 24 25  1  0  0  0  0
 27 31  1  0  0  0  0
 27 28  2  0  0  0  0
 28 29  1  0  0  0  0
 30 29  1  0  0  0  0
 30 24  1  0  0  0  0
 31 30  2  0  0  0  0
 32 28  1  0  0  0  0
 33 38  2  0  0  0  0
 33 34  1  0  0  0  0
 34 35  2  0  0  0  0
 35 36  1  0  0  0  0
 35 27  1  0  0  0  0
 37 40  1  0  0  0  0
 37 36  2  0  0  0  0
 38 37  1  0  0  0  0
 39 33  1  0  0  0  0
 41 34  1  0  0  0  0
 41 42  1  0  0  0  0
 43 41  1  0  0  0  0
M  END
>  <minimizedAffinity>
-6.40527296

$$$$
