
 OpenBabel03242522393D

 39 40  0  0  0  0  0  0  0  0999 V2000
   46.3180   31.6680   45.4370 C   0  0  0  0  0  0  0  0  0  0  0  0
   46.3100   30.7370   44.7960 H   0  0  0  0  0  0  0  0  0  0  0  0
   45.2700   31.8970   45.6170 H   0  0  0  0  0  0  0  0  0  0  0  0
   47.1860   32.2460   47.7010 C   0  0  0  0  0  0  0  0  0  0  0  0
   47.1280   31.3360   46.6140 C   0  0  0  0  0  0  0  0  0  0  0  0
   47.8620   30.1650   46.7350 C   0  0  0  0  0  0  0  0  0  0  0  0
   48.5840   29.9530   47.8670 N   0  0  0  0  0  0  0  0  0  0  0  0
   48.6090   30.8360   48.8640 C   0  0  0  0  0  0  0  0  0  0  0  0
   47.9240   31.9710   48.7930 N   0  0  0  0  0  0  0  0  0  0  0  0
   46.6470   33.1860   47.7000 H   0  0  0  0  0  0  0  0  0  0  0  0
   47.8220   29.4780   45.9230 H   0  0  0  0  0  0  0  0  0  0  0  0
   49.4320   30.5190   50.0720 C   0  0  0  0  0  0  0  0  0  0  0  0
   48.7190   30.3950   50.9110 H   0  0  0  0  0  0  0  0  0  0  0  0
   50.0090   29.5890   49.9370 H   0  0  0  0  0  0  0  0  0  0  0  0
   51.8860   30.5760   48.6120 N   0  0  0  0  0  0  0  0  0  0  0  0
   51.5120   31.4080   49.5110 C   0  0  0  0  0  0  0  0  0  0  0  0
   50.3230   31.6690   50.2690 N   0  0  0  0  0  0  0  0  0  0  0  0
   52.7810   32.0710   49.5320 N   0  0  0  0  0  0  0  0  0  0  0  0
   53.5770   31.7960   50.1770 H   0  0  0  0  0  0  0  0  0  0  0  0
   51.3390   29.8210   48.1890 H   0  0  0  0  0  0  0  0  0  0  0  0
   50.3840   32.5740   50.7510 H   0  0  0  0  0  0  0  0  0  0  0  0
   53.0830   32.8790   48.9410 H   0  0  0  0  0  0  0  0  0  0  0  0
   47.0790   32.6990   44.6410 C   0  0  0  0  0  0  0  0  0  0  0  0
   47.9810   33.0780   45.2060 H   0  0  0  0  0  0  0  0  0  0  0  0
   47.5520   32.2610   43.7130 H   0  0  0  0  0  0  0  0  0  0  0  0
   46.6040   34.5540   43.0980 C   0  0  0  0  0  0  0  0  0  0  0  0
   46.3120   33.8910   44.2810 C   0  0  0  0  0  0  0  0  0  0  0  0
   45.3330   34.2990   45.1370 C   0  0  0  0  0  0  0  0  0  0  0  0
   44.5980   35.4180   44.8160 C   0  0  0  0  0  0  0  0  0  0  0  0
   44.8230   36.1290   43.6700 C   0  0  0  0  0  0  0  0  0  0  0  0
   45.8370   35.6580   42.8410 C   0  0  0  0  0  0  0  0  0  0  0  0
   45.0520   33.8410   46.0630 H   0  0  0  0  0  0  0  0  0  0  0  0
   43.7970   35.8010   45.4580 H   0  0  0  0  0  0  0  0  0  0  0  0
   44.2660   37.0180   43.3790 H   0  0  0  0  0  0  0  0  0  0  0  0
   46.0210   36.2130   41.9330 H   0  0  0  0  0  0  0  0  0  0  0  0
   47.8450   34.0670   41.9820 S   0  0  0  0  0  0  0  0  0  0  0  0
   49.2120   34.6340   42.3450 O   0  0  0  0  0  0  0  0  0  0  0  0
   47.5460   34.6780   40.6210 O   0  0  0  0  0  0  0  0  0  0  0  0
   47.9060   32.7060   41.8090 H   0  0  0  0  0  0  0  0  0  0  0  0
  1  3  1  0  0  0  0
  1  5  1  0  0  0  0
  2  1  1  0  0  0  0
  4  9  1  0  0  0  0
  5  6  1  0  0  0  0
  5  4  2  0  0  0  0
  6  7  2  0  0  0  0
  7  8  1  0  0  0  0
  8 12  1  0  0  0  0
  9  8  2  0  0  0  0
 10  4  1  0  0  0  0
 11  6  1  0  0  0  0
 12 17  1  0  0  0  0
 12 13  1  0  0  0  0
 14 12  1  0  0  0  0
 15 16  2  0  0  0  0
 16 18  1  0  0  0  0
 16 17  1  0  0  0  0
 17 21  1  0  0  0  0
 18 19  1  0  0  0  0
 20 15  1  0  0  0  0
 22 18  1  0  0  0  0
 23 24  1  0  0  0  0
 23  1  1  0  0  0  0
 25 23  1  0  0  0  0
 26 27  1  0  0  0  0
 27 23  1  0  0  0  0
 27 28  2  0  0  0  0
 28 32  1  0  0  0  0
 29 28  1  0  0  0  0
 29 33  1  0  0  0  0
 30 29  2  0  0  0  0
 31 26  2  0  0  0  0
 31 30  1  0  0  0  0
 34 30  1  0  0  0  0
 35 31  1  0  0  0  0
 36 37  2  0  0  0  0
 36 26  1  0  0  0  0
 38 36  2  0  0  0  0
 39 36  1  0  0  0  0
M  END
>  <minimizedAffinity>
-5.24334431

>  <minimizedRMSD>
0.96427387

$$$$
