
 OpenBabel03252508463D

 44 45  0  0  0  0  0  0  0  0999 V2000
   42.9940   32.4700   41.6580 C   0  0  0  0  0  0  0  0  0  0  0  0
   43.5150   32.0860   40.7440 H   0  0  0  0  0  0  0  0  0  0  0  0
   42.0680   32.9550   41.3220 H   0  0  0  0  0  0  0  0  0  0  0  0
   43.6690   34.8740   41.9030 C   0  0  0  0  0  0  0  0  0  0  0  0
   43.8800   33.5400   42.2020 C   0  0  0  0  0  0  0  0  0  0  0  0
   44.9400   33.2200   43.0260 C   0  0  0  0  0  0  0  0  0  0  0  0
   45.7480   34.2060   43.5210 C   0  0  0  0  0  0  0  0  0  0  0  0
   45.5600   35.5250   43.2420 C   0  0  0  0  0  0  0  0  0  0  0  0
   44.4810   35.8060   42.4080 C   0  0  0  0  0  0  0  0  0  0  0  0
   45.1180   32.1690   43.2690 H   0  0  0  0  0  0  0  0  0  0  0  0
   46.5870   33.9540   44.1740 H   0  0  0  0  0  0  0  0  0  0  0  0
   46.1520   36.3680   43.5930 H   0  0  0  0  0  0  0  0  0  0  0  0
   44.2450   36.8380   42.1230 H   0  0  0  0  0  0  0  0  0  0  0  0
   40.2520   35.7710   40.5350 C   0  0  0  0  0  0  0  0  0  0  0  0
   41.2730   35.5310   41.4880 C   0  0  0  0  0  0  0  0  0  0  0  0
   42.5270   35.1530   41.0240 C   0  0  0  0  0  0  0  0  0  0  0  0
   42.6970   35.0370   39.6780 N   0  0  0  0  0  0  0  0  0  0  0  0
   41.7140   35.2690   38.7870 C   0  0  0  0  0  0  0  0  0  0  0  0
   40.4970   35.6350   39.2260 N   0  0  0  0  0  0  0  0  0  0  0  0
   39.2640   36.0690   40.8970 H   0  0  0  0  0  0  0  0  0  0  0  0
   41.1290   35.6260   42.5340 H   0  0  0  0  0  0  0  0  0  0  0  0
   41.9410   35.1510   37.7430 H   0  0  0  0  0  0  0  0  0  0  0  0
   42.6970   31.4160   42.5820 N   0  0  0  0  0  0  0  0  0  0  0  0
   43.0180   31.6430   43.5510 H   0  0  0  0  0  0  0  0  0  0  0  0
   41.0120   31.0610   42.6410 S   0  0  0  0  0  0  0  0  0  0  0  0
   40.1890   32.3160   42.4750 O   0  0  0  0  0  0  0  0  0  0  0  0
   39.2960   32.2970   42.0510 H   0  0  0  0  0  0  0  0  0  0  0  0
   40.6590   30.3680   43.9050 O   0  0  0  0  0  0  0  0  0  0  0  0
   41.3410   30.2090   44.6210 H   0  0  0  0  0  0  0  0  0  0  0  0
   40.6930   30.0270   41.3630 O   0  0  0  0  0  0  0  0  0  0  0  0
   39.3390   29.7470   41.3440 C   0  0  0  0  0  0  0  0  0  0  0  0
   38.7320   30.3760   41.9920 H   0  0  0  0  0  0  0  0  0  0  0  0
   39.0180   29.8860   40.2760 H   0  0  0  0  0  0  0  0  0  0  0  0
   39.1430   28.2590   41.6540 C   0  0  0  0  0  0  0  0  0  0  0  0
   39.5890   27.6340   40.8830 H   0  0  0  0  0  0  0  0  0  0  0  0
   39.7080   28.0580   42.6120 H   0  0  0  0  0  0  0  0  0  0  0  0
   37.5390   26.6350   39.9200 N   0  0  0  0  0  0  0  0  0  0  0  0
   37.1050   27.3680   40.8670 C   0  0  0  0  0  0  0  0  0  0  0  0
   37.7620   27.9680   41.9630 N   0  0  0  0  0  0  0  0  0  0  0  0
   35.7000   27.4410   40.5380 N   0  0  0  0  0  0  0  0  0  0  0  0
   35.0610   28.1660   40.0940 H   0  0  0  0  0  0  0  0  0  0  0  0
   38.5320   26.3320   39.7890 H   0  0  0  0  0  0  0  0  0  0  0  0
   37.1470   28.0870   42.7720 H   0  0  0  0  0  0  0  0  0  0  0  0
   34.9420   26.7090   40.6860 H   0  0  0  0  0  0  0  0  0  0  0  0
  1  5  1  0  0  0  0
  1 23  1  0  0  0  0
  2  1  1  0  0  0  0
  3  1  1  0  0  0  0
  4  5  2  0  0  0  0
  4  9  1  0  0  0  0
  5  6  1  0  0  0  0
  6 10  1  0  0  0  0
  6  7  2  0  0  0  0
  7 11  1  0  0  0  0
  8  7  1  0  0  0  0
  8 12  1  0  0  0  0
  9  8  2  0  0  0  0
 13  9  1  0  0  0  0
 14 20  1  0  0  0  0
 14 15  1  0  0  0  0
 15 21  1  0  0  0  0
 16 15  2  0  0  0  0
 16  4  1  0  0  0  0
 17 16  1  0  0  0  0
 18 19  1  0  0  0  0
 18 17  2  0  0  0  0
 19 14  2  0  0  0  0
 22 18  1  0  0  0  0
 23 25  1  0  0  0  0
 23 24  1  0  0  0  0
 25 28  1  0  0  0  0
 26 25  1  0  0  0  0
 27 26  1  0  0  0  0
 28 29  1  0  0  0  0
 30 25  1  0  0  0  0
 31 30  1  0  0  0  0
 31 34  1  0  0  0  0
 31 32  1  0  0  0  0
 33 31  1  0  0  0  0
 34 39  1  0  0  0  0
 34 36  1  0  0  0  0
 35 34  1  0  0  0  0
 37 38  2  0  0  0  0
 38 39  1  0  0  0  0
 39 43  1  0  0  0  0
 40 44  1  0  0  0  0
 40 38  1  0  0  0  0
 41 40  1  0  0  0  0
 42 37  1  0  0  0  0
M  END
>  <minimizedAffinity>
-5.27528191

>  <minimizedRMSD>
1.46042728

$$$$
