
 OpenBabel03252508463D

 44 45  0  0  0  0  0  0  0  0999 V2000
   43.0100   32.4370   41.6910 C   0  0  0  0  0  0  0  0  0  0  0  0
   43.5360   32.0390   40.7860 H   0  0  0  0  0  0  0  0  0  0  0  0
   42.0840   32.9140   41.3420 H   0  0  0  0  0  0  0  0  0  0  0  0
   43.6640   34.8500   41.9130 C   0  0  0  0  0  0  0  0  0  0  0  0
   43.8900   33.5200   42.2200 C   0  0  0  0  0  0  0  0  0  0  0  0
   44.9600   33.2160   43.0380 C   0  0  0  0  0  0  0  0  0  0  0  0
   45.7620   34.2140   43.5190 C   0  0  0  0  0  0  0  0  0  0  0  0
   45.5590   35.5280   43.2310 C   0  0  0  0  0  0  0  0  0  0  0  0
   44.4710   35.7930   42.4040 C   0  0  0  0  0  0  0  0  0  0  0  0
   45.1490   32.1690   43.2870 H   0  0  0  0  0  0  0  0  0  0  0  0
   46.6080   33.9740   44.1670 H   0  0  0  0  0  0  0  0  0  0  0  0
   46.1460   36.3790   43.5720 H   0  0  0  0  0  0  0  0  0  0  0  0
   44.2230   36.8200   42.1130 H   0  0  0  0  0  0  0  0  0  0  0  0
   40.2210   35.6790   40.5670 C   0  0  0  0  0  0  0  0  0  0  0  0
   41.2510   35.4520   41.5140 C   0  0  0  0  0  0  0  0  0  0  0  0
   42.5120   35.1110   41.0410 C   0  0  0  0  0  0  0  0  0  0  0  0
   42.6800   35.0170   39.6930 N   0  0  0  0  0  0  0  0  0  0  0  0
   41.6890   35.2360   38.8080 C   0  0  0  0  0  0  0  0  0  0  0  0
   40.4650   35.5660   39.2560 N   0  0  0  0  0  0  0  0  0  0  0  0
   39.2270   35.9470   40.9360 H   0  0  0  0  0  0  0  0  0  0  0  0
   41.1080   35.5290   42.5620 H   0  0  0  0  0  0  0  0  0  0  0  0
   41.9150   35.1380   37.7620 H   0  0  0  0  0  0  0  0  0  0  0  0
   42.7110   31.4000   42.6330 N   0  0  0  0  0  0  0  0  0  0  0  0
   42.9890   31.6630   43.6060 H   0  0  0  0  0  0  0  0  0  0  0  0
   41.0360   30.9940   42.6410 S   0  0  0  0  0  0  0  0  0  0  0  0
   40.1820   32.2200   42.4280 O   0  0  0  0  0  0  0  0  0  0  0  0
   39.3040   32.1670   41.9750 H   0  0  0  0  0  0  0  0  0  0  0  0
   40.6620   30.3090   43.9030 O   0  0  0  0  0  0  0  0  0  0  0  0
   41.3240   30.1820   44.6440 H   0  0  0  0  0  0  0  0  0  0  0  0
   40.7920   29.9320   41.3700 O   0  0  0  0  0  0  0  0  0  0  0  0
   40.0930   28.8330   41.8340 C   0  0  0  0  0  0  0  0  0  0  0  0
   39.6670   28.9490   42.8280 H   0  0  0  0  0  0  0  0  0  0  0  0
   39.2700   28.6640   41.0880 H   0  0  0  0  0  0  0  0  0  0  0  0
   41.0020   27.6020   41.7470 C   0  0  0  0  0  0  0  0  0  0  0  0
   41.0720   27.2370   40.7240 H   0  0  0  0  0  0  0  0  0  0  0  0
   42.0340   27.9500   42.0470 H   0  0  0  0  0  0  0  0  0  0  0  0
   39.6870   25.1680   41.0000 N   0  0  0  0  0  0  0  0  0  0  0  0
   39.7920   25.6250   42.1840 C   0  0  0  0  0  0  0  0  0  0  0  0
   40.6360   26.6140   42.7340 N   0  0  0  0  0  0  0  0  0  0  0  0
   38.7870   24.8450   42.8700 N   0  0  0  0  0  0  0  0  0  0  0  0
   37.7990   25.0190   43.2190 H   0  0  0  0  0  0  0  0  0  0  0  0
   40.2540   25.4730   40.1760 H   0  0  0  0  0  0  0  0  0  0  0  0
   40.8350   26.4530   43.7240 H   0  0  0  0  0  0  0  0  0  0  0  0
   38.8390   23.8350   43.1990 H   0  0  0  0  0  0  0  0  0  0  0  0
  1  5  1  0  0  0  0
  1 23  1  0  0  0  0
  2  1  1  0  0  0  0
  3  1  1  0  0  0  0
  4  5  2  0  0  0  0
  4  9  1  0  0  0  0
  5  6  1  0  0  0  0
  6 10  1  0  0  0  0
  6  7  2  0  0  0  0
  7 11  1  0  0  0  0
  8  7  1  0  0  0  0
  8 12  1  0  0  0  0
  9  8  2  0  0  0  0
 13  9  1  0  0  0  0
 14 20  1  0  0  0  0
 14 15  1  0  0  0  0
 15 21  1  0  0  0  0
 16 15  2  0  0  0  0
 16  4  1  0  0  0  0
 17 16  1  0  0  0  0
 18 19  1  0  0  0  0
 18 17  2  0  0  0  0
 19 14  2  0  0  0  0
 22 18  1  0  0  0  0
 23 25  1  0  0  0  0
 23 24  1  0  0  0  0
 25 28  1  0  0  0  0
 26 25  1  0  0  0  0
 27 26  1  0  0  0  0
 28 29  1  0  0  0  0
 30 31  1  0  0  0  0
 30 25  1  0  0  0  0
 31 32  1  0  0  0  0
 33 31  1  0  0  0  0
 34 31  1  0  0  0  0
 34 36  1  0  0  0  0
 34 39  1  0  0  0  0
 35 34  1  0  0  0  0
 37 38  2  0  0  0  0
 38 39  1  0  0  0  0
 38 40  1  0  0  0  0
 39 43  1  0  0  0  0
 40 44  1  0  0  0  0
 40 41  1  0  0  0  0
 42 37  1  0  0  0  0
M  END
>  <minimizedAffinity>
-4.86965084

>  <minimizedRMSD>
0.778755665

$$$$
