
 OpenBabel03242520383D

 34 36  0  0  1  0  0  0  0  0999 V2000
   39.2840   29.5740   41.6330 C   0  0  0  0  0  0  0  0  0  0  0  0
   37.9760   29.2560   42.1510 C   0  0  0  0  0  0  0  0  0  0  0  0
   36.9000   29.7770   41.4860 C   0  0  0  0  0  0  0  0  0  0  0  0
   37.0960   30.5530   40.3930 N   0  0  0  0  0  0  0  0  0  0  0  0
   38.3390   30.8350   39.9300 C   0  0  0  0  0  0  0  0  0  0  0  0
   39.4200   30.3380   40.5620 N   0  0  0  0  0  0  0  0  0  0  0  0
   40.1730   29.1930   42.1120 H   0  0  0  0  0  0  0  0  0  0  0  0
   35.9100   29.5480   41.8620 H   0  0  0  0  0  0  0  0  0  0  0  0
   37.8220   28.4160   43.3590 C   0  0  1  0  0  0  0  0  0  0  0  0
   36.6040   27.7390   43.6790 C   0  0  0  0  0  0  0  0  0  0  0  0
   37.6940   26.8930   43.1580 C   0  0  1  0  0  0  0  0  0  0  0  0
   38.5880   28.6370   44.1550 H   0  0  0  0  0  0  0  0  0  0  0  0
   36.2690   27.5750   44.7480 H   0  0  0  0  0  0  0  0  0  0  0  0
   35.6980   27.9290   43.0510 H   0  0  0  0  0  0  0  0  0  0  0  0
   38.1820   26.2340   43.9230 H   0  0  0  0  0  0  0  0  0  0  0  0
   37.7020   26.3100   41.7970 C   0  0  0  0  0  0  0  0  0  0  0  0
   38.8930   26.5530   41.1360 F   0  0  0  0  0  0  0  0  0  0  0  0
   36.6460   26.7970   41.0210 F   0  0  0  0  0  0  0  0  0  0  0  0
   37.5860   24.9490   41.9320 F   0  0  0  0  0  0  0  0  0  0  0  0
   38.4630   31.6960   38.7180 C   0  0  2  0  0  0  0  0  0  0  0  0
   38.1380   30.9690   37.4300 C   0  0  0  0  0  0  0  0  0  0  0  0
   39.5390   31.4200   37.7210 C   0  0  1  0  0  0  0  0  0  0  0  0
   38.1180   32.7260   38.8810 H   0  0  0  0  0  0  0  0  0  0  0  0
   37.6260   31.5750   36.6580 H   0  0  0  0  0  0  0  0  0  0  0  0
   37.9390   29.8870   37.4560 H   0  0  0  0  0  0  0  0  0  0  0  0
   40.2600   30.6410   38.0260 H   0  0  0  0  0  0  0  0  0  0  0  0
   41.6920   32.9570   38.8370 N   0  0  0  0  0  0  0  0  0  0  0  0
   41.3120   33.0780   37.6100 C   0  0  0  0  0  0  0  0  0  0  0  0
   40.0650   32.6210   37.1020 N   0  0  0  0  0  0  0  0  0  0  0  0
   42.3090   33.7390   36.8030 N   0  0  0  0  0  0  0  0  0  0  0  0
   42.5410   34.6790   36.3640 H   0  0  0  0  0  0  0  0  0  0  0  0
   41.0960   32.5040   39.5610 H   0  0  0  0  0  0  0  0  0  0  0  0
   39.6660   33.2050   36.3350 H   0  0  0  0  0  0  0  0  0  0  0  0
   43.2170   33.4280   36.3600 H   0  0  0  0  0  0  0  0  0  0  0  0
  1  7  1  0  0  0  0
  1  2  1  0  0  0  0
  2  9  1  0  0  0  0
  3  8  1  0  0  0  0
  3  2  2  0  0  0  0
  4  3  1  0  0  0  0
  5  4  2  0  0  0  0
  5  6  1  0  0  0  0
  6  1  2  0  0  0  0
  9 10  1  0  0  0  0
  9 12  1  1  0  0  0
 10 13  1  0  0  0  0
 11  9  1  0  0  0  0
 11 10  1  0  0  0  0
 11 15  1  1  0  0  0
 14 10  1  0  0  0  0
 16 19  1  0  0  0  0
 16 11  1  0  0  0  0
 17 16  1  0  0  0  0
 18 16  1  0  0  0  0
 20 23  1  1  0  0  0
 20  5  1  0  0  0  0
 21 25  1  0  0  0  0
 21 22  1  0  0  0  0
 21 20  1  0  0  0  0
 22 26  1  1  0  0  0
 22 20  1  0  0  0  0
 24 21  1  0  0  0  0
 27 32  1  0  0  0  0
 28 27  2  0  0  0  0
 29 28  1  0  0  0  0
 29 22  1  0  0  0  0
 30 28  1  0  0  0  0
 31 30  1  0  0  0  0
 33 29  1  0  0  0  0
 34 30  1  0  0  0  0
M  END
>  <minimizedAffinity>
-5.72750902

$$$$

 OpenBabel03242520383D

 34 36  0  0  1  0  0  0  0  0999 V2000
   37.1810   26.1280   40.4430 C   0  0  0  0  0  0  0  0  0  0  0  0
   37.2270   25.7380   41.8310 C   0  0  0  0  0  0  0  0  0  0  0  0
   36.8490   26.6750   42.7530 C   0  0  0  0  0  0  0  0  0  0  0  0
   36.4550   27.9040   42.3410 N   0  0  0  0  0  0  0  0  0  0  0  0
   36.4220   28.2420   41.0280 C   0  0  0  0  0  0  0  0  0  0  0  0
   36.7890   27.3420   40.0940 N   0  0  0  0  0  0  0  0  0  0  0  0
   37.4660   25.4340   39.6670 H   0  0  0  0  0  0  0  0  0  0  0  0
   36.8770   26.3990   43.8000 H   0  0  0  0  0  0  0  0  0  0  0  0
   37.6820   24.3860   42.2240 C   0  0  1  0  0  0  0  0  0  0  0  0
   38.6130   23.6290   41.4480 C   0  0  0  0  0  0  0  0  0  0  0  0
   39.1450   24.2310   42.6850 C   0  0  1  0  0  0  0  0  0  0  0  0
   36.9910   23.8800   42.9560 H   0  0  0  0  0  0  0  0  0  0  0  0
   38.5660   22.4990   41.3850 H   0  0  0  0  0  0  0  0  0  0  0  0
   38.9360   24.0240   40.4520 H   0  0  0  0  0  0  0  0  0  0  0  0
   39.3450   23.5020   43.5130 H   0  0  0  0  0  0  0  0  0  0  0  0
   40.0560   25.3980   42.7020 C   0  0  0  0  0  0  0  0  0  0  0  0
   39.7050   26.3160   43.6770 F   0  0  0  0  0  0  0  0  0  0  0  0
   40.0910   26.0450   41.4630 F   0  0  0  0  0  0  0  0  0  0  0  0
   41.3100   24.9360   43.0170 F   0  0  0  0  0  0  0  0  0  0  0  0
   35.9720   29.6160   40.6620 C   0  0  2  0  0  0  0  0  0  0  0  0
   35.7890   29.8110   39.1710 C   0  0  0  0  0  0  0  0  0  0  0  0
   36.8890   30.5190   39.9060 C   0  0  1  0  0  0  0  0  0  0  0  0
   35.2500   30.0390   41.3740 H   0  0  0  0  0  0  0  0  0  0  0  0
   34.9520   30.4720   38.8770 H   0  0  0  0  0  0  0  0  0  0  0  0
   36.0800   29.0040   38.4820 H   0  0  0  0  0  0  0  0  0  0  0  0
   37.9120   30.1260   39.7710 H   0  0  0  0  0  0  0  0  0  0  0  0
   38.4070   32.6320   38.6920 N   0  0  0  0  0  0  0  0  0  0  0  0
   37.3340   32.8480   39.3750 C   0  0  0  0  0  0  0  0  0  0  0  0
   36.7460   31.9150   40.2710 N   0  0  0  0  0  0  0  0  0  0  0  0
   36.7940   34.1610   39.1210 N   0  0  0  0  0  0  0  0  0  0  0  0
   36.7320   35.1360   39.5420 H   0  0  0  0  0  0  0  0  0  0  0  0
   38.9320   31.7340   38.7510 H   0  0  0  0  0  0  0  0  0  0  0  0
   36.2740   32.3420   41.0980 H   0  0  0  0  0  0  0  0  0  0  0  0
   36.2280   34.5820   38.3340 H   0  0  0  0  0  0  0  0  0  0  0  0
  1  2  1  0  0  0  0
  2  9  1  0  0  0  0
  2  3  2  0  0  0  0
  3  8  1  0  0  0  0
  4  3  1  0  0  0  0
  5  4  2  0  0  0  0
  6  1  2  0  0  0  0
  6  5  1  0  0  0  0
  7  1  1  0  0  0  0
  9 11  1  0  0  0  0
  9 12  1  1  0  0  0
 10  9  1  0  0  0  0
 10 11  1  0  0  0  0
 11 16  1  0  0  0  0
 11 15  1  1  0  0  0
 13 10  1  0  0  0  0
 14 10  1  0  0  0  0
 16 19  1  0  0  0  0
 16 17  1  0  0  0  0
 18 16  1  0  0  0  0
 20  5  1  0  0  0  0
 20 23  1  1  0  0  0
 21 22  1  0  0  0  0
 21 20  1  0  0  0  0
 22 26  1  6  0  0  0
 22 29  1  0  0  0  0
 22 20  1  0  0  0  0
 24 21  1  0  0  0  0
 25 21  1  0  0  0  0
 27 32  1  0  0  0  0
 27 28  2  0  0  0  0
 28 29  1  0  0  0  0
 29 33  1  0  0  0  0
 30 28  1  0  0  0  0
 30 31  1  0  0  0  0
 34 30  1  0  0  0  0
M  END
>  <minimizedAffinity>
-5.71921158

$$$$

 OpenBabel03242520383D

 34 36  0  0  1  0  0  0  0  0999 V2000
   37.0230   27.6090   42.7100 C   0  0  0  0  0  0  0  0  0  0  0  0
   37.1020   26.5560   41.7270 C   0  0  0  0  0  0  0  0  0  0  0  0
   37.4590   26.9170   40.4560 C   0  0  0  0  0  0  0  0  0  0  0  0
   37.7180   28.2170   40.1740 N   0  0  0  0  0  0  0  0  0  0  0  0
   37.6350   29.1840   41.1200 C   0  0  0  0  0  0  0  0  0  0  0  0
   37.2850   28.8630   42.3810 N   0  0  0  0  0  0  0  0  0  0  0  0
   36.7470   27.3890   43.7300 H   0  0  0  0  0  0  0  0  0  0  0  0
   37.5240   26.1390   39.7050 H   0  0  0  0  0  0  0  0  0  0  0  0
   36.7920   25.1560   42.0880 C   0  0  1  0  0  0  0  0  0  0  0  0
   37.1950   24.0440   41.2850 C   0  0  0  0  0  0  0  0  0  0  0  0
   37.9640   24.2550   42.5260 C   0  0  1  0  0  0  0  0  0  0  0  0
   35.9400   25.0630   42.8190 H   0  0  0  0  0  0  0  0  0  0  0  0
   36.5700   23.1030   41.2010 H   0  0  0  0  0  0  0  0  0  0  0  0
   37.6750   24.2370   40.2930 H   0  0  0  0  0  0  0  0  0  0  0  0
   37.7590   23.5080   43.3370 H   0  0  0  0  0  0  0  0  0  0  0  0
   39.3480   24.7810   42.5540 C   0  0  0  0  0  0  0  0  0  0  0  0
   39.4540   25.9200   43.3340 F   0  0  0  0  0  0  0  0  0  0  0  0
   39.8180   25.0670   41.2690 F   0  0  0  0  0  0  0  0  0  0  0  0
   40.1410   23.8210   43.1330 F   0  0  0  0  0  0  0  0  0  0  0  0
   37.9400   30.5900   40.7220 C   0  0  2  0  0  0  0  0  0  0  0  0
   36.7020   31.4390   40.5210 C   0  0  0  0  0  0  0  0  0  0  0  0
   37.5740   31.0700   39.3580 C   0  0  1  0  0  0  0  0  0  0  0  0
   38.8240   31.0010   41.2290 H   0  0  0  0  0  0  0  0  0  0  0  0
   36.7960   32.4970   40.8300 H   0  0  0  0  0  0  0  0  0  0  0  0
   35.7090   30.9670   40.5790 H   0  0  0  0  0  0  0  0  0  0  0  0
   37.1950   30.2840   38.6800 H   0  0  0  0  0  0  0  0  0  0  0  0
   39.7080   30.3490   37.5780 N   0  0  0  0  0  0  0  0  0  0  0  0
   39.3060   31.5650   37.7270 C   0  0  0  0  0  0  0  0  0  0  0  0
   38.5180   32.0270   38.8160 N   0  0  0  0  0  0  0  0  0  0  0  0
   39.7530   32.4130   36.6490 N   0  0  0  0  0  0  0  0  0  0  0  0
   40.4840   33.1470   36.4100 H   0  0  0  0  0  0  0  0  0  0  0  0
   39.4780   29.5990   38.2630 H   0  0  0  0  0  0  0  0  0  0  0  0
   38.7090   33.0110   39.1060 H   0  0  0  0  0  0  0  0  0  0  0  0
   39.4330   32.5620   35.6520 H   0  0  0  0  0  0  0  0  0  0  0  0
  1  7  1  0  0  0  0
  2  9  1  0  0  0  0
  2  1  2  0  0  0  0
  3  2  1  0  0  0  0
  4  3  2  0  0  0  0
  4  5  1  0  0  0  0
  5  6  2  0  0  0  0
  6  1  1  0  0  0  0
  8  3  1  0  0  0  0
  9 11  1  0  0  0  0
  9 12  1  1  0  0  0
 10  9  1  0  0  0  0
 10 11  1  0  0  0  0
 11 16  1  0  0  0  0
 11 15  1  1  0  0  0
 13 10  1  0  0  0  0
 14 10  1  0  0  0  0
 16 19  1  0  0  0  0
 16 17  1  0  0  0  0
 18 16  1  0  0  0  0
 20  5  1  0  0  0  0
 20 23  1  1  0  0  0
 21 25  1  0  0  0  0
 21 20  1  0  0  0  0
 21 24  1  0  0  0  0
 22 26  1  6  0  0  0
 22 21  1  0  0  0  0
 22 20  1  0  0  0  0
 27 28  2  0  0  0  0
 27 32  1  0  0  0  0
 28 29  1  0  0  0  0
 29 33  1  0  0  0  0
 29 22  1  0  0  0  0
 30 28  1  0  0  0  0
 31 30  1  0  0  0  0
 34 30  1  0  0  0  0
M  END
>  <minimizedAffinity>
-5.47797966

$$$$

 OpenBabel03242520383D

 34 36  0  0  1  0  0  0  0  0999 V2000
   37.0080   26.9400   40.0840 C   0  0  0  0  0  0  0  0  0  0  0  0
   36.7220   27.4890   41.3860 C   0  0  0  0  0  0  0  0  0  0  0  0
   35.9730   28.6330   41.4300 C   0  0  0  0  0  0  0  0  0  0  0  0
   35.5380   29.1960   40.2760 N   0  0  0  0  0  0  0  0  0  0  0  0
   35.8240   28.6570   39.0650 C   0  0  0  0  0  0  0  0  0  0  0  0
   36.5600   27.5300   38.9880 N   0  0  0  0  0  0  0  0  0  0  0  0
   37.5930   26.0390   39.9830 H   0  0  0  0  0  0  0  0  0  0  0  0
   35.7480   29.0580   42.4000 H   0  0  0  0  0  0  0  0  0  0  0  0
   37.2370   26.8400   42.6120 C   0  0  1  0  0  0  0  0  0  0  0  0
   38.4230   26.0420   42.6230 C   0  0  0  0  0  0  0  0  0  0  0  0
   38.5460   27.3880   43.2140 C   0  0  1  0  0  0  0  0  0  0  0  0
   36.4580   26.7310   43.4180 H   0  0  0  0  0  0  0  0  0  0  0  0
   38.5420   25.1480   43.3090 H   0  0  0  0  0  0  0  0  0  0  0  0
   38.9300   25.8100   41.6530 H   0  0  0  0  0  0  0  0  0  0  0  0
   38.6270   27.4030   44.3320 H   0  0  0  0  0  0  0  0  0  0  0  0
   39.2640   28.5070   42.5610 C   0  0  0  0  0  0  0  0  0  0  0  0
   38.5770   29.7030   42.6810 F   0  0  0  0  0  0  0  0  0  0  0  0
   39.4960   28.2520   41.2060 F   0  0  0  0  0  0  0  0  0  0  0  0
   40.4620   28.6630   43.2140 F   0  0  0  0  0  0  0  0  0  0  0  0
   35.3020   29.3410   37.8460 C   0  0  2  0  0  0  0  0  0  0  0  0
   33.9550   28.8170   37.3950 C   0  0  0  0  0  0  0  0  0  0  0  0
   35.1830   28.5830   36.5660 C   0  0  1  0  0  0  0  0  0  0  0  0
   35.5190   30.4180   37.8270 H   0  0  0  0  0  0  0  0  0  0  0  0
   33.2680   29.5740   36.9700 H   0  0  0  0  0  0  0  0  0  0  0  0
   33.5150   27.9470   37.9050 H   0  0  0  0  0  0  0  0  0  0  0  0
   35.6150   27.5670   36.5910 H   0  0  0  0  0  0  0  0  0  0  0  0
   37.6650   28.5270   35.1240 N   0  0  0  0  0  0  0  0  0  0  0  0
   36.5830   29.0270   34.6300 C   0  0  0  0  0  0  0  0  0  0  0  0
   35.4420   29.3960   35.3940 N   0  0  0  0  0  0  0  0  0  0  0  0
   36.6650   29.1710   33.1970 N   0  0  0  0  0  0  0  0  0  0  0  0
   36.8260   29.8970   32.4370 H   0  0  0  0  0  0  0  0  0  0  0  0
   37.7820   28.3530   36.1440 H   0  0  0  0  0  0  0  0  0  0  0  0
   34.9160   30.2170   35.0230 H   0  0  0  0  0  0  0  0  0  0  0  0
   36.5750   28.4990   32.3860 H   0  0  0  0  0  0  0  0  0  0  0  0
  1  2  1  0  0  0  0
  2  3  2  0  0  0  0
  2  9  1  0  0  0  0
  3  8  1  0  0  0  0
  4  3  1  0  0  0  0
  5  4  2  0  0  0  0
  6  5  1  0  0  0  0
  6  1  2  0  0  0  0
  7  1  1  0  0  0  0
  9 10  1  0  0  0  0
  9 11  1  0  0  0  0
  9 12  1  1  0  0  0
 10 11  1  0  0  0  0
 10 13  1  0  0  0  0
 11 15  1  1  0  0  0
 14 10  1  0  0  0  0
 16 17  1  0  0  0  0
 16 19  1  0  0  0  0
 16 11  1  0  0  0  0
 18 16  1  0  0  0  0
 20 23  1  6  0  0  0
 20  5  1  0  0  0  0
 21 20  1  0  0  0  0
 21 25  1  0  0  0  0
 22 26  1  6  0  0  0
 22 21  1  0  0  0  0
 22 20  1  0  0  0  0
 24 21  1  0  0  0  0
 27 32  1  0  0  0  0
 28 27  2  0  0  0  0
 28 29  1  0  0  0  0
 29 22  1  0  0  0  0
 30 28  1  0  0  0  0
 31 30  1  0  0  0  0
 33 29  1  0  0  0  0
 34 30  1  0  0  0  0
M  END
>  <minimizedAffinity>
-5.22844172

$$$$

 OpenBabel03242520383D

 34 36  0  0  1  0  0  0  0  0999 V2000
   38.2060   27.3610   40.4060 C   0  0  0  0  0  0  0  0  0  0  0  0
   37.6720   27.1250   41.7250 C   0  0  0  0  0  0  0  0  0  0  0  0
   37.8570   28.1090   42.6580 C   0  0  0  0  0  0  0  0  0  0  0  0
   38.5200   29.2420   42.3180 N   0  0  0  0  0  0  0  0  0  0  0  0
   39.0110   29.4350   41.0690 C   0  0  0  0  0  0  0  0  0  0  0  0
   38.8460   28.4850   40.1270 N   0  0  0  0  0  0  0  0  0  0  0  0
   38.0910   26.6240   39.6270 H   0  0  0  0  0  0  0  0  0  0  0  0
   37.4630   27.9480   43.6530 H   0  0  0  0  0  0  0  0  0  0  0  0
   36.9720   25.8620   42.0450 C   0  0  1  0  0  0  0  0  0  0  0  0
   37.1380   24.6700   41.2730 C   0  0  0  0  0  0  0  0  0  0  0  0
   37.8190   24.6910   42.5810 C   0  0  1  0  0  0  0  0  0  0  0  0
   36.0620   26.0090   42.6930 H   0  0  0  0  0  0  0  0  0  0  0  0
   36.2980   23.9250   41.1240 H   0  0  0  0  0  0  0  0  0  0  0  0
   37.7400   24.7140   40.3310 H   0  0  0  0  0  0  0  0  0  0  0  0
   37.3510   24.0380   43.3640 H   0  0  0  0  0  0  0  0  0  0  0  0
   39.2850   24.8340   42.7410 C   0  0  0  0  0  0  0  0  0  0  0  0
   39.9020   25.1970   41.5570 F   0  0  0  0  0  0  0  0  0  0  0  0
   39.8700   23.6570   43.2150 F   0  0  0  0  0  0  0  0  0  0  0  0
   39.5020   25.8520   43.6370 F   0  0  0  0  0  0  0  0  0  0  0  0
   39.7240   30.7130   40.7800 C   0  0  2  0  0  0  0  0  0  0  0  0
   38.7900   31.8740   40.5100 C   0  0  0  0  0  0  0  0  0  0  0  0
   39.6480   31.3120   39.4150 C   0  0  1  0  0  0  0  0  0  0  0  0
   40.6280   30.8520   41.3890 H   0  0  0  0  0  0  0  0  0  0  0  0
   39.1330   32.8570   40.8840 H   0  0  0  0  0  0  0  0  0  0  0  0
   37.7060   31.6910   40.4470 H   0  0  0  0  0  0  0  0  0  0  0  0
   39.1440   30.6780   38.6630 H   0  0  0  0  0  0  0  0  0  0  0  0
   40.1190   32.2860   36.7560 N   0  0  0  0  0  0  0  0  0  0  0  0
   40.8130   32.6710   37.7720 C   0  0  0  0  0  0  0  0  0  0  0  0
   40.8670   31.9880   39.0180 N   0  0  0  0  0  0  0  0  0  0  0  0
   41.5400   33.8860   37.4950 N   0  0  0  0  0  0  0  0  0  0  0  0
   42.5110   34.2430   37.2510 H   0  0  0  0  0  0  0  0  0  0  0  0
   39.5310   31.4270   36.7770 H   0  0  0  0  0  0  0  0  0  0  0  0
   41.7840   32.0510   39.5110 H   0  0  0  0  0  0  0  0  0  0  0  0
   41.2710   34.9070   37.4520 H   0  0  0  0  0  0  0  0  0  0  0  0
  1  2  1  0  0  0  0
  2  9  1  0  0  0  0
  2  3  2  0  0  0  0
  3  8  1  0  0  0  0
  4  3  1  0  0  0  0
  5  4  2  0  0  0  0
  6  1  2  0  0  0  0
  6  5  1  0  0  0  0
  7  1  1  0  0  0  0
  9 11  1  0  0  0  0
  9 12  1  1  0  0  0
 10  9  1  0  0  0  0
 10 11  1  0  0  0  0
 11 16  1  0  0  0  0
 11 15  1  1  0  0  0
 13 10  1  0  0  0  0
 14 10  1  0  0  0  0
 16 18  1  0  0  0  0
 16 19  1  0  0  0  0
 17 16  1  0  0  0  0
 20  5  1  0  0  0  0
 20 23  1  1  0  0  0
 21 20  1  0  0  0  0
 21 24  1  0  0  0  0
 22 26  1  6  0  0  0
 22 21  1  0  0  0  0
 22 20  1  0  0  0  0
 25 21  1  0  0  0  0
 27 32  1  0  0  0  0
 27 28  2  0  0  0  0
 28 29  1  0  0  0  0
 29 22  1  0  0  0  0
 29 33  1  0  0  0  0
 30 28  1  0  0  0  0
 31 30  1  0  0  0  0
 34 30  1  0  0  0  0
M  END
>  <minimizedAffinity>
-5.13130713

$$$$

 OpenBabel03242520383D

 34 36  0  0  1  0  0  0  0  0999 V2000
   38.9250   30.5210   41.6780 C   0  0  0  0  0  0  0  0  0  0  0  0
   38.1060   31.5320   41.0550 C   0  0  0  0  0  0  0  0  0  0  0  0
   36.8010   31.2080   40.8040 C   0  0  0  0  0  0  0  0  0  0  0  0
   36.3360   29.9800   41.1410 N   0  0  0  0  0  0  0  0  0  0  0  0
   37.1310   29.0500   41.7260 C   0  0  0  0  0  0  0  0  0  0  0  0
   38.4220   29.3370   41.9860 N   0  0  0  0  0  0  0  0  0  0  0  0
   39.9630   30.7160   41.9030 H   0  0  0  0  0  0  0  0  0  0  0  0
   36.1710   31.9550   40.3370 H   0  0  0  0  0  0  0  0  0  0  0  0
   38.6720   32.8500   40.6940 C   0  0  1  0  0  0  0  0  0  0  0  0
   40.0750   33.0690   40.5300 C   0  0  0  0  0  0  0  0  0  0  0  0
   39.2840   33.0030   39.2870 C   0  0  1  0  0  0  0  0  0  0  0  0
   37.9730   33.7070   40.9060 H   0  0  0  0  0  0  0  0  0  0  0  0
   40.5660   34.0550   40.7950 H   0  0  0  0  0  0  0  0  0  0  0  0
   40.7860   32.2430   40.7830 H   0  0  0  0  0  0  0  0  0  0  0  0
   39.1380   33.9880   38.7710 H   0  0  0  0  0  0  0  0  0  0  0  0
   39.3190   31.8550   38.3520 C   0  0  0  0  0  0  0  0  0  0  0  0
   38.0490   31.4340   38.0000 F   0  0  0  0  0  0  0  0  0  0  0  0
   40.0220   30.7730   38.8900 F   0  0  0  0  0  0  0  0  0  0  0  0
   39.9360   32.2810   37.2020 F   0  0  0  0  0  0  0  0  0  0  0  0
   36.5360   27.7250   42.0660 C   0  0  2  0  0  0  0  0  0  0  0  0
   36.4770   27.4590   43.5560 C   0  0  0  0  0  0  0  0  0  0  0  0
   37.3920   26.6630   42.6730 C   0  0  1  0  0  0  0  0  0  0  0  0
   35.6960   27.4470   41.4150 H   0  0  0  0  0  0  0  0  0  0  0  0
   35.5910   26.8940   43.9040 H   0  0  0  0  0  0  0  0  0  0  0  0
   36.9410   28.1750   44.2510 H   0  0  0  0  0  0  0  0  0  0  0  0
   38.4670   26.9100   42.7180 H   0  0  0  0  0  0  0  0  0  0  0  0
   38.8410   25.1760   40.6900 N   0  0  0  0  0  0  0  0  0  0  0  0
   38.0090   24.6230   41.5060 C   0  0  0  0  0  0  0  0  0  0  0  0
   37.0240   25.3250   42.2540 N   0  0  0  0  0  0  0  0  0  0  0  0
   38.1940   23.1940   41.5710 N   0  0  0  0  0  0  0  0  0  0  0  0
   37.7790   22.2800   41.2190 H   0  0  0  0  0  0  0  0  0  0  0  0
   38.8510   26.2030   40.5180 H   0  0  0  0  0  0  0  0  0  0  0  0
   36.1420   24.7930   42.4190 H   0  0  0  0  0  0  0  0  0  0  0  0
   38.8920   22.5660   42.0560 H   0  0  0  0  0  0  0  0  0  0  0  0
  1  7  1  0  0  0  0
  1  6  1  0  0  0  0
  2  1  2  0  0  0  0
  3  2  1  0  0  0  0
  3  4  2  0  0  0  0
  4  5  1  0  0  0  0
  5  6  2  0  0  0  0
  5 20  1  0  0  0  0
  8  3  1  0  0  0  0
  9 12  1  1  0  0  0
  9  2  1  0  0  0  0
 10  9  1  0  0  0  0
 10 14  1  0  0  0  0
 10 13  1  0  0  0  0
 11 15  1  6  0  0  0
 11 10  1  0  0  0  0
 11  9  1  0  0  0  0
 16 18  1  0  0  0  0
 16 11  1  0  0  0  0
 17 16  1  0  0  0  0
 19 16  1  0  0  0  0
 20 23  1  6  0  0  0
 20 22  1  0  0  0  0
 20 21  1  0  0  0  0
 21 24  1  0  0  0  0
 21 25  1  0  0  0  0
 22 26  1  1  0  0  0
 22 21  1  0  0  0  0
 27 28  2  0  0  0  0
 28 30  1  0  0  0  0
 28 29  1  0  0  0  0
 29 33  1  0  0  0  0
 29 22  1  0  0  0  0
 30 34  1  0  0  0  0
 31 30  1  0  0  0  0
 32 27  1  0  0  0  0
M  END
>  <minimizedAffinity>
-5.10443687

$$$$

 OpenBabel03242520383D

 34 36  0  0  1  0  0  0  0  0999 V2000
   36.4790   30.9510   40.9350 C   0  0  0  0  0  0  0  0  0  0  0  0
   37.2980   30.9280   39.7490 C   0  0  0  0  0  0  0  0  0  0  0  0
   37.8720   29.7320   39.4110 C   0  0  0  0  0  0  0  0  0  0  0  0
   37.6560   28.6400   40.1850 N   0  0  0  0  0  0  0  0  0  0  0  0
   36.8800   28.6940   41.2960 C   0  0  0  0  0  0  0  0  0  0  0  0
   36.3010   29.8560   41.6560 N   0  0  0  0  0  0  0  0  0  0  0  0
   35.9980   31.8630   41.2540 H   0  0  0  0  0  0  0  0  0  0  0  0
   38.4900   29.6970   38.5230 H   0  0  0  0  0  0  0  0  0  0  0  0
   37.5130   32.1550   38.9510 C   0  0  1  0  0  0  0  0  0  0  0  0
   37.3390   33.4670   39.4910 C   0  0  0  0  0  0  0  0  0  0  0  0
   38.7340   33.0290   39.3000 C   0  0  1  0  0  0  0  0  0  0  0  0
   37.4710   31.9760   37.8400 H   0  0  0  0  0  0  0  0  0  0  0  0
   36.9630   34.3320   38.8640 H   0  0  0  0  0  0  0  0  0  0  0  0
   36.9260   33.5770   40.5260 H   0  0  0  0  0  0  0  0  0  0  0  0
   39.2680   33.5240   38.4480 H   0  0  0  0  0  0  0  0  0  0  0  0
   39.6360   32.6520   40.4130 C   0  0  0  0  0  0  0  0  0  0  0  0
   40.2660   31.4420   40.1830 F   0  0  0  0  0  0  0  0  0  0  0  0
   38.9510   32.5820   41.6300 F   0  0  0  0  0  0  0  0  0  0  0  0
   40.6170   33.6100   40.4890 F   0  0  0  0  0  0  0  0  0  0  0  0
   36.6930   27.4430   42.0880 C   0  0  2  0  0  0  0  0  0  0  0  0
   37.5200   27.4060   43.3560 C   0  0  0  0  0  0  0  0  0  0  0  0
   37.8200   26.4740   42.2190 C   0  0  1  0  0  0  0  0  0  0  0  0
   35.6560   27.0810   42.0860 H   0  0  0  0  0  0  0  0  0  0  0  0
   37.0410   26.9130   44.2220 H   0  0  0  0  0  0  0  0  0  0  0  0
   38.2430   28.2130   43.5520 H   0  0  0  0  0  0  0  0  0  0  0  0
   38.7040   26.7110   41.6000 H   0  0  0  0  0  0  0  0  0  0  0  0
   37.8120   24.7360   39.9340 N   0  0  0  0  0  0  0  0  0  0  0  0
   37.7300   24.2970   41.1440 C   0  0  0  0  0  0  0  0  0  0  0  0
   37.3830   25.0930   42.2700 N   0  0  0  0  0  0  0  0  0  0  0  0
   38.0310   22.8890   41.2230 N   0  0  0  0  0  0  0  0  0  0  0  0
   37.5660   21.9370   41.3120 H   0  0  0  0  0  0  0  0  0  0  0  0
   37.6270   25.7320   39.6900 H   0  0  0  0  0  0  0  0  0  0  0  0
   36.8490   24.5890   43.0110 H   0  0  0  0  0  0  0  0  0  0  0  0
   38.9280   22.3290   41.2150 H   0  0  0  0  0  0  0  0  0  0  0  0
  1  7  1  0  0  0  0
  1  6  1  0  0  0  0
  2  1  2  0  0  0  0
  3  2  1  0  0  0  0
  3  4  2  0  0  0  0
  4  5  1  0  0  0  0
  5  6  2  0  0  0  0
  5 20  1  0  0  0  0
  8  3  1  0  0  0  0
  9 12  1  6  0  0  0
  9 11  1  0  0  0  0
  9 10  1  0  0  0  0
  9  2  1  0  0  0  0
 10 14  1  0  0  0  0
 11 15  1  6  0  0  0
 11 10  1  0  0  0  0
 11 16  1  0  0  0  0
 13 10  1  0  0  0  0
 16 19  1  0  0  0  0
 16 18  1  0  0  0  0
 17 16  1  0  0  0  0
 20 23  1  1  0  0  0
 20 22  1  0  0  0  0
 20 21  1  0  0  0  0
 21 25  1  0  0  0  0
 21 24  1  0  0  0  0
 22 26  1  6  0  0  0
 22 29  1  0  0  0  0
 22 21  1  0  0  0  0
 27 28  2  0  0  0  0
 28 30  1  0  0  0  0
 28 29  1  0  0  0  0
 29 33  1  0  0  0  0
 30 31  1  0  0  0  0
 32 27  1  0  0  0  0
 34 30  1  0  0  0  0
M  END
>  <minimizedAffinity>
-5.03634262

$$$$

 OpenBabel03242520383D

 34 36  0  0  1  0  0  0  0  0999 V2000
   36.8090   27.0840   40.9710 C   0  0  0  0  0  0  0  0  0  0  0  0
   37.2550   25.8300   40.4160 C   0  0  0  0  0  0  0  0  0  0  0  0
   37.9890   25.8860   39.2620 C   0  0  0  0  0  0  0  0  0  0  0  0
   38.2620   27.0870   38.6960 N   0  0  0  0  0  0  0  0  0  0  0  0
   37.8280   28.2500   39.2420 C   0  0  0  0  0  0  0  0  0  0  0  0
   37.1030   28.2300   40.3780 N   0  0  0  0  0  0  0  0  0  0  0  0
   36.2280   27.1080   41.8800 H   0  0  0  0  0  0  0  0  0  0  0  0
   38.3320   24.9540   38.8310 H   0  0  0  0  0  0  0  0  0  0  0  0
   36.9130   24.5470   41.0680 C   0  0  1  0  0  0  0  0  0  0  0  0
   37.6400   23.3410   40.8260 C   0  0  0  0  0  0  0  0  0  0  0  0
   37.8950   23.9970   42.1220 C   0  0  1  0  0  0  0  0  0  0  0  0
   35.8610   24.5190   41.4680 H   0  0  0  0  0  0  0  0  0  0  0  0
   37.1410   22.3240   40.8350 H   0  0  0  0  0  0  0  0  0  0  0  0
   38.4350   23.3350   40.0380 H   0  0  0  0  0  0  0  0  0  0  0  0
   37.4510   23.4730   43.0080 H   0  0  0  0  0  0  0  0  0  0  0  0
   39.1440   24.7270   42.4400 C   0  0  0  0  0  0  0  0  0  0  0  0
   39.9250   24.0430   43.3550 F   0  0  0  0  0  0  0  0  0  0  0  0
   38.8810   26.0070   42.9360 F   0  0  0  0  0  0  0  0  0  0  0  0
   39.8710   24.8210   41.2790 F   0  0  0  0  0  0  0  0  0  0  0  0
   38.1770   29.5270   38.5550 C   0  0  2  0  0  0  0  0  0  0  0  0
   39.6610   29.8300   38.5700 C   0  0  0  0  0  0  0  0  0  0  0  0
   38.6990   30.6770   39.3500 C   0  0  1  0  0  0  0  0  0  0  0  0
   37.5780   29.7110   37.6530 H   0  0  0  0  0  0  0  0  0  0  0  0
   40.0550   30.3250   37.6620 H   0  0  0  0  0  0  0  0  0  0  0  0
   40.3390   29.1790   39.1420 H   0  0  0  0  0  0  0  0  0  0  0  0
   38.6770   30.5270   40.4440 H   0  0  0  0  0  0  0  0  0  0  0  0
   36.5450   32.1960   40.4870 N   0  0  0  0  0  0  0  0  0  0  0  0
   37.4170   32.7130   39.6890 C   0  0  0  0  0  0  0  0  0  0  0  0
   38.2750   31.9650   38.8380 N   0  0  0  0  0  0  0  0  0  0  0  0
   37.4210   34.1540   39.7610 N   0  0  0  0  0  0  0  0  0  0  0  0
   37.0810   35.0180   39.2430 H   0  0  0  0  0  0  0  0  0  0  0  0
   36.4040   31.1680   40.5660 H   0  0  0  0  0  0  0  0  0  0  0  0
   38.5050   32.4310   37.9330 H   0  0  0  0  0  0  0  0  0  0  0  0
   37.8190   34.8530   40.4470 H   0  0  0  0  0  0  0  0  0  0  0  0
  1  7  1  0  0  0  0
  2  1  1  0  0  0  0
  2  9  1  0  0  0  0
  3  2  2  0  0  0  0
  4  5  2  0  0  0  0
  4  3  1  0  0  0  0
  5  6  1  0  0  0  0
  6  1  2  0  0  0  0
  8  3  1  0  0  0  0
  9 12  1  1  0  0  0
  9 11  1  0  0  0  0
 10 13  1  0  0  0  0
 10  9  1  0  0  0  0
 10 11  1  0  0  0  0
 11 16  1  0  0  0  0
 11 15  1  1  0  0  0
 14 10  1  0  0  0  0
 16 18  1  0  0  0  0
 16 17  1  0  0  0  0
 19 16  1  0  0  0  0
 20 23  1  6  0  0  0
 20 21  1  0  0  0  0
 20  5  1  0  0  0  0
 20 22  1  0  0  0  0
 21 25  1  0  0  0  0
 21 22  1  0  0  0  0
 22 26  1  1  0  0  0
 24 21  1  0  0  0  0
 27 32  1  0  0  0  0
 28 30  1  0  0  0  0
 28 27  2  0  0  0  0
 29 22  1  0  0  0  0
 29 28  1  0  0  0  0
 30 34  1  0  0  0  0
 31 30  1  0  0  0  0
 33 29  1  0  0  0  0
M  END
>  <minimizedAffinity>
-5.03024769

$$$$

 OpenBabel03242520383D

 34 36  0  0  1  0  0  0  0  0999 V2000
   38.9770   29.5040   41.1480 C   0  0  0  0  0  0  0  0  0  0  0  0
   37.8160   28.8400   41.6870 C   0  0  0  0  0  0  0  0  0  0  0  0
   36.8400   28.4740   40.8000 C   0  0  0  0  0  0  0  0  0  0  0  0
   36.9950   28.7430   39.4810 N   0  0  0  0  0  0  0  0  0  0  0  0
   38.0990   29.3690   39.0040 C   0  0  0  0  0  0  0  0  0  0  0  0
   39.0790   29.7430   39.8510 N   0  0  0  0  0  0  0  0  0  0  0  0
   39.7820   29.8160   41.7950 H   0  0  0  0  0  0  0  0  0  0  0  0
   35.9610   27.9750   41.1880 H   0  0  0  0  0  0  0  0  0  0  0  0
   37.6920   28.5880   43.1390 C   0  0  1  0  0  0  0  0  0  0  0  0
   36.8000   27.6100   43.6790 C   0  0  0  0  0  0  0  0  0  0  0  0
   38.2290   27.2470   43.6800 C   0  0  1  0  0  0  0  0  0  0  0  0
   38.0700   29.4390   43.7720 H   0  0  0  0  0  0  0  0  0  0  0  0
   36.2870   27.7490   44.6800 H   0  0  0  0  0  0  0  0  0  0  0  0
   36.0910   27.0830   42.9920 H   0  0  0  0  0  0  0  0  0  0  0  0
   38.7170   27.2630   44.6890 H   0  0  0  0  0  0  0  0  0  0  0  0
   38.8220   26.2490   42.7600 C   0  0  0  0  0  0  0  0  0  0  0  0
   39.3190   25.1500   43.4390 F   0  0  0  0  0  0  0  0  0  0  0  0
   39.8460   26.8040   41.9860 F   0  0  0  0  0  0  0  0  0  0  0  0
   37.8170   25.7970   41.9420 F   0  0  0  0  0  0  0  0  0  0  0  0
   38.1900   29.6220   37.5360 C   0  0  2  0  0  0  0  0  0  0  0  0
   37.3520   30.7970   37.0770 C   0  0  0  0  0  0  0  0  0  0  0  0
   36.9950   29.3980   36.6710 C   0  0  1  0  0  0  0  0  0  0  0  0
   39.1980   29.4620   37.1300 H   0  0  0  0  0  0  0  0  0  0  0  0
   37.7870   31.4020   36.2590 H   0  0  0  0  0  0  0  0  0  0  0  0
   36.6880   31.3000   37.7960 H   0  0  0  0  0  0  0  0  0  0  0  0
   36.1350   28.9340   37.1860 H   0  0  0  0  0  0  0  0  0  0  0  0
   35.2070   29.5550   34.4300 N   0  0  0  0  0  0  0  0  0  0  0  0
   36.4720   29.3390   34.2990 C   0  0  0  0  0  0  0  0  0  0  0  0
   37.3310   28.9110   35.3480 N   0  0  0  0  0  0  0  0  0  0  0  0
   36.9190   29.5830   32.9490 N   0  0  0  0  0  0  0  0  0  0  0  0
   37.1850   29.0780   32.0520 H   0  0  0  0  0  0  0  0  0  0  0  0
   34.7120   29.4290   35.3380 H   0  0  0  0  0  0  0  0  0  0  0  0
   38.1120   28.2900   35.0450 H   0  0  0  0  0  0  0  0  0  0  0  0
   37.1390   30.4560   32.3960 H   0  0  0  0  0  0  0  0  0  0  0  0
  1  2  1  0  0  0  0
  1  7  1  0  0  0  0
  2  9  1  0  0  0  0
  3  8  1  0  0  0  0
  3  2  2  0  0  0  0
  4  3  1  0  0  0  0
  5  4  2  0  0  0  0
  5  6  1  0  0  0  0
  6  1  2  0  0  0  0
  9 10  1  0  0  0  0
  9 11  1  0  0  0  0
  9 12  1  1  0  0  0
 10 11  1  0  0  0  0
 10 13  1  0  0  0  0
 11 15  1  1  0  0  0
 14 10  1  0  0  0  0
 16 17  1  0  0  0  0
 16 11  1  0  0  0  0
 18 16  1  0  0  0  0
 19 16  1  0  0  0  0
 20 23  1  6  0  0  0
 20  5  1  0  0  0  0
 21 20  1  0  0  0  0
 21 25  1  0  0  0  0
 22 21  1  0  0  0  0
 22 26  1  1  0  0  0
 22 20  1  0  0  0  0
 24 21  1  0  0  0  0
 27 32  1  0  0  0  0
 28 27  2  0  0  0  0
 28 29  1  0  0  0  0
 29 22  1  0  0  0  0
 30 28  1  0  0  0  0
 31 30  1  0  0  0  0
 33 29  1  0  0  0  0
 34 30  1  0  0  0  0
M  END
>  <minimizedAffinity>
-5.0232048

$$$$
