
 OpenBabel03252509343D

 42 43  0  0  1  0  0  0  0  0999 V2000
   46.1500   33.8370   42.3570 C   0  0  1  0  0  0  0  0  0  0  0  0
   45.2370   34.7850   41.6010 C   0  0  0  0  0  0  0  0  0  0  0  0
   45.1230   34.0590   40.2610 C   0  0  0  0  0  0  0  0  0  0  0  0
   46.4040   33.2760   40.1100 C   0  0  0  0  0  0  0  0  0  0  0  0
   47.2370   33.6210   41.3310 C   0  0  1  0  0  0  0  0  0  0  0  0
   45.6600   32.8550   42.5130 H   0  0  0  0  0  0  0  0  0  0  0  0
   44.2520   34.8190   42.0840 H   0  0  0  0  0  0  0  0  0  0  0  0
   45.7230   35.7490   41.4920 H   0  0  0  0  0  0  0  0  0  0  0  0
   44.9280   34.7420   39.4340 H   0  0  0  0  0  0  0  0  0  0  0  0
   44.2900   33.3390   40.3560 H   0  0  0  0  0  0  0  0  0  0  0  0
   46.2510   32.2010   40.0170 H   0  0  0  0  0  0  0  0  0  0  0  0
   46.9460   33.7220   39.2430 H   0  0  0  0  0  0  0  0  0  0  0  0
   47.8670   32.7320   41.6140 H   0  0  0  0  0  0  0  0  0  0  0  0
   48.1030   34.8260   41.1180 C   0  0  0  0  0  0  0  0  0  0  0  0
   47.9270   35.3180   40.1660 H   0  0  0  0  0  0  0  0  0  0  0  0
   48.0680   35.5330   41.9680 H   0  0  0  0  0  0  0  0  0  0  0  0
   49.8330   35.1910   43.1900 N   0  0  0  0  0  0  0  0  0  0  0  0
   50.1870   34.2920   42.3080 C   0  0  0  0  0  0  0  0  0  0  0  0
   49.4840   34.3240   41.0650 N   0  0  0  0  0  0  0  0  0  0  0  0
   51.2240   33.3250   42.5690 N   0  0  0  0  0  0  0  0  0  0  0  0
   50.7890   32.4390   42.9500 H   0  0  0  0  0  0  0  0  0  0  0  0
   50.2770   35.2620   44.1310 H   0  0  0  0  0  0  0  0  0  0  0  0
   49.9730   34.0000   40.2130 H   0  0  0  0  0  0  0  0  0  0  0  0
   52.2640   33.1270   42.5380 H   0  0  0  0  0  0  0  0  0  0  0  0
   46.6420   34.4130   43.5260 O   0  0  0  0  0  0  0  0  0  0  0  0
   44.8190   35.0300   45.2640 O   0  0  0  0  0  0  0  0  0  0  0  0
   45.7120   33.9030   44.8310 P   0  0  1  0  0  0  0  0  0  0  0  0
   44.8280   32.5320   44.4400 O   0  0  0  0  0  0  0  0  0  0  0  0
   45.1700   31.9740   43.7360 H   0  0  0  0  0  0  0  0  0  0  0  0
   46.7280   33.4620   46.0930 O   0  0  0  0  0  0  0  0  0  0  0  0
   46.9120   32.1120   46.0610 C   0  0  0  0  0  0  0  0  0  0  0  0
   48.0110   31.9450   46.2460 H   0  0  0  0  0  0  0  0  0  0  0  0
   46.7000   31.5800   45.1400 H   0  0  0  0  0  0  0  0  0  0  0  0
   45.4390   31.4250   49.4040 C   0  0  0  0  0  0  0  0  0  0  0  0
   46.0820   32.1020   48.3540 C   0  0  0  0  0  0  0  0  0  0  0  0
   46.2330   31.4210   47.1680 C   0  0  0  0  0  0  0  0  0  0  0  0
   45.7570   30.1510   47.0870 N   0  0  0  0  0  0  0  0  0  0  0  0
   45.1460   29.5220   48.1020 C   0  0  0  0  0  0  0  0  0  0  0  0
   44.9930   30.1740   49.2590 N   0  0  0  0  0  0  0  0  0  0  0  0
   45.3190   31.9690   50.3560 H   0  0  0  0  0  0  0  0  0  0  0  0
   46.4240   33.1120   48.5210 H   0  0  0  0  0  0  0  0  0  0  0  0
   44.8200   28.5170   47.8930 H   0  0  0  0  0  0  0  0  0  0  0  0
  1  6  1  1  0  0  0
  1 25  1  0  0  0  0
  2  7  1  0  0  0  0
  2  1  1  0  0  0  0
  3 10  1  0  0  0  0
  3  2  1  0  0  0  0
  4  3  1  0  0  0  0
  4  5  1  0  0  0  0
  5 13  1  1  0  0  0
  5  1  1  0  0  0  0
  8  2  1  0  0  0  0
  9  3  1  0  0  0  0
 11  4  1  0  0  0  0
 12  4  1  0  0  0  0
 14  5  1  0  0  0  0
 14 16  1  0  0  0  0
 15 14  1  0  0  0  0
 17 22  1  0  0  0  0
 18 20  1  0  0  0  0
 18 17  2  0  0  0  0
 19 14  1  0  0  0  0
 19 18  1  0  0  0  0
 20 21  1  0  0  0  0
 23 19  1  0  0  0  0
 24 20  1  0  0  0  0
 25 27  1  0  0  0  0
 27 26  2  1  0  0  0
 27 30  1  0  0  0  0
 28 27  1  0  0  0  0
 29 28  1  0  0  0  0
 31 30  1  0  0  0  0
 31 32  1  0  0  0  0
 31 36  1  0  0  0  0
 33 31  1  0  0  0  0
 34 40  1  0  0  0  0
 35 41  1  0  0  0  0
 35 34  2  0  0  0  0
 36 35  1  0  0  0  0
 37 36  2  0  0  0  0
 37 38  1  0  0  0  0
 38 39  2  0  0  0  0
 39 34  1  0  0  0  0
 42 38  1  0  0  0  0
M  END
>  <minimizedAffinity>
-5.817132

>  <minimizedRMSD>
1.2736789

$$$$
