
 OpenBabel03242519273D

 42 44  0  0  0  0  0  0  0  0999 V2000
   47.9340   33.8410   42.8700 C   0  0  0  0  0  0  0  0  0  0  0  0
   48.5890   35.0870   42.6420 C   0  0  0  0  0  0  0  0  0  0  0  0
   49.9530   35.1100   42.3250 C   0  0  0  0  0  0  0  0  0  0  0  0
   50.5790   33.8910   42.2540 N   0  0  0  0  0  0  0  0  0  0  0  0
   49.9090   32.7090   42.4820 C   0  0  0  0  0  0  0  0  0  0  0  0
   48.6250   32.7110   42.7800 N   0  0  0  0  0  0  0  0  0  0  0  0
   48.1580   36.0780   42.6810 H   0  0  0  0  0  0  0  0  0  0  0  0
   50.4960   36.0040   42.1450 H   0  0  0  0  0  0  0  0  0  0  0  0
   46.5050   33.9470   43.1970 C   0  0  0  0  0  0  0  0  0  0  0  0
   45.7790   34.9440   42.4330 C   0  0  0  0  0  0  0  0  0  0  0  0
   45.2980   36.1010   43.2080 C   0  0  0  0  0  0  0  0  0  0  0  0
   44.4830   35.6840   44.4300 C   0  0  0  0  0  0  0  0  0  0  0  0
   44.9840   34.4420   45.1080 C   0  0  0  0  0  0  0  0  0  0  0  0
   46.4430   34.1850   44.7300 C   0  0  0  0  0  0  0  0  0  0  0  0
   46.0710   32.9070   43.1080 H   0  0  0  0  0  0  0  0  0  0  0  0
   46.3970   35.3140   41.5980 H   0  0  0  0  0  0  0  0  0  0  0  0
   44.8840   34.4620   41.9550 H   0  0  0  0  0  0  0  0  0  0  0  0
   46.0220   36.8730   43.4760 H   0  0  0  0  0  0  0  0  0  0  0  0
   44.5490   36.6350   42.5510 H   0  0  0  0  0  0  0  0  0  0  0  0
   44.5270   36.5430   45.1320 H   0  0  0  0  0  0  0  0  0  0  0  0
   43.3910   35.5970   44.1820 H   0  0  0  0  0  0  0  0  0  0  0  0
   44.9100   34.4550   46.1980 H   0  0  0  0  0  0  0  0  0  0  0  0
   44.3900   33.5940   44.6720 H   0  0  0  0  0  0  0  0  0  0  0  0
   46.8210   33.3120   45.2700 H   0  0  0  0  0  0  0  0  0  0  0  0
   47.0160   35.0820   45.0080 H   0  0  0  0  0  0  0  0  0  0  0  0
   50.7320   31.5140   42.3650 C   0  0  0  0  0  0  0  0  0  0  0  0
   51.3590   31.2920   41.1810 N   0  0  0  0  0  0  0  0  0  0  0  0
   52.0660   30.1340   41.2910 C   0  0  0  0  0  0  0  0  0  0  0  0
   51.8660   29.6610   42.5340 N   0  0  0  0  0  0  0  0  0  0  0  0
   51.0570   30.4930   43.1930 N   0  0  0  0  0  0  0  0  0  0  0  0
   52.6520   29.7330   40.4900 H   0  0  0  0  0  0  0  0  0  0  0  0
   52.4370   28.4320   43.0870 C   0  0  0  0  0  0  0  0  0  0  0  0
   52.3170   27.6670   42.3160 H   0  0  0  0  0  0  0  0  0  0  0  0
   51.7940   28.1420   43.9490 H   0  0  0  0  0  0  0  0  0  0  0  0
   53.4630   29.8340   45.3630 N   0  0  0  0  0  0  0  0  0  0  0  0
   54.2610   29.5860   44.3530 C   0  0  0  0  0  0  0  0  0  0  0  0
   53.8100   28.5840   43.4280 N   0  0  0  0  0  0  0  0  0  0  0  0
   55.5270   30.2390   44.1220 N   0  0  0  0  0  0  0  0  0  0  0  0
   56.3860   30.3730   44.7260 H   0  0  0  0  0  0  0  0  0  0  0  0
   53.6730   30.5310   46.0950 H   0  0  0  0  0  0  0  0  0  0  0  0
   54.5450   27.9460   42.9950 H   0  0  0  0  0  0  0  0  0  0  0  0
   55.8060   30.7200   43.2390 H   0  0  0  0  0  0  0  0  0  0  0  0
  1  9  1  0  0  0  0
  2  7  1  0  0  0  0
  2  1  2  0  0  0  0
  3  2  1  0  0  0  0
  4  3  2  0  0  0  0
  4  5  1  0  0  0  0
  5  6  2  0  0  0  0
  6  1  1  0  0  0  0
  8  3  1  0  0  0  0
  9 14  1  0  0  0  0
 10  9  1  0  0  0  0
 10 11  1  0  0  0  0
 11 18  1  0  0  0  0
 11 12  1  0  0  0  0
 12 13  1  0  0  0  0
 12 20  1  0  0  0  0
 13 22  1  0  0  0  0
 14 25  1  0  0  0  0
 14 13  1  0  0  0  0
 14 24  1  0  0  0  0
 15  9  1  0  0  0  0
 16 10  1  0  0  0  0
 17 10  1  0  0  0  0
 19 11  1  0  0  0  0
 21 12  1  0  0  0  0
 23 13  1  0  0  0  0
 26  5  1  0  0  0  0
 26 30  2  0  0  0  0
 27 28  2  0  0  0  0
 27 26  1  0  0  0  0
 28 29  1  0  0  0  0
 29 32  1  0  0  0  0
 29 30  1  0  0  0  0
 31 28  1  0  0  0  0
 32 37  1  0  0  0  0
 32 34  1  0  0  0  0
 33 32  1  0  0  0  0
 35 40  1  0  0  0  0
 36 35  2  0  0  0  0
 37 36  1  0  0  0  0
 38 36  1  0  0  0  0
 38 39  1  0  0  0  0
 41 37  1  0  0  0  0
 42 38  1  0  0  0  0
M  END
>  <minimizedAffinity>
-4.49579096

>  <minimizedRMSD>
2.70081735

$$$$
