
 OpenBabel03242518433D

 18 18  0  0  0  0  0  0  0  0999 V2000
   42.5260   33.9040   38.1110 C   0  0  0  0  0  0  0  0  0  0  0  0
   43.2300   33.9510   39.3270 C   0  0  0  0  0  0  0  0  0  0  0  0
   42.5050   33.6900   40.4980 C   0  0  0  0  0  0  0  0  0  0  0  0
   41.1890   33.4130   40.3920 N   0  0  0  0  0  0  0  0  0  0  0  0
   40.5530   33.3790   39.1990 C   0  0  0  0  0  0  0  0  0  0  0  0
   41.2200   33.6230   38.0710 N   0  0  0  0  0  0  0  0  0  0  0  0
   44.2780   34.1680   39.4490 H   0  0  0  0  0  0  0  0  0  0  0  0
   42.9360   33.6980   41.4860 H   0  0  0  0  0  0  0  0  0  0  0  0
   38.8670   34.1610   41.2150 N   0  0  0  0  0  0  0  0  0  0  0  0
   38.3380   33.4380   40.2830 C   0  0  0  0  0  0  0  0  0  0  0  0
   39.1600   33.0780   39.1750 N   0  0  0  0  0  0  0  0  0  0  0  0
   36.9910   32.9800   40.2990 N   0  0  0  0  0  0  0  0  0  0  0  0
   36.7480   32.0950   39.8030 H   0  0  0  0  0  0  0  0  0  0  0  0
   38.3660   34.4830   42.0680 H   0  0  0  0  0  0  0  0  0  0  0  0
   38.7550   32.5910   38.3340 H   0  0  0  0  0  0  0  0  0  0  0  0
   36.3090   33.5590   40.8110 H   0  0  0  0  0  0  0  0  0  0  0  0
   43.2460   34.1610   36.9710 O   0  0  0  0  0  0  0  0  0  0  0  0
   43.7590   33.4170   36.5080 H   0  0  0  0  0  0  0  0  0  0  0  0
  1  2  1  0  0  0  0
  2  7  1  0  0  0  0
  2  3  2  0  0  0  0
  3  8  1  0  0  0  0
  4  3  1  0  0  0  0
  5  4  2  0  0  0  0
  6  1  2  0  0  0  0
  6  5  1  0  0  0  0
  9 14  1  0  0  0  0
 10 12  1  0  0  0  0
 10  9  2  0  0  0  0
 11  5  1  0  0  0  0
 11 10  1  0  0  0  0
 12 16  1  0  0  0  0
 13 12  1  0  0  0  0
 15 11  1  0  0  0  0
 17  1  1  0  0  0  0
 18 17  1  0  0  0  0
M  END
>  <minimizedAffinity>
-4.67576838

$$$$

 OpenBabel03242518433D

 18 18  0  0  0  0  0  0  0  0999 V2000
   39.0950   27.6750   42.9150 C   0  0  0  0  0  0  0  0  0  0  0  0
   38.0220   26.7960   42.6880 C   0  0  0  0  0  0  0  0  0  0  0  0
   36.9550   27.2740   41.9140 C   0  0  0  0  0  0  0  0  0  0  0  0
   37.0190   28.5350   41.4390 N   0  0  0  0  0  0  0  0  0  0  0  0
   38.0730   29.3450   41.6840 C   0  0  0  0  0  0  0  0  0  0  0  0
   39.1000   28.9140   42.4170 N   0  0  0  0  0  0  0  0  0  0  0  0
   37.9380   25.7850   43.0510 H   0  0  0  0  0  0  0  0  0  0  0  0
   36.0800   26.6920   41.6740 H   0  0  0  0  0  0  0  0  0  0  0  0
   35.7510   30.7740   41.4010 N   0  0  0  0  0  0  0  0  0  0  0  0
   36.8210   31.3370   40.9440 C   0  0  0  0  0  0  0  0  0  0  0  0
   38.0610   30.6630   41.1440 N   0  0  0  0  0  0  0  0  0  0  0  0
   36.8330   32.5820   40.2550 N   0  0  0  0  0  0  0  0  0  0  0  0
   37.5860   32.7700   39.5580 H   0  0  0  0  0  0  0  0  0  0  0  0
   34.7920   31.1710   41.3140 H   0  0  0  0  0  0  0  0  0  0  0  0
   38.9750   31.1250   40.8980 H   0  0  0  0  0  0  0  0  0  0  0  0
   36.0810   33.2480   40.4840 H   0  0  0  0  0  0  0  0  0  0  0  0
   40.1350   27.1970   43.6750 O   0  0  0  0  0  0  0  0  0  0  0  0
   40.8830   26.6630   43.2440 H   0  0  0  0  0  0  0  0  0  0  0  0
  1 17  1  0  0  0  0
  2  1  1  0  0  0  0
  2  7  1  0  0  0  0
  3  2  2  0  0  0  0
  4  5  2  0  0  0  0
  4  3  1  0  0  0  0
  5  6  1  0  0  0  0
  6  1  2  0  0  0  0
  8  3  1  0  0  0  0
 10 11  1  0  0  0  0
 10  9  2  0  0  0  0
 11  5  1  0  0  0  0
 12 16  1  0  0  0  0
 12 10  1  0  0  0  0
 13 12  1  0  0  0  0
 14  9  1  0  0  0  0
 15 11  1  0  0  0  0
 18 17  1  0  0  0  0
M  END
>  <minimizedAffinity>
-4.54825068

$$$$

 OpenBabel03242518433D

 18 18  0  0  0  0  0  0  0  0999 V2000
   37.4330   32.6470   40.3230 C   0  0  0  0  0  0  0  0  0  0  0  0
   38.8220   32.7030   40.5300 C   0  0  0  0  0  0  0  0  0  0  0  0
   39.4160   31.6190   41.1900 C   0  0  0  0  0  0  0  0  0  0  0  0
   38.6300   30.5960   41.5840 N   0  0  0  0  0  0  0  0  0  0  0  0
   37.2960   30.5860   41.3640 C   0  0  0  0  0  0  0  0  0  0  0  0
   36.7070   31.6050   40.7380 N   0  0  0  0  0  0  0  0  0  0  0  0
   39.4800   33.5020   40.2290 H   0  0  0  0  0  0  0  0  0  0  0  0
   40.4700   31.5500   41.4040 H   0  0  0  0  0  0  0  0  0  0  0  0
   37.9470   29.2170   43.6480 N   0  0  0  0  0  0  0  0  0  0  0  0
   36.9610   28.7390   42.9640 C   0  0  0  0  0  0  0  0  0  0  0  0
   36.5380   29.4660   41.8130 N   0  0  0  0  0  0  0  0  0  0  0  0
   36.2770   27.5340   43.2890 N   0  0  0  0  0  0  0  0  0  0  0  0
   35.8250   26.9840   42.5260 H   0  0  0  0  0  0  0  0  0  0  0  0
   38.3420   28.7740   44.5040 H   0  0  0  0  0  0  0  0  0  0  0  0
   35.6690   29.1890   41.2850 H   0  0  0  0  0  0  0  0  0  0  0  0
   36.2620   27.2610   44.2830 H   0  0  0  0  0  0  0  0  0  0  0  0
   36.8610   33.7150   39.6760 O   0  0  0  0  0  0  0  0  0  0  0  0
   36.8410   33.7500   38.6620 H   0  0  0  0  0  0  0  0  0  0  0  0
  1  2  2  0  0  0  0
  1  6  1  0  0  0  0
  2  3  1  0  0  0  0
  3  8  1  0  0  0  0
  3  4  2  0  0  0  0
  5  4  1  0  0  0  0
  5 11  1  0  0  0  0
  6  5  2  0  0  0  0
  7  2  1  0  0  0  0
  9 14  1  0  0  0  0
 10 12  1  0  0  0  0
 10  9  2  0  0  0  0
 11 10  1  0  0  0  0
 12 16  1  0  0  0  0
 13 12  1  0  0  0  0
 15 11  1  0  0  0  0
 17  1  1  0  0  0  0
 18 17  1  0  0  0  0
M  END
>  <minimizedAffinity>
-4.44608688

$$$$

 OpenBabel03242518433D

 18 18  0  0  0  0  0  0  0  0999 V2000
   39.3190   31.9200   37.9220 C   0  0  0  0  0  0  0  0  0  0  0  0
   40.0020   32.2390   39.1090 C   0  0  0  0  0  0  0  0  0  0  0  0
   39.4460   31.7820   40.3110 C   0  0  0  0  0  0  0  0  0  0  0  0
   38.2990   31.0720   40.2610 N   0  0  0  0  0  0  0  0  0  0  0  0
   37.6760   30.7900   39.0950 C   0  0  0  0  0  0  0  0  0  0  0  0
   38.1850   31.2130   37.9380 N   0  0  0  0  0  0  0  0  0  0  0  0
   40.9170   32.8020   39.1850 H   0  0  0  0  0  0  0  0  0  0  0  0
   39.8790   31.9640   41.2810 H   0  0  0  0  0  0  0  0  0  0  0  0
   35.8880   31.0120   41.1620 N   0  0  0  0  0  0  0  0  0  0  0  0
   35.6090   30.1250   40.2640 C   0  0  0  0  0  0  0  0  0  0  0  0
   36.4690   30.0340   39.1310 N   0  0  0  0  0  0  0  0  0  0  0  0
   34.4980   29.2390   40.3410 N   0  0  0  0  0  0  0  0  0  0  0  0
   34.5550   28.3100   39.8690 H   0  0  0  0  0  0  0  0  0  0  0  0
   35.3350   31.1700   42.0290 H   0  0  0  0  0  0  0  0  0  0  0  0
   36.2270   29.4140   38.3150 H   0  0  0  0  0  0  0  0  0  0  0  0
   33.6760   29.5670   40.8690 H   0  0  0  0  0  0  0  0  0  0  0  0
   39.8720   32.3730   36.7500 O   0  0  0  0  0  0  0  0  0  0  0  0
   40.5930   31.8350   36.2810 H   0  0  0  0  0  0  0  0  0  0  0  0
  1  6  2  0  0  0  0
  1  2  1  0  0  0  0
  2  7  1  0  0  0  0
  2  3  2  0  0  0  0
  3  8  1  0  0  0  0
  4  3  1  0  0  0  0
  5 11  1  0  0  0  0
  5  4  2  0  0  0  0
  6  5  1  0  0  0  0
  9 14  1  0  0  0  0
 10 12  1  0  0  0  0
 10  9  2  0  0  0  0
 11 10  1  0  0  0  0
 12 16  1  0  0  0  0
 13 12  1  0  0  0  0
 15 11  1  0  0  0  0
 17  1  1  0  0  0  0
 18 17  1  0  0  0  0
M  END
>  <minimizedAffinity>
-4.43929672

$$$$

 OpenBabel03242518433D

 18 18  0  0  0  0  0  0  0  0999 V2000
   40.6950   31.7150   37.7190 C   0  0  0  0  0  0  0  0  0  0  0  0
   41.1170   32.9640   38.2060 C   0  0  0  0  0  0  0  0  0  0  0  0
   40.4080   33.5040   39.2870 C   0  0  0  0  0  0  0  0  0  0  0  0
   39.3730   32.8020   39.7930 N   0  0  0  0  0  0  0  0  0  0  0  0
   39.0020   31.6020   39.2910 C   0  0  0  0  0  0  0  0  0  0  0  0
   39.6610   31.0670   38.2630 N   0  0  0  0  0  0  0  0  0  0  0  0
   41.9380   33.5510   37.8280 H   0  0  0  0  0  0  0  0  0  0  0  0
   40.6390   34.4520   39.7440 H   0  0  0  0  0  0  0  0  0  0  0  0
   36.8600   32.9610   40.3320 N   0  0  0  0  0  0  0  0  0  0  0  0
   36.8430   31.6780   40.4810 C   0  0  0  0  0  0  0  0  0  0  0  0
   37.8970   30.9260   39.8830 N   0  0  0  0  0  0  0  0  0  0  0  0
   35.8390   30.9750   41.2040 N   0  0  0  0  0  0  0  0  0  0  0  0
   36.0800   30.0650   41.6540 H   0  0  0  0  0  0  0  0  0  0  0  0
   36.1470   33.6110   40.7220 H   0  0  0  0  0  0  0  0  0  0  0  0
   37.8730   29.8730   39.8720 H   0  0  0  0  0  0  0  0  0  0  0  0
   34.9050   31.4090   41.2470 H   0  0  0  0  0  0  0  0  0  0  0  0
   41.3970   31.1960   36.6590 O   0  0  0  0  0  0  0  0  0  0  0  0
   42.2440   30.6600   36.8170 H   0  0  0  0  0  0  0  0  0  0  0  0
  1  2  2  0  0  0  0
  1  6  1  0  0  0  0
  2  3  1  0  0  0  0
  3  8  1  0  0  0  0
  3  4  2  0  0  0  0
  5  4  1  0  0  0  0
  5 11  1  0  0  0  0
  6  5  2  0  0  0  0
  7  2  1  0  0  0  0
  9 10  2  0  0  0  0
  9 14  1  0  0  0  0
 10 12  1  0  0  0  0
 11 10  1  0  0  0  0
 12 16  1  0  0  0  0
 12 13  1  0  0  0  0
 15 11  1  0  0  0  0
 17 18  1  0  0  0  0
 17  1  1  0  0  0  0
M  END
>  <minimizedAffinity>
-4.43812943

$$$$

 OpenBabel03242518433D

 18 18  0  0  0  0  0  0  0  0999 V2000
   38.2140   25.4960   42.6060 C   0  0  0  0  0  0  0  0  0  0  0  0
   39.3990   25.9540   43.2060 C   0  0  0  0  0  0  0  0  0  0  0  0
   39.5320   27.3380   43.3890 C   0  0  0  0  0  0  0  0  0  0  0  0
   38.5270   28.1400   42.9820 N   0  0  0  0  0  0  0  0  0  0  0  0
   37.4030   27.6540   42.4090 C   0  0  0  0  0  0  0  0  0  0  0  0
   37.2520   26.3430   42.2240 N   0  0  0  0  0  0  0  0  0  0  0  0
   40.2200   25.3440   43.5420 H   0  0  0  0  0  0  0  0  0  0  0  0
   40.3940   27.8040   43.8370 H   0  0  0  0  0  0  0  0  0  0  0  0
   38.0030   30.1620   41.4780 N   0  0  0  0  0  0  0  0  0  0  0  0
   36.7460   29.8910   41.6050 C   0  0  0  0  0  0  0  0  0  0  0  0
   36.3890   28.5710   42.0080 N   0  0  0  0  0  0  0  0  0  0  0  0
   35.7020   30.8290   41.3680 N   0  0  0  0  0  0  0  0  0  0  0  0
   34.7970   30.7220   41.8770 H   0  0  0  0  0  0  0  0  0  0  0  0
   38.3810   31.0880   41.1900 H   0  0  0  0  0  0  0  0  0  0  0  0
   35.3830   28.2590   42.0160 H   0  0  0  0  0  0  0  0  0  0  0  0
   35.8970   31.5810   40.6910 H   0  0  0  0  0  0  0  0  0  0  0  0
   38.0940   24.1400   42.4310 O   0  0  0  0  0  0  0  0  0  0  0  0
   37.7420   23.5540   43.1820 H   0  0  0  0  0  0  0  0  0  0  0  0
  1  2  1  0  0  0  0
  2  3  2  0  0  0  0
  2  7  1  0  0  0  0
  3  8  1  0  0  0  0
  4  3  1  0  0  0  0
  5  4  2  0  0  0  0
  6  5  1  0  0  0  0
  6  1  2  0  0  0  0
  9 10  2  0  0  0  0
 10 11  1  0  0  0  0
 11 15  1  0  0  0  0
 11  5  1  0  0  0  0
 12 10  1  0  0  0  0
 12 13  1  0  0  0  0
 14  9  1  0  0  0  0
 16 12  1  0  0  0  0
 17  1  1  0  0  0  0
 17 18  1  0  0  0  0
M  END
>  <minimizedAffinity>
-4.4311986

$$$$

 OpenBabel03242518433D

 18 18  0  0  0  0  0  0  0  0999 V2000
   37.6560   28.0510   43.2820 C   0  0  0  0  0  0  0  0  0  0  0  0
   36.8710   27.2030   42.4810 C   0  0  0  0  0  0  0  0  0  0  0  0
   37.4370   25.9790   42.0980 C   0  0  0  0  0  0  0  0  0  0  0  0
   38.6870   25.6890   42.5140 N   0  0  0  0  0  0  0  0  0  0  0  0
   39.4050   26.5380   43.2840 C   0  0  0  0  0  0  0  0  0  0  0  0
   38.8900   27.7070   43.6620 N   0  0  0  0  0  0  0  0  0  0  0  0
   35.8710   27.4010   42.1320 H   0  0  0  0  0  0  0  0  0  0  0  0
   36.9320   25.2490   41.4870 H   0  0  0  0  0  0  0  0  0  0  0  0
   41.0270   25.0340   41.6630 N   0  0  0  0  0  0  0  0  0  0  0  0
   41.4950   25.3070   42.8360 C   0  0  0  0  0  0  0  0  0  0  0  0
   40.7190   26.1550   43.6790 N   0  0  0  0  0  0  0  0  0  0  0  0
   42.7340   24.8130   43.3320 N   0  0  0  0  0  0  0  0  0  0  0  0
   42.8570   24.6910   44.3610 H   0  0  0  0  0  0  0  0  0  0  0  0
   41.5030   24.4280   40.9630 H   0  0  0  0  0  0  0  0  0  0  0  0
   41.1020   26.5050   44.5960 H   0  0  0  0  0  0  0  0  0  0  0  0
   43.4620   24.5970   42.6350 H   0  0  0  0  0  0  0  0  0  0  0  0
   37.0920   29.2470   43.6510 O   0  0  0  0  0  0  0  0  0  0  0  0
   36.4960   29.3030   44.4710 H   0  0  0  0  0  0  0  0  0  0  0  0
  1 17  1  0  0  0  0
  1  6  1  0  0  0  0
  2  1  2  0  0  0  0
  3  2  1  0  0  0  0
  3  4  2  0  0  0  0
  4  5  1  0  0  0  0
  5  6  2  0  0  0  0
  5 11  1  0  0  0  0
  7  2  1  0  0  0  0
  8  3  1  0  0  0  0
  9 10  2  0  0  0  0
 10 12  1  0  0  0  0
 10 11  1  0  0  0  0
 11 15  1  0  0  0  0
 12 13  1  0  0  0  0
 14  9  1  0  0  0  0
 16 12  1  0  0  0  0
 17 18  1  0  0  0  0
M  END
>  <minimizedAffinity>
-4.37782145

$$$$

 OpenBabel03242518433D

 18 18  0  0  0  0  0  0  0  0999 V2000
   36.9930   28.9230   42.0420 C   0  0  0  0  0  0  0  0  0  0  0  0
   38.2910   28.5110   41.6930 C   0  0  0  0  0  0  0  0  0  0  0  0
   39.0680   29.4060   40.9440 C   0  0  0  0  0  0  0  0  0  0  0  0
   38.5310   30.5970   40.6050 N   0  0  0  0  0  0  0  0  0  0  0  0
   37.2760   30.9500   40.9630 C   0  0  0  0  0  0  0  0  0  0  0  0
   36.5170   30.1160   41.6750 N   0  0  0  0  0  0  0  0  0  0  0  0
   38.7510   27.5710   41.9460 H   0  0  0  0  0  0  0  0  0  0  0  0
   40.0750   29.2020   40.6200 H   0  0  0  0  0  0  0  0  0  0  0  0
   38.0050   32.1040   38.5850 N   0  0  0  0  0  0  0  0  0  0  0  0
   37.2530   32.8200   39.3550 C   0  0  0  0  0  0  0  0  0  0  0  0
   36.7850   32.2260   40.5640 N   0  0  0  0  0  0  0  0  0  0  0  0
   36.8690   34.1590   39.0690 N   0  0  0  0  0  0  0  0  0  0  0  0
   36.6580   34.8080   39.8590 H   0  0  0  0  0  0  0  0  0  0  0  0
   38.4050   32.4300   37.6810 H   0  0  0  0  0  0  0  0  0  0  0  0
   36.0790   32.7170   41.1710 H   0  0  0  0  0  0  0  0  0  0  0  0
   36.8170   34.4270   38.0750 H   0  0  0  0  0  0  0  0  0  0  0  0
   36.2410   28.0380   42.7750 O   0  0  0  0  0  0  0  0  0  0  0  0
   36.3220   28.0090   43.7860 H   0  0  0  0  0  0  0  0  0  0  0  0
  1 17  1  0  0  0  0
  2  7  1  0  0  0  0
  2  1  1  0  0  0  0
  3  2  2  0  0  0  0
  4  3  1  0  0  0  0
  4  5  2  0  0  0  0
  5  6  1  0  0  0  0
  6  1  2  0  0  0  0
  8  3  1  0  0  0  0
  9 10  2  0  0  0  0
 10 11  1  0  0  0  0
 11  5  1  0  0  0  0
 11 15  1  0  0  0  0
 12 10  1  0  0  0  0
 12 13  1  0  0  0  0
 14  9  1  0  0  0  0
 16 12  1  0  0  0  0
 17 18  1  0  0  0  0
M  END
>  <minimizedAffinity>
-4.3377924

$$$$

 OpenBabel03242518433D

 18 18  0  0  0  0  0  0  0  0999 V2000
   37.9430   32.0210   40.1940 C   0  0  0  0  0  0  0  0  0  0  0  0
   38.4190   30.7130   40.3890 C   0  0  0  0  0  0  0  0  0  0  0  0
   39.6960   30.4150   39.8950 C   0  0  0  0  0  0  0  0  0  0  0  0
   40.3870   31.3890   39.2670 N   0  0  0  0  0  0  0  0  0  0  0  0
   39.8880   32.6340   39.1010 C   0  0  0  0  0  0  0  0  0  0  0  0
   38.6760   32.9430   39.5630 N   0  0  0  0  0  0  0  0  0  0  0  0
   37.8970   29.9120   40.8860 H   0  0  0  0  0  0  0  0  0  0  0  0
   40.1650   29.4480   39.9850 H   0  0  0  0  0  0  0  0  0  0  0  0
   41.5820   31.9500   37.0570 N   0  0  0  0  0  0  0  0  0  0  0  0
   41.6070   33.1900   37.4220 C   0  0  0  0  0  0  0  0  0  0  0  0
   40.6830   33.6040   38.4260 N   0  0  0  0  0  0  0  0  0  0  0  0
   42.4980   34.1600   36.8830 N   0  0  0  0  0  0  0  0  0  0  0  0
   42.7790   34.9740   37.4720 H   0  0  0  0  0  0  0  0  0  0  0  0
   42.2070   31.5350   36.3360 H   0  0  0  0  0  0  0  0  0  0  0  0
   40.5770   34.6210   38.6790 H   0  0  0  0  0  0  0  0  0  0  0  0
   42.8270   34.0060   35.9190 H   0  0  0  0  0  0  0  0  0  0  0  0
   36.6910   32.3020   40.6820 O   0  0  0  0  0  0  0  0  0  0  0  0
   36.5680   32.5820   41.6500 H   0  0  0  0  0  0  0  0  0  0  0  0
  1  2  1  0  0  0  0
  1 17  1  0  0  0  0
  2  7  1  0  0  0  0
  3  8  1  0  0  0  0
  3  2  2  0  0  0  0
  4  3  1  0  0  0  0
  5  4  2  0  0  0  0
  5  6  1  0  0  0  0
  6  1  2  0  0  0  0
  9 10  2  0  0  0  0
 10 11  1  0  0  0  0
 11 15  1  0  0  0  0
 11  5  1  0  0  0  0
 12 10  1  0  0  0  0
 12 13  1  0  0  0  0
 14  9  1  0  0  0  0
 16 12  1  0  0  0  0
 17 18  1  0  0  0  0
M  END
>  <minimizedAffinity>
-4.29175377

$$$$
