
 OpenBabel03252509043D

 47 48  0  0  1  0  0  0  0  0999 V2000
   46.9480   34.3080   43.2750 N   0  0  0  0  0  0  0  0  0  0  0  0
   46.4600   35.4470   42.5960 C   0  0  0  0  0  0  0  0  0  0  0  0
   44.9630   35.6800   42.7420 C   0  0  0  0  0  0  0  0  0  0  0  0
   44.4020   35.2660   44.0820 C   0  0  0  0  0  0  0  0  0  0  0  0
   45.4950   34.7840   45.0230 C   0  0  0  0  0  0  0  0  0  0  0  0
   46.1800   33.6210   44.1980 C   0  0  2  0  0  0  0  0  0  0  0  0
   46.6780   35.5280   41.5290 H   0  0  0  0  0  0  0  0  0  0  0  0
   46.9420   36.3470   43.0710 H   0  0  0  0  0  0  0  0  0  0  0  0
   44.7300   36.7420   42.5410 H   0  0  0  0  0  0  0  0  0  0  0  0
   44.4070   35.0900   41.9690 H   0  0  0  0  0  0  0  0  0  0  0  0
   43.8720   36.0970   44.5950 H   0  0  0  0  0  0  0  0  0  0  0  0
   43.6680   34.4200   44.0000 H   0  0  0  0  0  0  0  0  0  0  0  0
   45.0380   34.3390   45.9060 H   0  0  0  0  0  0  0  0  0  0  0  0
   46.2470   35.5600   45.2190 H   0  0  0  0  0  0  0  0  0  0  0  0
   45.3550   32.9940   43.8360 H   0  0  0  0  0  0  0  0  0  0  0  0
   47.9640   33.5850   42.5500 C   0  0  0  0  0  0  0  0  0  0  0  0
   48.6000   34.3360   42.0320 H   0  0  0  0  0  0  0  0  0  0  0  0
   48.6460   33.0280   43.2240 H   0  0  0  0  0  0  0  0  0  0  0  0
   47.2860   32.6840   41.5660 C   0  0  0  0  0  0  0  0  0  0  0  0
   47.4400   31.6550   41.8840 H   0  0  0  0  0  0  0  0  0  0  0  0
   46.1790   32.8470   41.5500 H   0  0  0  0  0  0  0  0  0  0  0  0
   49.2710   32.1740   38.4190 C   0  0  0  0  0  0  0  0  0  0  0  0
   48.7090   31.9840   39.6930 C   0  0  0  0  0  0  0  0  0  0  0  0
   47.8600   32.9150   40.2210 C   0  0  0  0  0  0  0  0  0  0  0  0
   47.5990   33.9900   39.4770 N   0  0  0  0  0  0  0  0  0  0  0  0
   48.1230   34.1930   38.2580 C   0  0  0  0  0  0  0  0  0  0  0  0
   48.9650   33.2920   37.7100 N   0  0  0  0  0  0  0  0  0  0  0  0
   49.9520   31.4340   37.9900 H   0  0  0  0  0  0  0  0  0  0  0  0
   49.0070   31.0830   40.1680 H   0  0  0  0  0  0  0  0  0  0  0  0
   47.8180   35.1000   37.7920 H   0  0  0  0  0  0  0  0  0  0  0  0
   46.9520   33.0260   45.1820 O   0  0  0  0  0  0  0  0  0  0  0  0
   45.5440   30.8490   44.5550 O   0  0  0  0  0  0  0  0  0  0  0  0
   46.3370   31.5550   45.6790 P   0  0  2  0  0  0  0  0  0  0  0  0
   45.1340   31.9070   46.8570 O   0  0  0  0  0  0  0  0  0  0  0  0
   45.6370   32.4230   47.5620 H   0  0  0  0  0  0  0  0  0  0  0  0
   47.4410   30.5370   46.3740 O   0  0  0  0  0  0  0  0  0  0  0  0
   48.0150   29.7250   45.4180 C   0  0  0  0  0  0  0  0  0  0  0  0
   47.3830   28.8220   45.2490 H   0  0  0  0  0  0  0  0  0  0  0  0
   48.9600   29.3120   45.8630 H   0  0  0  0  0  0  0  0  0  0  0  0
   50.5910   29.2710   44.3000 N   0  0  0  0  0  0  0  0  0  0  0  0
   49.6550   29.9670   43.7500 C   0  0  0  0  0  0  0  0  0  0  0  0
   48.3450   30.3960   44.1790 N   0  0  0  0  0  0  0  0  0  0  0  0
   50.2150   30.2880   42.4600 N   0  0  0  0  0  0  0  0  0  0  0  0
   49.7320   30.0720   41.5610 H   0  0  0  0  0  0  0  0  0  0  0  0
   50.5460   28.8610   45.2460 H   0  0  0  0  0  0  0  0  0  0  0  0
   47.9500   31.0830   43.4980 H   0  0  0  0  0  0  0  0  0  0  0  0
   51.1170   30.7490   42.2300 H   0  0  0  0  0  0  0  0  0  0  0  0
  1  6  1  0  0  0  0
  2  3  1  0  0  0  0
  2  8  1  0  0  0  0
  2  1  1  0  0  0  0
  3  4  1  0  0  0  0
  4 11  1  0  0  0  0
  4  5  1  0  0  0  0
  5 14  1  0  0  0  0
  5 13  1  0  0  0  0
  6 15  1  6  0  0  0
  6  5  1  0  0  0  0
  6 31  1  0  0  0  0
  7  2  1  0  0  0  0
  9  3  1  0  0  0  0
 10  3  1  0  0  0  0
 12  4  1  0  0  0  0
 16 18  1  0  0  0  0
 16  1  1  0  0  0  0
 17 16  1  0  0  0  0
 19 20  1  0  0  0  0
 19 16  1  0  0  0  0
 21 19  1  0  0  0  0
 22 23  1  0  0  0  0
 23 29  1  0  0  0  0
 23 24  2  0  0  0  0
 24 19  1  0  0  0  0
 25 24  1  0  0  0  0
 26 25  2  0  0  0  0
 27 26  1  0  0  0  0
 27 22  2  0  0  0  0
 28 22  1  0  0  0  0
 30 26  1  0  0  0  0
 31 33  1  0  0  0  0
 33 32  2  6  0  0  0
 33 36  1  0  0  0  0
 33 34  1  0  0  0  0
 34 35  1  0  0  0  0
 37 39  1  0  0  0  0
 37 36  1  0  0  0  0
 38 37  1  0  0  0  0
 40 45  1  0  0  0  0
 41 42  1  0  0  0  0
 41 40  2  0  0  0  0
 42 37  1  0  0  0  0
 43 41  1  0  0  0  0
 44 43  1  0  0  0  0
 46 42  1  0  0  0  0
 47 43  1  0  0  0  0
M  END
>  <minimizedAffinity>
-3.80035305

>  <minimizedRMSD>
1.46512735

$$$$
