
 OpenBabel03252509033D

 47 48  0  0  1  0  0  0  0  0999 V2000
   46.9470   34.3070   43.2750 N   0  0  0  0  0  0  0  0  0  0  0  0
   46.4590   35.4460   42.5960 C   0  0  0  0  0  0  0  0  0  0  0  0
   44.9630   35.6800   42.7420 C   0  0  0  0  0  0  0  0  0  0  0  0
   44.4020   35.2670   44.0820 C   0  0  0  0  0  0  0  0  0  0  0  0
   45.4950   34.7850   45.0230 C   0  0  0  0  0  0  0  0  0  0  0  0
   46.1800   33.6210   44.1980 C   0  0  2  0  0  0  0  0  0  0  0  0
   46.6770   35.5270   41.5280 H   0  0  0  0  0  0  0  0  0  0  0  0
   46.9420   36.3460   43.0700 H   0  0  0  0  0  0  0  0  0  0  0  0
   44.7300   36.7420   42.5420 H   0  0  0  0  0  0  0  0  0  0  0  0
   44.4060   35.0910   41.9700 H   0  0  0  0  0  0  0  0  0  0  0  0
   43.8720   36.0980   44.5960 H   0  0  0  0  0  0  0  0  0  0  0  0
   43.6680   34.4210   44.0010 H   0  0  0  0  0  0  0  0  0  0  0  0
   45.0390   34.3390   45.9060 H   0  0  0  0  0  0  0  0  0  0  0  0
   46.2480   35.5600   45.2190 H   0  0  0  0  0  0  0  0  0  0  0  0
   45.3540   32.9940   43.8360 H   0  0  0  0  0  0  0  0  0  0  0  0
   47.9630   33.5840   42.5490 C   0  0  0  0  0  0  0  0  0  0  0  0
   48.5990   34.3350   42.0320 H   0  0  0  0  0  0  0  0  0  0  0  0
   48.6440   33.0250   43.2230 H   0  0  0  0  0  0  0  0  0  0  0  0
   47.2840   32.6850   41.5640 C   0  0  0  0  0  0  0  0  0  0  0  0
   47.4360   31.6550   41.8820 H   0  0  0  0  0  0  0  0  0  0  0  0
   46.1770   32.8480   41.5480 H   0  0  0  0  0  0  0  0  0  0  0  0
   49.2700   32.1740   38.4190 C   0  0  0  0  0  0  0  0  0  0  0  0
   48.7080   31.9840   39.6930 C   0  0  0  0  0  0  0  0  0  0  0  0
   47.8590   32.9150   40.2200 C   0  0  0  0  0  0  0  0  0  0  0  0
   47.5990   33.9900   39.4760 N   0  0  0  0  0  0  0  0  0  0  0  0
   48.1240   34.1940   38.2580 C   0  0  0  0  0  0  0  0  0  0  0  0
   48.9650   33.2920   37.7100 N   0  0  0  0  0  0  0  0  0  0  0  0
   49.9510   31.4330   37.9900 H   0  0  0  0  0  0  0  0  0  0  0  0
   49.0040   31.0820   40.1680 H   0  0  0  0  0  0  0  0  0  0  0  0
   47.8200   35.1010   37.7910 H   0  0  0  0  0  0  0  0  0  0  0  0
   46.9520   33.0250   45.1820 O   0  0  0  0  0  0  0  0  0  0  0  0
   45.5440   30.8490   44.5540 O   0  0  0  0  0  0  0  0  0  0  0  0
   46.3360   31.5540   45.6780 P   0  0  2  0  0  0  0  0  0  0  0  0
   45.1330   31.9070   46.8560 O   0  0  0  0  0  0  0  0  0  0  0  0
   45.6360   32.4220   47.5620 H   0  0  0  0  0  0  0  0  0  0  0  0
   47.4410   30.5360   46.3740 O   0  0  0  0  0  0  0  0  0  0  0  0
   48.0160   29.7250   45.4180 C   0  0  0  0  0  0  0  0  0  0  0  0
   47.3840   28.8220   45.2480 H   0  0  0  0  0  0  0  0  0  0  0  0
   48.9600   29.3120   45.8630 H   0  0  0  0  0  0  0  0  0  0  0  0
   50.5900   29.2700   44.2990 N   0  0  0  0  0  0  0  0  0  0  0  0
   49.6550   29.9670   43.7500 C   0  0  0  0  0  0  0  0  0  0  0  0
   48.3450   30.3960   44.1790 N   0  0  0  0  0  0  0  0  0  0  0  0
   50.2150   30.2890   42.4600 N   0  0  0  0  0  0  0  0  0  0  0  0
   49.7310   30.0730   41.5600 H   0  0  0  0  0  0  0  0  0  0  0  0
   50.5460   28.8600   45.2440 H   0  0  0  0  0  0  0  0  0  0  0  0
   47.9510   31.0840   43.4990 H   0  0  0  0  0  0  0  0  0  0  0  0
   51.1170   30.7490   42.2300 H   0  0  0  0  0  0  0  0  0  0  0  0
  1  6  1  0  0  0  0
  2  3  1  0  0  0  0
  2  8  1  0  0  0  0
  2  1  1  0  0  0  0
  3  4  1  0  0  0  0
  4 11  1  0  0  0  0
  4  5  1  0  0  0  0
  5 14  1  0  0  0  0
  5 13  1  0  0  0  0
  6 15  1  6  0  0  0
  6  5  1  0  0  0  0
  6 31  1  0  0  0  0
  7  2  1  0  0  0  0
  9  3  1  0  0  0  0
 10  3  1  0  0  0  0
 12  4  1  0  0  0  0
 16 18  1  0  0  0  0
 16  1  1  0  0  0  0
 17 16  1  0  0  0  0
 19 20  1  0  0  0  0
 19 16  1  0  0  0  0
 21 19  1  0  0  0  0
 22 23  1  0  0  0  0
 23 29  1  0  0  0  0
 23 24  2  0  0  0  0
 24 19  1  0  0  0  0
 25 24  1  0  0  0  0
 26 25  2  0  0  0  0
 27 26  1  0  0  0  0
 27 22  2  0  0  0  0
 28 22  1  0  0  0  0
 30 26  1  0  0  0  0
 31 33  1  0  0  0  0
 33 32  2  6  0  0  0
 33 36  1  0  0  0  0
 33 34  1  0  0  0  0
 34 35  1  0  0  0  0
 37 39  1  0  0  0  0
 37 36  1  0  0  0  0
 38 37  1  0  0  0  0
 40 45  1  0  0  0  0
 41 42  1  0  0  0  0
 41 40  2  0  0  0  0
 42 37  1  0  0  0  0
 43 41  1  0  0  0  0
 44 43  1  0  0  0  0
 46 42  1  0  0  0  0
 47 43  1  0  0  0  0
M  END
>  <minimizedAffinity>
-3.80244684

>  <minimizedRMSD>
1.36894619

$$$$
