
 OpenBabel03252501523D

 44 46  0  0  1  0  0  0  0  0999 V2000
   36.3200   27.6390   39.1890 C   0  0  0  0  0  0  0  0  0  0  0  0
   35.8290   26.7010   39.5130 H   0  0  0  0  0  0  0  0  0  0  0  0
   37.3430   27.4400   38.7580 H   0  0  0  0  0  0  0  0  0  0  0  0
   36.5030   28.5370   40.3030 N   0  0  0  0  0  0  0  0  0  0  0  0
   36.4700   27.8150   41.5340 C   0  0  0  0  0  0  0  0  0  0  0  0
   37.4660   28.4360   42.4790 C   0  0  0  0  0  0  0  0  0  0  0  0
   38.4300   29.1040   41.5570 C   0  0  0  0  0  0  0  0  0  0  0  0
   37.7360   29.2420   40.2130 C   0  0  2  0  0  0  0  0  0  0  0  0
   36.8620   26.7860   41.3160 H   0  0  0  0  0  0  0  0  0  0  0  0
   35.4740   27.6720   41.9660 H   0  0  0  0  0  0  0  0  0  0  0  0
   37.9340   27.6440   43.1050 H   0  0  0  0  0  0  0  0  0  0  0  0
   36.9200   29.1340   43.1420 H   0  0  0  0  0  0  0  0  0  0  0  0
   39.3380   28.4710   41.5040 H   0  0  0  0  0  0  0  0  0  0  0  0
   38.7060   30.0830   41.9890 H   0  0  0  0  0  0  0  0  0  0  0  0
   38.3840   28.7300   39.4680 H   0  0  0  0  0  0  0  0  0  0  0  0
   35.7700   31.0860   41.1580 N   0  0  0  0  0  0  0  0  0  0  0  0
   36.7530   31.5430   40.4570 C   0  0  0  0  0  0  0  0  0  0  0  0
   37.6230   30.6280   39.8140 N   0  0  0  0  0  0  0  0  0  0  0  0
   36.9530   32.9490   40.3350 N   0  0  0  0  0  0  0  0  0  0  0  0
   36.8330   33.1470   39.2990 H   0  0  0  0  0  0  0  0  0  0  0  0
   35.1190   31.7600   41.6380 H   0  0  0  0  0  0  0  0  0  0  0  0
   38.1820   31.0520   39.0180 H   0  0  0  0  0  0  0  0  0  0  0  0
   37.1630   33.8560   40.8020 H   0  0  0  0  0  0  0  0  0  0  0  0
   34.2030   28.3440   38.1460 C   0  0  0  0  0  3  0  0  0  0  0  0
   35.5370   28.2550   38.0650 C   0  0  0  0  0  3  0  0  0  0  0  0
   33.8870   29.0860   35.7310 C   0  0  0  0  0  0  0  0  0  0  0  0
   33.4020   28.9440   37.0580 C   0  0  0  0  0  0  0  0  0  0  0  0
   32.1100   29.3890   37.3600 C   0  0  0  0  0  0  0  0  0  0  0  0
   31.3670   29.9440   36.3610 N   0  0  0  0  0  0  0  0  0  0  0  0
   31.8550   30.0610   35.1240 C   0  0  0  0  0  0  0  0  0  0  0  0
   33.0990   29.6340   34.8280 N   0  0  0  0  0  0  0  0  0  0  0  0
   34.8990   28.7210   35.5560 H   0  0  0  0  0  0  0  0  0  0  0  0
   31.7320   29.2880   38.3630 H   0  0  0  0  0  0  0  0  0  0  0  0
   31.3400   32.7870   35.0740 F   0  0  0  0  0  0  0  0  0  0  0  0
   30.7910   32.0350   34.0880 C   0  0  0  0  0  0  0  0  0  0  0  0
   31.0280   30.6600   34.0810 C   0  0  0  0  0  0  0  0  0  0  0  0
   30.5030   29.8320   33.1100 C   0  0  0  0  0  0  0  0  0  0  0  0
   29.7160   30.4140   32.1220 C   0  0  0  0  0  0  0  0  0  0  0  0
   29.4590   31.7950   32.1010 C   0  0  0  0  0  0  0  0  0  0  0  0
   30.0030   32.5960   33.0920 C   0  0  0  0  0  0  0  0  0  0  0  0
   30.6970   28.7860   33.1260 H   0  0  0  0  0  0  0  0  0  0  0  0
   29.3280   29.7330   31.3870 H   0  0  0  0  0  0  0  0  0  0  0  0
   28.8420   32.1800   31.3070 H   0  0  0  0  0  0  0  0  0  0  0  0
   29.8170   33.6610   33.0950 H   0  0  0  0  0  0  0  0  0  0  0  0
  1  2  1  0  0  0  0
  1  4  1  0  0  0  0
  3  1  1  0  0  0  0
  4  5  1  0  0  0  0
  5 10  1  0  0  0  0
  5  6  1  0  0  0  0
  6 11  1  0  0  0  0
  6 12  1  0  0  0  0
  7 14  1  0  0  0  0
  7  6  1  0  0  0  0
  8 15  1  6  0  0  0
  8  4  1  0  0  0  0
  8  7  1  0  0  0  0
  9  5  1  0  0  0  0
 13  7  1  0  0  0  0
 16 21  1  0  0  0  0
 17 16  2  0  0  0  0
 18  8  1  0  0  0  0
 18 17  1  0  0  0  0
 19 17  1  0  0  0  0
 19 23  1  0  0  0  0
 20 19  1  0  0  0  0
 22 18  1  0  0  0  0
 25 24  2  0  0  0  0
 25  1  1  0  0  0  0
 26 27  1  0  0  0  0
 27 28  2  0  0  0  0
 27 24  1  0  0  0  0
 28 33  1  0  0  0  0
 29 28  1  0  0  0  0
 30 29  2  0  0  0  0
 31 30  1  0  0  0  0
 31 26  2  0  0  0  0
 32 26  1  0  0  0  0
 35 34  1  0  0  0  0
 36 35  1  0  0  0  0
 36 30  1  0  0  0  0
 37 41  1  0  0  0  0
 37 36  2  0  0  0  0
 38 37  1  0  0  0  0
 39 38  2  0  0  0  0
 39 40  1  0  0  0  0
 40 44  1  0  0  0  0
 40 35  2  0  0  0  0
 42 38  1  0  0  0  0
 43 39  1  0  0  0  0
M  END
>  <minimizedAffinity>
-6.43149614

$$$$

 OpenBabel03252501523D

 44 46  0  0  1  0  0  0  0  0999 V2000
   39.8660   34.2900   39.7870 C   0  0  0  0  0  0  0  0  0  0  0  0
   39.4480   34.7140   38.8530 H   0  0  0  0  0  0  0  0  0  0  0  0
   39.3950   34.7590   40.6990 H   0  0  0  0  0  0  0  0  0  0  0  0
   41.2840   34.5360   39.8770 N   0  0  0  0  0  0  0  0  0  0  0  0
   41.5860   35.2860   41.0530 C   0  0  0  0  0  0  0  0  0  0  0  0
   42.9000   34.7980   41.6070 C   0  0  0  0  0  0  0  0  0  0  0  0
   42.9970   33.4120   41.0640 C   0  0  0  0  0  0  0  0  0  0  0  0
   42.0280   33.3230   39.8980 C   0  0  2  0  0  0  0  0  0  0  0  0
   40.8140   35.0090   41.8190 H   0  0  0  0  0  0  0  0  0  0  0  0
   41.5240   36.3740   40.9430 H   0  0  0  0  0  0  0  0  0  0  0  0
   42.8740   34.8330   42.7190 H   0  0  0  0  0  0  0  0  0  0  0  0
   43.6960   35.4790   41.2500 H   0  0  0  0  0  0  0  0  0  0  0  0
   42.7420   32.7110   41.8830 H   0  0  0  0  0  0  0  0  0  0  0  0
   44.0430   33.2310   40.7560 H   0  0  0  0  0  0  0  0  0  0  0  0
   41.3340   32.4850   40.1270 H   0  0  0  0  0  0  0  0  0  0  0  0
   42.8520   35.2060   37.9150 N   0  0  0  0  0  0  0  0  0  0  0  0
   43.2650   33.9870   37.8120 C   0  0  0  0  0  0  0  0  0  0  0  0
   42.7110   33.0000   38.6640 N   0  0  0  0  0  0  0  0  0  0  0  0
   44.2640   33.6470   36.8530 N   0  0  0  0  0  0  0  0  0  0  0  0
   43.7820   32.9660   36.1960 H   0  0  0  0  0  0  0  0  0  0  0  0
   43.2590   35.9450   37.2850 H   0  0  0  0  0  0  0  0  0  0  0  0
   42.8440   32.0060   38.3150 H   0  0  0  0  0  0  0  0  0  0  0  0
   45.2410   33.7660   36.5140 H   0  0  0  0  0  0  0  0  0  0  0  0
   38.4530   32.4370   40.5870 C   0  0  0  0  0  3  0  0  0  0  0  0
   39.5190   32.8310   39.8770 C   0  0  0  0  0  3  0  0  0  0  0  0
   36.8210   30.5740   41.1750 C   0  0  0  0  0  0  0  0  0  0  0  0
   38.0840   31.0100   40.6970 C   0  0  0  0  0  0  0  0  0  0  0  0
   39.0310   30.0540   40.3100 C   0  0  0  0  0  0  0  0  0  0  0  0
   38.6970   28.7360   40.4090 N   0  0  0  0  0  0  0  0  0  0  0  0
   37.4990   28.3620   40.8630 C   0  0  0  0  0  0  0  0  0  0  0  0
   36.5840   29.2780   41.2380 N   0  0  0  0  0  0  0  0  0  0  0  0
   36.1260   31.3630   41.4620 H   0  0  0  0  0  0  0  0  0  0  0  0
   39.9930   30.3730   39.9460 H   0  0  0  0  0  0  0  0  0  0  0  0
   37.7430   26.9750   43.2540 F   0  0  0  0  0  0  0  0  0  0  0  0
   37.3140   26.2770   42.1740 C   0  0  0  0  0  0  0  0  0  0  0  0
   37.1800   26.9410   40.9550 C   0  0  0  0  0  0  0  0  0  0  0  0
   36.7490   26.2960   39.8140 C   0  0  0  0  0  0  0  0  0  0  0  0
   36.4480   24.9410   39.9130 C   0  0  0  0  0  0  0  0  0  0  0  0
   36.5720   24.2440   41.1260 C   0  0  0  0  0  0  0  0  0  0  0  0
   37.0080   24.9240   42.2510 C   0  0  0  0  0  0  0  0  0  0  0  0
   36.6540   26.8230   38.8950 H   0  0  0  0  0  0  0  0  0  0  0  0
   36.1160   24.4790   39.0010 H   0  0  0  0  0  0  0  0  0  0  0  0
   36.3220   23.1970   41.1330 H   0  0  0  0  0  0  0  0  0  0  0  0
   37.1110   24.4070   43.1950 H   0  0  0  0  0  0  0  0  0  0  0  0
  1 25  1  0  0  0  0
  1  4  1  0  0  0  0
  1  3  1  0  0  0  0
  2  1  1  0  0  0  0
  4  8  1  0  0  0  0
  4  5  1  0  0  0  0
  5  6  1  0  0  0  0
  5  9  1  0  0  0  0
  6 11  1  0  0  0  0
  7  6  1  0  0  0  0
  7 13  1  0  0  0  0
  8 15  1  1  0  0  0
  8  7  1  0  0  0  0
 10  5  1  0  0  0  0
 12  6  1  0  0  0  0
 14  7  1  0  0  0  0
 17 16  2  0  0  0  0
 17 18  1  0  0  0  0
 18  8  1  0  0  0  0
 19 17  1  0  0  0  0
 20 19  1  0  0  0  0
 21 16  1  0  0  0  0
 22 18  1  0  0  0  0
 23 19  1  0  0  0  0
 24 27  1  0  0  0  0
 25 24  2  0  0  0  0
 26 31  1  0  0  0  0
 26 32  1  0  0  0  0
 27 26  2  0  0  0  0
 28 29  2  0  0  0  0
 28 27  1  0  0  0  0
 29 30  1  0  0  0  0
 30 36  1  0  0  0  0
 30 31  2  0  0  0  0
 33 28  1  0  0  0  0
 35 40  1  0  0  0  0
 35 34  1  0  0  0  0
 36 35  2  0  0  0  0
 37 38  2  0  0  0  0
 37 36  1  0  0  0  0
 38 39  1  0  0  0  0
 39 43  1  0  0  0  0
 39 40  2  0  0  0  0
 40 44  1  0  0  0  0
 41 37  1  0  0  0  0
 42 38  1  0  0  0  0
M  END
>  <minimizedAffinity>
-6.36238766

$$$$

 OpenBabel03252501523D

 44 46  0  0  1  0  0  0  0  0999 V2000
   36.3110   27.7030   39.3430 C   0  0  0  0  0  0  0  0  0  0  0  0
   35.7640   26.7990   39.6750 H   0  0  0  0  0  0  0  0  0  0  0  0
   37.3070   27.4380   38.8870 H   0  0  0  0  0  0  0  0  0  0  0  0
   36.5810   28.5800   40.4560 N   0  0  0  0  0  0  0  0  0  0  0  0
   36.5920   27.8430   41.6790 C   0  0  0  0  0  0  0  0  0  0  0  0
   37.6560   28.4210   42.5760 C   0  0  0  0  0  0  0  0  0  0  0  0
   38.5890   29.0720   41.6110 C   0  0  0  0  0  0  0  0  0  0  0  0
   37.8280   29.2480   40.3090 C   0  0  2  0  0  0  0  0  0  0  0  0
   36.9400   26.8060   41.4280 H   0  0  0  0  0  0  0  0  0  0  0  0
   35.6160   27.7240   42.1630 H   0  0  0  0  0  0  0  0  0  0  0  0
   38.1320   27.6060   43.1670 H   0  0  0  0  0  0  0  0  0  0  0  0
   37.1670   29.1260   43.2760 H   0  0  0  0  0  0  0  0  0  0  0  0
   39.4720   28.4130   41.5010 H   0  0  0  0  0  0  0  0  0  0  0  0
   38.9180   30.0360   42.0400 H   0  0  0  0  0  0  0  0  0  0  0  0
   38.4190   28.7270   39.5230 H   0  0  0  0  0  0  0  0  0  0  0  0
   35.8050   31.0710   41.1700 N   0  0  0  0  0  0  0  0  0  0  0  0
   36.8280   31.5440   40.5400 C   0  0  0  0  0  0  0  0  0  0  0  0
   37.7370   30.6420   39.9330 N   0  0  0  0  0  0  0  0  0  0  0  0
   37.0320   32.9520   40.4600 N   0  0  0  0  0  0  0  0  0  0  0  0
   36.9740   33.1720   39.4230 H   0  0  0  0  0  0  0  0  0  0  0  0
   35.1250   31.7340   41.6250 H   0  0  0  0  0  0  0  0  0  0  0  0
   38.3420   31.0840   39.1810 H   0  0  0  0  0  0  0  0  0  0  0  0
   37.2110   33.8490   40.9580 H   0  0  0  0  0  0  0  0  0  0  0  0
   34.2200   28.2050   38.1400 C   0  0  0  0  0  3  0  0  0  0  0  0
   35.5450   28.3780   38.2410 C   0  0  0  0  0  3  0  0  0  0  0  0
   33.9180   28.9940   35.7380 C   0  0  0  0  0  0  0  0  0  0  0  0
   33.4370   28.8530   37.0670 C   0  0  0  0  0  0  0  0  0  0  0  0
   32.1670   29.3470   37.3860 C   0  0  0  0  0  0  0  0  0  0  0  0
   31.4400   29.9460   36.4010 N   0  0  0  0  0  0  0  0  0  0  0  0
   31.9230   30.0610   35.1620 C   0  0  0  0  0  0  0  0  0  0  0  0
   33.1460   29.5880   34.8500 N   0  0  0  0  0  0  0  0  0  0  0  0
   34.9130   28.5900   35.5510 H   0  0  0  0  0  0  0  0  0  0  0  0
   31.7920   29.2450   38.3910 H   0  0  0  0  0  0  0  0  0  0  0  0
   30.6670   28.5930   33.1710 F   0  0  0  0  0  0  0  0  0  0  0  0
   30.4970   29.9380   33.1490 C   0  0  0  0  0  0  0  0  0  0  0  0
   31.1140   30.7090   34.1350 C   0  0  0  0  0  0  0  0  0  0  0  0
   30.9860   32.0820   34.1760 C   0  0  0  0  0  0  0  0  0  0  0  0
   30.2140   32.6890   33.1910 C   0  0  0  0  0  0  0  0  0  0  0  0
   29.5790   31.9410   32.1860 C   0  0  0  0  0  0  0  0  0  0  0  0
   29.7290   30.5640   32.1750 C   0  0  0  0  0  0  0  0  0  0  0  0
   31.4670   32.6490   34.9380 H   0  0  0  0  0  0  0  0  0  0  0  0
   30.1410   33.7590   33.2620 H   0  0  0  0  0  0  0  0  0  0  0  0
   28.9960   32.4730   31.4540 H   0  0  0  0  0  0  0  0  0  0  0  0
   29.2500   29.9700   31.4100 H   0  0  0  0  0  0  0  0  0  0  0  0
  1  2  1  0  0  0  0
  1  4  1  0  0  0  0
  3  1  1  0  0  0  0
  4  5  1  0  0  0  0
  5 10  1  0  0  0  0
  5  6  1  0  0  0  0
  6 11  1  0  0  0  0
  6 12  1  0  0  0  0
  7 14  1  0  0  0  0
  7  6  1  0  0  0  0
  8 15  1  6  0  0  0
  8  4  1  0  0  0  0
  8  7  1  0  0  0  0
  9  5  1  0  0  0  0
 13  7  1  0  0  0  0
 16 21  1  0  0  0  0
 17 16  2  0  0  0  0
 18  8  1  0  0  0  0
 18 17  1  0  0  0  0
 19 17  1  0  0  0  0
 19 23  1  0  0  0  0
 20 19  1  0  0  0  0
 22 18  1  0  0  0  0
 24 25  2  0  0  0  0
 25  1  1  0  0  0  0
 26 27  1  0  0  0  0
 27 28  2  0  0  0  0
 27 24  1  0  0  0  0
 28 33  1  0  0  0  0
 29 28  1  0  0  0  0
 30 29  2  0  0  0  0
 31 30  1  0  0  0  0
 31 26  2  0  0  0  0
 32 26  1  0  0  0  0
 35 34  1  0  0  0  0
 35 36  1  0  0  0  0
 36 37  2  0  0  0  0
 36 30  1  0  0  0  0
 37 41  1  0  0  0  0
 38 42  1  0  0  0  0
 38 37  1  0  0  0  0
 39 38  2  0  0  0  0
 40 39  1  0  0  0  0
 40 35  2  0  0  0  0
 43 39  1  0  0  0  0
 44 40  1  0  0  0  0
M  END
>  <minimizedAffinity>
-6.29408455

$$$$

 OpenBabel03252501523D

 44 46  0  0  1  0  0  0  0  0999 V2000
   31.2190   29.5990   35.9730 C   0  0  0  0  0  0  0  0  0  0  0  0
   31.6690   29.0900   35.0980 H   0  0  0  0  0  0  0  0  0  0  0  0
   30.2390   29.1220   36.2660 H   0  0  0  0  0  0  0  0  0  0  0  0
   30.9400   30.9820   35.6790 N   0  0  0  0  0  0  0  0  0  0  0  0
   31.4770   31.3380   34.4050 C   0  0  0  0  0  0  0  0  0  0  0  0
   30.5280   32.3000   33.7370 C   0  0  0  0  0  0  0  0  0  0  0  0
   29.2250   31.9960   34.3980 C   0  0  0  0  0  0  0  0  0  0  0  0
   29.5420   31.2490   35.6820 C   0  0  2  0  0  0  0  0  0  0  0  0
   31.4570   30.4100   33.7750 H   0  0  0  0  0  0  0  0  0  0  0  0
   32.5200   31.6740   34.4130 H   0  0  0  0  0  0  0  0  0  0  0  0
   30.5170   32.1160   32.6400 H   0  0  0  0  0  0  0  0  0  0  0  0
   30.8970   33.3270   33.9210 H   0  0  0  0  0  0  0  0  0  0  0  0
   28.6230   31.3910   33.6920 H   0  0  0  0  0  0  0  0  0  0  0  0
   28.6980   32.9490   34.5860 H   0  0  0  0  0  0  0  0  0  0  0  0
   28.9960   30.2810   35.6280 H   0  0  0  0  0  0  0  0  0  0  0  0
   28.6990   30.0470   38.1320 N   0  0  0  0  0  0  0  0  0  0  0  0
   28.8350   31.3310   38.0930 C   0  0  0  0  0  0  0  0  0  0  0  0
   29.0560   31.9610   36.8430 N   0  0  0  0  0  0  0  0  0  0  0  0
   28.7620   32.0950   39.2940 N   0  0  0  0  0  0  0  0  0  0  0  0
   27.9170   32.7240   39.1590 H   0  0  0  0  0  0  0  0  0  0  0  0
   28.5350   29.5710   39.0560 H   0  0  0  0  0  0  0  0  0  0  0  0
   28.8320   32.9990   36.8400 H   0  0  0  0  0  0  0  0  0  0  0  0
   29.1610   32.3090   40.2310 H   0  0  0  0  0  0  0  0  0  0  0  0
   33.3380   28.9090   37.0240 C   0  0  0  0  0  3  0  0  0  0  0  0
   32.1100   29.4240   37.1700 C   0  0  0  0  0  3  0  0  0  0  0  0
   33.9750   29.2750   39.4610 C   0  0  0  0  0  0  0  0  0  0  0  0
   34.2400   28.7240   38.1800 C   0  0  0  0  0  0  0  0  0  0  0  0
   35.4040   27.9690   37.9920 C   0  0  0  0  0  0  0  0  0  0  0  0
   36.2390   27.7950   39.0550 N   0  0  0  0  0  0  0  0  0  0  0  0
   35.9590   28.3280   40.2460 C   0  0  0  0  0  0  0  0  0  0  0  0
   34.8400   29.0560   40.4320 N   0  0  0  0  0  0  0  0  0  0  0  0
   33.0540   29.8530   39.5460 H   0  0  0  0  0  0  0  0  0  0  0  0
   35.6150   27.5460   37.0250 H   0  0  0  0  0  0  0  0  0  0  0  0
   37.3030   30.4470   41.4300 F   0  0  0  0  0  0  0  0  0  0  0  0
   37.5370   29.2090   41.9300 C   0  0  0  0  0  0  0  0  0  0  0  0
   36.8790   28.1190   41.3600 C   0  0  0  0  0  0  0  0  0  0  0  0
   37.0670   26.8300   41.8150 C   0  0  0  0  0  0  0  0  0  0  0  0
   37.9470   26.6430   42.8770 C   0  0  0  0  0  0  0  0  0  0  0  0
   38.6240   27.7190   43.4720 C   0  0  0  0  0  0  0  0  0  0  0  0
   38.4110   28.9990   42.9890 C   0  0  0  0  0  0  0  0  0  0  0  0
   36.5540   26.0140   41.3640 H   0  0  0  0  0  0  0  0  0  0  0  0
   38.0630   25.6240   43.1990 H   0  0  0  0  0  0  0  0  0  0  0  0
   39.2910   27.5040   44.2910 H   0  0  0  0  0  0  0  0  0  0  0  0
   38.9220   29.8420   43.4330 H   0  0  0  0  0  0  0  0  0  0  0  0
  1  3  1  0  0  0  0
  1 25  1  0  0  0  0
  2  1  1  0  0  0  0
  4  8  1  0  0  0  0
  4  1  1  0  0  0  0
  5 10  1  0  0  0  0
  5  4  1  0  0  0  0
  6 12  1  0  0  0  0
  6  7  1  0  0  0  0
  6  5  1  0  0  0  0
  7 14  1  0  0  0  0
  7  8  1  0  0  0  0
  8 15  1  6  0  0  0
  8 18  1  0  0  0  0
  9  5  1  0  0  0  0
 11  6  1  0  0  0  0
 13  7  1  0  0  0  0
 16 21  1  0  0  0  0
 17 16  2  0  0  0  0
 17 19  1  0  0  0  0
 18 17  1  0  0  0  0
 19 23  1  0  0  0  0
 20 19  1  0  0  0  0
 22 18  1  0  0  0  0
 24 25  2  0  0  0  0
 24 27  1  0  0  0  0
 26 32  1  0  0  0  0
 26 31  1  0  0  0  0
 27 26  2  0  0  0  0
 28 27  1  0  0  0  0
 28 29  2  0  0  0  0
 29 30  1  0  0  0  0
 30 31  2  0  0  0  0
 30 36  1  0  0  0  0
 33 28  1  0  0  0  0
 34 35  1  0  0  0  0
 35 40  1  0  0  0  0
 36 37  1  0  0  0  0
 36 35  2  0  0  0  0
 37 38  2  0  0  0  0
 38 42  1  0  0  0  0
 38 39  1  0  0  0  0
 39 43  1  0  0  0  0
 40 44  1  0  0  0  0
 40 39  2  0  0  0  0
 41 37  1  0  0  0  0
M  END
>  <minimizedAffinity>
-6.23539925

$$$$

 OpenBabel03252501523D

 44 46  0  0  1  0  0  0  0  0999 V2000
   31.4300   29.5330   36.0730 C   0  0  0  0  0  0  0  0  0  0  0  0
   31.9620   30.1250   35.3030 H   0  0  0  0  0  0  0  0  0  0  0  0
   31.1630   28.5060   35.6910 H   0  0  0  0  0  0  0  0  0  0  0  0
   30.1940   30.1730   36.4520 N   0  0  0  0  0  0  0  0  0  0  0  0
   29.8120   29.7760   37.7700 C   0  0  0  0  0  0  0  0  0  0  0  0
   29.1870   30.9590   38.4630 C   0  0  0  0  0  0  0  0  0  0  0  0
   29.7660   32.1210   37.7280 C   0  0  0  0  0  0  0  0  0  0  0  0
   30.3010   31.5910   36.4090 C   0  0  2  0  0  0  0  0  0  0  0  0
   30.7610   29.5650   38.3310 H   0  0  0  0  0  0  0  0  0  0  0  0
   29.2180   28.8580   37.8290 H   0  0  0  0  0  0  0  0  0  0  0  0
   29.4530   30.9450   39.5430 H   0  0  0  0  0  0  0  0  0  0  0  0
   28.0870   30.8690   38.3680 H   0  0  0  0  0  0  0  0  0  0  0  0
   30.5600   32.5590   38.3640 H   0  0  0  0  0  0  0  0  0  0  0  0
   28.9710   32.8760   37.5860 H   0  0  0  0  0  0  0  0  0  0  0  0
   31.3790   31.8650   36.3720 H   0  0  0  0  0  0  0  0  0  0  0  0
   31.6250   32.6540   34.1140 N   0  0  0  0  0  0  0  0  0  0  0  0
   30.3380   32.5550   34.0880 C   0  0  0  0  0  0  0  0  0  0  0  0
   29.6510   32.2210   35.2810 N   0  0  0  0  0  0  0  0  0  0  0  0
   29.6260   32.7810   32.8740 N   0  0  0  0  0  0  0  0  0  0  0  0
   29.0150   33.6250   33.0760 H   0  0  0  0  0  0  0  0  0  0  0  0
   32.1430   32.9020   33.2310 H   0  0  0  0  0  0  0  0  0  0  0  0
   28.6200   32.4750   35.2690 H   0  0  0  0  0  0  0  0  0  0  0  0
   29.4400   32.4910   31.8910 H   0  0  0  0  0  0  0  0  0  0  0  0
   33.6260   28.9610   37.0320 C   0  0  0  0  0  3  0  0  0  0  0  0
   32.3440   29.2880   37.2410 C   0  0  0  0  0  3  0  0  0  0  0  0
   35.7960   28.0490   38.0010 C   0  0  0  0  0  0  0  0  0  0  0  0
   34.5510   28.7120   38.1580 C   0  0  0  0  0  0  0  0  0  0  0  0
   34.1720   29.1550   39.4310 C   0  0  0  0  0  0  0  0  0  0  0  0
   35.0210   28.9290   40.4730 N   0  0  0  0  0  0  0  0  0  0  0  0
   36.1840   28.3010   40.2890 C   0  0  0  0  0  0  0  0  0  0  0  0
   36.5540   27.8730   39.0660 N   0  0  0  0  0  0  0  0  0  0  0  0
   36.0360   27.7280   36.9880 H   0  0  0  0  0  0  0  0  0  0  0  0
   33.2290   29.6590   39.5610 H   0  0  0  0  0  0  0  0  0  0  0  0
   37.3610   30.4180   41.6450 F   0  0  0  0  0  0  0  0  0  0  0  0
   37.6400   29.1680   42.0880 C   0  0  0  0  0  0  0  0  0  0  0  0
   37.0660   28.0780   41.4310 C   0  0  0  0  0  0  0  0  0  0  0  0
   37.3040   26.7780   41.8250 C   0  0  0  0  0  0  0  0  0  0  0  0
   38.1460   26.5770   42.9140 C   0  0  0  0  0  0  0  0  0  0  0  0
   38.7390   27.6520   43.5970 C   0  0  0  0  0  0  0  0  0  0  0  0
   38.4770   28.9450   43.1740 C   0  0  0  0  0  0  0  0  0  0  0  0
   36.8560   25.9630   41.3080 H   0  0  0  0  0  0  0  0  0  0  0  0
   38.3040   25.5490   43.1870 H   0  0  0  0  0  0  0  0  0  0  0  0
   39.3800   27.4260   44.4320 H   0  0  0  0  0  0  0  0  0  0  0  0
   38.9230   29.7860   43.6840 H   0  0  0  0  0  0  0  0  0  0  0  0
  1  4  1  0  0  0  0
  1 25  1  0  0  0  0
  2  1  1  0  0  0  0
  3  1  1  0  0  0  0
  4  5  1  0  0  0  0
  5 10  1  0  0  0  0
  5  9  1  0  0  0  0
  5  6  1  0  0  0  0
  6 11  1  0  0  0  0
  7 13  1  0  0  0  0
  7  6  1  0  0  0  0
  8 15  1  6  0  0  0
  8  4  1  0  0  0  0
  8  7  1  0  0  0  0
 12  6  1  0  0  0  0
 14  7  1  0  0  0  0
 17 16  2  0  0  0  0
 17 18  1  0  0  0  0
 18  8  1  0  0  0  0
 19 20  1  0  0  0  0
 19 17  1  0  0  0  0
 21 16  1  0  0  0  0
 22 18  1  0  0  0  0
 23 19  1  0  0  0  0
 24 25  2  0  0  0  0
 24 27  1  0  0  0  0
 26 27  2  0  0  0  0
 26 31  1  0  0  0  0
 27 28  1  0  0  0  0
 28 33  1  0  0  0  0
 28 29  2  0  0  0  0
 30 29  1  0  0  0  0
 30 36  1  0  0  0  0
 31 30  2  0  0  0  0
 32 26  1  0  0  0  0
 34 35  1  0  0  0  0
 35 40  1  0  0  0  0
 36 37  1  0  0  0  0
 36 35  2  0  0  0  0
 37 38  2  0  0  0  0
 38 42  1  0  0  0  0
 38 39  1  0  0  0  0
 39 43  1  0  0  0  0
 40 39  2  0  0  0  0
 40 44  1  0  0  0  0
 41 37  1  0  0  0  0
M  END
>  <minimizedAffinity>
-6.16873837

$$$$

 OpenBabel03252501523D

 44 46  0  0  1  0  0  0  0  0999 V2000
   35.8610   28.4990   39.7400 C   0  0  0  0  0  0  0  0  0  0  0  0
   35.3240   28.5720   40.7060 H   0  0  0  0  0  0  0  0  0  0  0  0
   35.9840   27.4250   39.4180 H   0  0  0  0  0  0  0  0  0  0  0  0
   37.1860   29.0590   39.8420 N   0  0  0  0  0  0  0  0  0  0  0  0
   37.3520   30.1210   38.9010 C   0  0  0  0  0  0  0  0  0  0  0  0
   38.2030   31.1910   39.5340 C   0  0  0  0  0  0  0  0  0  0  0  0
   37.9970   30.9630   40.9940 C   0  0  0  0  0  0  0  0  0  0  0  0
   37.4480   29.5560   41.1490 C   0  0  2  0  0  0  0  0  0  0  0  0
   36.3400   30.5850   38.7580 H   0  0  0  0  0  0  0  0  0  0  0  0
   37.6870   29.8140   37.9050 H   0  0  0  0  0  0  0  0  0  0  0  0
   37.8600   32.1940   39.1930 H   0  0  0  0  0  0  0  0  0  0  0  0
   39.2470   31.0410   39.1970 H   0  0  0  0  0  0  0  0  0  0  0  0
   37.2940   31.7370   41.3590 H   0  0  0  0  0  0  0  0  0  0  0  0
   38.9670   31.0950   41.5080 H   0  0  0  0  0  0  0  0  0  0  0  0
   36.4820   29.6520   41.6930 H   0  0  0  0  0  0  0  0  0  0  0  0
   37.0800   28.9610   43.9180 N   0  0  0  0  0  0  0  0  0  0  0  0
   37.9890   28.3150   43.2680 C   0  0  0  0  0  0  0  0  0  0  0  0
   38.3220   28.7320   41.9560 N   0  0  0  0  0  0  0  0  0  0  0  0
   38.6420   27.2000   43.8680 N   0  0  0  0  0  0  0  0  0  0  0  0
   39.6620   27.4900   43.9310 H   0  0  0  0  0  0  0  0  0  0  0  0
   36.8260   28.6580   44.8940 H   0  0  0  0  0  0  0  0  0  0  0  0
   39.2670   28.3830   41.6210 H   0  0  0  0  0  0  0  0  0  0  0  0
   38.5680   26.2410   44.2680 H   0  0  0  0  0  0  0  0  0  0  0  0
   34.1900   28.3960   37.9320 C   0  0  0  0  0  3  0  0  0  0  0  0
   35.0380   29.1380   38.6570 C   0  0  0  0  0  3  0  0  0  0  0  0
   33.8370   29.1630   35.5310 C   0  0  0  0  0  0  0  0  0  0  0  0
   33.3670   28.9930   36.8600 C   0  0  0  0  0  0  0  0  0  0  0  0
   32.0680   29.4050   37.1800 C   0  0  0  0  0  0  0  0  0  0  0  0
   31.3040   29.9570   36.1950 N   0  0  0  0  0  0  0  0  0  0  0  0
   31.7780   30.1010   34.9560 C   0  0  0  0  0  0  0  0  0  0  0  0
   33.0280   29.7060   34.6430 N   0  0  0  0  0  0  0  0  0  0  0  0
   34.8550   28.8230   35.3420 H   0  0  0  0  0  0  0  0  0  0  0  0
   31.7020   29.2810   38.1850 H   0  0  0  0  0  0  0  0  0  0  0  0
   31.2920   32.8320   34.8840 F   0  0  0  0  0  0  0  0  0  0  0  0
   30.7070   32.0740   33.9240 C   0  0  0  0  0  0  0  0  0  0  0  0
   30.9290   30.6960   33.9290 C   0  0  0  0  0  0  0  0  0  0  0  0
   30.3670   29.8620   32.9840 C   0  0  0  0  0  0  0  0  0  0  0  0
   29.5590   30.4410   32.0110 C   0  0  0  0  0  0  0  0  0  0  0  0
   29.3170   31.8240   31.9790 C   0  0  0  0  0  0  0  0  0  0  0  0
   29.8970   32.6310   32.9430 C   0  0  0  0  0  0  0  0  0  0  0  0
   30.5500   28.8140   33.0080 H   0  0  0  0  0  0  0  0  0  0  0  0
   29.1420   29.7540   31.2960 H   0  0  0  0  0  0  0  0  0  0  0  0
   28.6820   32.2060   31.1980 H   0  0  0  0  0  0  0  0  0  0  0  0
   29.7240   33.6980   32.9370 H   0  0  0  0  0  0  0  0  0  0  0  0
  1  4  1  0  0  0  0
  1  2  1  0  0  0  0
  3  1  1  0  0  0  0
  4  8  1  0  0  0  0
  5  6  1  0  0  0  0
  5  4  1  0  0  0  0
  6  7  1  0  0  0  0
  7  8  1  0  0  0  0
  7 13  1  0  0  0  0
  7 14  1  0  0  0  0
  8 15  1  1  0  0  0
  8 18  1  0  0  0  0
  9  5  1  0  0  0  0
 10  5  1  0  0  0  0
 11  6  1  0  0  0  0
 12  6  1  0  0  0  0
 16 21  1  0  0  0  0
 17 19  1  0  0  0  0
 17 16  2  0  0  0  0
 18 17  1  0  0  0  0
 19 20  1  0  0  0  0
 19 23  1  0  0  0  0
 22 18  1  0  0  0  0
 24 25  2  0  0  0  0
 25  1  1  0  0  0  0
 26 27  1  0  0  0  0
 27 28  2  0  0  0  0
 27 24  1  0  0  0  0
 28 33  1  0  0  0  0
 29 28  1  0  0  0  0
 30 29  2  0  0  0  0
 31 30  1  0  0  0  0
 31 26  2  0  0  0  0
 32 26  1  0  0  0  0
 35 36  1  0  0  0  0
 35 34  1  0  0  0  0
 36 30  1  0  0  0  0
 37 41  1  0  0  0  0
 37 36  2  0  0  0  0
 38 37  1  0  0  0  0
 39 38  2  0  0  0  0
 39 40  1  0  0  0  0
 40 35  2  0  0  0  0
 42 38  1  0  0  0  0
 43 39  1  0  0  0  0
 44 40  1  0  0  0  0
M  END
>  <minimizedAffinity>
-5.88015175

$$$$

 OpenBabel03252501523D

 44 46  0  0  1  0  0  0  0  0999 V2000
   35.8640   30.1360   39.8660 C   0  0  0  0  0  0  0  0  0  0  0  0
   35.1860   30.6830   40.5510 H   0  0  0  0  0  0  0  0  0  0  0  0
   35.5910   30.3170   38.7870 H   0  0  0  0  0  0  0  0  0  0  0  0
   35.7790   28.7130   40.0850 N   0  0  0  0  0  0  0  0  0  0  0  0
   35.7340   28.0190   38.8380 C   0  0  0  0  0  0  0  0  0  0  0  0
   36.5100   26.7350   38.9780 C   0  0  0  0  0  0  0  0  0  0  0  0
   37.4440   27.0290   40.1040 C   0  0  0  0  0  0  0  0  0  0  0  0
   36.8820   28.2300   40.8430 C   0  0  2  0  0  0  0  0  0  0  0  0
   36.3100   28.6410   38.1020 H   0  0  0  0  0  0  0  0  0  0  0  0
   34.7350   27.8930   38.4080 H   0  0  0  0  0  0  0  0  0  0  0  0
   37.0320   26.5060   38.0220 H   0  0  0  0  0  0  0  0  0  0  0  0
   35.7900   25.9220   39.1900 H   0  0  0  0  0  0  0  0  0  0  0  0
   38.4430   27.2270   39.6680 H   0  0  0  0  0  0  0  0  0  0  0  0
   37.5080   26.1320   40.7470 H   0  0  0  0  0  0  0  0  0  0  0  0
   37.6810   29.0050   40.8400 H   0  0  0  0  0  0  0  0  0  0  0  0
   38.3580   29.1490   43.1090 N   0  0  0  0  0  0  0  0  0  0  0  0
   37.2330   28.5500   43.3130 C   0  0  0  0  0  0  0  0  0  0  0  0
   36.5870   27.9130   42.2230 N   0  0  0  0  0  0  0  0  0  0  0  0
   36.6550   28.5320   44.6150 N   0  0  0  0  0  0  0  0  0  0  0  0
   36.6310   27.5050   44.8820 H   0  0  0  0  0  0  0  0  0  0  0  0
   38.8440   29.6240   43.9130 H   0  0  0  0  0  0  0  0  0  0  0  0
   35.8700   27.1870   42.5140 H   0  0  0  0  0  0  0  0  0  0  0  0
   36.2530   29.0690   45.4110 H   0  0  0  0  0  0  0  0  0  0  0  0
   37.4630   31.9690   40.2550 C   0  0  0  0  0  3  0  0  0  0  0  0
   37.2620   30.6670   40.0100 C   0  0  0  0  0  3  0  0  0  0  0  0
   39.1520   33.8650   40.0680 C   0  0  0  0  0  0  0  0  0  0  0  0
   38.8250   32.5240   40.4010 C   0  0  0  0  0  0  0  0  0  0  0  0
   39.8300   31.6810   40.8890 C   0  0  0  0  0  0  0  0  0  0  0  0
   41.0880   32.1870   41.0260 N   0  0  0  0  0  0  0  0  0  0  0  0
   41.3600   33.4530   40.7030 C   0  0  0  0  0  0  0  0  0  0  0  0
   40.3960   34.2690   40.2320 N   0  0  0  0  0  0  0  0  0  0  0  0
   38.3280   34.4720   39.6930 H   0  0  0  0  0  0  0  0  0  0  0  0
   39.5940   30.6620   41.1450 H   0  0  0  0  0  0  0  0  0  0  0  0
   43.3870   32.7300   38.9520 F   0  0  0  0  0  0  0  0  0  0  0  0
   43.7140   33.5720   39.9630 C   0  0  0  0  0  0  0  0  0  0  0  0
   42.7200   33.9580   40.8640 C   0  0  0  0  0  0  0  0  0  0  0  0
   42.9780   34.8120   41.9160 C   0  0  0  0  0  0  0  0  0  0  0  0
   44.2780   35.2860   42.0590 C   0  0  0  0  0  0  0  0  0  0  0  0
   45.3000   34.9170   41.1700 C   0  0  0  0  0  0  0  0  0  0  0  0
   45.0050   34.0580   40.1240 C   0  0  0  0  0  0  0  0  0  0  0  0
   42.2040   35.0920   42.5900 H   0  0  0  0  0  0  0  0  0  0  0  0
   44.4340   35.9480   42.8920 H   0  0  0  0  0  0  0  0  0  0  0  0
   46.2840   35.3210   41.3380 H   0  0  0  0  0  0  0  0  0  0  0  0
   45.7770   33.7610   39.4280 H   0  0  0  0  0  0  0  0  0  0  0  0
  1 25  1  0  0  0  0
  1  4  1  0  0  0  0
  1  2  1  0  0  0  0
  3  1  1  0  0  0  0
  4  8  1  0  0  0  0
  5  6  1  0  0  0  0
  5  4  1  0  0  0  0
  6 12  1  0  0  0  0
  6  7  1  0  0  0  0
  7 14  1  0  0  0  0
  7  8  1  0  0  0  0
  8 15  1  6  0  0  0
  8 18  1  0  0  0  0
  9  5  1  0  0  0  0
 10  5  1  0  0  0  0
 11  6  1  0  0  0  0
 13  7  1  0  0  0  0
 16 17  2  0  0  0  0
 16 21  1  0  0  0  0
 17 19  1  0  0  0  0
 18 22  1  0  0  0  0
 18 17  1  0  0  0  0
 19 20  1  0  0  0  0
 19 23  1  0  0  0  0
 24 27  1  0  0  0  0
 25 24  2  0  0  0  0
 26 31  2  0  0  0  0
 26 27  1  0  0  0  0
 27 28  2  0  0  0  0
 28 29  1  0  0  0  0
 28 33  1  0  0  0  0
 30 36  1  0  0  0  0
 30 29  2  0  0  0  0
 31 30  1  0  0  0  0
 32 26  1  0  0  0  0
 34 35  1  0  0  0  0
 35 40  2  0  0  0  0
 35 36  1  0  0  0  0
 36 37  2  0  0  0  0
 37 38  1  0  0  0  0
 37 41  1  0  0  0  0
 38 42  1  0  0  0  0
 39 43  1  0  0  0  0
 39 38  2  0  0  0  0
 40 39  1  0  0  0  0
 44 40  1  0  0  0  0
M  END
>  <minimizedAffinity>
-5.75987148

$$$$

 OpenBabel03252501523D

 44 46  0  0  1  0  0  0  0  0999 V2000
   40.3240   31.7920   41.1840 C   0  0  0  0  0  0  0  0  0  0  0  0
   39.8410   32.0140   42.1560 H   0  0  0  0  0  0  0  0  0  0  0  0
   41.4460   31.7340   41.2860 H   0  0  0  0  0  0  0  0  0  0  0  0
   40.0460   32.8290   40.2210 N   0  0  0  0  0  0  0  0  0  0  0  0
   38.7420   33.3700   40.4350 C   0  0  0  0  0  0  0  0  0  0  0  0
   38.7870   34.8500   40.1540 C   0  0  0  0  0  0  0  0  0  0  0  0
   40.2260   35.1860   40.3610 C   0  0  0  0  0  0  0  0  0  0  0  0
   41.0000   33.8820   40.2900 C   0  0  2  0  0  0  0  0  0  0  0  0
   38.5310   33.2780   41.5330 H   0  0  0  0  0  0  0  0  0  0  0  0
   37.9270   32.8440   39.9260 H   0  0  0  0  0  0  0  0  0  0  0  0
   38.1060   35.3850   40.8530 H   0  0  0  0  0  0  0  0  0  0  0  0
   38.4310   35.0130   39.1190 H   0  0  0  0  0  0  0  0  0  0  0  0
   40.3170   35.6820   41.3470 H   0  0  0  0  0  0  0  0  0  0  0  0
   40.5340   35.9000   39.5760 H   0  0  0  0  0  0  0  0  0  0  0  0
   41.5580   33.7930   41.2490 H   0  0  0  0  0  0  0  0  0  0  0  0
   40.5340   33.0190   37.6080 N   0  0  0  0  0  0  0  0  0  0  0  0
   41.6340   33.6430   37.8690 C   0  0  0  0  0  0  0  0  0  0  0  0
   41.9740   33.9000   39.2200 N   0  0  0  0  0  0  0  0  0  0  0  0
   42.4880   34.0630   36.8080 N   0  0  0  0  0  0  0  0  0  0  0  0
   43.3910   33.5260   36.9640 H   0  0  0  0  0  0  0  0  0  0  0  0
   40.2740   32.8250   36.6070 H   0  0  0  0  0  0  0  0  0  0  0  0
   43.0040   34.1070   39.3720 H   0  0  0  0  0  0  0  0  0  0  0  0
   42.6210   34.6530   35.9610 H   0  0  0  0  0  0  0  0  0  0  0  0
   39.2240   29.6150   41.5300 C   0  0  0  0  0  3  0  0  0  0  0  0
   39.9050   30.4290   40.7120 C   0  0  0  0  0  3  0  0  0  0  0  0
   39.2910   27.6420   39.9230 C   0  0  0  0  0  0  0  0  0  0  0  0
   38.7980   28.2680   41.0980 C   0  0  0  0  0  0  0  0  0  0  0  0
   37.8650   27.5880   41.8900 C   0  0  0  0  0  0  0  0  0  0  0  0
   37.4670   26.3450   41.4970 N   0  0  0  0  0  0  0  0  0  0  0  0
   37.9520   25.7860   40.3860 C   0  0  0  0  0  0  0  0  0  0  0  0
   38.8510   26.4370   39.6200 N   0  0  0  0  0  0  0  0  0  0  0  0
   40.0150   28.2200   39.3480 H   0  0  0  0  0  0  0  0  0  0  0  0
   37.4840   28.0530   42.7830 H   0  0  0  0  0  0  0  0  0  0  0  0
   35.6700   25.4200   38.8510 F   0  0  0  0  0  0  0  0  0  0  0  0
   36.3490   24.3080   39.2250 C   0  0  0  0  0  0  0  0  0  0  0  0
   37.5020   24.4530   39.9980 C   0  0  0  0  0  0  0  0  0  0  0  0
   38.2440   23.3680   40.4160 C   0  0  0  0  0  0  0  0  0  0  0  0
   37.8040   22.1020   40.0410 C   0  0  0  0  0  0  0  0  0  0  0  0
   36.6490   21.9230   39.2630 C   0  0  0  0  0  0  0  0  0  0  0  0
   35.9280   23.0360   38.8610 C   0  0  0  0  0  0  0  0  0  0  0  0
   39.1190   23.5030   41.0050 H   0  0  0  0  0  0  0  0  0  0  0  0
   38.4120   21.2860   40.3880 H   0  0  0  0  0  0  0  0  0  0  0  0
   36.3640   20.9160   39.0080 H   0  0  0  0  0  0  0  0  0  0  0  0
   35.0360   22.9200   38.2630 H   0  0  0  0  0  0  0  0  0  0  0  0
  1  3  1  0  0  0  0
  1  2  1  0  0  0  0
  4  8  1  0  0  0  0
  4  5  1  0  0  0  0
  4  1  1  0  0  0  0
  5  9  1  0  0  0  0
  6  7  1  0  0  0  0
  6  5  1  0  0  0  0
  6 11  1  0  0  0  0
  7 13  1  0  0  0  0
  8  7  1  0  0  0  0
  8 15  1  1  0  0  0
 10  5  1  0  0  0  0
 12  6  1  0  0  0  0
 14  7  1  0  0  0  0
 16 17  2  0  0  0  0
 17 18  1  0  0  0  0
 18 22  1  0  0  0  0
 18  8  1  0  0  0  0
 19 20  1  0  0  0  0
 19 17  1  0  0  0  0
 21 16  1  0  0  0  0
 23 19  1  0  0  0  0
 25  1  1  0  0  0  0
 25 24  2  0  0  0  0
 26 27  1  0  0  0  0
 27 24  1  0  0  0  0
 27 28  2  0  0  0  0
 28 33  1  0  0  0  0
 29 28  1  0  0  0  0
 30 29  2  0  0  0  0
 31 26  2  0  0  0  0
 31 30  1  0  0  0  0
 32 26  1  0  0  0  0
 34 35  1  0  0  0  0
 35 36  1  0  0  0  0
 36 30  1  0  0  0  0
 36 37  2  0  0  0  0
 37 41  1  0  0  0  0
 38 42  1  0  0  0  0
 38 37  1  0  0  0  0
 39 38  2  0  0  0  0
 40 35  2  0  0  0  0
 40 39  1  0  0  0  0
 43 39  1  0  0  0  0
 44 40  1  0  0  0  0
M  END
>  <minimizedAffinity>
-5.7424922

$$$$

 OpenBabel03252501523D

 44 46  0  0  1  0  0  0  0  0999 V2000
   36.4520   25.5080   38.9140 C   0  0  0  0  0  0  0  0  0  0  0  0
   35.3940   25.7270   38.6680 H   0  0  0  0  0  0  0  0  0  0  0  0
   36.9850   25.0250   38.0450 H   0  0  0  0  0  0  0  0  0  0  0  0
   36.5440   24.5910   40.0230 N   0  0  0  0  0  0  0  0  0  0  0  0
   37.0110   23.3170   39.5780 C   0  0  0  0  0  0  0  0  0  0  0  0
   37.9090   22.7390   40.6410 C   0  0  0  0  0  0  0  0  0  0  0  0
   38.3790   23.9490   41.3760 C   0  0  0  0  0  0  0  0  0  0  0  0
   37.4190   25.0750   41.0360 C   0  0  2  0  0  0  0  0  0  0  0  0
   37.6750   23.5080   38.6940 H   0  0  0  0  0  0  0  0  0  0  0  0
   36.2330   22.6300   39.2280 H   0  0  0  0  0  0  0  0  0  0  0  0
   38.7350   22.1660   40.1630 H   0  0  0  0  0  0  0  0  0  0  0  0
   37.3060   22.0430   41.2560 H   0  0  0  0  0  0  0  0  0  0  0  0
   39.4150   24.1600   41.0490 H   0  0  0  0  0  0  0  0  0  0  0  0
   38.3890   23.7180   42.4570 H   0  0  0  0  0  0  0  0  0  0  0  0
   38.0350   25.8970   40.6080 H   0  0  0  0  0  0  0  0  0  0  0  0
   38.3290   27.2770   42.6110 N   0  0  0  0  0  0  0  0  0  0  0  0
   37.1520   26.8000   42.8460 C   0  0  0  0  0  0  0  0  0  0  0  0
   36.7640   25.5900   42.2180 N   0  0  0  0  0  0  0  0  0  0  0  0
   36.2640   27.4850   43.7250 N   0  0  0  0  0  0  0  0  0  0  0  0
   36.1060   26.8060   44.5260 H   0  0  0  0  0  0  0  0  0  0  0  0
   38.6250   28.1750   43.0730 H   0  0  0  0  0  0  0  0  0  0  0  0
   35.9510   25.1010   42.6940 H   0  0  0  0  0  0  0  0  0  0  0  0
   35.7080   28.3410   43.9300 H   0  0  0  0  0  0  0  0  0  0  0  0
   36.5560   27.9670   39.0190 C   0  0  0  0  0  3  0  0  0  0  0  0
   37.1890   26.7940   39.1570 C   0  0  0  0  0  3  0  0  0  0  0  0
   38.0420   29.8890   38.2570 C   0  0  0  0  0  0  0  0  0  0  0  0
   37.2520   29.2500   39.2500 C   0  0  0  0  0  0  0  0  0  0  0  0
   37.1210   29.8540   40.5060 C   0  0  0  0  0  0  0  0  0  0  0  0
   37.7600   31.0380   40.7240 N   0  0  0  0  0  0  0  0  0  0  0  0
   38.4950   31.6100   39.7680 C   0  0  0  0  0  0  0  0  0  0  0  0
   38.6250   31.0330   38.5570 N   0  0  0  0  0  0  0  0  0  0  0  0
   38.1070   29.3720   37.3000 H   0  0  0  0  0  0  0  0  0  0  0  0
   36.5250   29.3790   41.2660 H   0  0  0  0  0  0  0  0  0  0  0  0
   37.1110   34.0150   39.7270 F   0  0  0  0  0  0  0  0  0  0  0  0
   38.4360   34.0680   40.0110 C   0  0  0  0  0  0  0  0  0  0  0  0
   39.1640   32.8780   40.0410 C   0  0  0  0  0  0  0  0  0  0  0  0
   40.5150   32.8540   40.3230 C   0  0  0  0  0  0  0  0  0  0  0  0
   41.1420   34.0690   40.5810 C   0  0  0  0  0  0  0  0  0  0  0  0
   40.4370   35.2830   40.5590 C   0  0  0  0  0  0  0  0  0  0  0  0
   39.0820   35.2690   40.2720 C   0  0  0  0  0  0  0  0  0  0  0  0
   41.0490   31.9340   40.3400 H   0  0  0  0  0  0  0  0  0  0  0  0
   42.1940   34.0030   40.7960 H   0  0  0  0  0  0  0  0  0  0  0  0
   40.9840   36.1870   40.7680 H   0  0  0  0  0  0  0  0  0  0  0  0
   38.5200   36.1930   40.2500 H   0  0  0  0  0  0  0  0  0  0  0  0
  1 25  1  0  0  0  0
  1  4  1  0  0  0  0
  2  1  1  0  0  0  0
  3  1  1  0  0  0  0
  4  8  1  0  0  0  0
  5  4  1  0  0  0  0
  5  6  1  0  0  0  0
  6 12  1  0  0  0  0
  6  7  1  0  0  0  0
  7 14  1  0  0  0  0
  8 15  1  6  0  0  0
  8  7  1  0  0  0  0
  8 18  1  0  0  0  0
  9  5  1  0  0  0  0
 10  5  1  0  0  0  0
 11  6  1  0  0  0  0
 13  7  1  0  0  0  0
 16 17  2  0  0  0  0
 16 21  1  0  0  0  0
 17 19  1  0  0  0  0
 18 22  1  0  0  0  0
 18 17  1  0  0  0  0
 19 23  1  0  0  0  0
 19 20  1  0  0  0  0
 24 25  2  0  0  0  0
 24 27  1  0  0  0  0
 26 31  2  0  0  0  0
 26 27  1  0  0  0  0
 27 28  2  0  0  0  0
 28 29  1  0  0  0  0
 28 33  1  0  0  0  0
 30 36  1  0  0  0  0
 30 29  2  0  0  0  0
 31 30  1  0  0  0  0
 32 26  1  0  0  0  0
 34 35  1  0  0  0  0
 35 36  2  0  0  0  0
 35 40  1  0  0  0  0
 36 37  1  0  0  0  0
 37 41  1  0  0  0  0
 37 38  2  0  0  0  0
 38 42  1  0  0  0  0
 39 38  1  0  0  0  0
 39 43  1  0  0  0  0
 40 39  2  0  0  0  0
 44 40  1  0  0  0  0
M  END
>  <minimizedAffinity>
-5.63406134

$$$$
