
 OpenBabel03242517493D

 42 44  0  0  0  0  0  0  0  0999 V2000
   36.9320   28.0820   42.1640 C   0  0  0  0  0  0  0  0  0  0  0  0
   37.4240   29.3720   41.9530 C   0  0  0  0  0  0  0  0  0  0  0  0
   38.7000   29.6660   42.4160 C   0  0  0  0  0  0  0  0  0  0  0  0
   39.3900   28.6860   43.0440 N   0  0  0  0  0  0  0  0  0  0  0  0
   38.8740   27.4410   43.2300 C   0  0  0  0  0  0  0  0  0  0  0  0
   37.6610   27.1170   42.8040 N   0  0  0  0  0  0  0  0  0  0  0  0
   35.9320   27.7770   41.8270 H   0  0  0  0  0  0  0  0  0  0  0  0
   39.1070   30.6570   42.2670 H   0  0  0  0  0  0  0  0  0  0  0  0
   39.7330   26.4540   43.9340 C   0  0  0  0  0  0  0  0  0  0  0  0
   39.3740   26.2220   44.9320 H   0  0  0  0  0  0  0  0  0  0  0  0
   39.6620   25.4990   43.3470 H   0  0  0  0  0  0  0  0  0  0  0  0
   41.1770   26.9050   43.9890 C   0  0  0  0  0  0  0  0  0  0  0  0
   41.6570   26.2930   44.7740 H   0  0  0  0  0  0  0  0  0  0  0  0
   41.1580   27.9770   44.2930 H   0  0  0  0  0  0  0  0  0  0  0  0
   43.0350   24.8790   43.5520 N   0  0  0  0  0  0  0  0  0  0  0  0
   42.5780   25.5350   42.5140 C   0  0  0  0  0  0  0  0  0  0  0  0
   41.8600   26.7660   42.7430 N   0  0  0  0  0  0  0  0  0  0  0  0
   42.7680   25.0700   41.1600 N   0  0  0  0  0  0  0  0  0  0  0  0
   43.2080   25.8530   40.5920 H   0  0  0  0  0  0  0  0  0  0  0  0
   43.5460   23.9970   43.3310 H   0  0  0  0  0  0  0  0  0  0  0  0
   41.9390   27.4320   41.9180 H   0  0  0  0  0  0  0  0  0  0  0  0
   42.4410   24.0870   41.0200 H   0  0  0  0  0  0  0  0  0  0  0  0
   36.4190   30.5740   41.1140 S   0  0  0  0  0  0  0  0  0  0  0  0
   36.4870   30.3050   39.3580 C   0  0  0  0  0  0  0  0  0  0  0  0
   35.7530   29.3340   38.7070 C   0  0  0  0  0  0  0  0  0  0  0  0
   35.8590   29.1820   37.3200 C   0  0  0  0  0  0  0  0  0  0  0  0
   36.6830   29.9840   36.5890 C   0  0  0  0  0  0  0  0  0  0  0  0
   37.4160   30.9540   37.2480 C   0  0  0  0  0  0  0  0  0  0  0  0
   37.3330   31.1330   38.6280 C   0  0  0  0  0  0  0  0  0  0  0  0
   35.1040   28.7030   39.2780 H   0  0  0  0  0  0  0  0  0  0  0  0
   35.3000   28.4350   36.7890 H   0  0  0  0  0  0  0  0  0  0  0  0
   36.8270   29.9370   35.5200 H   0  0  0  0  0  0  0  0  0  0  0  0
   38.0830   31.6130   36.7060 H   0  0  0  0  0  0  0  0  0  0  0  0
   38.1080   32.1530   39.2990 C   0  0  0  0  0  0  0  0  0  0  0  0
   37.6670   33.3960   39.5890 C   0  0  0  0  0  0  0  0  0  0  0  0
   38.4250   34.3730   40.2380 C   0  0  0  0  0  0  0  0  0  0  0  0
   39.6850   34.0460   40.5970 N   0  0  0  0  0  0  0  0  0  0  0  0
   40.1340   32.8080   40.3120 C   0  0  0  0  0  0  0  0  0  0  0  0
   39.3810   31.8830   39.6850 N   0  0  0  0  0  0  0  0  0  0  0  0
   36.6500   33.6520   39.2960 H   0  0  0  0  0  0  0  0  0  0  0  0
   37.9690   35.3280   40.4160 H   0  0  0  0  0  0  0  0  0  0  0  0
   41.1570   32.6220   40.6340 H   0  0  0  0  0  0  0  0  0  0  0  0
  1  6  1  0  0  0  0
  2  1  2  0  0  0  0
  2  3  1  0  0  0  0
  3  4  2  0  0  0  0
  4  5  1  0  0  0  0
  5  9  1  0  0  0  0
  6  5  2  0  0  0  0
  7  1  1  0  0  0  0
  8  3  1  0  0  0  0
  9 12  1  0  0  0  0
  9 10  1  0  0  0  0
 11  9  1  0  0  0  0
 12 14  1  0  0  0  0
 12 13  1  0  0  0  0
 16 17  1  0  0  0  0
 16 15  2  0  0  0  0
 17 12  1  0  0  0  0
 18 16  1  0  0  0  0
 19 18  1  0  0  0  0
 20 15  1  0  0  0  0
 21 17  1  0  0  0  0
 22 18  1  0  0  0  0
 23  2  1  0  0  0  0
 24 23  1  0  0  0  0
 25 30  1  0  0  0  0
 25 24  1  0  0  0  0
 26 25  2  0  0  0  0
 27 28  2  0  0  0  0
 27 26  1  0  0  0  0
 28 29  1  0  0  0  0
 29 34  1  0  0  0  0
 29 24  2  0  0  0  0
 31 26  1  0  0  0  0
 32 27  1  0  0  0  0
 33 28  1  0  0  0  0
 34 35  2  0  0  0  0
 34 39  1  0  0  0  0
 35 36  1  0  0  0  0
 36 41  1  0  0  0  0
 36 37  2  0  0  0  0
 38 37  1  0  0  0  0
 38 42  1  0  0  0  0
 39 38  2  0  0  0  0
 40 35  1  0  0  0  0
M  END
>  <minimizedAffinity>
-6.36101961

$$$$

 OpenBabel03242517493D

 42 44  0  0  0  0  0  0  0  0999 V2000
   38.9130   31.6830   41.1340 C   0  0  0  0  0  0  0  0  0  0  0  0
   37.6640   32.0080   40.5990 C   0  0  0  0  0  0  0  0  0  0  0  0
   37.5160   33.2530   40.0020 C   0  0  0  0  0  0  0  0  0  0  0  0
   38.5890   34.0770   39.9740 N   0  0  0  0  0  0  0  0  0  0  0  0
   39.7890   33.7220   40.5070 C   0  0  0  0  0  0  0  0  0  0  0  0
   39.9750   32.5440   41.0870 N   0  0  0  0  0  0  0  0  0  0  0  0
   39.1040   30.7180   41.6220 H   0  0  0  0  0  0  0  0  0  0  0  0
   36.5600   33.5320   39.5800 H   0  0  0  0  0  0  0  0  0  0  0  0
   40.8890   34.7160   40.4120 C   0  0  0  0  0  0  0  0  0  0  0  0
   40.6160   35.6850   40.8190 H   0  0  0  0  0  0  0  0  0  0  0  0
   41.7210   34.3290   41.0590 H   0  0  0  0  0  0  0  0  0  0  0  0
   41.3870   34.8680   38.9910 C   0  0  0  0  0  0  0  0  0  0  0  0
   42.4510   35.1540   39.0690 H   0  0  0  0  0  0  0  0  0  0  0  0
   40.7960   35.6990   38.5400 H   0  0  0  0  0  0  0  0  0  0  0  0
   42.8560   34.4440   36.6650 N   0  0  0  0  0  0  0  0  0  0  0  0
   42.2260   33.4240   37.1950 C   0  0  0  0  0  0  0  0  0  0  0  0
   41.2320   33.6830   38.2080 N   0  0  0  0  0  0  0  0  0  0  0  0
   42.4930   32.0600   36.8010 N   0  0  0  0  0  0  0  0  0  0  0  0
   41.5750   31.6010   36.5280 H   0  0  0  0  0  0  0  0  0  0  0  0
   43.5630   34.2000   35.9370 H   0  0  0  0  0  0  0  0  0  0  0  0
   40.4860   32.9260   38.2370 H   0  0  0  0  0  0  0  0  0  0  0  0
   43.5070   31.8120   36.8650 H   0  0  0  0  0  0  0  0  0  0  0  0
   36.3300   30.8380   40.6990 S   0  0  0  0  0  0  0  0  0  0  0  0
   36.4830   29.6280   39.4060 C   0  0  0  0  0  0  0  0  0  0  0  0
   36.1680   29.8790   38.0860 C   0  0  0  0  0  0  0  0  0  0  0  0
   36.3140   28.8750   37.1230 C   0  0  0  0  0  0  0  0  0  0  0  0
   36.7670   27.6370   37.4660 C   0  0  0  0  0  0  0  0  0  0  0  0
   37.0810   27.3910   38.7910 C   0  0  0  0  0  0  0  0  0  0  0  0
   36.9470   28.3700   39.7750 C   0  0  0  0  0  0  0  0  0  0  0  0
   35.8120   30.8510   37.8120 H   0  0  0  0  0  0  0  0  0  0  0  0
   36.0770   29.0430   36.0890 H   0  0  0  0  0  0  0  0  0  0  0  0
   36.9100   26.8050   36.7930 H   0  0  0  0  0  0  0  0  0  0  0  0
   37.4430   26.4220   39.1070 H   0  0  0  0  0  0  0  0  0  0  0  0
   37.2790   28.0940   41.1550 C   0  0  0  0  0  0  0  0  0  0  0  0
   36.3920   27.7530   42.1140 C   0  0  0  0  0  0  0  0  0  0  0  0
   36.7250   27.4890   43.4440 C   0  0  0  0  0  0  0  0  0  0  0  0
   38.0270   27.5830   43.7890 N   0  0  0  0  0  0  0  0  0  0  0  0
   38.9210   27.9220   42.8390 C   0  0  0  0  0  0  0  0  0  0  0  0
   38.5720   28.1720   41.5620 N   0  0  0  0  0  0  0  0  0  0  0  0
   35.3430   27.6800   41.8270 H   0  0  0  0  0  0  0  0  0  0  0  0
   35.9330   27.2260   44.1190 H   0  0  0  0  0  0  0  0  0  0  0  0
   39.9470   27.9760   43.1960 H   0  0  0  0  0  0  0  0  0  0  0  0
  1  7  1  0  0  0  0
  2 23  1  0  0  0  0
  2  1  2  0  0  0  0
  3  2  1  0  0  0  0
  4  3  2  0  0  0  0
  4  5  1  0  0  0  0
  5  6  2  0  0  0  0
  6  1  1  0  0  0  0
  8  3  1  0  0  0  0
  9  5  1  0  0  0  0
  9 10  1  0  0  0  0
  9 11  1  0  0  0  0
 12 13  1  0  0  0  0
 12  9  1  0  0  0  0
 14 12  1  0  0  0  0
 15 16  2  0  0  0  0
 16 17  1  0  0  0  0
 17 21  1  0  0  0  0
 17 12  1  0  0  0  0
 18 22  1  0  0  0  0
 18 16  1  0  0  0  0
 19 18  1  0  0  0  0
 20 15  1  0  0  0  0
 24 29  1  0  0  0  0
 24 23  1  0  0  0  0
 25 24  2  0  0  0  0
 26 27  2  0  0  0  0
 26 25  1  0  0  0  0
 27 28  1  0  0  0  0
 28 33  1  0  0  0  0
 28 29  2  0  0  0  0
 29 34  1  0  0  0  0
 30 25  1  0  0  0  0
 31 26  1  0  0  0  0
 32 27  1  0  0  0  0
 34 39  2  0  0  0  0
 34 35  1  0  0  0  0
 35 36  2  0  0  0  0
 36 37  1  0  0  0  0
 36 41  1  0  0  0  0
 38 42  1  0  0  0  0
 38 37  2  0  0  0  0
 39 38  1  0  0  0  0
 40 35  1  0  0  0  0
M  END
>  <minimizedAffinity>
-6.28236294

$$$$

 OpenBabel03242517493D

 42 44  0  0  0  0  0  0  0  0999 V2000
   38.6370   29.4750   42.4480 C   0  0  0  0  0  0  0  0  0  0  0  0
   37.3470   29.1810   42.0010 C   0  0  0  0  0  0  0  0  0  0  0  0
   36.8580   27.8990   42.2210 C   0  0  0  0  0  0  0  0  0  0  0  0
   37.6600   27.0130   42.8550 N   0  0  0  0  0  0  0  0  0  0  0  0
   38.9110   27.3400   43.2750 C   0  0  0  0  0  0  0  0  0  0  0  0
   39.4190   28.5510   43.0860 N   0  0  0  0  0  0  0  0  0  0  0  0
   39.0900   30.4660   42.3090 H   0  0  0  0  0  0  0  0  0  0  0  0
   35.8630   27.6430   41.8840 H   0  0  0  0  0  0  0  0  0  0  0  0
   39.6920   26.2760   43.9600 C   0  0  0  0  0  0  0  0  0  0  0  0
   40.5550   26.6650   44.4910 H   0  0  0  0  0  0  0  0  0  0  0  0
   39.0140   25.8410   44.7420 H   0  0  0  0  0  0  0  0  0  0  0  0
   40.1160   25.1860   42.9990 C   0  0  0  0  0  0  0  0  0  0  0  0
   41.0510   24.7650   43.4100 H   0  0  0  0  0  0  0  0  0  0  0  0
   40.3150   25.6890   42.0250 H   0  0  0  0  0  0  0  0  0  0  0  0
   38.6860   24.9140   40.6270 N   0  0  0  0  0  0  0  0  0  0  0  0
   38.6520   23.9260   41.4880 C   0  0  0  0  0  0  0  0  0  0  0  0
   39.1280   24.1680   42.8280 N   0  0  0  0  0  0  0  0  0  0  0  0
   38.1580   22.6140   41.1410 N   0  0  0  0  0  0  0  0  0  0  0  0
   37.4100   22.3370   41.8420 H   0  0  0  0  0  0  0  0  0  0  0  0
   38.3300   24.6850   39.6730 H   0  0  0  0  0  0  0  0  0  0  0  0
   38.6610   23.5300   43.5390 H   0  0  0  0  0  0  0  0  0  0  0  0
   38.6270   22.2160   40.2950 H   0  0  0  0  0  0  0  0  0  0  0  0
   36.3910   30.4330   41.1780 S   0  0  0  0  0  0  0  0  0  0  0  0
   36.4160   30.1640   39.4220 C   0  0  0  0  0  0  0  0  0  0  0  0
   35.6870   29.1760   38.7920 C   0  0  0  0  0  0  0  0  0  0  0  0
   35.7580   29.0240   37.4030 C   0  0  0  0  0  0  0  0  0  0  0  0
   36.5430   29.8430   36.6490 C   0  0  0  0  0  0  0  0  0  0  0  0
   37.2720   30.8310   37.2860 C   0  0  0  0  0  0  0  0  0  0  0  0
   37.2230   31.0090   38.6690 C   0  0  0  0  0  0  0  0  0  0  0  0
   35.0690   28.5310   39.3810 H   0  0  0  0  0  0  0  0  0  0  0  0
   35.2010   28.2640   36.8880 H   0  0  0  0  0  0  0  0  0  0  0  0
   36.6590   29.7990   35.5770 H   0  0  0  0  0  0  0  0  0  0  0  0
   37.9090   31.5030   36.7260 H   0  0  0  0  0  0  0  0  0  0  0  0
   37.9930   32.0480   39.3170 C   0  0  0  0  0  0  0  0  0  0  0  0
   37.5580   33.3040   39.5530 C   0  0  0  0  0  0  0  0  0  0  0  0
   38.3110   34.2990   40.1810 C   0  0  0  0  0  0  0  0  0  0  0  0
   39.5610   33.9750   40.5760 N   0  0  0  0  0  0  0  0  0  0  0  0
   40.0050   32.7240   40.3450 C   0  0  0  0  0  0  0  0  0  0  0  0
   39.2560   31.7830   39.7370 N   0  0  0  0  0  0  0  0  0  0  0  0
   36.5480   33.5560   39.2300 H   0  0  0  0  0  0  0  0  0  0  0  0
   37.8590   35.2620   40.3150 H   0  0  0  0  0  0  0  0  0  0  0  0
   41.0190   32.5430   40.6940 H   0  0  0  0  0  0  0  0  0  0  0  0
  1  6  1  0  0  0  0
  2  3  1  0  0  0  0
  2  1  2  0  0  0  0
  3  4  2  0  0  0  0
  4  5  1  0  0  0  0
  5  9  1  0  0  0  0
  6  5  2  0  0  0  0
  7  1  1  0  0  0  0
  8  3  1  0  0  0  0
  9 10  1  0  0  0  0
  9 11  1  0  0  0  0
 12 13  1  0  0  0  0
 12  9  1  0  0  0  0
 14 12  1  0  0  0  0
 15 16  2  0  0  0  0
 16 17  1  0  0  0  0
 17 12  1  0  0  0  0
 17 21  1  0  0  0  0
 18 16  1  0  0  0  0
 18 19  1  0  0  0  0
 20 15  1  0  0  0  0
 22 18  1  0  0  0  0
 23  2  1  0  0  0  0
 24 23  1  0  0  0  0
 25 30  1  0  0  0  0
 25 24  1  0  0  0  0
 26 25  2  0  0  0  0
 27 28  2  0  0  0  0
 27 26  1  0  0  0  0
 28 29  1  0  0  0  0
 29 34  1  0  0  0  0
 29 24  2  0  0  0  0
 31 26  1  0  0  0  0
 32 27  1  0  0  0  0
 33 28  1  0  0  0  0
 34 35  2  0  0  0  0
 34 39  1  0  0  0  0
 35 36  1  0  0  0  0
 36 41  1  0  0  0  0
 36 37  2  0  0  0  0
 38 37  1  0  0  0  0
 38 42  1  0  0  0  0
 39 38  2  0  0  0  0
 40 35  1  0  0  0  0
M  END
>  <minimizedAffinity>
-6.19299507

$$$$

 OpenBabel03242517493D

 42 44  0  0  0  0  0  0  0  0999 V2000
   38.0630   33.2920   40.2760 C   0  0  0  0  0  0  0  0  0  0  0  0
   38.0800   31.9210   40.5370 C   0  0  0  0  0  0  0  0  0  0  0  0
   39.3080   31.2700   40.5160 C   0  0  0  0  0  0  0  0  0  0  0  0
   40.4120   32.0040   40.2430 N   0  0  0  0  0  0  0  0  0  0  0  0
   40.3510   33.3390   39.9940 C   0  0  0  0  0  0  0  0  0  0  0  0
   39.2020   34.0010   40.0040 N   0  0  0  0  0  0  0  0  0  0  0  0
   37.1300   33.8730   40.2750 H   0  0  0  0  0  0  0  0  0  0  0  0
   39.3510   30.2070   40.7140 H   0  0  0  0  0  0  0  0  0  0  0  0
   41.6350   34.0300   39.7080 C   0  0  0  0  0  0  0  0  0  0  0  0
   41.7230   34.9830   40.2210 H   0  0  0  0  0  0  0  0  0  0  0  0
   42.4460   33.3750   40.1260 H   0  0  0  0  0  0  0  0  0  0  0  0
   41.8540   34.2150   38.2220 C   0  0  0  0  0  0  0  0  0  0  0  0
   42.9480   34.2040   38.0710 H   0  0  0  0  0  0  0  0  0  0  0  0
   41.4390   35.2180   37.9680 H   0  0  0  0  0  0  0  0  0  0  0  0
   43.3170   32.2960   36.8350 N   0  0  0  0  0  0  0  0  0  0  0  0
   42.0300   32.1030   36.9860 C   0  0  0  0  0  0  0  0  0  0  0  0
   41.2180   33.2120   37.4280 N   0  0  0  0  0  0  0  0  0  0  0  0
   41.4030   30.8280   36.7280 N   0  0  0  0  0  0  0  0  0  0  0  0
   40.6000   30.9770   36.0490 H   0  0  0  0  0  0  0  0  0  0  0  0
   43.8570   31.4630   36.5130 H   0  0  0  0  0  0  0  0  0  0  0  0
   40.2130   33.1290   37.0900 H   0  0  0  0  0  0  0  0  0  0  0  0
   41.8550   30.0430   37.2500 H   0  0  0  0  0  0  0  0  0  0  0  0
   36.5600   31.0680   40.8820 S   0  0  0  0  0  0  0  0  0  0  0  0
   36.9020   29.4250   41.4670 C   0  0  0  0  0  0  0  0  0  0  0  0
   37.3780   29.1500   42.7340 C   0  0  0  0  0  0  0  0  0  0  0  0
   37.6250   27.8300   43.1230 C   0  0  0  0  0  0  0  0  0  0  0  0
   37.4020   26.7940   42.2670 C   0  0  0  0  0  0  0  0  0  0  0  0
   36.9260   27.0760   40.9990 C   0  0  0  0  0  0  0  0  0  0  0  0
   36.6690   28.3810   40.5790 C   0  0  0  0  0  0  0  0  0  0  0  0
   37.5540   29.9610   43.4090 H   0  0  0  0  0  0  0  0  0  0  0  0
   37.9950   27.5880   44.1020 H   0  0  0  0  0  0  0  0  0  0  0  0
   37.5640   25.7490   42.4810 H   0  0  0  0  0  0  0  0  0  0  0  0
   36.7350   26.2840   40.2860 H   0  0  0  0  0  0  0  0  0  0  0  0
   36.1710   28.6550   39.2490 C   0  0  0  0  0  0  0  0  0  0  0  0
   34.8680   28.6800   38.8980 C   0  0  0  0  0  0  0  0  0  0  0  0
   34.3990   28.9470   37.6100 C   0  0  0  0  0  0  0  0  0  0  0  0
   35.3190   29.1960   36.6530 N   0  0  0  0  0  0  0  0  0  0  0  0
   36.6230   29.1730   36.9940 C   0  0  0  0  0  0  0  0  0  0  0  0
   37.0480   28.9130   38.2460 N   0  0  0  0  0  0  0  0  0  0  0  0
   34.1330   28.4780   39.6760 H   0  0  0  0  0  0  0  0  0  0  0  0
   33.3390   28.9400   37.4490 H   0  0  0  0  0  0  0  0  0  0  0  0
   37.3000   29.3840   36.1680 H   0  0  0  0  0  0  0  0  0  0  0  0
  1  2  1  0  0  0  0
  2 23  1  0  0  0  0
  3  2  2  0  0  0  0
  3  8  1  0  0  0  0
  4  3  1  0  0  0  0
  5  6  1  0  0  0  0
  5  4  2  0  0  0  0
  6  1  2  0  0  0  0
  7  1  1  0  0  0  0
  9  5  1  0  0  0  0
  9 11  1  0  0  0  0
  9 10  1  0  0  0  0
 12  9  1  0  0  0  0
 13 12  1  0  0  0  0
 14 12  1  0  0  0  0
 15 16  2  0  0  0  0
 16 17  1  0  0  0  0
 17 12  1  0  0  0  0
 18 16  1  0  0  0  0
 18 22  1  0  0  0  0
 19 18  1  0  0  0  0
 20 15  1  0  0  0  0
 21 17  1  0  0  0  0
 23 24  1  0  0  0  0
 24 25  1  0  0  0  0
 25 26  2  0  0  0  0
 25 30  1  0  0  0  0
 26 31  1  0  0  0  0
 27 32  1  0  0  0  0
 27 26  1  0  0  0  0
 28 27  2  0  0  0  0
 29 28  1  0  0  0  0
 29 24  2  0  0  0  0
 33 28  1  0  0  0  0
 34 29  1  0  0  0  0
 35 34  1  0  0  0  0
 35 40  1  0  0  0  0
 36 35  2  0  0  0  0
 37 38  2  0  0  0  0
 37 36  1  0  0  0  0
 38 39  1  0  0  0  0
 39 34  2  0  0  0  0
 41 36  1  0  0  0  0
 42 38  1  0  0  0  0
M  END
>  <minimizedAffinity>
-5.93776369

$$$$

 OpenBabel03242517493D

 42 44  0  0  0  0  0  0  0  0999 V2000
   38.9120   30.1200   42.1680 C   0  0  0  0  0  0  0  0  0  0  0  0
   37.6090   29.7360   41.8430 C   0  0  0  0  0  0  0  0  0  0  0  0
   36.8460   30.6090   41.0790 C   0  0  0  0  0  0  0  0  0  0  0  0
   37.4090   31.7780   40.6960 N   0  0  0  0  0  0  0  0  0  0  0  0
   38.6820   32.1140   41.0340 C   0  0  0  0  0  0  0  0  0  0  0  0
   39.4470   31.3120   41.7620 N   0  0  0  0  0  0  0  0  0  0  0  0
   39.5740   29.4820   42.7690 H   0  0  0  0  0  0  0  0  0  0  0  0
   35.8330   30.3380   40.8120 H   0  0  0  0  0  0  0  0  0  0  0  0
   39.1840   33.4270   40.5510 C   0  0  0  0  0  0  0  0  0  0  0  0
   38.3970   34.1710   40.4630 H   0  0  0  0  0  0  0  0  0  0  0  0
   39.8850   33.8070   41.3420 H   0  0  0  0  0  0  0  0  0  0  0  0
   39.9280   33.2960   39.2400 C   0  0  0  0  0  0  0  0  0  0  0  0
   39.2570   33.7070   38.4660 H   0  0  0  0  0  0  0  0  0  0  0  0
   40.0830   32.2040   39.0770 H   0  0  0  0  0  0  0  0  0  0  0  0
   41.6680   33.1390   37.0730 N   0  0  0  0  0  0  0  0  0  0  0  0
   41.8840   34.0660   37.9750 C   0  0  0  0  0  0  0  0  0  0  0  0
   41.1880   33.9700   39.2360 N   0  0  0  0  0  0  0  0  0  0  0  0
   42.7860   35.1700   37.7500 N   0  0  0  0  0  0  0  0  0  0  0  0
   43.4860   35.2040   38.5480 H   0  0  0  0  0  0  0  0  0  0  0  0
   42.1960   33.2560   36.1810 H   0  0  0  0  0  0  0  0  0  0  0  0
   41.7290   34.4330   40.0250 H   0  0  0  0  0  0  0  0  0  0  0  0
   42.5710   35.6960   36.8720 H   0  0  0  0  0  0  0  0  0  0  0  0
   36.9830   28.1710   42.4070 S   0  0  0  0  0  0  0  0  0  0  0  0
   38.3200   27.0200   42.6180 C   0  0  0  0  0  0  0  0  0  0  0  0
   39.0340   26.8890   43.7930 C   0  0  0  0  0  0  0  0  0  0  0  0
   40.0750   25.9590   43.8840 C   0  0  0  0  0  0  0  0  0  0  0  0
   40.4030   25.1690   42.8240 C   0  0  0  0  0  0  0  0  0  0  0  0
   39.6840   25.3060   41.6500 C   0  0  0  0  0  0  0  0  0  0  0  0
   38.6410   26.2230   41.5250 C   0  0  0  0  0  0  0  0  0  0  0  0
   38.7780   27.5070   44.6280 H   0  0  0  0  0  0  0  0  0  0  0  0
   40.6460   25.8360   44.7850 H   0  0  0  0  0  0  0  0  0  0  0  0
   41.1880   24.4290   42.8040 H   0  0  0  0  0  0  0  0  0  0  0  0
   39.9120   24.6990   40.7830 H   0  0  0  0  0  0  0  0  0  0  0  0
   37.9010   26.3510   40.2890 C   0  0  0  0  0  0  0  0  0  0  0  0
   36.8130   25.6240   39.9570 C   0  0  0  0  0  0  0  0  0  0  0  0
   36.1060   25.7570   38.7600 C   0  0  0  0  0  0  0  0  0  0  0  0
   36.5470   26.6800   37.8780 N   0  0  0  0  0  0  0  0  0  0  0  0
   37.6320   27.4110   38.2010 C   0  0  0  0  0  0  0  0  0  0  0  0
   38.2960   27.2620   39.3640 N   0  0  0  0  0  0  0  0  0  0  0  0
   36.4650   24.8820   40.6740 H   0  0  0  0  0  0  0  0  0  0  0  0
   35.2550   25.1240   38.6050 H   0  0  0  0  0  0  0  0  0  0  0  0
   37.9230   28.1320   37.4390 H   0  0  0  0  0  0  0  0  0  0  0  0
  1  7  1  0  0  0  0
  2  1  1  0  0  0  0
  2 23  1  0  0  0  0
  3  2  2  0  0  0  0
  4  5  2  0  0  0  0
  4  3  1  0  0  0  0
  5  6  1  0  0  0  0
  6  1  2  0  0  0  0
  8  3  1  0  0  0  0
  9  5  1  0  0  0  0
  9 11  1  0  0  0  0
 10  9  1  0  0  0  0
 12  9  1  0  0  0  0
 13 12  1  0  0  0  0
 14 12  1  0  0  0  0
 15 16  2  0  0  0  0
 16 17  1  0  0  0  0
 17 12  1  0  0  0  0
 17 21  1  0  0  0  0
 18 16  1  0  0  0  0
 18 19  1  0  0  0  0
 20 15  1  0  0  0  0
 22 18  1  0  0  0  0
 23 24  1  0  0  0  0
 24 25  1  0  0  0  0
 25 26  2  0  0  0  0
 25 30  1  0  0  0  0
 26 31  1  0  0  0  0
 27 26  1  0  0  0  0
 28 27  2  0  0  0  0
 29 28  1  0  0  0  0
 29 24  2  0  0  0  0
 32 27  1  0  0  0  0
 33 28  1  0  0  0  0
 34 29  1  0  0  0  0
 35 34  1  0  0  0  0
 35 40  1  0  0  0  0
 36 35  2  0  0  0  0
 37 38  2  0  0  0  0
 37 36  1  0  0  0  0
 38 39  1  0  0  0  0
 39 34  2  0  0  0  0
 41 36  1  0  0  0  0
 42 38  1  0  0  0  0
M  END
>  <minimizedAffinity>
-5.89398861

$$$$

 OpenBabel03242517493D

 42 44  0  0  0  0  0  0  0  0999 V2000
   37.9360   29.6160   42.1480 C   0  0  0  0  0  0  0  0  0  0  0  0
   36.8940   28.7060   41.9560 C   0  0  0  0  0  0  0  0  0  0  0  0
   35.9130   29.0270   41.0260 C   0  0  0  0  0  0  0  0  0  0  0  0
   36.0260   30.2010   40.3620 N   0  0  0  0  0  0  0  0  0  0  0  0
   37.0570   31.0600   40.5790 C   0  0  0  0  0  0  0  0  0  0  0  0
   38.0150   30.7950   41.4570 N   0  0  0  0  0  0  0  0  0  0  0  0
   38.7460   29.4310   42.8670 H   0  0  0  0  0  0  0  0  0  0  0  0
   35.0940   28.3410   40.8560 H   0  0  0  0  0  0  0  0  0  0  0  0
   37.0660   32.3160   39.7860 C   0  0  0  0  0  0  0  0  0  0  0  0
   36.1020   32.8170   39.7820 H   0  0  0  0  0  0  0  0  0  0  0  0
   37.7770   33.0120   40.3060 H   0  0  0  0  0  0  0  0  0  0  0  0
   37.5380   32.0810   38.3670 C   0  0  0  0  0  0  0  0  0  0  0  0
   37.9920   33.0320   38.0360 H   0  0  0  0  0  0  0  0  0  0  0  0
   36.6260   31.8590   37.7670 H   0  0  0  0  0  0  0  0  0  0  0  0
   39.8740   32.3120   36.8710 N   0  0  0  0  0  0  0  0  0  0  0  0
   39.7680   31.3060   37.7040 C   0  0  0  0  0  0  0  0  0  0  0  0
   38.4690   31.0040   38.2530 N   0  0  0  0  0  0  0  0  0  0  0  0
   40.9020   30.4970   38.0870 N   0  0  0  0  0  0  0  0  0  0  0  0
   40.6660   29.4770   37.9080 H   0  0  0  0  0  0  0  0  0  0  0  0
   40.8340   32.4860   36.5030 H   0  0  0  0  0  0  0  0  0  0  0  0
   38.3740   29.9760   38.5100 H   0  0  0  0  0  0  0  0  0  0  0  0
   41.6990   31.0660   38.4530 H   0  0  0  0  0  0  0  0  0  0  0  0
   36.8580   27.1950   42.8910 S   0  0  0  0  0  0  0  0  0  0  0  0
   38.4770   26.4630   42.9290 C   0  0  0  0  0  0  0  0  0  0  0  0
   39.4350   26.7820   43.8710 C   0  0  0  0  0  0  0  0  0  0  0  0
   40.6900   26.1640   43.8370 C   0  0  0  0  0  0  0  0  0  0  0  0
   40.9890   25.2410   42.8820 C   0  0  0  0  0  0  0  0  0  0  0  0
   40.0260   24.9260   41.9410 C   0  0  0  0  0  0  0  0  0  0  0  0
   38.7650   25.5230   41.9460 C   0  0  0  0  0  0  0  0  0  0  0  0
   39.2030   27.5070   44.6230 H   0  0  0  0  0  0  0  0  0  0  0  0
   41.4530   26.3930   44.5570 H   0  0  0  0  0  0  0  0  0  0  0  0
   41.9270   24.7160   42.7800 H   0  0  0  0  0  0  0  0  0  0  0  0
   40.2210   24.1980   41.1640 H   0  0  0  0  0  0  0  0  0  0  0  0
   37.7700   25.1810   40.9540 C   0  0  0  0  0  0  0  0  0  0  0  0
   37.5820   25.8330   39.7870 C   0  0  0  0  0  0  0  0  0  0  0  0
   36.6170   25.4930   38.8360 C   0  0  0  0  0  0  0  0  0  0  0  0
   35.8210   24.4370   39.1090 N   0  0  0  0  0  0  0  0  0  0  0  0
   36.0020   23.7790   40.2710 C   0  0  0  0  0  0  0  0  0  0  0  0
   36.9410   24.1290   41.1720 N   0  0  0  0  0  0  0  0  0  0  0  0
   38.2280   26.6850   39.5760 H   0  0  0  0  0  0  0  0  0  0  0  0
   36.5590   26.0850   37.9440 H   0  0  0  0  0  0  0  0  0  0  0  0
   35.3230   22.9410   40.4160 H   0  0  0  0  0  0  0  0  0  0  0  0
  1  7  1  0  0  0  0
  2  1  1  0  0  0  0
  2 23  1  0  0  0  0
  3  2  2  0  0  0  0
  4  5  2  0  0  0  0
  4  3  1  0  0  0  0
  5  6  1  0  0  0  0
  6  1  2  0  0  0  0
  8  3  1  0  0  0  0
  9 11  1  0  0  0  0
  9  5  1  0  0  0  0
 10  9  1  0  0  0  0
 12  9  1  0  0  0  0
 13 12  1  0  0  0  0
 14 12  1  0  0  0  0
 15 16  2  0  0  0  0
 16 18  1  0  0  0  0
 16 17  1  0  0  0  0
 17 12  1  0  0  0  0
 17 21  1  0  0  0  0
 18 22  1  0  0  0  0
 19 18  1  0  0  0  0
 20 15  1  0  0  0  0
 23 24  1  0  0  0  0
 24 25  1  0  0  0  0
 25 30  1  0  0  0  0
 26 25  2  0  0  0  0
 26 31  1  0  0  0  0
 27 26  1  0  0  0  0
 28 29  1  0  0  0  0
 28 27  2  0  0  0  0
 29 24  2  0  0  0  0
 32 27  1  0  0  0  0
 33 28  1  0  0  0  0
 34 39  1  0  0  0  0
 34 29  1  0  0  0  0
 35 34  2  0  0  0  0
 36 37  2  0  0  0  0
 36 35  1  0  0  0  0
 37 38  1  0  0  0  0
 38 42  1  0  0  0  0
 38 39  2  0  0  0  0
 40 35  1  0  0  0  0
 41 36  1  0  0  0  0
M  END
>  <minimizedAffinity>
-5.86905003

$$$$

 OpenBabel03242517493D

 42 44  0  0  0  0  0  0  0  0999 V2000
   39.0850   30.7910   41.9090 C   0  0  0  0  0  0  0  0  0  0  0  0
   37.8030   30.3740   41.5450 C   0  0  0  0  0  0  0  0  0  0  0  0
   37.0510   31.2150   40.7350 C   0  0  0  0  0  0  0  0  0  0  0  0
   37.6050   32.3870   40.3470 N   0  0  0  0  0  0  0  0  0  0  0  0
   38.8580   32.7560   40.7240 C   0  0  0  0  0  0  0  0  0  0  0  0
   39.6110   31.9850   41.4970 N   0  0  0  0  0  0  0  0  0  0  0  0
   39.7370   30.1790   42.5480 H   0  0  0  0  0  0  0  0  0  0  0  0
   36.0540   30.9180   40.4370 H   0  0  0  0  0  0  0  0  0  0  0  0
   39.3510   34.0690   40.2320 C   0  0  0  0  0  0  0  0  0  0  0  0
   38.7690   34.4510   39.3990 H   0  0  0  0  0  0  0  0  0  0  0  0
   39.2060   34.7960   41.0750 H   0  0  0  0  0  0  0  0  0  0  0  0
   40.8180   34.0140   39.8630 C   0  0  0  0  0  0  0  0  0  0  0  0
   41.1130   32.9530   39.9430 H   0  0  0  0  0  0  0  0  0  0  0  0
   41.3550   34.6230   40.6260 H   0  0  0  0  0  0  0  0  0  0  0  0
   43.4110   34.5710   39.0170 N   0  0  0  0  0  0  0  0  0  0  0  0
   42.4640   34.5090   38.1130 C   0  0  0  0  0  0  0  0  0  0  0  0
   41.0910   34.5230   38.5560 N   0  0  0  0  0  0  0  0  0  0  0  0
   42.7480   34.4270   36.6990 N   0  0  0  0  0  0  0  0  0  0  0  0
   42.2200   35.2020   36.2020 H   0  0  0  0  0  0  0  0  0  0  0  0
   44.3850   34.5580   38.6430 H   0  0  0  0  0  0  0  0  0  0  0  0
   40.4390   34.9270   37.8200 H   0  0  0  0  0  0  0  0  0  0  0  0
   43.3970   33.6420   36.4630 H   0  0  0  0  0  0  0  0  0  0  0  0
   37.1870   28.8090   42.1190 S   0  0  0  0  0  0  0  0  0  0  0  0
   37.1510   27.6400   40.7810 C   0  0  0  0  0  0  0  0  0  0  0  0
   36.1780   27.6340   39.8010 C   0  0  0  0  0  0  0  0  0  0  0  0
   36.2160   26.6810   38.7770 C   0  0  0  0  0  0  0  0  0  0  0  0
   37.2050   25.7460   38.7270 C   0  0  0  0  0  0  0  0  0  0  0  0
   38.1760   25.7580   39.7120 C   0  0  0  0  0  0  0  0  0  0  0  0
   38.1680   26.6930   40.7460 C   0  0  0  0  0  0  0  0  0  0  0  0
   35.3990   28.3670   39.8370 H   0  0  0  0  0  0  0  0  0  0  0  0
   35.4730   26.6540   38.0030 H   0  0  0  0  0  0  0  0  0  0  0  0
   37.3120   24.9760   37.9780 H   0  0  0  0  0  0  0  0  0  0  0  0
   38.9800   25.0330   39.7110 H   0  0  0  0  0  0  0  0  0  0  0  0
   39.1920   26.6890   41.7680 C   0  0  0  0  0  0  0  0  0  0  0  0
   40.3590   27.3650   41.7000 C   0  0  0  0  0  0  0  0  0  0  0  0
   41.3400   27.3530   42.6930 C   0  0  0  0  0  0  0  0  0  0  0  0
   41.0990   26.6110   43.7960 N   0  0  0  0  0  0  0  0  0  0  0  0
   39.9370   25.9330   43.8730 C   0  0  0  0  0  0  0  0  0  0  0  0
   39.0070   25.9620   42.8990 N   0  0  0  0  0  0  0  0  0  0  0  0
   40.5450   27.9600   40.8070 H   0  0  0  0  0  0  0  0  0  0  0  0
   42.2290   27.9300   42.5300 H   0  0  0  0  0  0  0  0  0  0  0  0
   39.8190   25.3610   44.7910 H   0  0  0  0  0  0  0  0  0  0  0  0
  1  7  1  0  0  0  0
  2  1  1  0  0  0  0
  2 23  1  0  0  0  0
  3  2  2  0  0  0  0
  4  5  2  0  0  0  0
  4  3  1  0  0  0  0
  5  6  1  0  0  0  0
  6  1  2  0  0  0  0
  8  3  1  0  0  0  0
  9  5  1  0  0  0  0
  9 11  1  0  0  0  0
 10  9  1  0  0  0  0
 12 13  1  0  0  0  0
 12  9  1  0  0  0  0
 12 14  1  0  0  0  0
 16 17  1  0  0  0  0
 16 15  2  0  0  0  0
 17 12  1  0  0  0  0
 18 16  1  0  0  0  0
 19 18  1  0  0  0  0
 20 15  1  0  0  0  0
 21 17  1  0  0  0  0
 22 18  1  0  0  0  0
 24 23  1  0  0  0  0
 25 30  1  0  0  0  0
 25 24  2  0  0  0  0
 26 25  1  0  0  0  0
 27 26  2  0  0  0  0
 27 28  1  0  0  0  0
 28 29  2  0  0  0  0
 29 24  1  0  0  0  0
 29 34  1  0  0  0  0
 31 26  1  0  0  0  0
 32 27  1  0  0  0  0
 33 28  1  0  0  0  0
 34 39  1  0  0  0  0
 35 34  2  0  0  0  0
 35 36  1  0  0  0  0
 36 37  2  0  0  0  0
 37 38  1  0  0  0  0
 38 42  1  0  0  0  0
 39 38  2  0  0  0  0
 40 35  1  0  0  0  0
 41 36  1  0  0  0  0
M  END
>  <minimizedAffinity>
-5.83991051

$$$$

 OpenBabel03242517493D

 42 44  0  0  0  0  0  0  0  0999 V2000
   38.6620   30.3400   42.1200 C   0  0  0  0  0  0  0  0  0  0  0  0
   37.6810   29.3750   42.3590 C   0  0  0  0  0  0  0  0  0  0  0  0
   36.4890   29.4700   41.6520 C   0  0  0  0  0  0  0  0  0  0  0  0
   36.3500   30.4910   40.7750 N   0  0  0  0  0  0  0  0  0  0  0  0
   37.3300   31.4110   40.5720 C   0  0  0  0  0  0  0  0  0  0  0  0
   38.4840   31.3590   41.2250 N   0  0  0  0  0  0  0  0  0  0  0  0
   39.6280   30.3300   42.6420 H   0  0  0  0  0  0  0  0  0  0  0  0
   35.7110   28.7370   41.8170 H   0  0  0  0  0  0  0  0  0  0  0  0
   37.0530   32.4840   39.5820 C   0  0  0  0  0  0  0  0  0  0  0  0
   35.9950   32.7060   39.4870 H   0  0  0  0  0  0  0  0  0  0  0  0
   37.5330   33.4160   39.9840 H   0  0  0  0  0  0  0  0  0  0  0  0
   37.6420   32.1610   38.2250 C   0  0  0  0  0  0  0  0  0  0  0  0
   38.1180   33.0920   37.8700 H   0  0  0  0  0  0  0  0  0  0  0  0
   36.7830   31.8920   37.5680 H   0  0  0  0  0  0  0  0  0  0  0  0
   40.0540   32.2770   36.8410 N   0  0  0  0  0  0  0  0  0  0  0  0
   39.9080   31.3490   37.7550 C   0  0  0  0  0  0  0  0  0  0  0  0
   38.5820   31.0860   38.2590 N   0  0  0  0  0  0  0  0  0  0  0  0
   41.0230   30.5890   38.2700 N   0  0  0  0  0  0  0  0  0  0  0  0
   40.8010   29.5550   38.1710 H   0  0  0  0  0  0  0  0  0  0  0  0
   41.0320   32.4270   36.5110 H   0  0  0  0  0  0  0  0  0  0  0  0
   38.4780   30.0850   38.6020 H   0  0  0  0  0  0  0  0  0  0  0  0
   41.7970   31.1960   38.6250 H   0  0  0  0  0  0  0  0  0  0  0  0
   37.9840   28.0810   43.5380 S   0  0  0  0  0  0  0  0  0  0  0  0
   38.0180   26.5050   42.7170 C   0  0  0  0  0  0  0  0  0  0  0  0
   36.8830   25.8410   42.2950 C   0  0  0  0  0  0  0  0  0  0  0  0
   36.9880   24.6020   41.6550 C   0  0  0  0  0  0  0  0  0  0  0  0
   38.2040   24.0280   41.4370 C   0  0  0  0  0  0  0  0  0  0  0  0
   39.3370   24.6970   41.8630 C   0  0  0  0  0  0  0  0  0  0  0  0
   39.2670   25.9340   42.5040 C   0  0  0  0  0  0  0  0  0  0  0  0
   35.9260   26.2890   42.4640 H   0  0  0  0  0  0  0  0  0  0  0  0
   36.1220   24.0650   41.3160 H   0  0  0  0  0  0  0  0  0  0  0  0
   38.3790   23.0790   40.9540 H   0  0  0  0  0  0  0  0  0  0  0  0
   40.3230   24.2770   41.7110 H   0  0  0  0  0  0  0  0  0  0  0  0
   40.4630   26.6180   42.9420 C   0  0  0  0  0  0  0  0  0  0  0  0
   41.1300   27.5500   42.2290 C   0  0  0  0  0  0  0  0  0  0  0  0
   42.2850   28.2040   42.6630 C   0  0  0  0  0  0  0  0  0  0  0  0
   42.7620   27.8780   43.8840 N   0  0  0  0  0  0  0  0  0  0  0  0
   42.1030   26.9490   44.6040 C   0  0  0  0  0  0  0  0  0  0  0  0
   40.9900   26.3330   44.1600 N   0  0  0  0  0  0  0  0  0  0  0  0
   40.7390   27.8070   41.2450 H   0  0  0  0  0  0  0  0  0  0  0  0
   42.7300   28.9280   42.0090 H   0  0  0  0  0  0  0  0  0  0  0  0
   42.5500   26.7430   45.5750 H   0  0  0  0  0  0  0  0  0  0  0  0
  1  2  1  0  0  0  0
  1  7  1  0  0  0  0
  2 23  1  0  0  0  0
  3  8  1  0  0  0  0
  3  2  2  0  0  0  0
  4  3  1  0  0  0  0
  5  4  2  0  0  0  0
  5  6  1  0  0  0  0
  6  1  2  0  0  0  0
  9 11  1  0  0  0  0
  9  5  1  0  0  0  0
 10  9  1  0  0  0  0
 12 17  1  0  0  0  0
 12  9  1  0  0  0  0
 13 12  1  0  0  0  0
 14 12  1  0  0  0  0
 15 16  2  0  0  0  0
 16 17  1  0  0  0  0
 16 18  1  0  0  0  0
 17 21  1  0  0  0  0
 18 22  1  0  0  0  0
 19 18  1  0  0  0  0
 20 15  1  0  0  0  0
 24 23  1  0  0  0  0
 25 30  1  0  0  0  0
 25 24  2  0  0  0  0
 26 25  1  0  0  0  0
 27 26  2  0  0  0  0
 27 28  1  0  0  0  0
 28 29  2  0  0  0  0
 29 24  1  0  0  0  0
 29 34  1  0  0  0  0
 31 26  1  0  0  0  0
 32 27  1  0  0  0  0
 33 28  1  0  0  0  0
 34 39  1  0  0  0  0
 35 36  1  0  0  0  0
 35 34  2  0  0  0  0
 36 37  2  0  0  0  0
 37 38  1  0  0  0  0
 38 42  1  0  0  0  0
 39 38  2  0  0  0  0
 40 35  1  0  0  0  0
 41 36  1  0  0  0  0
M  END
>  <minimizedAffinity>
-5.81128263

$$$$

 OpenBabel03242517493D

 42 44  0  0  0  0  0  0  0  0999 V2000
   38.2090   28.7600   41.4260 C   0  0  0  0  0  0  0  0  0  0  0  0
   36.8490   28.5450   41.6550 C   0  0  0  0  0  0  0  0  0  0  0  0
   36.4900   27.6890   42.6890 C   0  0  0  0  0  0  0  0  0  0  0  0
   37.4800   27.1150   43.4110 N   0  0  0  0  0  0  0  0  0  0  0  0
   38.7940   27.3500   43.1550 C   0  0  0  0  0  0  0  0  0  0  0  0
   39.1820   28.1600   42.1780 N   0  0  0  0  0  0  0  0  0  0  0  0
   38.5680   29.4220   40.6260 H   0  0  0  0  0  0  0  0  0  0  0  0
   35.4430   27.5040   42.8900 H   0  0  0  0  0  0  0  0  0  0  0  0
   39.7850   26.6580   44.0200 C   0  0  0  0  0  0  0  0  0  0  0  0
   40.5610   27.3230   44.3850 H   0  0  0  0  0  0  0  0  0  0  0  0
   39.2210   26.3080   44.9260 H   0  0  0  0  0  0  0  0  0  0  0  0
   40.4040   25.4660   43.3210 C   0  0  0  0  0  0  0  0  0  0  0  0
   39.5600   24.8760   42.9200 H   0  0  0  0  0  0  0  0  0  0  0  0
   40.9400   24.8870   44.1080 H   0  0  0  0  0  0  0  0  0  0  0  0
   43.1170   24.8650   43.4680 N   0  0  0  0  0  0  0  0  0  0  0  0
   42.6260   25.2330   42.3100 C   0  0  0  0  0  0  0  0  0  0  0  0
   41.3130   25.8300   42.2810 N   0  0  0  0  0  0  0  0  0  0  0  0
   43.3500   25.0610   41.0720 N   0  0  0  0  0  0  0  0  0  0  0  0
   43.3940   25.9970   40.5730 H   0  0  0  0  0  0  0  0  0  0  0  0
   44.0690   24.4400   43.4320 H   0  0  0  0  0  0  0  0  0  0  0  0
   41.1930   26.4890   41.4550 H   0  0  0  0  0  0  0  0  0  0  0  0
   43.6730   24.0770   40.9260 H   0  0  0  0  0  0  0  0  0  0  0  0
   35.6420   29.3600   40.6360 S   0  0  0  0  0  0  0  0  0  0  0  0
   36.4530   30.2900   39.3580 C   0  0  0  0  0  0  0  0  0  0  0  0
   36.9370   31.5710   39.5370 C   0  0  0  0  0  0  0  0  0  0  0  0
   37.5650   32.2410   38.4820 C   0  0  0  0  0  0  0  0  0  0  0  0
   37.7100   31.6490   37.2640 C   0  0  0  0  0  0  0  0  0  0  0  0
   37.2220   30.3660   37.0900 C   0  0  0  0  0  0  0  0  0  0  0  0
   36.5920   29.6700   38.1210 C   0  0  0  0  0  0  0  0  0  0  0  0
   36.8250   32.0390   40.4930 H   0  0  0  0  0  0  0  0  0  0  0  0
   37.9510   33.2370   38.5950 H   0  0  0  0  0  0  0  0  0  0  0  0
   38.1780   32.0890   36.3970 H   0  0  0  0  0  0  0  0  0  0  0  0
   37.3150   29.8580   36.1390 H   0  0  0  0  0  0  0  0  0  0  0  0
   36.0880   28.3290   37.9200 C   0  0  0  0  0  0  0  0  0  0  0  0
   34.8620   28.0250   37.4430 C   0  0  0  0  0  0  0  0  0  0  0  0
   34.3860   26.7260   37.2530 C   0  0  0  0  0  0  0  0  0  0  0  0
   35.2150   25.7080   37.5700 N   0  0  0  0  0  0  0  0  0  0  0  0
   36.4410   26.0020   38.0470 C   0  0  0  0  0  0  0  0  0  0  0  0
   36.8750   27.2650   38.2210 N   0  0  0  0  0  0  0  0  0  0  0  0
   34.2000   28.8520   37.1900 H   0  0  0  0  0  0  0  0  0  0  0  0
   33.3930   26.6040   36.8670 H   0  0  0  0  0  0  0  0  0  0  0  0
   37.0470   25.1280   38.2780 H   0  0  0  0  0  0  0  0  0  0  0  0
  1  2  2  0  0  0  0
  1  6  1  0  0  0  0
  2  3  1  0  0  0  0
  3  8  1  0  0  0  0
  3  4  2  0  0  0  0
  5  4  1  0  0  0  0
  5  9  1  0  0  0  0
  6  5  2  0  0  0  0
  7  1  1  0  0  0  0
  9 10  1  0  0  0  0
  9 11  1  0  0  0  0
 12  9  1  0  0  0  0
 12 14  1  0  0  0  0
 13 12  1  0  0  0  0
 16 15  2  0  0  0  0
 17 16  1  0  0  0  0
 17 12  1  0  0  0  0
 18 16  1  0  0  0  0
 19 18  1  0  0  0  0
 20 15  1  0  0  0  0
 21 17  1  0  0  0  0
 22 18  1  0  0  0  0
 23  2  1  0  0  0  0
 24 25  1  0  0  0  0
 24 23  1  0  0  0  0
 25 30  1  0  0  0  0
 26 31  1  0  0  0  0
 26 25  2  0  0  0  0
 27 26  1  0  0  0  0
 28 27  2  0  0  0  0
 28 29  1  0  0  0  0
 29 24  2  0  0  0  0
 32 27  1  0  0  0  0
 33 28  1  0  0  0  0
 34 29  1  0  0  0  0
 34 39  1  0  0  0  0
 35 34  2  0  0  0  0
 36 35  1  0  0  0  0
 36 37  2  0  0  0  0
 37 38  1  0  0  0  0
 38 39  2  0  0  0  0
 38 42  1  0  0  0  0
 40 35  1  0  0  0  0
 41 36  1  0  0  0  0
M  END
>  <minimizedAffinity>
-5.65281343

$$$$
