
 OpenBabel03242511483D

 43 44  0  0  0  0  0  0  0  0999 V2000
   37.1360   32.5470   40.0070 C   0  0  0  0  0  0  0  0  0  0  0  0
   37.7690   33.7870   39.8290 C   0  0  0  0  0  0  0  0  0  0  0  0
   39.0600   33.8720   40.2830 C   0  0  0  0  0  0  0  0  0  0  0  0
   39.6670   32.8120   40.8660 N   0  0  0  0  0  0  0  0  0  0  0  0
   39.0040   31.6490   41.0080 C   0  0  0  0  0  0  0  0  0  0  0  0
   37.7600   31.4980   40.5930 N   0  0  0  0  0  0  0  0  0  0  0  0
   36.0980   32.4180   39.6660 H   0  0  0  0  0  0  0  0  0  0  0  0
   37.2060   34.5750   39.3520 H   0  0  0  0  0  0  0  0  0  0  0  0
   39.7070   30.5210   41.6460 C   0  0  0  0  0  0  0  0  0  0  0  0
   39.9760   29.7130   40.9610 H   0  0  0  0  0  0  0  0  0  0  0  0
   40.6740   30.9450   42.0500 H   0  0  0  0  0  0  0  0  0  0  0  0
   38.8800   30.0170   42.7990 C   0  0  0  0  0  0  0  0  0  0  0  0
   39.3040   30.3710   43.7730 H   0  0  0  0  0  0  0  0  0  0  0  0
   37.8420   30.4440   42.7690 H   0  0  0  0  0  0  0  0  0  0  0  0
   38.7710   28.5750   42.7960 C   0  0  0  0  0  0  0  0  0  0  0  0
   39.7380   27.6260   43.0930 C   0  0  0  0  0  0  0  0  0  0  0  0
   39.5320   26.2910   43.0590 C   0  0  0  0  0  0  0  0  0  0  0  0
   38.2780   25.8390   42.7070 C   0  0  0  0  0  0  0  0  0  0  0  0
   37.3070   26.7640   42.4090 C   0  0  0  0  0  0  0  0  0  0  0  0
   37.5430   28.1260   42.4500 C   0  0  0  0  0  0  0  0  0  0  0  0
   40.7170   28.0510   43.3670 H   0  0  0  0  0  0  0  0  0  0  0  0
   40.3700   25.6650   43.3090 H   0  0  0  0  0  0  0  0  0  0  0  0
   38.1680   24.7500   42.6970 H   0  0  0  0  0  0  0  0  0  0  0  0
   36.3710   26.2360   42.1480 H   0  0  0  0  0  0  0  0  0  0  0  0
   35.9900   28.7100   40.6850 C   0  0  0  0  0  0  0  0  0  0  0  0
   36.4890   28.2190   39.5930 O   0  0  0  0  0  0  0  0  0  0  0  0
   36.3220   28.7800   42.0780 N   0  0  0  0  0  0  0  0  0  0  0  0
   35.1540   29.0820   40.0940 H   0  0  0  0  0  0  0  0  0  0  0  0
   35.6010   29.3040   42.5860 H   0  0  0  0  0  0  0  0  0  0  0  0
   39.7700   35.1790   40.1080 C   0  0  0  0  0  0  0  0  0  0  0  0
   39.4230   35.5900   39.1450 H   0  0  0  0  0  0  0  0  0  0  0  0
   39.4750   35.8600   40.9320 H   0  0  0  0  0  0  0  0  0  0  0  0
   41.2790   34.9740   40.0690 C   0  0  0  0  0  0  0  0  0  0  0  0
   41.7400   35.5970   40.8330 H   0  0  0  0  0  0  0  0  0  0  0  0
   41.4970   33.9010   40.3090 H   0  0  0  0  0  0  0  0  0  0  0  0
   41.5600   33.0210   38.0130 N   0  0  0  0  0  0  0  0  0  0  0  0
   42.0340   34.2220   37.8440 C   0  0  0  0  0  0  0  0  0  0  0  0
   41.6680   35.2860   38.7080 N   0  0  0  0  0  0  0  0  0  0  0  0
   42.9310   34.3710   36.7450 N   0  0  0  0  0  0  0  0  0  0  0  0
   43.8900   33.9250   36.8340 H   0  0  0  0  0  0  0  0  0  0  0  0
   40.8970   32.7810   38.7750 H   0  0  0  0  0  0  0  0  0  0  0  0
   41.7030   36.2310   38.3020 H   0  0  0  0  0  0  0  0  0  0  0  0
   43.1250   34.7500   35.7840 H   0  0  0  0  0  0  0  0  0  0  0  0
  1  6  1  0  0  0  0
  2  1  2  0  0  0  0
  2  3  1  0  0  0  0
  3  4  2  0  0  0  0
  4  5  1  0  0  0  0
  5  9  1  0  0  0  0
  6  5  2  0  0  0  0
  7  1  1  0  0  0  0
  8  2  1  0  0  0  0
  9 11  1  0  0  0  0
  9 12  1  0  0  0  0
 10  9  1  0  0  0  0
 12 13  1  0  0  0  0
 14 12  1  0  0  0  0
 15 12  1  0  0  0  0
 15 16  1  0  0  0  0
 16 21  1  0  0  0  0
 17 16  2  0  0  0  0
 17 22  1  0  0  0  0
 18 17  1  0  0  0  0
 19 20  1  0  0  0  0
 19 18  2  0  0  0  0
 20 15  2  0  0  0  0
 23 18  1  0  0  0  0
 24 19  1  0  0  0  0
 25 27  1  0  0  0  0
 26 25  2  0  0  0  0
 27 20  1  0  0  0  0
 27 29  1  0  0  0  0
 28 25  1  0  0  0  0
 30  3  1  0  0  0  0
 30 32  1  0  0  0  0
 31 30  1  0  0  0  0
 33 30  1  0  0  0  0
 33 35  1  0  0  0  0
 33 34  1  0  0  0  0
 36 41  1  0  0  0  0
 37 36  2  0  0  0  0
 37 38  1  0  0  0  0
 38 33  1  0  0  0  0
 39 40  1  0  0  0  0
 39 37  1  0  0  0  0
 42 38  1  0  0  0  0
 43 39  1  0  0  0  0
M  END
>  <minimizedAffinity>
-6.19339275

$$$$

 OpenBabel03242511483D

 43 44  0  0  0  0  0  0  0  0999 V2000
   35.3910   28.9120   40.5220 C   0  0  0  0  0  0  0  0  0  0  0  0
   35.6760   29.9240   39.5920 C   0  0  0  0  0  0  0  0  0  0  0  0
   36.7980   30.6710   39.8450 C   0  0  0  0  0  0  0  0  0  0  0  0
   37.5690   30.4280   40.9310 N   0  0  0  0  0  0  0  0  0  0  0  0
   37.2400   29.4420   41.7860 C   0  0  0  0  0  0  0  0  0  0  0  0
   36.1730   28.6850   41.6030 N   0  0  0  0  0  0  0  0  0  0  0  0
   34.5010   28.2810   40.3750 H   0  0  0  0  0  0  0  0  0  0  0  0
   35.0050   30.0410   38.7550 H   0  0  0  0  0  0  0  0  0  0  0  0
   38.1110   29.2140   42.9530 C   0  0  0  0  0  0  0  0  0  0  0  0
   39.1810   29.2730   42.7350 H   0  0  0  0  0  0  0  0  0  0  0  0
   37.8780   30.0440   43.6830 H   0  0  0  0  0  0  0  0  0  0  0  0
   37.7470   27.8960   43.5860 C   0  0  0  0  0  0  0  0  0  0  0  0
   37.5150   28.0320   44.6730 H   0  0  0  0  0  0  0  0  0  0  0  0
   36.8020   27.4820   43.1430 H   0  0  0  0  0  0  0  0  0  0  0  0
   38.7910   26.9090   43.4170 C   0  0  0  0  0  0  0  0  0  0  0  0
   40.0780   26.9040   43.9320 C   0  0  0  0  0  0  0  0  0  0  0  0
   40.9840   25.9260   43.7120 C   0  0  0  0  0  0  0  0  0  0  0  0
   40.6040   24.8600   42.9230 C   0  0  0  0  0  0  0  0  0  0  0  0
   39.3330   24.8480   42.4030 C   0  0  0  0  0  0  0  0  0  0  0  0
   38.4250   25.8620   42.6430 C   0  0  0  0  0  0  0  0  0  0  0  0
   40.3190   27.7810   44.5530 H   0  0  0  0  0  0  0  0  0  0  0  0
   41.9500   26.0470   44.1690 H   0  0  0  0  0  0  0  0  0  0  0  0
   41.3770   24.0970   42.7780 H   0  0  0  0  0  0  0  0  0  0  0  0
   39.1970   23.9320   41.8000 H   0  0  0  0  0  0  0  0  0  0  0  0
   37.2540   25.7230   40.5270 C   0  0  0  0  0  0  0  0  0  0  0  0
   38.0870   26.1500   39.6290 O   0  0  0  0  0  0  0  0  0  0  0  0
   37.2180   25.5240   41.9460 N   0  0  0  0  0  0  0  0  0  0  0  0
   36.5310   25.5610   39.7290 H   0  0  0  0  0  0  0  0  0  0  0  0
   36.3000   25.1610   42.2280 H   0  0  0  0  0  0  0  0  0  0  0  0
   37.1380   31.7590   38.8730 C   0  0  0  0  0  0  0  0  0  0  0  0
   36.7870   31.4100   37.8870 H   0  0  0  0  0  0  0  0  0  0  0  0
   36.5900   32.6790   39.1610 H   0  0  0  0  0  0  0  0  0  0  0  0
   38.6420   31.9970   38.8330 C   0  0  0  0  0  0  0  0  0  0  0  0
   39.1390   31.2170   39.4050 H   0  0  0  0  0  0  0  0  0  0  0  0
   38.9840   31.9260   37.7680 H   0  0  0  0  0  0  0  0  0  0  0  0
   39.7370   32.5840   41.3970 N   0  0  0  0  0  0  0  0  0  0  0  0
   39.1240   33.5120   40.7190 C   0  0  0  0  0  0  0  0  0  0  0  0
   38.8250   33.3420   39.3430 N   0  0  0  0  0  0  0  0  0  0  0  0
   38.7870   34.6830   41.4610 N   0  0  0  0  0  0  0  0  0  0  0  0
   38.0140   34.5980   42.1830 H   0  0  0  0  0  0  0  0  0  0  0  0
   40.0360   31.6840   40.9750 H   0  0  0  0  0  0  0  0  0  0  0  0
   38.7570   34.2030   38.7850 H   0  0  0  0  0  0  0  0  0  0  0  0
   38.9510   35.7020   41.6620 H   0  0  0  0  0  0  0  0  0  0  0  0
  1  6  1  0  0  0  0
  2  3  1  0  0  0  0
  2  1  2  0  0  0  0
  3  4  2  0  0  0  0
  4  5  1  0  0  0  0
  5  9  1  0  0  0  0
  6  5  2  0  0  0  0
  7  1  1  0  0  0  0
  8  2  1  0  0  0  0
  9 12  1  0  0  0  0
  9 11  1  0  0  0  0
 10  9  1  0  0  0  0
 12 13  1  0  0  0  0
 14 12  1  0  0  0  0
 15 12  1  0  0  0  0
 15 16  1  0  0  0  0
 16 21  1  0  0  0  0
 17 16  2  0  0  0  0
 17 22  1  0  0  0  0
 18 17  1  0  0  0  0
 19 20  1  0  0  0  0
 19 18  2  0  0  0  0
 20 15  2  0  0  0  0
 23 18  1  0  0  0  0
 24 19  1  0  0  0  0
 25 27  1  0  0  0  0
 26 25  2  0  0  0  0
 27 29  1  0  0  0  0
 27 20  1  0  0  0  0
 28 25  1  0  0  0  0
 30 32  1  0  0  0  0
 30  3  1  0  0  0  0
 31 30  1  0  0  0  0
 33 30  1  0  0  0  0
 33 38  1  0  0  0  0
 33 34  1  0  0  0  0
 35 33  1  0  0  0  0
 37 36  2  0  0  0  0
 37 39  1  0  0  0  0
 38 37  1  0  0  0  0
 39 43  1  0  0  0  0
 39 40  1  0  0  0  0
 41 36  1  0  0  0  0
 42 38  1  0  0  0  0
M  END
>  <minimizedAffinity>
-6.06564331

$$$$

 OpenBabel03242511483D

 43 44  0  0  0  0  0  0  0  0999 V2000
   36.3770   30.6760   40.8900 C   0  0  0  0  0  0  0  0  0  0  0  0
   36.9070   31.7850   40.2120 C   0  0  0  0  0  0  0  0  0  0  0  0
   38.2510   32.0030   40.3800 C   0  0  0  0  0  0  0  0  0  0  0  0
   39.0000   31.1860   41.1570 N   0  0  0  0  0  0  0  0  0  0  0  0
   38.4290   30.1380   41.7810 C   0  0  0  0  0  0  0  0  0  0  0  0
   37.1420   29.8700   41.6630 N   0  0  0  0  0  0  0  0  0  0  0  0
   35.3040   30.4510   40.7970 H   0  0  0  0  0  0  0  0  0  0  0  0
   36.2330   32.3780   39.6140 H   0  0  0  0  0  0  0  0  0  0  0  0
   39.2860   29.2750   42.6130 C   0  0  0  0  0  0  0  0  0  0  0  0
   40.0520   28.7280   42.0560 H   0  0  0  0  0  0  0  0  0  0  0  0
   39.8270   29.9660   43.3250 H   0  0  0  0  0  0  0  0  0  0  0  0
   38.4130   28.3420   43.4120 C   0  0  0  0  0  0  0  0  0  0  0  0
   38.6560   28.4120   44.5030 H   0  0  0  0  0  0  0  0  0  0  0  0
   37.3320   28.6410   43.3430 H   0  0  0  0  0  0  0  0  0  0  0  0
   38.5290   26.9730   42.9610 C   0  0  0  0  0  0  0  0  0  0  0  0
   37.7610   26.2950   42.0270 C   0  0  0  0  0  0  0  0  0  0  0  0
   37.9530   25.0050   41.6740 C   0  0  0  0  0  0  0  0  0  0  0  0
   38.9810   24.3150   42.2810 C   0  0  0  0  0  0  0  0  0  0  0  0
   39.7520   24.9700   43.2100 C   0  0  0  0  0  0  0  0  0  0  0  0
   39.5350   26.2910   43.5540 C   0  0  0  0  0  0  0  0  0  0  0  0
   36.9580   26.9010   41.5780 H   0  0  0  0  0  0  0  0  0  0  0  0
   37.2830   24.5980   40.9380 H   0  0  0  0  0  0  0  0  0  0  0  0
   39.0900   23.2750   41.9570 H   0  0  0  0  0  0  0  0  0  0  0  0
   40.5220   24.2770   43.5960 H   0  0  0  0  0  0  0  0  0  0  0  0
   41.7990   27.0080   44.0320 C   0  0  0  0  0  0  0  0  0  0  0  0
   42.3880   27.1220   42.8830 O   0  0  0  0  0  0  0  0  0  0  0  0
   40.5120   26.6380   44.5450 N   0  0  0  0  0  0  0  0  0  0  0  0
   42.7290   27.3250   44.5010 H   0  0  0  0  0  0  0  0  0  0  0  0
   40.5130   26.6870   45.5700 H   0  0  0  0  0  0  0  0  0  0  0  0
   38.8550   33.1760   39.6700 C   0  0  0  0  0  0  0  0  0  0  0  0
   38.0980   33.5180   38.9440 H   0  0  0  0  0  0  0  0  0  0  0  0
   39.0530   33.9780   40.4090 H   0  0  0  0  0  0  0  0  0  0  0  0
   40.1270   32.7670   38.9370 C   0  0  0  0  0  0  0  0  0  0  0  0
   40.6360   31.9980   39.5140 H   0  0  0  0  0  0  0  0  0  0  0  0
   39.8410   32.3330   37.9450 H   0  0  0  0  0  0  0  0  0  0  0  0
   42.0660   33.1700   36.8880 N   0  0  0  0  0  0  0  0  0  0  0  0
   41.9930   33.9970   37.8920 C   0  0  0  0  0  0  0  0  0  0  0  0
   40.8740   33.9970   38.7650 N   0  0  0  0  0  0  0  0  0  0  0  0
   43.1050   34.8780   38.0340 N   0  0  0  0  0  0  0  0  0  0  0  0
   44.0250   34.4550   38.3550 H   0  0  0  0  0  0  0  0  0  0  0  0
   41.3220   32.4780   36.6750 H   0  0  0  0  0  0  0  0  0  0  0  0
   40.6630   34.8910   39.2280 H   0  0  0  0  0  0  0  0  0  0  0  0
   43.5000   35.8500   37.9680 H   0  0  0  0  0  0  0  0  0  0  0  0
  1  6  1  0  0  0  0
  2  3  1  0  0  0  0
  2  1  2  0  0  0  0
  3  4  2  0  0  0  0
  4  5  1  0  0  0  0
  5  9  1  0  0  0  0
  6  5  2  0  0  0  0
  7  1  1  0  0  0  0
  8  2  1  0  0  0  0
  9 11  1  0  0  0  0
  9 12  1  0  0  0  0
 10  9  1  0  0  0  0
 12 13  1  0  0  0  0
 14 12  1  0  0  0  0
 15 12  1  0  0  0  0
 15 20  1  0  0  0  0
 16 15  2  0  0  0  0
 17 16  1  0  0  0  0
 17 18  2  0  0  0  0
 18 19  1  0  0  0  0
 19 20  2  0  0  0  0
 19 24  1  0  0  0  0
 20 27  1  0  0  0  0
 21 16  1  0  0  0  0
 22 17  1  0  0  0  0
 23 18  1  0  0  0  0
 25 28  1  0  0  0  0
 25 27  1  0  0  0  0
 26 25  2  0  0  0  0
 27 29  1  0  0  0  0
 30  3  1  0  0  0  0
 30 32  1  0  0  0  0
 31 30  1  0  0  0  0
 33 34  1  0  0  0  0
 33 30  1  0  0  0  0
 35 33  1  0  0  0  0
 36 37  2  0  0  0  0
 37 39  1  0  0  0  0
 37 38  1  0  0  0  0
 38 33  1  0  0  0  0
 38 42  1  0  0  0  0
 39 40  1  0  0  0  0
 41 36  1  0  0  0  0
 43 39  1  0  0  0  0
M  END
>  <minimizedAffinity>
-6.02669477

$$$$

 OpenBabel03242511483D

 43 44  0  0  0  0  0  0  0  0999 V2000
   38.8380   35.2860   40.1020 C   0  0  0  0  0  0  0  0  0  0  0  0
   40.1970   35.0590   40.3690 C   0  0  0  0  0  0  0  0  0  0  0  0
   40.5530   33.7540   40.5940 C   0  0  0  0  0  0  0  0  0  0  0  0
   39.6330   32.7620   40.5570 N   0  0  0  0  0  0  0  0  0  0  0  0
   38.3440   33.0470   40.2950 C   0  0  0  0  0  0  0  0  0  0  0  0
   37.9320   34.2810   40.0690 N   0  0  0  0  0  0  0  0  0  0  0  0
   38.4910   36.3140   39.9160 H   0  0  0  0  0  0  0  0  0  0  0  0
   40.8580   35.9130   40.3760 H   0  0  0  0  0  0  0  0  0  0  0  0
   37.3780   31.9330   40.2620 C   0  0  0  0  0  0  0  0  0  0  0  0
   36.6670   31.9300   41.0920 H   0  0  0  0  0  0  0  0  0  0  0  0
   36.7780   32.0690   39.3150 H   0  0  0  0  0  0  0  0  0  0  0  0
   38.1330   30.6330   40.1760 C   0  0  0  0  0  0  0  0  0  0  0  0
   38.0110   30.1720   39.1630 H   0  0  0  0  0  0  0  0  0  0  0  0
   39.2390   30.7990   40.2800 H   0  0  0  0  0  0  0  0  0  0  0  0
   37.7230   29.7000   41.2020 C   0  0  0  0  0  0  0  0  0  0  0  0
   36.6890   28.7760   41.1780 C   0  0  0  0  0  0  0  0  0  0  0  0
   36.3860   27.9440   42.1980 C   0  0  0  0  0  0  0  0  0  0  0  0
   37.1540   28.0170   43.3410 C   0  0  0  0  0  0  0  0  0  0  0  0
   38.1820   28.9270   43.3850 C   0  0  0  0  0  0  0  0  0  0  0  0
   38.4720   29.7680   42.3260 C   0  0  0  0  0  0  0  0  0  0  0  0
   36.1150   28.7670   40.2380 H   0  0  0  0  0  0  0  0  0  0  0  0
   35.5560   27.2770   42.0500 H   0  0  0  0  0  0  0  0  0  0  0  0
   36.8640   27.3200   44.1350 H   0  0  0  0  0  0  0  0  0  0  0  0
   38.6900   28.8540   44.3640 H   0  0  0  0  0  0  0  0  0  0  0  0
   40.8780   29.9900   42.4960 C   0  0  0  0  0  0  0  0  0  0  0  0
   41.3730   28.8850   42.0310 O   0  0  0  0  0  0  0  0  0  0  0  0
   39.5890   30.5760   42.7200 N   0  0  0  0  0  0  0  0  0  0  0  0
   41.8970   30.3330   42.6690 H   0  0  0  0  0  0  0  0  0  0  0  0
   39.6930   31.5080   43.1390 H   0  0  0  0  0  0  0  0  0  0  0  0
   41.9960   33.4710   40.8800 C   0  0  0  0  0  0  0  0  0  0  0  0
   42.3560   34.3080   41.5010 H   0  0  0  0  0  0  0  0  0  0  0  0
   42.0680   32.5230   41.4520 H   0  0  0  0  0  0  0  0  0  0  0  0
   42.8000   33.4020   39.5870 C   0  0  0  0  0  0  0  0  0  0  0  0
   42.9220   34.4090   39.1930 H   0  0  0  0  0  0  0  0  0  0  0  0
   43.8150   32.9890   39.8210 H   0  0  0  0  0  0  0  0  0  0  0  0
   42.2230   33.9280   36.8460 N   0  0  0  0  0  0  0  0  0  0  0  0
   41.6030   32.9690   37.4730 C   0  0  0  0  0  0  0  0  0  0  0  0
   42.0600   32.4960   38.7300 N   0  0  0  0  0  0  0  0  0  0  0  0
   40.4540   32.4520   36.8060 N   0  0  0  0  0  0  0  0  0  0  0  0
   39.5960   33.0740   36.7570 H   0  0  0  0  0  0  0  0  0  0  0  0
   43.0720   34.3900   37.2250 H   0  0  0  0  0  0  0  0  0  0  0  0
   41.8320   31.5190   38.9550 H   0  0  0  0  0  0  0  0  0  0  0  0
   39.9940   31.6660   36.2800 H   0  0  0  0  0  0  0  0  0  0  0  0
  1  2  1  0  0  0  0
  2  8  1  0  0  0  0
  2  3  2  0  0  0  0
  3 30  1  0  0  0  0
  4  3  1  0  0  0  0
  5  4  2  0  0  0  0
  6  1  2  0  0  0  0
  6  5  1  0  0  0  0
  7  1  1  0  0  0  0
  9  5  1  0  0  0  0
  9 10  1  0  0  0  0
 11  9  1  0  0  0  0
 12  9  1  0  0  0  0
 12 14  1  0  0  0  0
 12 15  1  0  0  0  0
 13 12  1  0  0  0  0
 15 20  1  0  0  0  0
 16 15  2  0  0  0  0
 16 17  1  0  0  0  0
 17 18  2  0  0  0  0
 18 19  1  0  0  0  0
 18 23  1  0  0  0  0
 19 24  1  0  0  0  0
 20 27  1  0  0  0  0
 20 19  2  0  0  0  0
 21 16  1  0  0  0  0
 22 17  1  0  0  0  0
 25 28  1  0  0  0  0
 25 27  1  0  0  0  0
 26 25  2  0  0  0  0
 27 29  1  0  0  0  0
 30 32  1  0  0  0  0
 30 31  1  0  0  0  0
 33 35  1  0  0  0  0
 33 30  1  0  0  0  0
 34 33  1  0  0  0  0
 36 41  1  0  0  0  0
 36 37  2  0  0  0  0
 37 38  1  0  0  0  0
 38 42  1  0  0  0  0
 38 33  1  0  0  0  0
 39 37  1  0  0  0  0
 40 39  1  0  0  0  0
 43 39  1  0  0  0  0
M  END
>  <minimizedAffinity>
-5.93997478

$$$$

 OpenBabel03242511483D

 43 44  0  0  0  0  0  0  0  0999 V2000
   41.0800   28.0370   42.5590 C   0  0  0  0  0  0  0  0  0  0  0  0
   41.1020   29.4040   42.2410 C   0  0  0  0  0  0  0  0  0  0  0  0
   39.9310   30.0860   42.4510 C   0  0  0  0  0  0  0  0  0  0  0  0
   38.8340   29.4590   42.9350 N   0  0  0  0  0  0  0  0  0  0  0  0
   38.8790   28.1450   43.2200 C   0  0  0  0  0  0  0  0  0  0  0  0
   39.9730   27.4270   43.0420 N   0  0  0  0  0  0  0  0  0  0  0  0
   41.9890   27.4350   42.4090 H   0  0  0  0  0  0  0  0  0  0  0  0
   42.0250   29.8170   41.8620 H   0  0  0  0  0  0  0  0  0  0  0  0
   37.6600   27.5060   43.7480 C   0  0  0  0  0  0  0  0  0  0  0  0
   37.8370   26.5650   44.2760 H   0  0  0  0  0  0  0  0  0  0  0  0
   37.2300   28.2300   44.5020 H   0  0  0  0  0  0  0  0  0  0  0  0
   36.6720   27.3320   42.6250 C   0  0  0  0  0  0  0  0  0  0  0  0
   35.6240   27.3210   43.0190 H   0  0  0  0  0  0  0  0  0  0  0  0
   36.7010   28.2070   41.9210 H   0  0  0  0  0  0  0  0  0  0  0  0
   36.9290   26.1330   41.8580 C   0  0  0  0  0  0  0  0  0  0  0  0
   37.2250   24.8560   42.3110 C   0  0  0  0  0  0  0  0  0  0  0  0
   37.4520   23.7950   41.5050 C   0  0  0  0  0  0  0  0  0  0  0  0
   37.3840   23.9930   40.1420 C   0  0  0  0  0  0  0  0  0  0  0  0
   37.0940   25.2510   39.6750 C   0  0  0  0  0  0  0  0  0  0  0  0
   36.8660   26.3210   40.5210 C   0  0  0  0  0  0  0  0  0  0  0  0
   37.2630   24.7630   43.4080 H   0  0  0  0  0  0  0  0  0  0  0  0
   37.6740   22.8590   41.9860 H   0  0  0  0  0  0  0  0  0  0  0  0
   37.5760   23.0990   39.5380 H   0  0  0  0  0  0  0  0  0  0  0  0
   37.0800   25.2340   38.5700 H   0  0  0  0  0  0  0  0  0  0  0  0
   37.7590   28.2070   39.2910 C   0  0  0  0  0  0  0  0  0  0  0  0
   39.0440   28.1680   39.4590 O   0  0  0  0  0  0  0  0  0  0  0  0
   36.6020   27.4650   39.6970 N   0  0  0  0  0  0  0  0  0  0  0  0
   37.9020   29.0940   38.6750 H   0  0  0  0  0  0  0  0  0  0  0  0
   35.7530   27.8960   39.3120 H   0  0  0  0  0  0  0  0  0  0  0  0
   39.9160   31.5490   42.1260 C   0  0  0  0  0  0  0  0  0  0  0  0
   39.2000   32.0110   42.8260 H   0  0  0  0  0  0  0  0  0  0  0  0
   40.9290   31.9640   42.3000 H   0  0  0  0  0  0  0  0  0  0  0  0
   39.4580   31.7790   40.6910 C   0  0  0  0  0  0  0  0  0  0  0  0
   39.3430   32.8480   40.5240 H   0  0  0  0  0  0  0  0  0  0  0  0
   40.2530   31.3970   40.0000 H   0  0  0  0  0  0  0  0  0  0  0  0
   36.8750   32.9320   40.3450 N   0  0  0  0  0  0  0  0  0  0  0  0
   36.9940   31.6720   40.6560 C   0  0  0  0  0  0  0  0  0  0  0  0
   38.2410   31.0040   40.5540 N   0  0  0  0  0  0  0  0  0  0  0  0
   35.7940   31.0410   41.0960 N   0  0  0  0  0  0  0  0  0  0  0  0
   35.4180   31.3160   42.0500 H   0  0  0  0  0  0  0  0  0  0  0  0
   37.6730   33.5050   40.0110 H   0  0  0  0  0  0  0  0  0  0  0  0
   38.1980   29.9900   40.3860 H   0  0  0  0  0  0  0  0  0  0  0  0
   35.0140   30.3590   40.9140 H   0  0  0  0  0  0  0  0  0  0  0  0
  1  6  1  0  0  0  0
  2  3  1  0  0  0  0
  2  1  2  0  0  0  0
  3  4  2  0  0  0  0
  4  5  1  0  0  0  0
  5  9  1  0  0  0  0
  6  5  2  0  0  0  0
  7  1  1  0  0  0  0
  8  2  1  0  0  0  0
  9 10  1  0  0  0  0
  9 11  1  0  0  0  0
 12 13  1  0  0  0  0
 12  9  1  0  0  0  0
 14 12  1  0  0  0  0
 15 16  1  0  0  0  0
 15 12  1  0  0  0  0
 16 21  1  0  0  0  0
 17 22  1  0  0  0  0
 17 16  2  0  0  0  0
 18 17  1  0  0  0  0
 19 18  2  0  0  0  0
 19 20  1  0  0  0  0
 20 15  2  0  0  0  0
 23 18  1  0  0  0  0
 24 19  1  0  0  0  0
 25 26  2  0  0  0  0
 25 27  1  0  0  0  0
 27 20  1  0  0  0  0
 28 25  1  0  0  0  0
 29 27  1  0  0  0  0
 30 32  1  0  0  0  0
 30  3  1  0  0  0  0
 30 31  1  0  0  0  0
 33 30  1  0  0  0  0
 34 33  1  0  0  0  0
 35 33  1  0  0  0  0
 36 37  2  0  0  0  0
 37 39  1  0  0  0  0
 38 37  1  0  0  0  0
 38 33  1  0  0  0  0
 39 40  1  0  0  0  0
 41 36  1  0  0  0  0
 42 38  1  0  0  0  0
 43 39  1  0  0  0  0
M  END
>  <minimizedAffinity>
-5.68234968

$$$$

 OpenBabel03242511483D

 43 44  0  0  0  0  0  0  0  0999 V2000
   41.5550   31.6430   37.1800 C   0  0  0  0  0  0  0  0  0  0  0  0
   41.5510   32.9740   37.6240 C   0  0  0  0  0  0  0  0  0  0  0  0
   40.9400   33.2010   38.8310 C   0  0  0  0  0  0  0  0  0  0  0  0
   40.3820   32.1880   39.5330 N   0  0  0  0  0  0  0  0  0  0  0  0
   40.4200   30.9320   39.0510 C   0  0  0  0  0  0  0  0  0  0  0  0
   40.9920   30.6430   37.8970 N   0  0  0  0  0  0  0  0  0  0  0  0
   42.0280   31.3990   36.2170 H   0  0  0  0  0  0  0  0  0  0  0  0
   42.0220   33.7150   36.9970 H   0  0  0  0  0  0  0  0  0  0  0  0
   39.8020   29.8600   39.8530 C   0  0  0  0  0  0  0  0  0  0  0  0
   38.8800   29.4540   39.4270 H   0  0  0  0  0  0  0  0  0  0  0  0
   40.5530   29.0160   39.8780 H   0  0  0  0  0  0  0  0  0  0  0  0
   39.5880   30.3600   41.2580 C   0  0  0  0  0  0  0  0  0  0  0  0
   40.5300   30.8100   41.6640 H   0  0  0  0  0  0  0  0  0  0  0  0
   38.8420   31.1990   41.2800 H   0  0  0  0  0  0  0  0  0  0  0  0
   39.1130   29.3160   42.1380 C   0  0  0  0  0  0  0  0  0  0  0  0
   39.8210   28.2720   42.7140 C   0  0  0  0  0  0  0  0  0  0  0  0
   39.2770   27.3400   43.5280 C   0  0  0  0  0  0  0  0  0  0  0  0
   37.9300   27.4320   43.8060 C   0  0  0  0  0  0  0  0  0  0  0  0
   37.2110   28.4580   43.2430 C   0  0  0  0  0  0  0  0  0  0  0  0
   37.7910   29.3990   42.4120 C   0  0  0  0  0  0  0  0  0  0  0  0
   40.8910   28.2550   42.4540 H   0  0  0  0  0  0  0  0  0  0  0  0
   39.9390   26.5810   43.9060 H   0  0  0  0  0  0  0  0  0  0  0  0
   37.5440   26.6510   44.4700 H   0  0  0  0  0  0  0  0  0  0  0  0
   36.1570   28.3830   43.5660 H   0  0  0  0  0  0  0  0  0  0  0  0
   36.0130   29.9100   40.8490 C   0  0  0  0  0  0  0  0  0  0  0  0
   35.9960   28.9350   39.9950 O   0  0  0  0  0  0  0  0  0  0  0  0
   36.7550   30.3060   42.0100 N   0  0  0  0  0  0  0  0  0  0  0  0
   35.1810   30.3550   40.3050 H   0  0  0  0  0  0  0  0  0  0  0  0
   36.4030   31.2020   42.3660 H   0  0  0  0  0  0  0  0  0  0  0  0
   40.9180   34.6100   39.3410 C   0  0  0  0  0  0  0  0  0  0  0  0
   41.9440   34.8300   39.6800 H   0  0  0  0  0  0  0  0  0  0  0  0
   40.6470   35.2880   38.5060 H   0  0  0  0  0  0  0  0  0  0  0  0
   39.9460   34.7470   40.5070 C   0  0  0  0  0  0  0  0  0  0  0  0
   39.8940   33.7990   41.0370 H   0  0  0  0  0  0  0  0  0  0  0  0
   40.3440   35.5240   41.2100 H   0  0  0  0  0  0  0  0  0  0  0  0
   37.5330   33.2340   40.5890 N   0  0  0  0  0  0  0  0  0  0  0  0
   37.6430   34.2460   39.7770 C   0  0  0  0  0  0  0  0  0  0  0  0
   38.7000   35.1840   39.9100 N   0  0  0  0  0  0  0  0  0  0  0  0
   36.6380   34.3280   38.7690 N   0  0  0  0  0  0  0  0  0  0  0  0
   36.6670   33.6060   37.9910 H   0  0  0  0  0  0  0  0  0  0  0  0
   38.2000   33.0620   41.3660 H   0  0  0  0  0  0  0  0  0  0  0  0
   38.5060   36.1350   39.5660 H   0  0  0  0  0  0  0  0  0  0  0  0
   35.7880   34.8080   38.3800 H   0  0  0  0  0  0  0  0  0  0  0  0
  1  2  2  0  0  0  0
  1  6  1  0  0  0  0
  2  3  1  0  0  0  0
  3 30  1  0  0  0  0
  3  4  2  0  0  0  0
  5  4  1  0  0  0  0
  5  9  1  0  0  0  0
  6  5  2  0  0  0  0
  7  1  1  0  0  0  0
  8  2  1  0  0  0  0
  9 11  1  0  0  0  0
  9 12  1  0  0  0  0
 10  9  1  0  0  0  0
 12 14  1  0  0  0  0
 12 13  1  0  0  0  0
 12 15  1  0  0  0  0
 15 20  2  0  0  0  0
 15 16  1  0  0  0  0
 16 17  2  0  0  0  0
 17 18  1  0  0  0  0
 17 22  1  0  0  0  0
 18 23  1  0  0  0  0
 19 24  1  0  0  0  0
 19 18  2  0  0  0  0
 20 19  1  0  0  0  0
 21 16  1  0  0  0  0
 25 27  1  0  0  0  0
 26 25  2  0  0  0  0
 27 29  1  0  0  0  0
 27 20  1  0  0  0  0
 28 25  1  0  0  0  0
 30 31  1  0  0  0  0
 30 33  1  0  0  0  0
 32 30  1  0  0  0  0
 33 34  1  0  0  0  0
 33 35  1  0  0  0  0
 36 41  1  0  0  0  0
 37 38  1  0  0  0  0
 37 36  2  0  0  0  0
 38 33  1  0  0  0  0
 39 37  1  0  0  0  0
 40 39  1  0  0  0  0
 42 38  1  0  0  0  0
 43 39  1  0  0  0  0
M  END
>  <minimizedAffinity>
-5.6587472

$$$$

 OpenBabel03242511483D

 43 44  0  0  0  0  0  0  0  0999 V2000
   36.2010   28.7580   36.5450 C   0  0  0  0  0  0  0  0  0  0  0  0
   36.9480   29.9330   36.3720 C   0  0  0  0  0  0  0  0  0  0  0  0
   37.2750   30.6100   37.5190 C   0  0  0  0  0  0  0  0  0  0  0  0
   36.8900   30.1530   38.7340 N   0  0  0  0  0  0  0  0  0  0  0  0
   36.1740   29.0170   38.8320 C   0  0  0  0  0  0  0  0  0  0  0  0
   35.8250   28.3170   37.7680 N   0  0  0  0  0  0  0  0  0  0  0  0
   35.9060   28.1730   35.6610 H   0  0  0  0  0  0  0  0  0  0  0  0
   37.2110   30.2180   35.3650 H   0  0  0  0  0  0  0  0  0  0  0  0
   35.7800   28.5570   40.1760 C   0  0  0  0  0  0  0  0  0  0  0  0
   35.9590   29.2860   40.9710 H   0  0  0  0  0  0  0  0  0  0  0  0
   34.6640   28.3860   40.1320 H   0  0  0  0  0  0  0  0  0  0  0  0
   36.4620   27.2450   40.4640 C   0  0  0  0  0  0  0  0  0  0  0  0
   35.7230   26.4040   40.4420 H   0  0  0  0  0  0  0  0  0  0  0  0
   37.2050   26.9900   39.6620 H   0  0  0  0  0  0  0  0  0  0  0  0
   37.1590   27.2650   41.7310 C   0  0  0  0  0  0  0  0  0  0  0  0
   36.7630   27.8260   42.9360 C   0  0  0  0  0  0  0  0  0  0  0  0
   37.4950   27.7890   44.0710 C   0  0  0  0  0  0  0  0  0  0  0  0
   38.7180   27.1530   44.0310 C   0  0  0  0  0  0  0  0  0  0  0  0
   39.1280   26.5920   42.8460 C   0  0  0  0  0  0  0  0  0  0  0  0
   38.3600   26.6440   41.6980 C   0  0  0  0  0  0  0  0  0  0  0  0
   35.7780   28.3180   42.9020 H   0  0  0  0  0  0  0  0  0  0  0  0
   37.0720   28.2660   44.9370 H   0  0  0  0  0  0  0  0  0  0  0  0
   39.2670   27.1540   44.9780 H   0  0  0  0  0  0  0  0  0  0  0  0
   40.1210   26.1290   42.9880 H   0  0  0  0  0  0  0  0  0  0  0  0
   38.9350   24.5460   40.6310 C   0  0  0  0  0  0  0  0  0  0  0  0
   38.3050   23.6250   41.2910 O   0  0  0  0  0  0  0  0  0  0  0  0
   39.0940   25.9700   40.6650 N   0  0  0  0  0  0  0  0  0  0  0  0
   39.3340   23.7630   39.9880 H   0  0  0  0  0  0  0  0  0  0  0  0
   39.7290   26.2730   39.9170 H   0  0  0  0  0  0  0  0  0  0  0  0
   38.0750   31.8680   37.3760 C   0  0  0  0  0  0  0  0  0  0  0  0
   38.0220   32.1450   36.3100 H   0  0  0  0  0  0  0  0  0  0  0  0
   37.6060   32.6620   37.9920 H   0  0  0  0  0  0  0  0  0  0  0  0
   39.5260   31.6350   37.7780 C   0  0  0  0  0  0  0  0  0  0  0  0
   39.6400   31.8620   38.8370 H   0  0  0  0  0  0  0  0  0  0  0  0
   39.7690   30.5530   37.6210 H   0  0  0  0  0  0  0  0  0  0  0  0
   42.3410   32.0120   38.0110 N   0  0  0  0  0  0  0  0  0  0  0  0
   41.6360   32.7990   37.2490 C   0  0  0  0  0  0  0  0  0  0  0  0
   40.3040   32.4720   36.8860 N   0  0  0  0  0  0  0  0  0  0  0  0
   42.3010   33.9870   36.8240 N   0  0  0  0  0  0  0  0  0  0  0  0
   42.4800   34.7350   37.5560 H   0  0  0  0  0  0  0  0  0  0  0  0
   41.9740   31.1170   38.3870 H   0  0  0  0  0  0  0  0  0  0  0  0
   39.9710   32.8590   35.9930 H   0  0  0  0  0  0  0  0  0  0  0  0
   42.7490   34.5430   36.0530 H   0  0  0  0  0  0  0  0  0  0  0  0
  1  6  1  0  0  0  0
  2  1  2  0  0  0  0
  2  3  1  0  0  0  0
  3  4  2  0  0  0  0
  4  5  1  0  0  0  0
  5  9  1  0  0  0  0
  6  5  2  0  0  0  0
  7  1  1  0  0  0  0
  8  2  1  0  0  0  0
  9 12  1  0  0  0  0
  9 10  1  0  0  0  0
 11  9  1  0  0  0  0
 12 15  1  0  0  0  0
 13 12  1  0  0  0  0
 14 12  1  0  0  0  0
 15 16  1  0  0  0  0
 16 17  2  0  0  0  0
 17 22  1  0  0  0  0
 18 17  1  0  0  0  0
 18 23  1  0  0  0  0
 19 24  1  0  0  0  0
 19 18  2  0  0  0  0
 20 15  2  0  0  0  0
 20 19  1  0  0  0  0
 21 16  1  0  0  0  0
 25 27  1  0  0  0  0
 25 26  2  0  0  0  0
 27 20  1  0  0  0  0
 28 25  1  0  0  0  0
 29 27  1  0  0  0  0
 30  3  1  0  0  0  0
 30 33  1  0  0  0  0
 30 32  1  0  0  0  0
 31 30  1  0  0  0  0
 33 34  1  0  0  0  0
 35 33  1  0  0  0  0
 36 41  1  0  0  0  0
 37 36  2  0  0  0  0
 38 37  1  0  0  0  0
 38 33  1  0  0  0  0
 39 37  1  0  0  0  0
 39 40  1  0  0  0  0
 42 38  1  0  0  0  0
 43 39  1  0  0  0  0
M  END
>  <minimizedAffinity>
-5.65658951

$$$$

 OpenBabel03242511483D

 43 44  0  0  0  0  0  0  0  0999 V2000
   42.0840   31.9080   39.4790 C   0  0  0  0  0  0  0  0  0  0  0  0
   41.0530   32.8330   39.2500 C   0  0  0  0  0  0  0  0  0  0  0  0
   40.0530   32.8590   40.1880 C   0  0  0  0  0  0  0  0  0  0  0  0
   40.0790   32.0340   41.2610 N   0  0  0  0  0  0  0  0  0  0  0  0
   41.0970   31.1690   41.4220 C   0  0  0  0  0  0  0  0  0  0  0  0
   42.0920   31.0910   40.5580 N   0  0  0  0  0  0  0  0  0  0  0  0
   42.9130   31.8370   38.7600 H   0  0  0  0  0  0  0  0  0  0  0  0
   41.1190   33.4510   38.3680 H   0  0  0  0  0  0  0  0  0  0  0  0
   41.0830   30.2930   42.6080 C   0  0  0  0  0  0  0  0  0  0  0  0
   41.9500   29.6310   42.6890 H   0  0  0  0  0  0  0  0  0  0  0  0
   41.1080   30.9800   43.5040 H   0  0  0  0  0  0  0  0  0  0  0  0
   39.7920   29.5170   42.6290 C   0  0  0  0  0  0  0  0  0  0  0  0
   39.0660   29.9790   43.3450 H   0  0  0  0  0  0  0  0  0  0  0  0
   39.2750   29.5630   41.6320 H   0  0  0  0  0  0  0  0  0  0  0  0
   40.0020   28.1250   42.9590 C   0  0  0  0  0  0  0  0  0  0  0  0
   41.0560   27.5410   43.6460 C   0  0  0  0  0  0  0  0  0  0  0  0
   41.1590   26.2190   43.9040 C   0  0  0  0  0  0  0  0  0  0  0  0
   40.1500   25.3930   43.4550 C   0  0  0  0  0  0  0  0  0  0  0  0
   39.0990   25.9520   42.7720 C   0  0  0  0  0  0  0  0  0  0  0  0
   39.0170   27.3090   42.5200 C   0  0  0  0  0  0  0  0  0  0  0  0
   41.8280   28.2540   43.9780 H   0  0  0  0  0  0  0  0  0  0  0  0
   42.0310   25.8970   44.4440 H   0  0  0  0  0  0  0  0  0  0  0  0
   40.2860   24.3320   43.6920 H   0  0  0  0  0  0  0  0  0  0  0  0
   38.3870   25.1560   42.4860 H   0  0  0  0  0  0  0  0  0  0  0  0
   36.6100   27.5790   42.5810 C   0  0  0  0  0  0  0  0  0  0  0  0
   36.2690   27.4620   43.8270 O   0  0  0  0  0  0  0  0  0  0  0  0
   37.8040   27.5330   41.7880 N   0  0  0  0  0  0  0  0  0  0  0  0
   35.5590   27.7360   42.3440 H   0  0  0  0  0  0  0  0  0  0  0  0
   37.5750   27.6740   40.7970 H   0  0  0  0  0  0  0  0  0  0  0  0
   38.9360   33.8360   39.9800 C   0  0  0  0  0  0  0  0  0  0  0  0
   38.6910   34.2380   40.9770 H   0  0  0  0  0  0  0  0  0  0  0  0
   39.2950   34.6550   39.3250 H   0  0  0  0  0  0  0  0  0  0  0  0
   37.7150   33.1430   39.3870 C   0  0  0  0  0  0  0  0  0  0  0  0
   37.1850   33.8460   38.7490 H   0  0  0  0  0  0  0  0  0  0  0  0
   38.0660   32.2860   38.7550 H   0  0  0  0  0  0  0  0  0  0  0  0
   37.5120   30.3950   40.1160 N   0  0  0  0  0  0  0  0  0  0  0  0
   36.7080   31.2730   40.6440 C   0  0  0  0  0  0  0  0  0  0  0  0
   36.9610   32.6650   40.5290 N   0  0  0  0  0  0  0  0  0  0  0  0
   35.5810   30.7300   41.3280 N   0  0  0  0  0  0  0  0  0  0  0  0
   34.8210   30.2810   40.7370 H   0  0  0  0  0  0  0  0  0  0  0  0
   38.3690   30.6610   39.5930 H   0  0  0  0  0  0  0  0  0  0  0  0
   36.5850   33.2560   41.2820 H   0  0  0  0  0  0  0  0  0  0  0  0
   35.0820   30.5370   42.2330 H   0  0  0  0  0  0  0  0  0  0  0  0
  1  6  1  0  0  0  0
  2  1  2  0  0  0  0
  2  3  1  0  0  0  0
  3  4  2  0  0  0  0
  4  5  1  0  0  0  0
  5  9  1  0  0  0  0
  6  5  2  0  0  0  0
  7  1  1  0  0  0  0
  8  2  1  0  0  0  0
  9 12  1  0  0  0  0
  9 10  1  0  0  0  0
  9 11  1  0  0  0  0
 12 15  1  0  0  0  0
 12 13  1  0  0  0  0
 14 12  1  0  0  0  0
 15 16  1  0  0  0  0
 16 17  2  0  0  0  0
 16 21  1  0  0  0  0
 17 22  1  0  0  0  0
 18 23  1  0  0  0  0
 18 17  1  0  0  0  0
 19 18  2  0  0  0  0
 20 19  1  0  0  0  0
 20 15  2  0  0  0  0
 24 19  1  0  0  0  0
 25 26  2  0  0  0  0
 27 20  1  0  0  0  0
 27 25  1  0  0  0  0
 28 25  1  0  0  0  0
 29 27  1  0  0  0  0
 30  3  1  0  0  0  0
 30 31  1  0  0  0  0
 32 30  1  0  0  0  0
 33 30  1  0  0  0  0
 33 38  1  0  0  0  0
 34 33  1  0  0  0  0
 35 33  1  0  0  0  0
 36 37  2  0  0  0  0
 37 39  1  0  0  0  0
 38 37  1  0  0  0  0
 38 42  1  0  0  0  0
 39 43  1  0  0  0  0
 40 39  1  0  0  0  0
 41 36  1  0  0  0  0
M  END
>  <minimizedAffinity>
-5.64710951

$$$$

 OpenBabel03242511483D

 43 44  0  0  0  0  0  0  0  0999 V2000
   40.9590   27.1100   43.5090 C   0  0  0  0  0  0  0  0  0  0  0  0
   39.5700   26.9630   43.6460 C   0  0  0  0  0  0  0  0  0  0  0  0
   38.8150   28.0530   43.2970 C   0  0  0  0  0  0  0  0  0  0  0  0
   39.3960   29.1920   42.8510 N   0  0  0  0  0  0  0  0  0  0  0  0
   40.7350   29.2680   42.7420 C   0  0  0  0  0  0  0  0  0  0  0  0
   41.5220   28.2570   43.0610 N   0  0  0  0  0  0  0  0  0  0  0  0
   41.6180   26.2710   43.7770 H   0  0  0  0  0  0  0  0  0  0  0  0
   39.1980   26.0170   44.0090 H   0  0  0  0  0  0  0  0  0  0  0  0
   41.3210   30.5280   42.2490 C   0  0  0  0  0  0  0  0  0  0  0  0
   41.8950   31.0810   42.9970 H   0  0  0  0  0  0  0  0  0  0  0  0
   42.0430   30.2350   41.4300 H   0  0  0  0  0  0  0  0  0  0  0  0
   40.2290   31.3760   41.6520 C   0  0  0  0  0  0  0  0  0  0  0  0
   39.2270   30.9030   41.8170 H   0  0  0  0  0  0  0  0  0  0  0  0
   40.1610   32.3710   42.1670 H   0  0  0  0  0  0  0  0  0  0  0  0
   40.4410   31.6160   40.2410 C   0  0  0  0  0  0  0  0  0  0  0  0
   40.4690   30.7060   39.1960 C   0  0  0  0  0  0  0  0  0  0  0  0
   40.6770   31.0360   37.9020 C   0  0  0  0  0  0  0  0  0  0  0  0
   40.8740   32.3670   37.5990 C   0  0  0  0  0  0  0  0  0  0  0  0
   40.8510   33.2840   38.6210 C   0  0  0  0  0  0  0  0  0  0  0  0
   40.6360   32.9190   39.9380 C   0  0  0  0  0  0  0  0  0  0  0  0
   40.3040   29.6610   39.5040 H   0  0  0  0  0  0  0  0  0  0  0  0
   40.6770   30.2300   37.1900 H   0  0  0  0  0  0  0  0  0  0  0  0
   41.0380   32.5760   36.5360 H   0  0  0  0  0  0  0  0  0  0  0  0
   41.0260   34.2930   38.2070 H   0  0  0  0  0  0  0  0  0  0  0  0
   39.5060   34.9340   40.6670 C   0  0  0  0  0  0  0  0  0  0  0  0
   38.3480   34.9250   40.0830 O   0  0  0  0  0  0  0  0  0  0  0  0
   40.6840   34.1190   40.7230 N   0  0  0  0  0  0  0  0  0  0  0  0
   39.2220   35.8740   41.1380 H   0  0  0  0  0  0  0  0  0  0  0  0
   41.3830   34.5510   41.3380 H   0  0  0  0  0  0  0  0  0  0  0  0
   37.3270   27.9340   43.4270 C   0  0  0  0  0  0  0  0  0  0  0  0
   37.1200   26.8660   43.6120 H   0  0  0  0  0  0  0  0  0  0  0  0
   36.9950   28.5350   44.2970 H   0  0  0  0  0  0  0  0  0  0  0  0
   36.6350   28.3800   42.1450 C   0  0  0  0  0  0  0  0  0  0  0  0
   37.1680   27.9630   41.2920 H   0  0  0  0  0  0  0  0  0  0  0  0
   35.5920   27.9720   42.1440 H   0  0  0  0  0  0  0  0  0  0  0  0
   35.2440   30.0360   40.2880 N   0  0  0  0  0  0  0  0  0  0  0  0
   36.1270   30.5540   41.0930 C   0  0  0  0  0  0  0  0  0  0  0  0
   36.6220   29.8280   42.2080 N   0  0  0  0  0  0  0  0  0  0  0  0
   36.5440   31.8770   40.7660 N   0  0  0  0  0  0  0  0  0  0  0  0
   37.1510   31.9990   39.9040 H   0  0  0  0  0  0  0  0  0  0  0  0
   34.8600   29.0800   40.4170 H   0  0  0  0  0  0  0  0  0  0  0  0
   36.9440   30.3910   43.0060 H   0  0  0  0  0  0  0  0  0  0  0  0
   36.5410   32.9050   40.9880 H   0  0  0  0  0  0  0  0  0  0  0  0
  1  2  1  0  0  0  0
  1  7  1  0  0  0  0
  2  8  1  0  0  0  0
  3 30  1  0  0  0  0
  3  2  2  0  0  0  0
  4  3  1  0  0  0  0
  5  4  2  0  0  0  0
  5  6  1  0  0  0  0
  6  1  2  0  0  0  0
  9  5  1  0  0  0  0
  9 10  1  0  0  0  0
 11  9  1  0  0  0  0
 12 13  1  0  0  0  0
 12 14  1  0  0  0  0
 12  9  1  0  0  0  0
 15 12  1  0  0  0  0
 16 21  1  0  0  0  0
 16 15  2  0  0  0  0
 17 16  1  0  0  0  0
 18 17  2  0  0  0  0
 18 19  1  0  0  0  0
 19 20  2  0  0  0  0
 20 15  1  0  0  0  0
 20 27  1  0  0  0  0
 22 17  1  0  0  0  0
 23 18  1  0  0  0  0
 24 19  1  0  0  0  0
 25 27  1  0  0  0  0
 25 28  1  0  0  0  0
 26 25  2  0  0  0  0
 27 29  1  0  0  0  0
 30 31  1  0  0  0  0
 30 32  1  0  0  0  0
 33 38  1  0  0  0  0
 33 30  1  0  0  0  0
 34 33  1  0  0  0  0
 35 33  1  0  0  0  0
 36 41  1  0  0  0  0
 36 37  2  0  0  0  0
 37 38  1  0  0  0  0
 38 42  1  0  0  0  0
 39 43  1  0  0  0  0
 39 37  1  0  0  0  0
 40 39  1  0  0  0  0
M  END
>  <minimizedAffinity>
-5.6222744

$$$$
