
 OpenBabel03252508253D

 40 43  0  0  1  0  0  0  0  0999 V2000
   46.4640   32.4970   45.9310 C   0  0  1  0  0  0  0  0  0  0  0  0
   46.9890   32.6770   47.2920 C   0  0  0  0  0  0  0  0  0  0  0  0
   45.5680   32.0580   46.9860 C   0  0  2  0  0  0  0  0  0  0  0  0
   47.2410   31.8470   45.3980 H   0  0  0  0  0  0  0  0  0  0  0  0
   47.0240   33.6680   47.7730 H   0  0  0  0  0  0  0  0  0  0  0  0
   47.5960   31.9330   47.8250 H   0  0  0  0  0  0  0  0  0  0  0  0
   44.9110   32.7580   47.5800 H   0  0  0  0  0  0  0  0  0  0  0  0
   45.2930   30.6610   47.3390 C   0  0  0  0  0  0  0  0  0  0  0  0
   45.1570   30.1330   48.5850 C   0  0  0  0  0  0  0  0  0  0  0  0
   45.0170   28.7900   48.8870 C   0  0  0  0  0  0  0  0  0  0  0  0
   45.0190   27.9030   47.7980 C   0  0  0  0  0  0  0  0  0  0  0  0
   45.1550   28.4160   46.5080 C   0  0  0  0  0  0  0  0  0  0  0  0
   45.0900   27.5130   45.4650 C   0  0  0  0  0  0  0  0  0  0  0  0
   45.1510   27.9830   44.1600 C   0  0  0  0  0  0  0  0  0  0  0  0
   45.2720   29.3340   43.9050 C   0  0  0  0  0  0  0  0  0  0  0  0
   45.3340   30.1890   44.9800 C   0  0  0  0  0  0  0  0  0  0  0  0
   45.2860   29.7690   46.2950 C   0  0  0  0  0  0  0  0  0  0  0  0
   45.1610   30.8620   49.3960 H   0  0  0  0  0  0  0  0  0  0  0  0
   44.9130   28.4580   49.9040 H   0  0  0  0  0  0  0  0  0  0  0  0
   44.9170   26.8440   47.9810 H   0  0  0  0  0  0  0  0  0  0  0  0
   44.9930   26.4490   45.6950 H   0  0  0  0  0  0  0  0  0  0  0  0
   45.0930   27.1770   43.4140 H   0  0  0  0  0  0  0  0  0  0  0  0
   45.2980   29.4980   42.8490 H   0  0  0  0  0  0  0  0  0  0  0  0
   45.3370   31.1440   44.5390 H   0  0  0  0  0  0  0  0  0  0  0  0
   44.6940   35.5100   44.7410 C   0  0  0  0  0  0  0  0  0  0  0  0
   45.3570   35.7780   43.4900 C   0  0  0  0  0  0  0  0  0  0  0  0
   46.4060   34.9070   43.1110 C   0  0  0  0  0  0  0  0  0  0  0  0
   46.7290   33.8960   43.9130 N   0  0  0  0  0  0  0  0  0  0  0  0
   46.0780   33.6700   45.0930 C   0  0  0  0  0  0  0  0  0  0  0  0
   45.0860   34.4600   45.4930 N   0  0  0  0  0  0  0  0  0  0  0  0
   43.8950   36.1950   45.0020 H   0  0  0  0  0  0  0  0  0  0  0  0
   45.0460   36.5940   42.9010 H   0  0  0  0  0  0  0  0  0  0  0  0
   45.6740   34.1730   40.4230 N   0  0  0  0  0  0  0  0  0  0  0  0
   46.9420   34.3450   40.7230 C   0  0  0  0  0  0  0  0  0  0  0  0
   47.1180   35.1000   41.8980 N   0  0  0  0  0  0  0  0  0  0  0  0
   48.1020   33.8740   40.0150 N   0  0  0  0  0  0  0  0  0  0  0  0
   48.6360   34.0730   39.1280 H   0  0  0  0  0  0  0  0  0  0  0  0
   45.4740   33.6240   39.5640 H   0  0  0  0  0  0  0  0  0  0  0  0
   47.8500   35.8760   41.8840 H   0  0  0  0  0  0  0  0  0  0  0  0
   48.7170   33.0840   40.3730 H   0  0  0  0  0  0  0  0  0  0  0  0
  1  4  1  6  0  0  0
  1  3  1  0  0  0  0
  1  2  1  0  0  0  0
  2  5  1  0  0  0  0
  2  6  1  0  0  0  0
  3  2  1  0  0  0  0
  3  8  1  0  0  0  0
  3  7  1  1  0  0  0
  8  9  1  0  0  0  0
  9 10  2  0  0  0  0
  9 18  1  0  0  0  0
 10 19  1  0  0  0  0
 11 20  1  0  0  0  0
 11 10  1  0  0  0  0
 12 11  2  0  0  0  0
 13 21  1  0  0  0  0
 13 12  1  0  0  0  0
 14 13  2  0  0  0  0
 15 14  1  0  0  0  0
 15 16  2  0  0  0  0
 16 17  1  0  0  0  0
 17 12  1  0  0  0  0
 17  8  2  0  0  0  0
 22 14  1  0  0  0  0
 23 15  1  0  0  0  0
 24 16  1  0  0  0  0
 25 31  1  0  0  0  0
 25 30  1  0  0  0  0
 26 25  2  0  0  0  0
 27 26  1  0  0  0  0
 27 28  2  0  0  0  0
 28 29  1  0  0  0  0
 29 30  2  0  0  0  0
 29  1  1  0  0  0  0
 32 26  1  0  0  0  0
 33 34  2  0  0  0  0
 34 35  1  0  0  0  0
 35 27  1  0  0  0  0
 36 40  1  0  0  0  0
 36 34  1  0  0  0  0
 37 36  1  0  0  0  0
 38 33  1  0  0  0  0
 39 35  1  0  0  0  0
M  END
>  <minimizedAffinity>
-5.43087673

>  <minimizedRMSD>
0.669475198

$$$$
