
 OpenBabel03242519313D

 47 49  0  0  0  0  0  0  0  0999 V2000
   47.9110   33.8410   42.8530 C   0  0  0  0  0  0  0  0  0  0  0  0
   48.5770   35.0840   42.6460 C   0  0  0  0  0  0  0  0  0  0  0  0
   49.9430   35.1040   42.3340 C   0  0  0  0  0  0  0  0  0  0  0  0
   50.5700   33.8850   42.2480 N   0  0  0  0  0  0  0  0  0  0  0  0
   49.8820   32.7110   42.4590 C   0  0  0  0  0  0  0  0  0  0  0  0
   48.5980   32.7180   42.7490 N   0  0  0  0  0  0  0  0  0  0  0  0
   48.1530   36.0790   42.6960 H   0  0  0  0  0  0  0  0  0  0  0  0
   50.4930   35.9970   42.1680 H   0  0  0  0  0  0  0  0  0  0  0  0
   46.4870   33.9630   43.1760 C   0  0  0  0  0  0  0  0  0  0  0  0
   45.7760   34.9680   42.4270 C   0  0  0  0  0  0  0  0  0  0  0  0
   45.3050   36.1210   43.2250 C   0  0  0  0  0  0  0  0  0  0  0  0
   44.4310   35.6430   44.3990 C   0  0  0  0  0  0  0  0  0  0  0  0
   44.9890   34.4680   45.1180 C   0  0  0  0  0  0  0  0  0  0  0  0
   46.4320   34.1980   44.7220 C   0  0  0  0  0  0  0  0  0  0  0  0
   46.0330   32.9320   43.0870 H   0  0  0  0  0  0  0  0  0  0  0  0
   46.3670   35.3620   41.5750 H   0  0  0  0  0  0  0  0  0  0  0  0
   44.8590   34.5070   41.9590 H   0  0  0  0  0  0  0  0  0  0  0  0
   46.0510   36.8130   43.6040 H   0  0  0  0  0  0  0  0  0  0  0  0
   44.6150   36.7350   42.5820 H   0  0  0  0  0  0  0  0  0  0  0  0
   44.2970   36.5550   45.0370 H   0  0  0  0  0  0  0  0  0  0  0  0
   43.4010   35.4320   43.9890 H   0  0  0  0  0  0  0  0  0  0  0  0
   44.9860   34.5820   46.2080 H   0  0  0  0  0  0  0  0  0  0  0  0
   44.4190   33.5490   44.8280 H   0  0  0  0  0  0  0  0  0  0  0  0
   46.8180   33.3250   45.2520 H   0  0  0  0  0  0  0  0  0  0  0  0
   47.0550   35.1000   44.9070 H   0  0  0  0  0  0  0  0  0  0  0  0
   50.7150   31.5210   42.3290 C   0  0  0  0  0  0  0  0  0  0  0  0
   51.3360   31.2780   41.1630 N   0  0  0  0  0  0  0  0  0  0  0  0
   52.0490   30.1260   41.2690 C   0  0  0  0  0  0  0  0  0  0  0  0
   51.8560   29.6680   42.5210 N   0  0  0  0  0  0  0  0  0  0  0  0
   51.0490   30.5070   43.1710 N   0  0  0  0  0  0  0  0  0  0  0  0
   52.6660   29.6470   40.5040 H   0  0  0  0  0  0  0  0  0  0  0  0
   52.4270   28.4850   43.1180 C   0  0  0  0  0  0  0  0  0  0  0  0
   51.7880   28.1940   43.9990 H   0  0  0  0  0  0  0  0  0  0  0  0
   52.4480   27.6210   42.4750 H   0  0  0  0  0  0  0  0  0  0  0  0
   53.7580   28.7950   43.6410 C   0  0  0  0  0  3  0  0  0  0  0  0
   54.2170   29.6010   44.5830 C   0  0  0  0  0  3  0  0  0  0  0  0
   55.6650   29.7460   45.0770 C   0  0  0  0  0  0  0  0  0  0  0  0
   55.6770   29.8720   46.1720 H   0  0  0  0  0  0  0  0  0  0  0  0
   56.0370   30.6200   44.5270 H   0  0  0  0  0  0  0  0  0  0  0  0
   56.5360   27.6140   46.7750 N   0  0  0  0  0  0  0  0  0  0  0  0
   56.6940   27.4770   45.5160 C   0  0  0  0  0  0  0  0  0  0  0  0
   56.4220   28.5940   44.6570 N   0  0  0  0  0  0  0  0  0  0  0  0
   57.1280   26.2500   44.9430 N   0  0  0  0  0  0  0  0  0  0  0  0
   56.4410   25.5060   44.6390 H   0  0  0  0  0  0  0  0  0  0  0  0
   56.2170   28.5200   47.1740 H   0  0  0  0  0  0  0  0  0  0  0  0
   56.8190   28.5170   43.6830 H   0  0  0  0  0  0  0  0  0  0  0  0
   57.8880   25.6160   44.6210 H   0  0  0  0  0  0  0  0  0  0  0  0
  1  9  1  0  0  0  0
  2  7  1  0  0  0  0
  2  1  2  0  0  0  0
  3  2  1  0  0  0  0
  4  3  2  0  0  0  0
  4  5  1  0  0  0  0
  5  6  2  0  0  0  0
  6  1  1  0  0  0  0
  8  3  1  0  0  0  0
  9 14  1  0  0  0  0
 10  9  1  0  0  0  0
 10 11  1  0  0  0  0
 11 18  1  0  0  0  0
 11 12  1  0  0  0  0
 12 20  1  0  0  0  0
 12 13  1  0  0  0  0
 13 22  1  0  0  0  0
 14 25  1  0  0  0  0
 14 13  1  0  0  0  0
 14 24  1  0  0  0  0
 15  9  1  0  0  0  0
 16 10  1  0  0  0  0
 17 10  1  0  0  0  0
 19 11  1  0  0  0  0
 21 12  1  0  0  0  0
 23 13  1  0  0  0  0
 26  5  1  0  0  0  0
 26 30  2  0  0  0  0
 27 28  2  0  0  0  0
 27 26  1  0  0  0  0
 28 29  1  0  0  0  0
 29 32  1  0  0  0  0
 29 30  1  0  0  0  0
 31 28  1  0  0  0  0
 32 35  1  0  0  0  0
 32 33  1  0  0  0  0
 34 32  1  0  0  0  0
 35 36  2  0  0  0  0
 36 37  1  0  0  0  0
 37 38  1  0  0  0  0
 39 37  1  0  0  0  0
 40 45  1  0  0  0  0
 41 40  2  0  0  0  0
 42 37  1  0  0  0  0
 42 41  1  0  0  0  0
 43 41  1  0  0  0  0
 44 43  1  0  0  0  0
 46 42  1  0  0  0  0
 47 43  1  0  0  0  0
M  END
>  <minimizedAffinity>
-3.8430686

>  <minimizedRMSD>
0.627709746

$$$$
