
 OpenBabel03242519303D

 47 49  0  0  0  0  0  0  0  0999 V2000
   47.9140   33.8380   42.8530 C   0  0  0  0  0  0  0  0  0  0  0  0
   48.5800   35.0810   42.6470 C   0  0  0  0  0  0  0  0  0  0  0  0
   49.9460   35.1000   42.3370 C   0  0  0  0  0  0  0  0  0  0  0  0
   50.5730   33.8810   42.2500 N   0  0  0  0  0  0  0  0  0  0  0  0
   49.8840   32.7070   42.4580 C   0  0  0  0  0  0  0  0  0  0  0  0
   48.6000   32.7140   42.7480 N   0  0  0  0  0  0  0  0  0  0  0  0
   48.1570   36.0750   42.6990 H   0  0  0  0  0  0  0  0  0  0  0  0
   50.4970   35.9930   42.1720 H   0  0  0  0  0  0  0  0  0  0  0  0
   46.4890   33.9600   43.1750 C   0  0  0  0  0  0  0  0  0  0  0  0
   45.7790   34.9640   42.4250 C   0  0  0  0  0  0  0  0  0  0  0  0
   45.3070   36.1180   43.2230 C   0  0  0  0  0  0  0  0  0  0  0  0
   44.4330   35.6400   44.3970 C   0  0  0  0  0  0  0  0  0  0  0  0
   44.9910   34.4660   45.1160 C   0  0  0  0  0  0  0  0  0  0  0  0
   46.4330   34.1950   44.7210 C   0  0  0  0  0  0  0  0  0  0  0  0
   46.0350   32.9290   43.0870 H   0  0  0  0  0  0  0  0  0  0  0  0
   46.3700   35.3580   41.5730 H   0  0  0  0  0  0  0  0  0  0  0  0
   44.8620   34.5040   41.9570 H   0  0  0  0  0  0  0  0  0  0  0  0
   46.0530   36.8100   43.6020 H   0  0  0  0  0  0  0  0  0  0  0  0
   44.6180   36.7320   42.5790 H   0  0  0  0  0  0  0  0  0  0  0  0
   44.2980   36.5530   45.0340 H   0  0  0  0  0  0  0  0  0  0  0  0
   43.4030   35.4290   43.9860 H   0  0  0  0  0  0  0  0  0  0  0  0
   44.9870   34.5810   46.2060 H   0  0  0  0  0  0  0  0  0  0  0  0
   44.4210   33.5470   44.8260 H   0  0  0  0  0  0  0  0  0  0  0  0
   46.8190   33.3230   45.2520 H   0  0  0  0  0  0  0  0  0  0  0  0
   47.0560   35.0970   44.9060 H   0  0  0  0  0  0  0  0  0  0  0  0
   50.7170   31.5160   42.3280 C   0  0  0  0  0  0  0  0  0  0  0  0
   51.3210   31.2640   41.1560 N   0  0  0  0  0  0  0  0  0  0  0  0
   52.0370   30.1130   41.2620 C   0  0  0  0  0  0  0  0  0  0  0  0
   51.8630   29.6670   42.5200 N   0  0  0  0  0  0  0  0  0  0  0  0
   51.0630   30.5110   43.1750 N   0  0  0  0  0  0  0  0  0  0  0  0
   52.6430   29.6280   40.4920 H   0  0  0  0  0  0  0  0  0  0  0  0
   52.4440   28.4900   43.1200 C   0  0  0  0  0  0  0  0  0  0  0  0
   51.8120   28.2010   44.0070 H   0  0  0  0  0  0  0  0  0  0  0  0
   52.4640   27.6220   42.4820 H   0  0  0  0  0  0  0  0  0  0  0  0
   53.7770   28.8090   43.6320 C   0  0  0  0  0  3  0  0  0  0  0  0
   54.2350   29.5980   44.5880 C   0  0  0  0  0  3  0  0  0  0  0  0
   55.6880   29.7550   45.0660 C   0  0  0  0  0  0  0  0  0  0  0  0
   55.7110   29.8960   46.1580 H   0  0  0  0  0  0  0  0  0  0  0  0
   56.0500   30.6240   44.5010 H   0  0  0  0  0  0  0  0  0  0  0  0
   56.5380   27.6220   46.7720 N   0  0  0  0  0  0  0  0  0  0  0  0
   56.7060   27.4830   45.5150 C   0  0  0  0  0  0  0  0  0  0  0  0
   56.4450   28.6010   44.6520 N   0  0  0  0  0  0  0  0  0  0  0  0
   57.1410   26.2560   44.9460 N   0  0  0  0  0  0  0  0  0  0  0  0
   56.4550   25.5130   44.6360 H   0  0  0  0  0  0  0  0  0  0  0  0
   56.2170   28.5290   47.1680 H   0  0  0  0  0  0  0  0  0  0  0  0
   56.8510   28.5230   43.6820 H   0  0  0  0  0  0  0  0  0  0  0  0
   57.9030   25.6190   44.6310 H   0  0  0  0  0  0  0  0  0  0  0  0
  1  9  1  0  0  0  0
  2  7  1  0  0  0  0
  2  1  2  0  0  0  0
  3  2  1  0  0  0  0
  4  3  2  0  0  0  0
  4  5  1  0  0  0  0
  5  6  2  0  0  0  0
  6  1  1  0  0  0  0
  8  3  1  0  0  0  0
  9 14  1  0  0  0  0
 10  9  1  0  0  0  0
 10 11  1  0  0  0  0
 11 18  1  0  0  0  0
 11 12  1  0  0  0  0
 12 20  1  0  0  0  0
 12 13  1  0  0  0  0
 13 22  1  0  0  0  0
 14 25  1  0  0  0  0
 14 13  1  0  0  0  0
 14 24  1  0  0  0  0
 15  9  1  0  0  0  0
 16 10  1  0  0  0  0
 17 10  1  0  0  0  0
 19 11  1  0  0  0  0
 21 12  1  0  0  0  0
 23 13  1  0  0  0  0
 26  5  1  0  0  0  0
 26 30  2  0  0  0  0
 27 28  2  0  0  0  0
 27 26  1  0  0  0  0
 28 29  1  0  0  0  0
 29 32  1  0  0  0  0
 29 30  1  0  0  0  0
 31 28  1  0  0  0  0
 32 35  1  0  0  0  0
 32 33  1  0  0  0  0
 34 32  1  0  0  0  0
 35 36  2  0  0  0  0
 36 37  1  0  0  0  0
 37 38  1  0  0  0  0
 39 37  1  0  0  0  0
 40 45  1  0  0  0  0
 41 40  2  0  0  0  0
 42 37  1  0  0  0  0
 42 41  1  0  0  0  0
 43 41  1  0  0  0  0
 44 43  1  0  0  0  0
 46 42  1  0  0  0  0
 47 43  1  0  0  0  0
M  END
>  <minimizedAffinity>
-3.84213185

>  <minimizedRMSD>
0.763181865

$$$$
