
 OpenBabel03242517473D

 42 44  0  0  0  0  0  0  0  0999 V2000
   38.2410   31.5460   41.2290 C   0  0  0  0  0  0  0  0  0  0  0  0
   39.6320   31.5210   41.3410 C   0  0  0  0  0  0  0  0  0  0  0  0
   40.2560   30.2830   41.4280 C   0  0  0  0  0  0  0  0  0  0  0  0
   39.4780   29.1760   41.3990 N   0  0  0  0  0  0  0  0  0  0  0  0
   38.1250   29.2440   41.2890 C   0  0  0  0  0  0  0  0  0  0  0  0
   37.4880   30.4040   41.2030 N   0  0  0  0  0  0  0  0  0  0  0  0
   37.6790   32.4870   41.1560 H   0  0  0  0  0  0  0  0  0  0  0  0
   41.3330   30.2330   41.5160 H   0  0  0  0  0  0  0  0  0  0  0  0
   37.3850   27.9550   41.2690 C   0  0  0  0  0  0  0  0  0  0  0  0
   38.0350   27.0950   41.3930 H   0  0  0  0  0  0  0  0  0  0  0  0
   36.7080   27.9670   42.1640 H   0  0  0  0  0  0  0  0  0  0  0  0
   36.5540   27.8050   40.0120 C   0  0  0  0  0  0  0  0  0  0  0  0
   36.2160   26.7540   39.9950 H   0  0  0  0  0  0  0  0  0  0  0  0
   37.2420   28.0040   39.1580 H   0  0  0  0  0  0  0  0  0  0  0  0
   34.2750   27.2290   38.5220 N   0  0  0  0  0  0  0  0  0  0  0  0
   34.2100   28.1960   39.4040 C   0  0  0  0  0  0  0  0  0  0  0  0
   35.4430   28.7010   39.9590 N   0  0  0  0  0  0  0  0  0  0  0  0
   32.9560   28.7670   39.8360 N   0  0  0  0  0  0  0  0  0  0  0  0
   33.0010   29.8200   39.7070 H   0  0  0  0  0  0  0  0  0  0  0  0
   33.3560   26.9020   38.1530 H   0  0  0  0  0  0  0  0  0  0  0  0
   35.3550   29.7150   40.2670 H   0  0  0  0  0  0  0  0  0  0  0  0
   32.2800   28.0460   40.1790 H   0  0  0  0  0  0  0  0  0  0  0  0
   40.5440   33.0470   41.3680 S   0  0  0  0  0  0  0  0  0  0  0  0
   40.3650   33.8910   39.8140 C   0  0  0  0  0  0  0  0  0  0  0  0
   39.2160   33.8440   39.0490 C   0  0  0  0  0  0  0  0  0  0  0  0
   39.1500   34.5350   37.8350 C   0  0  0  0  0  0  0  0  0  0  0  0
   40.2090   35.2640   37.3860 C   0  0  0  0  0  0  0  0  0  0  0  0
   41.3570   35.3070   38.1560 C   0  0  0  0  0  0  0  0  0  0  0  0
   41.4560   34.6290   39.3710 C   0  0  0  0  0  0  0  0  0  0  0  0
   38.3820   33.2720   39.3990 H   0  0  0  0  0  0  0  0  0  0  0  0
   38.2690   34.5160   37.2210 H   0  0  0  0  0  0  0  0  0  0  0  0
   40.2460   35.8260   36.4650 H   0  0  0  0  0  0  0  0  0  0  0  0
   42.2220   35.8730   37.8370 H   0  0  0  0  0  0  0  0  0  0  0  0
   42.6650   34.6860   40.1630 C   0  0  0  0  0  0  0  0  0  0  0  0
   43.7630   33.9270   39.9580 C   0  0  0  0  0  0  0  0  0  0  0  0
   44.9250   33.9910   40.7300 C   0  0  0  0  0  0  0  0  0  0  0  0
   44.9460   34.8750   41.7510 N   0  0  0  0  0  0  0  0  0  0  0  0
   43.8540   35.6370   41.9630 C   0  0  0  0  0  0  0  0  0  0  0  0
   42.7450   35.5550   41.2020 N   0  0  0  0  0  0  0  0  0  0  0  0
   43.7370   33.2160   39.1330 H   0  0  0  0  0  0  0  0  0  0  0  0
   45.7360   33.3380   40.4730 H   0  0  0  0  0  0  0  0  0  0  0  0
   43.9510   36.3230   42.8020 H   0  0  0  0  0  0  0  0  0  0  0  0
  1  2  1  0  0  0  0
  2 23  1  0  0  0  0
  2  3  2  0  0  0  0
  3  8  1  0  0  0  0
  4  3  1  0  0  0  0
  5  4  2  0  0  0  0
  6  1  2  0  0  0  0
  6  5  1  0  0  0  0
  7  1  1  0  0  0  0
  9  5  1  0  0  0  0
  9 10  1  0  0  0  0
  9 11  1  0  0  0  0
 12  9  1  0  0  0  0
 13 12  1  0  0  0  0
 14 12  1  0  0  0  0
 15 16  2  0  0  0  0
 16 18  1  0  0  0  0
 16 17  1  0  0  0  0
 17 12  1  0  0  0  0
 17 21  1  0  0  0  0
 18 22  1  0  0  0  0
 19 18  1  0  0  0  0
 20 15  1  0  0  0  0
 24 23  1  0  0  0  0
 25 30  1  0  0  0  0
 25 24  2  0  0  0  0
 26 25  1  0  0  0  0
 27 26  2  0  0  0  0
 27 28  1  0  0  0  0
 28 29  2  0  0  0  0
 29 24  1  0  0  0  0
 29 34  1  0  0  0  0
 31 26  1  0  0  0  0
 32 27  1  0  0  0  0
 33 28  1  0  0  0  0
 34 39  1  0  0  0  0
 35 34  2  0  0  0  0
 35 36  1  0  0  0  0
 36 37  2  0  0  0  0
 37 38  1  0  0  0  0
 38 42  1  0  0  0  0
 39 38  2  0  0  0  0
 40 35  1  0  0  0  0
 41 36  1  0  0  0  0
M  END
>  <minimizedAffinity>
-5.78275442

>  <minimizedRMSD>
0.923461974

$$$$
