
 OpenBabel03252508243D

 40 43  0  0  1  0  0  0  0  0999 V2000
   46.5310   32.2710   46.1790 C   0  0  1  0  0  0  0  0  0  0  0  0
   46.7990   32.5390   47.5990 C   0  0  0  0  0  0  0  0  0  0  0  0
   45.4830   31.8330   47.0820 C   0  0  2  0  0  0  0  0  0  0  0  0
   47.4180   31.6400   45.8250 H   0  0  0  0  0  0  0  0  0  0  0  0
   46.7060   33.5500   48.0260 H   0  0  0  0  0  0  0  0  0  0  0  0
   47.3340   31.8510   48.2690 H   0  0  0  0  0  0  0  0  0  0  0  0
   44.7020   32.5230   47.5140 H   0  0  0  0  0  0  0  0  0  0  0  0
   45.2120   30.4400   47.4550 C   0  0  0  0  0  0  0  0  0  0  0  0
   45.0930   29.9260   48.7080 C   0  0  0  0  0  0  0  0  0  0  0  0
   44.9560   28.5880   49.0270 C   0  0  0  0  0  0  0  0  0  0  0  0
   44.9410   27.6880   47.9490 C   0  0  0  0  0  0  0  0  0  0  0  0
   45.0590   28.1870   46.6510 C   0  0  0  0  0  0  0  0  0  0  0  0
   44.9780   27.2720   45.6200 C   0  0  0  0  0  0  0  0  0  0  0  0
   45.0220   27.7270   44.3090 C   0  0  0  0  0  0  0  0  0  0  0  0
   45.1400   29.0750   44.0360 C   0  0  0  0  0  0  0  0  0  0  0  0
   45.2190   29.9420   45.1010 C   0  0  0  0  0  0  0  0  0  0  0  0
   45.1890   29.5370   46.4220 C   0  0  0  0  0  0  0  0  0  0  0  0
   45.1090   30.6650   49.5110 H   0  0  0  0  0  0  0  0  0  0  0  0
   44.8660   28.2660   50.0490 H   0  0  0  0  0  0  0  0  0  0  0  0
   44.8400   26.6310   48.1450 H   0  0  0  0  0  0  0  0  0  0  0  0
   44.8830   26.2110   45.8620 H   0  0  0  0  0  0  0  0  0  0  0  0
   44.9520   26.9130   43.5720 H   0  0  0  0  0  0  0  0  0  0  0  0
   45.1520   29.2270   42.9780 H   0  0  0  0  0  0  0  0  0  0  0  0
   45.2160   30.8920   44.6500 H   0  0  0  0  0  0  0  0  0  0  0  0
   44.9380   35.2080   44.6100 C   0  0  0  0  0  0  0  0  0  0  0  0
   45.7240   35.3780   43.4150 C   0  0  0  0  0  0  0  0  0  0  0  0
   46.7890   34.4720   43.2030 C   0  0  0  0  0  0  0  0  0  0  0  0
   47.0160   33.5180   44.1030 N   0  0  0  0  0  0  0  0  0  0  0  0
   46.2490   33.3850   45.2260 C   0  0  0  0  0  0  0  0  0  0  0  0
   45.2370   34.2120   45.4690 N   0  0  0  0  0  0  0  0  0  0  0  0
   44.1290   35.9180   44.7420 H   0  0  0  0  0  0  0  0  0  0  0  0
   45.4850   36.1530   42.7410 H   0  0  0  0  0  0  0  0  0  0  0  0
   49.6500   34.7680   43.0360 N   0  0  0  0  0  0  0  0  0  0  0  0
   48.9020   35.1530   42.0260 C   0  0  0  0  0  0  0  0  0  0  0  0
   47.6190   34.5700   42.0550 N   0  0  0  0  0  0  0  0  0  0  0  0
   49.2340   36.0530   40.9550 N   0  0  0  0  0  0  0  0  0  0  0  0
   49.8270   36.0790   40.0840 H   0  0  0  0  0  0  0  0  0  0  0  0
   50.6110   35.1630   43.0740 H   0  0  0  0  0  0  0  0  0  0  0  0
   47.2360   34.1750   41.1430 H   0  0  0  0  0  0  0  0  0  0  0  0
   48.8370   37.0360   40.8810 H   0  0  0  0  0  0  0  0  0  0  0  0
  1  4  1  6  0  0  0
  1  3  1  0  0  0  0
  1  2  1  0  0  0  0
  2  5  1  0  0  0  0
  2  6  1  0  0  0  0
  3  8  1  0  0  0  0
  3  7  1  1  0  0  0
  3  2  1  0  0  0  0
  8  9  1  0  0  0  0
  9 10  2  0  0  0  0
  9 18  1  0  0  0  0
 10 19  1  0  0  0  0
 11 20  1  0  0  0  0
 11 10  1  0  0  0  0
 12 11  2  0  0  0  0
 13 21  1  0  0  0  0
 13 12  1  0  0  0  0
 14 13  2  0  0  0  0
 15 14  1  0  0  0  0
 15 16  2  0  0  0  0
 16 17  1  0  0  0  0
 17 12  1  0  0  0  0
 17  8  2  0  0  0  0
 22 14  1  0  0  0  0
 23 15  1  0  0  0  0
 24 16  1  0  0  0  0
 25 31  1  0  0  0  0
 25 30  1  0  0  0  0
 26 25  2  0  0  0  0
 27 26  1  0  0  0  0
 27 28  2  0  0  0  0
 28 29  1  0  0  0  0
 29 30  2  0  0  0  0
 29  1  1  0  0  0  0
 32 26  1  0  0  0  0
 33 38  1  0  0  0  0
 34 35  1  0  0  0  0
 34 33  2  0  0  0  0
 35 27  1  0  0  0  0
 36 34  1  0  0  0  0
 37 36  1  0  0  0  0
 39 35  1  0  0  0  0
 40 36  1  0  0  0  0
M  END
>  <minimizedAffinity>
-5.75235653

>  <minimizedRMSD>
0.789255083

$$$$
