
 OpenBabel03242511463D

 43 44  0  0  0  0  0  0  0  0999 V2000
   44.5960   35.6880   44.7180 C   0  0  0  0  0  0  0  0  0  0  0  0
   44.2190   35.8840   43.3800 C   0  0  0  0  0  0  0  0  0  0  0  0
   44.4940   34.8500   42.5220 C   0  0  0  0  0  0  0  0  0  0  0  0
   45.0930   33.7180   42.9620 N   0  0  0  0  0  0  0  0  0  0  0  0
   45.4290   33.5920   44.2590 C   0  0  0  0  0  0  0  0  0  0  0  0
   45.1930   34.5490   45.1380 N   0  0  0  0  0  0  0  0  0  0  0  0
   44.4040   36.4840   45.4520 H   0  0  0  0  0  0  0  0  0  0  0  0
   43.7460   36.8190   43.1220 H   0  0  0  0  0  0  0  0  0  0  0  0
   46.0760   32.3410   44.6910 C   0  0  0  0  0  0  0  0  0  0  0  0
   45.4010   31.4830   44.7550 H   0  0  0  0  0  0  0  0  0  0  0  0
   46.8440   32.0970   43.8990 H   0  0  0  0  0  0  0  0  0  0  0  0
   46.7870   32.5820   45.9970 C   0  0  0  0  0  0  0  0  0  0  0  0
   47.8710   32.3130   45.9120 H   0  0  0  0  0  0  0  0  0  0  0  0
   46.7870   33.6730   46.2630 H   0  0  0  0  0  0  0  0  0  0  0  0
   46.1760   31.8560   47.0880 C   0  0  0  0  0  0  0  0  0  0  0  0
   45.3150   32.3210   48.0710 C   0  0  0  0  0  0  0  0  0  0  0  0
   44.7970   31.5540   49.0550 C   0  0  0  0  0  0  0  0  0  0  0  0
   45.1440   30.2190   49.0860 C   0  0  0  0  0  0  0  0  0  0  0  0
   45.9970   29.7410   48.1210 C   0  0  0  0  0  0  0  0  0  0  0  0
   46.5150   30.5470   47.1240 C   0  0  0  0  0  0  0  0  0  0  0  0
   45.0760   33.3930   47.9910 H   0  0  0  0  0  0  0  0  0  0  0  0
   44.1430   32.0410   49.7560 H   0  0  0  0  0  0  0  0  0  0  0  0
   44.6950   29.6460   49.9040 H   0  0  0  0  0  0  0  0  0  0  0  0
   46.1700   28.6630   48.2920 H   0  0  0  0  0  0  0  0  0  0  0  0
   48.6870   29.5220   46.8120 C   0  0  0  0  0  0  0  0  0  0  0  0
   49.4040   29.8850   47.8300 O   0  0  0  0  0  0  0  0  0  0  0  0
   47.3600   29.7240   46.3090 N   0  0  0  0  0  0  0  0  0  0  0  0
   49.5480   28.9600   46.4510 H   0  0  0  0  0  0  0  0  0  0  0  0
   47.2400   29.2250   45.4200 H   0  0  0  0  0  0  0  0  0  0  0  0
   44.1050   35.0200   41.0860 C   0  0  0  0  0  0  0  0  0  0  0  0
   44.5390   35.9810   40.7620 H   0  0  0  0  0  0  0  0  0  0  0  0
   44.5470   34.1920   40.4950 H   0  0  0  0  0  0  0  0  0  0  0  0
   42.5890   35.0620   40.9380 C   0  0  0  0  0  0  0  0  0  0  0  0
   42.1680   34.1510   41.3580 H   0  0  0  0  0  0  0  0  0  0  0  0
   42.1990   35.9340   41.5240 H   0  0  0  0  0  0  0  0  0  0  0  0
   40.0010   35.3970   39.7940 N   0  0  0  0  0  0  0  0  0  0  0  0
   41.0240   35.1370   39.0320 C   0  0  0  0  0  0  0  0  0  0  0  0
   42.3530   35.2480   39.5200 N   0  0  0  0  0  0  0  0  0  0  0  0
   40.7040   34.7410   37.6990 N   0  0  0  0  0  0  0  0  0  0  0  0
   40.2690   33.7820   37.5670 H   0  0  0  0  0  0  0  0  0  0  0  0
   40.0980   35.6960   40.7830 H   0  0  0  0  0  0  0  0  0  0  0  0
   43.0750   35.4600   38.8190 H   0  0  0  0  0  0  0  0  0  0  0  0
   40.6880   34.9630   36.6720 H   0  0  0  0  0  0  0  0  0  0  0  0
  1  6  1  0  0  0  0
  1  7  1  0  0  0  0
  2  1  2  0  0  0  0
  3  4  2  0  0  0  0
  3  2  1  0  0  0  0
  4  5  1  0  0  0  0
  5  9  1  0  0  0  0
  5  6  2  0  0  0  0
  8  2  1  0  0  0  0
  9 10  1  0  0  0  0
  9 12  1  0  0  0  0
 11  9  1  0  0  0  0
 12 14  1  0  0  0  0
 12 15  1  0  0  0  0
 13 12  1  0  0  0  0
 15 20  2  0  0  0  0
 15 16  1  0  0  0  0
 16 17  2  0  0  0  0
 17 18  1  0  0  0  0
 17 22  1  0  0  0  0
 18 23  1  0  0  0  0
 19 24  1  0  0  0  0
 19 18  2  0  0  0  0
 20 19  1  0  0  0  0
 21 16  1  0  0  0  0
 25 26  2  0  0  0  0
 27 25  1  0  0  0  0
 27 20  1  0  0  0  0
 28 25  1  0  0  0  0
 29 27  1  0  0  0  0
 30  3  1  0  0  0  0
 31 30  1  0  0  0  0
 32 30  1  0  0  0  0
 33 30  1  0  0  0  0
 33 34  1  0  0  0  0
 33 35  1  0  0  0  0
 36 41  1  0  0  0  0
 37 38  1  0  0  0  0
 37 36  2  0  0  0  0
 38 33  1  0  0  0  0
 39 37  1  0  0  0  0
 40 39  1  0  0  0  0
 42 38  1  0  0  0  0
 43 39  1  0  0  0  0
M  END
>  <minimizedAffinity>
-5.36042929

>  <minimizedRMSD>
0.343154758

$$$$
