
 OpenBabel03242514043D

 42 44  0  0  1  0  0  0  0  0999 V2000
   48.7510   31.2800   40.1870 C   0  0  1  0  0  0  0  0  0  0  0  0
   47.3450   30.6340   40.2570 C   0  0  0  0  0  0  0  0  0  0  0  0
   47.5180   29.3180   39.4890 C   0  0  0  0  0  0  0  0  0  0  0  0
   47.6860   29.6800   38.0410 C   0  0  0  0  0  0  0  0  0  0  0  0
   48.7960   30.6250   37.7960 C   0  0  0  0  0  0  0  0  0  0  0  0
   49.0080   31.7050   38.7920 C   0  0  1  0  0  0  0  0  0  0  0  0
   49.4560   30.4740   40.5000 H   0  0  0  0  0  0  0  0  0  0  0  0
   47.0510   30.4540   41.2930 H   0  0  0  0  0  0  0  0  0  0  0  0
   46.6060   31.2680   39.7690 H   0  0  0  0  0  0  0  0  0  0  0  0
   46.5530   28.7660   39.5910 H   0  0  0  0  0  0  0  0  0  0  0  0
   48.3610   28.7510   39.9080 H   0  0  0  0  0  0  0  0  0  0  0  0
   46.6980   30.0230   37.6590 H   0  0  0  0  0  0  0  0  0  0  0  0
   47.9000   28.7250   37.5050 H   0  0  0  0  0  0  0  0  0  0  0  0
   48.6590   31.0870   36.7830 H   0  0  0  0  0  0  0  0  0  0  0  0
   49.7390   30.0130   37.7120 H   0  0  0  0  0  0  0  0  0  0  0  0
   50.0490   32.0470   38.6330 H   0  0  0  0  0  0  0  0  0  0  0  0
   47.9460   33.9150   42.6480 C   0  0  0  0  0  0  0  0  0  0  0  0
   49.1970   34.3790   42.9480 C   0  0  0  0  0  0  0  0  0  0  0  0
   50.3650   33.8930   42.4010 C   0  0  0  0  0  0  0  0  0  0  0  0
   50.1840   32.8570   41.4880 C   0  0  0  0  0  0  0  0  0  0  0  0
   48.8990   32.3620   41.1620 C   0  0  0  0  0  0  0  0  0  0  0  0
   47.8090   32.9050   41.7530 N   0  0  0  0  0  0  0  0  0  0  0  0
   49.2780   35.1860   43.6650 H   0  0  0  0  0  0  0  0  0  0  0  0
   51.3500   34.2430   42.6250 H   0  0  0  0  0  0  0  0  0  0  0  0
   51.0870   32.4530   41.0400 H   0  0  0  0  0  0  0  0  0  0  0  0
   45.1780   34.5590   44.9540 C   0  0  0  0  0  0  0  0  0  0  0  0
   44.5320   35.6600   44.4140 C   0  0  0  0  0  0  0  0  0  0  0  0
   45.0720   36.1740   43.2390 C   0  0  0  0  0  0  0  0  0  0  0  0
   46.1830   35.5780   42.6930 N   0  0  0  0  0  0  0  0  0  0  0  0
   46.7700   34.4990   43.2760 C   0  0  0  0  0  0  0  0  0  0  0  0
   46.2720   33.9990   44.3900 N   0  0  0  0  0  0  0  0  0  0  0  0
   44.7820   34.1300   45.8760 H   0  0  0  0  0  0  0  0  0  0  0  0
   43.6670   36.0920   44.8740 H   0  0  0  0  0  0  0  0  0  0  0  0
   44.6280   37.0320   42.7520 H   0  0  0  0  0  0  0  0  0  0  0  0
   49.6570   34.0220   37.2540 N   0  0  0  0  0  0  0  0  0  0  0  0
   48.3870   33.8030   37.4860 C   0  0  0  0  0  0  0  0  0  0  0  0
   48.0960   32.7990   38.4530 N   0  0  0  0  0  0  0  0  0  0  0  0
   47.3070   34.4790   36.8560 N   0  0  0  0  0  0  0  0  0  0  0  0
   47.1730   34.8310   35.8840 H   0  0  0  0  0  0  0  0  0  0  0  0
   49.8760   34.7630   36.5400 H   0  0  0  0  0  0  0  0  0  0  0  0
   47.1510   32.8840   38.9340 H   0  0  0  0  0  0  0  0  0  0  0  0
   46.4670   34.6900   37.4190 H   0  0  0  0  0  0  0  0  0  0  0  0
  1  2  1  0  0  0  0
  1  7  1  1  0  0  0
  1 21  1  0  0  0  0
  2  8  1  0  0  0  0
  3 10  1  0  0  0  0
  3 11  1  0  0  0  0
  3  2  1  0  0  0  0
  4  3  1  0  0  0  0
  5  4  1  0  0  0  0
  5  6  1  0  0  0  0
  6 16  1  6  0  0  0
  6  1  1  0  0  0  0
  9  2  1  0  0  0  0
 12  4  1  0  0  0  0
 13  4  1  0  0  0  0
 14  5  1  0  0  0  0
 15  5  1  0  0  0  0
 17 18  1  0  0  0  0
 17 30  1  0  0  0  0
 18 23  1  0  0  0  0
 19 24  1  0  0  0  0
 19 18  2  0  0  0  0
 20 19  1  0  0  0  0
 21 20  2  0  0  0  0
 21 22  1  0  0  0  0
 22 17  2  0  0  0  0
 25 20  1  0  0  0  0
 26 32  1  0  0  0  0
 27 33  1  0  0  0  0
 27 26  1  0  0  0  0
 28 27  2  0  0  0  0
 29 28  1  0  0  0  0
 29 30  2  0  0  0  0
 30 31  1  0  0  0  0
 31 26  2  0  0  0  0
 34 28  1  0  0  0  0
 35 36  2  0  0  0  0
 36 37  1  0  0  0  0
 37  6  1  0  0  0  0
 37 41  1  0  0  0  0
 38 42  1  0  0  0  0
 38 36  1  0  0  0  0
 39 38  1  0  0  0  0
 40 35  1  0  0  0  0
M  END
>  <minimizedAffinity>
-5.65366697

>  <minimizedRMSD>
2.50841022

$$$$
