
 OpenBabel03242511003D

 45 47  0  0  0  0  0  0  0  0999 V2000
   45.3810   27.8820   47.6560 C   0  0  0  0  0  0  0  0  0  0  0  0
   44.5980   27.0960   48.3450 C   0  0  0  0  0  0  0  0  0  0  0  0
   45.6320   31.5030   47.0700 C   0  0  0  0  0  0  0  0  0  0  0  0
   45.4110   31.9580   48.3690 C   0  0  0  0  0  0  0  0  0  0  0  0
   45.1800   31.1240   49.4420 C   0  0  0  0  0  0  0  0  0  0  0  0
   45.1710   29.7790   49.2010 C   0  0  0  0  0  0  0  0  0  0  0  0
   45.3910   29.3150   47.9120 C   0  0  0  0  0  0  0  0  0  0  0  0
   45.6080   30.1730   46.9170 N   0  0  0  0  0  0  0  0  0  0  0  0
   45.4260   33.0290   48.5170 H   0  0  0  0  0  0  0  0  0  0  0  0
   45.0220   31.5850   50.4010 H   0  0  0  0  0  0  0  0  0  0  0  0
   44.9900   29.1340   50.0500 H   0  0  0  0  0  0  0  0  0  0  0  0
   44.7800   36.5510   43.8700 C   0  0  0  0  0  0  0  0  0  0  0  0
   45.6810   36.2600   42.8220 C   0  0  0  0  0  0  0  0  0  0  0  0
   46.3240   35.0270   42.8440 C   0  0  0  0  0  0  0  0  0  0  0  0
   46.0750   34.1450   43.8570 N   0  0  0  0  0  0  0  0  0  0  0  0
   45.1970   34.4760   44.8400 C   0  0  0  0  0  0  0  0  0  0  0  0
   44.5520   35.6780   44.8450 N   0  0  0  0  0  0  0  0  0  0  0  0
   45.8660   32.4660   46.0050 C   0  0  0  0  0  0  0  0  0  0  0  0
   46.8660   32.2810   45.2560 O   0  0  0  0  0  0  0  0  0  0  0  0
   44.9460   33.5470   45.8880 N   0  0  0  0  0  0  0  0  0  0  0  0
   44.3160   37.5230   43.7920 H   0  0  0  0  0  0  0  0  0  0  0  0
   45.9340   36.8900   41.9950 H   0  0  0  0  0  0  0  0  0  0  0  0
   47.0280   34.6490   42.1390 H   0  0  0  0  0  0  0  0  0  0  0  0
   44.1230   33.6810   46.5210 H   0  0  0  0  0  0  0  0  0  0  0  0
   44.4730   25.6100   48.2050 C   0  0  0  0  0  0  0  0  0  0  0  0
   45.4590   25.2920   47.8540 H   0  0  0  0  0  0  0  0  0  0  0  0
   44.3520   25.1430   49.2080 H   0  0  0  0  0  0  0  0  0  0  0  0
   45.1630   23.2860   46.5270 Cl  0  0  0  0  0  0  0  0  0  0  0  0
   43.6440   24.1760   46.4430 C   0  0  0  0  0  0  0  0  0  0  0  0
   43.3830   25.2520   47.2580 C   0  0  0  0  0  0  0  0  0  0  0  0
   42.1910   25.9430   47.1910 C   0  0  0  0  0  0  0  0  0  0  0  0
   41.2280   25.5220   46.2580 C   0  0  0  0  0  0  0  0  0  0  0  0
   41.5010   24.4490   45.4520 C   0  0  0  0  0  0  0  0  0  0  0  0
   42.6930   23.7530   45.5150 C   0  0  0  0  0  0  0  0  0  0  0  0
   42.0910   26.7710   47.8740 H   0  0  0  0  0  0  0  0  0  0  0  0
   40.3020   26.0950   46.2380 H   0  0  0  0  0  0  0  0  0  0  0  0
   40.7090   24.1900   44.7710 H   0  0  0  0  0  0  0  0  0  0  0  0
   41.5760   21.0690   45.6010 N   0  0  0  0  0  0  0  0  0  0  0  0
   42.7180   21.3020   45.0390 C   0  0  0  0  0  0  0  0  0  0  0  0
   42.9630   22.6410   44.6850 N   0  0  0  0  0  0  0  0  0  0  0  0
   43.7200   20.3010   44.7630 N   0  0  0  0  0  0  0  0  0  0  0  0
   43.4550   20.1710   43.7510 H   0  0  0  0  0  0  0  0  0  0  0  0
   41.3920   20.0850   45.8630 H   0  0  0  0  0  0  0  0  0  0  0  0
   43.3860   22.8240   43.7250 H   0  0  0  0  0  0  0  0  0  0  0  0
   44.0980   19.6900   44.0170 H   0  0  0  0  0  0  0  0  0  0  0  0
  1  7  1  0  0  0  0
  1  2  2  0  0  0  0
  3  4  1  0  0  0  0
  4  9  1  0  0  0  0
  4  5  2  0  0  0  0
  5 10  1  0  0  0  0
  6  5  1  0  0  0  0
  6 11  1  0  0  0  0
  7  6  2  0  0  0  0
  8  3  2  0  0  0  0
  8  7  1  0  0  0  0
 12 17  1  0  0  0  0
 13 14  1  0  0  0  0
 13 12  2  0  0  0  0
 14 15  2  0  0  0  0
 15 16  1  0  0  0  0
 16 17  2  0  0  0  0
 16 20  1  0  0  0  0
 18  3  1  0  0  0  0
 19 18  2  0  0  0  0
 20 18  1  0  0  0  0
 20 24  1  0  0  0  0
 21 12  1  0  0  0  0
 22 13  1  0  0  0  0
 23 14  1  0  0  0  0
 25  2  1  0  0  0  0
 25 27  1  0  0  0  0
 26 25  1  0  0  0  0
 29 28  1  0  0  0  0
 29 30  1  0  0  0  0
 30 25  1  0  0  0  0
 31 30  2  0  0  0  0
 31 35  1  0  0  0  0
 32 31  1  0  0  0  0
 33 34  1  0  0  0  0
 33 32  2  0  0  0  0
 34 29  2  0  0  0  0
 36 32  1  0  0  0  0
 37 33  1  0  0  0  0
 38 43  1  0  0  0  0
 39 38  2  0  0  0  0
 40 39  1  0  0  0  0
 40 34  1  0  0  0  0
 41 39  1  0  0  0  0
 42 41  1  0  0  0  0
 44 40  1  0  0  0  0
 45 41  1  0  0  0  0
M  END
>  <minimizedAffinity>
-6.06163597

>  <minimizedRMSD>
0.435155332

$$$$
