
 OpenBabel03252508243D

 40 43  0  0  1  0  0  0  0  0999 V2000
   46.5080   32.4630   46.0020 C   0  0  1  0  0  0  0  0  0  0  0  0
   46.9140   32.7180   47.3910 C   0  0  0  0  0  0  0  0  0  0  0  0
   45.5390   32.0450   46.9980 C   0  0  2  0  0  0  0  0  0  0  0  0
   47.3430   31.8140   45.5650 H   0  0  0  0  0  0  0  0  0  0  0  0
   46.8840   33.7290   47.8280 H   0  0  0  0  0  0  0  0  0  0  0  0
   47.4930   32.0150   48.0060 H   0  0  0  0  0  0  0  0  0  0  0  0
   44.8180   32.7500   47.5040 H   0  0  0  0  0  0  0  0  0  0  0  0
   45.2720   30.6570   47.3920 C   0  0  0  0  0  0  0  0  0  0  0  0
   45.1360   30.1640   48.6520 C   0  0  0  0  0  0  0  0  0  0  0  0
   45.0040   28.8300   48.9930 C   0  0  0  0  0  0  0  0  0  0  0  0
   45.0130   27.9120   47.9300 C   0  0  0  0  0  0  0  0  0  0  0  0
   45.1500   28.3880   46.6260 C   0  0  0  0  0  0  0  0  0  0  0  0
   45.0930   27.4540   45.6100 C   0  0  0  0  0  0  0  0  0  0  0  0
   45.1540   27.8860   44.2920 C   0  0  0  0  0  0  0  0  0  0  0  0
   45.2670   29.2300   43.9970 C   0  0  0  0  0  0  0  0  0  0  0  0
   45.3220   30.1170   45.0470 C   0  0  0  0  0  0  0  0  0  0  0  0
   45.2730   29.7350   46.3740 C   0  0  0  0  0  0  0  0  0  0  0  0
   45.1340   30.9170   49.4420 H   0  0  0  0  0  0  0  0  0  0  0  0
   44.8990   28.5270   50.0180 H   0  0  0  0  0  0  0  0  0  0  0  0
   44.9170   26.8580   48.1430 H   0  0  0  0  0  0  0  0  0  0  0  0
   45.0010   26.3970   45.8700 H   0  0  0  0  0  0  0  0  0  0  0  0
   45.1030   27.0590   43.5690 H   0  0  0  0  0  0  0  0  0  0  0  0
   45.2950   29.3640   42.9370 H   0  0  0  0  0  0  0  0  0  0  0  0
   45.3200   31.0590   44.5790 H   0  0  0  0  0  0  0  0  0  0  0  0
   44.8330   35.4330   44.5890 C   0  0  0  0  0  0  0  0  0  0  0  0
   45.5180   35.6000   43.3330 C   0  0  0  0  0  0  0  0  0  0  0  0
   46.5480   34.6800   43.0270 C   0  0  0  0  0  0  0  0  0  0  0  0
   46.8350   33.7160   43.8990 N   0  0  0  0  0  0  0  0  0  0  0  0
   46.1630   33.5870   45.0820 C   0  0  0  0  0  0  0  0  0  0  0  0
   45.1880   34.4270   45.4150 N   0  0  0  0  0  0  0  0  0  0  0  0
   44.0490   36.1540   44.7930 H   0  0  0  0  0  0  0  0  0  0  0  0
   45.2350   36.3820   42.6860 H   0  0  0  0  0  0  0  0  0  0  0  0
   49.3650   34.2990   42.5570 N   0  0  0  0  0  0  0  0  0  0  0  0
   48.6630   35.0240   41.7170 C   0  0  0  0  0  0  0  0  0  0  0  0
   47.2800   34.7730   41.8140 N   0  0  0  0  0  0  0  0  0  0  0  0
   49.1300   35.9900   40.7570 N   0  0  0  0  0  0  0  0  0  0  0  0
   49.6360   36.0230   39.8350 H   0  0  0  0  0  0  0  0  0  0  0  0
   50.3950   34.4370   42.5360 H   0  0  0  0  0  0  0  0  0  0  0  0
   46.7350   34.6480   40.9070 H   0  0  0  0  0  0  0  0  0  0  0  0
   48.9950   37.0380   40.8800 H   0  0  0  0  0  0  0  0  0  0  0  0
  1  4  1  6  0  0  0
  1  3  1  0  0  0  0
  1  2  1  0  0  0  0
  2  5  1  0  0  0  0
  2  6  1  0  0  0  0
  3  2  1  0  0  0  0
  3  8  1  0  0  0  0
  3  7  1  1  0  0  0
  8  9  1  0  0  0  0
  9 10  2  0  0  0  0
  9 18  1  0  0  0  0
 10 19  1  0  0  0  0
 11 20  1  0  0  0  0
 11 10  1  0  0  0  0
 12 11  2  0  0  0  0
 13 21  1  0  0  0  0
 13 12  1  0  0  0  0
 14 13  2  0  0  0  0
 15 14  1  0  0  0  0
 15 16  2  0  0  0  0
 16 17  1  0  0  0  0
 17 12  1  0  0  0  0
 17  8  2  0  0  0  0
 22 14  1  0  0  0  0
 23 15  1  0  0  0  0
 24 16  1  0  0  0  0
 25 31  1  0  0  0  0
 25 30  1  0  0  0  0
 26 25  2  0  0  0  0
 27 26  1  0  0  0  0
 27 28  2  0  0  0  0
 28 29  1  0  0  0  0
 29 30  2  0  0  0  0
 29  1  1  0  0  0  0
 32 26  1  0  0  0  0
 34 35  1  0  0  0  0
 34 33  2  0  0  0  0
 35 27  1  0  0  0  0
 36 40  1  0  0  0  0
 36 34  1  0  0  0  0
 37 36  1  0  0  0  0
 38 33  1  0  0  0  0
 39 35  1  0  0  0  0
M  END
>  <minimizedAffinity>
-5.60264826

>  <minimizedRMSD>
0.497590095

$$$$
