
 OpenBabel03252508243D

 40 43  0  0  1  0  0  0  0  0999 V2000
   46.4460   32.5280   45.9150 C   0  0  1  0  0  0  0  0  0  0  0  0
   46.9890   32.7040   47.2680 C   0  0  0  0  0  0  0  0  0  0  0  0
   45.5650   32.0840   46.9790 C   0  0  2  0  0  0  0  0  0  0  0  0
   47.2160   31.8810   45.3690 H   0  0  0  0  0  0  0  0  0  0  0  0
   47.0300   33.6930   47.7530 H   0  0  0  0  0  0  0  0  0  0  0  0
   47.6030   31.9580   47.7910 H   0  0  0  0  0  0  0  0  0  0  0  0
   44.9150   32.7820   47.5840 H   0  0  0  0  0  0  0  0  0  0  0  0
   45.2960   30.6860   47.3310 C   0  0  0  0  0  0  0  0  0  0  0  0
   45.1640   30.1550   48.5760 C   0  0  0  0  0  0  0  0  0  0  0  0
   45.0300   28.8120   48.8760 C   0  0  0  0  0  0  0  0  0  0  0  0
   45.0330   27.9260   47.7860 C   0  0  0  0  0  0  0  0  0  0  0  0
   45.1640   28.4420   46.4970 C   0  0  0  0  0  0  0  0  0  0  0  0
   45.1000   27.5400   45.4520 C   0  0  0  0  0  0  0  0  0  0  0  0
   45.1570   28.0120   44.1480 C   0  0  0  0  0  0  0  0  0  0  0  0
   45.2720   29.3640   43.8940 C   0  0  0  0  0  0  0  0  0  0  0  0
   45.3330   30.2180   44.9710 C   0  0  0  0  0  0  0  0  0  0  0  0
   45.2900   29.7960   46.2860 C   0  0  0  0  0  0  0  0  0  0  0  0
   45.1670   30.8830   49.3880 H   0  0  0  0  0  0  0  0  0  0  0  0
   44.9300   28.4770   49.8930 H   0  0  0  0  0  0  0  0  0  0  0  0
   44.9350   26.8660   47.9670 H   0  0  0  0  0  0  0  0  0  0  0  0
   45.0080   26.4760   45.6800 H   0  0  0  0  0  0  0  0  0  0  0  0
   45.1000   27.2070   43.4000 H   0  0  0  0  0  0  0  0  0  0  0  0
   45.2950   29.5300   42.8390 H   0  0  0  0  0  0  0  0  0  0  0  0
   45.3310   31.1740   44.5320 H   0  0  0  0  0  0  0  0  0  0  0  0
   44.6610   35.5470   44.7620 C   0  0  0  0  0  0  0  0  0  0  0  0
   45.3040   35.8170   43.5010 C   0  0  0  0  0  0  0  0  0  0  0  0
   46.3450   34.9460   43.1020 C   0  0  0  0  0  0  0  0  0  0  0  0
   46.6800   33.9320   43.8960 N   0  0  0  0  0  0  0  0  0  0  0  0
   46.0480   33.7040   45.0860 C   0  0  0  0  0  0  0  0  0  0  0  0
   45.0640   34.4950   45.5040 N   0  0  0  0  0  0  0  0  0  0  0  0
   43.8680   36.2320   45.0380 H   0  0  0  0  0  0  0  0  0  0  0  0
   44.9840   36.6350   42.9190 H   0  0  0  0  0  0  0  0  0  0  0  0
   47.1920   33.0030   41.1510 N   0  0  0  0  0  0  0  0  0  0  0  0
   47.8040   34.1640   41.2130 C   0  0  0  0  0  0  0  0  0  0  0  0
   47.0370   35.1410   41.8780 N   0  0  0  0  0  0  0  0  0  0  0  0
   49.1000   34.5220   40.7020 N   0  0  0  0  0  0  0  0  0  0  0  0
   49.5740   34.7050   39.7790 H   0  0  0  0  0  0  0  0  0  0  0  0
   47.7040   32.2360   40.6710 H   0  0  0  0  0  0  0  0  0  0  0  0
   46.9750   36.1070   41.4330 H   0  0  0  0  0  0  0  0  0  0  0  0
   49.9430   34.6900   41.3270 H   0  0  0  0  0  0  0  0  0  0  0  0
  1  4  1  6  0  0  0
  1  3  1  0  0  0  0
  1  2  1  0  0  0  0
  2  5  1  0  0  0  0
  2  6  1  0  0  0  0
  3  2  1  0  0  0  0
  3  8  1  0  0  0  0
  3  7  1  1  0  0  0
  8  9  1  0  0  0  0
  9 10  2  0  0  0  0
  9 18  1  0  0  0  0
 10 19  1  0  0  0  0
 11 20  1  0  0  0  0
 11 10  1  0  0  0  0
 12 11  2  0  0  0  0
 13 21  1  0  0  0  0
 13 12  1  0  0  0  0
 14 13  2  0  0  0  0
 15 14  1  0  0  0  0
 15 16  2  0  0  0  0
 16 17  1  0  0  0  0
 17 12  1  0  0  0  0
 17  8  2  0  0  0  0
 22 14  1  0  0  0  0
 23 15  1  0  0  0  0
 24 16  1  0  0  0  0
 25 31  1  0  0  0  0
 25 30  1  0  0  0  0
 26 25  2  0  0  0  0
 27 26  1  0  0  0  0
 27 28  2  0  0  0  0
 28 29  1  0  0  0  0
 29 30  2  0  0  0  0
 29  1  1  0  0  0  0
 32 26  1  0  0  0  0
 33 34  2  0  0  0  0
 34 35  1  0  0  0  0
 35 27  1  0  0  0  0
 36 34  1  0  0  0  0
 36 40  1  0  0  0  0
 37 36  1  0  0  0  0
 38 33  1  0  0  0  0
 39 35  1  0  0  0  0
M  END
>  <minimizedAffinity>
-5.35637236

>  <minimizedRMSD>
0.214766085

$$$$
