
 OpenBabel03242521433D

 35 37  0  0  1  0  0  0  0  0999 V2000
   36.6890   28.4850   42.0320 C   0  0  0  0  0  0  0  0  0  0  0  0
   37.6130   29.5370   42.0500 C   0  0  0  0  0  0  0  0  0  0  0  0
   37.4880   30.5520   41.0870 C   0  0  0  0  0  0  0  0  0  0  0  0
   36.4910   30.4730   40.1930 N   0  0  0  0  0  0  0  0  0  0  0  0
   35.6070   29.4330   40.2040 C   0  0  0  0  0  0  0  0  0  0  0  0
   35.7080   28.4480   41.1180 N   0  0  0  0  0  0  0  0  0  0  0  0
   38.3710   29.5340   42.7820 H   0  0  0  0  0  0  0  0  0  0  0  0
   34.8250   29.4550   39.4330 H   0  0  0  0  0  0  0  0  0  0  0  0
   38.2870   32.6840   40.0760 C   0  0  2  0  0  0  0  0  0  0  0  0
   38.4690   31.6390   41.1380 C   0  0  2  0  0  0  0  0  0  0  0  0
   39.7890   31.2290   40.8660 O   0  0  0  0  0  0  0  0  0  0  0  0
   40.4780   32.4300   40.8110 C   0  0  0  0  0  0  0  0  0  0  0  0
   39.5430   33.5190   40.3660 C   0  0  1  0  0  0  0  0  0  0  0  0
   38.4630   32.2980   39.0530 H   0  0  0  0  0  0  0  0  0  0  0  0
   38.5090   32.1240   42.1250 H   0  0  0  0  0  0  0  0  0  0  0  0
   40.9070   32.6800   41.8030 H   0  0  0  0  0  0  0  0  0  0  0  0
   41.2940   32.3680   40.0490 H   0  0  0  0  0  0  0  0  0  0  0  0
   39.3620   34.2510   41.1660 H   0  0  0  0  0  0  0  0  0  0  0  0
   37.1220   33.3990   40.1970 O   0  0  0  0  0  0  0  0  0  0  0  0
   36.7400   33.5070   39.2720 H   0  0  0  0  0  0  0  0  0  0  0  0
   39.9510   34.1590   39.2130 O   0  0  0  0  0  0  0  0  0  0  0  0
   39.4240   34.9770   39.0960 H   0  0  0  0  0  0  0  0  0  0  0  0
   36.8130   27.4000   43.0530 C   0  0  0  0  0  0  0  0  0  0  0  0
   35.9560   26.7020   42.9880 H   0  0  0  0  0  0  0  0  0  0  0  0
   36.8300   27.9050   44.0590 H   0  0  0  0  0  0  0  0  0  0  0  0
   38.0400   26.6680   42.9490 N   0  0  0  0  0  0  0  0  0  0  0  0
   39.0730   27.1290   43.6800 C   0  0  0  0  0  3  0  0  0  0  0  0
   40.2990   26.4990   43.6530 C   0  0  0  0  0  3  0  0  0  0  0  0
   40.5200   25.3770   42.8820 C   0  0  0  0  0  0  0  0  0  0  0  0
   41.7910   24.7450   42.8710 N   0  0  0  0  0  0  0  0  0  0  0  0
   39.4640   24.9470   42.1660 N   0  0  0  0  0  0  0  0  0  0  0  0
   38.2790   25.5730   42.2050 C   0  0  0  0  0  0  0  0  0  0  0  0
   37.3080   25.1490   41.5260 O   0  0  0  0  0  0  0  0  0  0  0  0
   42.1290   24.3300   43.7680 H   0  0  0  0  0  0  0  0  0  0  0  0
   42.4250   24.6540   42.0540 H   0  0  0  0  0  0  0  0  0  0  0  0
  1  2  1  0  0  0  0
  1 23  1  0  0  0  0
  2  7  1  0  0  0  0
  3 10  1  0  0  0  0
  3  2  2  0  0  0  0
  4  5  2  0  0  0  0
  4  3  1  0  0  0  0
  5  6  1  0  0  0  0
  6  1  2  0  0  0  0
  8  5  1  0  0  0  0
  9 14  1  6  0  0  0
  9 19  1  0  0  0  0
  9 13  1  0  0  0  0
  9 10  1  0  0  0  0
 10 15  1  1  0  0  0
 11 10  1  0  0  0  0
 12 11  1  0  0  0  0
 12 16  1  0  0  0  0
 13 12  1  0  0  0  0
 13 18  1  1  0  0  0
 17 12  1  0  0  0  0
 20 19  1  0  0  0  0
 21 13  1  0  0  0  0
 22 21  1  0  0  0  0
 23 25  1  0  0  0  0
 24 23  1  0  0  0  0
 26 23  1  0  0  0  0
 26 27  1  0  0  0  0
 28 27  2  0  0  0  0
 29 28  1  0  0  0  0
 30 29  1  0  0  0  0
 30 34  1  0  0  0  0
 31 32  1  0  0  0  0
 31 29  2  0  0  0  0
 32 26  1  0  0  0  0
 33 32  2  0  0  0  0
 35 30  1  0  0  0  0
M  END
>  <minimizedAffinity>
-6.36179972

$$$$

 OpenBabel03242521433D

 35 37  0  0  1  0  0  0  0  0999 V2000
   38.5640   30.8970   41.4080 C   0  0  0  0  0  0  0  0  0  0  0  0
   39.5970   31.5850   40.7580 C   0  0  0  0  0  0  0  0  0  0  0  0
   39.2740   32.3830   39.6490 C   0  0  0  0  0  0  0  0  0  0  0  0
   37.9920   32.4540   39.2570 N   0  0  0  0  0  0  0  0  0  0  0  0
   37.0100   31.7710   39.9140 C   0  0  0  0  0  0  0  0  0  0  0  0
   37.2970   30.9990   40.9800 N   0  0  0  0  0  0  0  0  0  0  0  0
   40.5810   31.4820   41.1220 H   0  0  0  0  0  0  0  0  0  0  0  0
   35.9920   31.8920   39.5200 H   0  0  0  0  0  0  0  0  0  0  0  0
   40.8620   32.4460   37.7310 C   0  0  2  0  0  0  0  0  0  0  0  0
   40.3790   33.0910   38.9970 C   0  0  2  0  0  0  0  0  0  0  0  0
   41.5720   33.1000   39.7470 O   0  0  0  0  0  0  0  0  0  0  0  0
   42.4810   33.6650   38.8690 C   0  0  0  0  0  0  0  0  0  0  0  0
   42.0630   33.3620   37.4570 C   0  0  1  0  0  0  0  0  0  0  0  0
   41.3250   31.4540   37.8980 H   0  0  0  0  0  0  0  0  0  0  0  0
   40.1440   34.1480   38.8030 H   0  0  0  0  0  0  0  0  0  0  0  0
   42.5400   34.7630   39.0200 H   0  0  0  0  0  0  0  0  0  0  0  0
   43.4910   33.2070   39.0160 H   0  0  0  0  0  0  0  0  0  0  0  0
   41.7600   34.2730   36.9200 H   0  0  0  0  0  0  0  0  0  0  0  0
   39.9350   32.4530   36.7190 O   0  0  0  0  0  0  0  0  0  0  0  0
   39.9740   31.5510   36.2720 H   0  0  0  0  0  0  0  0  0  0  0  0
   43.0170   32.6740   36.7350 O   0  0  0  0  0  0  0  0  0  0  0  0
   42.7760   32.6930   35.7850 H   0  0  0  0  0  0  0  0  0  0  0  0
   38.8970   30.0450   42.5900 C   0  0  0  0  0  0  0  0  0  0  0  0
   38.4780   30.4820   43.5170 H   0  0  0  0  0  0  0  0  0  0  0  0
   40.0210   30.0040   42.6510 H   0  0  0  0  0  0  0  0  0  0  0  0
   38.4510   28.6910   42.4500 N   0  0  0  0  0  0  0  0  0  0  0  0
   37.3160   28.3660   43.0990 C   0  0  0  0  0  3  0  0  0  0  0  0
   36.8000   27.0900   43.0310 C   0  0  0  0  0  3  0  0  0  0  0  0
   37.4170   26.0970   42.2990 C   0  0  0  0  0  0  0  0  0  0  0  0
   36.8660   24.7900   42.2440 N   0  0  0  0  0  0  0  0  0  0  0  0
   38.5480   26.4600   41.6650 N   0  0  0  0  0  0  0  0  0  0  0  0
   39.0350   27.7060   41.7440 C   0  0  0  0  0  0  0  0  0  0  0  0
   40.0950   28.0190   41.1410 O   0  0  0  0  0  0  0  0  0  0  0  0
   35.9260   24.6840   41.8010 H   0  0  0  0  0  0  0  0  0  0  0  0
   37.3060   23.9210   42.6030 H   0  0  0  0  0  0  0  0  0  0  0  0
  1 23  1  0  0  0  0
  2  7  1  0  0  0  0
  2  1  2  0  0  0  0
  3  2  1  0  0  0  0
  4  3  2  0  0  0  0
  4  5  1  0  0  0  0
  5  6  2  0  0  0  0
  6  1  1  0  0  0  0
  8  5  1  0  0  0  0
  9 14  1  1  0  0  0
  9 10  1  0  0  0  0
 10 15  1  6  0  0  0
 10  3  1  0  0  0  0
 10 11  1  0  0  0  0
 12 17  1  0  0  0  0
 12 16  1  0  0  0  0
 12 11  1  0  0  0  0
 13 18  1  6  0  0  0
 13  9  1  0  0  0  0
 13 12  1  0  0  0  0
 19  9  1  0  0  0  0
 20 19  1  0  0  0  0
 21 13  1  0  0  0  0
 22 21  1  0  0  0  0
 23 25  1  0  0  0  0
 23 24  1  0  0  0  0
 26 23  1  0  0  0  0
 26 27  1  0  0  0  0
 28 27  2  0  0  0  0
 29 28  1  0  0  0  0
 30 29  1  0  0  0  0
 30 35  1  0  0  0  0
 31 32  1  0  0  0  0
 31 29  2  0  0  0  0
 32 26  1  0  0  0  0
 33 32  2  0  0  0  0
 34 30  1  0  0  0  0
M  END
>  <minimizedAffinity>
-6.09988403

$$$$

 OpenBabel03242521433D

 35 37  0  0  1  0  0  0  0  0999 V2000
   37.6570   29.6810   42.2500 C   0  0  0  0  0  0  0  0  0  0  0  0
   38.8100   30.1800   41.6310 C   0  0  0  0  0  0  0  0  0  0  0  0
   38.6600   31.0370   40.5290 C   0  0  0  0  0  0  0  0  0  0  0  0
   37.4210   31.3420   40.1140 N   0  0  0  0  0  0  0  0  0  0  0  0
   36.3180   30.8380   40.7400 C   0  0  0  0  0  0  0  0  0  0  0  0
   36.4390   30.0150   41.8000 N   0  0  0  0  0  0  0  0  0  0  0  0
   39.7520   29.8970   42.0120 H   0  0  0  0  0  0  0  0  0  0  0  0
   35.3470   31.1460   40.3290 H   0  0  0  0  0  0  0  0  0  0  0  0
   39.6610   32.5760   38.8450 C   0  0  2  0  0  0  0  0  0  0  0  0
   39.8880   31.5420   39.9090 C   0  0  2  0  0  0  0  0  0  0  0  0
   40.5960   30.5730   39.1720 O   0  0  0  0  0  0  0  0  0  0  0  0
   41.5950   31.3170   38.5670 C   0  0  0  0  0  0  0  0  0  0  0  0
   41.1120   32.7250   38.3650 C   0  0  1  0  0  0  0  0  0  0  0  0
   39.1340   32.1760   37.9570 H   0  0  0  0  0  0  0  0  0  0  0  0
   40.6030   31.9300   40.6500 H   0  0  0  0  0  0  0  0  0  0  0  0
   42.5140   31.3160   39.1880 H   0  0  0  0  0  0  0  0  0  0  0  0
   41.8210   30.9000   37.5540 H   0  0  0  0  0  0  0  0  0  0  0  0
   41.6700   33.4390   38.9890 H   0  0  0  0  0  0  0  0  0  0  0  0
   39.1240   33.7470   39.3180 O   0  0  0  0  0  0  0  0  0  0  0  0
   38.4230   34.0420   38.6590 H   0  0  0  0  0  0  0  0  0  0  0  0
   41.1250   33.1300   37.0460 O   0  0  0  0  0  0  0  0  0  0  0  0
   41.0030   34.1020   37.0060 H   0  0  0  0  0  0  0  0  0  0  0  0
   37.8060   28.7700   43.4250 C   0  0  0  0  0  0  0  0  0  0  0  0
   36.9080   28.8140   44.0710 H   0  0  0  0  0  0  0  0  0  0  0  0
   38.7130   29.1220   43.9920 H   0  0  0  0  0  0  0  0  0  0  0  0
   38.0660   27.4110   43.0520 N   0  0  0  0  0  0  0  0  0  0  0  0
   37.0240   26.7190   42.5520 C   0  0  0  0  0  3  0  0  0  0  0  0
   37.1660   25.4040   42.1620 C   0  0  0  0  0  3  0  0  0  0  0  0
   38.3720   24.7450   42.2650 C   0  0  0  0  0  0  0  0  0  0  0  0
   38.4940   23.3910   41.8570 N   0  0  0  0  0  0  0  0  0  0  0  0
   39.3890   25.4690   42.7690 N   0  0  0  0  0  0  0  0  0  0  0  0
   39.2320   26.7470   43.1430 C   0  0  0  0  0  0  0  0  0  0  0  0
   40.2000   27.4010   43.6110 O   0  0  0  0  0  0  0  0  0  0  0  0
   38.3400   23.1790   40.8460 H   0  0  0  0  0  0  0  0  0  0  0  0
   38.7230   22.5830   42.4670 H   0  0  0  0  0  0  0  0  0  0  0  0
  1 23  1  0  0  0  0
  2  7  1  0  0  0  0
  2  1  2  0  0  0  0
  3  2  1  0  0  0  0
  4  3  2  0  0  0  0
  4  5  1  0  0  0  0
  5  6  2  0  0  0  0
  6  1  1  0  0  0  0
  8  5  1  0  0  0  0
  9 14  1  6  0  0  0
  9 19  1  0  0  0  0
  9 10  1  0  0  0  0
 10  3  1  0  0  0  0
 10 15  1  1  0  0  0
 11 10  1  0  0  0  0
 12 11  1  0  0  0  0
 12 16  1  0  0  0  0
 13 12  1  0  0  0  0
 13  9  1  0  0  0  0
 13 18  1  1  0  0  0
 17 12  1  0  0  0  0
 20 19  1  0  0  0  0
 21 13  1  0  0  0  0
 22 21  1  0  0  0  0
 23 25  1  0  0  0  0
 23 24  1  0  0  0  0
 26 32  1  0  0  0  0
 26 23  1  0  0  0  0
 27 26  1  0  0  0  0
 28 29  1  0  0  0  0
 28 27  2  0  0  0  0
 29 31  2  0  0  0  0
 30 29  1  0  0  0  0
 30 35  1  0  0  0  0
 31 32  1  0  0  0  0
 32 33  2  0  0  0  0
 34 30  1  0  0  0  0
M  END
>  <minimizedAffinity>
-5.97767401

$$$$

 OpenBabel03242521433D

 35 37  0  0  1  0  0  0  0  0999 V2000
   37.5550   30.1120   40.9430 C   0  0  0  0  0  0  0  0  0  0  0  0
   38.6280   30.9350   40.5810 C   0  0  0  0  0  0  0  0  0  0  0  0
   38.6610   31.4550   39.2760 C   0  0  0  0  0  0  0  0  0  0  0  0
   37.6650   31.1420   38.4330 N   0  0  0  0  0  0  0  0  0  0  0  0
   36.6330   30.3360   38.8190 C   0  0  0  0  0  0  0  0  0  0  0  0
   36.5820   29.8270   40.0660 N   0  0  0  0  0  0  0  0  0  0  0  0
   39.3750   31.1380   41.2960 H   0  0  0  0  0  0  0  0  0  0  0  0
   35.8650   30.1380   38.0600 H   0  0  0  0  0  0  0  0  0  0  0  0
   40.3600   32.0750   37.5630 C   0  0  2  0  0  0  0  0  0  0  0  0
   39.7960   32.3160   38.9330 C   0  0  2  0  0  0  0  0  0  0  0  0
   40.9420   32.0890   39.7210 O   0  0  0  0  0  0  0  0  0  0  0  0
   41.8970   32.8830   39.1090 C   0  0  0  0  0  0  0  0  0  0  0  0
   41.5670   33.0200   37.6490 C   0  0  1  0  0  0  0  0  0  0  0  0
   40.8220   31.0740   37.4540 H   0  0  0  0  0  0  0  0  0  0  0  0
   39.5630   33.3850   39.0510 H   0  0  0  0  0  0  0  0  0  0  0  0
   41.9360   33.8850   39.5850 H   0  0  0  0  0  0  0  0  0  0  0  0
   42.9000   32.3930   39.1730 H   0  0  0  0  0  0  0  0  0  0  0  0
   41.2870   34.0520   37.3910 H   0  0  0  0  0  0  0  0  0  0  0  0
   39.4950   32.3920   36.5460 O   0  0  0  0  0  0  0  0  0  0  0  0
   39.5690   31.6650   35.8530 H   0  0  0  0  0  0  0  0  0  0  0  0
   42.5680   32.5710   36.8120 O   0  0  0  0  0  0  0  0  0  0  0  0
   42.3840   32.8750   35.8980 H   0  0  0  0  0  0  0  0  0  0  0  0
   37.5100   29.5540   42.3290 C   0  0  0  0  0  0  0  0  0  0  0  0
   36.4990   29.6690   42.7650 H   0  0  0  0  0  0  0  0  0  0  0  0
   38.2640   30.1330   42.9330 H   0  0  0  0  0  0  0  0  0  0  0  0
   37.9110   28.1800   42.3950 N   0  0  0  0  0  0  0  0  0  0  0  0
   36.9410   27.2660   42.2010 C   0  0  0  0  0  3  0  0  0  0  0  0
   37.2180   25.9160   42.2430 C   0  0  0  0  0  3  0  0  0  0  0  0
   38.4920   25.4470   42.4830 C   0  0  0  0  0  0  0  0  0  0  0  0
   38.7540   24.0510   42.5220 N   0  0  0  0  0  0  0  0  0  0  0  0
   39.4340   26.3900   42.6720 N   0  0  0  0  0  0  0  0  0  0  0  0
   39.1450   27.6980   42.6280 C   0  0  0  0  0  0  0  0  0  0  0  0
   40.0440   28.5590   42.8080 O   0  0  0  0  0  0  0  0  0  0  0  0
   38.6020   23.5100   41.6420 H   0  0  0  0  0  0  0  0  0  0  0  0
   39.0840   23.5100   43.3440 H   0  0  0  0  0  0  0  0  0  0  0  0
  1 23  1  0  0  0  0
  2  1  1  0  0  0  0
  2  7  1  0  0  0  0
  3  2  2  0  0  0  0
  4  5  2  0  0  0  0
  4  3  1  0  0  0  0
  5  6  1  0  0  0  0
  6  1  2  0  0  0  0
  8  5  1  0  0  0  0
  9 14  1  6  0  0  0
  9 13  1  0  0  0  0
  9 10  1  0  0  0  0
 10 15  1  1  0  0  0
 10  3  1  0  0  0  0
 10 11  1  0  0  0  0
 12 17  1  0  0  0  0
 12 16  1  0  0  0  0
 12 11  1  0  0  0  0
 13 18  1  6  0  0  0
 13 12  1  0  0  0  0
 19  9  1  0  0  0  0
 20 19  1  0  0  0  0
 21 13  1  0  0  0  0
 22 21  1  0  0  0  0
 23 26  1  0  0  0  0
 23 24  1  0  0  0  0
 23 25  1  0  0  0  0
 26 32  1  0  0  0  0
 27 28  2  0  0  0  0
 27 26  1  0  0  0  0
 28 29  1  0  0  0  0
 29 30  1  0  0  0  0
 29 31  2  0  0  0  0
 30 35  1  0  0  0  0
 32 31  1  0  0  0  0
 32 33  2  0  0  0  0
 34 30  1  0  0  0  0
M  END
>  <minimizedAffinity>
-5.89732075

$$$$

 OpenBabel03242521433D

 35 37  0  0  1  0  0  0  0  0999 V2000
   36.9420   29.0860   41.7390 C   0  0  0  0  0  0  0  0  0  0  0  0
   36.6690   27.7840   41.3030 C   0  0  0  0  0  0  0  0  0  0  0  0
   37.3320   26.7160   41.9310 C   0  0  0  0  0  0  0  0  0  0  0  0
   38.1970   26.9870   42.9210 N   0  0  0  0  0  0  0  0  0  0  0  0
   38.4390   28.2690   43.3210 C   0  0  0  0  0  0  0  0  0  0  0  0
   37.8150   29.3090   42.7330 N   0  0  0  0  0  0  0  0  0  0  0  0
   35.9780   27.6460   40.5200 H   0  0  0  0  0  0  0  0  0  0  0  0
   39.1620   28.3910   44.1390 H   0  0  0  0  0  0  0  0  0  0  0  0
   38.1860   24.4220   41.4670 C   0  0  2  0  0  0  0  0  0  0  0  0
   37.0200   25.3670   41.4520 C   0  0  2  0  0  0  0  0  0  0  0  0
   36.6690   25.3140   40.0880 O   0  0  0  0  0  0  0  0  0  0  0  0
   36.5870   23.9520   39.8460 C   0  0  0  0  0  0  0  0  0  0  0  0
   37.5130   23.2250   40.7800 C   0  0  1  0  0  0  0  0  0  0  0  0
   38.9870   24.7110   40.7590 H   0  0  0  0  0  0  0  0  0  0  0  0
   36.1750   24.9150   41.9910 H   0  0  0  0  0  0  0  0  0  0  0  0
   35.5470   23.5920   39.9860 H   0  0  0  0  0  0  0  0  0  0  0  0
   36.9300   23.7280   38.8060 H   0  0  0  0  0  0  0  0  0  0  0  0
   36.9590   22.6080   41.5020 H   0  0  0  0  0  0  0  0  0  0  0  0
   38.6480   24.1340   42.7270 O   0  0  0  0  0  0  0  0  0  0  0  0
   39.6540   24.1420   42.6850 H   0  0  0  0  0  0  0  0  0  0  0  0
   38.4660   22.4660   40.1330 O   0  0  0  0  0  0  0  0  0  0  0  0
   38.8930   21.8650   40.7800 H   0  0  0  0  0  0  0  0  0  0  0  0
   36.2410   30.2290   41.0790 C   0  0  0  0  0  0  0  0  0  0  0  0
   36.1130   31.0710   41.7850 H   0  0  0  0  0  0  0  0  0  0  0  0
   35.2370   29.8420   40.7460 H   0  0  0  0  0  0  0  0  0  0  0  0
   36.9070   30.6890   39.8960 N   0  0  0  0  0  0  0  0  0  0  0  0
   37.9620   31.5040   40.0850 C   0  0  0  0  0  3  0  0  0  0  0  0
   38.6740   32.0030   39.0150 C   0  0  0  0  0  3  0  0  0  0  0  0
   38.3400   31.6900   37.7140 C   0  0  0  0  0  0  0  0  0  0  0  0
   39.0890   32.2160   36.6280 N   0  0  0  0  0  0  0  0  0  0  0  0
   37.2800   30.8730   37.5670 N   0  0  0  0  0  0  0  0  0  0  0  0
   36.6000   30.3980   38.6190 C   0  0  0  0  0  0  0  0  0  0  0  0
   35.6130   29.6360   38.4530 O   0  0  0  0  0  0  0  0  0  0  0  0
   40.0910   31.9330   36.5550 H   0  0  0  0  0  0  0  0  0  0  0  0
   38.7370   32.8600   35.8940 H   0  0  0  0  0  0  0  0  0  0  0  0
  1  6  1  0  0  0  0
  2  1  2  0  0  0  0
  2  3  1  0  0  0  0
  3  4  2  0  0  0  0
  4  5  1  0  0  0  0
  5  8  1  0  0  0  0
  6  5  2  0  0  0  0
  7  2  1  0  0  0  0
  9 14  1  6  0  0  0
  9 19  1  0  0  0  0
 10  9  1  0  0  0  0
 10  3  1  0  0  0  0
 10 15  1  1  0  0  0
 11 10  1  0  0  0  0
 12 16  1  0  0  0  0
 12 11  1  0  0  0  0
 12 13  1  0  0  0  0
 13  9  1  0  0  0  0
 13 18  1  1  0  0  0
 17 12  1  0  0  0  0
 20 19  1  0  0  0  0
 21 13  1  0  0  0  0
 21 22  1  0  0  0  0
 23  1  1  0  0  0  0
 23 24  1  0  0  0  0
 25 23  1  0  0  0  0
 26 27  1  0  0  0  0
 26 23  1  0  0  0  0
 28 27  2  0  0  0  0
 29 28  1  0  0  0  0
 30 29  1  0  0  0  0
 31 29  2  0  0  0  0
 31 32  1  0  0  0  0
 32 26  1  0  0  0  0
 33 32  2  0  0  0  0
 34 30  1  0  0  0  0
 35 30  1  0  0  0  0
M  END
>  <minimizedAffinity>
-5.82709122

$$$$

 OpenBabel03242521433D

 35 37  0  0  1  0  0  0  0  0999 V2000
   37.4710   27.9560   41.8060 C   0  0  0  0  0  0  0  0  0  0  0  0
   37.6350   27.4940   40.4950 C   0  0  0  0  0  0  0  0  0  0  0  0
   37.5440   28.4210   39.4430 C   0  0  0  0  0  0  0  0  0  0  0  0
   37.3040   29.7080   39.7380 N   0  0  0  0  0  0  0  0  0  0  0  0
   37.1500   30.1240   41.0280 C   0  0  0  0  0  0  0  0  0  0  0  0
   37.2330   29.2520   42.0530 N   0  0  0  0  0  0  0  0  0  0  0  0
   37.8220   26.4680   40.3380 H   0  0  0  0  0  0  0  0  0  0  0  0
   36.9570   31.1970   41.1700 H   0  0  0  0  0  0  0  0  0  0  0  0
   37.8970   28.9650   37.0380 C   0  0  2  0  0  0  0  0  0  0  0  0
   37.7240   27.9030   38.0850 C   0  0  2  0  0  0  0  0  0  0  0  0
   36.5960   27.2290   37.5760 O   0  0  0  0  0  0  0  0  0  0  0  0
   36.9490   26.9910   36.2590 C   0  0  0  0  0  0  0  0  0  0  0  0
   37.9010   28.0590   35.7980 C   0  0  1  0  0  0  0  0  0  0  0  0
   36.9930   29.5900   36.9000 H   0  0  0  0  0  0  0  0  0  0  0  0
   38.5530   27.1830   38.0160 H   0  0  0  0  0  0  0  0  0  0  0  0
   37.4210   25.9920   36.1550 H   0  0  0  0  0  0  0  0  0  0  0  0
   36.0450   27.0530   35.6030 H   0  0  0  0  0  0  0  0  0  0  0  0
   38.9030   27.6530   35.6010 H   0  0  0  0  0  0  0  0  0  0  0  0
   39.0500   29.6960   37.1780 O   0  0  0  0  0  0  0  0  0  0  0  0
   38.8160   30.6600   37.0030 H   0  0  0  0  0  0  0  0  0  0  0  0
   37.4480   28.7680   34.7040 O   0  0  0  0  0  0  0  0  0  0  0  0
   38.1870   29.2940   34.3330 H   0  0  0  0  0  0  0  0  0  0  0  0
   37.5680   26.9780   42.9330 C   0  0  0  0  0  0  0  0  0  0  0  0
   36.7910   26.1960   42.8400 H   0  0  0  0  0  0  0  0  0  0  0  0
   37.4200   27.5660   43.8820 H   0  0  0  0  0  0  0  0  0  0  0  0
   38.8600   26.3660   43.0360 N   0  0  0  0  0  0  0  0  0  0  0  0
   39.8600   27.1550   43.4720 C   0  0  0  0  0  3  0  0  0  0  0  0
   41.1420   26.6670   43.6080 C   0  0  0  0  0  3  0  0  0  0  0  0
   41.4540   25.3580   43.3060 C   0  0  0  0  0  0  0  0  0  0  0  0
   42.7820   24.8780   43.4540 N   0  0  0  0  0  0  0  0  0  0  0  0
   40.4280   24.6010   42.8730 N   0  0  0  0  0  0  0  0  0  0  0  0
   39.1880   25.0940   42.7460 C   0  0  0  0  0  0  0  0  0  0  0  0
   38.2470   24.3650   42.3390 O   0  0  0  0  0  0  0  0  0  0  0  0
   43.1830   24.8650   44.4180 H   0  0  0  0  0  0  0  0  0  0  0  0
   43.4000   24.5340   42.6930 H   0  0  0  0  0  0  0  0  0  0  0  0
  1  6  1  0  0  0  0
  1 23  1  0  0  0  0
  2  1  2  0  0  0  0
  3  4  2  0  0  0  0
  3  2  1  0  0  0  0
  4  5  1  0  0  0  0
  5  8  1  0  0  0  0
  5  6  2  0  0  0  0
  7  2  1  0  0  0  0
  9 14  1  6  0  0  0
  9 19  1  0  0  0  0
  9 10  1  0  0  0  0
 10 15  1  6  0  0  0
 10  3  1  0  0  0  0
 11 10  1  0  0  0  0
 12 11  1  0  0  0  0
 13 18  1  6  0  0  0
 13 12  1  0  0  0  0
 13  9  1  0  0  0  0
 16 12  1  0  0  0  0
 17 12  1  0  0  0  0
 20 19  1  0  0  0  0
 21 13  1  0  0  0  0
 22 21  1  0  0  0  0
 23 26  1  0  0  0  0
 23 25  1  0  0  0  0
 24 23  1  0  0  0  0
 26 27  1  0  0  0  0
 27 28  2  0  0  0  0
 29 30  1  0  0  0  0
 29 28  1  0  0  0  0
 30 34  1  0  0  0  0
 31 29  2  0  0  0  0
 32 31  1  0  0  0  0
 32 26  1  0  0  0  0
 33 32  2  0  0  0  0
 35 30  1  0  0  0  0
M  END
>  <minimizedAffinity>
-5.5768075

$$$$

 OpenBabel03242521433D

 35 37  0  0  1  0  0  0  0  0999 V2000
   39.4150   31.8970   39.2500 C   0  0  0  0  0  0  0  0  0  0  0  0
   38.9000   30.8780   40.0610 C   0  0  0  0  0  0  0  0  0  0  0  0
   37.9930   29.9670   39.4960 C   0  0  0  0  0  0  0  0  0  0  0  0
   37.6580   30.1090   38.2040 N   0  0  0  0  0  0  0  0  0  0  0  0
   38.1790   31.1140   37.4420 C   0  0  0  0  0  0  0  0  0  0  0  0
   39.0500   32.0000   37.9640 N   0  0  0  0  0  0  0  0  0  0  0  0
   39.2090   30.8270   41.0680 H   0  0  0  0  0  0  0  0  0  0  0  0
   37.8450   31.1490   36.3960 H   0  0  0  0  0  0  0  0  0  0  0  0
   36.8300   29.4170   41.6290 C   0  0  2  0  0  0  0  0  0  0  0  0
   37.4790   28.9120   40.3730 C   0  0  2  0  0  0  0  0  0  0  0  0
   38.4810   28.0870   40.9210 O   0  0  0  0  0  0  0  0  0  0  0  0
   37.7750   27.3020   41.8170 C   0  0  0  0  0  0  0  0  0  0  0  0
   36.5770   28.0640   42.3100 C   0  0  1  0  0  0  0  0  0  0  0  0
   37.5400   29.9230   42.3120 H   0  0  0  0  0  0  0  0  0  0  0  0
   36.7890   28.2320   39.8520 H   0  0  0  0  0  0  0  0  0  0  0  0
   37.4510   26.3550   41.3370 H   0  0  0  0  0  0  0  0  0  0  0  0
   38.4090   27.0770   42.7100 H   0  0  0  0  0  0  0  0  0  0  0  0
   35.6370   27.6100   41.9650 H   0  0  0  0  0  0  0  0  0  0  0  0
   35.6810   30.1340   41.4070 O   0  0  0  0  0  0  0  0  0  0  0  0
   35.7000   30.9280   42.0260 H   0  0  0  0  0  0  0  0  0  0  0  0
   36.5540   28.2310   43.6790 O   0  0  0  0  0  0  0  0  0  0  0  0
   35.6650   28.5430   43.9510 H   0  0  0  0  0  0  0  0  0  0  0  0
   40.3820   32.8710   39.8420 C   0  0  0  0  0  0  0  0  0  0  0  0
   40.5890   32.6230   40.9000 H   0  0  0  0  0  0  0  0  0  0  0  0
   39.9010   33.8880   39.7650 H   0  0  0  0  0  0  0  0  0  0  0  0
   41.6130   32.9520   39.1140 N   0  0  0  0  0  0  0  0  0  0  0  0
   41.7340   33.9860   38.2590 C   0  0  0  0  0  3  0  0  0  0  0  0
   42.8780   34.1580   37.5090 C   0  0  0  0  0  3  0  0  0  0  0  0
   43.9420   33.2860   37.6020 C   0  0  0  0  0  0  0  0  0  0  0  0
   45.1100   33.4830   36.8200 N   0  0  0  0  0  0  0  0  0  0  0  0
   43.7840   32.2660   38.4670 N   0  0  0  0  0  0  0  0  0  0  0  0
   42.6630   32.1150   39.1870 C   0  0  0  0  0  0  0  0  0  0  0  0
   42.5420   31.1530   39.9890 O   0  0  0  0  0  0  0  0  0  0  0  0
   45.6640   34.3510   36.9960 H   0  0  0  0  0  0  0  0  0  0  0  0
   45.4720   32.8460   36.0840 H   0  0  0  0  0  0  0  0  0  0  0  0
  1 23  1  0  0  0  0
  1  2  1  0  0  0  0
  2  7  1  0  0  0  0
  3  2  2  0  0  0  0
  3 10  1  0  0  0  0
  4  3  1  0  0  0  0
  5  6  1  0  0  0  0
  5  4  2  0  0  0  0
  6  1  2  0  0  0  0
  8  5  1  0  0  0  0
  9 13  1  0  0  0  0
  9 14  1  1  0  0  0
 10 15  1  6  0  0  0
 10 11  1  0  0  0  0
 10  9  1  0  0  0  0
 11 12  1  0  0  0  0
 12 13  1  0  0  0  0
 12 17  1  0  0  0  0
 13 18  1  6  0  0  0
 13 21  1  0  0  0  0
 16 12  1  0  0  0  0
 19  9  1  0  0  0  0
 19 20  1  0  0  0  0
 21 22  1  0  0  0  0
 23 24  1  0  0  0  0
 25 23  1  0  0  0  0
 26 32  1  0  0  0  0
 26 23  1  0  0  0  0
 27 26  1  0  0  0  0
 28 29  1  0  0  0  0
 28 27  2  0  0  0  0
 29 31  2  0  0  0  0
 30 34  1  0  0  0  0
 30 29  1  0  0  0  0
 31 32  1  0  0  0  0
 32 33  2  0  0  0  0
 35 30  1  0  0  0  0
M  END
>  <minimizedAffinity>
-5.44049644

$$$$

 OpenBabel03242521433D

 35 37  0  0  1  0  0  0  0  0999 V2000
   36.8080   25.9540   39.6360 C   0  0  0  0  0  0  0  0  0  0  0  0
   37.3050   27.1410   40.1890 C   0  0  0  0  0  0  0  0  0  0  0  0
   36.8790   28.3630   39.6420 C   0  0  0  0  0  0  0  0  0  0  0  0
   36.0150   28.3430   38.6160 N   0  0  0  0  0  0  0  0  0  0  0  0
   35.5500   27.1680   38.1010 C   0  0  0  0  0  0  0  0  0  0  0  0
   35.9450   25.9840   38.6100 N   0  0  0  0  0  0  0  0  0  0  0  0
   37.9810   27.0810   40.9950 H   0  0  0  0  0  0  0  0  0  0  0  0
   34.8460   27.2530   37.2620 H   0  0  0  0  0  0  0  0  0  0  0  0
   36.4720   30.7510   40.2240 C   0  0  2  0  0  0  0  0  0  0  0  0
   37.4160   29.5840   40.2480 C   0  0  2  0  0  0  0  0  0  0  0  0
   38.5120   30.1320   39.5520 O   0  0  0  0  0  0  0  0  0  0  0  0
   38.7220   31.3330   40.2080 C   0  0  0  0  0  0  0  0  0  0  0  0
   37.4220   31.8190   40.7840 C   0  0  1  0  0  0  0  0  0  0  0  0
   36.2520   31.1100   39.2000 H   0  0  0  0  0  0  0  0  0  0  0  0
   37.7720   29.4220   41.2760 H   0  0  0  0  0  0  0  0  0  0  0  0
   39.4730   31.2110   41.0160 H   0  0  0  0  0  0  0  0  0  0  0  0
   39.0690   32.1100   39.4820 H   0  0  0  0  0  0  0  0  0  0  0  0
   37.4360   31.8080   41.8830 H   0  0  0  0  0  0  0  0  0  0  0  0
   35.3490   30.5690   40.9920 O   0  0  0  0  0  0  0  0  0  0  0  0
   34.5670   30.9240   40.4670 H   0  0  0  0  0  0  0  0  0  0  0  0
   37.0440   33.0640   40.3220 O   0  0  0  0  0  0  0  0  0  0  0  0
   36.3160   33.4070   40.8810 H   0  0  0  0  0  0  0  0  0  0  0  0
   37.2540   24.6490   40.2110 C   0  0  0  0  0  0  0  0  0  0  0  0
   37.2660   23.8620   39.4330 H   0  0  0  0  0  0  0  0  0  0  0  0
   36.5170   24.3860   41.0220 H   0  0  0  0  0  0  0  0  0  0  0  0
   38.5380   24.7230   40.8430 N   0  0  0  0  0  0  0  0  0  0  0  0
   38.5430   24.6890   42.1890 C   0  0  0  0  0  3  0  0  0  0  0  0
   39.7250   24.7540   42.8970 C   0  0  0  0  0  3  0  0  0  0  0  0
   40.9440   24.8550   42.2610 C   0  0  0  0  0  0  0  0  0  0  0  0
   42.1480   24.9200   43.0110 N   0  0  0  0  0  0  0  0  0  0  0  0
   40.8980   24.8860   40.9160 N   0  0  0  0  0  0  0  0  0  0  0  0
   39.7390   24.8220   40.2450 C   0  0  0  0  0  0  0  0  0  0  0  0
   39.7250   24.8530   38.9870 O   0  0  0  0  0  0  0  0  0  0  0  0
   42.3970   24.0890   43.5930 H   0  0  0  0  0  0  0  0  0  0  0  0
   42.8120   25.7180   43.0400 H   0  0  0  0  0  0  0  0  0  0  0  0
  1  2  1  0  0  0  0
  1 23  1  0  0  0  0
  2  7  1  0  0  0  0
  3  2  2  0  0  0  0
  3 10  1  0  0  0  0
  4  3  1  0  0  0  0
  5  6  1  0  0  0  0
  5  4  2  0  0  0  0
  6  1  2  0  0  0  0
  8  5  1  0  0  0  0
  9 14  1  6  0  0  0
  9 10  1  0  0  0  0
  9 13  1  0  0  0  0
  9 19  1  0  0  0  0
 10 15  1  1  0  0  0
 11 12  1  0  0  0  0
 11 10  1  0  0  0  0
 12 13  1  0  0  0  0
 12 16  1  0  0  0  0
 13 18  1  1  0  0  0
 17 12  1  0  0  0  0
 20 19  1  0  0  0  0
 21 13  1  0  0  0  0
 21 22  1  0  0  0  0
 23 26  1  0  0  0  0
 23 25  1  0  0  0  0
 24 23  1  0  0  0  0
 26 27  1  0  0  0  0
 27 28  2  0  0  0  0
 29 28  1  0  0  0  0
 29 30  1  0  0  0  0
 30 35  1  0  0  0  0
 30 34  1  0  0  0  0
 31 29  2  0  0  0  0
 32 26  1  0  0  0  0
 32 31  1  0  0  0  0
 33 32  2  0  0  0  0
M  END
>  <minimizedAffinity>
-5.38963318

$$$$

 OpenBabel03242521433D

 35 37  0  0  1  0  0  0  0  0999 V2000
   36.7030   29.1130   41.1840 C   0  0  0  0  0  0  0  0  0  0  0  0
   37.6010   30.1400   40.8660 C   0  0  0  0  0  0  0  0  0  0  0  0
   38.5960   30.4710   41.8000 C   0  0  0  0  0  0  0  0  0  0  0  0
   38.6470   29.7920   42.9550 N   0  0  0  0  0  0  0  0  0  0  0  0
   37.7570   28.7950   43.2340 C   0  0  0  0  0  0  0  0  0  0  0  0
   36.7930   28.4610   42.3530 N   0  0  0  0  0  0  0  0  0  0  0  0
   37.5010   30.6310   39.9380 H   0  0  0  0  0  0  0  0  0  0  0  0
   37.8780   28.2960   44.2050 H   0  0  0  0  0  0  0  0  0  0  0  0
   38.9660   32.5160   40.4260 C   0  0  2  0  0  0  0  0  0  0  0  0
   39.5190   31.5480   41.4310 C   0  0  2  0  0  0  0  0  0  0  0  0
   40.6690   31.1040   40.7480 O   0  0  0  0  0  0  0  0  0  0  0  0
   41.2790   32.2900   40.3730 C   0  0  0  0  0  0  0  0  0  0  0  0
   40.2330   33.3550   40.2040 C   0  0  1  0  0  0  0  0  0  0  0  0
   38.7820   32.0560   39.4360 H   0  0  0  0  0  0  0  0  0  0  0  0
   39.8910   32.1010   42.3060 H   0  0  0  0  0  0  0  0  0  0  0  0
   42.0220   32.6050   41.1350 H   0  0  0  0  0  0  0  0  0  0  0  0
   41.7820   32.1650   39.3820 H   0  0  0  0  0  0  0  0  0  0  0  0
   40.3300   34.1450   40.9630 H   0  0  0  0  0  0  0  0  0  0  0  0
   37.9060   33.2520   40.8930 O   0  0  0  0  0  0  0  0  0  0  0  0
   37.2250   33.2980   40.1520 H   0  0  0  0  0  0  0  0  0  0  0  0
   40.2080   33.9070   38.9390 O   0  0  0  0  0  0  0  0  0  0  0  0
   39.6610   34.7210   38.9540 H   0  0  0  0  0  0  0  0  0  0  0  0
   35.6410   28.7520   40.1970 C   0  0  0  0  0  0  0  0  0  0  0  0
   34.8140   29.4870   40.2250 H   0  0  0  0  0  0  0  0  0  0  0  0
   35.2660   27.7300   40.4880 H   0  0  0  0  0  0  0  0  0  0  0  0
   36.1360   28.6320   38.8570 N   0  0  0  0  0  0  0  0  0  0  0  0
   35.8780   29.6640   38.0320 C   0  0  0  0  0  3  0  0  0  0  0  0
   36.3100   29.6510   36.7220 C   0  0  0  0  0  3  0  0  0  0  0  0
   37.0200   28.5890   36.2050 C   0  0  0  0  0  0  0  0  0  0  0  0
   37.4540   28.5980   34.8530 N   0  0  0  0  0  0  0  0  0  0  0  0
   37.2580   27.5770   37.0610 N   0  0  0  0  0  0  0  0  0  0  0  0
   36.8300   27.6070   38.3310 C   0  0  0  0  0  0  0  0  0  0  0  0
   37.0660   26.6470   39.1090 O   0  0  0  0  0  0  0  0  0  0  0  0
   38.1400   29.3340   34.5750 H   0  0  0  0  0  0  0  0  0  0  0  0
   37.1550   27.9410   34.1070 H   0  0  0  0  0  0  0  0  0  0  0  0
  1  6  1  0  0  0  0
  2  1  2  0  0  0  0
  2  3  1  0  0  0  0
  3  4  2  0  0  0  0
  4  5  1  0  0  0  0
  5  8  1  0  0  0  0
  6  5  2  0  0  0  0
  7  2  1  0  0  0  0
  9 14  1  6  0  0  0
  9 19  1  0  0  0  0
  9 10  1  0  0  0  0
 10  3  1  0  0  0  0
 10 15  1  1  0  0  0
 11 10  1  0  0  0  0
 12 11  1  0  0  0  0
 12 16  1  0  0  0  0
 13 12  1  0  0  0  0
 13  9  1  0  0  0  0
 13 18  1  1  0  0  0
 17 12  1  0  0  0  0
 20 19  1  0  0  0  0
 21 22  1  0  0  0  0
 21 13  1  0  0  0  0
 23 24  1  0  0  0  0
 23 25  1  0  0  0  0
 23  1  1  0  0  0  0
 26 23  1  0  0  0  0
 27 26  1  0  0  0  0
 28 27  2  0  0  0  0
 29 28  1  0  0  0  0
 29 31  2  0  0  0  0
 30 29  1  0  0  0  0
 31 32  1  0  0  0  0
 32 26  1  0  0  0  0
 32 33  2  0  0  0  0
 34 30  1  0  0  0  0
 35 30  1  0  0  0  0
M  END
>  <minimizedAffinity>
-5.38286781

$$$$
