
 OpenBabel03252502343D

 41 43  0  0  1  0  0  0  0  0999 V2000
   45.9180   30.7420   44.3860 C   0  0  2  0  0  0  0  0  0  0  0  0
   44.7870   30.3230   43.4360 C   0  0  0  0  0  0  0  0  0  0  0  0
   44.6810   28.8070   43.6670 C   0  0  0  0  0  0  0  0  0  0  0  0
   43.9920   28.7040   45.0110 C   0  0  0  0  0  0  0  0  0  0  0  0
   44.8400   29.2740   46.0870 C   0  0  0  0  0  0  0  0  0  0  0  0
   45.4650   30.6040   45.7990 C   0  0  1  0  0  0  0  0  0  0  0  0
   46.7400   30.0400   44.1050 H   0  0  0  0  0  0  0  0  0  0  0  0
   43.8420   30.8020   43.6970 H   0  0  0  0  0  0  0  0  0  0  0  0
   45.1220   30.4770   42.3960 H   0  0  0  0  0  0  0  0  0  0  0  0
   45.7130   28.3850   43.8350 H   0  0  0  0  0  0  0  0  0  0  0  0
   44.1210   28.3000   42.8810 H   0  0  0  0  0  0  0  0  0  0  0  0
   43.7530   27.6650   45.2810 H   0  0  0  0  0  0  0  0  0  0  0  0
   43.0220   29.2440   44.8970 H   0  0  0  0  0  0  0  0  0  0  0  0
   45.5640   28.5180   46.4530 H   0  0  0  0  0  0  0  0  0  0  0  0
   44.1540   29.4330   46.9700 H   0  0  0  0  0  0  0  0  0  0  0  0
   44.6910   31.3830   45.9640 H   0  0  0  0  0  0  0  0  0  0  0  0
   46.5000   30.8330   46.7450 N   0  0  0  0  0  0  0  0  0  0  0  0
   47.6100   30.1070   46.9030 C   0  0  0  0  0  0  0  0  0  0  0  0
   48.5960   30.3610   47.8340 C   0  0  0  0  0  0  0  0  0  0  0  0
   48.4140   31.4600   48.6750 C   0  0  0  0  0  0  0  0  0  0  0  0
   49.3900   31.7890   49.6660 N   0  0  0  0  0  0  0  0  0  0  0  0
   47.2950   32.1870   48.5100 N   0  0  0  0  0  0  0  0  0  0  0  0
   46.3700   31.8980   47.5910 C   0  0  0  0  0  0  0  0  0  0  0  0
   45.3670   32.6750   47.5560 O   0  0  0  0  0  0  0  0  0  0  0  0
   50.2520   32.3770   49.6220 H   0  0  0  0  0  0  0  0  0  0  0  0
   49.1040   31.3090   50.5650 H   0  0  0  0  0  0  0  0  0  0  0  0
   47.8270   33.7100   43.1100 C   0  0  0  0  0  0  0  0  0  0  0  0
   47.5550   32.3700   43.4420 C   0  0  0  0  0  0  0  0  0  0  0  0
   46.2950   32.0930   44.0080 C   0  0  0  0  0  0  0  0  0  0  0  0
   45.4400   33.1360   44.1920 N   0  0  0  0  0  0  0  0  0  0  0  0
   45.7350   34.3950   43.8640 C   0  0  0  0  0  0  0  0  0  0  0  0
   46.9350   34.6840   43.3200 N   0  0  0  0  0  0  0  0  0  0  0  0
   48.2540   31.5600   43.2840 H   0  0  0  0  0  0  0  0  0  0  0  0
   49.1740   33.9740   42.5100 C   0  0  0  0  0  0  0  0  0  0  0  0
   49.0860   34.1850   41.1470 F   0  0  0  0  0  0  0  0  0  0  0  0
   49.7240   35.0820   43.1550 F   0  0  0  0  0  0  0  0  0  0  0  0
   50.0290   32.9150   42.7890 F   0  0  0  0  0  0  0  0  0  0  0  0
   44.7570   35.5000   44.0890 C   0  0  0  0  0  0  0  0  0  0  0  0
   43.6380   35.3430   43.3310 F   0  0  0  0  0  0  0  0  0  0  0  0
   45.3810   36.7380   43.8190 F   0  0  0  0  0  0  0  0  0  0  0  0
   44.4160   35.5970   45.4150 F   0  0  0  0  0  0  0  0  0  0  0  0
  1  7  1  6  0  0  0
  1  6  1  0  0  0  0
  2  3  1  0  0  0  0
  2  8  1  0  0  0  0
  2  1  1  0  0  0  0
  3 10  1  0  0  0  0
  3  4  1  0  0  0  0
  4 12  1  0  0  0  0
  4  5  1  0  0  0  0
  5 14  1  0  0  0  0
  5 15  1  0  0  0  0
  6 16  1  1  0  0  0
  6  5  1  0  0  0  0
  6 17  1  0  0  0  0
  9  2  1  0  0  0  0
 11  3  1  0  0  0  0
 13  4  1  0  0  0  0
 17 18  1  0  0  0  0
 17 23  1  0  0  0  0
 18 19  2  0  0  0  0
 19 20  1  0  0  0  0
 20 21  1  0  0  0  0
 21 26  1  0  0  0  0
 22 20  2  0  0  0  0
 23 22  1  0  0  0  0
 24 23  2  0  0  0  0
 25 21  1  0  0  0  0
 27 32  2  0  0  0  0
 27 28  1  0  0  0  0
 28 29  2  0  0  0  0
 29 30  1  0  0  0  0
 29  1  1  0  0  0  0
 31 38  1  0  0  0  0
 31 30  2  0  0  0  0
 32 31  1  0  0  0  0
 33 28  1  0  0  0  0
 34 37  1  0  0  0  0
 34 27  1  0  0  0  0
 34 36  1  0  0  0  0
 35 34  1  0  0  0  0
 38 41  1  0  0  0  0
 39 38  1  0  0  0  0
 40 38  1  0  0  0  0
M  END
>  <minimizedAffinity>
-6.19246244

>  <minimizedRMSD>
2.59046698

$$$$
