
 OpenBabel03242511083D

 44 48  0  0  1  0  0  0  0  0999 V2000
   47.2240   32.9410   44.2000 C   0  0  0  0  0  0  0  0  0  0  0  0
   47.2040   32.1190   45.3190 C   0  0  0  0  0  0  0  0  0  0  0  0
   46.3580   32.3300   46.4070 C   0  0  0  0  0  0  0  0  0  0  0  0
   45.4890   33.4000   46.3970 C   0  0  0  0  0  0  0  0  0  0  0  0
   45.4780   34.2230   45.3230 C   0  0  0  0  0  0  0  0  0  0  0  0
   44.6160   35.3000   45.2790 C   0  0  0  0  0  0  0  0  0  0  0  0
   44.5510   36.1680   44.2210 C   0  0  0  0  0  0  0  0  0  0  0  0
   45.4120   35.9200   43.1580 C   0  0  0  0  0  0  0  0  0  0  0  0
   46.2790   34.8360   43.2040 C   0  0  0  0  0  0  0  0  0  0  0  0
   46.3340   33.9790   44.2620 C   0  0  0  0  0  0  0  0  0  0  0  0
   47.8390   31.2530   45.4330 H   0  0  0  0  0  0  0  0  0  0  0  0
   46.3560   31.6810   47.2700 H   0  0  0  0  0  0  0  0  0  0  0  0
   44.8310   33.5650   47.2410 H   0  0  0  0  0  0  0  0  0  0  0  0
   43.9720   35.4410   46.1330 H   0  0  0  0  0  0  0  0  0  0  0  0
   43.8330   36.9810   44.2980 H   0  0  0  0  0  0  0  0  0  0  0  0
   45.2860   36.6620   42.3680 H   0  0  0  0  0  0  0  0  0  0  0  0
   47.0210   34.8350   42.0000 N   0  0  0  0  0  0  0  0  0  0  0  0
   48.1570   35.3810   41.5380 C   0  0  0  0  0  3  0  0  0  0  0  0
   48.6450   35.1380   40.2770 C   0  0  0  0  0  3  0  0  0  0  0  0
   47.9880   34.3080   39.4000 C   0  0  0  0  0  0  0  0  0  0  0  0
   48.6080   34.1510   38.1350 N   0  0  0  0  0  0  0  0  0  0  0  0
   46.8380   33.7280   39.8110 N   0  0  0  0  0  0  0  0  0  0  0  0
   46.4120   34.0160   41.0770 C   0  0  0  0  0  0  0  0  0  0  0  0
   45.3200   33.3700   41.2590 O   0  0  0  0  0  0  0  0  0  0  0  0
   49.6190   33.8770   38.1590 H   0  0  0  0  0  0  0  0  0  0  0  0
   47.8810   34.3530   37.4180 H   0  0  0  0  0  0  0  0  0  0  0  0
   48.1130   32.6380   43.1620 N   0  0  0  0  0  0  0  0  0  0  0  0
   48.0100   33.5730   42.7320 H   0  0  0  0  0  0  0  0  0  0  0  0
   50.0770   31.1770   42.5080 C   0  0  1  0  0  0  0  0  0  0  0  0
   48.9040   30.7810   41.6360 C   0  0  0  0  0  0  0  0  0  0  0  0
   48.7330   31.3480   43.0390 C   0  0  2  0  0  0  0  0  0  0  0  0
   50.6710   31.9710   41.9900 H   0  0  0  0  0  0  0  0  0  0  0  0
   48.7550   29.6710   41.5790 H   0  0  0  0  0  0  0  0  0  0  0  0
   48.5550   31.4110   40.8210 H   0  0  0  0  0  0  0  0  0  0  0  0
   48.4520   30.6610   43.8710 H   0  0  0  0  0  0  0  0  0  0  0  0
   52.8140   28.6900   42.6840 C   0  0  0  0  0  0  0  0  0  0  0  0
   52.5710   28.0830   43.9550 C   0  0  0  0  0  0  0  0  0  0  0  0
   51.4740   28.5550   44.7210 C   0  0  0  0  0  0  0  0  0  0  0  0
   50.7190   29.5430   44.2320 N   0  0  0  0  0  0  0  0  0  0  0  0
   50.9760   30.0990   43.0210 C   0  0  0  0  0  0  0  0  0  0  0  0
   52.0260   29.6750   42.2440 N   0  0  0  0  0  0  0  0  0  0  0  0
   53.6520   28.3260   42.1040 H   0  0  0  0  0  0  0  0  0  0  0  0
   53.2340   27.2970   44.2610 H   0  0  0  0  0  0  0  0  0  0  0  0
   51.3060   28.0880   45.6720 H   0  0  0  0  0  0  0  0  0  0  0  0
  1 10  2  0  0  0  0
  1  2  1  0  0  0  0
  2 11  1  0  0  0  0
  2  3  2  0  0  0  0
  3 12  1  0  0  0  0
  4  3  1  0  0  0  0
  4 13  1  0  0  0  0
  5  4  2  0  0  0  0
  6  5  1  0  0  0  0
  6 14  1  0  0  0  0
  7 15  1  0  0  0  0
  7  6  2  0  0  0  0
  8  9  2  0  0  0  0
  8  7  1  0  0  0  0
  9 10  1  0  0  0  0
 10  5  1  0  0  0  0
 16  8  1  0  0  0  0
 17  9  1  0  0  0  0
 18 17  1  0  0  0  0
 19 18  2  0  0  0  0
 20 22  2  0  0  0  0
 20 19  1  0  0  0  0
 21 25  1  0  0  0  0
 21 20  1  0  0  0  0
 22 23  1  0  0  0  0
 23 24  2  0  0  0  0
 23 17  1  0  0  0  0
 26 21  1  0  0  0  0
 27  1  1  0  0  0  0
 28 27  1  0  0  0  0
 29 32  1  6  0  0  0
 29 40  1  0  0  0  0
 29 31  1  0  0  0  0
 30 29  1  0  0  0  0
 30 31  1  0  0  0  0
 31 27  1  0  0  0  0
 31 35  1  1  0  0  0
 33 30  1  0  0  0  0
 34 30  1  0  0  0  0
 36 37  1  0  0  0  0
 37 43  1  0  0  0  0
 37 38  2  0  0  0  0
 38 44  1  0  0  0  0
 39 38  1  0  0  0  0
 40 39  2  0  0  0  0
 41 36  2  0  0  0  0
 41 40  1  0  0  0  0
 42 36  1  0  0  0  0
M  END
>  <minimizedAffinity>
-6.22421694

>  <minimizedRMSD>
2.65671587

$$$$
