
 OpenBabel03252503433D

 35 37  0  0  1  0  0  0  0  0999 V2000
   44.9430   34.9360   45.0890 C   0  0  0  0  0  0  0  0  0  0  0  0
   45.6610   34.6310   43.9240 C   0  0  0  0  0  0  0  0  0  0  0  0
   46.4290   33.4530   43.9530 C   0  0  0  0  0  0  0  0  0  0  0  0
   46.4400   32.6910   45.0620 N   0  0  0  0  0  0  0  0  0  0  0  0
   45.7380   33.0150   46.1600 C   0  0  0  0  0  0  0  0  0  0  0  0
   44.9790   34.1420   46.1910 N   0  0  0  0  0  0  0  0  0  0  0  0
   44.3180   35.8130   45.1890 H   0  0  0  0  0  0  0  0  0  0  0  0
   46.9810   33.2250   43.0500 H   0  0  0  0  0  0  0  0  0  0  0  0
   47.2720   31.7770   47.6810 C   0  0  2  0  0  0  0  0  0  0  0  0
   45.8140   32.1070   47.2930 C   0  0  1  0  0  0  0  0  0  0  0  0
   45.3630   32.6080   48.4830 O   0  0  0  0  0  0  0  0  0  0  0  0
   45.8010   31.7840   49.4740 C   0  0  0  0  0  0  0  0  0  0  0  0
   46.9620   30.9680   48.9450 C   0  0  2  0  0  0  0  0  0  0  0  0
   47.7770   31.1810   46.9220 H   0  0  0  0  0  0  0  0  0  0  0  0
   45.2930   31.1480   47.0390 H   0  0  0  0  0  0  0  0  0  0  0  0
   45.0090   31.1120   49.8620 H   0  0  0  0  0  0  0  0  0  0  0  0
   46.1730   32.3740   50.3430 H   0  0  0  0  0  0  0  0  0  0  0  0
   46.6150   29.9780   48.6130 H   0  0  0  0  0  0  0  0  0  0  0  0
   47.8910   32.9110   48.0920 O   0  0  0  0  0  0  0  0  0  0  0  0
   48.0290   33.6020   47.4010 H   0  0  0  0  0  0  0  0  0  0  0  0
   48.0240   30.8940   49.8090 O   0  0  0  0  0  0  0  0  0  0  0  0
   48.8630   30.8050   49.3050 H   0  0  0  0  0  0  0  0  0  0  0  0
   45.5470   35.5550   42.7970 C   0  0  0  0  0  0  0  0  0  0  0  0
   46.5660   35.6110   42.3120 H   0  0  0  0  0  0  0  0  0  0  0  0
   45.3770   36.5920   43.1560 H   0  0  0  0  0  0  0  0  0  0  0  0
   44.5380   35.1960   41.8250 N   0  0  0  0  0  0  0  0  0  0  0  0
   43.2650   35.5930   42.0160 C   0  0  0  0  0  3  0  0  0  0  0  0
   42.3030   35.2390   41.0700 C   0  0  0  0  0  3  0  0  0  0  0  0
   42.7410   34.4950   39.9940 C   0  0  0  0  0  0  0  0  0  0  0  0
   41.8000   34.1090   39.0020 N   0  0  0  0  0  0  0  0  0  0  0  0
   44.0340   34.1130   39.8360 N   0  0  0  0  0  0  0  0  0  0  0  0
   44.9440   34.4690   40.7630 C   0  0  0  0  0  0  0  0  0  0  0  0
   46.1050   34.0910   40.5630 O   0  0  0  0  0  0  0  0  0  0  0  0
   42.0240   34.7260   38.1680 H   0  0  0  0  0  0  0  0  0  0  0  0
   41.0050   33.4920   38.7580 H   0  0  0  0  0  0  0  0  0  0  0  0
  1  7  1  0  0  0  0
  1  6  1  0  0  0  0
  2  3  1  0  0  0  0
  2  1  2  0  0  0  0
  3  4  2  0  0  0  0
  4  5  1  0  0  0  0
  5  6  2  0  0  0  0
  5 10  1  0  0  0  0
  8  3  1  0  0  0  0
  9 14  1  6  0  0  0
  9 19  1  0  0  0  0
  9 13  1  0  0  0  0
 10 15  1  6  0  0  0
 10  9  1  0  0  0  0
 10 11  1  0  0  0  0
 11 12  1  0  0  0  0
 12 16  1  0  0  0  0
 12 17  1  0  0  0  0
 13 18  1  6  0  0  0
 13 12  1  0  0  0  0
 13 21  1  0  0  0  0
 20 19  1  0  0  0  0
 22 21  1  0  0  0  0
 23 25  1  0  0  0  0
 23  2  1  0  0  0  0
 24 23  1  0  0  0  0
 26 27  1  0  0  0  0
 26 23  1  0  0  0  0
 28 27  2  0  0  0  0
 29 28  1  0  0  0  0
 30 29  1  0  0  0  0
 31 29  2  0  0  0  0
 31 32  1  0  0  0  0
 32 26  1  0  0  0  0
 33 32  2  0  0  0  0
 34 30  1  0  0  0  0
 35 30  1  0  0  0  0
M  END
>  <minimizedAffinity>
-6.23532867

>  <minimizedRMSD>
0.729989946

$$$$
