
 OpenBabel03252507073D

 25 26  0  0  0  0  0  0  0  0999 V2000
   45.4960   34.2040   45.1430 C   0  0  0  0  0  0  0  0  0  0  0  0
   46.0210   34.3370   43.8420 C   0  0  0  0  0  0  0  0  0  0  0  0
   46.8520   33.3330   43.3760 C   0  0  0  0  0  0  0  0  0  0  0  0
   47.1230   32.2730   44.1880 N   0  0  0  0  0  0  0  0  0  0  0  0
   46.6090   32.1760   45.4190 C   0  0  0  0  0  0  0  0  0  0  0  0
   45.7910   33.1380   45.9080 N   0  0  0  0  0  0  0  0  0  0  0  0
   44.8440   34.9210   45.6010 H   0  0  0  0  0  0  0  0  0  0  0  0
   45.7250   35.2320   43.3000 H   0  0  0  0  0  0  0  0  0  0  0  0
   46.9980   31.0010   46.1230 N   0  0  0  0  0  0  0  0  0  0  0  0
   48.2860   30.9440   46.5100 C   0  0  0  0  0  3  0  0  0  0  0  0
   48.6630   29.8050   47.1920 C   0  0  0  0  0  3  0  0  0  0  0  0
   47.7030   28.8400   47.4170 C   0  0  0  0  0  0  0  0  0  0  0  0
   47.9770   27.6270   48.1090 N   0  0  0  0  0  0  0  0  0  0  0  0
   46.4150   28.9630   46.9970 N   0  0  0  0  0  0  0  0  0  0  0  0
   46.0390   30.0820   46.3250 C   0  0  0  0  0  0  0  0  0  0  0  0
   44.8680   30.2660   45.9050 O   0  0  0  0  0  0  0  0  0  0  0  0
   48.0460   26.9100   47.3540 H   0  0  0  0  0  0  0  0  0  0  0  0
   48.1450   27.0840   48.9840 H   0  0  0  0  0  0  0  0  0  0  0  0
   47.3550   33.4920   42.0870 O   0  0  0  0  0  0  0  0  0  0  0  0
   49.8570   32.9210   41.4270 O   0  0  0  0  0  0  0  0  0  0  0  0
   48.9590   34.0670   41.8880 P   0  0  0  0  0  0  0  0  0  0  0  0
   48.9370   35.3230   40.7820 O   0  0  0  0  0  0  0  0  0  0  0  0
   48.8340   36.1810   41.2440 H   0  0  0  0  0  0  0  0  0  0  0  0
   49.5130   34.5670   43.4080 O   0  0  0  0  0  0  0  0  0  0  0  0
   49.7840   33.7230   43.8790 H   0  0  0  0  0  0  0  0  0  0  0  0
  1  7  1  0  0  0  0
  1  6  1  0  0  0  0
  2  1  2  0  0  0  0
  3  2  1  0  0  0  0
  3  4  2  0  0  0  0
  4  5  1  0  0  0  0
  5  6  2  0  0  0  0
  5  9  1  0  0  0  0
  8  2  1  0  0  0  0
  9 15  1  0  0  0  0
  9 10  1  0  0  0  0
 10 11  2  0  0  0  0
 11 12  1  0  0  0  0
 12 13  1  0  0  0  0
 13 18  1  0  0  0  0
 14 12  2  0  0  0  0
 15 14  1  0  0  0  0
 16 15  2  0  0  0  0
 17 13  1  0  0  0  0
 19  3  1  0  0  0  0
 20 21  2  0  0  0  0
 21 19  1  0  0  0  0
 21 24  1  0  0  0  0
 22 23  1  0  0  0  0
 22 21  1  0  0  0  0
 24 25  1  0  0  0  0
M  END
>  <minimizedAffinity>
-4.16218519

>  <minimizedRMSD>
1.94204855

$$$$
