
 OpenBabel03242511353D

 36 38  0  0  1  0  0  0  0  0999 V2000
   37.0930   31.2540   38.9390 C   0  0  0  0  0  3  0  0  0  0  0  0
   37.4650   29.9890   38.9280 C   0  0  0  0  0  3  0  0  0  0  0  0
   38.0960   32.2810   39.1960 C   0  0  0  0  0  0  0  0  0  0  0  0
   37.7280   33.3470   40.0360 C   0  0  0  0  0  0  0  0  0  0  0  0
   38.6640   34.3490   40.3040 C   0  0  0  0  0  0  0  0  0  0  0  0
   39.8950   34.2450   39.7380 N   0  0  0  0  0  0  0  0  0  0  0  0
   40.2170   33.2120   38.9380 C   0  0  0  0  0  0  0  0  0  0  0  0
   39.3180   32.2520   38.6810 N   0  0  0  0  0  0  0  0  0  0  0  0
   36.7330   33.4060   40.4780 H   0  0  0  0  0  0  0  0  0  0  0  0
   38.3630   35.1550   40.9490 H   0  0  0  0  0  0  0  0  0  0  0  0
   41.5290   33.1850   38.3870 N   0  0  0  0  0  0  0  0  0  0  0  0
   42.3810   34.2010   38.6150 C   0  0  0  0  0  3  0  0  0  0  0  0
   43.6590   34.1210   38.0490 C   0  0  0  0  0  3  0  0  0  0  0  0
   43.9210   32.9980   37.3070 C   0  0  0  0  0  0  0  0  0  0  0  0
   45.2200   32.9340   36.7400 N   0  0  0  0  0  0  0  0  0  0  0  0
   43.0530   31.9900   37.0900 N   0  0  0  0  0  0  0  0  0  0  0  0
   41.8260   32.0860   37.6440 C   0  0  0  0  0  0  0  0  0  0  0  0
   40.9930   31.1640   37.4630 O   0  0  0  0  0  0  0  0  0  0  0  0
   45.8430   32.7500   35.9410 H   0  0  0  0  0  0  0  0  0  0  0  0
   46.1410   33.1440   37.2270 H   0  0  0  0  0  0  0  0  0  0  0  0
   36.5070   28.9000   38.6750 C   0  0  0  0  0  0  0  0  0  0  0  0
   36.8410   28.2780   37.8250 H   0  0  0  0  0  0  0  0  0  0  0  0
   35.5150   29.3660   38.4660 H   0  0  0  0  0  0  0  0  0  0  0  0
   36.6320   28.1560   42.2090 C   0  0  1  0  0  0  0  0  0  0  0  0
   35.8090   28.8080   41.0960 C   0  0  0  0  0  0  0  0  0  0  0  0
   36.2980   28.0390   39.9200 C   0  0  2  0  0  0  0  0  0  0  0  0
   37.4010   27.3200   40.2620 O   0  0  0  0  0  0  0  0  0  0  0  0
   37.8950   27.8080   41.4590 C   0  0  0  0  0  0  0  0  0  0  0  0
   36.1530   27.2540   42.6020 H   0  0  0  0  0  0  0  0  0  0  0  0
   36.0650   29.8770   41.0900 H   0  0  0  0  0  0  0  0  0  0  0  0
   34.7210   28.6220   41.3360 H   0  0  0  0  0  0  0  0  0  0  0  0
   35.4980   27.2940   39.6400 H   0  0  0  0  0  0  0  0  0  0  0  0
   38.5010   27.0230   41.9470 H   0  0  0  0  0  0  0  0  0  0  0  0
   38.5500   28.6830   41.3300 H   0  0  0  0  0  0  0  0  0  0  0  0
   36.8500   29.0690   43.2320 O   0  0  0  0  0  0  0  0  0  0  0  0
   37.6290   29.6590   43.0830 H   0  0  0  0  0  0  0  0  0  0  0  0
  1  3  1  0  0  0  0
  2  1  2  0  0  0  0
  3  4  1  0  0  0  0
  4  5  2  0  0  0  0
  4  9  1  0  0  0  0
  5 10  1  0  0  0  0
  6  5  1  0  0  0  0
  7  6  2  0  0  0  0
  8  7  1  0  0  0  0
  8  3  2  0  0  0  0
 11 12  1  0  0  0  0
 11  7  1  0  0  0  0
 13 12  2  0  0  0  0
 14 13  1  0  0  0  0
 15 20  1  0  0  0  0
 15 14  1  0  0  0  0
 16 14  2  0  0  0  0
 16 17  1  0  0  0  0
 17 11  1  0  0  0  0
 18 17  2  0  0  0  0
 19 15  1  0  0  0  0
 21  2  1  0  0  0  0
 21 26  1  0  0  0  0
 22 21  1  0  0  0  0
 23 21  1  0  0  0  0
 24 29  1  1  0  0  0
 24 35  1  0  0  0  0
 25 31  1  0  0  0  0
 25 24  1  0  0  0  0
 26 32  1  6  0  0  0
 26 27  1  0  0  0  0
 26 25  1  0  0  0  0
 27 28  1  0  0  0  0
 28 33  1  0  0  0  0
 28 24  1  0  0  0  0
 30 25  1  0  0  0  0
 34 28  1  0  0  0  0
 36 35  1  0  0  0  0
M  END
>  <minimizedAffinity>
-5.86862326

$$$$

 OpenBabel03242511353D

 36 38  0  0  1  0  0  0  0  0999 V2000
   37.7610   31.3480   39.3780 C   0  0  0  0  0  3  0  0  0  0  0  0
   38.9570   31.5650   39.8880 C   0  0  0  0  0  3  0  0  0  0  0  0
   37.1730   30.0190   39.5020 C   0  0  0  0  0  0  0  0  0  0  0  0
   35.9500   29.7890   38.8460 C   0  0  0  0  0  0  0  0  0  0  0  0
   35.3590   28.5280   38.9430 C   0  0  0  0  0  0  0  0  0  0  0  0
   35.9970   27.5740   39.6720 N   0  0  0  0  0  0  0  0  0  0  0  0
   37.1660   27.8240   40.2880 C   0  0  0  0  0  0  0  0  0  0  0  0
   37.7330   29.0350   40.1940 N   0  0  0  0  0  0  0  0  0  0  0  0
   35.4600   30.5720   38.2670 H   0  0  0  0  0  0  0  0  0  0  0  0
   34.4240   28.3730   38.4350 H   0  0  0  0  0  0  0  0  0  0  0  0
   37.7630   26.7660   41.0300 N   0  0  0  0  0  0  0  0  0  0  0  0
   37.1310   25.5850   41.1560 C   0  0  0  0  0  3  0  0  0  0  0  0
   37.7660   24.5810   41.8960 C   0  0  0  0  0  3  0  0  0  0  0  0
   38.9870   24.9040   42.4280 C   0  0  0  0  0  0  0  0  0  0  0  0
   39.6160   23.8760   43.1760 N   0  0  0  0  0  0  0  0  0  0  0  0
   39.6040   26.0940   42.2910 N   0  0  0  0  0  0  0  0  0  0  0  0
   38.9770   27.0500   41.5740 C   0  0  0  0  0  0  0  0  0  0  0  0
   39.5240   28.1710   41.4260 O   0  0  0  0  0  0  0  0  0  0  0  0
   40.1240   23.5560   44.0130 H   0  0  0  0  0  0  0  0  0  0  0  0
   39.7150   22.8530   42.9000 H   0  0  0  0  0  0  0  0  0  0  0  0
   39.6110   32.8810   39.8000 C   0  0  0  0  0  0  0  0  0  0  0  0
   39.5450   33.4130   40.7660 H   0  0  0  0  0  0  0  0  0  0  0  0
   39.1030   33.4550   38.9900 H   0  0  0  0  0  0  0  0  0  0  0  0
   42.4360   33.4250   37.6140 C   0  0  1  0  0  0  0  0  0  0  0  0
   41.6210   34.0040   38.7720 C   0  0  0  0  0  0  0  0  0  0  0  0
   41.0680   32.7530   39.3570 C   0  0  2  0  0  0  0  0  0  0  0  0
   41.2770   31.7110   38.5070 O   0  0  0  0  0  0  0  0  0  0  0  0
   41.6060   32.2140   37.2610 C   0  0  0  0  0  0  0  0  0  0  0  0
   43.4430   33.1290   37.9250 H   0  0  0  0  0  0  0  0  0  0  0  0
   40.8740   34.6800   38.3340 H   0  0  0  0  0  0  0  0  0  0  0  0
   42.3460   34.5380   39.4530 H   0  0  0  0  0  0  0  0  0  0  0  0
   41.6500   32.5270   40.2970 H   0  0  0  0  0  0  0  0  0  0  0  0
   42.1600   31.4450   36.6940 H   0  0  0  0  0  0  0  0  0  0  0  0
   40.7260   32.4830   36.6580 H   0  0  0  0  0  0  0  0  0  0  0  0
   42.5070   34.3480   36.5780 O   0  0  0  0  0  0  0  0  0  0  0  0
   41.7310   34.3230   35.9670 H   0  0  0  0  0  0  0  0  0  0  0  0
  1  3  1  0  0  0  0
  1  2  2  0  0  0  0
  3  8  1  0  0  0  0
  4  5  1  0  0  0  0
  4  3  2  0  0  0  0
  5  6  2  0  0  0  0
  6  7  1  0  0  0  0
  7 11  1  0  0  0  0
  8  7  2  0  0  0  0
  9  4  1  0  0  0  0
 10  5  1  0  0  0  0
 11 12  1  0  0  0  0
 11 17  1  0  0  0  0
 12 13  2  0  0  0  0
 13 14  1  0  0  0  0
 14 15  1  0  0  0  0
 15 19  1  0  0  0  0
 16 14  2  0  0  0  0
 17 16  1  0  0  0  0
 18 17  2  0  0  0  0
 20 15  1  0  0  0  0
 21  2  1  0  0  0  0
 21 22  1  0  0  0  0
 23 21  1  0  0  0  0
 24 29  1  1  0  0  0
 24 25  1  0  0  0  0
 25 26  1  0  0  0  0
 25 31  1  0  0  0  0
 26 21  1  0  0  0  0
 26 32  1  1  0  0  0
 27 26  1  0  0  0  0
 28 24  1  0  0  0  0
 28 27  1  0  0  0  0
 30 25  1  0  0  0  0
 33 28  1  0  0  0  0
 34 28  1  0  0  0  0
 35 24  1  0  0  0  0
 36 35  1  0  0  0  0
M  END
>  <minimizedAffinity>
-5.86239433

$$$$

 OpenBabel03242511353D

 36 38  0  0  1  0  0  0  0  0999 V2000
   34.4140   29.0980   39.2910 C   0  0  0  0  0  3  0  0  0  0  0  0
   34.6600   28.7190   38.0520 C   0  0  0  0  0  3  0  0  0  0  0  0
   35.5200   29.1710   40.2380 C   0  0  0  0  0  0  0  0  0  0  0  0
   35.8820   30.4440   40.7140 C   0  0  0  0  0  0  0  0  0  0  0  0
   36.9370   30.5510   41.6220 C   0  0  0  0  0  0  0  0  0  0  0  0
   37.5700   29.4120   42.0070 N   0  0  0  0  0  0  0  0  0  0  0  0
   37.2010   28.2080   41.5340 C   0  0  0  0  0  0  0  0  0  0  0  0
   36.1890   28.1060   40.6620 N   0  0  0  0  0  0  0  0  0  0  0  0
   35.3560   31.3430   40.3880 H   0  0  0  0  0  0  0  0  0  0  0  0
   37.1970   31.5340   41.9730 H   0  0  0  0  0  0  0  0  0  0  0  0
   37.9210   27.0680   41.9920 N   0  0  0  0  0  0  0  0  0  0  0  0
   38.9750   27.2170   42.8150 C   0  0  0  0  0  3  0  0  0  0  0  0
   39.6450   26.0610   43.2340 C   0  0  0  0  0  3  0  0  0  0  0  0
   39.1540   24.8730   42.7560 C   0  0  0  0  0  0  0  0  0  0  0  0
   39.8450   23.7130   43.1900 N   0  0  0  0  0  0  0  0  0  0  0  0
   38.0970   24.7450   41.9310 N   0  0  0  0  0  0  0  0  0  0  0  0
   37.4640   25.8700   41.5380 C   0  0  0  0  0  0  0  0  0  0  0  0
   36.4740   25.7870   40.7690 O   0  0  0  0  0  0  0  0  0  0  0  0
   40.2830   22.8010   42.9910 H   0  0  0  0  0  0  0  0  0  0  0  0
   40.1550   23.4860   44.1810 H   0  0  0  0  0  0  0  0  0  0  0  0
   33.5920   28.6230   37.0430 C   0  0  0  0  0  0  0  0  0  0  0  0
   32.9920   29.5510   37.0220 H   0  0  0  0  0  0  0  0  0  0  0  0
   32.9590   27.7430   37.3060 H   0  0  0  0  0  0  0  0  0  0  0  0
   36.1540   28.5120   34.4980 C   0  0  1  0  0  0  0  0  0  0  0  0
   35.5420   27.7730   35.6910 C   0  0  0  0  0  0  0  0  0  0  0  0
   34.1580   28.3190   35.6580 C   0  0  2  0  0  0  0  0  0  0  0  0
   34.0990   29.3840   34.8120 O   0  0  0  0  0  0  0  0  0  0  0  0
   35.3880   29.8120   34.5480 C   0  0  0  0  0  0  0  0  0  0  0  0
   35.9730   27.9900   33.5530 H   0  0  0  0  0  0  0  0  0  0  0  0
   36.1280   28.0510   36.5770 H   0  0  0  0  0  0  0  0  0  0  0  0
   35.5970   26.6690   35.4600 H   0  0  0  0  0  0  0  0  0  0  0  0
   33.4850   27.5230   35.2250 H   0  0  0  0  0  0  0  0  0  0  0  0
   35.3960   30.3700   33.5940 H   0  0  0  0  0  0  0  0  0  0  0  0
   35.7840   30.4910   35.3180 H   0  0  0  0  0  0  0  0  0  0  0  0
   37.5170   28.6840   34.6980 O   0  0  0  0  0  0  0  0  0  0  0  0
   37.7450   29.4820   35.2340 H   0  0  0  0  0  0  0  0  0  0  0  0
  1  3  1  0  0  0  0
  2  1  2  0  0  0  0
  3  8  2  0  0  0  0
  3  4  1  0  0  0  0
  4  5  2  0  0  0  0
  5 10  1  0  0  0  0
  5  6  1  0  0  0  0
  7 11  1  0  0  0  0
  7  6  2  0  0  0  0
  8  7  1  0  0  0  0
  9  4  1  0  0  0  0
 11 12  1  0  0  0  0
 12 13  2  0  0  0  0
 14 15  1  0  0  0  0
 14 13  1  0  0  0  0
 15 20  1  0  0  0  0
 16 14  2  0  0  0  0
 17 16  1  0  0  0  0
 17 11  1  0  0  0  0
 18 17  2  0  0  0  0
 19 15  1  0  0  0  0
 21 23  1  0  0  0  0
 21  2  1  0  0  0  0
 22 21  1  0  0  0  0
 24 29  1  6  0  0  0
 24 28  1  0  0  0  0
 24 35  1  0  0  0  0
 24 25  1  0  0  0  0
 25 30  1  0  0  0  0
 26 32  1  6  0  0  0
 26 25  1  0  0  0  0
 26 21  1  0  0  0  0
 27 26  1  0  0  0  0
 28 27  1  0  0  0  0
 28 34  1  0  0  0  0
 31 25  1  0  0  0  0
 33 28  1  0  0  0  0
 35 36  1  0  0  0  0
M  END
>  <minimizedAffinity>
-5.84021139

$$$$

 OpenBabel03242511353D

 36 38  0  0  1  0  0  0  0  0999 V2000
   34.8240   28.6230   38.0560 C   0  0  0  0  0  3  0  0  0  0  0  0
   33.5820   29.0620   38.0040 C   0  0  0  0  0  3  0  0  0  0  0  0
   35.5740   28.7790   39.2970 C   0  0  0  0  0  0  0  0  0  0  0  0
   35.5540   30.0440   39.9100 C   0  0  0  0  0  0  0  0  0  0  0  0
   36.2610   30.2290   41.1000 C   0  0  0  0  0  0  0  0  0  0  0  0
   36.9410   29.1700   41.6140 N   0  0  0  0  0  0  0  0  0  0  0  0
   36.9410   27.9710   41.0040 C   0  0  0  0  0  0  0  0  0  0  0  0
   36.2620   27.7950   39.8610 N   0  0  0  0  0  0  0  0  0  0  0  0
   34.9990   30.8780   39.4760 H   0  0  0  0  0  0  0  0  0  0  0  0
   36.2330   31.2040   41.5530 H   0  0  0  0  0  0  0  0  0  0  0  0
   37.6810   26.9180   41.6120 N   0  0  0  0  0  0  0  0  0  0  0  0
   38.4040   27.1520   42.7230 C   0  0  0  0  0  3  0  0  0  0  0  0
   39.1110   26.0790   43.2780 C   0  0  0  0  0  3  0  0  0  0  0  0
   38.9960   24.8780   42.6270 C   0  0  0  0  0  0  0  0  0  0  0  0
   39.7190   23.8020   43.2030 N   0  0  0  0  0  0  0  0  0  0  0  0
   38.2660   24.6640   41.5150 N   0  0  0  0  0  0  0  0  0  0  0  0
   37.5910   25.7110   40.9940 C   0  0  0  0  0  0  0  0  0  0  0  0
   36.9010   25.5470   39.9570 O   0  0  0  0  0  0  0  0  0  0  0  0
   40.3460   22.9900   43.1110 H   0  0  0  0  0  0  0  0  0  0  0  0
   39.7590   23.5370   44.2320 H   0  0  0  0  0  0  0  0  0  0  0  0
   32.7650   28.9380   36.7850 C   0  0  0  0  0  0  0  0  0  0  0  0
   32.5420   27.8770   36.5720 H   0  0  0  0  0  0  0  0  0  0  0  0
   33.3380   29.4020   35.9480 H   0  0  0  0  0  0  0  0  0  0  0  0
   29.4200   29.6350   37.9600 C   0  0  1  0  0  0  0  0  0  0  0  0
   30.9120   29.7820   38.2710 C   0  0  0  0  0  0  0  0  0  0  0  0
   31.4730   29.7460   36.8930 C   0  0  2  0  0  0  0  0  0  0  0  0
   30.5170   29.3440   36.0130 O   0  0  0  0  0  0  0  0  0  0  0  0
   29.4730   28.7750   36.7210 C   0  0  0  0  0  0  0  0  0  0  0  0
   28.9470   30.5990   37.7440 H   0  0  0  0  0  0  0  0  0  0  0  0
   31.1930   28.9320   38.9080 H   0  0  0  0  0  0  0  0  0  0  0  0
   31.0460   30.7780   38.7860 H   0  0  0  0  0  0  0  0  0  0  0  0
   31.7530   30.8020   36.6090 H   0  0  0  0  0  0  0  0  0  0  0  0
   28.5540   28.8190   36.1090 H   0  0  0  0  0  0  0  0  0  0  0  0
   29.6430   27.7160   36.9650 H   0  0  0  0  0  0  0  0  0  0  0  0
   28.7760   29.0110   39.0200 O   0  0  0  0  0  0  0  0  0  0  0  0
   28.8190   28.0240   38.9890 H   0  0  0  0  0  0  0  0  0  0  0  0
  1  3  1  0  0  0  0
  2  1  2  0  0  0  0
  3  8  2  0  0  0  0
  3  4  1  0  0  0  0
  4  5  2  0  0  0  0
  5 10  1  0  0  0  0
  5  6  1  0  0  0  0
  7 11  1  0  0  0  0
  7  6  2  0  0  0  0
  8  7  1  0  0  0  0
  9  4  1  0  0  0  0
 11 12  1  0  0  0  0
 12 13  2  0  0  0  0
 14 15  1  0  0  0  0
 14 13  1  0  0  0  0
 15 20  1  0  0  0  0
 16 14  2  0  0  0  0
 17 16  1  0  0  0  0
 17 11  1  0  0  0  0
 18 17  2  0  0  0  0
 19 15  1  0  0  0  0
 21 26  1  0  0  0  0
 21  2  1  0  0  0  0
 22 21  1  0  0  0  0
 23 21  1  0  0  0  0
 24 29  1  6  0  0  0
 24 25  1  0  0  0  0
 24 35  1  0  0  0  0
 25 31  1  0  0  0  0
 25 30  1  0  0  0  0
 26 32  1  6  0  0  0
 26 25  1  0  0  0  0
 27 28  1  0  0  0  0
 27 26  1  0  0  0  0
 28 34  1  0  0  0  0
 28 24  1  0  0  0  0
 33 28  1  0  0  0  0
 36 35  1  0  0  0  0
M  END
>  <minimizedAffinity>
-5.81395197

$$$$

 OpenBabel03242511353D

 36 38  0  0  1  0  0  0  0  0999 V2000
   36.6100   30.3050   41.2430 C   0  0  0  0  0  3  0  0  0  0  0  0
   37.2510   30.7810   40.1940 C   0  0  0  0  0  3  0  0  0  0  0  0
   37.0310   29.0270   41.8050 C   0  0  0  0  0  0  0  0  0  0  0  0
   37.5770   29.0400   43.1020 C   0  0  0  0  0  0  0  0  0  0  0  0
   37.9900   27.8340   43.6720 C   0  0  0  0  0  0  0  0  0  0  0  0
   37.8450   26.6960   42.9430 N   0  0  0  0  0  0  0  0  0  0  0  0
   37.3190   26.7160   41.7050 C   0  0  0  0  0  0  0  0  0  0  0  0
   36.9220   27.8740   41.1580 N   0  0  0  0  0  0  0  0  0  0  0  0
   37.6820   29.9680   43.6650 H   0  0  0  0  0  0  0  0  0  0  0  0
   38.4050   27.8660   44.6640 H   0  0  0  0  0  0  0  0  0  0  0  0
   37.2050   25.4770   41.0140 N   0  0  0  0  0  0  0  0  0  0  0  0
   37.6750   24.3450   41.5700 C   0  0  0  0  0  3  0  0  0  0  0  0
   37.5350   23.1550   40.8450 C   0  0  0  0  0  3  0  0  0  0  0  0
   36.9230   23.2610   39.6230 C   0  0  0  0  0  0  0  0  0  0  0  0
   36.7900   22.0470   38.9020 N   0  0  0  0  0  0  0  0  0  0  0  0
   36.4590   24.4060   39.0830 N   0  0  0  0  0  0  0  0  0  0  0  0
   36.6030   25.5420   39.7970 C   0  0  0  0  0  0  0  0  0  0  0  0
   36.1810   26.6270   39.3240 O   0  0  0  0  0  0  0  0  0  0  0  0
   36.8700   21.5080   38.0280 H   0  0  0  0  0  0  0  0  0  0  0  0
   36.4540   21.1120   39.2810 H   0  0  0  0  0  0  0  0  0  0  0  0
   36.8810   32.0640   39.5740 C   0  0  0  0  0  0  0  0  0  0  0  0
   36.1550   32.6060   40.2060 H   0  0  0  0  0  0  0  0  0  0  0  0
   36.4500   31.8400   38.5700 H   0  0  0  0  0  0  0  0  0  0  0  0
   40.0980   33.5200   40.3380 C   0  0  1  0  0  0  0  0  0  0  0  0
   39.3850   32.3020   39.7480 C   0  0  0  0  0  0  0  0  0  0  0  0
   38.1100   32.9300   39.3060 C   0  0  2  0  0  0  0  0  0  0  0  0
   38.0050   34.1820   39.8290 O   0  0  0  0  0  0  0  0  0  0  0  0
   38.9220   34.3120   40.8560 C   0  0  0  0  0  0  0  0  0  0  0  0
   40.6440   34.0880   39.5780 H   0  0  0  0  0  0  0  0  0  0  0  0
   39.2820   31.5650   40.5560 H   0  0  0  0  0  0  0  0  0  0  0  0
   40.0220   31.9270   38.8940 H   0  0  0  0  0  0  0  0  0  0  0  0
   38.1570   33.0490   38.1850 H   0  0  0  0  0  0  0  0  0  0  0  0
   39.1410   35.3840   41.0120 H   0  0  0  0  0  0  0  0  0  0  0  0
   38.5540   33.9190   41.8160 H   0  0  0  0  0  0  0  0  0  0  0  0
   40.9620   33.1180   41.3490 O   0  0  0  0  0  0  0  0  0  0  0  0
   40.5270   33.0190   42.2310 H   0  0  0  0  0  0  0  0  0  0  0  0
  1  3  1  0  0  0  0
  2  1  2  0  0  0  0
  3  4  1  0  0  0  0
  4  9  1  0  0  0  0
  4  5  2  0  0  0  0
  5 10  1  0  0  0  0
  6  5  1  0  0  0  0
  7  6  2  0  0  0  0
  8  7  1  0  0  0  0
  8  3  2  0  0  0  0
 11 12  1  0  0  0  0
 11  7  1  0  0  0  0
 13 12  2  0  0  0  0
 14 13  1  0  0  0  0
 15 20  1  0  0  0  0
 15 14  1  0  0  0  0
 16 14  2  0  0  0  0
 16 17  1  0  0  0  0
 17 11  1  0  0  0  0
 18 17  2  0  0  0  0
 19 15  1  0  0  0  0
 21  2  1  0  0  0  0
 21 22  1  0  0  0  0
 23 21  1  0  0  0  0
 24 29  1  6  0  0  0
 24 28  1  0  0  0  0
 24 35  1  0  0  0  0
 25 24  1  0  0  0  0
 25 30  1  0  0  0  0
 26 32  1  6  0  0  0
 26 21  1  0  0  0  0
 26 25  1  0  0  0  0
 26 27  1  0  0  0  0
 27 28  1  0  0  0  0
 28 33  1  0  0  0  0
 28 34  1  0  0  0  0
 31 25  1  0  0  0  0
 35 36  1  0  0  0  0
M  END
>  <minimizedAffinity>
-5.72757769

$$$$

 OpenBabel03242511353D

 36 38  0  0  1  0  0  0  0  0999 V2000
   37.2230   27.1610   42.2520 C   0  0  0  0  0  3  0  0  0  0  0  0
   37.1780   26.0480   41.5460 C   0  0  0  0  0  3  0  0  0  0  0  0
   36.9860   28.4320   41.5780 C   0  0  0  0  0  0  0  0  0  0  0  0
   35.7080   28.6460   41.0310 C   0  0  0  0  0  0  0  0  0  0  0  0
   35.4460   29.8520   40.3780 C   0  0  0  0  0  0  0  0  0  0  0  0
   36.4440   30.7710   40.3030 N   0  0  0  0  0  0  0  0  0  0  0  0
   37.6570   30.5380   40.8360 C   0  0  0  0  0  0  0  0  0  0  0  0
   37.9080   29.3790   41.4620 N   0  0  0  0  0  0  0  0  0  0  0  0
   34.9240   27.8910   41.1070 H   0  0  0  0  0  0  0  0  0  0  0  0
   34.4630   29.9950   39.9670 H   0  0  0  0  0  0  0  0  0  0  0  0
   38.6440   31.5560   40.7090 N   0  0  0  0  0  0  0  0  0  0  0  0
   38.3740   32.6780   40.0160 C   0  0  0  0  0  3  0  0  0  0  0  0
   39.3820   33.6450   39.9240 C   0  0  0  0  0  3  0  0  0  0  0  0
   40.5610   33.3510   40.5590 C   0  0  0  0  0  0  0  0  0  0  0  0
   41.5700   34.3420   40.4550 N   0  0  0  0  0  0  0  0  0  0  0  0
   40.8110   32.2210   41.2490 N   0  0  0  0  0  0  0  0  0  0  0  0
   39.8280   31.3000   41.3260 C   0  0  0  0  0  0  0  0  0  0  0  0
   40.0270   30.2350   41.9610 O   0  0  0  0  0  0  0  0  0  0  0  0
   42.5490   34.6130   40.2800 H   0  0  0  0  0  0  0  0  0  0  0  0
   41.4550   35.3900   40.5940 H   0  0  0  0  0  0  0  0  0  0  0  0
   37.4070   24.7300   42.1600 C   0  0  0  0  0  0  0  0  0  0  0  0
   36.7150   23.9780   41.7370 H   0  0  0  0  0  0  0  0  0  0  0  0
   37.2550   24.8400   43.2600 H   0  0  0  0  0  0  0  0  0  0  0  0
   40.9800   24.9140   42.6610 C   0  0  1  0  0  0  0  0  0  0  0  0
   39.6610   24.3930   43.2370 C   0  0  0  0  0  0  0  0  0  0  0  0
   38.8560   24.2790   41.9900 C   0  0  2  0  0  0  0  0  0  0  0  0
   39.4940   24.9080   40.9670 O   0  0  0  0  0  0  0  0  0  0  0  0
   40.4770   25.7270   41.4930 C   0  0  0  0  0  0  0  0  0  0  0  0
   41.6300   24.1020   42.3180 H   0  0  0  0  0  0  0  0  0  0  0  0
   39.3020   25.1460   43.9520 H   0  0  0  0  0  0  0  0  0  0  0  0
   39.8830   23.3980   43.7230 H   0  0  0  0  0  0  0  0  0  0  0  0
   38.8010   23.1850   41.7160 H   0  0  0  0  0  0  0  0  0  0  0  0
   41.2430   25.9170   40.7190 H   0  0  0  0  0  0  0  0  0  0  0  0
   40.0960   26.7090   41.8110 H   0  0  0  0  0  0  0  0  0  0  0  0
   41.6370   25.6870   43.6100 O   0  0  0  0  0  0  0  0  0  0  0  0
   41.3420   26.6300   43.6310 H   0  0  0  0  0  0  0  0  0  0  0  0
  2 21  1  0  0  0  0
  2  1  2  0  0  0  0
  3  1  1  0  0  0  0
  4  9  1  0  0  0  0
  4  3  2  0  0  0  0
  5  4  1  0  0  0  0
  6  5  2  0  0  0  0
  6  7  1  0  0  0  0
  7  8  2  0  0  0  0
  8  3  1  0  0  0  0
 10  5  1  0  0  0  0
 11  7  1  0  0  0  0
 11 17  1  0  0  0  0
 12 11  1  0  0  0  0
 13 12  2  0  0  0  0
 13 14  1  0  0  0  0
 14 16  2  0  0  0  0
 15 14  1  0  0  0  0
 15 20  1  0  0  0  0
 16 17  1  0  0  0  0
 17 18  2  0  0  0  0
 19 15  1  0  0  0  0
 21 23  1  0  0  0  0
 22 21  1  0  0  0  0
 24 29  1  6  0  0  0
 24 25  1  0  0  0  0
 24 35  1  0  0  0  0
 25 31  1  0  0  0  0
 25 30  1  0  0  0  0
 26 32  1  6  0  0  0
 26 21  1  0  0  0  0
 26 25  1  0  0  0  0
 27 28  1  0  0  0  0
 27 26  1  0  0  0  0
 28 34  1  0  0  0  0
 28 24  1  0  0  0  0
 33 28  1  0  0  0  0
 35 36  1  0  0  0  0
M  END
>  <minimizedAffinity>
-5.69940472

$$$$

 OpenBabel03242511353D

 36 38  0  0  1  0  0  0  0  0999 V2000
   37.5450   26.1240   42.4670 C   0  0  0  0  0  3  0  0  0  0  0  0
   37.4030   25.4180   41.3630 C   0  0  0  0  0  3  0  0  0  0  0  0
   38.3870   27.3140   42.4390 C   0  0  0  0  0  0  0  0  0  0  0  0
   39.6540   27.2250   43.0430 C   0  0  0  0  0  0  0  0  0  0  0  0
   40.4870   28.3460   43.0340 C   0  0  0  0  0  0  0  0  0  0  0  0
   40.0320   29.4790   42.4370 N   0  0  0  0  0  0  0  0  0  0  0  0
   38.8150   29.5330   41.8670 C   0  0  0  0  0  0  0  0  0  0  0  0
   38.0160   28.4570   41.8760 N   0  0  0  0  0  0  0  0  0  0  0  0
   39.9950   26.3020   43.5150 H   0  0  0  0  0  0  0  0  0  0  0  0
   41.4510   28.2560   43.5010 H   0  0  0  0  0  0  0  0  0  0  0  0
   38.4200   30.7620   41.2650 N   0  0  0  0  0  0  0  0  0  0  0  0
   39.2220   31.8390   41.3340 C   0  0  0  0  0  3  0  0  0  0  0  0
   38.7830   33.0200   40.7240 C   0  0  0  0  0  3  0  0  0  0  0  0
   37.5600   32.9620   40.1060 C   0  0  0  0  0  0  0  0  0  0  0  0
   37.1310   34.1670   39.4940 N   0  0  0  0  0  0  0  0  0  0  0  0
   36.7710   31.8710   40.0480 N   0  0  0  0  0  0  0  0  0  0  0  0
   37.2110   30.7420   40.6430 C   0  0  0  0  0  0  0  0  0  0  0  0
   36.5000   29.7070   40.6070 O   0  0  0  0  0  0  0  0  0  0  0  0
   36.4020   34.8720   39.3110 H   0  0  0  0  0  0  0  0  0  0  0  0
   37.7060   34.8080   38.8710 H   0  0  0  0  0  0  0  0  0  0  0  0
   36.5680   24.2060   41.3190 C   0  0  0  0  0  0  0  0  0  0  0  0
   35.5740   24.4330   40.8930 H   0  0  0  0  0  0  0  0  0  0  0  0
   36.4790   23.8210   42.3620 H   0  0  0  0  0  0  0  0  0  0  0  0
   38.9000   22.8300   38.9260 C   0  0  1  0  0  0  0  0  0  0  0  0
   38.7150   23.2780   40.3770 C   0  0  0  0  0  0  0  0  0  0  0  0
   37.2470   23.0890   40.5280 C   0  0  2  0  0  0  0  0  0  0  0  0
   36.6790   22.8780   39.3090 O   0  0  0  0  0  0  0  0  0  0  0  0
   37.5790   23.2540   38.3290 C   0  0  0  0  0  0  0  0  0  0  0  0
   39.0330   21.7460   38.8430 H   0  0  0  0  0  0  0  0  0  0  0  0
   39.0560   24.3210   40.4380 H   0  0  0  0  0  0  0  0  0  0  0  0
   39.3280   22.5810   41.0200 H   0  0  0  0  0  0  0  0  0  0  0  0
   37.0820   22.1500   41.1310 H   0  0  0  0  0  0  0  0  0  0  0  0
   37.3290   22.7330   37.3870 H   0  0  0  0  0  0  0  0  0  0  0  0
   37.5560   24.3330   38.1120 H   0  0  0  0  0  0  0  0  0  0  0  0
   39.9820   23.4910   38.3610 O   0  0  0  0  0  0  0  0  0  0  0  0
   39.7600   24.3820   37.9950 H   0  0  0  0  0  0  0  0  0  0  0  0
  2  1  2  0  0  0  0
  3  1  1  0  0  0  0
  3  4  1  0  0  0  0
  4  9  1  0  0  0  0
  5  4  2  0  0  0  0
  5 10  1  0  0  0  0
  6  5  1  0  0  0  0
  7  8  1  0  0  0  0
  7  6  2  0  0  0  0
  8  3  2  0  0  0  0
 11 12  1  0  0  0  0
 11  7  1  0  0  0  0
 13 12  2  0  0  0  0
 14 13  1  0  0  0  0
 15 14  1  0  0  0  0
 16 14  2  0  0  0  0
 16 17  1  0  0  0  0
 17 11  1  0  0  0  0
 18 17  2  0  0  0  0
 19 15  1  0  0  0  0
 20 15  1  0  0  0  0
 21  2  1  0  0  0  0
 21 23  1  0  0  0  0
 22 21  1  0  0  0  0
 24 29  1  6  0  0  0
 24 25  1  0  0  0  0
 25 30  1  0  0  0  0
 25 26  1  0  0  0  0
 25 31  1  0  0  0  0
 26 32  1  1  0  0  0
 26 21  1  0  0  0  0
 27 26  1  0  0  0  0
 28 24  1  0  0  0  0
 28 27  1  0  0  0  0
 33 28  1  0  0  0  0
 34 28  1  0  0  0  0
 35 24  1  0  0  0  0
 36 35  1  0  0  0  0
M  END
>  <minimizedAffinity>
-5.60365105

$$$$

 OpenBabel03242511353D

 36 38  0  0  1  0  0  0  0  0999 V2000
   36.8850   29.8630   41.1590 C   0  0  0  0  0  3  0  0  0  0  0  0
   37.4200   29.1000   42.0920 C   0  0  0  0  0  3  0  0  0  0  0  0
   37.5740   31.0870   40.7700 C   0  0  0  0  0  0  0  0  0  0  0  0
   36.8430   32.0340   40.0300 C   0  0  0  0  0  0  0  0  0  0  0  0
   37.4710   33.2190   39.6410 C   0  0  0  0  0  0  0  0  0  0  0  0
   38.7690   33.4040   39.9980 N   0  0  0  0  0  0  0  0  0  0  0  0
   39.4430   32.4800   40.7060 C   0  0  0  0  0  0  0  0  0  0  0  0
   38.8390   31.3430   41.0790 N   0  0  0  0  0  0  0  0  0  0  0  0
   35.8010   31.8600   39.7570 H   0  0  0  0  0  0  0  0  0  0  0  0
   36.8940   33.9290   39.0760 H   0  0  0  0  0  0  0  0  0  0  0  0
   40.8000   32.7570   41.0350 N   0  0  0  0  0  0  0  0  0  0  0  0
   41.3900   33.8790   40.5860 C   0  0  0  0  0  3  0  0  0  0  0  0
   42.7260   34.1010   40.9420 C   0  0  0  0  0  3  0  0  0  0  0  0
   43.3100   33.1380   41.7240 C   0  0  0  0  0  0  0  0  0  0  0  0
   44.6630   33.3780   42.0750 N   0  0  0  0  0  0  0  0  0  0  0  0
   42.7010   32.0200   42.1640 N   0  0  0  0  0  0  0  0  0  0  0  0
   41.4130   31.8240   41.8110 C   0  0  0  0  0  0  0  0  0  0  0  0
   40.8140   30.7920   42.2040 O   0  0  0  0  0  0  0  0  0  0  0  0
   45.6350   33.0530   42.1800 H   0  0  0  0  0  0  0  0  0  0  0  0
   45.0800   34.2900   42.4300 H   0  0  0  0  0  0  0  0  0  0  0  0
   36.7800   27.8500   42.5350 C   0  0  0  0  0  0  0  0  0  0  0  0
   35.6810   27.9650   42.5650 H   0  0  0  0  0  0  0  0  0  0  0  0
   37.1850   27.6040   43.5440 H   0  0  0  0  0  0  0  0  0  0  0  0
   38.2350   24.6250   41.8040 C   0  0  1  0  0  0  0  0  0  0  0  0
   36.9760   25.3490   42.2860 C   0  0  0  0  0  0  0  0  0  0  0  0
   37.1710   26.6760   41.6400 C   0  0  2  0  0  0  0  0  0  0  0  0
   38.4380   26.7730   41.1540 O   0  0  0  0  0  0  0  0  0  0  0  0
   39.2090   25.7750   41.7220 C   0  0  0  0  0  0  0  0  0  0  0  0
   38.0950   24.1640   40.8210 H   0  0  0  0  0  0  0  0  0  0  0  0
   37.0110   25.3590   43.3840 H   0  0  0  0  0  0  0  0  0  0  0  0
   36.0900   24.7770   41.8830 H   0  0  0  0  0  0  0  0  0  0  0  0
   36.4770   26.7300   40.7520 H   0  0  0  0  0  0  0  0  0  0  0  0
   40.0800   25.5760   41.0720 H   0  0  0  0  0  0  0  0  0  0  0  0
   39.6060   26.0470   42.7120 H   0  0  0  0  0  0  0  0  0  0  0  0
   38.6130   23.6660   42.7340 O   0  0  0  0  0  0  0  0  0  0  0  0
   39.1700   24.0200   43.4700 H   0  0  0  0  0  0  0  0  0  0  0  0
  1  2  2  0  0  0  0
  2 21  1  0  0  0  0
  3  8  1  0  0  0  0
  3  1  1  0  0  0  0
  4  3  2  0  0  0  0
  5  6  2  0  0  0  0
  5  4  1  0  0  0  0
  6  7  1  0  0  0  0
  7 11  1  0  0  0  0
  7  8  2  0  0  0  0
  9  4  1  0  0  0  0
 10  5  1  0  0  0  0
 11 17  1  0  0  0  0
 12 13  2  0  0  0  0
 12 11  1  0  0  0  0
 13 14  1  0  0  0  0
 14 15  1  0  0  0  0
 14 16  2  0  0  0  0
 15 19  1  0  0  0  0
 15 20  1  0  0  0  0
 17 16  1  0  0  0  0
 17 18  2  0  0  0  0
 21 22  1  0  0  0  0
 21 23  1  0  0  0  0
 24 29  1  6  0  0  0
 24 25  1  0  0  0  0
 24 35  1  0  0  0  0
 25 30  1  0  0  0  0
 26 32  1  6  0  0  0
 26 25  1  0  0  0  0
 26 21  1  0  0  0  0
 27 26  1  0  0  0  0
 27 28  1  0  0  0  0
 28 24  1  0  0  0  0
 28 34  1  0  0  0  0
 31 25  1  0  0  0  0
 33 28  1  0  0  0  0
 35 36  1  0  0  0  0
M  END
>  <minimizedAffinity>
-5.5471158

$$$$

 OpenBabel03242511353D

 36 38  0  0  1  0  0  0  0  0999 V2000
   36.2560   28.9150   40.0770 C   0  0  0  0  0  3  0  0  0  0  0  0
   35.7540   29.2300   38.8990 C   0  0  0  0  0  3  0  0  0  0  0  0
   37.4370   29.6250   40.5520 C   0  0  0  0  0  0  0  0  0  0  0  0
   37.7490   29.5210   41.9190 C   0  0  0  0  0  0  0  0  0  0  0  0
   38.8730   30.1880   42.4090 C   0  0  0  0  0  0  0  0  0  0  0  0
   39.6210   30.9130   41.5340 N   0  0  0  0  0  0  0  0  0  0  0  0
   39.2970   30.9940   40.2310 C   0  0  0  0  0  0  0  0  0  0  0  0
   38.2170   30.3530   39.7620 N   0  0  0  0  0  0  0  0  0  0  0  0
   37.1320   28.9310   42.5990 H   0  0  0  0  0  0  0  0  0  0  0  0
   39.0940   30.0950   43.4570 H   0  0  0  0  0  0  0  0  0  0  0  0
   40.1360   31.7770   39.3880 N   0  0  0  0  0  0  0  0  0  0  0  0
   41.1720   32.4590   39.9080 C   0  0  0  0  0  3  0  0  0  0  0  0
   41.9640   33.2110   39.0320 C   0  0  0  0  0  3  0  0  0  0  0  0
   41.6000   33.1770   37.7100 C   0  0  0  0  0  0  0  0  0  0  0  0
   42.4120   33.9450   36.8370 N   0  0  0  0  0  0  0  0  0  0  0  0
   40.5570   32.4870   37.2090 N   0  0  0  0  0  0  0  0  0  0  0  0
   39.8050   31.7680   38.0690 C   0  0  0  0  0  0  0  0  0  0  0  0
   38.8250   31.1130   37.6360 O   0  0  0  0  0  0  0  0  0  0  0  0
   42.5120   34.6180   36.0630 H   0  0  0  0  0  0  0  0  0  0  0  0
   43.4740   33.9750   36.8120 H   0  0  0  0  0  0  0  0  0  0  0  0
   34.5630   28.5550   38.3570 C   0  0  0  0  0  0  0  0  0  0  0  0
   33.6950   29.2390   38.3530 H   0  0  0  0  0  0  0  0  0  0  0  0
   34.3650   27.6600   38.9930 H   0  0  0  0  0  0  0  0  0  0  0  0
   36.4050   28.1750   35.2710 C   0  0  1  0  0  0  0  0  0  0  0  0
   36.2470   27.6640   36.7050 C   0  0  0  0  0  0  0  0  0  0  0  0
   34.8210   28.0090   36.9540 C   0  0  2  0  0  0  0  0  0  0  0  0
   34.3650   28.8320   35.9700 O   0  0  0  0  0  0  0  0  0  0  0  0
   35.4500   29.3440   35.2820 C   0  0  0  0  0  0  0  0  0  0  0  0
   36.0980   27.4290   34.5310 H   0  0  0  0  0  0  0  0  0  0  0  0
   36.9700   28.2120   37.3240 H   0  0  0  0  0  0  0  0  0  0  0  0
   36.4440   26.5520   36.6840 H   0  0  0  0  0  0  0  0  0  0  0  0
   34.2200   27.0570   36.8850 H   0  0  0  0  0  0  0  0  0  0  0  0
   35.1230   29.6610   34.2750 H   0  0  0  0  0  0  0  0  0  0  0  0
   35.8900   30.2280   35.7670 H   0  0  0  0  0  0  0  0  0  0  0  0
   37.7210   28.5580   35.0490 O   0  0  0  0  0  0  0  0  0  0  0  0
   37.9220   29.4820   35.3370 H   0  0  0  0  0  0  0  0  0  0  0  0
  1  3  1  0  0  0  0
  2  1  2  0  0  0  0
  3  4  1  0  0  0  0
  4  5  2  0  0  0  0
  4  9  1  0  0  0  0
  5 10  1  0  0  0  0
  6  5  1  0  0  0  0
  7  6  2  0  0  0  0
  8  7  1  0  0  0  0
  8  3  2  0  0  0  0
 11 12  1  0  0  0  0
 11  7  1  0  0  0  0
 13 12  2  0  0  0  0
 14 13  1  0  0  0  0
 15 14  1  0  0  0  0
 16 14  2  0  0  0  0
 16 17  1  0  0  0  0
 17 11  1  0  0  0  0
 18 17  2  0  0  0  0
 19 15  1  0  0  0  0
 20 15  1  0  0  0  0
 21  2  1  0  0  0  0
 21 23  1  0  0  0  0
 22 21  1  0  0  0  0
 24 29  1  6  0  0  0
 24 28  1  0  0  0  0
 24 25  1  0  0  0  0
 25 26  1  0  0  0  0
 25 30  1  0  0  0  0
 26 32  1  6  0  0  0
 26 21  1  0  0  0  0
 27 26  1  0  0  0  0
 28 34  1  0  0  0  0
 28 27  1  0  0  0  0
 31 25  1  0  0  0  0
 33 28  1  0  0  0  0
 35 24  1  0  0  0  0
 35 36  1  0  0  0  0
M  END
>  <minimizedAffinity>
-5.53529263

$$$$
