
 OpenBabel03252500573D

 39 41  0  0  0  0  0  0  0  0999 V2000
   43.6490   34.5750   40.1170 O   0  0  0  0  0  0  0  0  0  0  0  0
   43.2490   34.4660   41.5820 P   0  0  1  0  0  0  0  0  0  0  0  0
   43.2030   32.8180   42.0060 O   0  0  0  0  0  0  0  0  0  0  0  0
   43.1480   32.7540   42.9810 H   0  0  0  0  0  0  0  0  0  0  0  0
   44.4340   35.2060   42.5530 O   0  0  0  0  0  0  0  0  0  0  0  0
   46.5730   34.2850   42.8850 C   0  0  0  0  0  0  0  0  0  0  0  0
   45.3280   34.5690   43.4030 C   0  0  0  0  0  0  0  0  0  0  0  0
   45.0590   34.2020   44.7270 C   0  0  0  0  0  0  0  0  0  0  0  0
   46.0380   33.5900   45.4170 N   0  0  0  0  0  0  0  0  0  0  0  0
   47.2420   33.3210   44.9010 C   0  0  0  0  0  0  0  0  0  0  0  0
   47.4990   33.6720   43.6380 N   0  0  0  0  0  0  0  0  0  0  0  0
   44.0930   34.4330   45.1020 H   0  0  0  0  0  0  0  0  0  0  0  0
   48.0440   32.8290   45.4420 H   0  0  0  0  0  0  0  0  0  0  0  0
   46.9150   34.6440   41.5080 C   0  0  0  0  0  0  0  0  0  0  0  0
   46.1860   35.3850   41.1140 H   0  0  0  0  0  0  0  0  0  0  0  0
   46.8950   33.7610   40.8380 H   0  0  0  0  0  0  0  0  0  0  0  0
   48.2930   35.2470   41.4910 C   0  0  0  0  0  0  0  0  0  0  0  0
   49.0400   34.4590   41.5870 H   0  0  0  0  0  0  0  0  0  0  0  0
   48.3530   35.9860   42.3150 H   0  0  0  0  0  0  0  0  0  0  0  0
   48.4300   35.7440   40.4990 H   0  0  0  0  0  0  0  0  0  0  0  0
   41.7010   35.0990   41.8350 O   0  0  0  0  0  0  0  0  0  0  0  0
   40.6460   34.5540   41.1180 C   0  0  0  0  0  0  0  0  0  0  0  0
   39.9350   35.3810   40.2660 C   0  0  0  0  0  0  0  0  0  0  0  0
   38.8650   34.9180   39.5110 C   0  0  0  0  0  0  0  0  0  0  0  0
   38.5200   33.5990   39.6280 N   0  0  0  0  0  0  0  0  0  0  0  0
   39.2110   32.8120   40.4510 C   0  0  0  0  0  0  0  0  0  0  0  0
   40.2350   33.2640   41.1710 N   0  0  0  0  0  0  0  0  0  0  0  0
   40.2210   36.4070   40.1890 H   0  0  0  0  0  0  0  0  0  0  0  0
   38.3300   35.6040   38.8490 H   0  0  0  0  0  0  0  0  0  0  0  0
   38.7960   31.4510   40.5230 N   0  0  0  0  0  0  0  0  0  0  0  0
   37.8770   31.0610   41.4440 C   0  0  0  0  0  3  0  0  0  0  0  0
   37.5470   29.7210   41.4280 C   0  0  0  0  0  3  0  0  0  0  0  0
   38.0700   28.7800   40.5640 C   0  0  0  0  0  0  0  0  0  0  0  0
   37.6830   27.4140   40.6020 N   0  0  0  0  0  0  0  0  0  0  0  0
   38.9720   29.2590   39.6860 N   0  0  0  0  0  0  0  0  0  0  0  0
   39.3290   30.5690   39.6660 C   0  0  0  0  0  0  0  0  0  0  0  0
   40.1770   30.9410   38.8190 O   0  0  0  0  0  0  0  0  0  0  0  0
   37.0170   27.1270   41.3450 H   0  0  0  0  0  0  0  0  0  0  0  0
   38.0990   26.7860   39.8750 H   0  0  0  0  0  0  0  0  0  0  0  0
  2  1  2  6  0  0  0
  2 21  1  0  0  0  0
  2  3  1  0  0  0  0
  2  5  1  0  0  0  0
  3  4  1  0  0  0  0
  5  7  1  0  0  0  0
  6  7  2  0  0  0  0
  6 11  1  0  0  0  0
  7  8  1  0  0  0  0
  8 12  1  0  0  0  0
  8  9  2  0  0  0  0
 10  9  1  0  0  0  0
 10 13  1  0  0  0  0
 11 10  2  0  0  0  0
 14  6  1  0  0  0  0
 15 14  1  0  0  0  0
 16 14  1  0  0  0  0
 17 14  1  0  0  0  0
 17 18  1  0  0  0  0
 17 19  1  0  0  0  0
 20 17  1  0  0  0  0
 22 27  1  0  0  0  0
 22 21  1  0  0  0  0
 23 22  2  0  0  0  0
 24 25  2  0  0  0  0
 24 23  1  0  0  0  0
 25 26  1  0  0  0  0
 26 30  1  0  0  0  0
 26 27  2  0  0  0  0
 28 23  1  0  0  0  0
 29 24  1  0  0  0  0
 30 31  1  0  0  0  0
 32 31  2  0  0  0  0
 33 34  1  0  0  0  0
 33 32  1  0  0  0  0
 34 38  1  0  0  0  0
 35 33  2  0  0  0  0
 36 35  1  0  0  0  0
 36 30  1  0  0  0  0
 37 36  2  0  0  0  0
 39 34  1  0  0  0  0
M  END
>  <minimizedAffinity>
-5.63813257

>  <minimizedRMSD>
1.02064979

$$$$
