
 OpenBabel03252503443D

 35 37  0  0  1  0  0  0  0  0999 V2000
   38.5520   29.5750   39.2370 C   0  0  0  0  0  0  0  0  0  0  0  0
   37.6130   29.9000   40.2240 C   0  0  0  0  0  0  0  0  0  0  0  0
   37.8020   31.1260   40.8890 C   0  0  0  0  0  0  0  0  0  0  0  0
   38.8440   31.9100   40.5570 N   0  0  0  0  0  0  0  0  0  0  0  0
   39.7250   31.5640   39.6030 C   0  0  0  0  0  0  0  0  0  0  0  0
   39.5930   30.3920   38.9280 N   0  0  0  0  0  0  0  0  0  0  0  0
   38.5140   28.6610   38.6580 H   0  0  0  0  0  0  0  0  0  0  0  0
   37.0720   31.3690   41.6500 H   0  0  0  0  0  0  0  0  0  0  0  0
   41.2650   32.4270   37.8470 C   0  0  2  0  0  0  0  0  0  0  0  0
   40.8010   32.4990   39.3190 C   0  0  1  0  0  0  0  0  0  0  0  0
   40.4700   33.8230   39.3950 O   0  0  0  0  0  0  0  0  0  0  0  0
   41.4600   34.5360   38.7920 C   0  0  0  0  0  0  0  0  0  0  0  0
   42.2440   33.6050   37.8910 C   0  0  2  0  0  0  0  0  0  0  0  0
   41.7610   31.4850   37.6160 H   0  0  0  0  0  0  0  0  0  0  0  0
   41.6800   32.2670   39.9750 H   0  0  0  0  0  0  0  0  0  0  0  0
   42.1430   35.0290   39.5150 H   0  0  0  0  0  0  0  0  0  0  0  0
   41.0350   35.3430   38.1540 H   0  0  0  0  0  0  0  0  0  0  0  0
   43.1500   33.2480   38.4030 H   0  0  0  0  0  0  0  0  0  0  0  0
   40.2430   32.8050   37.0400 O   0  0  0  0  0  0  0  0  0  0  0  0
   39.4610   32.2040   37.0230 H   0  0  0  0  0  0  0  0  0  0  0  0
   42.5090   34.1290   36.6520 O   0  0  0  0  0  0  0  0  0  0  0  0
   42.5620   33.4090   35.9860 H   0  0  0  0  0  0  0  0  0  0  0  0
   36.5320   28.9470   40.4700 C   0  0  0  0  0  0  0  0  0  0  0  0
   35.9850   28.8100   39.4900 H   0  0  0  0  0  0  0  0  0  0  0  0
   35.7600   29.3910   41.1330 H   0  0  0  0  0  0  0  0  0  0  0  0
   36.9620   27.6710   40.9970 N   0  0  0  0  0  0  0  0  0  0  0  0
   37.5210   27.6160   42.2220 C   0  0  0  0  0  3  0  0  0  0  0  0
   37.9320   26.3790   42.7160 C   0  0  0  0  0  3  0  0  0  0  0  0
   37.7290   25.2890   41.8960 C   0  0  0  0  0  0  0  0  0  0  0  0
   38.1300   24.0040   42.3540 N   0  0  0  0  0  0  0  0  0  0  0  0
   37.1620   25.3830   40.6670 N   0  0  0  0  0  0  0  0  0  0  0  0
   36.7740   26.5900   40.2120 C   0  0  0  0  0  0  0  0  0  0  0  0
   36.2630   26.6110   39.0840 O   0  0  0  0  0  0  0  0  0  0  0  0
   37.2210   23.5090   42.5830 H   0  0  0  0  0  0  0  0  0  0  0  0
   38.9200   23.3660   42.5530 H   0  0  0  0  0  0  0  0  0  0  0  0
  1  2  1  0  0  0  0
  2 23  1  0  0  0  0
  2  3  2  0  0  0  0
  3  8  1  0  0  0  0
  4  3  1  0  0  0  0
  5  4  2  0  0  0  0
  6  1  2  0  0  0  0
  6  5  1  0  0  0  0
  7  1  1  0  0  0  0
  9 14  1  6  0  0  0
  9 13  1  0  0  0  0
  9 10  1  0  0  0  0
 10 11  1  0  0  0  0
 10  5  1  0  0  0  0
 10 15  1  1  0  0  0
 12 11  1  0  0  0  0
 12 16  1  0  0  0  0
 13 18  1  1  0  0  0
 13 12  1  0  0  0  0
 17 12  1  0  0  0  0
 19  9  1  0  0  0  0
 20 19  1  0  0  0  0
 21 13  1  0  0  0  0
 22 21  1  0  0  0  0
 23 26  1  0  0  0  0
 23 25  1  0  0  0  0
 24 23  1  0  0  0  0
 26 27  1  0  0  0  0
 27 28  2  0  0  0  0
 29 30  1  0  0  0  0
 29 28  1  0  0  0  0
 30 35  1  0  0  0  0
 30 34  1  0  0  0  0
 31 29  2  0  0  0  0
 32 31  1  0  0  0  0
 32 26  1  0  0  0  0
 33 32  2  0  0  0  0
M  END
>  <minimizedAffinity>
-5.96749258

$$$$

 OpenBabel03252503443D

 35 37  0  0  1  0  0  0  0  0999 V2000
   38.9800   30.1690   40.6000 C   0  0  0  0  0  0  0  0  0  0  0  0
   39.0250   30.1300   42.0000 C   0  0  0  0  0  0  0  0  0  0  0  0
   40.0060   30.9270   42.6170 C   0  0  0  0  0  0  0  0  0  0  0  0
   40.8340   31.6710   41.8610 N   0  0  0  0  0  0  0  0  0  0  0  0
   40.7600   31.6830   40.5190 C   0  0  0  0  0  0  0  0  0  0  0  0
   39.8330   30.9320   39.8680 N   0  0  0  0  0  0  0  0  0  0  0  0
   38.2720   29.6000   40.0110 H   0  0  0  0  0  0  0  0  0  0  0  0
   40.0340   30.8900   43.6990 H   0  0  0  0  0  0  0  0  0  0  0  0
   41.5050   32.4670   38.2770 C   0  0  2  0  0  0  0  0  0  0  0  0
   41.6960   32.5380   39.8080 C   0  0  1  0  0  0  0  0  0  0  0  0
   41.5330   33.8820   40.0010 O   0  0  0  0  0  0  0  0  0  0  0  0
   42.2410   34.5310   39.0360 C   0  0  0  0  0  0  0  0  0  0  0  0
   42.5060   33.5640   37.9010 C   0  0  2  0  0  0  0  0  0  0  0  0
   41.7840   31.4960   37.8700 H   0  0  0  0  0  0  0  0  0  0  0  0
   42.7450   32.2240   40.0450 H   0  0  0  0  0  0  0  0  0  0  0  0
   43.1980   34.9520   39.4090 H   0  0  0  0  0  0  0  0  0  0  0  0
   41.6560   35.3840   38.6220 H   0  0  0  0  0  0  0  0  0  0  0  0
   43.5110   33.1260   37.9970 H   0  0  0  0  0  0  0  0  0  0  0  0
   40.2750   32.9430   37.9590 O   0  0  0  0  0  0  0  0  0  0  0  0
   39.5100   32.4040   38.2710 H   0  0  0  0  0  0  0  0  0  0  0  0
   42.2790   34.0960   36.6580 O   0  0  0  0  0  0  0  0  0  0  0  0
   41.9950   33.3910   36.0360 H   0  0  0  0  0  0  0  0  0  0  0  0
   38.0570   29.2750   42.6840 C   0  0  0  0  0  0  0  0  0  0  0  0
   37.0740   29.3870   42.1370 H   0  0  0  0  0  0  0  0  0  0  0  0
   37.8320   29.6690   43.6970 H   0  0  0  0  0  0  0  0  0  0  0  0
   38.4370   27.8820   42.7690 N   0  0  0  0  0  0  0  0  0  0  0  0
   39.4700   27.5250   43.5560 C   0  0  0  0  0  3  0  0  0  0  0  0
   39.8250   26.1790   43.6270 C   0  0  0  0  0  3  0  0  0  0  0  0
   39.0760   25.3020   42.8690 C   0  0  0  0  0  0  0  0  0  0  0  0
   39.3980   23.9180   42.9070 N   0  0  0  0  0  0  0  0  0  0  0  0
   38.0420   25.6990   42.0860 N   0  0  0  0  0  0  0  0  0  0  0  0
   37.7190   27.0060   42.0350 C   0  0  0  0  0  0  0  0  0  0  0  0
   36.7660   27.3060   41.3030 O   0  0  0  0  0  0  0  0  0  0  0  0
   38.6180   23.4800   43.4750 H   0  0  0  0  0  0  0  0  0  0  0  0
   40.0600   23.1770   42.6170 H   0  0  0  0  0  0  0  0  0  0  0  0
  1  2  1  0  0  0  0
  2  3  2  0  0  0  0
  2 23  1  0  0  0  0
  3  8  1  0  0  0  0
  4  3  1  0  0  0  0
  5  4  2  0  0  0  0
  6  5  1  0  0  0  0
  6  1  2  0  0  0  0
  7  1  1  0  0  0  0
  9 14  1  6  0  0  0
  9 10  1  0  0  0  0
 10 11  1  0  0  0  0
 10 15  1  1  0  0  0
 10  5  1  0  0  0  0
 12 16  1  0  0  0  0
 12 11  1  0  0  0  0
 13 18  1  1  0  0  0
 13  9  1  0  0  0  0
 13 12  1  0  0  0  0
 17 12  1  0  0  0  0
 19 20  1  0  0  0  0
 19  9  1  0  0  0  0
 21 13  1  0  0  0  0
 22 21  1  0  0  0  0
 23 26  1  0  0  0  0
 23 25  1  0  0  0  0
 24 23  1  0  0  0  0
 26 27  1  0  0  0  0
 27 28  2  0  0  0  0
 29 30  1  0  0  0  0
 29 28  1  0  0  0  0
 30 34  1  0  0  0  0
 31 29  2  0  0  0  0
 32 31  1  0  0  0  0
 32 26  1  0  0  0  0
 33 32  2  0  0  0  0
 35 30  1  0  0  0  0
M  END
>  <minimizedAffinity>
-5.92567873

$$$$

 OpenBabel03252503443D

 35 37  0  0  1  0  0  0  0  0999 V2000
   37.9240   29.0780   42.9020 C   0  0  0  0  0  0  0  0  0  0  0  0
   38.9340   28.1350   42.6690 C   0  0  0  0  0  0  0  0  0  0  0  0
   39.8910   28.4700   41.6940 C   0  0  0  0  0  0  0  0  0  0  0  0
   39.7990   29.6470   41.0470 N   0  0  0  0  0  0  0  0  0  0  0  0
   38.8160   30.5270   41.2970 C   0  0  0  0  0  0  0  0  0  0  0  0
   37.8630   30.2570   42.2280 N   0  0  0  0  0  0  0  0  0  0  0  0
   37.1320   28.9360   43.6260 H   0  0  0  0  0  0  0  0  0  0  0  0
   40.6670   27.7360   41.5200 H   0  0  0  0  0  0  0  0  0  0  0  0
   37.4820   32.0440   39.8420 C   0  0  2  0  0  0  0  0  0  0  0  0
   38.8290   31.7720   40.5480 C   0  0  1  0  0  0  0  0  0  0  0  0
   38.9340   32.9120   41.2980 O   0  0  0  0  0  0  0  0  0  0  0  0
   38.6010   33.9650   40.5020 C   0  0  0  0  0  0  0  0  0  0  0  0
   37.8120   33.4450   39.3180 C   0  0  2  0  0  0  0  0  0  0  0  0
   37.2880   31.3370   39.0370 H   0  0  0  0  0  0  0  0  0  0  0  0
   39.6320   31.7310   39.7680 H   0  0  0  0  0  0  0  0  0  0  0  0
   39.4830   34.5390   40.1490 H   0  0  0  0  0  0  0  0  0  0  0  0
   37.9500   34.6850   41.0500 H   0  0  0  0  0  0  0  0  0  0  0  0
   38.4710   33.3130   38.4470 H   0  0  0  0  0  0  0  0  0  0  0  0
   36.5130   32.2010   40.7780 O   0  0  0  0  0  0  0  0  0  0  0  0
   36.2920   31.4000   41.3090 H   0  0  0  0  0  0  0  0  0  0  0  0
   36.6960   34.1870   39.0290 O   0  0  0  0  0  0  0  0  0  0  0  0
   36.0040   33.6140   38.6340 H   0  0  0  0  0  0  0  0  0  0  0  0
   38.9020   26.9020   43.4540 C   0  0  0  0  0  0  0  0  0  0  0  0
   38.1670   27.0680   44.2970 H   0  0  0  0  0  0  0  0  0  0  0  0
   39.8660   26.7490   43.9830 H   0  0  0  0  0  0  0  0  0  0  0  0
   38.5560   25.7170   42.7010 N   0  0  0  0  0  0  0  0  0  0  0  0
   37.2920   25.5550   42.2660 C   0  0  0  0  0  3  0  0  0  0  0  0
   36.9730   24.4080   41.5420 C   0  0  0  0  0  3  0  0  0  0  0  0
   37.9990   23.5110   41.3240 C   0  0  0  0  0  0  0  0  0  0  0  0
   37.7260   22.3250   40.5900 N   0  0  0  0  0  0  0  0  0  0  0  0
   39.2620   23.7080   41.7780 N   0  0  0  0  0  0  0  0  0  0  0  0
   39.5440   24.8260   42.4760 C   0  0  0  0  0  0  0  0  0  0  0  0
   40.7140   24.9480   42.8630 O   0  0  0  0  0  0  0  0  0  0  0  0
   38.1880   22.4830   39.6490 H   0  0  0  0  0  0  0  0  0  0  0  0
   37.2750   21.3930   40.5910 H   0  0  0  0  0  0  0  0  0  0  0  0
  1  7  1  0  0  0  0
  2  1  1  0  0  0  0
  2 23  1  0  0  0  0
  3  2  2  0  0  0  0
  4  5  2  0  0  0  0
  4  3  1  0  0  0  0
  5  6  1  0  0  0  0
  6  1  2  0  0  0  0
  8  3  1  0  0  0  0
  9 14  1  6  0  0  0
  9 10  1  0  0  0  0
  9 19  1  0  0  0  0
 10 15  1  6  0  0  0
 10  5  1  0  0  0  0
 10 11  1  0  0  0  0
 12 17  1  0  0  0  0
 12 11  1  0  0  0  0
 13 18  1  6  0  0  0
 13  9  1  0  0  0  0
 13 12  1  0  0  0  0
 16 12  1  0  0  0  0
 19 20  1  0  0  0  0
 21 13  1  0  0  0  0
 22 21  1  0  0  0  0
 23 25  1  0  0  0  0
 23 24  1  0  0  0  0
 26 23  1  0  0  0  0
 27 26  1  0  0  0  0
 28 27  2  0  0  0  0
 29 28  1  0  0  0  0
 29 31  2  0  0  0  0
 30 35  1  0  0  0  0
 30 29  1  0  0  0  0
 31 32  1  0  0  0  0
 32 26  1  0  0  0  0
 32 33  2  0  0  0  0
 34 30  1  0  0  0  0
M  END
>  <minimizedAffinity>
-5.91360378

$$$$

 OpenBabel03252503443D

 35 37  0  0  1  0  0  0  0  0999 V2000
   38.2690   30.0690   39.2720 C   0  0  0  0  0  0  0  0  0  0  0  0
   38.8160   28.8150   39.5780 C   0  0  0  0  0  0  0  0  0  0  0  0
   40.2190   28.7490   39.6630 C   0  0  0  0  0  0  0  0  0  0  0  0
   40.9530   29.8580   39.4550 N   0  0  0  0  0  0  0  0  0  0  0  0
   40.3920   31.0430   39.1640 C   0  0  0  0  0  0  0  0  0  0  0  0
   39.0410   31.1670   39.0680 N   0  0  0  0  0  0  0  0  0  0  0  0
   37.2050   30.2460   39.1790 H   0  0  0  0  0  0  0  0  0  0  0  0
   40.6330   27.7770   39.8990 H   0  0  0  0  0  0  0  0  0  0  0  0
   41.6720   32.3740   37.4940 C   0  0  2  0  0  0  0  0  0  0  0  0
   41.2840   32.1750   38.9760 C   0  0  1  0  0  0  0  0  0  0  0  0
   40.7450   33.4030   39.2430 O   0  0  0  0  0  0  0  0  0  0  0  0
   41.5710   34.3450   38.7110 C   0  0  0  0  0  0  0  0  0  0  0  0
   42.4460   33.6850   37.6660 C   0  0  2  0  0  0  0  0  0  0  0  0
   42.3020   31.5680   37.1200 H   0  0  0  0  0  0  0  0  0  0  0  0
   42.2230   32.0130   39.5650 H   0  0  0  0  0  0  0  0  0  0  0  0
   42.2030   34.8490   39.4730 H   0  0  0  0  0  0  0  0  0  0  0  0
   40.9850   35.1450   38.2040 H   0  0  0  0  0  0  0  0  0  0  0  0
   43.4250   33.4230   38.0950 H   0  0  0  0  0  0  0  0  0  0  0  0
   40.5590   32.6750   36.7790 O   0  0  0  0  0  0  0  0  0  0  0  0
   39.8860   31.9580   36.7050 H   0  0  0  0  0  0  0  0  0  0  0  0
   42.5540   34.4020   36.5030 O   0  0  0  0  0  0  0  0  0  0  0  0
   42.6870   33.7940   35.7430 H   0  0  0  0  0  0  0  0  0  0  0  0
   37.8890   27.7030   39.7800 C   0  0  0  0  0  0  0  0  0  0  0  0
   37.6570   27.2790   38.7590 H   0  0  0  0  0  0  0  0  0  0  0  0
   36.9040   28.0730   40.1340 H   0  0  0  0  0  0  0  0  0  0  0  0
   38.3760   26.6670   40.6640 N   0  0  0  0  0  0  0  0  0  0  0  0
   39.0110   25.5990   40.1450 C   0  0  0  0  0  3  0  0  0  0  0  0
   39.4740   24.6080   41.0090 C   0  0  0  0  0  3  0  0  0  0  0  0
   39.2400   24.8040   42.3540 C   0  0  0  0  0  0  0  0  0  0  0  0
   39.6920   23.8230   43.2780 N   0  0  0  0  0  0  0  0  0  0  0  0
   38.5950   25.8940   42.8420 N   0  0  0  0  0  0  0  0  0  0  0  0
   38.1570   26.8370   41.9850 C   0  0  0  0  0  0  0  0  0  0  0  0
   37.5770   27.8080   42.4900 O   0  0  0  0  0  0  0  0  0  0  0  0
   40.5240   24.2730   43.7560 H   0  0  0  0  0  0  0  0  0  0  0  0
   39.5510   22.8750   43.6690 H   0  0  0  0  0  0  0  0  0  0  0  0
  1  2  1  0  0  0  0
  2  3  2  0  0  0  0
  2 23  1  0  0  0  0
  3  8  1  0  0  0  0
  4  3  1  0  0  0  0
  5  4  2  0  0  0  0
  6  5  1  0  0  0  0
  6  1  2  0  0  0  0
  7  1  1  0  0  0  0
  9 14  1  6  0  0  0
  9 13  1  0  0  0  0
  9 10  1  0  0  0  0
 10  5  1  0  0  0  0
 10 11  1  0  0  0  0
 10 15  1  1  0  0  0
 12 11  1  0  0  0  0
 12 16  1  0  0  0  0
 13 18  1  1  0  0  0
 13 12  1  0  0  0  0
 17 12  1  0  0  0  0
 19  9  1  0  0  0  0
 20 19  1  0  0  0  0
 21 13  1  0  0  0  0
 22 21  1  0  0  0  0
 23 25  1  0  0  0  0
 23 26  1  0  0  0  0
 24 23  1  0  0  0  0
 26 32  1  0  0  0  0
 27 26  1  0  0  0  0
 27 28  2  0  0  0  0
 28 29  1  0  0  0  0
 29 31  2  0  0  0  0
 29 30  1  0  0  0  0
 30 35  1  0  0  0  0
 30 34  1  0  0  0  0
 32 33  2  0  0  0  0
 32 31  1  0  0  0  0
M  END
>  <minimizedAffinity>
-5.77192545

$$$$

 OpenBabel03252503443D

 35 37  0  0  1  0  0  0  0  0999 V2000
   38.6460   29.1510   40.8790 C   0  0  0  0  0  0  0  0  0  0  0  0
   37.4160   29.3820   41.5100 C   0  0  0  0  0  0  0  0  0  0  0  0
   37.2960   28.9210   42.8340 C   0  0  0  0  0  0  0  0  0  0  0  0
   38.3350   28.2980   43.4200 N   0  0  0  0  0  0  0  0  0  0  0  0
   39.5000   28.0950   42.7820 C   0  0  0  0  0  0  0  0  0  0  0  0
   39.6730   28.5180   41.5020 N   0  0  0  0  0  0  0  0  0  0  0  0
   38.8590   29.4580   39.8630 H   0  0  0  0  0  0  0  0  0  0  0  0
   36.3430   29.1030   43.3140 H   0  0  0  0  0  0  0  0  0  0  0  0
   40.8390   26.0060   42.9820 C   0  0  2  0  0  0  0  0  0  0  0  0
   40.5570   27.4260   43.5220 C   0  0  1  0  0  0  0  0  0  0  0  0
   41.8030   27.9750   43.3980 O   0  0  0  0  0  0  0  0  0  0  0  0
   42.7060   27.0660   43.8590 C   0  0  0  0  0  0  0  0  0  0  0  0
   42.0550   25.6980   43.8610 C   0  0  2  0  0  0  0  0  0  0  0  0
   40.0120   25.3220   43.1670 H   0  0  0  0  0  0  0  0  0  0  0  0
   40.2620   27.3390   44.5990 H   0  0  0  0  0  0  0  0  0  0  0  0
   43.0870   27.3080   44.8730 H   0  0  0  0  0  0  0  0  0  0  0  0
   43.5940   27.0150   43.1880 H   0  0  0  0  0  0  0  0  0  0  0  0
   41.6710   25.4580   44.8640 H   0  0  0  0  0  0  0  0  0  0  0  0
   41.2970   26.0960   41.7090 O   0  0  0  0  0  0  0  0  0  0  0  0
   40.6520   26.4300   41.0410 H   0  0  0  0  0  0  0  0  0  0  0  0
   42.8510   24.7070   43.3490 O   0  0  0  0  0  0  0  0  0  0  0  0
   42.2970   24.0100   42.9340 H   0  0  0  0  0  0  0  0  0  0  0  0
   36.3820   30.0760   40.7450 C   0  0  0  0  0  0  0  0  0  0  0  0
   35.9710   30.8920   41.4100 H   0  0  0  0  0  0  0  0  0  0  0  0
   35.5060   29.4150   40.5800 H   0  0  0  0  0  0  0  0  0  0  0  0
   36.8320   30.6250   39.4840 N   0  0  0  0  0  0  0  0  0  0  0  0
   36.7710   29.8660   38.3730 C   0  0  0  0  0  3  0  0  0  0  0  0
   37.2100   30.4080   37.1660 C   0  0  0  0  0  3  0  0  0  0  0  0
   37.6790   31.7040   37.2060 C   0  0  0  0  0  0  0  0  0  0  0  0
   38.1370   32.3040   36.0010 N   0  0  0  0  0  0  0  0  0  0  0  0
   37.7260   32.4390   38.3460 N   0  0  0  0  0  0  0  0  0  0  0  0
   37.2960   31.8920   39.5000 C   0  0  0  0  0  0  0  0  0  0  0  0
   37.3630   32.6120   40.5050 O   0  0  0  0  0  0  0  0  0  0  0  0
   37.3800   33.0000   35.7470 H   0  0  0  0  0  0  0  0  0  0  0  0
   38.8840   32.3430   35.2860 H   0  0  0  0  0  0  0  0  0  0  0  0
  1  6  2  0  0  0  0
  1  2  1  0  0  0  0
  2  3  2  0  0  0  0
  3  8  1  0  0  0  0
  3  4  1  0  0  0  0
  5  4  2  0  0  0  0
  5 10  1  0  0  0  0
  6  5  1  0  0  0  0
  7  1  1  0  0  0  0
  9 14  1  1  0  0  0
  9 10  1  0  0  0  0
  9 13  1  0  0  0  0
 10 15  1  1  0  0  0
 11 10  1  0  0  0  0
 11 12  1  0  0  0  0
 12 13  1  0  0  0  0
 12 16  1  0  0  0  0
 13 18  1  1  0  0  0
 17 12  1  0  0  0  0
 19  9  1  0  0  0  0
 20 19  1  0  0  0  0
 21 13  1  0  0  0  0
 22 21  1  0  0  0  0
 23 24  1  0  0  0  0
 23  2  1  0  0  0  0
 25 23  1  0  0  0  0
 26 32  1  0  0  0  0
 26 23  1  0  0  0  0
 27 26  1  0  0  0  0
 28 29  1  0  0  0  0
 28 27  2  0  0  0  0
 29 31  2  0  0  0  0
 30 29  1  0  0  0  0
 31 32  1  0  0  0  0
 32 33  2  0  0  0  0
 34 30  1  0  0  0  0
 35 30  1  0  0  0  0
M  END
>  <minimizedAffinity>
-5.73535156

$$$$

 OpenBabel03252503443D

 35 37  0  0  1  0  0  0  0  0999 V2000
   40.7290   30.0220   41.4750 C   0  0  0  0  0  0  0  0  0  0  0  0
   39.6830   30.8550   41.0570 C   0  0  0  0  0  0  0  0  0  0  0  0
   38.4830   30.2180   40.6920 C   0  0  0  0  0  0  0  0  0  0  0  0
   38.3930   28.8770   40.7580 N   0  0  0  0  0  0  0  0  0  0  0  0
   39.4180   28.1100   41.1650 C   0  0  0  0  0  0  0  0  0  0  0  0
   40.6020   28.6700   41.5300 N   0  0  0  0  0  0  0  0  0  0  0  0
   41.6980   30.3930   41.7810 H   0  0  0  0  0  0  0  0  0  0  0  0
   37.6800   30.8690   40.3690 H   0  0  0  0  0  0  0  0  0  0  0  0
   40.1120   25.9770   42.2470 C   0  0  2  0  0  0  0  0  0  0  0  0
   39.1990   26.6740   41.2130 C   0  0  1  0  0  0  0  0  0  0  0  0
   37.9750   26.2780   41.6770 O   0  0  0  0  0  0  0  0  0  0  0  0
   38.0510   24.9500   41.9700 C   0  0  0  0  0  0  0  0  0  0  0  0
   39.5090   24.5730   42.1280 C   0  0  2  0  0  0  0  0  0  0  0  0
   41.1610   26.0020   41.9550 H   0  0  0  0  0  0  0  0  0  0  0  0
   39.4080   26.2310   40.2050 H   0  0  0  0  0  0  0  0  0  0  0  0
   37.5730   24.3080   41.2010 H   0  0  0  0  0  0  0  0  0  0  0  0
   37.5390   24.7280   42.9340 H   0  0  0  0  0  0  0  0  0  0  0  0
   39.8960   24.1380   41.1940 H   0  0  0  0  0  0  0  0  0  0  0  0
   39.8010   26.4250   43.4880 O   0  0  0  0  0  0  0  0  0  0  0  0
   40.0020   27.3750   43.6660 H   0  0  0  0  0  0  0  0  0  0  0  0
   39.7610   23.7870   43.2220 O   0  0  0  0  0  0  0  0  0  0  0  0
   40.6680   23.9560   43.5570 H   0  0  0  0  0  0  0  0  0  0  0  0
   39.9300   32.2960   41.0400 C   0  0  0  0  0  0  0  0  0  0  0  0
   40.5030   32.5420   41.9830 H   0  0  0  0  0  0  0  0  0  0  0  0
   38.9820   32.8580   41.1640 H   0  0  0  0  0  0  0  0  0  0  0  0
   40.6400   32.7710   39.8740 N   0  0  0  0  0  0  0  0  0  0  0  0
   40.3110   32.2920   38.6580 C   0  0  0  0  0  3  0  0  0  0  0  0
   41.0050   32.7590   37.5430 C   0  0  0  0  0  3  0  0  0  0  0  0
   41.9920   33.6940   37.7780 C   0  0  0  0  0  0  0  0  0  0  0  0
   42.7290   34.2020   36.6730 N   0  0  0  0  0  0  0  0  0  0  0  0
   42.2970   34.1530   39.0170 N   0  0  0  0  0  0  0  0  0  0  0  0
   41.6110   33.6850   40.0790 C   0  0  0  0  0  0  0  0  0  0  0  0
   41.9340   34.1430   41.1830 O   0  0  0  0  0  0  0  0  0  0  0  0
   42.3670   35.1910   36.5460 H   0  0  0  0  0  0  0  0  0  0  0  0
   43.4540   34.0150   35.9580 H   0  0  0  0  0  0  0  0  0  0  0  0
  1  6  1  0  0  0  0
  1  7  1  0  0  0  0
  2  1  2  0  0  0  0
  3  4  2  0  0  0  0
  3  2  1  0  0  0  0
  4  5  1  0  0  0  0
  5 10  1  0  0  0  0
  5  6  2  0  0  0  0
  8  3  1  0  0  0  0
  9 14  1  6  0  0  0
  9 19  1  0  0  0  0
 10 15  1  6  0  0  0
 10 11  1  0  0  0  0
 10  9  1  0  0  0  0
 11 12  1  0  0  0  0
 12 13  1  0  0  0  0
 12 17  1  0  0  0  0
 13 18  1  6  0  0  0
 13  9  1  0  0  0  0
 13 21  1  0  0  0  0
 16 12  1  0  0  0  0
 19 20  1  0  0  0  0
 21 22  1  0  0  0  0
 23  2  1  0  0  0  0
 23 25  1  0  0  0  0
 23 24  1  0  0  0  0
 26 32  1  0  0  0  0
 26 23  1  0  0  0  0
 27 26  1  0  0  0  0
 28 29  1  0  0  0  0
 28 27  2  0  0  0  0
 29 31  2  0  0  0  0
 30 29  1  0  0  0  0
 31 32  1  0  0  0  0
 32 33  2  0  0  0  0
 34 30  1  0  0  0  0
 35 30  1  0  0  0  0
M  END
>  <minimizedAffinity>
-5.36110258

$$$$

 OpenBabel03252503443D

 35 37  0  0  1  0  0  0  0  0999 V2000
   39.0720   27.0590   41.3520 C   0  0  0  0  0  0  0  0  0  0  0  0
   38.3330   27.6460   42.3870 C   0  0  0  0  0  0  0  0  0  0  0  0
   37.2670   26.8860   42.9030 C   0  0  0  0  0  0  0  0  0  0  0  0
   37.0110   25.6660   42.3960 N   0  0  0  0  0  0  0  0  0  0  0  0
   37.7430   25.1360   41.4030 C   0  0  0  0  0  0  0  0  0  0  0  0
   38.7850   25.8240   40.8640 N   0  0  0  0  0  0  0  0  0  0  0  0
   39.9140   27.5440   40.8740 H   0  0  0  0  0  0  0  0  0  0  0  0
   36.7000   27.3470   43.7030 H   0  0  0  0  0  0  0  0  0  0  0  0
   36.8050   23.8110   39.5150 C   0  0  2  0  0  0  0  0  0  0  0  0
   37.3840   23.8030   40.9470 C   0  0  1  0  0  0  0  0  0  0  0  0
   38.4280   22.9370   40.7730 O   0  0  0  0  0  0  0  0  0  0  0  0
   37.9750   21.8800   40.0450 C   0  0  0  0  0  0  0  0  0  0  0  0
   36.7020   22.2930   39.3350 C   0  0  2  0  0  0  0  0  0  0  0  0
   35.8330   24.3000   39.4650 H   0  0  0  0  0  0  0  0  0  0  0  0
   36.6140   23.3680   41.6350 H   0  0  0  0  0  0  0  0  0  0  0  0
   37.7900   20.9760   40.6620 H   0  0  0  0  0  0  0  0  0  0  0  0
   38.7150   21.5880   39.2660 H   0  0  0  0  0  0  0  0  0  0  0  0
   35.8210   21.9630   39.9050 H   0  0  0  0  0  0  0  0  0  0  0  0
   37.7590   24.2370   38.6510 O   0  0  0  0  0  0  0  0  0  0  0  0
   38.0400   25.1780   38.7480 H   0  0  0  0  0  0  0  0  0  0  0  0
   36.6550   21.9100   38.0200 O   0  0  0  0  0  0  0  0  0  0  0  0
   36.1210   22.5510   37.5010 H   0  0  0  0  0  0  0  0  0  0  0  0
   38.7340   28.9790   42.8340 C   0  0  0  0  0  0  0  0  0  0  0  0
   39.8640   28.9940   42.8510 H   0  0  0  0  0  0  0  0  0  0  0  0
   38.4600   29.1340   43.8990 H   0  0  0  0  0  0  0  0  0  0  0  0
   38.2200   30.0640   42.0280 N   0  0  0  0  0  0  0  0  0  0  0  0
   36.9330   30.0430   41.6320 C   0  0  0  0  0  3  0  0  0  0  0  0
   36.4520   31.0950   40.8540 C   0  0  0  0  0  3  0  0  0  0  0  0
   37.3520   32.0950   40.5460 C   0  0  0  0  0  0  0  0  0  0  0  0
   36.9110   33.1910   39.7560 N   0  0  0  0  0  0  0  0  0  0  0  0
   38.6430   32.0820   40.9630 N   0  0  0  0  0  0  0  0  0  0  0  0
   39.0820   31.0530   41.7130 C   0  0  0  0  0  0  0  0  0  0  0  0
   40.2700   31.0990   42.0640 O   0  0  0  0  0  0  0  0  0  0  0  0
   36.8440   33.9990   40.4380 H   0  0  0  0  0  0  0  0  0  0  0  0
   36.6360   33.5210   38.8140 H   0  0  0  0  0  0  0  0  0  0  0  0
  1  2  1  0  0  0  0
  2 23  1  0  0  0  0
  2  3  2  0  0  0  0
  3  8  1  0  0  0  0
  4  3  1  0  0  0  0
  5  4  2  0  0  0  0
  6  1  2  0  0  0  0
  6  5  1  0  0  0  0
  7  1  1  0  0  0  0
  9 14  1  6  0  0  0
  9 10  1  0  0  0  0
 10  5  1  0  0  0  0
 10 15  1  1  0  0  0
 11 10  1  0  0  0  0
 12 16  1  0  0  0  0
 12 11  1  0  0  0  0
 13  9  1  0  0  0  0
 13 18  1  1  0  0  0
 13 12  1  0  0  0  0
 17 12  1  0  0  0  0
 19 20  1  0  0  0  0
 19  9  1  0  0  0  0
 21 13  1  0  0  0  0
 22 21  1  0  0  0  0
 23 24  1  0  0  0  0
 23 25  1  0  0  0  0
 26 23  1  0  0  0  0
 27 26  1  0  0  0  0
 28 27  2  0  0  0  0
 29 28  1  0  0  0  0
 29 31  2  0  0  0  0
 30 34  1  0  0  0  0
 30 29  1  0  0  0  0
 31 32  1  0  0  0  0
 32 26  1  0  0  0  0
 32 33  2  0  0  0  0
 35 30  1  0  0  0  0
M  END
>  <minimizedAffinity>
-5.32240582

$$$$

 OpenBabel03252503443D

 35 37  0  0  1  0  0  0  0  0999 V2000
   35.3800   28.8510   40.1190 C   0  0  0  0  0  0  0  0  0  0  0  0
   36.3650   29.7600   40.5270 C   0  0  0  0  0  0  0  0  0  0  0  0
   37.0180   30.4760   39.5070 C   0  0  0  0  0  0  0  0  0  0  0  0
   36.6780   30.2640   38.2220 N   0  0  0  0  0  0  0  0  0  0  0  0
   35.7270   29.3840   37.8680 C   0  0  0  0  0  0  0  0  0  0  0  0
   35.0630   28.6630   38.8110 N   0  0  0  0  0  0  0  0  0  0  0  0
   34.8090   28.2430   40.8090 H   0  0  0  0  0  0  0  0  0  0  0  0
   37.7780   31.1750   39.8310 H   0  0  0  0  0  0  0  0  0  0  0  0
   36.5760   29.7960   35.5640 C   0  0  2  0  0  0  0  0  0  0  0  0
   35.4330   29.2520   36.4510 C   0  0  1  0  0  0  0  0  0  0  0  0
   35.3610   27.9710   35.9790 O   0  0  0  0  0  0  0  0  0  0  0  0
   35.4150   28.0240   34.6200 C   0  0  0  0  0  0  0  0  0  0  0  0
   36.0010   29.3600   34.2120 C   0  0  2  0  0  0  0  0  0  0  0  0
   36.6780   30.8780   35.6400 H   0  0  0  0  0  0  0  0  0  0  0  0
   34.5000   29.8220   36.2080 H   0  0  0  0  0  0  0  0  0  0  0  0
   34.4250   27.8810   34.1400 H   0  0  0  0  0  0  0  0  0  0  0  0
   36.0830   27.2270   34.2190 H   0  0  0  0  0  0  0  0  0  0  0  0
   35.1990   30.0700   33.9620 H   0  0  0  0  0  0  0  0  0  0  0  0
   37.6900   29.0510   35.7680 O   0  0  0  0  0  0  0  0  0  0  0  0
   38.0970   29.1180   36.6640 H   0  0  0  0  0  0  0  0  0  0  0  0
   36.9520   29.2690   33.2290 O   0  0  0  0  0  0  0  0  0  0  0  0
   37.6080   29.9930   33.3270 H   0  0  0  0  0  0  0  0  0  0  0  0
   36.6210   29.8820   41.9610 C   0  0  0  0  0  0  0  0  0  0  0  0
   35.6630   29.6000   42.4910 H   0  0  0  0  0  0  0  0  0  0  0  0
   36.7670   30.9450   42.2450 H   0  0  0  0  0  0  0  0  0  0  0  0
   37.7260   29.0840   42.4460 N   0  0  0  0  0  0  0  0  0  0  0  0
   38.9880   29.5100   42.2450 C   0  0  0  0  0  3  0  0  0  0  0  0
   40.0420   28.7300   42.7170 C   0  0  0  0  0  3  0  0  0  0  0  0
   39.7020   27.5610   43.3650 C   0  0  0  0  0  0  0  0  0  0  0  0
   40.7410   26.7300   43.8660 N   0  0  0  0  0  0  0  0  0  0  0  0
   38.4180   27.1630   43.5490 N   0  0  0  0  0  0  0  0  0  0  0  0
   37.4170   27.9350   43.0830 C   0  0  0  0  0  0  0  0  0  0  0  0
   36.2680   27.5190   43.2810 O   0  0  0  0  0  0  0  0  0  0  0  0
   40.7040   26.8640   44.9170 H   0  0  0  0  0  0  0  0  0  0  0  0
   41.5010   26.0640   43.6380 H   0  0  0  0  0  0  0  0  0  0  0  0
  1  2  1  0  0  0  0
  1  7  1  0  0  0  0
  2 23  1  0  0  0  0
  3  8  1  0  0  0  0
  3  2  2  0  0  0  0
  4  3  1  0  0  0  0
  5  4  2  0  0  0  0
  5  6  1  0  0  0  0
  6  1  2  0  0  0  0
  9 14  1  1  0  0  0
  9 19  1  0  0  0  0
  9 10  1  0  0  0  0
 10 15  1  6  0  0  0
 10  5  1  0  0  0  0
 11 10  1  0  0  0  0
 12 11  1  0  0  0  0
 13 18  1  6  0  0  0
 13 12  1  0  0  0  0
 13  9  1  0  0  0  0
 16 12  1  0  0  0  0
 17 12  1  0  0  0  0
 19 20  1  0  0  0  0
 21 22  1  0  0  0  0
 21 13  1  0  0  0  0
 23 25  1  0  0  0  0
 23 26  1  0  0  0  0
 23 24  1  0  0  0  0
 26 32  1  0  0  0  0
 27 26  1  0  0  0  0
 27 28  2  0  0  0  0
 28 29  1  0  0  0  0
 29 31  2  0  0  0  0
 29 30  1  0  0  0  0
 30 34  1  0  0  0  0
 32 33  2  0  0  0  0
 32 31  1  0  0  0  0
 35 30  1  0  0  0  0
M  END
>  <minimizedAffinity>
-5.3167367

$$$$

 OpenBabel03252503443D

 35 37  0  0  1  0  0  0  0  0999 V2000
   39.0140   28.1850   41.2390 C   0  0  0  0  0  0  0  0  0  0  0  0
   38.4020   27.7590   42.4260 C   0  0  0  0  0  0  0  0  0  0  0  0
   37.4750   28.6460   43.0050 C   0  0  0  0  0  0  0  0  0  0  0  0
   37.2230   29.8270   42.4120 N   0  0  0  0  0  0  0  0  0  0  0  0
   37.8290   30.2000   41.2730 C   0  0  0  0  0  0  0  0  0  0  0  0
   38.7340   29.3850   40.6690 N   0  0  0  0  0  0  0  0  0  0  0  0
   39.7430   27.5920   40.7010 H   0  0  0  0  0  0  0  0  0  0  0  0
   37.0070   28.3100   43.9210 H   0  0  0  0  0  0  0  0  0  0  0  0
   38.6240   32.5100   40.7920 C   0  0  2  0  0  0  0  0  0  0  0  0
   37.4650   31.4920   40.7150 C   0  0  1  0  0  0  0  0  0  0  0  0
   37.2280   31.5090   39.3680 O   0  0  0  0  0  0  0  0  0  0  0  0
   37.2320   32.8080   38.9610 C   0  0  0  0  0  0  0  0  0  0  0  0
   37.9490   33.6390   40.0050 C   0  0  2  0  0  0  0  0  0  0  0  0
   38.8520   32.8000   41.8170 H   0  0  0  0  0  0  0  0  0  0  0  0
   36.5920   31.9100   41.2800 H   0  0  0  0  0  0  0  0  0  0  0  0
   36.2130   33.2120   38.7870 H   0  0  0  0  0  0  0  0  0  0  0  0
   37.7880   32.9200   38.0020 H   0  0  0  0  0  0  0  0  0  0  0  0
   37.2230   34.1110   40.6840 H   0  0  0  0  0  0  0  0  0  0  0  0
   39.6540   32.0710   40.0280 O   0  0  0  0  0  0  0  0  0  0  0  0
   40.1020   31.2480   40.3390 H   0  0  0  0  0  0  0  0  0  0  0  0
   38.8420   34.5360   39.4790 O   0  0  0  0  0  0  0  0  0  0  0  0
   39.5800   34.6860   40.1100 H   0  0  0  0  0  0  0  0  0  0  0  0
   38.7770   26.4460   42.9480 C   0  0  0  0  0  0  0  0  0  0  0  0
   38.3430   26.3700   43.9890 H   0  0  0  0  0  0  0  0  0  0  0  0
   39.8710   26.3910   43.1230 H   0  0  0  0  0  0  0  0  0  0  0  0
   38.3490   25.3300   42.1340 N   0  0  0  0  0  0  0  0  0  0  0  0
   37.0320   25.0810   41.9930 C   0  0  0  0  0  3  0  0  0  0  0  0
   36.6350   24.0010   41.2060 C   0  0  0  0  0  3  0  0  0  0  0  0
   37.6410   23.2590   40.6230 C   0  0  0  0  0  0  0  0  0  0  0  0
   37.2880   22.1480   39.8110 N   0  0  0  0  0  0  0  0  0  0  0  0
   38.9580   23.5400   40.7890 N   0  0  0  0  0  0  0  0  0  0  0  0
   39.3160   24.5890   41.5540 C   0  0  0  0  0  0  0  0  0  0  0  0
   40.5320   24.7950   41.6660 O   0  0  0  0  0  0  0  0  0  0  0  0
   37.4860   22.4700   38.8200 H   0  0  0  0  0  0  0  0  0  0  0  0
   36.9280   21.1780   39.7830 H   0  0  0  0  0  0  0  0  0  0  0  0
  1  2  1  0  0  0  0
  2 23  1  0  0  0  0
  2  3  2  0  0  0  0
  3  8  1  0  0  0  0
  4  3  1  0  0  0  0
  5  4  2  0  0  0  0
  6  1  2  0  0  0  0
  6  5  1  0  0  0  0
  7  1  1  0  0  0  0
  9 14  1  1  0  0  0
 10  9  1  0  0  0  0
 10  5  1  0  0  0  0
 10 15  1  1  0  0  0
 11 10  1  0  0  0  0
 12 11  1  0  0  0  0
 12 13  1  0  0  0  0
 13 18  1  1  0  0  0
 13  9  1  0  0  0  0
 16 12  1  0  0  0  0
 17 12  1  0  0  0  0
 19 20  1  0  0  0  0
 19  9  1  0  0  0  0
 21 13  1  0  0  0  0
 21 22  1  0  0  0  0
 23 25  1  0  0  0  0
 23 24  1  0  0  0  0
 26 23  1  0  0  0  0
 27 26  1  0  0  0  0
 28 27  2  0  0  0  0
 29 31  2  0  0  0  0
 29 28  1  0  0  0  0
 30 29  1  0  0  0  0
 31 32  1  0  0  0  0
 32 33  2  0  0  0  0
 32 26  1  0  0  0  0
 34 30  1  0  0  0  0
 35 30  1  0  0  0  0
M  END
>  <minimizedAffinity>
-5.28837252

$$$$
