
 OpenBabel03242510123D

 43 46  0  0  1  0  0  0  0  0999 V2000
   46.7550   33.0370   38.6860 N   0  0  0  0  0  0  0  0  0  0  0  0
   45.8680   33.3680   37.5920 C   0  0  0  0  0  0  0  0  0  0  0  0
   45.0670   32.1640   37.1430 C   0  0  0  0  0  0  0  0  0  0  0  0
   45.9180   31.1160   36.6040 N   0  0  0  0  0  0  0  0  0  0  0  0
   47.2880   31.3750   37.0690 C   0  0  0  0  0  0  0  0  0  0  0  0
   47.2400   31.6690   38.5500 C   0  0  1  0  0  0  0  0  0  0  0  0
   45.1050   34.0660   38.0370 H   0  0  0  0  0  0  0  0  0  0  0  0
   46.3430   33.8550   36.7410 H   0  0  0  0  0  0  0  0  0  0  0  0
   44.5630   31.7150   38.0460 H   0  0  0  0  0  0  0  0  0  0  0  0
   44.3400   32.5020   36.4050 H   0  0  0  0  0  0  0  0  0  0  0  0
   45.9650   31.1870   35.5570 H   0  0  0  0  0  0  0  0  0  0  0  0
   47.9840   30.5720   36.8280 H   0  0  0  0  0  0  0  0  0  0  0  0
   47.6050   32.2700   36.4910 H   0  0  0  0  0  0  0  0  0  0  0  0
   46.3990   31.0360   38.9470 H   0  0  0  0  0  0  0  0  0  0  0  0
   44.9220   32.8950   41.2140 Br  0  0  0  0  0  0  0  0  0  0  0  0
   46.4920   33.9350   40.9700 C   0  0  0  0  0  0  0  0  0  0  0  0
   46.9530   34.7570   41.9780 C   0  0  0  0  0  0  0  0  0  0  0  0
   48.1070   35.5300   41.8200 C   0  0  0  0  0  0  0  0  0  0  0  0
   48.7790   35.4550   40.6240 C   0  0  0  0  0  0  0  0  0  0  0  0
   48.2870   34.6210   39.6400 C   0  0  0  0  0  0  0  0  0  0  0  0
   47.1590   33.8570   39.7810 C   0  0  0  0  0  0  0  0  0  0  0  0
   48.4280   36.1600   42.6400 H   0  0  0  0  0  0  0  0  0  0  0  0
   49.6690   36.0490   40.4970 H   0  0  0  0  0  0  0  0  0  0  0  0
   48.8800   34.6250   38.7320 H   0  0  0  0  0  0  0  0  0  0  0  0
   45.7700   33.9340   45.3400 C   0  0  0  0  0  0  0  0  0  0  0  0
   44.7810   34.9060   45.6000 C   0  0  0  0  0  0  0  0  0  0  0  0
   44.5440   35.8350   44.5910 C   0  0  0  0  0  0  0  0  0  0  0  0
   45.2510   35.7660   43.4440 N   0  0  0  0  0  0  0  0  0  0  0  0
   46.2070   34.8040   43.2270 C   0  0  0  0  0  0  0  0  0  0  0  0
   46.4400   33.9030   44.2000 N   0  0  0  0  0  0  0  0  0  0  0  0
   45.9580   33.1990   46.1370 H   0  0  0  0  0  0  0  0  0  0  0  0
   44.2250   34.9550   46.5070 H   0  0  0  0  0  0  0  0  0  0  0  0
   43.7980   36.6260   44.6960 H   0  0  0  0  0  0  0  0  0  0  0  0
   48.4780   31.4280   39.2400 N   0  0  0  0  0  0  0  0  0  0  0  0
   48.3740   30.8970   40.4730 C   0  0  0  0  0  3  0  0  0  0  0  0
   49.5200   30.6420   41.1820 C   0  0  0  0  0  3  0  0  0  0  0  0
   50.7060   30.9560   40.5680 C   0  0  0  0  0  0  0  0  0  0  0  0
   51.9630   30.7410   41.1980 N   0  0  0  0  0  0  0  0  0  0  0  0
   50.7560   31.4860   39.3330 N   0  0  0  0  0  0  0  0  0  0  0  0
   49.6130   31.7370   38.6290 C   0  0  0  0  0  0  0  0  0  0  0  0
   49.7300   32.2270   37.4940 O   0  0  0  0  0  0  0  0  0  0  0  0
   52.2730   29.8580   40.7620 H   0  0  0  0  0  0  0  0  0  0  0  0
   52.6950   31.0460   41.8690 H   0  0  0  0  0  0  0  0  0  0  0  0
  1 21  1  0  0  0  0
  2  7  1  0  0  0  0
  2  1  1  0  0  0  0
  3  2  1  0  0  0  0
  3  9  1  0  0  0  0
  4  5  1  0  0  0  0
  4  3  1  0  0  0  0
  5  6  1  0  0  0  0
  6  1  1  0  0  0  0
  6 14  1  1  0  0  0
  6 34  1  0  0  0  0
  8  2  1  0  0  0  0
 10  3  1  0  0  0  0
 11  4  1  0  0  0  0
 12  5  1  0  0  0  0
 13  5  1  0  0  0  0
 16 15  1  0  0  0  0
 16 17  1  0  0  0  0
 17 29  1  0  0  0  0
 18 17  2  0  0  0  0
 18 22  1  0  0  0  0
 19 18  1  0  0  0  0
 20 21  1  0  0  0  0
 20 19  2  0  0  0  0
 21 16  2  0  0  0  0
 23 19  1  0  0  0  0
 24 20  1  0  0  0  0
 25 26  1  0  0  0  0
 25 31  1  0  0  0  0
 26 32  1  0  0  0  0
 27 33  1  0  0  0  0
 27 26  2  0  0  0  0
 28 27  1  0  0  0  0
 29 28  2  0  0  0  0
 29 30  1  0  0  0  0
 30 25  2  0  0  0  0
 34 35  1  0  0  0  0
 35 36  2  0  0  0  0
 37 36  1  0  0  0  0
 37 38  1  0  0  0  0
 38 43  1  0  0  0  0
 39 37  2  0  0  0  0
 40 34  1  0  0  0  0
 40 39  1  0  0  0  0
 41 40  2  0  0  0  0
 42 38  1  0  0  0  0
M  END
>  <minimizedAffinity>
-6.05532503

>  <minimizedRMSD>
0.253652304

$$$$
