
 OpenBabel03252500573D

 39 41  0  0  0  0  0  0  0  0999 V2000
   43.8100   34.1090   39.8920 O   0  0  0  0  0  0  0  0  0  0  0  0
   43.3760   34.2990   41.3390 P   0  0  1  0  0  0  0  0  0  0  0  0
   43.1230   32.7640   42.0310 O   0  0  0  0  0  0  0  0  0  0  0  0
   43.0460   32.8740   43.0000 H   0  0  0  0  0  0  0  0  0  0  0  0
   44.6280   35.0480   42.2150 O   0  0  0  0  0  0  0  0  0  0  0  0
   46.7700   34.1920   42.6730 C   0  0  0  0  0  0  0  0  0  0  0  0
   45.4890   34.4410   43.1180 C   0  0  0  0  0  0  0  0  0  0  0  0
   45.1560   34.0700   44.4260 C   0  0  0  0  0  0  0  0  0  0  0  0
   46.1120   33.4900   45.1740 N   0  0  0  0  0  0  0  0  0  0  0  0
   47.3500   33.2540   44.7280 C   0  0  0  0  0  0  0  0  0  0  0  0
   47.6690   33.6090   43.4800 N   0  0  0  0  0  0  0  0  0  0  0  0
   44.1640   34.2740   44.7450 H   0  0  0  0  0  0  0  0  0  0  0  0
   48.1350   32.7870   45.3170 H   0  0  0  0  0  0  0  0  0  0  0  0
   47.1800   34.5570   41.3160 C   0  0  0  0  0  0  0  0  0  0  0  0
   46.4080   35.2020   40.8440 H   0  0  0  0  0  0  0  0  0  0  0  0
   47.3110   33.6630   40.6750 H   0  0  0  0  0  0  0  0  0  0  0  0
   48.4790   35.3100   41.3870 C   0  0  0  0  0  0  0  0  0  0  0  0
   49.2990   34.6150   41.5650 H   0  0  0  0  0  0  0  0  0  0  0  0
   48.3910   36.0690   42.1910 H   0  0  0  0  0  0  0  0  0  0  0  0
   48.6390   35.7980   40.3940 H   0  0  0  0  0  0  0  0  0  0  0  0
   41.9130   35.1430   41.4270 O   0  0  0  0  0  0  0  0  0  0  0  0
   40.7660   34.5150   40.9660 C   0  0  0  0  0  0  0  0  0  0  0  0
   39.8390   35.2700   40.2700 C   0  0  0  0  0  0  0  0  0  0  0  0
   38.6630   34.7200   39.7730 C   0  0  0  0  0  0  0  0  0  0  0  0
   38.4360   33.3880   39.9880 N   0  0  0  0  0  0  0  0  0  0  0  0
   39.3360   32.6710   40.6590 C   0  0  0  0  0  0  0  0  0  0  0  0
   40.4600   33.2050   41.1320 N   0  0  0  0  0  0  0  0  0  0  0  0
   40.0350   36.3070   40.1120 H   0  0  0  0  0  0  0  0  0  0  0  0
   37.9560   35.3510   39.2280 H   0  0  0  0  0  0  0  0  0  0  0  0
   39.0340   31.2910   40.8460 N   0  0  0  0  0  0  0  0  0  0  0  0
   39.2340   30.7020   42.0540 C   0  0  0  0  0  3  0  0  0  0  0  0
   38.9080   29.3640   42.1280 C   0  0  0  0  0  3  0  0  0  0  0  0
   38.4080   28.6050   41.0870 C   0  0  0  0  0  0  0  0  0  0  0  0
   38.0940   27.2270   41.2310 N   0  0  0  0  0  0  0  0  0  0  0  0
   38.2440   29.2740   39.9290 N   0  0  0  0  0  0  0  0  0  0  0  0
   38.5510   30.5910   39.8110 C   0  0  0  0  0  0  0  0  0  0  0  0
   38.3690   31.1460   38.6990 O   0  0  0  0  0  0  0  0  0  0  0  0
   38.3010   26.7850   42.1500 H   0  0  0  0  0  0  0  0  0  0  0  0
   37.6740   26.7500   40.4000 H   0  0  0  0  0  0  0  0  0  0  0  0
  2  1  2  6  0  0  0
  2 21  1  0  0  0  0
  2  3  1  0  0  0  0
  2  5  1  0  0  0  0
  3  4  1  0  0  0  0
  5  7  1  0  0  0  0
  6  7  2  0  0  0  0
  6 11  1  0  0  0  0
  7  8  1  0  0  0  0
  8 12  1  0  0  0  0
  8  9  2  0  0  0  0
 10  9  1  0  0  0  0
 10 13  1  0  0  0  0
 11 10  2  0  0  0  0
 14 17  1  0  0  0  0
 14  6  1  0  0  0  0
 15 14  1  0  0  0  0
 16 14  1  0  0  0  0
 17 18  1  0  0  0  0
 17 19  1  0  0  0  0
 20 17  1  0  0  0  0
 22 27  1  0  0  0  0
 22 21  1  0  0  0  0
 23 22  2  0  0  0  0
 24 25  2  0  0  0  0
 24 23  1  0  0  0  0
 25 26  1  0  0  0  0
 26 30  1  0  0  0  0
 26 27  2  0  0  0  0
 28 23  1  0  0  0  0
 29 24  1  0  0  0  0
 30 31  1  0  0  0  0
 31 32  2  0  0  0  0
 33 34  1  0  0  0  0
 33 32  1  0  0  0  0
 34 38  1  0  0  0  0
 35 33  2  0  0  0  0
 36 35  1  0  0  0  0
 36 30  1  0  0  0  0
 37 36  2  0  0  0  0
 39 34  1  0  0  0  0
M  END
>  <minimizedAffinity>
-5.75627232

>  <minimizedRMSD>
0.943088055

$$$$
