
 OpenBabel03242511333D

 36 38  0  0  1  0  0  0  0  0999 V2000
   48.5670   32.1350   42.8590 C   0  0  0  0  0  3  0  0  0  0  0  0
   47.9320   33.2860   42.9590 C   0  0  0  0  0  3  0  0  0  0  0  0
   49.3750   31.8770   41.6730 C   0  0  0  0  0  0  0  0  0  0  0  0
   50.7730   31.9170   41.8210 C   0  0  0  0  0  0  0  0  0  0  0  0
   51.5780   31.6750   40.7060 C   0  0  0  0  0  0  0  0  0  0  0  0
   50.9680   31.4090   39.5200 N   0  0  0  0  0  0  0  0  0  0  0  0
   49.6280   31.3770   39.4100 C   0  0  0  0  0  0  0  0  0  0  0  0
   48.8560   31.6100   40.4810 N   0  0  0  0  0  0  0  0  0  0  0  0
   51.2370   32.1320   42.7850 H   0  0  0  0  0  0  0  0  0  0  0  0
   52.6440   31.7100   40.8410 H   0  0  0  0  0  0  0  0  0  0  0  0
   49.0760   31.0910   38.1290 N   0  0  0  0  0  0  0  0  0  0  0  0
   48.1040   30.1690   38.0010 C   0  0  0  0  0  3  0  0  0  0  0  0
   47.5990   29.9280   36.7190 C   0  0  0  0  0  3  0  0  0  0  0  0
   48.1510   30.6670   35.7030 C   0  0  0  0  0  0  0  0  0  0  0  0
   47.6260   30.4100   34.4110 N   0  0  0  0  0  0  0  0  0  0  0  0
   49.1230   31.5870   35.8530 N   0  0  0  0  0  0  0  0  0  0  0  0
   49.5980   31.8040   37.0970 C   0  0  0  0  0  0  0  0  0  0  0  0
   50.5050   32.6560   37.2730 O   0  0  0  0  0  0  0  0  0  0  0  0
   47.7640   30.2310   33.4050 H   0  0  0  0  0  0  0  0  0  0  0  0
   46.6020   30.3230   34.1420 H   0  0  0  0  0  0  0  0  0  0  0  0
   47.0990   33.6140   44.1270 C   0  0  0  0  0  0  0  0  0  0  0  0
   47.6260   34.3210   44.7940 H   0  0  0  0  0  0  0  0  0  0  0  0
   46.8710   32.6590   44.6570 H   0  0  0  0  0  0  0  0  0  0  0  0
   44.6980   36.2360   43.4850 C   0  0  1  0  0  0  0  0  0  0  0  0
   45.8510   35.4230   42.8930 C   0  0  0  0  0  0  0  0  0  0  0  0
   45.7450   34.1820   43.7070 C   0  0  2  0  0  0  0  0  0  0  0  0
   44.9030   34.3860   44.7560 O   0  0  0  0  0  0  0  0  0  0  0  0
   44.7120   35.7470   44.9130 C   0  0  0  0  0  0  0  0  0  0  0  0
   43.7410   36.0060   43.0050 H   0  0  0  0  0  0  0  0  0  0  0  0
   46.7700   36.0050   43.0520 H   0  0  0  0  0  0  0  0  0  0  0  0
   45.6180   35.2660   41.7990 H   0  0  0  0  0  0  0  0  0  0  0  0
   45.2730   33.3870   43.0600 H   0  0  0  0  0  0  0  0  0  0  0  0
   43.7630   35.9200   45.4530 H   0  0  0  0  0  0  0  0  0  0  0  0
   45.5060   36.2290   45.5030 H   0  0  0  0  0  0  0  0  0  0  0  0
   44.9730   37.5930   43.3790 O   0  0  0  0  0  0  0  0  0  0  0  0
   45.5250   37.9480   44.1190 H   0  0  0  0  0  0  0  0  0  0  0  0
  1  2  2  0  0  0  0
  2 21  1  0  0  0  0
  3  4  1  0  0  0  0
  3  1  1  0  0  0  0
  4  9  1  0  0  0  0
  5 10  1  0  0  0  0
  5  4  2  0  0  0  0
  6  5  1  0  0  0  0
  7  6  2  0  0  0  0
  7  8  1  0  0  0  0
  8  3  2  0  0  0  0
 11  7  1  0  0  0  0
 12 11  1  0  0  0  0
 13 12  2  0  0  0  0
 14 16  2  0  0  0  0
 14 13  1  0  0  0  0
 15 14  1  0  0  0  0
 16 17  1  0  0  0  0
 17 18  2  0  0  0  0
 17 11  1  0  0  0  0
 19 15  1  0  0  0  0
 20 15  1  0  0  0  0
 21 23  1  0  0  0  0
 21 22  1  0  0  0  0
 24 29  1  6  0  0  0
 24 28  1  0  0  0  0
 25 30  1  0  0  0  0
 25 24  1  0  0  0  0
 25 26  1  0  0  0  0
 26 32  1  6  0  0  0
 26 21  1  0  0  0  0
 26 27  1  0  0  0  0
 27 28  1  0  0  0  0
 28 33  1  0  0  0  0
 28 34  1  0  0  0  0
 31 25  1  0  0  0  0
 35 24  1  0  0  0  0
 35 36  1  0  0  0  0
M  END
>  <minimizedAffinity>
-4.76002693

>  <minimizedRMSD>
0.490464091

$$$$
