
 OpenBabel03242511333D

 36 38  0  0  1  0  0  0  0  0999 V2000
   48.6160   32.1870   42.7350 C   0  0  0  0  0  3  0  0  0  0  0  0
   48.0280   33.3510   42.9270 C   0  0  0  0  0  3  0  0  0  0  0  0
   49.4670   32.0130   41.5630 C   0  0  0  0  0  0  0  0  0  0  0  0
   50.8300   31.7510   41.7870 C   0  0  0  0  0  0  0  0  0  0  0  0
   51.6740   31.5790   40.6880 C   0  0  0  0  0  0  0  0  0  0  0  0
   51.1340   31.6720   39.4440 N   0  0  0  0  0  0  0  0  0  0  0  0
   49.8260   31.9240   39.2620 C   0  0  0  0  0  0  0  0  0  0  0  0
   49.0160   32.0890   40.3170 N   0  0  0  0  0  0  0  0  0  0  0  0
   51.2370   31.6810   42.7970 H   0  0  0  0  0  0  0  0  0  0  0  0
   52.7130   31.3800   40.8810 H   0  0  0  0  0  0  0  0  0  0  0  0
   49.3470   32.0050   37.9230 N   0  0  0  0  0  0  0  0  0  0  0  0
   48.9910   33.1930   37.4010 C   0  0  0  0  0  3  0  0  0  0  0  0
   48.5280   33.2130   36.0820 C   0  0  0  0  0  3  0  0  0  0  0  0
   48.4800   32.0020   35.4400 C   0  0  0  0  0  0  0  0  0  0  0  0
   48.0080   32.0410   34.1020 N   0  0  0  0  0  0  0  0  0  0  0  0
   48.8410   30.8220   35.9810 N   0  0  0  0  0  0  0  0  0  0  0  0
   49.2860   30.8230   37.2540 C   0  0  0  0  0  0  0  0  0  0  0  0
   49.6300   29.7400   37.7890 O   0  0  0  0  0  0  0  0  0  0  0  0
   47.4120   31.6680   33.3490 H   0  0  0  0  0  0  0  0  0  0  0  0
   48.2940   32.7260   33.3430 H   0  0  0  0  0  0  0  0  0  0  0  0
   47.1560   33.5980   44.0870 C   0  0  0  0  0  0  0  0  0  0  0  0
   47.6470   34.2810   44.8050 H   0  0  0  0  0  0  0  0  0  0  0  0
   46.9360   32.6120   44.5590 H   0  0  0  0  0  0  0  0  0  0  0  0
   44.7270   36.2010   43.4700 C   0  0  1  0  0  0  0  0  0  0  0  0
   45.9010   35.4190   42.8770 C   0  0  0  0  0  0  0  0  0  0  0  0
   45.8010   34.1570   43.6590 C   0  0  2  0  0  0  0  0  0  0  0  0
   44.9400   34.3240   44.7000 O   0  0  0  0  0  0  0  0  0  0  0  0
   44.7270   35.6780   44.8870 C   0  0  0  0  0  0  0  0  0  0  0  0
   43.7810   35.9690   42.9700 H   0  0  0  0  0  0  0  0  0  0  0  0
   46.8090   36.0090   43.0640 H   0  0  0  0  0  0  0  0  0  0  0  0
   45.6870   35.2850   41.7760 H   0  0  0  0  0  0  0  0  0  0  0  0
   45.3490   33.3710   42.9870 H   0  0  0  0  0  0  0  0  0  0  0  0
   43.7670   35.8240   45.4150 H   0  0  0  0  0  0  0  0  0  0  0  0
   45.5040   36.1570   45.5000 H   0  0  0  0  0  0  0  0  0  0  0  0
   44.9850   37.5640   43.4010 O   0  0  0  0  0  0  0  0  0  0  0  0
   45.5190   37.9090   44.1570 H   0  0  0  0  0  0  0  0  0  0  0  0
  1  2  2  0  0  0  0
  2 21  1  0  0  0  0
  3  4  1  0  0  0  0
  3  1  1  0  0  0  0
  4  9  1  0  0  0  0
  5 10  1  0  0  0  0
  5  4  2  0  0  0  0
  6  5  1  0  0  0  0
  7  6  2  0  0  0  0
  7  8  1  0  0  0  0
  8  3  2  0  0  0  0
 11  7  1  0  0  0  0
 12 11  1  0  0  0  0
 13 12  2  0  0  0  0
 14 16  2  0  0  0  0
 14 13  1  0  0  0  0
 15 14  1  0  0  0  0
 16 17  1  0  0  0  0
 17 18  2  0  0  0  0
 17 11  1  0  0  0  0
 19 15  1  0  0  0  0
 20 15  1  0  0  0  0
 21 23  1  0  0  0  0
 21 22  1  0  0  0  0
 24 29  1  6  0  0  0
 24 28  1  0  0  0  0
 25 30  1  0  0  0  0
 25 24  1  0  0  0  0
 25 26  1  0  0  0  0
 26 32  1  6  0  0  0
 26 21  1  0  0  0  0
 26 27  1  0  0  0  0
 27 28  1  0  0  0  0
 28 33  1  0  0  0  0
 28 34  1  0  0  0  0
 31 25  1  0  0  0  0
 35 24  1  0  0  0  0
 35 36  1  0  0  0  0
M  END
>  <minimizedAffinity>
-5.28496313

>  <minimizedRMSD>
0.46301353

$$$$
