
 OpenBabel03252500593D

 39 41  0  0  0  0  0  0  0  0999 V2000
   36.5150   28.7630   40.2340 O   0  0  0  0  0  0  0  0  0  0  0  0
   36.8830   30.1900   40.6190 P   0  0  1  0  0  0  0  0  0  0  0  0
   35.5180   30.9270   41.3200 O   0  0  0  0  0  0  0  0  0  0  0  0
   35.8060   31.7600   41.7470 H   0  0  0  0  0  0  0  0  0  0  0  0
   38.1070   30.1630   41.8010 O   0  0  0  0  0  0  0  0  0  0  0  0
   38.7290   28.2830   43.0690 C   0  0  0  0  0  0  0  0  0  0  0  0
   39.0180   29.1420   42.0310 C   0  0  0  0  0  0  0  0  0  0  0  0
   40.1900   28.9270   41.2960 C   0  0  0  0  0  0  0  0  0  0  0  0
   40.9680   27.8870   41.6500 N   0  0  0  0  0  0  0  0  0  0  0  0
   40.6740   27.0620   42.6600 C   0  0  0  0  0  0  0  0  0  0  0  0
   39.5550   27.2660   43.3610 N   0  0  0  0  0  0  0  0  0  0  0  0
   40.3900   29.6020   40.5020 H   0  0  0  0  0  0  0  0  0  0  0  0
   41.2880   26.2180   42.9600 H   0  0  0  0  0  0  0  0  0  0  0  0
   37.5190   28.4550   43.8740 C   0  0  0  0  0  0  0  0  0  0  0  0
   37.0760   29.4580   43.6890 H   0  0  0  0  0  0  0  0  0  0  0  0
   37.7350   28.3760   44.9580 H   0  0  0  0  0  0  0  0  0  0  0  0
   36.5240   27.3950   43.4890 C   0  0  0  0  0  0  0  0  0  0  0  0
   36.8130   26.4410   43.9290 H   0  0  0  0  0  0  0  0  0  0  0  0
   36.4830   27.3510   42.3820 H   0  0  0  0  0  0  0  0  0  0  0  0
   35.5340   27.6940   43.9120 H   0  0  0  0  0  0  0  0  0  0  0  0
   37.3050   31.0950   39.2540 O   0  0  0  0  0  0  0  0  0  0  0  0
   38.1920   32.1490   39.4160 C   0  0  0  0  0  0  0  0  0  0  0  0
   37.8000   33.2230   40.1950 C   0  0  0  0  0  0  0  0  0  0  0  0
   38.6260   34.3190   40.4100 C   0  0  0  0  0  0  0  0  0  0  0  0
   39.8630   34.3160   39.8240 N   0  0  0  0  0  0  0  0  0  0  0  0
   40.2290   33.2770   39.0760 C   0  0  0  0  0  0  0  0  0  0  0  0
   39.4310   32.2300   38.8750 N   0  0  0  0  0  0  0  0  0  0  0  0
   36.8310   33.2050   40.6440 H   0  0  0  0  0  0  0  0  0  0  0  0
   38.2790   35.1480   41.0330 H   0  0  0  0  0  0  0  0  0  0  0  0
   41.5300   33.3410   38.4970 N   0  0  0  0  0  0  0  0  0  0  0  0
   42.1950   34.5230   38.4360 C   0  0  0  0  0  3  0  0  0  0  0  0
   43.4470   34.4740   37.8550 C   0  0  0  0  0  3  0  0  0  0  0  0
   44.0480   33.3380   37.3490 C   0  0  0  0  0  0  0  0  0  0  0  0
   45.3430   33.3590   36.7630 N   0  0  0  0  0  0  0  0  0  0  0  0
   43.3130   32.2160   37.4540 N   0  0  0  0  0  0  0  0  0  0  0  0
   42.0770   32.2160   38.0160 C   0  0  0  0  0  0  0  0  0  0  0  0
   41.4520   31.1290   38.0790 O   0  0  0  0  0  0  0  0  0  0  0  0
   45.8150   34.2820   36.6820 H   0  0  0  0  0  0  0  0  0  0  0  0
   45.7340   32.4390   36.4520 H   0  0  0  0  0  0  0  0  0  0  0  0
  2  1  2  6  0  0  0
  2  3  1  0  0  0  0
  2  5  1  0  0  0  0
  3  4  1  0  0  0  0
  5  7  1  0  0  0  0
  6 11  1  0  0  0  0
  6 14  1  0  0  0  0
  7  6  2  0  0  0  0
  8  9  2  0  0  0  0
  8  7  1  0  0  0  0
  9 10  1  0  0  0  0
 10 13  1  0  0  0  0
 10 11  2  0  0  0  0
 12  8  1  0  0  0  0
 14 16  1  0  0  0  0
 15 14  1  0  0  0  0
 17 14  1  0  0  0  0
 17 20  1  0  0  0  0
 17 18  1  0  0  0  0
 19 17  1  0  0  0  0
 21 22  1  0  0  0  0
 21  2  1  0  0  0  0
 22 23  1  0  0  0  0
 23 24  2  0  0  0  0
 23 28  1  0  0  0  0
 24 29  1  0  0  0  0
 25 24  1  0  0  0  0
 26 25  2  0  0  0  0
 27 26  1  0  0  0  0
 27 22  2  0  0  0  0
 30 26  1  0  0  0  0
 31 30  1  0  0  0  0
 32 31  2  0  0  0  0
 33 35  2  0  0  0  0
 33 32  1  0  0  0  0
 34 33  1  0  0  0  0
 35 36  1  0  0  0  0
 36 37  2  0  0  0  0
 36 30  1  0  0  0  0
 38 34  1  0  0  0  0
 39 34  1  0  0  0  0
M  END
>  <minimizedAffinity>
-6.49642611

$$$$

 OpenBabel03252500593D

 39 41  0  0  0  0  0  0  0  0999 V2000
   34.7300   29.2890   39.7190 O   0  0  0  0  0  0  0  0  0  0  0  0
   35.9870   29.5340   40.5420 P   0  0  1  0  0  0  0  0  0  0  0  0
   35.6840   30.8200   41.6170 O   0  0  0  0  0  0  0  0  0  0  0  0
   36.4070   30.8440   42.2760 H   0  0  0  0  0  0  0  0  0  0  0  0
   36.3300   28.1580   41.4830 O   0  0  0  0  0  0  0  0  0  0  0  0
   37.8420   26.5430   42.2800 C   0  0  0  0  0  0  0  0  0  0  0  0
   37.5190   27.8750   42.1380 C   0  0  0  0  0  0  0  0  0  0  0  0
   38.4010   28.8310   42.6580 C   0  0  0  0  0  0  0  0  0  0  0  0
   39.5160   28.3870   43.2670 N   0  0  0  0  0  0  0  0  0  0  0  0
   39.8140   27.0900   43.3960 C   0  0  0  0  0  0  0  0  0  0  0  0
   38.9740   26.1780   42.9010 N   0  0  0  0  0  0  0  0  0  0  0  0
   38.1310   29.8500   42.5350 H   0  0  0  0  0  0  0  0  0  0  0  0
   40.7090   26.7140   43.8840 H   0  0  0  0  0  0  0  0  0  0  0  0
   36.9610   25.4960   41.7580 C   0  0  0  0  0  0  0  0  0  0  0  0
   36.7930   25.6460   40.6700 H   0  0  0  0  0  0  0  0  0  0  0  0
   35.9720   25.5070   42.2580 H   0  0  0  0  0  0  0  0  0  0  0  0
   37.6120   24.1580   41.9800 C   0  0  0  0  0  0  0  0  0  0  0  0
   37.5150   23.8710   43.0260 H   0  0  0  0  0  0  0  0  0  0  0  0
   38.6710   24.2370   41.6630 H   0  0  0  0  0  0  0  0  0  0  0  0
   37.0630   23.4110   41.3560 H   0  0  0  0  0  0  0  0  0  0  0  0
   37.2790   29.9940   39.5510 O   0  0  0  0  0  0  0  0  0  0  0  0
   37.7930   31.2740   39.6980 C   0  0  0  0  0  0  0  0  0  0  0  0
   36.9930   32.3460   39.3460 C   0  0  0  0  0  0  0  0  0  0  0  0
   37.4280   33.6610   39.4610 C   0  0  0  0  0  0  0  0  0  0  0  0
   38.6920   33.8790   39.9410 N   0  0  0  0  0  0  0  0  0  0  0  0
   39.4520   32.8390   40.2760 C   0  0  0  0  0  0  0  0  0  0  0  0
   39.0270   31.5820   40.1630 N   0  0  0  0  0  0  0  0  0  0  0  0
   36.0100   32.1550   38.9750 H   0  0  0  0  0  0  0  0  0  0  0  0
   36.7650   34.4800   39.1730 H   0  0  0  0  0  0  0  0  0  0  0  0
   40.7560   33.1400   40.7670 N   0  0  0  0  0  0  0  0  0  0  0  0
   41.2920   34.3740   40.5780 C   0  0  0  0  0  3  0  0  0  0  0  0
   42.5590   34.5590   41.0930 C   0  0  0  0  0  3  0  0  0  0  0  0
   43.2950   33.6040   41.7680 C   0  0  0  0  0  0  0  0  0  0  0  0
   44.5970   33.8630   42.2730 N   0  0  0  0  0  0  0  0  0  0  0  0
   42.6820   32.4140   41.9060 N   0  0  0  0  0  0  0  0  0  0  0  0
   41.4360   32.1850   41.4150 C   0  0  0  0  0  0  0  0  0  0  0  0
   40.9300   31.0480   41.5840 O   0  0  0  0  0  0  0  0  0  0  0  0
   45.0080   34.7980   42.0750 H   0  0  0  0  0  0  0  0  0  0  0  0
   45.0560   33.0920   42.8120 H   0  0  0  0  0  0  0  0  0  0  0  0
  2  1  2  6  0  0  0
  2  5  1  0  0  0  0
  2  3  1  0  0  0  0
  3  4  1  0  0  0  0
  5  7  1  0  0  0  0
  6 11  1  0  0  0  0
  7  6  2  0  0  0  0
  7  8  1  0  0  0  0
  8  9  2  0  0  0  0
  9 10  1  0  0  0  0
 10 13  1  0  0  0  0
 11 10  2  0  0  0  0
 12  8  1  0  0  0  0
 14 17  1  0  0  0  0
 14 16  1  0  0  0  0
 14  6  1  0  0  0  0
 15 14  1  0  0  0  0
 17 18  1  0  0  0  0
 19 17  1  0  0  0  0
 20 17  1  0  0  0  0
 21 22  1  0  0  0  0
 21  2  1  0  0  0  0
 22 27  1  0  0  0  0
 23 24  1  0  0  0  0
 23 22  2  0  0  0  0
 24 25  2  0  0  0  0
 25 26  1  0  0  0  0
 26 30  1  0  0  0  0
 27 26  2  0  0  0  0
 28 23  1  0  0  0  0
 29 24  1  0  0  0  0
 30 36  1  0  0  0  0
 31 30  1  0  0  0  0
 31 32  2  0  0  0  0
 32 33  1  0  0  0  0
 33 35  2  0  0  0  0
 33 34  1  0  0  0  0
 34 39  1  0  0  0  0
 36 37  2  0  0  0  0
 36 35  1  0  0  0  0
 38 34  1  0  0  0  0
M  END
>  <minimizedAffinity>
-6.39517355

$$$$

 OpenBabel03252500593D

 39 41  0  0  0  0  0  0  0  0999 V2000
   35.8700   28.3680   41.3450 O   0  0  0  0  0  0  0  0  0  0  0  0
   37.0220   29.2260   41.8500 P   0  0  1  0  0  0  0  0  0  0  0  0
   36.9080   29.3350   43.5450 O   0  0  0  0  0  0  0  0  0  0  0  0
   37.7480   29.7070   43.8850 H   0  0  0  0  0  0  0  0  0  0  0  0
   38.5010   28.4640   41.4910 O   0  0  0  0  0  0  0  0  0  0  0  0
   40.5840   28.4680   42.5830 C   0  0  0  0  0  0  0  0  0  0  0  0
   39.3630   27.8570   42.3920 C   0  0  0  0  0  0  0  0  0  0  0  0
   39.0880   26.6860   43.1090 C   0  0  0  0  0  0  0  0  0  0  0  0
   40.0360   26.2280   43.9460 N   0  0  0  0  0  0  0  0  0  0  0  0
   41.2150   26.8330   44.1210 C   0  0  0  0  0  0  0  0  0  0  0  0
   41.4790   27.9500   43.4370 N   0  0  0  0  0  0  0  0  0  0  0  0
   38.1410   26.2340   42.9450 H   0  0  0  0  0  0  0  0  0  0  0  0
   41.9930   26.4780   44.7920 H   0  0  0  0  0  0  0  0  0  0  0  0
   40.9310   29.6950   41.8630 C   0  0  0  0  0  0  0  0  0  0  0  0
   40.2710   29.8180   40.9770 H   0  0  0  0  0  0  0  0  0  0  0  0
   41.9790   29.6740   41.5030 H   0  0  0  0  0  0  0  0  0  0  0  0
   40.7480   30.8680   42.7850 C   0  0  0  0  0  0  0  0  0  0  0  0
   41.5780   30.9160   43.4890 H   0  0  0  0  0  0  0  0  0  0  0  0
   39.7700   30.7530   43.2960 H   0  0  0  0  0  0  0  0  0  0  0  0
   40.7630   31.7930   42.1580 H   0  0  0  0  0  0  0  0  0  0  0  0
   36.9230   30.7970   41.2320 O   0  0  0  0  0  0  0  0  0  0  0  0
   37.5400   31.0630   40.0190 C   0  0  0  0  0  0  0  0  0  0  0  0
   36.9360   30.6050   38.8610 C   0  0  0  0  0  0  0  0  0  0  0  0
   37.4850   30.8280   37.6050 C   0  0  0  0  0  0  0  0  0  0  0  0
   38.6610   31.5260   37.5320 N   0  0  0  0  0  0  0  0  0  0  0  0
   39.2330   31.9620   38.6530 C   0  0  0  0  0  0  0  0  0  0  0  0
   38.7000   31.7440   39.8530 N   0  0  0  0  0  0  0  0  0  0  0  0
   36.0190   30.0640   38.9390 H   0  0  0  0  0  0  0  0  0  0  0  0
   36.9770   30.4500   36.7140 H   0  0  0  0  0  0  0  0  0  0  0  0
   40.4540   32.6800   38.5020 N   0  0  0  0  0  0  0  0  0  0  0  0
   41.1460   32.6190   37.3350 C   0  0  0  0  0  3  0  0  0  0  0  0
   42.3160   33.3510   37.2960 C   0  0  0  0  0  3  0  0  0  0  0  0
   42.8130   34.1180   38.3320 C   0  0  0  0  0  0  0  0  0  0  0  0
   44.0270   34.8490   38.2230 N   0  0  0  0  0  0  0  0  0  0  0  0
   42.0590   34.1170   39.4470 N   0  0  0  0  0  0  0  0  0  0  0  0
   40.9020   33.4120   39.5320 C   0  0  0  0  0  0  0  0  0  0  0  0
   40.2530   33.4610   40.6060 O   0  0  0  0  0  0  0  0  0  0  0  0
   44.5660   34.7500   37.3390 H   0  0  0  0  0  0  0  0  0  0  0  0
   44.2960   35.4400   39.0440 H   0  0  0  0  0  0  0  0  0  0  0  0
  2  1  2  6  0  0  0
  2  3  1  0  0  0  0
  3  4  1  0  0  0  0
  5  2  1  0  0  0  0
  5  7  1  0  0  0  0
  6 11  1  0  0  0  0
  7  6  2  0  0  0  0
  7  8  1  0  0  0  0
  8  9  2  0  0  0  0
  9 10  1  0  0  0  0
 10 13  1  0  0  0  0
 11 10  2  0  0  0  0
 12  8  1  0  0  0  0
 14  6  1  0  0  0  0
 14 17  1  0  0  0  0
 15 14  1  0  0  0  0
 16 14  1  0  0  0  0
 17 19  1  0  0  0  0
 17 18  1  0  0  0  0
 20 17  1  0  0  0  0
 21  2  1  0  0  0  0
 22 21  1  0  0  0  0
 23 28  1  0  0  0  0
 23 22  2  0  0  0  0
 24 23  1  0  0  0  0
 25 24  2  0  0  0  0
 25 26  1  0  0  0  0
 26 27  2  0  0  0  0
 27 22  1  0  0  0  0
 29 24  1  0  0  0  0
 30 26  1  0  0  0  0
 30 36  1  0  0  0  0
 31 30  1  0  0  0  0
 32 31  2  0  0  0  0
 32 33  1  0  0  0  0
 33 35  2  0  0  0  0
 34 33  1  0  0  0  0
 34 39  1  0  0  0  0
 35 36  1  0  0  0  0
 36 37  2  0  0  0  0
 38 34  1  0  0  0  0
M  END
>  <minimizedAffinity>
-6.33355665

$$$$

 OpenBabel03252500593D

 39 41  0  0  0  0  0  0  0  0999 V2000
   37.3440   30.0740   39.5980 O   0  0  0  0  0  0  0  0  0  0  0  0
   37.1710   31.1770   40.6330 P   0  0  1  0  0  0  0  0  0  0  0  0
   35.6390   31.0030   41.3550 O   0  0  0  0  0  0  0  0  0  0  0  0
   35.6080   31.5740   42.1490 H   0  0  0  0  0  0  0  0  0  0  0  0
   38.3330   30.9910   41.8630 O   0  0  0  0  0  0  0  0  0  0  0  0
   40.1630   29.6180   42.4080 C   0  0  0  0  0  0  0  0  0  0  0  0
   38.7970   29.7970   42.3950 C   0  0  0  0  0  0  0  0  0  0  0  0
   37.9880   28.7760   42.9110 C   0  0  0  0  0  0  0  0  0  0  0  0
   38.5990   27.6780   43.3910 N   0  0  0  0  0  0  0  0  0  0  0  0
   39.9260   27.5190   43.3970 C   0  0  0  0  0  0  0  0  0  0  0  0
   40.6980   28.4930   42.9060 N   0  0  0  0  0  0  0  0  0  0  0  0
   36.9390   28.9380   42.8900 H   0  0  0  0  0  0  0  0  0  0  0  0
   40.4370   26.6410   43.7810 H   0  0  0  0  0  0  0  0  0  0  0  0
   41.0620   30.6480   41.8840 C   0  0  0  0  0  0  0  0  0  0  0  0
   40.4730   31.5090   41.5000 H   0  0  0  0  0  0  0  0  0  0  0  0
   41.6820   30.2640   41.0500 H   0  0  0  0  0  0  0  0  0  0  0  0
   41.9610   31.1190   42.9930 C   0  0  0  0  0  0  0  0  0  0  0  0
   42.7390   30.3780   43.1760 H   0  0  0  0  0  0  0  0  0  0  0  0
   41.3340   31.2980   43.8900 H   0  0  0  0  0  0  0  0  0  0  0  0
   42.4480   32.0660   42.6520 H   0  0  0  0  0  0  0  0  0  0  0  0
   37.2200   32.7030   39.9060 O   0  0  0  0  0  0  0  0  0  0  0  0
   38.4340   33.3710   39.8650 C   0  0  0  0  0  0  0  0  0  0  0  0
   38.5570   34.5530   40.5740 C   0  0  0  0  0  0  0  0  0  0  0  0
   39.7370   35.2850   40.5880 C   0  0  0  0  0  0  0  0  0  0  0  0
   40.8010   34.8030   39.8730 N   0  0  0  0  0  0  0  0  0  0  0  0
   40.6710   33.6640   39.1960 C   0  0  0  0  0  0  0  0  0  0  0  0
   39.5360   32.9690   39.1870 N   0  0  0  0  0  0  0  0  0  0  0  0
   37.7160   34.9110   41.1250 H   0  0  0  0  0  0  0  0  0  0  0  0
   39.7930   36.2150   41.1600 H   0  0  0  0  0  0  0  0  0  0  0  0
   41.8180   33.2230   38.4750 N   0  0  0  0  0  0  0  0  0  0  0  0
   42.8430   34.0790   38.2260 C   0  0  0  0  0  3  0  0  0  0  0  0
   43.9050   33.5490   37.5200 C   0  0  0  0  0  3  0  0  0  0  0  0
   43.9910   32.2470   37.0650 C   0  0  0  0  0  0  0  0  0  0  0  0
   45.1170   31.7670   36.3420 N   0  0  0  0  0  0  0  0  0  0  0  0
   42.9290   31.4750   37.3590 N   0  0  0  0  0  0  0  0  0  0  0  0
   41.8620   31.9520   38.0510 C   0  0  0  0  0  0  0  0  0  0  0  0
   40.9090   31.1710   38.2870 O   0  0  0  0  0  0  0  0  0  0  0  0
   45.8680   32.4510   36.1200 H   0  0  0  0  0  0  0  0  0  0  0  0
   45.1120   30.7530   36.0820 H   0  0  0  0  0  0  0  0  0  0  0  0
  2  1  2  6  0  0  0
  2  3  1  0  0  0  0
  2  5  1  0  0  0  0
  3  4  1  0  0  0  0
  5  7  1  0  0  0  0
  6 11  1  0  0  0  0
  7  6  2  0  0  0  0
  7  8  1  0  0  0  0
  8  9  2  0  0  0  0
  9 10  1  0  0  0  0
 10 13  1  0  0  0  0
 11 10  2  0  0  0  0
 12  8  1  0  0  0  0
 14  6  1  0  0  0  0
 14 17  1  0  0  0  0
 15 14  1  0  0  0  0
 16 14  1  0  0  0  0
 17 18  1  0  0  0  0
 17 19  1  0  0  0  0
 20 17  1  0  0  0  0
 21  2  1  0  0  0  0
 22 21  1  0  0  0  0
 22 23  1  0  0  0  0
 23 24  2  0  0  0  0
 23 28  1  0  0  0  0
 24 29  1  0  0  0  0
 25 24  1  0  0  0  0
 26 25  2  0  0  0  0
 27 26  1  0  0  0  0
 27 22  2  0  0  0  0
 30 26  1  0  0  0  0
 31 30  1  0  0  0  0
 32 31  2  0  0  0  0
 33 35  2  0  0  0  0
 33 32  1  0  0  0  0
 34 33  1  0  0  0  0
 35 36  1  0  0  0  0
 36 37  2  0  0  0  0
 36 30  1  0  0  0  0
 38 34  1  0  0  0  0
 39 34  1  0  0  0  0
M  END
>  <minimizedAffinity>
-6.26063538

$$$$

 OpenBabel03252500593D

 39 41  0  0  0  0  0  0  0  0999 V2000
   37.1730   29.6730   39.7850 O   0  0  0  0  0  0  0  0  0  0  0  0
   37.0630   30.8070   40.7950 P   0  0  1  0  0  0  0  0  0  0  0  0
   35.4770   30.8250   41.4130 O   0  0  0  0  0  0  0  0  0  0  0  0
   35.4610   31.4100   42.1980 H   0  0  0  0  0  0  0  0  0  0  0  0
   38.1120   30.5100   42.1010 O   0  0  0  0  0  0  0  0  0  0  0  0
   38.7500   28.4620   43.0670 C   0  0  0  0  0  0  0  0  0  0  0  0
   39.0490   29.4910   42.2000 C   0  0  0  0  0  0  0  0  0  0  0  0
   40.2560   29.4350   41.4930 C   0  0  0  0  0  0  0  0  0  0  0  0
   41.0550   28.3730   41.7040 N   0  0  0  0  0  0  0  0  0  0  0  0
   40.7520   27.3830   42.5490 C   0  0  0  0  0  0  0  0  0  0  0  0
   39.6000   27.4360   43.2240 N   0  0  0  0  0  0  0  0  0  0  0  0
   40.4630   30.2390   40.8310 H   0  0  0  0  0  0  0  0  0  0  0  0
   41.3840   26.5190   42.7330 H   0  0  0  0  0  0  0  0  0  0  0  0
   37.5040   28.4630   43.8340 C   0  0  0  0  0  0  0  0  0  0  0  0
   37.0280   29.4670   43.7890 H   0  0  0  0  0  0  0  0  0  0  0  0
   37.6800   28.2210   44.9010 H   0  0  0  0  0  0  0  0  0  0  0  0
   36.5680   27.4450   43.2430 C   0  0  0  0  0  0  0  0  0  0  0  0
   36.8790   26.4430   43.5410 H   0  0  0  0  0  0  0  0  0  0  0  0
   36.5720   27.5750   42.1420 H   0  0  0  0  0  0  0  0  0  0  0  0
   35.5510   27.6380   43.6640 H   0  0  0  0  0  0  0  0  0  0  0  0
   37.3370   32.3030   40.0560 O   0  0  0  0  0  0  0  0  0  0  0  0
   38.6320   32.6140   39.6680 C   0  0  0  0  0  0  0  0  0  0  0  0
   39.1880   33.7950   40.1270 C   0  0  0  0  0  0  0  0  0  0  0  0
   40.4790   34.1830   39.7870 C   0  0  0  0  0  0  0  0  0  0  0  0
   41.2060   33.3560   38.9750 N   0  0  0  0  0  0  0  0  0  0  0  0
   40.6600   32.2220   38.5400 C   0  0  0  0  0  0  0  0  0  0  0  0
   39.4220   31.8570   38.8700 N   0  0  0  0  0  0  0  0  0  0  0  0
   38.6050   34.4260   40.7600 H   0  0  0  0  0  0  0  0  0  0  0  0
   40.8820   35.1240   40.1710 H   0  0  0  0  0  0  0  0  0  0  0  0
   41.4730   31.4100   37.6980 N   0  0  0  0  0  0  0  0  0  0  0  0
   42.5850   31.9270   37.1130 C   0  0  0  0  0  3  0  0  0  0  0  0
   43.3000   31.0550   36.3160 C   0  0  0  0  0  3  0  0  0  0  0  0
   42.9720   29.7340   36.0830 C   0  0  0  0  0  0  0  0  0  0  0  0
   43.7560   28.8900   35.2500 N   0  0  0  0  0  0  0  0  0  0  0  0
   41.8550   29.3120   36.7040 N   0  0  0  0  0  0  0  0  0  0  0  0
   41.1190   30.1330   37.4970 C   0  0  0  0  0  0  0  0  0  0  0  0
   40.0890   29.6670   38.0430 O   0  0  0  0  0  0  0  0  0  0  0  0
   44.5740   29.3190   34.7730 H   0  0  0  0  0  0  0  0  0  0  0  0
   43.4530   27.8920   35.1730 H   0  0  0  0  0  0  0  0  0  0  0  0
  2  1  2  6  0  0  0
  2  3  1  0  0  0  0
  2  5  1  0  0  0  0
  3  4  1  0  0  0  0
  5  7  1  0  0  0  0
  6 11  1  0  0  0  0
  6 14  1  0  0  0  0
  7  6  2  0  0  0  0
  8  9  2  0  0  0  0
  8  7  1  0  0  0  0
  9 10  1  0  0  0  0
 10 13  1  0  0  0  0
 10 11  2  0  0  0  0
 12  8  1  0  0  0  0
 14 16  1  0  0  0  0
 15 14  1  0  0  0  0
 17 18  1  0  0  0  0
 17 20  1  0  0  0  0
 17 14  1  0  0  0  0
 19 17  1  0  0  0  0
 21  2  1  0  0  0  0
 22 21  1  0  0  0  0
 22 23  1  0  0  0  0
 23 28  1  0  0  0  0
 24 23  2  0  0  0  0
 24 29  1  0  0  0  0
 25 24  1  0  0  0  0
 26 27  1  0  0  0  0
 26 25  2  0  0  0  0
 27 22  2  0  0  0  0
 30 26  1  0  0  0  0
 31 30  1  0  0  0  0
 32 31  2  0  0  0  0
 33 32  1  0  0  0  0
 33 35  2  0  0  0  0
 34 33  1  0  0  0  0
 35 36  1  0  0  0  0
 36 30  1  0  0  0  0
 36 37  2  0  0  0  0
 38 34  1  0  0  0  0
 39 34  1  0  0  0  0
M  END
>  <minimizedAffinity>
-6.24495268

$$$$

 OpenBabel03252500593D

 39 41  0  0  0  0  0  0  0  0999 V2000
   34.7360   28.9950   40.2050 O   0  0  0  0  0  0  0  0  0  0  0  0
   35.9650   29.8800   40.3660 P   0  0  1  0  0  0  0  0  0  0  0  0
   35.5700   31.1630   41.4140 O   0  0  0  0  0  0  0  0  0  0  0  0
   36.4010   31.6090   41.6780 H   0  0  0  0  0  0  0  0  0  0  0  0
   37.2150   28.9910   41.1030 O   0  0  0  0  0  0  0  0  0  0  0  0
   37.1150   26.8200   42.0030 C   0  0  0  0  0  0  0  0  0  0  0  0
   37.4720   27.6360   40.9510 C   0  0  0  0  0  0  0  0  0  0  0  0
   38.0590   27.0480   39.8240 C   0  0  0  0  0  0  0  0  0  0  0  0
   38.2390   25.7150   39.8360 N   0  0  0  0  0  0  0  0  0  0  0  0
   37.8870   24.9370   40.8650 C   0  0  0  0  0  0  0  0  0  0  0  0
   37.3270   25.4960   41.9400 N   0  0  0  0  0  0  0  0  0  0  0  0
   38.3240   27.6980   39.0270 H   0  0  0  0  0  0  0  0  0  0  0  0
   38.0250   23.8590   40.8930 H   0  0  0  0  0  0  0  0  0  0  0  0
   36.4970   27.3740   43.2090 C   0  0  0  0  0  0  0  0  0  0  0  0
   35.8300   26.6190   43.6780 H   0  0  0  0  0  0  0  0  0  0  0  0
   35.8860   28.2700   42.9810 H   0  0  0  0  0  0  0  0  0  0  0  0
   37.5810   27.7490   44.1810 C   0  0  0  0  0  0  0  0  0  0  0  0
   38.0540   28.6790   43.8640 H   0  0  0  0  0  0  0  0  0  0  0  0
   38.3020   26.9080   44.2320 H   0  0  0  0  0  0  0  0  0  0  0  0
   37.0980   27.9200   45.1740 H   0  0  0  0  0  0  0  0  0  0  0  0
   36.4220   30.5570   38.8850 O   0  0  0  0  0  0  0  0  0  0  0  0
   37.6630   31.1700   38.8010 C   0  0  0  0  0  0  0  0  0  0  0  0
   37.8330   32.3940   39.4240 C   0  0  0  0  0  0  0  0  0  0  0  0
   39.0420   33.0770   39.3900 C   0  0  0  0  0  0  0  0  0  0  0  0
   40.0850   32.5030   38.7150 N   0  0  0  0  0  0  0  0  0  0  0  0
   39.9100   31.3260   38.1190 C   0  0  0  0  0  0  0  0  0  0  0  0
   38.7480   30.6770   38.1560 N   0  0  0  0  0  0  0  0  0  0  0  0
   37.0070   32.8240   39.9470 H   0  0  0  0  0  0  0  0  0  0  0  0
   39.1360   34.0420   39.8960 H   0  0  0  0  0  0  0  0  0  0  0  0
   41.0380   30.7880   37.4350 N   0  0  0  0  0  0  0  0  0  0  0  0
   42.0960   31.5820   37.1280 C   0  0  0  0  0  3  0  0  0  0  0  0
   43.1360   30.9610   36.4640 C   0  0  0  0  0  3  0  0  0  0  0  0
   43.1700   29.6290   36.1030 C   0  0  0  0  0  0  0  0  0  0  0  0
   44.2750   29.0530   35.4190 N   0  0  0  0  0  0  0  0  0  0  0  0
   42.0770   28.9230   36.4480 N   0  0  0  0  0  0  0  0  0  0  0  0
   41.0310   29.4900   37.1010 C   0  0  0  0  0  0  0  0  0  0  0  0
   40.0460   28.7660   37.3900 O   0  0  0  0  0  0  0  0  0  0  0  0
   45.0530   29.6890   35.1510 H   0  0  0  0  0  0  0  0  0  0  0  0
   44.2290   28.0250   35.2310 H   0  0  0  0  0  0  0  0  0  0  0  0
  2  1  2  6  0  0  0
  2  5  1  0  0  0  0
  2  3  1  0  0  0  0
  3  4  1  0  0  0  0
  6 14  1  0  0  0  0
  7  5  1  0  0  0  0
  7  6  2  0  0  0  0
  8  9  2  0  0  0  0
  8  7  1  0  0  0  0
  9 10  1  0  0  0  0
 10 13  1  0  0  0  0
 10 11  2  0  0  0  0
 11  6  1  0  0  0  0
 12  8  1  0  0  0  0
 14 15  1  0  0  0  0
 14 17  1  0  0  0  0
 16 14  1  0  0  0  0
 17 19  1  0  0  0  0
 17 20  1  0  0  0  0
 18 17  1  0  0  0  0
 21  2  1  0  0  0  0
 22 21  1  0  0  0  0
 22 23  1  0  0  0  0
 23 28  1  0  0  0  0
 24 23  2  0  0  0  0
 24 29  1  0  0  0  0
 25 24  1  0  0  0  0
 26 27  1  0  0  0  0
 26 25  2  0  0  0  0
 27 22  2  0  0  0  0
 30 26  1  0  0  0  0
 31 30  1  0  0  0  0
 32 31  2  0  0  0  0
 33 35  2  0  0  0  0
 33 32  1  0  0  0  0
 34 33  1  0  0  0  0
 35 36  1  0  0  0  0
 36 37  2  0  0  0  0
 36 30  1  0  0  0  0
 38 34  1  0  0  0  0
 39 34  1  0  0  0  0
M  END
>  <minimizedAffinity>
-6.21282339

$$$$

 OpenBabel03252500593D

 39 41  0  0  0  0  0  0  0  0999 V2000
   36.2740   27.0150   43.5300 O   0  0  0  0  0  0  0  0  0  0  0  0
   37.5640   27.7930   43.3110 P   0  0  1  0  0  0  0  0  0  0  0  0
   37.4360   29.2870   44.1190 O   0  0  0  0  0  0  0  0  0  0  0  0
   38.3250   29.6950   44.1510 H   0  0  0  0  0  0  0  0  0  0  0  0
   38.8650   26.9490   44.0120 O   0  0  0  0  0  0  0  0  0  0  0  0
   40.4780   25.5190   43.0730 C   0  0  0  0  0  0  0  0  0  0  0  0
   40.1360   26.7910   43.4790 C   0  0  0  0  0  0  0  0  0  0  0  0
   41.0800   27.8140   43.3270 C   0  0  0  0  0  0  0  0  0  0  0  0
   42.2710   27.4900   42.7910 N   0  0  0  0  0  0  0  0  0  0  0  0
   42.5880   26.2510   42.4010 C   0  0  0  0  0  0  0  0  0  0  0  0
   41.6880   25.2750   42.5460 N   0  0  0  0  0  0  0  0  0  0  0  0
   40.7920   28.7840   43.6470 H   0  0  0  0  0  0  0  0  0  0  0  0
   43.5430   25.9720   41.9660 H   0  0  0  0  0  0  0  0  0  0  0  0
   39.5350   24.4070   43.2060 C   0  0  0  0  0  0  0  0  0  0  0  0
   38.7710   24.6450   43.9770 H   0  0  0  0  0  0  0  0  0  0  0  0
   40.0460   23.4720   43.5120 H   0  0  0  0  0  0  0  0  0  0  0  0
   38.8530   24.1880   41.8830 C   0  0  0  0  0  0  0  0  0  0  0  0
   39.5310   23.6760   41.2000 H   0  0  0  0  0  0  0  0  0  0  0  0
   38.5350   25.1770   41.4950 H   0  0  0  0  0  0  0  0  0  0  0  0
   37.9700   23.5290   42.0660 H   0  0  0  0  0  0  0  0  0  0  0  0
   37.8000   28.1230   41.6690 O   0  0  0  0  0  0  0  0  0  0  0  0
   37.7380   29.4430   41.2510 C   0  0  0  0  0  0  0  0  0  0  0  0
   36.5060   29.9610   40.8920 C   0  0  0  0  0  0  0  0  0  0  0  0
   36.3550   31.2730   40.4620 C   0  0  0  0  0  0  0  0  0  0  0  0
   37.4720   32.0620   40.4000 N   0  0  0  0  0  0  0  0  0  0  0  0
   38.6510   31.5530   40.7480 C   0  0  0  0  0  0  0  0  0  0  0  0
   38.7890   30.2940   41.1590 N   0  0  0  0  0  0  0  0  0  0  0  0
   35.6480   29.3290   40.9480 H   0  0  0  0  0  0  0  0  0  0  0  0
   35.3640   31.6440   40.1870 H   0  0  0  0  0  0  0  0  0  0  0  0
   39.7700   32.4310   40.6590 N   0  0  0  0  0  0  0  0  0  0  0  0
   39.6830   33.5840   39.9470 C   0  0  0  0  0  3  0  0  0  0  0  0
   40.8240   34.3610   39.9250 C   0  0  0  0  0  3  0  0  0  0  0  0
   42.0120   34.0530   40.5600 C   0  0  0  0  0  0  0  0  0  0  0  0
   43.1510   34.9000   40.4960 N   0  0  0  0  0  0  0  0  0  0  0  0
   42.0030   32.8920   41.2400 N   0  0  0  0  0  0  0  0  0  0  0  0
   40.9050   32.0950   41.2890 C   0  0  0  0  0  0  0  0  0  0  0  0
   40.9740   31.0260   41.9450 O   0  0  0  0  0  0  0  0  0  0  0  0
   43.0780   35.7530   39.9060 H   0  0  0  0  0  0  0  0  0  0  0  0
   43.9880   34.6060   41.0500 H   0  0  0  0  0  0  0  0  0  0  0  0
  2  1  2  1  0  0  0
  2  5  1  0  0  0  0
  2  3  1  0  0  0  0
  3  4  1  0  0  0  0
  6 14  1  0  0  0  0
  6  7  1  0  0  0  0
  7  5  1  0  0  0  0
  8  7  2  0  0  0  0
  8 12  1  0  0  0  0
  9  8  1  0  0  0  0
 10 11  1  0  0  0  0
 10  9  2  0  0  0  0
 11  6  2  0  0  0  0
 13 10  1  0  0  0  0
 14 16  1  0  0  0  0
 14 15  1  0  0  0  0
 17 20  1  0  0  0  0
 17 14  1  0  0  0  0
 18 17  1  0  0  0  0
 19 17  1  0  0  0  0
 21  2  1  0  0  0  0
 22 21  1  0  0  0  0
 23 28  1  0  0  0  0
 23 22  2  0  0  0  0
 24 23  1  0  0  0  0
 25 24  2  0  0  0  0
 25 26  1  0  0  0  0
 26 27  2  0  0  0  0
 27 22  1  0  0  0  0
 29 24  1  0  0  0  0
 30 26  1  0  0  0  0
 30 36  1  0  0  0  0
 31 30  1  0  0  0  0
 32 31  2  0  0  0  0
 32 33  1  0  0  0  0
 33 35  2  0  0  0  0
 34 33  1  0  0  0  0
 34 39  1  0  0  0  0
 35 36  1  0  0  0  0
 36 37  2  0  0  0  0
 38 34  1  0  0  0  0
M  END
>  <minimizedAffinity>
-6.20289421

$$$$

 OpenBabel03252500593D

 39 41  0  0  0  0  0  0  0  0999 V2000
   34.6950   29.2960   39.7110 O   0  0  0  0  0  0  0  0  0  0  0  0
   35.9400   29.6660   40.5050 P   0  0  1  0  0  0  0  0  0  0  0  0
   35.5790   31.0200   41.4730 O   0  0  0  0  0  0  0  0  0  0  0  0
   36.3010   31.1310   42.1250 H   0  0  0  0  0  0  0  0  0  0  0  0
   36.3470   28.3890   41.5540 O   0  0  0  0  0  0  0  0  0  0  0  0
   37.7900   26.6180   42.1140 C   0  0  0  0  0  0  0  0  0  0  0  0
   36.9200   27.1750   41.2020 C   0  0  0  0  0  0  0  0  0  0  0  0
   36.6800   26.4870   40.0060 C   0  0  0  0  0  0  0  0  0  0  0  0
   37.3180   25.3170   39.8200 N   0  0  0  0  0  0  0  0  0  0  0  0
   38.1600   24.7900   40.7140 C   0  0  0  0  0  0  0  0  0  0  0  0
   38.3890   25.4450   41.8560 N   0  0  0  0  0  0  0  0  0  0  0  0
   36.0060   26.9360   39.3210 H   0  0  0  0  0  0  0  0  0  0  0  0
   38.6840   23.8470   40.5820 H   0  0  0  0  0  0  0  0  0  0  0  0
   38.0820   27.2880   43.3820 C   0  0  0  0  0  0  0  0  0  0  0  0
   37.7960   26.6340   44.2350 H   0  0  0  0  0  0  0  0  0  0  0  0
   37.5190   28.2380   43.4820 H   0  0  0  0  0  0  0  0  0  0  0  0
   39.5560   27.5770   43.4520 C   0  0  0  0  0  0  0  0  0  0  0  0
   39.7930   28.4320   42.8190 H   0  0  0  0  0  0  0  0  0  0  0  0
   40.0990   26.6620   43.1410 H   0  0  0  0  0  0  0  0  0  0  0  0
   39.7970   27.8430   44.5100 H   0  0  0  0  0  0  0  0  0  0  0  0
   37.2090   30.1020   39.4750 O   0  0  0  0  0  0  0  0  0  0  0  0
   38.3620   30.6250   40.0410 C   0  0  0  0  0  0  0  0  0  0  0  0
   38.5040   30.5640   41.4160 C   0  0  0  0  0  0  0  0  0  0  0  0
   39.6270   31.0640   42.0640 C   0  0  0  0  0  0  0  0  0  0  0  0
   40.6120   31.6280   41.2990 N   0  0  0  0  0  0  0  0  0  0  0  0
   40.4640   31.6810   39.9770 C   0  0  0  0  0  0  0  0  0  0  0  0
   39.3850   31.2000   39.3640 N   0  0  0  0  0  0  0  0  0  0  0  0
   37.7240   30.1190   41.9940 H   0  0  0  0  0  0  0  0  0  0  0  0
   39.7010   30.9960   43.1530 H   0  0  0  0  0  0  0  0  0  0  0  0
   41.5280   32.2820   39.2450 N   0  0  0  0  0  0  0  0  0  0  0  0
   42.4530   33.0460   39.8820 C   0  0  0  0  0  3  0  0  0  0  0  0
   43.4410   33.5810   39.0790 C   0  0  0  0  0  3  0  0  0  0  0  0
   43.5480   33.3960   37.7140 C   0  0  0  0  0  0  0  0  0  0  0  0
   44.5930   33.9780   36.9470 N   0  0  0  0  0  0  0  0  0  0  0  0
   42.5860   32.6250   37.1720 N   0  0  0  0  0  0  0  0  0  0  0  0
   41.5950   32.0780   37.9220 C   0  0  0  0  0  0  0  0  0  0  0  0
   40.7340   31.3700   37.3440 O   0  0  0  0  0  0  0  0  0  0  0  0
   45.2620   34.5990   37.4460 H   0  0  0  0  0  0  0  0  0  0  0  0
   44.6170   33.7410   35.9280 H   0  0  0  0  0  0  0  0  0  0  0  0
  2  1  2  6  0  0  0
  2  3  1  0  0  0  0
  2  5  1  0  0  0  0
  3  4  1  0  0  0  0
  6 14  1  0  0  0  0
  7  5  1  0  0  0  0
  7  6  2  0  0  0  0
  8  7  1  0  0  0  0
  9  8  2  0  0  0  0
  9 10  1  0  0  0  0
 10 11  2  0  0  0  0
 11  6  1  0  0  0  0
 12  8  1  0  0  0  0
 13 10  1  0  0  0  0
 14 17  1  0  0  0  0
 14 16  1  0  0  0  0
 14 15  1  0  0  0  0
 17 20  1  0  0  0  0
 18 17  1  0  0  0  0
 19 17  1  0  0  0  0
 21 22  1  0  0  0  0
 21  2  1  0  0  0  0
 22 23  1  0  0  0  0
 23 28  1  0  0  0  0
 23 24  2  0  0  0  0
 24 29  1  0  0  0  0
 25 24  1  0  0  0  0
 26 25  2  0  0  0  0
 27 26  1  0  0  0  0
 27 22  2  0  0  0  0
 30 31  1  0  0  0  0
 30 26  1  0  0  0  0
 32 31  2  0  0  0  0
 33 32  1  0  0  0  0
 34 38  1  0  0  0  0
 34 33  1  0  0  0  0
 35 33  2  0  0  0  0
 35 36  1  0  0  0  0
 36 30  1  0  0  0  0
 37 36  2  0  0  0  0
 39 34  1  0  0  0  0
M  END
>  <minimizedAffinity>
-6.1950655

$$$$

 OpenBabel03252500593D

 39 41  0  0  0  0  0  0  0  0999 V2000
   38.6710   28.4200   38.6760 O   0  0  0  0  0  0  0  0  0  0  0  0
   37.1760   28.6400   38.4930 P   0  0  1  0  0  0  0  0  0  0  0  0
   36.6270   27.6070   37.2560 O   0  0  0  0  0  0  0  0  0  0  0  0
   35.6480   27.5980   37.2770 H   0  0  0  0  0  0  0  0  0  0  0  0
   36.3570   28.2010   39.9190 O   0  0  0  0  0  0  0  0  0  0  0  0
   37.1930   26.8710   41.6700 C   0  0  0  0  0  0  0  0  0  0  0  0
   36.8930   28.1310   41.1970 C   0  0  0  0  0  0  0  0  0  0  0  0
   37.1470   29.2300   42.0270 C   0  0  0  0  0  0  0  0  0  0  0  0
   37.6710   28.9870   43.2420 N   0  0  0  0  0  0  0  0  0  0  0  0
   37.9570   27.7590   43.6860 C   0  0  0  0  0  0  0  0  0  0  0  0
   37.7150   26.7100   42.8950 N   0  0  0  0  0  0  0  0  0  0  0  0
   36.9080   30.1890   41.6400 H   0  0  0  0  0  0  0  0  0  0  0  0
   38.3800   27.5440   44.6630 H   0  0  0  0  0  0  0  0  0  0  0  0
   36.9510   25.6830   40.8500 C   0  0  0  0  0  0  0  0  0  0  0  0
   37.7550   25.5720   40.0900 H   0  0  0  0  0  0  0  0  0  0  0  0
   35.9840   25.7470   40.3120 H   0  0  0  0  0  0  0  0  0  0  0  0
   36.9410   24.4710   41.7410 C   0  0  0  0  0  0  0  0  0  0  0  0
   35.9980   24.4230   42.2850 H   0  0  0  0  0  0  0  0  0  0  0  0
   37.8150   24.5400   42.4210 H   0  0  0  0  0  0  0  0  0  0  0  0
   37.0170   23.5710   41.0840 H   0  0  0  0  0  0  0  0  0  0  0  0
   36.8530   30.2280   38.0100 O   0  0  0  0  0  0  0  0  0  0  0  0
   37.6120   31.2490   38.5640 C   0  0  0  0  0  0  0  0  0  0  0  0
   37.0660   31.9840   39.6010 C   0  0  0  0  0  0  0  0  0  0  0  0
   37.7570   33.0220   40.2120 C   0  0  0  0  0  0  0  0  0  0  0  0
   39.0170   33.3100   39.7600 N   0  0  0  0  0  0  0  0  0  0  0  0
   39.5320   32.5950   38.7620 C   0  0  0  0  0  0  0  0  0  0  0  0
   38.8630   31.6010   38.1810 N   0  0  0  0  0  0  0  0  0  0  0  0
   36.0820   31.7430   39.9390 H   0  0  0  0  0  0  0  0  0  0  0  0
   37.2900   33.5790   41.0290 H   0  0  0  0  0  0  0  0  0  0  0  0
   40.8460   32.9490   38.3430 N   0  0  0  0  0  0  0  0  0  0  0  0
   41.3840   34.1420   38.7060 C   0  0  0  0  0  3  0  0  0  0  0  0
   42.6630   34.3860   38.2460 C   0  0  0  0  0  3  0  0  0  0  0  0
   43.4090   33.5230   37.4660 C   0  0  0  0  0  0  0  0  0  0  0  0
   44.7230   33.8380   37.0270 N   0  0  0  0  0  0  0  0  0  0  0  0
   42.7930   32.3670   37.1570 N   0  0  0  0  0  0  0  0  0  0  0  0
   41.5360   32.0840   37.5860 C   0  0  0  0  0  0  0  0  0  0  0  0
   41.0290   30.9840   37.2560 O   0  0  0  0  0  0  0  0  0  0  0  0
   45.0970   34.7760   37.2750 H   0  0  0  0  0  0  0  0  0  0  0  0
   45.2270   33.1010   36.4810 H   0  0  0  0  0  0  0  0  0  0  0  0
  2  1  2  1  0  0  0
  2  5  1  0  0  0  0
  3  4  1  0  0  0  0
  3  2  1  0  0  0  0
  5  7  1  0  0  0  0
  6 11  1  0  0  0  0
  7  6  2  0  0  0  0
  7  8  1  0  0  0  0
  8  9  2  0  0  0  0
  9 10  1  0  0  0  0
 10 13  1  0  0  0  0
 11 10  2  0  0  0  0
 12  8  1  0  0  0  0
 14  6  1  0  0  0  0
 14 17  1  0  0  0  0
 15 14  1  0  0  0  0
 16 14  1  0  0  0  0
 17 18  1  0  0  0  0
 17 19  1  0  0  0  0
 20 17  1  0  0  0  0
 21  2  1  0  0  0  0
 21 22  1  0  0  0  0
 22 23  1  0  0  0  0
 23 28  1  0  0  0  0
 23 24  2  0  0  0  0
 24 29  1  0  0  0  0
 25 24  1  0  0  0  0
 26 25  2  0  0  0  0
 27 22  2  0  0  0  0
 27 26  1  0  0  0  0
 30 31  1  0  0  0  0
 30 26  1  0  0  0  0
 32 31  2  0  0  0  0
 33 32  1  0  0  0  0
 34 38  1  0  0  0  0
 34 33  1  0  0  0  0
 35 33  2  0  0  0  0
 35 36  1  0  0  0  0
 36 30  1  0  0  0  0
 37 36  2  0  0  0  0
 39 34  1  0  0  0  0
M  END
>  <minimizedAffinity>
-6.02230787

$$$$
