
 OpenBabel03242511083D

 44 48  0  0  1  0  0  0  0  0999 V2000
   46.1630   32.2810   43.9570 C   0  0  0  0  0  0  0  0  0  0  0  0
   46.3720   31.5820   45.1380 C   0  0  0  0  0  0  0  0  0  0  0  0
   46.0700   32.1010   46.3970 C   0  0  0  0  0  0  0  0  0  0  0  0
   45.5360   33.3670   46.5020 C   0  0  0  0  0  0  0  0  0  0  0  0
   45.3180   34.0800   45.3720 C   0  0  0  0  0  0  0  0  0  0  0  0
   44.7800   35.3480   45.4430 C   0  0  0  0  0  0  0  0  0  0  0  0
   44.5290   36.1210   44.3400 C   0  0  0  0  0  0  0  0  0  0  0  0
   44.8450   35.5650   43.1050 C   0  0  0  0  0  0  0  0  0  0  0  0
   45.3860   34.2880   43.0370 C   0  0  0  0  0  0  0  0  0  0  0  0
   45.6310   33.5290   44.1410 C   0  0  0  0  0  0  0  0  0  0  0  0
   46.7810   30.5830   45.1740 H   0  0  0  0  0  0  0  0  0  0  0  0
   46.2390   31.5430   47.3060 H   0  0  0  0  0  0  0  0  0  0  0  0
   45.3010   33.7710   47.4790 H   0  0  0  0  0  0  0  0  0  0  0  0
   44.5550   35.7260   46.4280 H   0  0  0  0  0  0  0  0  0  0  0  0
   44.1030   37.1060   44.5180 H   0  0  0  0  0  0  0  0  0  0  0  0
   44.6100   36.2530   42.2920 H   0  0  0  0  0  0  0  0  0  0  0  0
   45.6000   33.9910   41.6700 N   0  0  0  0  0  0  0  0  0  0  0  0
   46.6190   34.0370   40.7960 C   0  0  0  0  0  3  0  0  0  0  0  0
   46.5040   33.6220   39.4920 C   0  0  0  0  0  3  0  0  0  0  0  0
   45.3190   33.1270   38.9970 C   0  0  0  0  0  0  0  0  0  0  0  0
   45.3490   32.7360   37.6350 N   0  0  0  0  0  0  0  0  0  0  0  0
   44.2590   33.0570   39.8330 N   0  0  0  0  0  0  0  0  0  0  0  0
   44.4470   33.4880   41.1150 C   0  0  0  0  0  0  0  0  0  0  0  0
   43.3310   33.3360   41.7270 O   0  0  0  0  0  0  0  0  0  0  0  0
   46.1210   32.0810   37.3700 H   0  0  0  0  0  0  0  0  0  0  0  0
   44.5520   33.2170   37.1690 H   0  0  0  0  0  0  0  0  0  0  0  0
   46.5010   31.6670   42.7450 N   0  0  0  0  0  0  0  0  0  0  0  0
   45.7080   32.1030   42.2440 H   0  0  0  0  0  0  0  0  0  0  0  0
   48.9880   31.2370   42.5220 C   0  0  1  0  0  0  0  0  0  0  0  0
   48.3170   30.6860   41.2810 C   0  0  0  0  0  0  0  0  0  0  0  0
   47.6150   30.7680   42.6300 C   0  0  2  0  0  0  0  0  0  0  0  0
   49.2930   32.2980   42.3370 H   0  0  0  0  0  0  0  0  0  0  0  0
   48.6640   29.6540   41.0160 H   0  0  0  0  0  0  0  0  0  0  0  0
   47.9270   31.3370   40.5000 H   0  0  0  0  0  0  0  0  0  0  0  0
   47.4700   29.8330   43.2230 H   0  0  0  0  0  0  0  0  0  0  0  0
   52.3780   29.8620   43.0890 C   0  0  0  0  0  0  0  0  0  0  0  0
   52.1530   28.9880   44.1980 C   0  0  0  0  0  0  0  0  0  0  0  0
   50.8380   28.9060   44.7270 C   0  0  0  0  0  0  0  0  0  0  0  0
   49.8700   29.6420   44.1750 N   0  0  0  0  0  0  0  0  0  0  0  0
   50.1160   30.4620   43.1220 C   0  0  0  0  0  0  0  0  0  0  0  0
   51.3710   30.5760   42.5760 N   0  0  0  0  0  0  0  0  0  0  0  0
   53.3820   29.9200   42.6900 H   0  0  0  0  0  0  0  0  0  0  0  0
   52.9960   28.4380   44.5720 H   0  0  0  0  0  0  0  0  0  0  0  0
   50.6880   28.2460   45.5590 H   0  0  0  0  0  0  0  0  0  0  0  0
  1 10  2  0  0  0  0
  1  2  1  0  0  0  0
  2 11  1  0  0  0  0
  2  3  2  0  0  0  0
  3  4  1  0  0  0  0
  3 12  1  0  0  0  0
  4 13  1  0  0  0  0
  5  6  1  0  0  0  0
  5  4  2  0  0  0  0
  6 14  1  0  0  0  0
  7 15  1  0  0  0  0
  7  6  2  0  0  0  0
  8  7  1  0  0  0  0
  9  8  2  0  0  0  0
  9 10  1  0  0  0  0
 10  5  1  0  0  0  0
 16  8  1  0  0  0  0
 17  9  1  0  0  0  0
 18 17  1  0  0  0  0
 19 18  2  0  0  0  0
 20 19  1  0  0  0  0
 20 22  2  0  0  0  0
 21 20  1  0  0  0  0
 22 23  1  0  0  0  0
 23 17  1  0  0  0  0
 23 24  2  0  0  0  0
 25 21  1  0  0  0  0
 26 21  1  0  0  0  0
 27  1  1  0  0  0  0
 28 27  1  0  0  0  0
 29 32  1  1  0  0  0
 29 31  1  0  0  0  0
 29 40  1  0  0  0  0
 30 29  1  0  0  0  0
 30 31  1  0  0  0  0
 31 27  1  0  0  0  0
 31 35  1  1  0  0  0
 33 30  1  0  0  0  0
 34 30  1  0  0  0  0
 36 37  1  0  0  0  0
 37 43  1  0  0  0  0
 37 38  2  0  0  0  0
 38 44  1  0  0  0  0
 39 38  1  0  0  0  0
 40 39  2  0  0  0  0
 41 36  2  0  0  0  0
 41 40  1  0  0  0  0
 42 36  1  0  0  0  0
M  END
>  <minimizedAffinity>
-5.0572505

>  <minimizedRMSD>
1.90475857

$$$$
