
 OpenBabel03252507073D

 25 26  0  0  0  0  0  0  0  0999 V2000
   44.4970   36.0020   44.5130 C   0  0  0  0  0  0  0  0  0  0  0  0
   45.1600   35.9790   43.2690 C   0  0  0  0  0  0  0  0  0  0  0  0
   46.0720   34.9630   43.0430 C   0  0  0  0  0  0  0  0  0  0  0  0
   46.2860   34.0410   44.0230 N   0  0  0  0  0  0  0  0  0  0  0  0
   45.6390   34.0900   45.1930 C   0  0  0  0  0  0  0  0  0  0  0  0
   44.7400   35.0690   45.4490 N   0  0  0  0  0  0  0  0  0  0  0  0
   43.7730   36.7430   44.7900 H   0  0  0  0  0  0  0  0  0  0  0  0
   44.8970   36.7750   42.5760 H   0  0  0  0  0  0  0  0  0  0  0  0
   45.9870   33.0450   46.0970 N   0  0  0  0  0  0  0  0  0  0  0  0
   45.4390   33.1180   47.3240 C   0  0  0  0  0  3  0  0  0  0  0  0
   45.7770   32.1060   48.1980 C   0  0  0  0  0  3  0  0  0  0  0  0
   46.6330   31.1220   47.7470 C   0  0  0  0  0  0  0  0  0  0  0  0
   47.0490   30.0320   48.5600 N   0  0  0  0  0  0  0  0  0  0  0  0
   47.1510   31.1110   46.4900 N   0  0  0  0  0  0  0  0  0  0  0  0
   46.8230   32.1050   45.6240 C   0  0  0  0  0  0  0  0  0  0  0  0
   47.2620   32.1610   44.4480 O   0  0  0  0  0  0  0  0  0  0  0  0
   48.0210   30.2810   48.8480 H   0  0  0  0  0  0  0  0  0  0  0  0
   46.8830   29.1070   49.0180 H   0  0  0  0  0  0  0  0  0  0  0  0
   46.7110   34.9670   41.8060 O   0  0  0  0  0  0  0  0  0  0  0  0
   48.6040   33.2570   41.0910 O   0  0  0  0  0  0  0  0  0  0  0  0
   48.3900   34.6220   41.7390 P   0  0  0  0  0  0  0  0  0  0  0  0
   49.1460   35.8440   40.8800 O   0  0  0  0  0  0  0  0  0  0  0  0
   49.4550   36.5470   41.4890 H   0  0  0  0  0  0  0  0  0  0  0  0
   48.9530   34.5230   43.3330 O   0  0  0  0  0  0  0  0  0  0  0  0
   48.6920   33.6060   43.6470 H   0  0  0  0  0  0  0  0  0  0  0  0
  1  7  1  0  0  0  0
  1  6  1  0  0  0  0
  2  1  2  0  0  0  0
  3  2  1  0  0  0  0
  3  4  2  0  0  0  0
  4  5  1  0  0  0  0
  5  6  2  0  0  0  0
  5  9  1  0  0  0  0
  8  2  1  0  0  0  0
  9 10  1  0  0  0  0
 10 11  2  0  0  0  0
 12 11  1  0  0  0  0
 12 13  1  0  0  0  0
 13 17  1  0  0  0  0
 13 18  1  0  0  0  0
 14 12  2  0  0  0  0
 15  9  1  0  0  0  0
 15 14  1  0  0  0  0
 16 15  2  0  0  0  0
 19  3  1  0  0  0  0
 20 21  2  0  0  0  0
 21 19  1  0  0  0  0
 21 24  1  0  0  0  0
 22 23  1  0  0  0  0
 22 21  1  0  0  0  0
 24 25  1  0  0  0  0
M  END
>  <minimizedAffinity>
-6.40045214

>  <minimizedRMSD>
0.197406352

$$$$
