
 OpenBabel03252503243D

 48 53  0  0  1  0  0  0  0  0999 V2000
   47.6040   32.6940   40.1780 C   0  0  0  0  0  0  0  0  0  0  0  0
   48.1310   31.9720   39.0550 C   0  0  0  0  0  0  0  0  0  0  0  0
   48.9920   30.9350   39.3050 C   0  0  0  0  0  0  0  0  0  0  0  0
   49.2920   30.6580   40.6030 N   0  0  0  0  0  0  0  0  0  0  0  0
   48.7860   31.3510   41.6530 C   0  0  0  0  0  0  0  0  0  0  0  0
   47.9400   32.3700   41.4340 N   0  0  0  0  0  0  0  0  0  0  0  0
   46.9170   33.5250   40.0380 H   0  0  0  0  0  0  0  0  0  0  0  0
   49.4060   30.3710   38.4960 H   0  0  0  0  0  0  0  0  0  0  0  0
   47.7330   32.3920   37.6780 C   0  0  1  0  0  0  0  0  0  0  0  0
   47.9580   33.7610   37.2300 C   0  0  0  0  0  0  0  0  0  0  0  0
   48.8660   32.7080   36.7120 C   0  0  2  0  0  0  0  0  0  0  0  0
   46.9020   31.8040   37.2620 H   0  0  0  0  0  0  0  0  0  0  0  0
   48.4100   34.4380   38.0170 H   0  0  0  0  0  0  0  0  0  0  0  0
   47.1540   34.2420   36.6980 H   0  0  0  0  0  0  0  0  0  0  0  0
   49.8870   32.5270   37.0700 H   0  0  0  0  0  0  0  0  0  0  0  0
   48.6280   32.2330   35.3230 C   0  0  0  0  0  0  0  0  0  0  0  0
   48.8990   32.9750   34.1920 C   0  0  0  0  0  0  0  0  0  0  0  0
   48.6520   32.4660   32.9280 C   0  0  0  0  0  0  0  0  0  0  0  0
   48.1280   31.2040   32.7770 C   0  0  0  0  0  0  0  0  0  0  0  0
   47.8800   30.6670   31.5500 N   0  0  0  0  0  0  0  0  0  0  0  0
   47.3750   29.4290   31.4340 C   0  0  0  0  0  0  0  0  0  0  0  0
   47.0620   28.5940   32.5340 C   0  0  0  0  0  0  0  0  0  0  0  0
   47.3040   29.1160   33.7830 C   0  0  0  0  0  0  0  0  0  0  0  0
   47.8330   30.4100   33.8900 C   0  0  0  0  0  0  0  0  0  0  0  0
   48.0950   30.9580   35.1300 C   0  0  0  0  0  0  0  0  0  0  0  0
   49.3110   33.9650   34.3280 H   0  0  0  0  0  0  0  0  0  0  0  0
   48.8770   33.0710   32.0830 H   0  0  0  0  0  0  0  0  0  0  0  0
   47.1940   29.0410   30.4380 H   0  0  0  0  0  0  0  0  0  0  0  0
   46.6560   27.6060   32.3660 H   0  0  0  0  0  0  0  0  0  0  0  0
   47.0850   28.5270   34.6570 H   0  0  0  0  0  0  0  0  0  0  0  0
   47.8350   30.2890   35.9390 H   0  0  0  0  0  0  0  0  0  0  0  0
   49.1900   30.9480   43.0270 C   0  0  2  0  0  0  0  0  0  0  0  0
   49.4170   29.5530   43.3740 C   0  0  0  0  0  0  0  0  0  0  0  0
   48.0980   30.1550   43.7920 C   0  0  1  0  0  0  0  0  0  0  0  0
   49.5810   31.8340   43.5940 H   0  0  0  0  0  0  0  0  0  0  0  0
   49.4290   28.7970   42.5400 H   0  0  0  0  0  0  0  0  0  0  0  0
   50.1560   29.2550   44.1490 H   0  0  0  0  0  0  0  0  0  0  0  0
   47.2430   29.7900   43.1700 H   0  0  0  0  0  0  0  0  0  0  0  0
   47.8080   30.4830   45.1450 N   0  0  0  0  0  0  0  0  0  0  0  0
   47.1890   31.6610   45.4550 C   0  0  0  0  0  3  0  0  0  0  0  0
   46.8740   32.0510   46.7430 C   0  0  0  0  0  3  0  0  0  0  0  0
   47.1990   31.2060   47.7870 C   0  0  0  0  0  0  0  0  0  0  0  0
   46.9120   31.5280   49.1430 N   0  0  0  0  0  0  0  0  0  0  0  0
   47.8120   30.0390   47.4760 N   0  0  0  0  0  0  0  0  0  0  0  0
   48.0970   29.7070   46.2000 C   0  0  0  0  0  0  0  0  0  0  0  0
   48.6660   28.6040   46.0240 O   0  0  0  0  0  0  0  0  0  0  0  0
   46.1940   32.2470   49.3800 H   0  0  0  0  0  0  0  0  0  0  0  0
   47.4520   31.0120   49.8930 H   0  0  0  0  0  0  0  0  0  0  0  0
  1  6  1  0  0  0  0
  2  3  1  0  0  0  0
  2  1  2  0  0  0  0
  3  4  2  0  0  0  0
  4  5  1  0  0  0  0
  5 32  1  0  0  0  0
  6  5  2  0  0  0  0
  7  1  1  0  0  0  0
  8  3  1  0  0  0  0
  9 12  1  6  0  0  0
  9  2  1  0  0  0  0
 10  9  1  0  0  0  0
 10 13  1  0  0  0  0
 11 15  1  1  0  0  0
 11 10  1  0  0  0  0
 11  9  1  0  0  0  0
 14 10  1  0  0  0  0
 16 11  1  0  0  0  0
 17 26  1  0  0  0  0
 17 16  2  0  0  0  0
 18 17  1  0  0  0  0
 19 18  2  0  0  0  0
 19 24  1  0  0  0  0
 20 19  1  0  0  0  0
 21 20  2  0  0  0  0
 21 22  1  0  0  0  0
 22 23  2  0  0  0  0
 23 24  1  0  0  0  0
 23 30  1  0  0  0  0
 24 25  2  0  0  0  0
 25 16  1  0  0  0  0
 25 31  1  0  0  0  0
 27 18  1  0  0  0  0
 28 21  1  0  0  0  0
 29 22  1  0  0  0  0
 32 33  1  0  0  0  0
 32 35  1  1  0  0  0
 32 34  1  0  0  0  0
 33 34  1  0  0  0  0
 33 37  1  0  0  0  0
 34 38  1  6  0  0  0
 34 39  1  0  0  0  0
 36 33  1  0  0  0  0
 39 40  1  0  0  0  0
 39 45  1  0  0  0  0
 40 41  2  0  0  0  0
 41 42  1  0  0  0  0
 42 43  1  0  0  0  0
 43 47  1  0  0  0  0
 43 48  1  0  0  0  0
 44 42  2  0  0  0  0
 45 44  1  0  0  0  0
 46 45  2  0  0  0  0
M  END
>  <minimizedAffinity>
-4.93083477

>  <minimizedRMSD>
6.46134949

$$$$
