
 OpenBabel03252503433D

 35 37  0  0  1  0  0  0  0  0999 V2000
   45.1790   34.6980   44.6870 C   0  0  0  0  0  0  0  0  0  0  0  0
   46.0510   34.3850   43.6350 C   0  0  0  0  0  0  0  0  0  0  0  0
   46.8730   33.2580   43.8180 C   0  0  0  0  0  0  0  0  0  0  0  0
   46.7880   32.5500   44.9590 N   0  0  0  0  0  0  0  0  0  0  0  0
   45.9390   32.8800   45.9460 C   0  0  0  0  0  0  0  0  0  0  0  0
   45.1210   33.9600   45.8250 N   0  0  0  0  0  0  0  0  0  0  0  0
   44.4990   35.5400   44.6640 H   0  0  0  0  0  0  0  0  0  0  0  0
   47.5440   33.0240   43.0020 H   0  0  0  0  0  0  0  0  0  0  0  0
   47.3450   31.7390   47.6540 C   0  0  2  0  0  0  0  0  0  0  0  0
   45.9230   32.0310   47.1250 C   0  0  1  0  0  0  0  0  0  0  0  0
   45.3670   32.5850   48.2450 O   0  0  0  0  0  0  0  0  0  0  0  0
   45.7240   31.8180   49.3110 C   0  0  0  0  0  0  0  0  0  0  0  0
   46.9330   30.9900   48.9260 C   0  0  2  0  0  0  0  0  0  0  0  0
   47.9180   31.1110   46.9730 H   0  0  0  0  0  0  0  0  0  0  0  0
   45.4340   31.0540   46.8760 H   0  0  0  0  0  0  0  0  0  0  0  0
   44.9060   31.1550   49.6630 H   0  0  0  0  0  0  0  0  0  0  0  0
   46.0140   32.4540   50.1780 H   0  0  0  0  0  0  0  0  0  0  0  0
   46.6240   29.9810   48.6160 H   0  0  0  0  0  0  0  0  0  0  0  0
   47.9170   32.9000   48.0590 O   0  0  0  0  0  0  0  0  0  0  0  0
   48.1090   33.5570   47.3480 H   0  0  0  0  0  0  0  0  0  0  0  0
   47.9170   30.9720   49.8810 O   0  0  0  0  0  0  0  0  0  0  0  0
   48.7960   30.8690   49.4570 H   0  0  0  0  0  0  0  0  0  0  0  0
   46.0270   35.2480   42.4560 C   0  0  0  0  0  0  0  0  0  0  0  0
   47.1010   35.4940   42.2050 H   0  0  0  0  0  0  0  0  0  0  0  0
   45.5890   36.2380   42.7020 H   0  0  0  0  0  0  0  0  0  0  0  0
   45.3530   34.6810   41.3080 N   0  0  0  0  0  0  0  0  0  0  0  0
   46.0270   33.8520   40.4890 C   0  0  0  0  0  3  0  0  0  0  0  0
   45.3650   33.3120   39.3870 C   0  0  0  0  0  3  0  0  0  0  0  0
   44.0440   33.6780   39.2220 C   0  0  0  0  0  0  0  0  0  0  0  0
   43.3230   33.1540   38.1140 N   0  0  0  0  0  0  0  0  0  0  0  0
   43.3970   34.5160   40.0700 N   0  0  0  0  0  0  0  0  0  0  0  0
   44.0600   35.0230   41.1270 C   0  0  0  0  0  0  0  0  0  0  0  0
   43.4170   35.7820   41.8640 O   0  0  0  0  0  0  0  0  0  0  0  0
   42.6660   32.4390   38.5400 H   0  0  0  0  0  0  0  0  0  0  0  0
   43.1760   33.1780   37.0900 H   0  0  0  0  0  0  0  0  0  0  0  0
  1  6  1  0  0  0  0
  2  3  1  0  0  0  0
  2  1  2  0  0  0  0
  3  4  2  0  0  0  0
  4  5  1  0  0  0  0
  5 10  1  0  0  0  0
  6  5  2  0  0  0  0
  7  1  1  0  0  0  0
  8  3  1  0  0  0  0
  9 14  1  6  0  0  0
  9 19  1  0  0  0  0
  9 13  1  0  0  0  0
 10 15  1  6  0  0  0
 10  9  1  0  0  0  0
 10 11  1  0  0  0  0
 11 12  1  0  0  0  0
 12 16  1  0  0  0  0
 12 17  1  0  0  0  0
 13 18  1  6  0  0  0
 13 12  1  0  0  0  0
 13 21  1  0  0  0  0
 20 19  1  0  0  0  0
 22 21  1  0  0  0  0
 23 25  1  0  0  0  0
 23  2  1  0  0  0  0
 24 23  1  0  0  0  0
 26 23  1  0  0  0  0
 27 26  1  0  0  0  0
 28 27  2  0  0  0  0
 29 28  1  0  0  0  0
 29 31  2  0  0  0  0
 30 34  1  0  0  0  0
 30 29  1  0  0  0  0
 31 32  1  0  0  0  0
 32 26  1  0  0  0  0
 32 33  2  0  0  0  0
 35 30  1  0  0  0  0
M  END
>  <minimizedAffinity>
-6.15180397

>  <minimizedRMSD>
1.6464231

$$$$
