
 OpenBabel03252508263D

 42 46  0  0  1  0  0  0  0  0999 V2000
   46.2290   29.6830   46.5460 C   0  0  1  0  0  0  0  0  0  0  0  0
   45.2840   30.2930   47.4950 C   0  0  0  0  0  0  0  0  0  0  0  0
   44.8930   29.1310   46.5010 C   0  0  2  0  0  0  0  0  0  0  0  0
   47.0970   29.3060   47.1980 H   0  0  0  0  0  0  0  0  0  0  0  0
   45.1460   29.9540   48.5350 H   0  0  0  0  0  0  0  0  0  0  0  0
   44.7950   31.2590   47.3050 H   0  0  0  0  0  0  0  0  0  0  0  0
   44.0430   29.5830   45.8890 H   0  0  0  0  0  0  0  0  0  0  0  0
   44.4830   27.8300   47.0380 C   0  0  0  0  0  0  0  0  0  0  0  0
   45.1430   27.0530   47.9350 C   0  0  0  0  0  0  0  0  0  0  0  0
   44.7690   25.7830   48.3320 C   0  0  0  0  0  0  0  0  0  0  0  0
   43.6040   25.2600   47.7500 C   0  0  0  0  0  0  0  0  0  0  0  0
   42.9050   26.0360   46.8260 C   0  0  0  0  0  0  0  0  0  0  0  0
   41.7310   25.5090   46.3230 C   0  0  0  0  0  0  0  0  0  0  0  0
   40.9650   26.2700   45.4560 C   0  0  0  0  0  0  0  0  0  0  0  0
   41.3630   27.5410   45.0980 C   0  0  0  0  0  0  0  0  0  0  0  0
   42.5400   28.0170   45.6270 C   0  0  0  0  0  0  0  0  0  0  0  0
   43.3440   27.2940   46.4890 C   0  0  0  0  0  0  0  0  0  0  0  0
   46.0410   27.5010   48.3580 H   0  0  0  0  0  0  0  0  0  0  0  0
   45.3410   25.2160   49.0550 H   0  0  0  0  0  0  0  0  0  0  0  0
   43.2740   24.2670   48.0280 H   0  0  0  0  0  0  0  0  0  0  0  0
   41.4390   24.5090   46.6200 H   0  0  0  0  0  0  0  0  0  0  0  0
   40.0550   25.7510   45.1150 H   0  0  0  0  0  0  0  0  0  0  0  0
   40.6430   27.9760   44.4250 H   0  0  0  0  0  0  0  0  0  0  0  0
   42.5790   29.0100   45.2840 H   0  0  0  0  0  0  0  0  0  0  0  0
   48.4140   30.7770   43.7780 C   0  0  0  0  0  0  0  0  0  0  0  0
   47.6960   31.9040   43.2520 C   0  0  0  0  0  0  0  0  0  0  0  0
   46.4520   32.2510   43.8700 C   0  0  0  0  0  0  0  0  0  0  0  0
   46.0020   31.5170   44.9130 N   0  0  0  0  0  0  0  0  0  0  0  0
   46.7440   30.4450   45.3690 C   0  0  0  0  0  0  0  0  0  0  0  0
   47.9030   30.0930   44.8190 N   0  0  0  0  0  0  0  0  0  0  0  0
   49.3440   30.4920   43.3410 H   0  0  0  0  0  0  0  0  0  0  0  0
   48.1010   32.4550   42.4190 H   0  0  0  0  0  0  0  0  0  0  0  0
   45.7300   33.3650   43.3600 N   0  0  0  0  0  0  0  0  0  0  0  0
   46.0900   34.6220   43.5730 C   0  0  0  0  0  3  0  0  0  0  0  0
   45.3170   35.6300   43.0320 C   0  0  0  0  0  3  0  0  0  0  0  0
   44.1860   35.3400   42.2790 C   0  0  0  0  0  0  0  0  0  0  0  0
   43.3170   36.2810   41.6730 N   0  0  0  0  0  0  0  0  0  0  0  0
   43.8620   34.0450   42.0900 N   0  0  0  0  0  0  0  0  0  0  0  0
   44.6240   33.0740   42.6240 C   0  0  0  0  0  0  0  0  0  0  0  0
   44.2880   31.8760   42.4250 O   0  0  0  0  0  0  0  0  0  0  0  0
   43.2510   36.7650   40.7420 H   0  0  0  0  0  0  0  0  0  0  0  0
   42.5940   36.4780   42.4180 H   0  0  0  0  0  0  0  0  0  0  0  0
  1  4  1  1  0  0  0
  1  2  1  0  0  0  0
  2  5  1  0  0  0  0
  3  7  1  6  0  0  0
  3  1  1  0  0  0  0
  3  8  1  0  0  0  0
  3  2  1  0  0  0  0
  6  2  1  0  0  0  0
  8  9  1  0  0  0  0
  9 10  2  0  0  0  0
  9 18  1  0  0  0  0
 10 19  1  0  0  0  0
 11 20  1  0  0  0  0
 11 10  1  0  0  0  0
 12 11  2  0  0  0  0
 13 21  1  0  0  0  0
 13 12  1  0  0  0  0
 14 13  2  0  0  0  0
 15 14  1  0  0  0  0
 15 16  2  0  0  0  0
 16 17  1  0  0  0  0
 17 12  1  0  0  0  0
 17  8  2  0  0  0  0
 22 14  1  0  0  0  0
 23 15  1  0  0  0  0
 24 16  1  0  0  0  0
 25 30  1  0  0  0  0
 26 25  2  0  0  0  0
 26 27  1  0  0  0  0
 27 28  2  0  0  0  0
 28 29  1  0  0  0  0
 29  1  1  0  0  0  0
 30 29  2  0  0  0  0
 31 25  1  0  0  0  0
 32 26  1  0  0  0  0
 33 34  1  0  0  0  0
 33 27  1  0  0  0  0
 35 34  2  0  0  0  0
 36 35  1  0  0  0  0
 37 36  1  0  0  0  0
 37 42  1  0  0  0  0
 38 36  2  0  0  0  0
 38 39  1  0  0  0  0
 39 33  1  0  0  0  0
 40 39  2  0  0  0  0
 41 37  1  0  0  0  0
M  END
>  <minimizedAffinity>
-5.849823

>  <minimizedRMSD>
4.14765835

$$$$
