
 OpenBabel03252508253D

 42 46  0  0  1  0  0  0  0  0999 V2000
   46.5700   32.4090   45.6940 C   0  0  1  0  0  0  0  0  0  0  0  0
   46.9810   32.7240   47.0710 C   0  0  0  0  0  0  0  0  0  0  0  0
   45.6080   32.0370   46.7080 C   0  0  2  0  0  0  0  0  0  0  0  0
   47.4110   31.7430   45.2820 H   0  0  0  0  0  0  0  0  0  0  0  0
   47.5760   32.0500   47.7100 H   0  0  0  0  0  0  0  0  0  0  0  0
   46.9040   33.7360   47.4950 H   0  0  0  0  0  0  0  0  0  0  0  0
   44.8320   32.7560   47.1360 H   0  0  0  0  0  0  0  0  0  0  0  0
   45.3360   30.6750   47.1760 C   0  0  0  0  0  0  0  0  0  0  0  0
   45.2190   30.2410   48.4570 C   0  0  0  0  0  0  0  0  0  0  0  0
   45.0670   28.9260   48.8540 C   0  0  0  0  0  0  0  0  0  0  0  0
   45.0310   27.9630   47.8340 C   0  0  0  0  0  0  0  0  0  0  0  0
   45.1470   28.3790   46.5080 C   0  0  0  0  0  0  0  0  0  0  0  0
   45.0450   27.4050   45.5340 C   0  0  0  0  0  0  0  0  0  0  0  0
   45.0840   27.7780   44.1990 C   0  0  0  0  0  0  0  0  0  0  0  0
   45.2190   29.1040   43.8440 C   0  0  0  0  0  0  0  0  0  0  0  0
   45.3160   30.0310   44.8550 C   0  0  0  0  0  0  0  0  0  0  0  0
   45.2920   29.7110   46.2000 C   0  0  0  0  0  0  0  0  0  0  0  0
   45.2540   31.0260   49.2120 H   0  0  0  0  0  0  0  0  0  0  0  0
   44.9780   28.6480   49.8960 H   0  0  0  0  0  0  0  0  0  0  0  0
   44.9160   26.9180   48.0980 H   0  0  0  0  0  0  0  0  0  0  0  0
   44.9390   26.3710   45.8380 H   0  0  0  0  0  0  0  0  0  0  0  0
   44.9980   26.9230   43.5100 H   0  0  0  0  0  0  0  0  0  0  0  0
   45.2240   29.1980   42.7710 H   0  0  0  0  0  0  0  0  0  0  0  0
   45.3220   30.9500   44.3440 H   0  0  0  0  0  0  0  0  0  0  0  0
   45.0140   35.4140   44.2180 C   0  0  0  0  0  0  0  0  0  0  0  0
   45.5670   35.4220   42.8930 C   0  0  0  0  0  0  0  0  0  0  0  0
   46.4850   34.3810   42.5460 C   0  0  0  0  0  0  0  0  0  0  0  0
   46.7980   33.4380   43.4650 N   0  0  0  0  0  0  0  0  0  0  0  0
   46.2270   33.4900   44.7220 C   0  0  0  0  0  0  0  0  0  0  0  0
   45.3710   34.4430   45.0800 N   0  0  0  0  0  0  0  0  0  0  0  0
   44.3250   36.1750   44.5090 H   0  0  0  0  0  0  0  0  0  0  0  0
   45.2830   36.1970   42.2000 H   0  0  0  0  0  0  0  0  0  0  0  0
   47.0410   34.3760   41.2370 N   0  0  0  0  0  0  0  0  0  0  0  0
   46.5330   33.6730   40.2360 C   0  0  0  0  0  3  0  0  0  0  0  0
   47.1510   33.7400   39.0030 C   0  0  0  0  0  3  0  0  0  0  0  0
   48.2810   34.5250   38.8100 C   0  0  0  0  0  0  0  0  0  0  0  0
   49.0030   34.6740   37.5990 N   0  0  0  0  0  0  0  0  0  0  0  0
   48.7610   35.2200   39.8600 N   0  0  0  0  0  0  0  0  0  0  0  0
   48.1480   35.1450   41.0550 C   0  0  0  0  0  0  0  0  0  0  0  0
   48.6260   35.8100   42.0120 O   0  0  0  0  0  0  0  0  0  0  0  0
   48.9710   35.3240   36.7730 H   0  0  0  0  0  0  0  0  0  0  0  0
   49.7200   33.8990   37.6300 H   0  0  0  0  0  0  0  0  0  0  0  0
  1  4  1  6  0  0  0
  1  3  1  0  0  0  0
  1  2  1  0  0  0  0
  2  6  1  0  0  0  0
  2  5  1  0  0  0  0
  3  2  1  0  0  0  0
  3  7  1  1  0  0  0
  3  8  1  0  0  0  0
  8  9  1  0  0  0  0
  9 10  2  0  0  0  0
  9 18  1  0  0  0  0
 10 19  1  0  0  0  0
 11 20  1  0  0  0  0
 11 10  1  0  0  0  0
 12 11  2  0  0  0  0
 13 21  1  0  0  0  0
 13 12  1  0  0  0  0
 14 13  2  0  0  0  0
 15 14  1  0  0  0  0
 15 16  2  0  0  0  0
 16 17  1  0  0  0  0
 17 12  1  0  0  0  0
 17  8  2  0  0  0  0
 22 14  1  0  0  0  0
 23 15  1  0  0  0  0
 24 16  1  0  0  0  0
 25 31  1  0  0  0  0
 25 30  1  0  0  0  0
 26 25  2  0  0  0  0
 27 26  1  0  0  0  0
 27 28  2  0  0  0  0
 28 29  1  0  0  0  0
 29 30  2  0  0  0  0
 29  1  1  0  0  0  0
 32 26  1  0  0  0  0
 33 27  1  0  0  0  0
 34 33  1  0  0  0  0
 35 34  2  0  0  0  0
 36 35  1  0  0  0  0
 36 38  2  0  0  0  0
 37 42  1  0  0  0  0
 37 36  1  0  0  0  0
 38 39  1  0  0  0  0
 39 33  1  0  0  0  0
 39 40  2  0  0  0  0
 41 37  1  0  0  0  0
M  END
>  <minimizedAffinity>
-6.0446763

>  <minimizedRMSD>
0.858580053

$$$$
