
 OpenBabel03252500573D

 39 41  0  0  0  0  0  0  0  0999 V2000
   43.8010   34.3860   40.0630 O   0  0  0  0  0  0  0  0  0  0  0  0
   43.3740   34.4080   41.5240 P   0  0  1  0  0  0  0  0  0  0  0  0
   43.2090   32.8010   42.0610 O   0  0  0  0  0  0  0  0  0  0  0  0
   43.1360   32.8110   43.0370 H   0  0  0  0  0  0  0  0  0  0  0  0
   44.5930   35.1330   42.4630 O   0  0  0  0  0  0  0  0  0  0  0  0
   46.7170   34.2140   42.8830 C   0  0  0  0  0  0  0  0  0  0  0  0
   45.4500   34.4950   43.3480 C   0  0  0  0  0  0  0  0  0  0  0  0
   45.1260   34.1230   44.6580 C   0  0  0  0  0  0  0  0  0  0  0  0
   46.0760   33.5090   45.3870 N   0  0  0  0  0  0  0  0  0  0  0  0
   47.3010   33.2430   44.9210 C   0  0  0  0  0  0  0  0  0  0  0  0
   47.6110   33.5990   43.6710 N   0  0  0  0  0  0  0  0  0  0  0  0
   44.1450   34.3510   44.9930 H   0  0  0  0  0  0  0  0  0  0  0  0
   48.0800   32.7500   45.4950 H   0  0  0  0  0  0  0  0  0  0  0  0
   47.1170   34.5780   41.5220 C   0  0  0  0  0  0  0  0  0  0  0  0
   46.3390   35.2190   41.0540 H   0  0  0  0  0  0  0  0  0  0  0  0
   47.2490   33.6840   40.8820 H   0  0  0  0  0  0  0  0  0  0  0  0
   48.4130   35.3380   41.5840 C   0  0  0  0  0  0  0  0  0  0  0  0
   49.2370   34.6460   41.7590 H   0  0  0  0  0  0  0  0  0  0  0  0
   48.3260   36.0980   42.3870 H   0  0  0  0  0  0  0  0  0  0  0  0
   48.5650   35.8250   40.5900 H   0  0  0  0  0  0  0  0  0  0  0  0
   41.8690   35.1600   41.7030 O   0  0  0  0  0  0  0  0  0  0  0  0
   40.7710   34.5840   41.0810 C   0  0  0  0  0  0  0  0  0  0  0  0
   39.9590   35.3910   40.3040 C   0  0  0  0  0  0  0  0  0  0  0  0
   38.8400   34.8960   39.6460 C   0  0  0  0  0  0  0  0  0  0  0  0
   38.5510   33.5650   39.7830 N   0  0  0  0  0  0  0  0  0  0  0  0
   39.3400   32.7990   40.5320 C   0  0  0  0  0  0  0  0  0  0  0  0
   40.4100   33.2810   41.1600 N   0  0  0  0  0  0  0  0  0  0  0  0
   40.2030   36.4260   40.2090 H   0  0  0  0  0  0  0  0  0  0  0  0
   38.2240   35.5670   39.0410 H   0  0  0  0  0  0  0  0  0  0  0  0
   38.9780   31.4240   40.6300 N   0  0  0  0  0  0  0  0  0  0  0  0
   38.7150   30.8690   41.8410 C   0  0  0  0  0  3  0  0  0  0  0  0
   38.3740   29.5310   41.8240 C   0  0  0  0  0  3  0  0  0  0  0  0
   38.2870   28.7440   40.6920 C   0  0  0  0  0  0  0  0  0  0  0  0
   37.9300   27.3700   40.7460 N   0  0  0  0  0  0  0  0  0  0  0  0
   38.5660   29.3810   39.5390 N   0  0  0  0  0  0  0  0  0  0  0  0
   38.9050   30.6960   39.5080 C   0  0  0  0  0  0  0  0  0  0  0  0
   39.1510   31.2200   38.3940 O   0  0  0  0  0  0  0  0  0  0  0  0
   37.7790   26.9520   41.6860 H   0  0  0  0  0  0  0  0  0  0  0  0
   37.8420   26.8700   39.8310 H   0  0  0  0  0  0  0  0  0  0  0  0
  2  1  2  6  0  0  0
  2 21  1  0  0  0  0
  2  3  1  0  0  0  0
  2  5  1  0  0  0  0
  3  4  1  0  0  0  0
  5  7  1  0  0  0  0
  6  7  2  0  0  0  0
  6 11  1  0  0  0  0
  7  8  1  0  0  0  0
  8 12  1  0  0  0  0
  8  9  2  0  0  0  0
 10  9  1  0  0  0  0
 10 13  1  0  0  0  0
 11 10  2  0  0  0  0
 14 17  1  0  0  0  0
 14  6  1  0  0  0  0
 15 14  1  0  0  0  0
 16 14  1  0  0  0  0
 17 18  1  0  0  0  0
 17 19  1  0  0  0  0
 20 17  1  0  0  0  0
 22 27  1  0  0  0  0
 22 21  1  0  0  0  0
 23 22  2  0  0  0  0
 24 25  2  0  0  0  0
 24 23  1  0  0  0  0
 25 26  1  0  0  0  0
 26 30  1  0  0  0  0
 26 27  2  0  0  0  0
 28 23  1  0  0  0  0
 29 24  1  0  0  0  0
 30 31  1  0  0  0  0
 32 31  2  0  0  0  0
 33 34  1  0  0  0  0
 33 32  1  0  0  0  0
 34 38  1  0  0  0  0
 35 33  2  0  0  0  0
 36 35  1  0  0  0  0
 36 30  1  0  0  0  0
 37 36  2  0  0  0  0
 39 34  1  0  0  0  0
M  END
>  <minimizedAffinity>
-5.54528522

>  <minimizedRMSD>
1.00544202

$$$$
