
 OpenBabel03242511333D

 36 38  0  0  1  0  0  0  0  0999 V2000
   48.4530   32.0120   43.0350 C   0  0  0  0  0  3  0  0  0  0  0  0
   47.9400   33.1910   43.3280 C   0  0  0  0  0  3  0  0  0  0  0  0
   49.3260   31.8940   41.8730 C   0  0  0  0  0  0  0  0  0  0  0  0
   50.6490   31.4710   42.0980 C   0  0  0  0  0  0  0  0  0  0  0  0
   51.5130   31.3460   41.0080 C   0  0  0  0  0  0  0  0  0  0  0  0
   51.0320   31.6410   39.7710 N   0  0  0  0  0  0  0  0  0  0  0  0
   49.7620   32.0430   39.5880 C   0  0  0  0  0  0  0  0  0  0  0  0
   48.9330   32.1630   40.6340 N   0  0  0  0  0  0  0  0  0  0  0  0
   51.0080   31.2400   43.1020 H   0  0  0  0  0  0  0  0  0  0  0  0
   52.5190   31.0220   41.2020 H   0  0  0  0  0  0  0  0  0  0  0  0
   49.3440   32.3320   38.2580 N   0  0  0  0  0  0  0  0  0  0  0  0
   48.5720   33.4050   38.0060 C   0  0  0  0  0  3  0  0  0  0  0  0
   48.1910   33.6390   36.6800 C   0  0  0  0  0  3  0  0  0  0  0  0
   48.6480   32.7390   35.7540 C   0  0  0  0  0  0  0  0  0  0  0  0
   48.2530   32.9910   34.4140 N   0  0  0  0  0  0  0  0  0  0  0  0
   49.4210   31.6680   36.0250 N   0  0  0  0  0  0  0  0  0  0  0  0
   49.7780   31.4590   37.3090 C   0  0  0  0  0  0  0  0  0  0  0  0
   50.4970   30.4700   37.5980 O   0  0  0  0  0  0  0  0  0  0  0  0
   47.8820   32.6630   33.5110 H   0  0  0  0  0  0  0  0  0  0  0  0
   48.2790   33.9230   33.9050 H   0  0  0  0  0  0  0  0  0  0  0  0
   47.0510   33.3840   44.4850 C   0  0  0  0  0  0  0  0  0  0  0  0
   47.5180   34.0580   45.2260 H   0  0  0  0  0  0  0  0  0  0  0  0
   46.8510   32.3800   44.9270 H   0  0  0  0  0  0  0  0  0  0  0  0
   44.6450   35.9540   43.6730 C   0  0  1  0  0  0  0  0  0  0  0  0
   45.7710   35.0760   43.1230 C   0  0  0  0  0  0  0  0  0  0  0  0
   45.6860   33.9220   44.0580 C   0  0  2  0  0  0  0  0  0  0  0  0
   44.8830   34.2360   45.1110 O   0  0  0  0  0  0  0  0  0  0  0  0
   44.7070   35.6080   45.1410 C   0  0  0  0  0  0  0  0  0  0  0  0
   43.6700   35.6880   43.2510 H   0  0  0  0  0  0  0  0  0  0  0  0
   46.6980   35.6610   43.1920 H   0  0  0  0  0  0  0  0  0  0  0  0
   45.4980   34.8150   42.0590 H   0  0  0  0  0  0  0  0  0  0  0  0
   45.1860   33.0720   43.5100 H   0  0  0  0  0  0  0  0  0  0  0  0
   43.7790   35.8420   45.6930 H   0  0  0  0  0  0  0  0  0  0  0  0
   45.5240   36.1380   45.6520 H   0  0  0  0  0  0  0  0  0  0  0  0
   44.9250   37.2920   43.4240 O   0  0  0  0  0  0  0  0  0  0  0  0
   45.5050   37.7120   44.1050 H   0  0  0  0  0  0  0  0  0  0  0  0
  1  2  2  0  0  0  0
  2 21  1  0  0  0  0
  3  4  1  0  0  0  0
  3  1  1  0  0  0  0
  4  9  1  0  0  0  0
  5 10  1  0  0  0  0
  5  4  2  0  0  0  0
  6  5  1  0  0  0  0
  7  6  2  0  0  0  0
  7  8  1  0  0  0  0
  8  3  2  0  0  0  0
 11  7  1  0  0  0  0
 12 11  1  0  0  0  0
 13 12  2  0  0  0  0
 14 16  2  0  0  0  0
 14 13  1  0  0  0  0
 15 14  1  0  0  0  0
 16 17  1  0  0  0  0
 17 18  2  0  0  0  0
 17 11  1  0  0  0  0
 19 15  1  0  0  0  0
 20 15  1  0  0  0  0
 21 23  1  0  0  0  0
 21 22  1  0  0  0  0
 24 29  1  6  0  0  0
 24 28  1  0  0  0  0
 25 30  1  0  0  0  0
 25 24  1  0  0  0  0
 25 26  1  0  0  0  0
 26 32  1  6  0  0  0
 26 21  1  0  0  0  0
 26 27  1  0  0  0  0
 27 28  1  0  0  0  0
 28 34  1  0  0  0  0
 28 33  1  0  0  0  0
 31 25  1  0  0  0  0
 35 24  1  0  0  0  0
 35 36  1  0  0  0  0
M  END
>  <minimizedAffinity>
-5.52879715

>  <minimizedRMSD>
0.830076516

$$$$
