
 OpenBabel03242511333D

 36 38  0  0  1  0  0  0  0  0999 V2000
   48.9380   33.2590   42.7470 C   0  0  0  0  0  3  0  0  0  0  0  0
   47.7310   32.8860   43.1230 C   0  0  0  0  0  3  0  0  0  0  0  0
   49.4970   32.7020   41.5210 C   0  0  0  0  0  0  0  0  0  0  0  0
   50.7560   32.0810   41.6080 C   0  0  0  0  0  0  0  0  0  0  0  0
   51.3210   31.5360   40.4530 C   0  0  0  0  0  0  0  0  0  0  0  0
   50.6230   31.6320   39.2900 N   0  0  0  0  0  0  0  0  0  0  0  0
   49.4210   32.2320   39.2390 C   0  0  0  0  0  0  0  0  0  0  0  0
   48.8790   32.7550   40.3470 N   0  0  0  0  0  0  0  0  0  0  0  0
   51.2940   32.0170   42.5550 H   0  0  0  0  0  0  0  0  0  0  0  0
   52.2840   31.0660   40.5410 H   0  0  0  0  0  0  0  0  0  0  0  0
   48.7620   32.2870   37.9780 N   0  0  0  0  0  0  0  0  0  0  0  0
   49.1340   33.1940   37.0570 C   0  0  0  0  0  3  0  0  0  0  0  0
   48.4510   33.2030   35.8350 C   0  0  0  0  0  3  0  0  0  0  0  0
   47.4540   32.2710   35.6950 C   0  0  0  0  0  0  0  0  0  0  0  0
   46.7720   32.2930   34.4520 N   0  0  0  0  0  0  0  0  0  0  0  0
   47.0950   31.3700   36.6310 N   0  0  0  0  0  0  0  0  0  0  0  0
   47.7660   31.3780   37.8030 C   0  0  0  0  0  0  0  0  0  0  0  0
   47.4570   30.5520   38.6970 O   0  0  0  0  0  0  0  0  0  0  0  0
   45.8980   32.2770   33.9070 H   0  0  0  0  0  0  0  0  0  0  0  0
   47.2070   32.3550   33.4840 H   0  0  0  0  0  0  0  0  0  0  0  0
   47.1040   33.4080   44.3490 C   0  0  0  0  0  0  0  0  0  0  0  0
   47.7310   34.1980   44.8010 H   0  0  0  0  0  0  0  0  0  0  0  0
   46.9730   32.5500   45.0510 H   0  0  0  0  0  0  0  0  0  0  0  0
   44.5520   35.9450   44.0240 C   0  0  1  0  0  0  0  0  0  0  0  0
   45.6740   35.1990   43.2990 C   0  0  0  0  0  0  0  0  0  0  0  0
   45.6950   33.9310   44.0780 C   0  0  2  0  0  0  0  0  0  0  0  0
   44.9500   34.0690   45.2080 O   0  0  0  0  0  0  0  0  0  0  0  0
   44.7220   35.4150   45.4280 C   0  0  0  0  0  0  0  0  0  0  0  0
   43.5640   35.6890   43.6290 H   0  0  0  0  0  0  0  0  0  0  0  0
   46.5810   35.8130   43.3900 H   0  0  0  0  0  0  0  0  0  0  0  0
   45.3440   35.0650   42.2280 H   0  0  0  0  0  0  0  0  0  0  0  0
   45.1940   33.1360   43.4530 H   0  0  0  0  0  0  0  0  0  0  0  0
   43.8230   35.5320   46.0600 H   0  0  0  0  0  0  0  0  0  0  0  0
   45.5500   35.9130   45.9560 H   0  0  0  0  0  0  0  0  0  0  0  0
   44.7640   37.3150   43.9380 O   0  0  0  0  0  0  0  0  0  0  0  0
   45.3690   37.6710   44.6340 H   0  0  0  0  0  0  0  0  0  0  0  0
  1  2  2  0  0  0  0
  2 21  1  0  0  0  0
  3  4  1  0  0  0  0
  3  1  1  0  0  0  0
  4  9  1  0  0  0  0
  5 10  1  0  0  0  0
  5  4  2  0  0  0  0
  6  5  1  0  0  0  0
  7  6  2  0  0  0  0
  7  8  1  0  0  0  0
  8  3  2  0  0  0  0
 11  7  1  0  0  0  0
 12 11  1  0  0  0  0
 13 12  2  0  0  0  0
 14 13  1  0  0  0  0
 14 16  2  0  0  0  0
 15 14  1  0  0  0  0
 16 17  1  0  0  0  0
 17 11  1  0  0  0  0
 17 18  2  0  0  0  0
 19 15  1  0  0  0  0
 20 15  1  0  0  0  0
 21 22  1  0  0  0  0
 21 23  1  0  0  0  0
 24 29  1  6  0  0  0
 24 28  1  0  0  0  0
 25 30  1  0  0  0  0
 25 24  1  0  0  0  0
 25 26  1  0  0  0  0
 26 32  1  6  0  0  0
 26 21  1  0  0  0  0
 26 27  1  0  0  0  0
 27 28  1  0  0  0  0
 28 34  1  0  0  0  0
 28 33  1  0  0  0  0
 31 25  1  0  0  0  0
 35 24  1  0  0  0  0
 35 36  1  0  0  0  0
M  END
>  <minimizedAffinity>
-5.46140194

>  <minimizedRMSD>
1.01700544

$$$$
