
 OpenBabel03252500573D

 39 41  0  0  0  0  0  0  0  0999 V2000
   42.8590   35.2510   39.3630 O   0  0  0  0  0  0  0  0  0  0  0  0
   43.0120   34.6160   40.7390 P   0  0  1  0  0  0  0  0  0  0  0  0
   43.4440   32.9820   40.5320 O   0  0  0  0  0  0  0  0  0  0  0  0
   43.7390   32.6320   41.3970 H   0  0  0  0  0  0  0  0  0  0  0  0
   44.2850   35.3740   41.5770 O   0  0  0  0  0  0  0  0  0  0  0  0
   46.2990   34.3710   42.2630 C   0  0  0  0  0  0  0  0  0  0  0  0
   45.0450   34.8290   42.6030 C   0  0  0  0  0  0  0  0  0  0  0  0
   44.6340   34.7140   43.9370 C   0  0  0  0  0  0  0  0  0  0  0  0
   45.4950   34.1600   44.8100 N   0  0  0  0  0  0  0  0  0  0  0  0
   46.7090   33.7200   44.4640 C   0  0  0  0  0  0  0  0  0  0  0  0
   47.1010   33.8300   43.1920 N   0  0  0  0  0  0  0  0  0  0  0  0
   43.6640   35.0760   44.1730 H   0  0  0  0  0  0  0  0  0  0  0  0
   47.4170   33.2710   45.1550 H   0  0  0  0  0  0  0  0  0  0  0  0
   46.7860   34.4630   40.8850 C   0  0  0  0  0  0  0  0  0  0  0  0
   46.1650   35.1810   40.3080 H   0  0  0  0  0  0  0  0  0  0  0  0
   46.7390   33.4830   40.3690 H   0  0  0  0  0  0  0  0  0  0  0  0
   48.2110   34.9440   40.9050 C   0  0  0  0  0  0  0  0  0  0  0  0
   48.8710   34.1280   41.1990 H   0  0  0  0  0  0  0  0  0  0  0  0
   48.2720   35.8050   41.6010 H   0  0  0  0  0  0  0  0  0  0  0  0
   48.4750   35.2530   39.8640 H   0  0  0  0  0  0  0  0  0  0  0  0
   41.5510   34.6520   41.5880 O   0  0  0  0  0  0  0  0  0  0  0  0
   40.5030   33.8730   41.1210 C   0  0  0  0  0  0  0  0  0  0  0  0
   39.5230   34.4810   40.3570 C   0  0  0  0  0  0  0  0  0  0  0  0
   38.4390   33.7750   39.8490 C   0  0  0  0  0  0  0  0  0  0  0  0
   38.3580   32.4370   40.1240 N   0  0  0  0  0  0  0  0  0  0  0  0
   39.3070   31.8620   40.8600 C   0  0  0  0  0  0  0  0  0  0  0  0
   40.3430   32.5460   41.3440 N   0  0  0  0  0  0  0  0  0  0  0  0
   39.6050   35.5260   40.1530 H   0  0  0  0  0  0  0  0  0  0  0  0
   37.6860   34.2930   39.2490 H   0  0  0  0  0  0  0  0  0  0  0  0
   39.1590   30.4670   41.1070 N   0  0  0  0  0  0  0  0  0  0  0  0
   40.2160   29.6270   40.9600 C   0  0  0  0  0  3  0  0  0  0  0  0
   39.9640   28.2970   41.2240 C   0  0  0  0  0  3  0  0  0  0  0  0
   38.7460   27.7770   41.6170 C   0  0  0  0  0  0  0  0  0  0  0  0
   38.5550   26.3930   41.8730 N   0  0  0  0  0  0  0  0  0  0  0  0
   37.7580   28.6850   41.7370 N   0  0  0  0  0  0  0  0  0  0  0  0
   37.9600   30.0040   41.4860 C   0  0  0  0  0  0  0  0  0  0  0  0
   36.9900   30.7900   41.6190 O   0  0  0  0  0  0  0  0  0  0  0  0
   39.3630   25.7610   41.7070 H   0  0  0  0  0  0  0  0  0  0  0  0
   37.6090   26.1030   42.2130 H   0  0  0  0  0  0  0  0  0  0  0  0
  2  1  2  6  0  0  0
  2  5  1  0  0  0  0
  2 21  1  0  0  0  0
  3  2  1  0  0  0  0
  3  4  1  0  0  0  0
  5  7  1  0  0  0  0
  6  7  2  0  0  0  0
  6 11  1  0  0  0  0
  7  8  1  0  0  0  0
  8 12  1  0  0  0  0
  8  9  2  0  0  0  0
 10  9  1  0  0  0  0
 10 13  1  0  0  0  0
 11 10  2  0  0  0  0
 14 17  1  0  0  0  0
 14  6  1  0  0  0  0
 15 14  1  0  0  0  0
 16 14  1  0  0  0  0
 17 18  1  0  0  0  0
 17 19  1  0  0  0  0
 20 17  1  0  0  0  0
 22 27  1  0  0  0  0
 22 21  1  0  0  0  0
 23 22  2  0  0  0  0
 24 25  2  0  0  0  0
 24 23  1  0  0  0  0
 25 26  1  0  0  0  0
 26 30  1  0  0  0  0
 26 27  2  0  0  0  0
 28 23  1  0  0  0  0
 29 24  1  0  0  0  0
 30 36  1  0  0  0  0
 31 30  1  0  0  0  0
 31 32  2  0  0  0  0
 32 33  1  0  0  0  0
 33 35  2  0  0  0  0
 33 34  1  0  0  0  0
 34 39  1  0  0  0  0
 36 37  2  0  0  0  0
 36 35  1  0  0  0  0
 38 34  1  0  0  0  0
M  END
>  <minimizedAffinity>
-5.93677044

>  <minimizedRMSD>
1.42061949

$$$$
