
 OpenBabel03242510203D

 37 40  0  0  1  0  0  0  0  0999 V2000
   36.4030   29.2500   41.8310 N   0  0  0  0  0  0  0  0  0  0  0  0
   36.8270   28.3080   42.7510 C   0  0  0  0  0  0  0  0  0  0  0  0
   36.1810   27.4100   43.3570 O   0  0  0  0  0  0  0  0  0  0  0  0
   36.7490   30.2330   41.9700 H   0  0  0  0  0  0  0  0  0  0  0  0
   35.9280   29.5210   39.4140 C   0  0  1  0  0  0  0  0  0  0  0  0
   36.2080   28.1460   39.6030 C   0  0  0  0  0  0  0  0  0  0  0  0
   35.5390   28.9450   40.7350 C   0  0  1  0  0  0  0  0  0  0  0  0
   35.0690   29.8710   38.7970 H   0  0  0  0  0  0  0  0  0  0  0  0
   35.5970   27.3880   39.0500 H   0  0  0  0  0  0  0  0  0  0  0  0
   37.1920   27.7240   39.8730 H   0  0  0  0  0  0  0  0  0  0  0  0
   34.5580   28.4880   40.9390 H   0  0  0  0  0  0  0  0  0  0  0  0
   36.9570   31.8760   39.7270 C   0  0  0  0  0  0  0  0  0  0  0  0
   37.1080   30.5000   39.4200 C   0  0  0  0  0  0  0  0  0  0  0  0
   38.3650   30.0510   39.1020 C   0  0  0  0  0  0  0  0  0  0  0  0
   39.3970   30.9260   39.0940 N   0  0  0  0  0  0  0  0  0  0  0  0
   39.2470   32.2350   39.3870 C   0  0  0  0  0  0  0  0  0  0  0  0
   37.9790   32.7240   39.7140 N   0  0  0  0  0  0  0  0  0  0  0  0
   35.9840   32.2450   39.9800 H   0  0  0  0  0  0  0  0  0  0  0  0
   38.4580   28.9980   38.8720 H   0  0  0  0  0  0  0  0  0  0  0  0
   40.1870   32.7360   39.3180 H   0  0  0  0  0  0  0  0  0  0  0  0
   38.2930   28.2580   43.1600 C   0  0  2  0  0  0  0  0  0  0  0  0
   39.1660   29.4900   42.7620 C   0  0  0  0  0  0  0  0  0  0  0  0
   39.3560   28.1110   42.1760 C   0  0  1  0  0  0  0  0  0  0  0  0
   38.4810   28.0560   44.2460 H   0  0  0  0  0  0  0  0  0  0  0  0
   38.6890   30.2970   42.2190 H   0  0  0  0  0  0  0  0  0  0  0  0
   39.9580   29.8070   43.4620 H   0  0  0  0  0  0  0  0  0  0  0  0
   39.3130   28.1710   41.1060 H   0  0  0  0  0  0  0  0  0  0  0  0
   40.5180   27.3310   42.6260 N   0  0  0  0  0  0  0  0  0  0  0  0
   41.5600   27.8080   43.3200 C   0  0  0  0  0  3  0  0  0  0  0  0
   42.5920   26.9570   43.6800 C   0  0  0  0  0  3  0  0  0  0  0  0
   42.5450   25.6210   43.3240 C   0  0  0  0  0  0  0  0  0  0  0  0
   43.5900   24.6980   43.6730 N   0  0  0  0  0  0  0  0  0  0  0  0
   41.4710   25.1640   42.6170 N   0  0  0  0  0  0  0  0  0  0  0  0
   40.4650   26.0200   42.2720 C   0  0  0  0  0  0  0  0  0  0  0  0
   39.5330   25.4650   41.6200 O   0  0  0  0  0  0  0  0  0  0  0  0
   44.4490   24.5210   43.1070 H   0  0  0  0  0  0  0  0  0  0  0  0
   43.3680   24.2170   44.5940 H   0  0  0  0  0  0  0  0  0  0  0  0
  1  4  1  0  0  0  0
  1  2  1  0  0  0  0
  2 21  1  0  0  0  0
  2  3  2  0  0  0  0
  5  8  1  6  0  0  0
  5 13  1  0  0  0  0
  5  6  1  0  0  0  0
  5  7  1  0  0  0  0
  6 10  1  0  0  0  0
  6  7  1  0  0  0  0
  7 11  1  1  0  0  0
  7  1  1  0  0  0  0
  9  6  1  0  0  0  0
 12 18  1  0  0  0  0
 13 12  2  0  0  0  0
 14 13  1  0  0  0  0
 15 14  2  0  0  0  0
 15 16  1  0  0  0  0
 16 17  2  0  0  0  0
 17 12  1  0  0  0  0
 19 14  1  0  0  0  0
 20 16  1  0  0  0  0
 21 24  1  1  0  0  0
 22 21  1  0  0  0  0
 22 26  1  0  0  0  0
 23 27  1  6  0  0  0
 23 28  1  0  0  0  0
 23 22  1  0  0  0  0
 23 21  1  0  0  0  0
 25 22  1  0  0  0  0
 28 29  1  0  0  0  0
 29 30  2  0  0  0  0
 31 32  1  0  0  0  0
 31 30  1  0  0  0  0
 32 37  1  0  0  0  0
 33 31  2  0  0  0  0
 34 33  1  0  0  0  0
 34 28  1  0  0  0  0
 35 34  2  0  0  0  0
 36 32  1  0  0  0  0
M  END
>  <minimizedAffinity>
-5.81950903

$$$$

 OpenBabel03242510203D

 37 40  0  0  1  0  0  0  0  0999 V2000
   37.2240   28.5740   41.2010 N   0  0  0  0  0  0  0  0  0  0  0  0
   37.4300   29.8080   40.6100 C   0  0  0  0  0  0  0  0  0  0  0  0
   36.6300   30.7630   40.4160 O   0  0  0  0  0  0  0  0  0  0  0  0
   37.6260   27.7400   40.7020 H   0  0  0  0  0  0  0  0  0  0  0  0
   36.7600   27.1200   43.1540 C   0  0  1  0  0  0  0  0  0  0  0  0
   37.4010   28.2710   43.6710 C   0  0  0  0  0  0  0  0  0  0  0  0
   36.5080   28.3980   42.4250 C   0  0  1  0  0  0  0  0  0  0  0  0
   35.8550   26.6810   43.6330 H   0  0  0  0  0  0  0  0  0  0  0  0
   37.0370   28.7060   44.6360 H   0  0  0  0  0  0  0  0  0  0  0  0
   38.4560   28.5500   43.4960 H   0  0  0  0  0  0  0  0  0  0  0  0
   35.6850   29.0890   42.6650 H   0  0  0  0  0  0  0  0  0  0  0  0
   39.0400   26.0750   42.5130 C   0  0  0  0  0  0  0  0  0  0  0  0
   37.6240   26.0820   42.4290 C   0  0  0  0  0  0  0  0  0  0  0  0
   37.0260   25.1240   41.6500 C   0  0  0  0  0  0  0  0  0  0  0  0
   37.7990   24.2230   41.0000 N   0  0  0  0  0  0  0  0  0  0  0  0
   39.1460   24.2210   41.0830 C   0  0  0  0  0  0  0  0  0  0  0  0
   39.7870   25.1840   41.8690 N   0  0  0  0  0  0  0  0  0  0  0  0
   39.5260   26.8130   43.1180 H   0  0  0  0  0  0  0  0  0  0  0  0
   35.9460   25.1470   41.6000 H   0  0  0  0  0  0  0  0  0  0  0  0
   39.5480   23.4280   40.4930 H   0  0  0  0  0  0  0  0  0  0  0  0
   38.8110   30.1710   40.0820 C   0  0  2  0  0  0  0  0  0  0  0  0
   39.9740   30.1720   41.1250 C   0  0  0  0  0  0  0  0  0  0  0  0
   39.4640   31.4200   40.4460 C   0  0  1  0  0  0  0  0  0  0  0  0
   39.1590   29.5750   39.2000 H   0  0  0  0  0  0  0  0  0  0  0  0
   39.7350   29.9240   42.1520 H   0  0  0  0  0  0  0  0  0  0  0  0
   40.9690   29.8360   40.7860 H   0  0  0  0  0  0  0  0  0  0  0  0
   39.1940   32.1440   41.1900 H   0  0  0  0  0  0  0  0  0  0  0  0
   40.3000   32.0160   39.3940 N   0  0  0  0  0  0  0  0  0  0  0  0
   40.7700   31.3800   38.3130 C   0  0  0  0  0  3  0  0  0  0  0  0
   41.5500   32.0670   37.3980 C   0  0  0  0  0  3  0  0  0  0  0  0
   41.8430   33.4040   37.6000 C   0  0  0  0  0  0  0  0  0  0  0  0
   42.6480   34.1600   36.6810 N   0  0  0  0  0  0  0  0  0  0  0  0
   41.3500   34.0250   38.7110 N   0  0  0  0  0  0  0  0  0  0  0  0
   40.5840   33.3300   39.6000 C   0  0  0  0  0  0  0  0  0  0  0  0
   40.1930   34.0260   40.5830 O   0  0  0  0  0  0  0  0  0  0  0  0
   43.6890   34.2260   36.7080 H   0  0  0  0  0  0  0  0  0  0  0  0
   42.0330   34.6460   35.9630 H   0  0  0  0  0  0  0  0  0  0  0  0
  1  7  1  0  0  0  0
  2  1  1  0  0  0  0
  3  2  2  0  0  0  0
  4  1  1  0  0  0  0
  5  8  1  1  0  0  0
  5  6  1  0  0  0  0
  6  9  1  0  0  0  0
  7 11  1  1  0  0  0
  7  5  1  0  0  0  0
  7  6  1  0  0  0  0
 10  6  1  0  0  0  0
 12 18  1  0  0  0  0
 13 12  1  0  0  0  0
 13  5  1  0  0  0  0
 14 13  2  0  0  0  0
 15 16  2  0  0  0  0
 15 14  1  0  0  0  0
 16 17  1  0  0  0  0
 17 12  2  0  0  0  0
 19 14  1  0  0  0  0
 20 16  1  0  0  0  0
 21 24  1  6  0  0  0
 21 23  1  0  0  0  0
 21  2  1  0  0  0  0
 21 22  1  0  0  0  0
 22 25  1  0  0  0  0
 23 22  1  0  0  0  0
 23 27  1  1  0  0  0
 26 22  1  0  0  0  0
 28 34  1  0  0  0  0
 28 23  1  0  0  0  0
 29 28  1  0  0  0  0
 30 31  1  0  0  0  0
 30 29  2  0  0  0  0
 31 33  2  0  0  0  0
 32 36  1  0  0  0  0
 32 31  1  0  0  0  0
 33 34  1  0  0  0  0
 34 35  2  0  0  0  0
 37 32  1  0  0  0  0
M  END
>  <minimizedAffinity>
-5.79285097

$$$$

 OpenBabel03242510203D

 37 40  0  0  1  0  0  0  0  0999 V2000
   37.3630   29.6430   39.9910 N   0  0  0  0  0  0  0  0  0  0  0  0
   36.6950   28.8850   40.9370 C   0  0  0  0  0  0  0  0  0  0  0  0
   35.4590   28.7200   41.1260 O   0  0  0  0  0  0  0  0  0  0  0  0
   38.1640   30.2280   40.3380 H   0  0  0  0  0  0  0  0  0  0  0  0
   37.4300   30.8670   37.8370 C   0  0  1  0  0  0  0  0  0  0  0  0
   38.2160   29.7040   37.6480 C   0  0  0  0  0  0  0  0  0  0  0  0
   37.0130   29.6570   38.6060 C   0  0  1  0  0  0  0  0  0  0  0  0
   36.6850   31.2080   37.0820 H   0  0  0  0  0  0  0  0  0  0  0  0
   38.1450   29.1560   36.6740 H   0  0  0  0  0  0  0  0  0  0  0  0
   39.1850   29.4990   38.1360 H   0  0  0  0  0  0  0  0  0  0  0  0
   36.3050   28.9030   38.2260 H   0  0  0  0  0  0  0  0  0  0  0  0
   37.2390   33.0030   39.2880 C   0  0  0  0  0  0  0  0  0  0  0  0
   38.0350   32.0150   38.6520 C   0  0  0  0  0  0  0  0  0  0  0  0
   39.3980   32.1200   38.7720 C   0  0  0  0  0  0  0  0  0  0  0  0
   39.9220   33.1470   39.4790 N   0  0  0  0  0  0  0  0  0  0  0  0
   39.1600   34.0840   40.0810 C   0  0  0  0  0  0  0  0  0  0  0  0
   37.7680   34.0060   39.9790 N   0  0  0  0  0  0  0  0  0  0  0  0
   36.1740   32.9370   39.2090 H   0  0  0  0  0  0  0  0  0  0  0  0
   39.9860   31.3570   38.2800 H   0  0  0  0  0  0  0  0  0  0  0  0
   39.7810   34.7960   40.5790 H   0  0  0  0  0  0  0  0  0  0  0  0
   37.4880   28.0770   41.9550 C   0  0  2  0  0  0  0  0  0  0  0  0
   37.5890   28.6790   43.3920 C   0  0  0  0  0  0  0  0  0  0  0  0
   38.7720   28.5380   42.4640 C   0  0  1  0  0  0  0  0  0  0  0  0
   37.1750   27.0070   42.0660 H   0  0  0  0  0  0  0  0  0  0  0  0
   37.1020   29.6280   43.5800 H   0  0  0  0  0  0  0  0  0  0  0  0
   37.5860   27.9790   44.2450 H   0  0  0  0  0  0  0  0  0  0  0  0
   39.2520   29.4900   42.3520 H   0  0  0  0  0  0  0  0  0  0  0  0
   39.7450   27.4750   42.7540 N   0  0  0  0  0  0  0  0  0  0  0  0
   39.4500   26.2100   43.0820 C   0  0  0  0  0  3  0  0  0  0  0  0
   40.4720   25.3100   43.3310 C   0  0  0  0  0  3  0  0  0  0  0  0
   41.7920   25.7150   43.2400 C   0  0  0  0  0  0  0  0  0  0  0  0
   42.8870   24.8190   43.4890 N   0  0  0  0  0  0  0  0  0  0  0  0
   42.0620   27.0090   42.9040 N   0  0  0  0  0  0  0  0  0  0  0  0
   41.0400   27.8810   42.6640 C   0  0  0  0  0  0  0  0  0  0  0  0
   41.4310   29.0470   42.3620 O   0  0  0  0  0  0  0  0  0  0  0  0
   43.3100   24.6320   44.4250 H   0  0  0  0  0  0  0  0  0  0  0  0
   43.2100   24.3670   42.5830 H   0  0  0  0  0  0  0  0  0  0  0  0
  1  4  1  0  0  0  0
  1  2  1  0  0  0  0
  2  3  2  0  0  0  0
  2 21  1  0  0  0  0
  5  8  1  6  0  0  0
  5  7  1  0  0  0  0
  5 13  1  0  0  0  0
  6  5  1  0  0  0  0
  6 10  1  0  0  0  0
  6  7  1  0  0  0  0
  7 11  1  6  0  0  0
  7  1  1  0  0  0  0
  9  6  1  0  0  0  0
 12 17  1  0  0  0  0
 13 14  1  0  0  0  0
 13 12  2  0  0  0  0
 14 15  2  0  0  0  0
 15 16  1  0  0  0  0
 16 20  1  0  0  0  0
 17 16  2  0  0  0  0
 18 12  1  0  0  0  0
 19 14  1  0  0  0  0
 21 24  1  6  0  0  0
 21 23  1  0  0  0  0
 21 22  1  0  0  0  0
 22 25  1  0  0  0  0
 22 26  1  0  0  0  0
 23 27  1  6  0  0  0
 23 28  1  0  0  0  0
 23 22  1  0  0  0  0
 28 29  1  0  0  0  0
 29 30  2  0  0  0  0
 31 30  1  0  0  0  0
 31 32  1  0  0  0  0
 32 36  1  0  0  0  0
 33 31  2  0  0  0  0
 34 28  1  0  0  0  0
 34 33  1  0  0  0  0
 35 34  2  0  0  0  0
 37 32  1  0  0  0  0
M  END
>  <minimizedAffinity>
-5.74987888

$$$$

 OpenBabel03242510203D

 37 40  0  0  1  0  0  0  0  0999 V2000
   38.5850   28.8540   41.5760 N   0  0  0  0  0  0  0  0  0  0  0  0
   37.7790   29.8640   41.0820 C   0  0  0  0  0  0  0  0  0  0  0  0
   36.6360   30.2490   41.4490 O   0  0  0  0  0  0  0  0  0  0  0  0
   39.0390   28.2250   40.8670 H   0  0  0  0  0  0  0  0  0  0  0  0
   38.8810   27.2190   43.4150 C   0  0  1  0  0  0  0  0  0  0  0  0
   40.1200   27.8950   43.2940 C   0  0  0  0  0  0  0  0  0  0  0  0
   38.8140   28.6430   42.9700 C   0  0  1  0  0  0  0  0  0  0  0  0
   38.4070   27.0270   44.4050 H   0  0  0  0  0  0  0  0  0  0  0  0
   40.6780   28.1730   44.2230 H   0  0  0  0  0  0  0  0  0  0  0  0
   40.8130   27.8140   42.4370 H   0  0  0  0  0  0  0  0  0  0  0  0
   38.7330   29.4980   43.6600 H   0  0  0  0  0  0  0  0  0  0  0  0
   37.2050   25.7410   42.1090 C   0  0  0  0  0  0  0  0  0  0  0  0
   38.5360   26.1610   42.3620 C   0  0  0  0  0  0  0  0  0  0  0  0
   39.5400   25.5730   41.6350 C   0  0  0  0  0  0  0  0  0  0  0  0
   39.2260   24.6270   40.7190 N   0  0  0  0  0  0  0  0  0  0  0  0
   37.9580   24.2310   40.4830 C   0  0  0  0  0  0  0  0  0  0  0  0
   36.9120   24.8110   41.2070 N   0  0  0  0  0  0  0  0  0  0  0  0
   36.4070   26.1900   42.6640 H   0  0  0  0  0  0  0  0  0  0  0  0
   40.5470   25.9080   41.8430 H   0  0  0  0  0  0  0  0  0  0  0  0
   37.9440   23.4790   39.7260 H   0  0  0  0  0  0  0  0  0  0  0  0
   38.2620   30.7120   39.9130 C   0  0  2  0  0  0  0  0  0  0  0  0
   38.0080   30.1330   38.4850 C   0  0  0  0  0  0  0  0  0  0  0  0
   39.3850   30.3000   39.0820 C   0  0  1  0  0  0  0  0  0  0  0  0
   37.9010   31.7730   39.9080 H   0  0  0  0  0  0  0  0  0  0  0  0
   37.5160   29.1710   38.4070 H   0  0  0  0  0  0  0  0  0  0  0  0
   37.7660   30.8440   37.6760 H   0  0  0  0  0  0  0  0  0  0  0  0
   39.9040   29.3620   39.0470 H   0  0  0  0  0  0  0  0  0  0  0  0
   40.2210   31.3980   38.5750 N   0  0  0  0  0  0  0  0  0  0  0  0
   40.1980   32.6650   39.0090 C   0  0  0  0  0  3  0  0  0  0  0  0
   41.0440   33.6000   38.4390 C   0  0  0  0  0  3  0  0  0  0  0  0
   41.9100   33.2280   37.4260 C   0  0  0  0  0  0  0  0  0  0  0  0
   42.8060   34.1610   36.8020 N   0  0  0  0  0  0  0  0  0  0  0  0
   41.9100   31.9300   37.0040 N   0  0  0  0  0  0  0  0  0  0  0  0
   41.0670   31.0240   37.5790 C   0  0  0  0  0  0  0  0  0  0  0  0
   41.1720   29.8590   37.0950 O   0  0  0  0  0  0  0  0  0  0  0  0
   42.5710   34.7670   35.9850 H   0  0  0  0  0  0  0  0  0  0  0  0
   43.7500   34.1520   37.2910 H   0  0  0  0  0  0  0  0  0  0  0  0
  1  7  1  0  0  0  0
  2  3  2  0  0  0  0
  2  1  1  0  0  0  0
  4  1  1  0  0  0  0
  5  8  1  1  0  0  0
  6  5  1  0  0  0  0
  6  9  1  0  0  0  0
  7  6  1  0  0  0  0
  7  5  1  0  0  0  0
  7 11  1  1  0  0  0
 10  6  1  0  0  0  0
 12 13  1  0  0  0  0
 12 18  1  0  0  0  0
 13  5  1  0  0  0  0
 14 19  1  0  0  0  0
 14 13  2  0  0  0  0
 15 14  1  0  0  0  0
 16 15  2  0  0  0  0
 16 17  1  0  0  0  0
 17 12  2  0  0  0  0
 20 16  1  0  0  0  0
 21 24  1  1  0  0  0
 21  2  1  0  0  0  0
 22 23  1  0  0  0  0
 22 21  1  0  0  0  0
 23 27  1  1  0  0  0
 23 21  1  0  0  0  0
 25 22  1  0  0  0  0
 26 22  1  0  0  0  0
 28 29  1  0  0  0  0
 28 23  1  0  0  0  0
 30 29  2  0  0  0  0
 31 30  1  0  0  0  0
 32 37  1  0  0  0  0
 32 31  1  0  0  0  0
 33 31  2  0  0  0  0
 33 34  1  0  0  0  0
 34 28  1  0  0  0  0
 35 34  2  0  0  0  0
 36 32  1  0  0  0  0
M  END
>  <minimizedAffinity>
-5.47764254

$$$$

 OpenBabel03242510203D

 37 40  0  0  1  0  0  0  0  0999 V2000
   37.4200   30.0980   39.5550 N   0  0  0  0  0  0  0  0  0  0  0  0
   36.7950   29.8910   40.7720 C   0  0  0  0  0  0  0  0  0  0  0  0
   36.0870   30.6680   41.4690 O   0  0  0  0  0  0  0  0  0  0  0  0
   38.4120   29.7610   39.4730 H   0  0  0  0  0  0  0  0  0  0  0  0
   37.3440   32.0560   38.0380 C   0  0  1  0  0  0  0  0  0  0  0  0
   37.7030   30.9510   37.2280 C   0  0  0  0  0  0  0  0  0  0  0  0
   36.7850   30.7320   38.4440 C   0  0  1  0  0  0  0  0  0  0  0  0
   36.5760   32.7980   37.7200 H   0  0  0  0  0  0  0  0  0  0  0  0
   37.2620   30.8660   36.2030 H   0  0  0  0  0  0  0  0  0  0  0  0
   38.6580   30.4000   37.2840 H   0  0  0  0  0  0  0  0  0  0  0  0
   35.8260   30.3330   38.0780 H   0  0  0  0  0  0  0  0  0  0  0  0
   38.1040   33.4910   40.0540 C   0  0  0  0  0  0  0  0  0  0  0  0
   38.4180   32.6510   38.9560 C   0  0  0  0  0  0  0  0  0  0  0  0
   39.7420   32.3850   38.7140 C   0  0  0  0  0  0  0  0  0  0  0  0
   40.6830   32.9290   39.5200 N   0  0  0  0  0  0  0  0  0  0  0  0
   40.3790   33.7290   40.5630 C   0  0  0  0  0  0  0  0  0  0  0  0
   39.0390   34.0190   40.8370 N   0  0  0  0  0  0  0  0  0  0  0  0
   37.0760   33.7090   40.2610 H   0  0  0  0  0  0  0  0  0  0  0  0
   39.9600   31.7420   37.8720 H   0  0  0  0  0  0  0  0  0  0  0  0
   41.2720   34.0430   41.0560 H   0  0  0  0  0  0  0  0  0  0  0  0
   36.9120   28.5380   41.4610 C   0  0  2  0  0  0  0  0  0  0  0  0
   37.7140   28.5090   42.8010 C   0  0  0  0  0  0  0  0  0  0  0  0
   38.1800   27.8260   41.5370 C   0  0  1  0  0  0  0  0  0  0  0  0
   35.9430   28.0070   41.6440 H   0  0  0  0  0  0  0  0  0  0  0  0
   38.1410   29.4380   43.1570 H   0  0  0  0  0  0  0  0  0  0  0  0
   37.3660   27.8240   43.5940 H   0  0  0  0  0  0  0  0  0  0  0  0
   39.1700   28.1610   41.2970 H   0  0  0  0  0  0  0  0  0  0  0  0
   38.0770   26.3610   41.4740 N   0  0  0  0  0  0  0  0  0  0  0  0
   37.2020   25.6070   42.1520 C   0  0  0  0  0  3  0  0  0  0  0  0
   37.2170   24.2310   41.9960 C   0  0  0  0  0  3  0  0  0  0  0  0
   38.1330   23.6390   41.1450 C   0  0  0  0  0  0  0  0  0  0  0  0
   38.1890   22.2160   40.9510 N   0  0  0  0  0  0  0  0  0  0  0  0
   39.0130   24.4320   40.4690 N   0  0  0  0  0  0  0  0  0  0  0  0
   38.9810   25.7870   40.6370 C   0  0  0  0  0  0  0  0  0  0  0  0
   39.8500   26.4010   39.9500 O   0  0  0  0  0  0  0  0  0  0  0  0
   38.7380   21.5500   41.5370 H   0  0  0  0  0  0  0  0  0  0  0  0
   37.5890   21.9310   40.1210 H   0  0  0  0  0  0  0  0  0  0  0  0
  1  2  1  0  0  0  0
  2 21  1  0  0  0  0
  2  3  2  0  0  0  0
  4  1  1  0  0  0  0
  5  8  1  6  0  0  0
  5  7  1  0  0  0  0
  5 13  1  0  0  0  0
  6 10  1  0  0  0  0
  6  5  1  0  0  0  0
  6  7  1  0  0  0  0
  7 11  1  6  0  0  0
  7  1  1  0  0  0  0
  9  6  1  0  0  0  0
 12 18  1  0  0  0  0
 12 17  1  0  0  0  0
 13 12  2  0  0  0  0
 14 13  1  0  0  0  0
 14 15  2  0  0  0  0
 15 16  1  0  0  0  0
 16 17  2  0  0  0  0
 16 20  1  0  0  0  0
 19 14  1  0  0  0  0
 21 23  1  0  0  0  0
 21 24  1  6  0  0  0
 21 22  1  0  0  0  0
 22 25  1  0  0  0  0
 22 26  1  0  0  0  0
 23 27  1  6  0  0  0
 23 22  1  0  0  0  0
 28 23  1  0  0  0  0
 28 29  1  0  0  0  0
 30 29  2  0  0  0  0
 31 30  1  0  0  0  0
 32 31  1  0  0  0  0
 32 36  1  0  0  0  0
 33 34  1  0  0  0  0
 33 31  2  0  0  0  0
 34 28  1  0  0  0  0
 35 34  2  0  0  0  0
 37 32  1  0  0  0  0
M  END
>  <minimizedAffinity>
-5.47296476

$$$$

 OpenBabel03242510203D

 37 40  0  0  1  0  0  0  0  0999 V2000
   37.1200   28.1770   39.0550 N   0  0  0  0  0  0  0  0  0  0  0  0
   37.5420   28.1800   37.7370 C   0  0  0  0  0  0  0  0  0  0  0  0
   36.9680   27.7600   36.6960 O   0  0  0  0  0  0  0  0  0  0  0  0
   37.8220   27.8680   39.7730 H   0  0  0  0  0  0  0  0  0  0  0  0
   35.6070   28.7730   40.9250 C   0  0  1  0  0  0  0  0  0  0  0  0
   35.7340   29.9450   40.1410 C   0  0  0  0  0  0  0  0  0  0  0  0
   35.8060   28.5670   39.4600 C   0  0  1  0  0  0  0  0  0  0  0  0
   34.6200   28.4200   41.3060 H   0  0  0  0  0  0  0  0  0  0  0  0
   34.8290   30.5800   39.9670 H   0  0  0  0  0  0  0  0  0  0  0  0
   36.6540   30.5460   40.0330 H   0  0  0  0  0  0  0  0  0  0  0  0
   34.9820   28.5040   38.7320 H   0  0  0  0  0  0  0  0  0  0  0  0
   37.7210   29.3330   42.3090 C   0  0  0  0  0  0  0  0  0  0  0  0
   36.7800   28.3860   41.8320 C   0  0  0  0  0  0  0  0  0  0  0  0
   36.9540   27.0740   42.1960 C   0  0  0  0  0  0  0  0  0  0  0  0
   38.0020   26.7400   42.9840 N   0  0  0  0  0  0  0  0  0  0  0  0
   38.8950   27.6460   43.4340 C   0  0  0  0  0  0  0  0  0  0  0  0
   38.7460   28.9910   43.0810 N   0  0  0  0  0  0  0  0  0  0  0  0
   37.6010   30.3620   42.0390 H   0  0  0  0  0  0  0  0  0  0  0  0
   36.2240   26.3680   41.8220 H   0  0  0  0  0  0  0  0  0  0  0  0
   39.6350   27.1640   44.0340 H   0  0  0  0  0  0  0  0  0  0  0  0
   38.8990   28.7690   37.3800 C   0  0  2  0  0  0  0  0  0  0  0  0
   40.1510   27.9870   37.8910 C   0  0  0  0  0  0  0  0  0  0  0  0
   39.7660   29.3590   38.3900 C   0  0  1  0  0  0  0  0  0  0  0  0
   39.0610   28.9750   36.2910 H   0  0  0  0  0  0  0  0  0  0  0  0
   39.9850   27.0860   38.4700 H   0  0  0  0  0  0  0  0  0  0  0  0
   41.0450   27.9650   37.2440 H   0  0  0  0  0  0  0  0  0  0  0  0
   39.6850   29.3390   39.4590 H   0  0  0  0  0  0  0  0  0  0  0  0
   40.5680   30.5030   37.9310 N   0  0  0  0  0  0  0  0  0  0  0  0
   41.7010   30.4300   37.2210 C   0  0  0  0  0  3  0  0  0  0  0  0
   42.3570   31.5930   36.8550 C   0  0  0  0  0  3  0  0  0  0  0  0
   41.8440   32.8250   37.2220 C   0  0  0  0  0  0  0  0  0  0  0  0
   42.4880   34.0590   36.8670 N   0  0  0  0  0  0  0  0  0  0  0  0
   40.6890   32.8670   37.9460 N   0  0  0  0  0  0  0  0  0  0  0  0
   40.0580   31.7090   38.2970 C   0  0  0  0  0  0  0  0  0  0  0  0
   38.9990   31.8930   38.9660 O   0  0  0  0  0  0  0  0  0  0  0  0
   43.2360   34.5290   37.4230 H   0  0  0  0  0  0  0  0  0  0  0  0
   42.0950   34.4330   35.9530 H   0  0  0  0  0  0  0  0  0  0  0  0
  1  7  1  0  0  0  0
  1  4  1  0  0  0  0
  2  1  1  0  0  0  0
  3  2  2  0  0  0  0
  5  8  1  1  0  0  0
  5 13  1  0  0  0  0
  6  5  1  0  0  0  0
  7 11  1  6  0  0  0
  7  6  1  0  0  0  0
  7  5  1  0  0  0  0
  9  6  1  0  0  0  0
 10  6  1  0  0  0  0
 12 17  1  0  0  0  0
 13 14  1  0  0  0  0
 13 12  2  0  0  0  0
 14 15  2  0  0  0  0
 15 16  1  0  0  0  0
 16 20  1  0  0  0  0
 17 16  2  0  0  0  0
 18 12  1  0  0  0  0
 19 14  1  0  0  0  0
 21 24  1  6  0  0  0
 21  2  1  0  0  0  0
 21 22  1  0  0  0  0
 21 23  1  0  0  0  0
 22 23  1  0  0  0  0
 22 25  1  0  0  0  0
 23 27  1  1  0  0  0
 26 22  1  0  0  0  0
 28 34  1  0  0  0  0
 28 23  1  0  0  0  0
 29 28  1  0  0  0  0
 30 29  2  0  0  0  0
 30 31  1  0  0  0  0
 31 33  2  0  0  0  0
 32 31  1  0  0  0  0
 32 36  1  0  0  0  0
 33 34  1  0  0  0  0
 34 35  2  0  0  0  0
 37 32  1  0  0  0  0
M  END
>  <minimizedAffinity>
-5.40309

$$$$

 OpenBabel03242510203D

 37 40  0  0  1  0  0  0  0  0999 V2000
   37.9060   26.5010   42.1150 N   0  0  0  0  0  0  0  0  0  0  0  0
   36.9930   27.3920   42.6510 C   0  0  0  0  0  0  0  0  0  0  0  0
   36.2690   27.2990   43.6780 O   0  0  0  0  0  0  0  0  0  0  0  0
   37.8620   26.3490   41.0770 H   0  0  0  0  0  0  0  0  0  0  0  0
   39.4130   24.5430   42.3060 C   0  0  1  0  0  0  0  0  0  0  0  0
   40.2580   25.6770   42.2360 C   0  0  0  0  0  0  0  0  0  0  0  0
   38.8750   25.8030   42.8990 C   0  0  1  0  0  0  0  0  0  0  0  0
   39.5810   23.7250   43.0450 H   0  0  0  0  0  0  0  0  0  0  0  0
   41.1680   25.7150   42.8860 H   0  0  0  0  0  0  0  0  0  0  0  0
   40.3900   26.3230   41.3500 H   0  0  0  0  0  0  0  0  0  0  0  0
   39.0280   26.1010   43.9490 H   0  0  0  0  0  0  0  0  0  0  0  0
   37.5400   23.3210   41.0030 C   0  0  0  0  0  0  0  0  0  0  0  0
   38.7480   24.0630   41.0120 C   0  0  0  0  0  0  0  0  0  0  0  0
   39.3370   24.3370   39.8030 C   0  0  0  0  0  0  0  0  0  0  0  0
   38.7510   23.8940   38.6670 N   0  0  0  0  0  0  0  0  0  0  0  0
   37.6010   23.1880   38.6650 C   0  0  0  0  0  0  0  0  0  0  0  0
   36.9760   22.8910   39.8800 N   0  0  0  0  0  0  0  0  0  0  0  0
   37.0640   23.0980   41.9360 H   0  0  0  0  0  0  0  0  0  0  0  0
   40.2580   24.9050   39.8320 H   0  0  0  0  0  0  0  0  0  0  0  0
   37.3230   22.9430   37.6640 H   0  0  0  0  0  0  0  0  0  0  0  0
   36.7580   28.7330   41.9690 C   0  0  2  0  0  0  0  0  0  0  0  0
   35.6970   28.7520   40.8240 C   0  0  0  0  0  0  0  0  0  0  0  0
   37.1730   28.9750   40.5950 C   0  0  1  0  0  0  0  0  0  0  0  0
   36.5170   29.5850   42.6560 H   0  0  0  0  0  0  0  0  0  0  0  0
   35.2000   27.8220   40.5760 H   0  0  0  0  0  0  0  0  0  0  0  0
   35.0710   29.6550   40.7160 H   0  0  0  0  0  0  0  0  0  0  0  0
   37.5260   28.2860   39.8540 H   0  0  0  0  0  0  0  0  0  0  0  0
   37.6210   30.3470   40.3120 N   0  0  0  0  0  0  0  0  0  0  0  0
   36.8490   31.4420   40.3270 C   0  0  0  0  0  3  0  0  0  0  0  0
   37.4060   32.6770   40.0390 C   0  0  0  0  0  3  0  0  0  0  0  0
   38.7520   32.7780   39.7360 C   0  0  0  0  0  0  0  0  0  0  0  0
   39.3760   34.0350   39.4290 N   0  0  0  0  0  0  0  0  0  0  0  0
   39.5120   31.6450   39.7270 N   0  0  0  0  0  0  0  0  0  0  0  0
   38.9440   30.4380   40.0130 C   0  0  0  0  0  0  0  0  0  0  0  0
   39.7620   29.4720   39.9700 O   0  0  0  0  0  0  0  0  0  0  0  0
   39.4250   34.4660   38.4800 H   0  0  0  0  0  0  0  0  0  0  0  0
   39.7830   34.4720   40.3090 H   0  0  0  0  0  0  0  0  0  0  0  0
  1  2  1  0  0  0  0
  1  7  1  0  0  0  0
  2  3  2  0  0  0  0
  4  1  1  0  0  0  0
  5  7  1  0  0  0  0
  5  8  1  1  0  0  0
  6  5  1  0  0  0  0
  6  9  1  0  0  0  0
  6  7  1  0  0  0  0
  7 11  1  1  0  0  0
 10  6  1  0  0  0  0
 12 13  1  0  0  0  0
 12 18  1  0  0  0  0
 13  5  1  0  0  0  0
 14 19  1  0  0  0  0
 14 13  2  0  0  0  0
 15 14  1  0  0  0  0
 16 15  2  0  0  0  0
 16 17  1  0  0  0  0
 17 12  2  0  0  0  0
 20 16  1  0  0  0  0
 21  2  1  0  0  0  0
 21 24  1  1  0  0  0
 22 21  1  0  0  0  0
 23 27  1  6  0  0  0
 23 22  1  0  0  0  0
 23 21  1  0  0  0  0
 25 22  1  0  0  0  0
 26 22  1  0  0  0  0
 28 29  1  0  0  0  0
 28 23  1  0  0  0  0
 30 29  2  0  0  0  0
 31 30  1  0  0  0  0
 32 31  1  0  0  0  0
 32 37  1  0  0  0  0
 33 31  2  0  0  0  0
 33 34  1  0  0  0  0
 34 28  1  0  0  0  0
 35 34  2  0  0  0  0
 36 32  1  0  0  0  0
M  END
>  <minimizedAffinity>
-5.28134012

$$$$

 OpenBabel03242510203D

 37 40  0  0  1  0  0  0  0  0999 V2000
   37.1730   28.5720   41.2500 N   0  0  0  0  0  0  0  0  0  0  0  0
   36.1660   28.8290   40.3360 C   0  0  0  0  0  0  0  0  0  0  0  0
   34.9220   28.9450   40.5040 O   0  0  0  0  0  0  0  0  0  0  0  0
   37.8890   27.8560   40.9720 H   0  0  0  0  0  0  0  0  0  0  0  0
   37.9840   28.4720   43.5900 C   0  0  1  0  0  0  0  0  0  0  0  0
   38.7090   29.5200   42.9720 C   0  0  0  0  0  0  0  0  0  0  0  0
   37.2690   29.2250   42.5170 C   0  0  1  0  0  0  0  0  0  0  0  0
   37.5330   28.5820   44.6030 H   0  0  0  0  0  0  0  0  0  0  0  0
   38.9060   30.4570   43.5510 H   0  0  0  0  0  0  0  0  0  0  0  0
   39.4650   29.3930   42.1760 H   0  0  0  0  0  0  0  0  0  0  0  0
   36.6640   30.1270   42.7000 H   0  0  0  0  0  0  0  0  0  0  0  0
   39.6780   26.5160   43.5220 C   0  0  0  0  0  0  0  0  0  0  0  0
   38.3840   27.0300   43.2580 C   0  0  0  0  0  0  0  0  0  0  0  0
   37.4720   26.1920   42.6660 C   0  0  0  0  0  0  0  0  0  0  0  0
   37.8400   24.9260   42.3620 N   0  0  0  0  0  0  0  0  0  0  0  0
   39.0740   24.4420   42.6150 C   0  0  0  0  0  0  0  0  0  0  0  0
   40.0260   25.2710   43.2170 N   0  0  0  0  0  0  0  0  0  0  0  0
   40.4030   27.1540   43.9850 H   0  0  0  0  0  0  0  0  0  0  0  0
   36.4910   26.6030   42.4740 H   0  0  0  0  0  0  0  0  0  0  0  0
   39.1430   23.4270   42.2930 H   0  0  0  0  0  0  0  0  0  0  0  0
   36.5130   29.0270   38.8670 C   0  0  2  0  0  0  0  0  0  0  0  0
   36.6330   30.5040   38.3760 C   0  0  0  0  0  0  0  0  0  0  0  0
   35.5460   29.5610   37.9190 C   0  0  1  0  0  0  0  0  0  0  0  0
   37.4280   28.4860   38.5130 H   0  0  0  0  0  0  0  0  0  0  0  0
   36.4580   31.2950   39.0960 H   0  0  0  0  0  0  0  0  0  0  0  0
   37.3970   30.7330   37.6130 H   0  0  0  0  0  0  0  0  0  0  0  0
   34.5880   30.0100   38.0950 H   0  0  0  0  0  0  0  0  0  0  0  0
   35.6430   29.0160   36.5560 N   0  0  0  0  0  0  0  0  0  0  0  0
   36.4110   29.5000   35.5720 C   0  0  0  0  0  3  0  0  0  0  0  0
   36.4040   28.8840   34.3310 C   0  0  0  0  0  3  0  0  0  0  0  0
   35.6070   27.7760   34.1100 C   0  0  0  0  0  0  0  0  0  0  0  0
   35.5640   27.1030   32.8420 N   0  0  0  0  0  0  0  0  0  0  0  0
   34.8340   27.3060   35.1320 N   0  0  0  0  0  0  0  0  0  0  0  0
   34.8550   27.9270   36.3480 C   0  0  0  0  0  0  0  0  0  0  0  0
   34.0940   27.3890   37.2030 O   0  0  0  0  0  0  0  0  0  0  0  0
   34.9340   27.3550   32.0490 H   0  0  0  0  0  0  0  0  0  0  0  0
   36.2690   26.3070   32.8200 H   0  0  0  0  0  0  0  0  0  0  0  0
  1  7  1  0  0  0  0
  2  3  2  0  0  0  0
  2  1  1  0  0  0  0
  4  1  1  0  0  0  0
  5  8  1  1  0  0  0
  6  9  1  0  0  0  0
  6  5  1  0  0  0  0
  7 11  1  1  0  0  0
  7  6  1  0  0  0  0
  7  5  1  0  0  0  0
 10  6  1  0  0  0  0
 12 18  1  0  0  0  0
 13 12  1  0  0  0  0
 13  5  1  0  0  0  0
 14 13  2  0  0  0  0
 15 16  2  0  0  0  0
 15 14  1  0  0  0  0
 16 17  1  0  0  0  0
 17 12  2  0  0  0  0
 19 14  1  0  0  0  0
 20 16  1  0  0  0  0
 21 24  1  6  0  0  0
 21  2  1  0  0  0  0
 22 21  1  0  0  0  0
 22 25  1  0  0  0  0
 23 27  1  1  0  0  0
 23 22  1  0  0  0  0
 23 21  1  0  0  0  0
 26 22  1  0  0  0  0
 28 23  1  0  0  0  0
 29 28  1  0  0  0  0
 30 29  2  0  0  0  0
 31 30  1  0  0  0  0
 31 33  2  0  0  0  0
 32 31  1  0  0  0  0
 33 34  1  0  0  0  0
 34 28  1  0  0  0  0
 34 35  2  0  0  0  0
 36 32  1  0  0  0  0
 37 32  1  0  0  0  0
M  END
>  <minimizedAffinity>
-5.23784447

$$$$

 OpenBabel03242510203D

 37 40  0  0  1  0  0  0  0  0999 V2000
   37.1940   26.1210   41.6760 N   0  0  0  0  0  0  0  0  0  0  0  0
   37.4830   27.2540   42.4160 C   0  0  0  0  0  0  0  0  0  0  0  0
   37.1600   27.5630   43.5950 O   0  0  0  0  0  0  0  0  0  0  0  0
   36.8830   26.2740   40.6850 H   0  0  0  0  0  0  0  0  0  0  0  0
   37.3030   23.6940   41.1880 C   0  0  1  0  0  0  0  0  0  0  0  0
   38.5600   24.0340   41.7430 C   0  0  0  0  0  0  0  0  0  0  0  0
   37.3010   24.7940   42.1960 C   0  0  1  0  0  0  0  0  0  0  0  0
   36.7430   22.7830   41.5040 H   0  0  0  0  0  0  0  0  0  0  0  0
   39.0440   23.3260   42.4620 H   0  0  0  0  0  0  0  0  0  0  0  0
   39.3210   24.6740   41.2620 H   0  0  0  0  0  0  0  0  0  0  0  0
   37.1790   24.6340   43.2790 H   0  0  0  0  0  0  0  0  0  0  0  0
   38.0570   24.4860   38.8420 C   0  0  0  0  0  0  0  0  0  0  0  0
   37.0270   24.1010   39.7360 C   0  0  0  0  0  0  0  0  0  0  0  0
   35.7370   24.1150   39.2680 C   0  0  0  0  0  0  0  0  0  0  0  0
   35.5020   24.4920   37.9900 N   0  0  0  0  0  0  0  0  0  0  0  0
   36.4860   24.8580   37.1440 C   0  0  0  0  0  0  0  0  0  0  0  0
   37.8110   24.8550   37.5890 N   0  0  0  0  0  0  0  0  0  0  0  0
   39.0710   24.4790   39.1870 H   0  0  0  0  0  0  0  0  0  0  0  0
   34.9660   23.8170   39.9670 H   0  0  0  0  0  0  0  0  0  0  0  0
   36.0750   25.1160   36.1930 H   0  0  0  0  0  0  0  0  0  0  0  0
   38.3280   28.3620   41.8020 C   0  0  2  0  0  0  0  0  0  0  0  0
   38.4960   29.6590   42.6540 C   0  0  0  0  0  0  0  0  0  0  0  0
   37.7360   29.6130   41.3500 C   0  0  1  0  0  0  0  0  0  0  0  0
   39.3510   28.0530   41.4640 H   0  0  0  0  0  0  0  0  0  0  0  0
   38.0030   29.7010   43.6180 H   0  0  0  0  0  0  0  0  0  0  0  0
   39.4650   30.1860   42.6060 H   0  0  0  0  0  0  0  0  0  0  0  0
   36.7470   29.9970   41.5010 H   0  0  0  0  0  0  0  0  0  0  0  0
   38.3720   30.2110   40.1670 N   0  0  0  0  0  0  0  0  0  0  0  0
   39.3470   29.6550   39.4360 C   0  0  0  0  0  3  0  0  0  0  0  0
   39.8560   30.3340   38.3420 C   0  0  0  0  0  3  0  0  0  0  0  0
   39.3600   31.5820   38.0070 C   0  0  0  0  0  0  0  0  0  0  0  0
   39.8550   32.3260   36.8820 N   0  0  0  0  0  0  0  0  0  0  0  0
   38.3670   32.1230   38.7710 N   0  0  0  0  0  0  0  0  0  0  0  0
   37.8800   31.4370   39.8450 C   0  0  0  0  0  0  0  0  0  0  0  0
   36.9630   32.0530   40.4640 O   0  0  0  0  0  0  0  0  0  0  0  0
   40.6710   32.9760   36.9040 H   0  0  0  0  0  0  0  0  0  0  0  0
   39.2720   32.1230   36.0170 H   0  0  0  0  0  0  0  0  0  0  0  0
  1  7  1  0  0  0  0
  1  2  1  0  0  0  0
  2  3  2  0  0  0  0
  4  1  1  0  0  0  0
  5  8  1  1  0  0  0
  5  6  1  0  0  0  0
  5  7  1  0  0  0  0
  6  7  1  0  0  0  0
  6  9  1  0  0  0  0
  7 11  1  1  0  0  0
 10  6  1  0  0  0  0
 12 18  1  0  0  0  0
 12 13  1  0  0  0  0
 13  5  1  0  0  0  0
 14 13  2  0  0  0  0
 14 19  1  0  0  0  0
 15 14  1  0  0  0  0
 16 17  1  0  0  0  0
 16 15  2  0  0  0  0
 17 12  2  0  0  0  0
 20 16  1  0  0  0  0
 21 24  1  6  0  0  0
 21  2  1  0  0  0  0
 21 22  1  0  0  0  0
 22 25  1  0  0  0  0
 23 27  1  1  0  0  0
 23 21  1  0  0  0  0
 23 22  1  0  0  0  0
 26 22  1  0  0  0  0
 28 23  1  0  0  0  0
 29 28  1  0  0  0  0
 30 29  2  0  0  0  0
 31 30  1  0  0  0  0
 31 33  2  0  0  0  0
 32 36  1  0  0  0  0
 32 31  1  0  0  0  0
 33 34  1  0  0  0  0
 34 28  1  0  0  0  0
 34 35  2  0  0  0  0
 37 32  1  0  0  0  0
M  END
>  <minimizedAffinity>
-5.20212555

$$$$
