
 OpenBabel03252503243D

 48 53  0  0  1  0  0  0  0  0999 V2000
   47.4810   32.6700   41.1290 C   0  0  0  0  0  0  0  0  0  0  0  0
   47.1970   31.7170   40.0930 C   0  0  0  0  0  0  0  0  0  0  0  0
   47.0770   30.3990   40.4490 C   0  0  0  0  0  0  0  0  0  0  0  0
   47.2370   30.0780   41.7610 N   0  0  0  0  0  0  0  0  0  0  0  0
   47.5070   30.9910   42.7280 C   0  0  0  0  0  0  0  0  0  0  0  0
   47.6270   32.2880   42.4050 N   0  0  0  0  0  0  0  0  0  0  0  0
   47.5860   33.7280   40.9040 H   0  0  0  0  0  0  0  0  0  0  0  0
   46.8650   29.6580   39.7070 H   0  0  0  0  0  0  0  0  0  0  0  0
   47.0630   32.2020   38.6870 C   0  0  1  0  0  0  0  0  0  0  0  0
   47.5920   33.5040   38.3010 C   0  0  0  0  0  0  0  0  0  0  0  0
   48.3490   32.2990   37.8790 C   0  0  2  0  0  0  0  0  0  0  0  0
   46.1980   31.7780   38.1570 H   0  0  0  0  0  0  0  0  0  0  0  0
   48.0580   34.0860   39.1540 H   0  0  0  0  0  0  0  0  0  0  0  0
   46.9660   34.1260   37.6830 H   0  0  0  0  0  0  0  0  0  0  0  0
   49.2650   31.9320   38.3580 H   0  0  0  0  0  0  0  0  0  0  0  0
   48.2070   31.8750   36.4600 C   0  0  0  0  0  0  0  0  0  0  0  0
   47.5660   30.7230   36.0560 C   0  0  0  0  0  0  0  0  0  0  0  0
   47.4710   30.3920   34.7130 C   0  0  0  0  0  0  0  0  0  0  0  0
   48.0200   31.2110   33.7560 C   0  0  0  0  0  0  0  0  0  0  0  0
   47.9380   30.9230   32.4260 N   0  0  0  0  0  0  0  0  0  0  0  0
   48.4780   31.7460   31.5140 C   0  0  0  0  0  0  0  0  0  0  0  0
   49.1570   32.9470   31.8310 C   0  0  0  0  0  0  0  0  0  0  0  0
   49.2500   33.2580   33.1680 C   0  0  0  0  0  0  0  0  0  0  0  0
   48.6830   32.3900   34.1110 C   0  0  0  0  0  0  0  0  0  0  0  0
   48.7530   32.6800   35.4600 C   0  0  0  0  0  0  0  0  0  0  0  0
   47.1400   30.0890   36.8200 H   0  0  0  0  0  0  0  0  0  0  0  0
   46.9670   29.4950   34.4450 H   0  0  0  0  0  0  0  0  0  0  0  0
   48.3890   31.4780   30.4670 H   0  0  0  0  0  0  0  0  0  0  0  0
   49.5670   33.5630   31.0430 H   0  0  0  0  0  0  0  0  0  0  0  0
   49.7560   34.1590   33.4710 H   0  0  0  0  0  0  0  0  0  0  0  0
   49.2840   33.6010   35.6560 H   0  0  0  0  0  0  0  0  0  0  0  0
   47.6560   30.5140   44.1300 C   0  0  2  0  0  0  0  0  0  0  0  0
   47.3610   29.1380   44.4990 C   0  0  0  0  0  0  0  0  0  0  0  0
   46.3110   30.1740   44.8210 C   0  0  1  0  0  0  0  0  0  0  0  0
   48.2960   31.2250   44.7160 H   0  0  0  0  0  0  0  0  0  0  0  0
   47.1600   28.4010   43.6720 H   0  0  0  0  0  0  0  0  0  0  0  0
   47.8980   28.6250   45.3260 H   0  0  0  0  0  0  0  0  0  0  0  0
   45.4240   30.1100   44.1430 H   0  0  0  0  0  0  0  0  0  0  0  0
   46.0680   30.6220   46.1480 N   0  0  0  0  0  0  0  0  0  0  0  0
   46.6910   31.7390   46.6270 C   0  0  0  0  0  0  0  0  0  0  0  0
   46.5080   32.2380   47.9020 C   0  0  0  0  0  0  0  0  0  0  0  0
   45.6450   31.5750   48.7520 C   0  0  0  0  0  0  0  0  0  0  0  0
   45.3980   32.0180   50.0820 N   0  0  0  0  0  0  0  0  0  0  0  0
   45.0270   30.4670   48.2750 N   0  0  0  0  0  0  0  0  0  0  0  0
   45.2430   30.0230   47.0200 C   0  0  0  0  0  0  0  0  0  0  0  0
   44.6200   28.9900   46.6800 O   0  0  0  0  0  0  0  0  0  0  0  0
   45.6100   33.0000   50.3650 H   0  0  0  0  0  0  0  0  0  0  0  0
   44.9930   31.3170   50.7640 H   0  0  0  0  0  0  0  0  0  0  0  0
  1  6  1  0  0  0  0
  2  3  1  0  0  0  0
  2  1  2  0  0  0  0
  3  4  2  0  0  0  0
  4  5  1  0  0  0  0
  5 32  1  0  0  0  0
  6  5  2  0  0  0  0
  7  1  1  0  0  0  0
  8  3  1  0  0  0  0
  9 12  1  6  0  0  0
  9  2  1  0  0  0  0
 10  9  1  0  0  0  0
 10 13  1  0  0  0  0
 11 10  1  0  0  0  0
 11 15  1  1  0  0  0
 11  9  1  0  0  0  0
 14 10  1  0  0  0  0
 16 11  1  0  0  0  0
 17 16  1  0  0  0  0
 17 26  1  0  0  0  0
 18 17  2  0  0  0  0
 19 24  1  0  0  0  0
 19 18  1  0  0  0  0
 20 19  2  0  0  0  0
 21 22  2  0  0  0  0
 21 20  1  0  0  0  0
 22 23  1  0  0  0  0
 23 30  1  0  0  0  0
 23 24  2  0  0  0  0
 24 25  1  0  0  0  0
 25 31  1  0  0  0  0
 25 16  2  0  0  0  0
 27 18  1  0  0  0  0
 28 21  1  0  0  0  0
 29 22  1  0  0  0  0
 32 33  1  0  0  0  0
 32 35  1  1  0  0  0
 32 34  1  0  0  0  0
 33 34  1  0  0  0  0
 33 37  1  0  0  0  0
 34 38  1  6  0  0  0
 34 39  1  0  0  0  0
 36 33  1  0  0  0  0
 39 40  1  0  0  0  0
 39 45  1  0  0  0  0
 40 41  2  0  0  0  0
 41 42  1  0  0  0  0
 42 43  1  0  0  0  0
 43 47  1  0  0  0  0
 43 48  1  0  0  0  0
 44 42  2  0  0  0  0
 45 44  1  0  0  0  0
 46 45  2  0  0  0  0
M  END
>  <minimizedAffinity>
-5.62079811

>  <minimizedRMSD>
5.09642315

$$$$
