
 OpenBabel03242511083D

 44 48  0  0  1  0  0  0  0  0999 V2000
   47.2740   32.0640   42.5180 C   0  0  0  0  0  0  0  0  0  0  0  0
   47.5610   31.3530   43.6760 C   0  0  0  0  0  0  0  0  0  0  0  0
   47.2050   31.7920   44.9500 C   0  0  0  0  0  0  0  0  0  0  0  0
   46.5330   32.9860   45.0960 C   0  0  0  0  0  0  0  0  0  0  0  0
   46.2340   33.7080   43.9910 C   0  0  0  0  0  0  0  0  0  0  0  0
   45.5580   34.9050   44.1020 C   0  0  0  0  0  0  0  0  0  0  0  0
   45.2210   35.6810   43.0250 C   0  0  0  0  0  0  0  0  0  0  0  0
   45.5960   35.2060   41.7730 C   0  0  0  0  0  0  0  0  0  0  0  0
   46.2760   34.0000   41.6640 C   0  0  0  0  0  0  0  0  0  0  0  0
   46.6060   33.2370   42.7430 C   0  0  0  0  0  0  0  0  0  0  0  0
   48.0810   30.4050   43.6800 H   0  0  0  0  0  0  0  0  0  0  0  0
   47.4370   31.2260   45.8410 H   0  0  0  0  0  0  0  0  0  0  0  0
   46.2550   33.3290   46.0860 H   0  0  0  0  0  0  0  0  0  0  0  0
   45.2940   35.2220   45.0990 H   0  0  0  0  0  0  0  0  0  0  0  0
   44.6870   36.6060   43.2350 H   0  0  0  0  0  0  0  0  0  0  0  0
   45.2840   35.8890   40.9830 H   0  0  0  0  0  0  0  0  0  0  0  0
   46.5210   33.7750   40.2890 N   0  0  0  0  0  0  0  0  0  0  0  0
   45.9070   33.1690   39.2610 C   0  0  0  0  0  3  0  0  0  0  0  0
   46.4100   33.1660   37.9830 C   0  0  0  0  0  3  0  0  0  0  0  0
   47.5960   33.7950   37.6770 C   0  0  0  0  0  0  0  0  0  0  0  0
   47.9930   33.7090   36.3200 N   0  0  0  0  0  0  0  0  0  0  0  0
   48.2590   34.4230   38.6740 N   0  0  0  0  0  0  0  0  0  0  0  0
   47.6980   34.3850   39.9180 C   0  0  0  0  0  0  0  0  0  0  0  0
   48.4790   35.0340   40.7010 O   0  0  0  0  0  0  0  0  0  0  0  0
   47.2710   34.0000   35.6190 H   0  0  0  0  0  0  0  0  0  0  0  0
   48.9710   33.3550   36.3160 H   0  0  0  0  0  0  0  0  0  0  0  0
   47.6780   31.5320   41.2870 N   0  0  0  0  0  0  0  0  0  0  0  0
   46.7830   31.7770   40.8310 H   0  0  0  0  0  0  0  0  0  0  0  0
   50.2090   31.5890   41.3900 C   0  0  1  0  0  0  0  0  0  0  0  0
   49.8160   31.3710   39.9440 C   0  0  0  0  0  0  0  0  0  0  0  0
   48.9560   30.9020   41.1100 C   0  0  2  0  0  0  0  0  0  0  0  0
   50.3130   32.6860   41.5830 H   0  0  0  0  0  0  0  0  0  0  0  0
   50.3940   30.5460   39.4510 H   0  0  0  0  0  0  0  0  0  0  0  0
   49.3980   32.1700   39.3340 H   0  0  0  0  0  0  0  0  0  0  0  0
   48.9340   29.8160   41.3650 H   0  0  0  0  0  0  0  0  0  0  0  0
   53.4470   29.7990   41.5300 C   0  0  0  0  0  0  0  0  0  0  0  0
   53.5160   29.4360   42.9110 C   0  0  0  0  0  0  0  0  0  0  0  0
   52.4470   29.8270   43.7580 C   0  0  0  0  0  0  0  0  0  0  0  0
   51.4270   30.5170   43.2400 N   0  0  0  0  0  0  0  0  0  0  0  0
   51.3910   30.8460   41.9230 C   0  0  0  0  0  0  0  0  0  0  0  0
   52.4010   30.4900   41.0640 N   0  0  0  0  0  0  0  0  0  0  0  0
   54.2640   29.4980   40.8880 H   0  0  0  0  0  0  0  0  0  0  0  0
   54.3770   28.8820   43.2320 H   0  0  0  0  0  0  0  0  0  0  0  0
   52.5160   29.5460   44.7910 H   0  0  0  0  0  0  0  0  0  0  0  0
  1 10  2  0  0  0  0
  1  2  1  0  0  0  0
  2 11  1  0  0  0  0
  2  3  2  0  0  0  0
  3  4  1  0  0  0  0
  3 12  1  0  0  0  0
  4 13  1  0  0  0  0
  5  6  1  0  0  0  0
  5  4  2  0  0  0  0
  6 14  1  0  0  0  0
  7 15  1  0  0  0  0
  7  6  2  0  0  0  0
  8  7  1  0  0  0  0
  9  8  2  0  0  0  0
  9 10  1  0  0  0  0
 10  5  1  0  0  0  0
 16  8  1  0  0  0  0
 17  9  1  0  0  0  0
 18 17  1  0  0  0  0
 19 18  2  0  0  0  0
 20 19  1  0  0  0  0
 20 22  2  0  0  0  0
 21 20  1  0  0  0  0
 22 23  1  0  0  0  0
 23 17  1  0  0  0  0
 23 24  2  0  0  0  0
 25 21  1  0  0  0  0
 26 21  1  0  0  0  0
 27  1  1  0  0  0  0
 28 27  1  0  0  0  0
 29 32  1  1  0  0  0
 29 40  1  0  0  0  0
 30 31  1  0  0  0  0
 30 29  1  0  0  0  0
 31 27  1  0  0  0  0
 31 35  1  1  0  0  0
 31 29  1  0  0  0  0
 33 30  1  0  0  0  0
 34 30  1  0  0  0  0
 36 37  1  0  0  0  0
 37 43  1  0  0  0  0
 37 38  2  0  0  0  0
 38 44  1  0  0  0  0
 39 38  1  0  0  0  0
 40 39  2  0  0  0  0
 41 36  2  0  0  0  0
 41 40  1  0  0  0  0
 42 36  1  0  0  0  0
M  END
>  <minimizedAffinity>
-5.30245066

>  <minimizedRMSD>
2.23464465

$$$$
