
 OpenBabel03252503433D

 35 37  0  0  1  0  0  0  0  0999 V2000
   45.0790   34.8070   44.9050 C   0  0  0  0  0  0  0  0  0  0  0  0
   45.8690   34.5060   43.7880 C   0  0  0  0  0  0  0  0  0  0  0  0
   46.6660   33.3500   43.8780 C   0  0  0  0  0  0  0  0  0  0  0  0
   46.6370   32.6060   44.9990 N   0  0  0  0  0  0  0  0  0  0  0  0
   45.8660   32.9270   46.0510 C   0  0  0  0  0  0  0  0  0  0  0  0
   45.0750   34.0320   46.0210 N   0  0  0  0  0  0  0  0  0  0  0  0
   44.4250   35.6680   44.9560 H   0  0  0  0  0  0  0  0  0  0  0  0
   47.2730   33.1250   43.0110 H   0  0  0  0  0  0  0  0  0  0  0  0
   47.3480   31.7540   47.6720 C   0  0  2  0  0  0  0  0  0  0  0  0
   45.9040   32.0390   47.2010 C   0  0  1  0  0  0  0  0  0  0  0  0
   45.3780   32.5470   48.3570 O   0  0  0  0  0  0  0  0  0  0  0  0
   45.7830   31.7500   49.3840 C   0  0  0  0  0  0  0  0  0  0  0  0
   46.9910   30.9570   48.9310 C   0  0  2  0  0  0  0  0  0  0  0  0
   47.9070   31.1590   46.9520 H   0  0  0  0  0  0  0  0  0  0  0  0
   45.4220   31.0630   46.9360 H   0  0  0  0  0  0  0  0  0  0  0  0
   44.9880   31.0630   49.7410 H   0  0  0  0  0  0  0  0  0  0  0  0
   46.0930   32.3630   50.2620 H   0  0  0  0  0  0  0  0  0  0  0  0
   46.6880   29.9530   48.5980 H   0  0  0  0  0  0  0  0  0  0  0  0
   47.9150   32.9100   48.0960 O   0  0  0  0  0  0  0  0  0  0  0  0
   48.0720   33.5940   47.4020 H   0  0  0  0  0  0  0  0  0  0  0  0
   48.0070   30.9240   49.8510 O   0  0  0  0  0  0  0  0  0  0  0  0
   48.8730   30.8490   49.3950 H   0  0  0  0  0  0  0  0  0  0  0  0
   45.7910   35.4090   42.6410 C   0  0  0  0  0  0  0  0  0  0  0  0
   46.8010   35.3850   42.1340 H   0  0  0  0  0  0  0  0  0  0  0  0
   45.6970   36.4620   42.9760 H   0  0  0  0  0  0  0  0  0  0  0  0
   44.7400   35.0940   41.6970 N   0  0  0  0  0  0  0  0  0  0  0  0
   43.5070   35.6020   41.8880 C   0  0  0  0  0  3  0  0  0  0  0  0
   42.5040   35.2890   40.9710 C   0  0  0  0  0  3  0  0  0  0  0  0
   42.8630   34.4700   39.9210 C   0  0  0  0  0  0  0  0  0  0  0  0
   41.8760   34.1210   38.9570 N   0  0  0  0  0  0  0  0  0  0  0  0
   44.1160   33.9770   39.7610 N   0  0  0  0  0  0  0  0  0  0  0  0
   45.0670   34.2930   40.6610 C   0  0  0  0  0  0  0  0  0  0  0  0
   46.1910   33.8130   40.4620 O   0  0  0  0  0  0  0  0  0  0  0  0
   42.1370   34.6840   38.0960 H   0  0  0  0  0  0  0  0  0  0  0  0
   41.0300   33.5630   38.7510 H   0  0  0  0  0  0  0  0  0  0  0  0
  1  7  1  0  0  0  0
  1  6  1  0  0  0  0
  2  3  1  0  0  0  0
  2  1  2  0  0  0  0
  3  4  2  0  0  0  0
  4  5  1  0  0  0  0
  5 10  1  0  0  0  0
  6  5  2  0  0  0  0
  8  3  1  0  0  0  0
  9 14  1  6  0  0  0
  9 19  1  0  0  0  0
  9 13  1  0  0  0  0
 10 15  1  6  0  0  0
 10  9  1  0  0  0  0
 10 11  1  0  0  0  0
 11 12  1  0  0  0  0
 12 16  1  0  0  0  0
 12 17  1  0  0  0  0
 13 18  1  6  0  0  0
 13 12  1  0  0  0  0
 13 21  1  0  0  0  0
 20 19  1  0  0  0  0
 22 21  1  0  0  0  0
 23 25  1  0  0  0  0
 23  2  1  0  0  0  0
 24 23  1  0  0  0  0
 26 27  1  0  0  0  0
 26 23  1  0  0  0  0
 28 27  2  0  0  0  0
 29 28  1  0  0  0  0
 30 29  1  0  0  0  0
 31 29  2  0  0  0  0
 31 32  1  0  0  0  0
 32 26  1  0  0  0  0
 33 32  2  0  0  0  0
 34 30  1  0  0  0  0
 35 30  1  0  0  0  0
M  END
>  <minimizedAffinity>
-6.26023245

>  <minimizedRMSD>
0.980808556

$$$$
