
 OpenBabel03242511333D

 36 38  0  0  1  0  0  0  0  0999 V2000
   47.9880   32.1300   42.1340 C   0  0  0  0  0  3  0  0  0  0  0  0
   48.0780   33.2580   42.8110 C   0  0  0  0  0  3  0  0  0  0  0  0
   48.7990   31.9620   40.9340 C   0  0  0  0  0  0  0  0  0  0  0  0
   50.1850   31.7950   41.1080 C   0  0  0  0  0  0  0  0  0  0  0  0
   50.9920   31.6320   39.9800 C   0  0  0  0  0  0  0  0  0  0  0  0
   50.3970   31.6420   38.7580 N   0  0  0  0  0  0  0  0  0  0  0  0
   49.0690   31.8030   38.6240 C   0  0  0  0  0  0  0  0  0  0  0  0
   48.2950   31.9600   39.7070 N   0  0  0  0  0  0  0  0  0  0  0  0
   50.6370   31.7910   42.1010 H   0  0  0  0  0  0  0  0  0  0  0  0
   52.0490   31.5060   40.1350 H   0  0  0  0  0  0  0  0  0  0  0  0
   48.5310   31.8020   37.3060 N   0  0  0  0  0  0  0  0  0  0  0  0
   47.9150   30.7040   36.8270 C   0  0  0  0  0  3  0  0  0  0  0  0
   47.4070   30.7590   35.5250 C   0  0  0  0  0  3  0  0  0  0  0  0
   47.5860   31.9410   34.8550 C   0  0  0  0  0  0  0  0  0  0  0  0
   47.0640   31.9790   33.5360 N   0  0  0  0  0  0  0  0  0  0  0  0
   48.2070   33.0290   35.3530 N   0  0  0  0  0  0  0  0  0  0  0  0
   48.6910   32.9580   36.6100 C   0  0  0  0  0  0  0  0  0  0  0  0
   49.2750   33.9540   37.1050 O   0  0  0  0  0  0  0  0  0  0  0  0
   47.1630   32.2130   32.5380 H   0  0  0  0  0  0  0  0  0  0  0  0
   46.1080   31.6430   33.2170 H   0  0  0  0  0  0  0  0  0  0  0  0
   47.2900   33.4960   44.0310 C   0  0  0  0  0  0  0  0  0  0  0  0
   47.8050   34.2160   44.6930 H   0  0  0  0  0  0  0  0  0  0  0  0
   47.1510   32.5130   44.5390 H   0  0  0  0  0  0  0  0  0  0  0  0
   44.6750   35.9630   43.6720 C   0  0  1  0  0  0  0  0  0  0  0  0
   45.8630   35.2890   42.9810 C   0  0  0  0  0  0  0  0  0  0  0  0
   45.8820   33.9860   43.7000 C   0  0  2  0  0  0  0  0  0  0  0  0
   45.0680   34.0450   44.7890 O   0  0  0  0  0  0  0  0  0  0  0  0
   44.7810   35.3720   45.0570 C   0  0  0  0  0  0  0  0  0  0  0  0
   43.7210   35.6960   43.2070 H   0  0  0  0  0  0  0  0  0  0  0  0
   46.7410   35.9270   43.1550 H   0  0  0  0  0  0  0  0  0  0  0  0
   45.6000   35.1970   41.8870 H   0  0  0  0  0  0  0  0  0  0  0  0
   45.4460   33.2070   43.0100 H   0  0  0  0  0  0  0  0  0  0  0  0
   43.8430   35.4290   45.6390 H   0  0  0  0  0  0  0  0  0  0  0  0
   45.5580   35.8690   45.6570 H   0  0  0  0  0  0  0  0  0  0  0  0
   44.8430   37.3420   43.6630 O   0  0  0  0  0  0  0  0  0  0  0  0
   45.3950   37.6830   44.4090 H   0  0  0  0  0  0  0  0  0  0  0  0
  1  2  2  0  0  0  0
  2 21  1  0  0  0  0
  3  4  1  0  0  0  0
  3  1  1  0  0  0  0
  4  9  1  0  0  0  0
  5 10  1  0  0  0  0
  5  4  2  0  0  0  0
  6  5  1  0  0  0  0
  7  6  2  0  0  0  0
  7  8  1  0  0  0  0
  8  3  2  0  0  0  0
 11  7  1  0  0  0  0
 12 11  1  0  0  0  0
 13 12  2  0  0  0  0
 14 16  2  0  0  0  0
 14 13  1  0  0  0  0
 15 14  1  0  0  0  0
 16 17  1  0  0  0  0
 17 18  2  0  0  0  0
 17 11  1  0  0  0  0
 19 15  1  0  0  0  0
 20 15  1  0  0  0  0
 21 23  1  0  0  0  0
 21 22  1  0  0  0  0
 24 29  1  6  0  0  0
 24 28  1  0  0  0  0
 25 30  1  0  0  0  0
 25 24  1  0  0  0  0
 25 26  1  0  0  0  0
 26 32  1  6  0  0  0
 26 21  1  0  0  0  0
 26 27  1  0  0  0  0
 27 28  1  0  0  0  0
 28 33  1  0  0  0  0
 28 34  1  0  0  0  0
 31 25  1  0  0  0  0
 35 24  1  0  0  0  0
 35 36  1  0  0  0  0
M  END
>  <minimizedAffinity>
-5.36699867

>  <minimizedRMSD>
0.968510151

$$$$
