
 OpenBabel03252508263D

 42 46  0  0  1  0  0  0  0  0999 V2000
   46.4820   31.1650   45.1060 C   0  0  1  0  0  0  0  0  0  0  0  0
   47.1980   31.1670   46.3910 C   0  0  0  0  0  0  0  0  0  0  0  0
   45.6560   30.8630   46.2540 C   0  0  2  0  0  0  0  0  0  0  0  0
   47.0460   30.4020   44.4570 H   0  0  0  0  0  0  0  0  0  0  0  0
   47.7140   30.2890   46.8140 H   0  0  0  0  0  0  0  0  0  0  0  0
   47.4500   32.0930   46.9280 H   0  0  0  0  0  0  0  0  0  0  0  0
   45.1710   31.6600   46.9110 H   0  0  0  0  0  0  0  0  0  0  0  0
   45.1460   29.5380   46.6210 C   0  0  0  0  0  0  0  0  0  0  0  0
   45.3740   28.8440   47.7650 C   0  0  0  0  0  0  0  0  0  0  0  0
   44.9580   27.5520   48.0230 C   0  0  0  0  0  0  0  0  0  0  0  0
   44.2370   26.9100   47.0040 C   0  0  0  0  0  0  0  0  0  0  0  0
   43.9850   27.5990   45.8180 C   0  0  0  0  0  0  0  0  0  0  0  0
   43.2200   26.9530   44.8670 C   0  0  0  0  0  0  0  0  0  0  0  0
   42.8840   27.6220   43.7000 C   0  0  0  0  0  0  0  0  0  0  0  0
   43.3040   28.9180   43.4890 C   0  0  0  0  0  0  0  0  0  0  0  0
   44.0640   29.5130   44.4680 C   0  0  0  0  0  0  0  0  0  0  0  0
   44.4330   28.8870   45.6450 C   0  0  0  0  0  0  0  0  0  0  0  0
   45.9390   29.3840   48.5240 H   0  0  0  0  0  0  0  0  0  0  0  0
   45.1730   27.0550   48.9600 H   0  0  0  0  0  0  0  0  0  0  0  0
   43.8920   25.8950   47.1600 H   0  0  0  0  0  0  0  0  0  0  0  0
   42.9010   25.9350   45.0560 H   0  0  0  0  0  0  0  0  0  0  0  0
   42.2770   27.0120   43.0130 H   0  0  0  0  0  0  0  0  0  0  0  0
   42.9450   29.2700   42.5370 H   0  0  0  0  0  0  0  0  0  0  0  0
   44.1820   30.4990   44.1230 H   0  0  0  0  0  0  0  0  0  0  0  0
   45.3840   34.5950   44.2930 C   0  0  0  0  0  0  0  0  0  0  0  0
   45.7680   34.7180   42.9150 C   0  0  0  0  0  0  0  0  0  0  0  0
   46.4170   33.6000   42.3000 C   0  0  0  0  0  0  0  0  0  0  0  0
   46.6440   32.4820   43.0280 N   0  0  0  0  0  0  0  0  0  0  0  0
   46.2460   32.4310   44.3490 C   0  0  0  0  0  0  0  0  0  0  0  0
   45.6420   33.4510   44.9540 N   0  0  0  0  0  0  0  0  0  0  0  0
   44.8980   35.4090   44.7810 H   0  0  0  0  0  0  0  0  0  0  0  0
   45.5630   35.6310   42.3820 H   0  0  0  0  0  0  0  0  0  0  0  0
   46.8030   33.7070   40.9360 N   0  0  0  0  0  0  0  0  0  0  0  0
   47.9220   34.2980   40.5430 C   0  0  0  0  0  3  0  0  0  0  0  0
   48.2020   34.3480   39.1910 C   0  0  0  0  0  3  0  0  0  0  0  0
   47.3350   33.7900   38.2600 C   0  0  0  0  0  0  0  0  0  0  0  0
   47.5110   33.7770   36.8530 N   0  0  0  0  0  0  0  0  0  0  0  0
   46.2110   33.2000   38.7080 N   0  0  0  0  0  0  0  0  0  0  0  0
   45.9500   33.1590   40.0280 C   0  0  0  0  0  0  0  0  0  0  0  0
   44.8890   32.5990   40.4090 O   0  0  0  0  0  0  0  0  0  0  0  0
   47.9510   33.1320   36.1500 H   0  0  0  0  0  0  0  0  0  0  0  0
   47.0550   34.6730   36.5300 H   0  0  0  0  0  0  0  0  0  0  0  0
  1  4  1  6  0  0  0
  1  3  1  0  0  0  0
  1  2  1  0  0  0  0
  2  5  1  0  0  0  0
  2  6  1  0  0  0  0
  3  2  1  0  0  0  0
  3  8  1  0  0  0  0
  3  7  1  1  0  0  0
  8  9  1  0  0  0  0
  9 10  2  0  0  0  0
  9 18  1  0  0  0  0
 10 19  1  0  0  0  0
 11 20  1  0  0  0  0
 11 10  1  0  0  0  0
 12 11  2  0  0  0  0
 13 21  1  0  0  0  0
 13 12  1  0  0  0  0
 14 13  2  0  0  0  0
 15 14  1  0  0  0  0
 15 16  2  0  0  0  0
 16 17  1  0  0  0  0
 17 12  1  0  0  0  0
 17  8  2  0  0  0  0
 22 14  1  0  0  0  0
 23 15  1  0  0  0  0
 24 16  1  0  0  0  0
 25 31  1  0  0  0  0
 25 30  1  0  0  0  0
 26 25  2  0  0  0  0
 27 26  1  0  0  0  0
 27 28  2  0  0  0  0
 28 29  1  0  0  0  0
 29 30  2  0  0  0  0
 29  1  1  0  0  0  0
 32 26  1  0  0  0  0
 33 27  1  0  0  0  0
 34 33  1  0  0  0  0
 35 34  2  0  0  0  0
 36 38  2  0  0  0  0
 36 35  1  0  0  0  0
 37 36  1  0  0  0  0
 38 39  1  0  0  0  0
 39 40  2  0  0  0  0
 39 33  1  0  0  0  0
 41 37  1  0  0  0  0
 42 37  1  0  0  0  0
M  END
>  <minimizedAffinity>
-5.23832512

>  <minimizedRMSD>
1.88441181

$$$$
