
 OpenBabel03252506283D

 48 52  0  0  0  0  0  0  0  0999 V2000
   46.3660   32.8390   46.1060 C   0  0  0  0  0  0  0  0  0  0  0  0
   47.3920   31.8910   45.8570 C   0  0  0  0  0  0  0  0  0  0  0  0
   47.5000   31.0860   46.9340 C   0  0  0  0  0  0  0  0  0  0  0  0
   46.5870   31.5080   47.8150 N   0  0  0  0  0  0  0  0  0  0  0  0
   45.9080   32.5540   47.3260 N   0  0  0  0  0  0  0  0  0  0  0  0
   47.9710   31.8580   44.9310 H   0  0  0  0  0  0  0  0  0  0  0  0
   48.1880   30.2600   47.0650 H   0  0  0  0  0  0  0  0  0  0  0  0
   44.6040   35.6810   44.6550 C   0  0  0  0  0  0  0  0  0  0  0  0
   45.1850   35.8370   43.4100 C   0  0  0  0  0  0  0  0  0  0  0  0
   46.2000   34.9470   43.0710 C   0  0  0  0  0  0  0  0  0  0  0  0
   46.5510   33.9930   43.9720 N   0  0  0  0  0  0  0  0  0  0  0  0
   45.9750   33.8650   45.1610 C   0  0  0  0  0  0  0  0  0  0  0  0
   44.9910   34.7220   45.5000 N   0  0  0  0  0  0  0  0  0  0  0  0
   43.8210   36.4030   44.8580 H   0  0  0  0  0  0  0  0  0  0  0  0
   44.9780   36.5520   42.6410 H   0  0  0  0  0  0  0  0  0  0  0  0
   46.9640   34.8870   41.8560 N   0  0  0  0  0  0  0  0  0  0  0  0
   48.1610   35.4710   41.6700 C   0  0  0  0  0  3  0  0  0  0  0  0
   48.8050   35.3390   40.4400 C   0  0  0  0  0  3  0  0  0  0  0  0
   48.1660   34.6040   39.4640 C   0  0  0  0  0  0  0  0  0  0  0  0
   48.8340   34.4770   38.2100 N   0  0  0  0  0  0  0  0  0  0  0  0
   46.9670   34.0380   39.6950 N   0  0  0  0  0  0  0  0  0  0  0  0
   46.3420   34.1720   40.9010 C   0  0  0  0  0  0  0  0  0  0  0  0
   45.2240   33.6100   41.0290 O   0  0  0  0  0  0  0  0  0  0  0  0
   48.7970   34.8450   37.2200 H   0  0  0  0  0  0  0  0  0  0  0  0
   49.6170   33.7780   38.3630 H   0  0  0  0  0  0  0  0  0  0  0  0
   46.3490   30.9270   49.1270 C   0  0  0  0  0  0  0  0  0  0  0  0
   47.1580   30.2530   49.4020 H   0  0  0  0  0  0  0  0  0  0  0  0
   46.2820   31.7330   49.9020 H   0  0  0  0  0  0  0  0  0  0  0  0
   45.0460   30.1990   49.1430 C   0  0  0  0  0  0  0  0  0  0  0  0
   44.2380   30.9580   49.0950 H   0  0  0  0  0  0  0  0  0  0  0  0
   44.9380   29.7180   50.1580 H   0  0  0  0  0  0  0  0  0  0  0  0
   45.2050   27.8160   48.2100 C   0  0  0  0  0  0  0  0  0  0  0  0
   44.8640   29.1540   48.1550 C   0  0  0  0  0  0  0  0  0  0  0  0
   44.2480   29.5770   46.9730 C   0  0  0  0  0  0  0  0  0  0  0  0
   44.0010   28.7190   45.9410 C   0  0  0  0  0  0  0  0  0  0  0  0
   43.4380   28.8350   44.7160 N   0  0  0  0  0  0  0  0  0  0  0  0
   43.4330   27.6680   44.0710 C   0  0  0  0  0  0  0  0  0  0  0  0
   44.0140   26.7080   44.8780 C   0  0  0  0  0  0  0  0  0  0  0  0
   44.3470   27.3910   46.0130 C   0  0  0  0  0  0  0  0  0  0  0  0
   44.9540   26.9590   47.1680 C   0  0  0  0  0  0  0  0  0  0  0  0
   45.6800   27.5300   49.1420 H   0  0  0  0  0  0  0  0  0  0  0  0
   43.9280   30.6010   46.7990 H   0  0  0  0  0  0  0  0  0  0  0  0
   43.0610   29.7370   44.3420 H   0  0  0  0  0  0  0  0  0  0  0  0
   43.0250   27.5450   43.0680 H   0  0  0  0  0  0  0  0  0  0  0  0
   44.1310   25.6740   44.5840 H   0  0  0  0  0  0  0  0  0  0  0  0
   45.3460   25.5590   47.3020 C   0  0  0  0  0  0  0  0  0  0  0  0
   44.8330   24.8180   48.1870 O   0  0  0  0  0  0  0  0  0  0  0  0
   46.0870   25.1040   46.6520 H   0  0  0  0  0  0  0  0  0  0  0  0
  1  5  2  0  0  0  0
  2  1  1  0  0  0  0
  2  3  2  0  0  0  0
  3  7  1  0  0  0  0
  3  4  1  0  0  0  0
  4 26  1  0  0  0  0
  5  4  1  0  0  0  0
  6  2  1  0  0  0  0
  8 14  1  0  0  0  0
  8 13  1  0  0  0  0
  9  8  2  0  0  0  0
 10  9  1  0  0  0  0
 10 11  2  0  0  0  0
 11 12  1  0  0  0  0
 12 13  2  0  0  0  0
 12  1  1  0  0  0  0
 15  9  1  0  0  0  0
 16 10  1  0  0  0  0
 17 16  1  0  0  0  0
 18 17  2  0  0  0  0
 19 21  2  0  0  0  0
 19 18  1  0  0  0  0
 20 25  1  0  0  0  0
 20 19  1  0  0  0  0
 21 22  1  0  0  0  0
 22 23  2  0  0  0  0
 22 16  1  0  0  0  0
 24 20  1  0  0  0  0
 26 29  1  0  0  0  0
 26 27  1  0  0  0  0
 26 28  1  0  0  0  0
 29 31  1  0  0  0  0
 30 29  1  0  0  0  0
 32 41  1  0  0  0  0
 33 32  1  0  0  0  0
 33 29  1  0  0  0  0
 34 33  2  0  0  0  0
 35 39  2  0  0  0  0
 35 34  1  0  0  0  0
 36 35  1  0  0  0  0
 37 36  1  0  0  0  0
 37 38  2  0  0  0  0
 38 39  1  0  0  0  0
 39 40  1  0  0  0  0
 40 46  1  0  0  0  0
 40 32  2  0  0  0  0
 42 34  1  0  0  0  0
 43 36  1  0  0  0  0
 44 37  1  0  0  0  0
 45 38  1  0  0  0  0
 46 47  2  0  0  0  0
 48 46  1  0  0  0  0
M  END
>  <minimizedAffinity>
-6.53295565

>  <minimizedRMSD>
1.01383042

$$$$
