
 OpenBabel03242511333D

 36 38  0  0  1  0  0  0  0  0999 V2000
   48.9040   33.2560   42.6060 C   0  0  0  0  0  3  0  0  0  0  0  0
   47.7080   32.8850   43.0180 C   0  0  0  0  0  3  0  0  0  0  0  0
   49.4270   32.6970   41.3650 C   0  0  0  0  0  0  0  0  0  0  0  0
   50.6820   32.0650   41.4180 C   0  0  0  0  0  0  0  0  0  0  0  0
   51.2130   31.5180   40.2480 C   0  0  0  0  0  0  0  0  0  0  0  0
   50.4870   31.6230   39.1040 N   0  0  0  0  0  0  0  0  0  0  0  0
   49.2890   32.2340   39.0850 C   0  0  0  0  0  0  0  0  0  0  0  0
   48.7800   32.7590   40.2080 N   0  0  0  0  0  0  0  0  0  0  0  0
   51.2440   31.9950   42.3510 H   0  0  0  0  0  0  0  0  0  0  0  0
   52.1740   31.0390   40.3110 H   0  0  0  0  0  0  0  0  0  0  0  0
   48.5980   32.2980   37.8410 N   0  0  0  0  0  0  0  0  0  0  0  0
   49.2380   32.7060   36.7290 C   0  0  0  0  0  3  0  0  0  0  0  0
   48.5090   32.7480   35.5360 C   0  0  0  0  0  3  0  0  0  0  0  0
   47.1950   32.3650   35.6170 C   0  0  0  0  0  0  0  0  0  0  0  0
   46.4710   32.4140   34.3980 N   0  0  0  0  0  0  0  0  0  0  0  0
   46.5710   31.9590   36.7410 N   0  0  0  0  0  0  0  0  0  0  0  0
   47.2910   31.9250   37.8820 C   0  0  0  0  0  0  0  0  0  0  0  0
   46.7410   31.5520   38.9490 O   0  0  0  0  0  0  0  0  0  0  0  0
   45.6300   32.6730   33.8630 H   0  0  0  0  0  0  0  0  0  0  0  0
   46.7900   32.0540   33.4500 H   0  0  0  0  0  0  0  0  0  0  0  0
   47.1180   33.4080   44.2610 C   0  0  0  0  0  0  0  0  0  0  0  0
   47.7570   34.2010   44.6920 H   0  0  0  0  0  0  0  0  0  0  0  0
   47.0090   32.5530   44.9680 H   0  0  0  0  0  0  0  0  0  0  0  0
   44.5480   35.9390   44.0420 C   0  0  1  0  0  0  0  0  0  0  0  0
   45.6570   35.2130   43.2780 C   0  0  0  0  0  0  0  0  0  0  0  0
   45.7010   33.9300   44.0300 C   0  0  2  0  0  0  0  0  0  0  0  0
   44.9800   34.0410   45.1790 O   0  0  0  0  0  0  0  0  0  0  0  0
   44.7510   35.3820   45.4310 C   0  0  0  0  0  0  0  0  0  0  0  0
   43.5520   35.6860   43.6630 H   0  0  0  0  0  0  0  0  0  0  0  0
   46.5630   35.8290   43.3610 H   0  0  0  0  0  0  0  0  0  0  0  0
   45.3040   35.0980   42.2110 H   0  0  0  0  0  0  0  0  0  0  0  0
   45.1900   33.1450   43.4010 H   0  0  0  0  0  0  0  0  0  0  0  0
   43.8650   35.4820   46.0840 H   0  0  0  0  0  0  0  0  0  0  0  0
   45.5870   35.8730   45.9500 H   0  0  0  0  0  0  0  0  0  0  0  0
   44.7510   37.3110   43.9780 O   0  0  0  0  0  0  0  0  0  0  0  0
   45.3700   37.6560   44.6670 H   0  0  0  0  0  0  0  0  0  0  0  0
  1  2  2  0  0  0  0
  2 21  1  0  0  0  0
  3  4  1  0  0  0  0
  3  1  1  0  0  0  0
  4  9  1  0  0  0  0
  5 10  1  0  0  0  0
  5  4  2  0  0  0  0
  6  5  1  0  0  0  0
  7  6  2  0  0  0  0
  7  8  1  0  0  0  0
  8  3  2  0  0  0  0
 11 17  1  0  0  0  0
 11  7  1  0  0  0  0
 12 11  1  0  0  0  0
 13 14  1  0  0  0  0
 13 12  2  0  0  0  0
 14 16  2  0  0  0  0
 15 14  1  0  0  0  0
 16 17  1  0  0  0  0
 17 18  2  0  0  0  0
 19 15  1  0  0  0  0
 20 15  1  0  0  0  0
 21 22  1  0  0  0  0
 21 23  1  0  0  0  0
 24 29  1  6  0  0  0
 24 28  1  0  0  0  0
 25 30  1  0  0  0  0
 25 26  1  0  0  0  0
 25 24  1  0  0  0  0
 26 32  1  6  0  0  0
 26 21  1  0  0  0  0
 26 27  1  0  0  0  0
 27 28  1  0  0  0  0
 28 34  1  0  0  0  0
 28 33  1  0  0  0  0
 31 25  1  0  0  0  0
 35 24  1  0  0  0  0
 35 36  1  0  0  0  0
M  END
>  <minimizedAffinity>
-5.545228

>  <minimizedRMSD>
1.11716378

$$$$
