
 OpenBabel03252500573D

 39 41  0  0  0  0  0  0  0  0999 V2000
   43.7220   34.5270   40.1040 O   0  0  0  0  0  0  0  0  0  0  0  0
   43.2950   34.4610   41.5640 P   0  0  1  0  0  0  0  0  0  0  0  0
   43.2050   32.8250   42.0250 O   0  0  0  0  0  0  0  0  0  0  0  0
   43.1330   32.7860   43.0010 H   0  0  0  0  0  0  0  0  0  0  0  0
   44.4820   35.1970   42.5370 O   0  0  0  0  0  0  0  0  0  0  0  0
   46.6200   34.2860   42.8950 C   0  0  0  0  0  0  0  0  0  0  0  0
   45.3650   34.5580   43.3960 C   0  0  0  0  0  0  0  0  0  0  0  0
   45.0780   34.1770   44.7120 C   0  0  0  0  0  0  0  0  0  0  0  0
   46.0500   33.5650   45.4120 N   0  0  0  0  0  0  0  0  0  0  0  0
   47.2630   33.3080   44.9120 C   0  0  0  0  0  0  0  0  0  0  0  0
   47.5380   33.6720   43.6570 N   0  0  0  0  0  0  0  0  0  0  0  0
   44.1040   34.3990   45.0740 H   0  0  0  0  0  0  0  0  0  0  0  0
   48.0600   32.8150   45.4620 H   0  0  0  0  0  0  0  0  0  0  0  0
   46.9820   34.6600   41.5270 C   0  0  0  0  0  0  0  0  0  0  0  0
   46.2410   35.3810   41.1190 H   0  0  0  0  0  0  0  0  0  0  0  0
   47.0030   33.7790   40.8550 H   0  0  0  0  0  0  0  0  0  0  0  0
   48.3420   35.3030   41.5430 C   0  0  0  0  0  0  0  0  0  0  0  0
   49.1100   34.5380   41.6530 H   0  0  0  0  0  0  0  0  0  0  0  0
   48.3620   36.0400   42.3700 H   0  0  0  0  0  0  0  0  0  0  0  0
   48.4860   35.8080   40.5560 H   0  0  0  0  0  0  0  0  0  0  0  0
   41.7580   35.1340   41.7760 O   0  0  0  0  0  0  0  0  0  0  0  0
   40.6920   34.5580   41.1020 C   0  0  0  0  0  0  0  0  0  0  0  0
   39.9240   35.3620   40.2800 C   0  0  0  0  0  0  0  0  0  0  0  0
   38.8380   34.8670   39.5680 C   0  0  0  0  0  0  0  0  0  0  0  0
   38.5380   33.5370   39.6970 N   0  0  0  0  0  0  0  0  0  0  0  0
   39.2850   32.7730   40.4910 C   0  0  0  0  0  0  0  0  0  0  0  0
   40.3240   33.2560   41.1700 N   0  0  0  0  0  0  0  0  0  0  0  0
   40.1750   36.3960   40.1920 H   0  0  0  0  0  0  0  0  0  0  0  0
   38.2560   35.5360   38.9280 H   0  0  0  0  0  0  0  0  0  0  0  0
   38.9150   31.4000   40.5780 N   0  0  0  0  0  0  0  0  0  0  0  0
   38.3020   30.9240   41.6930 C   0  0  0  0  0  3  0  0  0  0  0  0
   37.9870   29.5800   41.6730 C   0  0  0  0  0  3  0  0  0  0  0  0
   38.2450   28.7150   40.6280 C   0  0  0  0  0  0  0  0  0  0  0  0
   37.8920   27.3390   40.6750 N   0  0  0  0  0  0  0  0  0  0  0  0
   38.8540   29.2760   39.5680 N   0  0  0  0  0  0  0  0  0  0  0  0
   39.1830   30.5930   39.5420 C   0  0  0  0  0  0  0  0  0  0  0  0
   39.7510   31.0450   38.5170 O   0  0  0  0  0  0  0  0  0  0  0  0
   37.4690   26.9850   41.5560 H   0  0  0  0  0  0  0  0  0  0  0  0
   38.0850   26.7730   39.8150 H   0  0  0  0  0  0  0  0  0  0  0  0
  2  1  2  6  0  0  0
  2 21  1  0  0  0  0
  2  3  1  0  0  0  0
  2  5  1  0  0  0  0
  3  4  1  0  0  0  0
  5  7  1  0  0  0  0
  6  7  2  0  0  0  0
  6 11  1  0  0  0  0
  7  8  1  0  0  0  0
  8 12  1  0  0  0  0
  8  9  2  0  0  0  0
 10  9  1  0  0  0  0
 10 13  1  0  0  0  0
 11 10  2  0  0  0  0
 14 17  1  0  0  0  0
 14  6  1  0  0  0  0
 15 14  1  0  0  0  0
 16 14  1  0  0  0  0
 17 18  1  0  0  0  0
 17 19  1  0  0  0  0
 20 17  1  0  0  0  0
 22 27  1  0  0  0  0
 22 21  1  0  0  0  0
 23 22  2  0  0  0  0
 24 25  2  0  0  0  0
 24 23  1  0  0  0  0
 25 26  1  0  0  0  0
 26 30  1  0  0  0  0
 26 27  2  0  0  0  0
 28 23  1  0  0  0  0
 29 24  1  0  0  0  0
 30 31  1  0  0  0  0
 32 31  2  0  0  0  0
 33 34  1  0  0  0  0
 33 32  1  0  0  0  0
 34 38  1  0  0  0  0
 35 33  2  0  0  0  0
 36 35  1  0  0  0  0
 36 30  1  0  0  0  0
 37 36  2  0  0  0  0
 39 34  1  0  0  0  0
M  END
>  <minimizedAffinity>
-5.53681326

>  <minimizedRMSD>
1.02052915

$$$$
