
 OpenBabel03252509173D

 35 37  0  0  1  0  0  0  0  0999 V2000
   51.3330   28.4400   43.7610 C   0  0  1  0  0  0  0  0  0  0  0  0
   51.2000   28.3190   45.2400 C   0  0  0  0  0  0  0  0  0  0  0  0
   50.6830   27.0000   45.7200 C   0  0  0  0  0  0  0  0  0  0  0  0
   51.3020   25.8240   45.0000 C   0  0  0  0  0  0  0  0  0  0  0  0
   51.3760   26.0300   43.5060 C   0  0  0  0  0  0  0  0  0  0  0  0
   50.5530   27.2670   43.1200 C   0  0  2  0  0  0  0  0  0  0  0  0
   52.3750   28.2560   43.4640 H   0  0  0  0  0  0  0  0  0  0  0  0
   50.4620   29.0910   45.5950 H   0  0  0  0  0  0  0  0  0  0  0  0
   52.1390   28.5350   45.8070 H   0  0  0  0  0  0  0  0  0  0  0  0
   49.5860   26.9500   45.5030 H   0  0  0  0  0  0  0  0  0  0  0  0
   50.8730   26.8730   46.7850 H   0  0  0  0  0  0  0  0  0  0  0  0
   50.6830   24.9450   45.2690 H   0  0  0  0  0  0  0  0  0  0  0  0
   52.3090   25.6320   45.3740 H   0  0  0  0  0  0  0  0  0  0  0  0
   52.4060   26.2510   43.1910 H   0  0  0  0  0  0  0  0  0  0  0  0
   50.9320   25.1820   42.9580 H   0  0  0  0  0  0  0  0  0  0  0  0
   49.5250   27.2130   43.4780 H   0  0  0  0  0  0  0  0  0  0  0  0
   49.4540   31.9030   42.6200 C   0  0  0  0  0  0  0  0  0  0  0  0
   50.8070   31.8810   42.2470 C   0  0  0  0  0  0  0  0  0  0  0  0
   51.5250   30.7880   42.5670 C   0  0  0  0  0  0  0  0  0  0  0  0
   50.9240   29.7140   43.2520 C   0  0  0  0  0  0  0  0  0  0  0  0
   49.2060   30.2920   43.4620 S   0  0  0  0  0  0  0  0  0  0  0  0
   51.2680   32.7030   41.7220 H   0  0  0  0  0  0  0  0  0  0  0  0
   52.5660   30.5850   42.3670 H   0  0  0  0  0  0  0  0  0  0  0  0
   47.5120   34.6980   41.1150 C   0  0  0  0  0  0  0  0  0  0  0  0
   46.6940   35.0440   42.2020 C   0  0  0  0  0  0  0  0  0  0  0  0
   46.8370   34.3110   43.3980 C   0  0  0  0  0  0  0  0  0  0  0  0
   47.7660   33.3070   43.4290 N   0  0  0  0  0  0  0  0  0  0  0  0
   48.5300   33.0170   42.3500 C   0  0  0  0  0  0  0  0  0  0  0  0
   48.4020   33.7140   41.1920 N   0  0  0  0  0  0  0  0  0  0  0  0
   47.4090   35.2500   40.2010 H   0  0  0  0  0  0  0  0  0  0  0  0
   45.9820   35.8380   42.1250 H   0  0  0  0  0  0  0  0  0  0  0  0
   46.2400   34.5330   44.2540 H   0  0  0  0  0  0  0  0  0  0  0  0
   50.6570   27.4360   41.6430 C   0  0  0  0  0  0  0  0  0  0  0  0
   51.6670   27.5960   41.2490 H   0  0  0  0  0  0  0  0  0  0  0  0
   49.6920   27.4030   40.8850 O   0  0  0  0  0  0  0  0  0  0  0  0
  1  7  1  6  0  0  0
  1  2  1  0  0  0  0
  2  8  1  0  0  0  0
  2  3  1  0  0  0  0
  2  9  1  0  0  0  0
  3 11  1  0  0  0  0
  4 12  1  0  0  0  0
  4 13  1  0  0  0  0
  4  3  1  0  0  0  0
  5  4  1  0  0  0  0
  6 16  1  1  0  0  0
  6  5  1  0  0  0  0
  6  1  1  0  0  0  0
 10  3  1  0  0  0  0
 14  5  1  0  0  0  0
 15  5  1  0  0  0  0
 17 21  1  0  0  0  0
 18 19  1  0  0  0  0
 18 17  2  0  0  0  0
 19 20  2  0  0  0  0
 20 21  1  0  0  0  0
 20  1  1  0  0  0  0
 22 18  1  0  0  0  0
 23 19  1  0  0  0  0
 24 29  2  0  0  0  0
 24 25  1  0  0  0  0
 25 26  2  0  0  0  0
 26 27  1  0  0  0  0
 26 32  1  0  0  0  0
 28 17  1  0  0  0  0
 28 27  2  0  0  0  0
 29 28  1  0  0  0  0
 30 24  1  0  0  0  0
 31 25  1  0  0  0  0
 33  6  1  0  0  0  0
 34 33  1  0  0  0  0
 35 33  2  0  0  0  0
M  END
>  <minimizedAffinity>
-2.48078394

>  <minimizedRMSD>
6.3716526

$$$$
