
 OpenBabel03242522583D

 25 26  0  0  0  0  0  0  0  0999 V2000
   44.0760   32.5840   42.7020 Cl  0  0  0  0  0  0  0  0  0  0  0  0
   45.5320   33.4930   42.4150 C   0  0  0  0  0  0  0  0  0  0  0  0
   46.2930   33.9800   43.4220 C   0  0  0  0  0  0  0  0  0  0  0  0
   47.4290   34.6880   43.0640 C   0  0  0  0  0  0  0  0  0  0  0  0
   47.7810   34.8940   41.7760 C   0  0  0  0  0  0  0  0  0  0  0  0
   47.0050   34.3990   40.7540 C   0  0  0  0  0  0  0  0  0  0  0  0
   45.8800   33.6980   41.0900 C   0  0  0  0  0  0  0  0  0  0  0  0
   48.0510   35.0850   43.8590 H   0  0  0  0  0  0  0  0  0  0  0  0
   47.2540   34.5440   39.7020 H   0  0  0  0  0  0  0  0  0  0  0  0
   45.2750   33.3100   40.2730 H   0  0  0  0  0  0  0  0  0  0  0  0
   44.6600   34.3210   46.8180 C   0  0  0  0  0  0  0  0  0  0  0  0
   45.0420   34.5910   45.5000 C   0  0  0  0  0  0  0  0  0  0  0  0
   45.8760   33.7330   44.7930 C   0  0  0  0  0  0  0  0  0  0  0  0
   46.2880   32.6300   45.4630 N   0  0  0  0  0  0  0  0  0  0  0  0
   45.9180   32.3760   46.7280 C   0  0  0  0  0  0  0  0  0  0  0  0
   45.1130   33.2100   47.4040 N   0  0  0  0  0  0  0  0  0  0  0  0
   44.0140   34.9870   47.3620 H   0  0  0  0  0  0  0  0  0  0  0  0
   44.6760   35.4960   45.0140 H   0  0  0  0  0  0  0  0  0  0  0  0
   46.3870   31.1740   47.4100 C   0  0  0  0  0  0  0  0  0  0  0  0
   46.6450   30.2630   46.8890 H   0  0  0  0  0  0  0  0  0  0  0  0
   46.5230   31.1240   48.6580 O   0  0  0  0  0  0  0  0  0  0  0  0
   49.0030   35.6560   41.3940 C   0  0  0  0  0  0  0  0  0  0  0  0
   50.0970   34.9210   41.7510 F   0  0  0  0  0  0  0  0  0  0  0  0
   49.0150   36.9100   41.9790 F   0  0  0  0  0  0  0  0  0  0  0  0
   48.9870   35.8330   40.0100 F   0  0  0  0  0  0  0  0  0  0  0  0
  2  1  1  0  0  0  0
  2  3  1  0  0  0  0
  3 13  1  0  0  0  0
  4  3  2  0  0  0  0
  4  8  1  0  0  0  0
  5  4  1  0  0  0  0
  6  7  1  0  0  0  0
  6  5  2  0  0  0  0
  7  2  2  0  0  0  0
  9  6  1  0  0  0  0
 10  7  1  0  0  0  0
 11 17  1  0  0  0  0
 11 16  1  0  0  0  0
 12 11  2  0  0  0  0
 13 14  2  0  0  0  0
 13 12  1  0  0  0  0
 14 15  1  0  0  0  0
 15 16  2  0  0  0  0
 15 19  1  0  0  0  0
 18 12  1  0  0  0  0
 19 21  2  0  0  0  0
 20 19  1  0  0  0  0
 22 23  1  0  0  0  0
 22  5  1  0  0  0  0
 22 24  1  0  0  0  0
 25 22  1  0  0  0  0
M  END
>  <minimizedAffinity>
-5.32649803

>  <minimizedRMSD>
0.170337096

$$$$
