
 OpenBabel03242516013D

 22 23  0  0  0  0  0  0  0  0999 V2000
   39.1870   30.2960   42.5530 Cl  0  0  0  0  0  0  0  0  0  0  0  0
   37.7850   30.0620   41.5400 C   0  0  0  0  0  0  0  0  0  0  0  0
   37.5460   30.8640   40.4610 C   0  0  0  0  0  0  0  0  0  0  0  0
   36.4100   30.5960   39.7230 C   0  0  0  0  0  0  0  0  0  0  0  0
   35.5530   29.5830   40.0370 C   0  0  0  0  0  0  0  0  0  0  0  0
   35.7970   28.7800   41.1200 C   0  0  0  0  0  0  0  0  0  0  0  0
   36.9180   29.0330   41.8610 C   0  0  0  0  0  0  0  0  0  0  0  0
   36.2310   31.2410   38.8670 H   0  0  0  0  0  0  0  0  0  0  0  0
   34.6920   29.4560   39.3950 H   0  0  0  0  0  0  0  0  0  0  0  0
   35.1170   27.9730   41.3730 H   0  0  0  0  0  0  0  0  0  0  0  0
   40.4740   32.7920   39.0310 C   0  0  0  0  0  0  0  0  0  0  0  0
   39.5810   31.7550   39.3070 C   0  0  0  0  0  0  0  0  0  0  0  0
   38.4820   31.9270   40.1640 C   0  0  0  0  0  0  0  0  0  0  0  0
   38.3520   33.1670   40.7020 N   0  0  0  0  0  0  0  0  0  0  0  0
   39.2140   34.1600   40.4340 C   0  0  0  0  0  0  0  0  0  0  0  0
   40.2700   33.9920   39.6080 N   0  0  0  0  0  0  0  0  0  0  0  0
   41.3130   32.6400   38.3700 H   0  0  0  0  0  0  0  0  0  0  0  0
   39.7400   30.7900   38.8470 H   0  0  0  0  0  0  0  0  0  0  0  0
   38.9620   35.0880   40.9480 H   0  0  0  0  0  0  0  0  0  0  0  0
   37.1980   28.1910   43.0210 C   0  0  0  0  0  0  0  0  0  0  0  0
   38.1520   28.1790   43.5290 H   0  0  0  0  0  0  0  0  0  0  0  0
   36.3260   27.4200   43.5000 O   0  0  0  0  0  0  0  0  0  0  0  0
  2  7  1  0  0  0  0
  2  1  1  0  0  0  0
  3  2  2  0  0  0  0
  4  5  2  0  0  0  0
  4  3  1  0  0  0  0
  5  6  1  0  0  0  0
  6 10  1  0  0  0  0
  6  7  2  0  0  0  0
  7 20  1  0  0  0  0
  8  4  1  0  0  0  0
  9  5  1  0  0  0  0
 11 12  2  0  0  0  0
 11 16  1  0  0  0  0
 12 13  1  0  0  0  0
 13  3  1  0  0  0  0
 13 14  2  0  0  0  0
 15 14  1  0  0  0  0
 15 19  1  0  0  0  0
 16 15  2  0  0  0  0
 17 11  1  0  0  0  0
 18 12  1  0  0  0  0
 20 22  2  0  0  0  0
 20 21  1  0  0  0  0
M  END
>  <minimizedAffinity>
-4.46050882

$$$$

 OpenBabel03242516013D

 22 23  0  0  0  0  0  0  0  0999 V2000
   37.5710   31.1530   37.0430 Cl  0  0  0  0  0  0  0  0  0  0  0  0
   36.5770   30.4450   38.2900 C   0  0  0  0  0  0  0  0  0  0  0  0
   36.6770   30.8440   39.5920 C   0  0  0  0  0  0  0  0  0  0  0  0
   35.8460   30.2230   40.5020 C   0  0  0  0  0  0  0  0  0  0  0  0
   34.9560   29.2540   40.1410 C   0  0  0  0  0  0  0  0  0  0  0  0
   34.8580   28.8560   38.8340 C   0  0  0  0  0  0  0  0  0  0  0  0
   35.6760   29.4620   37.9200 C   0  0  0  0  0  0  0  0  0  0  0  0
   35.9360   30.5500   41.5340 H   0  0  0  0  0  0  0  0  0  0  0  0
   34.3500   28.8300   40.9310 H   0  0  0  0  0  0  0  0  0  0  0  0
   34.1520   28.0850   38.5440 H   0  0  0  0  0  0  0  0  0  0  0  0
   39.8290   32.6000   40.7400 C   0  0  0  0  0  0  0  0  0  0  0  0
   38.9190   31.5910   40.4200 C   0  0  0  0  0  0  0  0  0  0  0  0
   37.6340   31.8760   39.9300 C   0  0  0  0  0  0  0  0  0  0  0  0
   37.3420   33.1950   39.7930 N   0  0  0  0  0  0  0  0  0  0  0  0
   38.2210   34.1610   40.1030 C   0  0  0  0  0  0  0  0  0  0  0  0
   39.4580   33.8850   40.5730 N   0  0  0  0  0  0  0  0  0  0  0  0
   40.8120   32.3610   41.1160 H   0  0  0  0  0  0  0  0  0  0  0  0
   39.2120   30.5590   40.5520 H   0  0  0  0  0  0  0  0  0  0  0  0
   37.8250   35.1620   39.9320 H   0  0  0  0  0  0  0  0  0  0  0  0
   35.5890   29.0540   36.5200 C   0  0  0  0  0  0  0  0  0  0  0  0
   36.4180   28.6250   35.9760 H   0  0  0  0  0  0  0  0  0  0  0  0
   34.5240   29.1820   35.8630 O   0  0  0  0  0  0  0  0  0  0  0  0
  1  2  1  0  0  0  0
  2  3  1  0  0  0  0
  3 13  1  0  0  0  0
  3  4  2  0  0  0  0
  4  8  1  0  0  0  0
  5  4  1  0  0  0  0
  5  9  1  0  0  0  0
  6  5  2  0  0  0  0
  7  2  2  0  0  0  0
  7  6  1  0  0  0  0
 10  6  1  0  0  0  0
 11 17  1  0  0  0  0
 12 18  1  0  0  0  0
 12 11  2  0  0  0  0
 13 12  1  0  0  0  0
 14 13  2  0  0  0  0
 14 15  1  0  0  0  0
 15 16  2  0  0  0  0
 16 11  1  0  0  0  0
 19 15  1  0  0  0  0
 20  7  1  0  0  0  0
 21 20  1  0  0  0  0
 22 20  2  0  0  0  0
M  END
>  <minimizedAffinity>
-4.35420942

$$$$

 OpenBabel03242516013D

 22 23  0  0  0  0  0  0  0  0999 V2000
   37.5130   27.9290   39.2120 Cl  0  0  0  0  0  0  0  0  0  0  0  0
   37.4060   27.9180   40.9540 C   0  0  0  0  0  0  0  0  0  0  0  0
   37.5830   29.0580   41.6850 C   0  0  0  0  0  0  0  0  0  0  0  0
   37.4770   28.9440   43.0560 C   0  0  0  0  0  0  0  0  0  0  0  0
   37.2100   27.7590   43.6760 C   0  0  0  0  0  0  0  0  0  0  0  0
   37.0330   26.6170   42.9400 C   0  0  0  0  0  0  0  0  0  0  0  0
   37.1350   26.7140   41.5790 C   0  0  0  0  0  0  0  0  0  0  0  0
   37.6190   29.8590   43.6260 H   0  0  0  0  0  0  0  0  0  0  0  0
   37.1480   27.7770   44.7560 H   0  0  0  0  0  0  0  0  0  0  0  0
   36.8210   25.6730   43.4290 H   0  0  0  0  0  0  0  0  0  0  0  0
   37.1460   32.3750   39.9100 C   0  0  0  0  0  0  0  0  0  0  0  0
   36.8570   31.1860   40.5820 C   0  0  0  0  0  0  0  0  0  0  0  0
   37.8640   30.2940   40.9860 C   0  0  0  0  0  0  0  0  0  0  0  0
   39.1310   30.6690   40.6760 N   0  0  0  0  0  0  0  0  0  0  0  0
   39.4040   31.8130   40.0290 C   0  0  0  0  0  0  0  0  0  0  0  0
   38.4340   32.6700   39.6420 N   0  0  0  0  0  0  0  0  0  0  0  0
   36.3580   33.0470   39.6070 H   0  0  0  0  0  0  0  0  0  0  0  0
   35.8260   30.9440   40.7990 H   0  0  0  0  0  0  0  0  0  0  0  0
   40.4720   31.9590   39.8620 H   0  0  0  0  0  0  0  0  0  0  0  0
   36.9510   25.5100   40.7730 C   0  0  0  0  0  0  0  0  0  0  0  0
   37.1210   25.4780   39.7070 H   0  0  0  0  0  0  0  0  0  0  0  0
   36.5770   24.4240   41.2890 O   0  0  0  0  0  0  0  0  0  0  0  0
  1  2  1  0  0  0  0
  2  7  2  0  0  0  0
  2  3  1  0  0  0  0
  3  4  2  0  0  0  0
  4  8  1  0  0  0  0
  4  5  1  0  0  0  0
  5  9  1  0  0  0  0
  6 10  1  0  0  0  0
  6  5  2  0  0  0  0
  7  6  1  0  0  0  0
 11 12  1  0  0  0  0
 12 18  1  0  0  0  0
 12 13  2  0  0  0  0
 13  3  1  0  0  0  0
 14 13  1  0  0  0  0
 15 14  2  0  0  0  0
 16 11  2  0  0  0  0
 16 15  1  0  0  0  0
 17 11  1  0  0  0  0
 19 15  1  0  0  0  0
 20 22  2  0  0  0  0
 20  7  1  0  0  0  0
 21 20  1  0  0  0  0
M  END
>  <minimizedAffinity>
-4.29243565

$$$$

 OpenBabel03242516013D

 22 23  0  0  0  0  0  0  0  0999 V2000
   37.9590   28.3670   39.3490 Cl  0  0  0  0  0  0  0  0  0  0  0  0
   37.6220   28.1480   41.0470 C   0  0  0  0  0  0  0  0  0  0  0  0
   37.7350   29.1800   41.9340 C   0  0  0  0  0  0  0  0  0  0  0  0
   37.4460   28.9040   43.2550 C   0  0  0  0  0  0  0  0  0  0  0  0
   37.0610   27.6660   43.6790 C   0  0  0  0  0  0  0  0  0  0  0  0
   36.9490   26.6320   42.7860 C   0  0  0  0  0  0  0  0  0  0  0  0
   37.2330   26.8910   41.4730 C   0  0  0  0  0  0  0  0  0  0  0  0
   37.5390   29.7340   43.9500 H   0  0  0  0  0  0  0  0  0  0  0  0
   36.8570   27.5540   44.7350 H   0  0  0  0  0  0  0  0  0  0  0  0
   36.6440   25.6460   43.1200 H   0  0  0  0  0  0  0  0  0  0  0  0
   39.8430   32.2010   41.0550 C   0  0  0  0  0  0  0  0  0  0  0  0
   39.4650   30.9460   41.5380 C   0  0  0  0  0  0  0  0  0  0  0  0
   38.1450   30.4770   41.4410 C   0  0  0  0  0  0  0  0  0  0  0  0
   37.2680   31.3280   40.8490 N   0  0  0  0  0  0  0  0  0  0  0  0
   37.6360   32.5340   40.3870 C   0  0  0  0  0  0  0  0  0  0  0  0
   38.9070   32.9820   40.4810 N   0  0  0  0  0  0  0  0  0  0  0  0
   40.8630   32.5430   41.1390 H   0  0  0  0  0  0  0  0  0  0  0  0
   40.2120   30.3150   41.9990 H   0  0  0  0  0  0  0  0  0  0  0  0
   36.8080   33.0860   39.9420 H   0  0  0  0  0  0  0  0  0  0  0  0
   37.1200   25.8040   40.5040 C   0  0  0  0  0  0  0  0  0  0  0  0
   36.2620   25.6690   39.8620 H   0  0  0  0  0  0  0  0  0  0  0  0
   38.0350   24.9510   40.3630 O   0  0  0  0  0  0  0  0  0  0  0  0
  1  2  1  0  0  0  0
  2  7  2  0  0  0  0
  2  3  1  0  0  0  0
  3  4  2  0  0  0  0
  4  5  1  0  0  0  0
  4  8  1  0  0  0  0
  5  9  1  0  0  0  0
  6 10  1  0  0  0  0
  6  5  2  0  0  0  0
  7  6  1  0  0  0  0
 11 17  1  0  0  0  0
 11 12  1  0  0  0  0
 12 18  1  0  0  0  0
 13 12  2  0  0  0  0
 13  3  1  0  0  0  0
 14 13  1  0  0  0  0
 15 16  1  0  0  0  0
 15 14  2  0  0  0  0
 16 11  2  0  0  0  0
 19 15  1  0  0  0  0
 20  7  1  0  0  0  0
 21 20  1  0  0  0  0
 22 20  2  0  0  0  0
M  END
>  <minimizedAffinity>
-4.2743597

$$$$

 OpenBabel03242516013D

 22 23  0  0  0  0  0  0  0  0999 V2000
   36.4560   27.1090   39.4860 Cl  0  0  0  0  0  0  0  0  0  0  0  0
   37.1110   27.3990   41.0770 C   0  0  0  0  0  0  0  0  0  0  0  0
   37.8670   26.4600   41.7170 C   0  0  0  0  0  0  0  0  0  0  0  0
   38.3390   26.7870   42.9720 C   0  0  0  0  0  0  0  0  0  0  0  0
   38.0760   27.9860   43.5660 C   0  0  0  0  0  0  0  0  0  0  0  0
   37.3160   28.9270   42.9210 C   0  0  0  0  0  0  0  0  0  0  0  0
   36.8420   28.6170   41.6760 C   0  0  0  0  0  0  0  0  0  0  0  0
   38.9400   26.0310   43.4710 H   0  0  0  0  0  0  0  0  0  0  0  0
   38.4920   28.1440   44.5520 H   0  0  0  0  0  0  0  0  0  0  0  0
   37.1050   29.8820   43.3900 H   0  0  0  0  0  0  0  0  0  0  0  0
   37.5880   22.8540   40.5940 C   0  0  0  0  0  0  0  0  0  0  0  0
   37.3280   24.0610   41.2480 C   0  0  0  0  0  0  0  0  0  0  0  0
   38.1230   25.2010   41.0500 C   0  0  0  0  0  0  0  0  0  0  0  0
   39.1570   25.0470   40.1850 N   0  0  0  0  0  0  0  0  0  0  0  0
   39.4040   23.8840   39.5600 C   0  0  0  0  0  0  0  0  0  0  0  0
   38.6370   22.7880   39.7510 N   0  0  0  0  0  0  0  0  0  0  0  0
   36.9650   21.9890   40.7600 H   0  0  0  0  0  0  0  0  0  0  0  0
   36.4870   24.1190   41.9250 H   0  0  0  0  0  0  0  0  0  0  0  0
   40.2710   23.9350   38.9010 H   0  0  0  0  0  0  0  0  0  0  0  0
   36.0290   29.6040   40.9690 C   0  0  0  0  0  0  0  0  0  0  0  0
   35.3230   29.3440   40.1940 H   0  0  0  0  0  0  0  0  0  0  0  0
   36.1100   30.8320   41.2310 O   0  0  0  0  0  0  0  0  0  0  0  0
  1  2  1  0  0  0  0
  2  7  2  0  0  0  0
  2  3  1  0  0  0  0
  3  4  2  0  0  0  0
  4  8  1  0  0  0  0
  4  5  1  0  0  0  0
  5  9  1  0  0  0  0
  6 10  1  0  0  0  0
  6  5  2  0  0  0  0
  7  6  1  0  0  0  0
 11 17  1  0  0  0  0
 11 12  1  0  0  0  0
 12 18  1  0  0  0  0
 13 12  2  0  0  0  0
 13  3  1  0  0  0  0
 14 13  1  0  0  0  0
 15 16  1  0  0  0  0
 15 14  2  0  0  0  0
 16 11  2  0  0  0  0
 19 15  1  0  0  0  0
 20 22  2  0  0  0  0
 20  7  1  0  0  0  0
 21 20  1  0  0  0  0
M  END
>  <minimizedAffinity>
-4.22504663

$$$$

 OpenBabel03242516013D

 22 23  0  0  0  0  0  0  0  0999 V2000
   36.8520   26.4680   40.5870 Cl  0  0  0  0  0  0  0  0  0  0  0  0
   38.0910   26.7570   41.7810 C   0  0  0  0  0  0  0  0  0  0  0  0
   38.5380   28.0190   42.0510 C   0  0  0  0  0  0  0  0  0  0  0  0
   39.5200   28.1420   43.0130 C   0  0  0  0  0  0  0  0  0  0  0  0
   40.0360   27.0680   43.6770 C   0  0  0  0  0  0  0  0  0  0  0  0
   39.5850   25.8030   43.4040 C   0  0  0  0  0  0  0  0  0  0  0  0
   38.6120   25.6660   42.4520 C   0  0  0  0  0  0  0  0  0  0  0  0
   39.8670   29.1510   43.2190 H   0  0  0  0  0  0  0  0  0  0  0  0
   40.8020   27.2710   44.4130 H   0  0  0  0  0  0  0  0  0  0  0  0
   39.9930   24.9470   43.9300 H   0  0  0  0  0  0  0  0  0  0  0  0
   37.9390   30.6910   39.4350 C   0  0  0  0  0  0  0  0  0  0  0  0
   38.5080   29.6190   40.1250 C   0  0  0  0  0  0  0  0  0  0  0  0
   37.9630   29.1300   41.3240 C   0  0  0  0  0  0  0  0  0  0  0  0
   36.8510   29.7740   41.7610 N   0  0  0  0  0  0  0  0  0  0  0  0
   36.3080   30.8050   41.0950 C   0  0  0  0  0  0  0  0  0  0  0  0
   36.8340   31.2720   39.9410 N   0  0  0  0  0  0  0  0  0  0  0  0
   38.3730   31.0520   38.5160 H   0  0  0  0  0  0  0  0  0  0  0  0
   39.3950   29.1480   39.7230 H   0  0  0  0  0  0  0  0  0  0  0  0
   35.4200   31.2030   41.5850 H   0  0  0  0  0  0  0  0  0  0  0  0
   38.1160   24.3270   42.1440 C   0  0  0  0  0  0  0  0  0  0  0  0
   37.2230   23.9090   42.5850 H   0  0  0  0  0  0  0  0  0  0  0  0
   38.7150   23.5750   41.3320 O   0  0  0  0  0  0  0  0  0  0  0  0
  1  2  1  0  0  0  0
  2  3  2  0  0  0  0
  2  7  1  0  0  0  0
  3  4  1  0  0  0  0
  4  8  1  0  0  0  0
  4  5  2  0  0  0  0
  5  9  1  0  0  0  0
  6  5  1  0  0  0  0
  6 10  1  0  0  0  0
  7  6  2  0  0  0  0
 11 16  2  0  0  0  0
 11 12  1  0  0  0  0
 12 13  2  0  0  0  0
 13 14  1  0  0  0  0
 13  3  1  0  0  0  0
 15 19  1  0  0  0  0
 15 14  2  0  0  0  0
 16 15  1  0  0  0  0
 17 11  1  0  0  0  0
 18 12  1  0  0  0  0
 20  7  1  0  0  0  0
 20 21  1  0  0  0  0
 22 20  2  0  0  0  0
M  END
>  <minimizedAffinity>
-4.20630407

$$$$

 OpenBabel03242516013D

 22 23  0  0  0  0  0  0  0  0999 V2000
   38.0390   30.2390   40.0130 Cl  0  0  0  0  0  0  0  0  0  0  0  0
   37.5940   29.2610   41.3880 C   0  0  0  0  0  0  0  0  0  0  0  0
   36.5640   28.3670   41.3220 C   0  0  0  0  0  0  0  0  0  0  0  0
   36.2920   27.6410   42.4640 C   0  0  0  0  0  0  0  0  0  0  0  0
   37.0060   27.7910   43.6170 C   0  0  0  0  0  0  0  0  0  0  0  0
   38.0380   28.6900   43.6800 C   0  0  0  0  0  0  0  0  0  0  0  0
   38.3200   29.4170   42.5550 C   0  0  0  0  0  0  0  0  0  0  0  0
   35.4710   26.9320   42.3980 H   0  0  0  0  0  0  0  0  0  0  0  0
   36.7120   27.1750   44.4560 H   0  0  0  0  0  0  0  0  0  0  0  0
   38.6070   28.8130   44.5950 H   0  0  0  0  0  0  0  0  0  0  0  0
   34.0540   28.9230   38.5430 C   0  0  0  0  0  0  0  0  0  0  0  0
   34.7450   29.0600   39.7480 C   0  0  0  0  0  0  0  0  0  0  0  0
   35.8350   28.2380   40.0790 C   0  0  0  0  0  0  0  0  0  0  0  0
   36.1640   27.3050   39.1490 N   0  0  0  0  0  0  0  0  0  0  0  0
   35.4950   27.1770   37.9920 C   0  0  0  0  0  0  0  0  0  0  0  0
   34.4480   27.9700   37.6750 N   0  0  0  0  0  0  0  0  0  0  0  0
   33.2190   29.5640   38.3060 H   0  0  0  0  0  0  0  0  0  0  0  0
   34.4340   29.8230   40.4470 H   0  0  0  0  0  0  0  0  0  0  0  0
   35.8910   26.3810   37.3620 H   0  0  0  0  0  0  0  0  0  0  0  0
   39.4160   30.3810   42.5990 C   0  0  0  0  0  0  0  0  0  0  0  0
   39.2750   31.4300   42.8150 H   0  0  0  0  0  0  0  0  0  0  0  0
   40.6070   30.0330   42.3840 O   0  0  0  0  0  0  0  0  0  0  0  0
  1  2  1  0  0  0  0
  2  7  1  0  0  0  0
  3  2  2  0  0  0  0
  3  4  1  0  0  0  0
  4  5  2  0  0  0  0
  5  6  1  0  0  0  0
  5  9  1  0  0  0  0
  6 10  1  0  0  0  0
  7 20  1  0  0  0  0
  7  6  2  0  0  0  0
  8  4  1  0  0  0  0
 11 12  1  0  0  0  0
 12 13  2  0  0  0  0
 12 18  1  0  0  0  0
 13  3  1  0  0  0  0
 14 13  1  0  0  0  0
 15 14  2  0  0  0  0
 16 15  1  0  0  0  0
 16 11  2  0  0  0  0
 17 11  1  0  0  0  0
 19 15  1  0  0  0  0
 20 21  1  0  0  0  0
 22 20  2  0  0  0  0
M  END
>  <minimizedAffinity>
-4.17535114

$$$$

 OpenBabel03242516013D

 22 23  0  0  0  0  0  0  0  0999 V2000
   36.7360   27.0900   38.4010 Cl  0  0  0  0  0  0  0  0  0  0  0  0
   36.8120   26.2720   39.9400 C   0  0  0  0  0  0  0  0  0  0  0  0
   37.0180   26.9600   41.1020 C   0  0  0  0  0  0  0  0  0  0  0  0
   37.0610   26.2210   42.2670 C   0  0  0  0  0  0  0  0  0  0  0  0
   36.9070   24.8660   42.2830 C   0  0  0  0  0  0  0  0  0  0  0  0
   36.7010   24.1790   41.1150 C   0  0  0  0  0  0  0  0  0  0  0  0
   36.6550   24.8980   39.9520 C   0  0  0  0  0  0  0  0  0  0  0  0
   37.2250   26.7800   43.1840 H   0  0  0  0  0  0  0  0  0  0  0  0
   36.9580   24.3800   43.2480 H   0  0  0  0  0  0  0  0  0  0  0  0
   36.5780   23.1010   41.1240 H   0  0  0  0  0  0  0  0  0  0  0  0
   36.2590   30.6690   41.0460 C   0  0  0  0  0  0  0  0  0  0  0  0
   36.0890   29.2850   41.1070 C   0  0  0  0  0  0  0  0  0  0  0  0
   37.1750   28.3970   41.0390 C   0  0  0  0  0  0  0  0  0  0  0  0
   38.3950   28.9790   40.9100 N   0  0  0  0  0  0  0  0  0  0  0  0
   38.5530   30.3110   40.8520 C   0  0  0  0  0  0  0  0  0  0  0  0
   37.5060   31.1630   40.9180 N   0  0  0  0  0  0  0  0  0  0  0  0
   35.4120   31.3350   41.0990 H   0  0  0  0  0  0  0  0  0  0  0  0
   35.0910   28.8830   41.2100 H   0  0  0  0  0  0  0  0  0  0  0  0
   39.5970   30.6080   40.7490 H   0  0  0  0  0  0  0  0  0  0  0  0
   36.4360   24.1870   38.6950 C   0  0  0  0  0  0  0  0  0  0  0  0
   37.2380   23.8900   38.0350 H   0  0  0  0  0  0  0  0  0  0  0  0
   35.2800   23.8760   38.3080 O   0  0  0  0  0  0  0  0  0  0  0  0
  1  2  1  0  0  0  0
  2  7  2  0  0  0  0
  2  3  1  0  0  0  0
  3  4  2  0  0  0  0
  4  5  1  0  0  0  0
  4  8  1  0  0  0  0
  5  9  1  0  0  0  0
  6 10  1  0  0  0  0
  6  5  2  0  0  0  0
  7  6  1  0  0  0  0
 11 17  1  0  0  0  0
 11 12  1  0  0  0  0
 12 18  1  0  0  0  0
 13  3  1  0  0  0  0
 13 12  2  0  0  0  0
 14 13  1  0  0  0  0
 15 14  2  0  0  0  0
 15 16  1  0  0  0  0
 16 11  2  0  0  0  0
 19 15  1  0  0  0  0
 20  7  1  0  0  0  0
 21 20  1  0  0  0  0
 22 20  2  0  0  0  0
M  END
>  <minimizedAffinity>
-4.08361292

$$$$

 OpenBabel03242516013D

 22 23  0  0  0  0  0  0  0  0999 V2000
   39.6320   28.2770   42.7500 Cl  0  0  0  0  0  0  0  0  0  0  0  0
   38.6300   26.9770   42.1580 C   0  0  0  0  0  0  0  0  0  0  0  0
   37.6190   27.2060   41.2690 C   0  0  0  0  0  0  0  0  0  0  0  0
   36.8850   26.1110   40.8610 C   0  0  0  0  0  0  0  0  0  0  0  0
   37.1390   24.8480   41.3100 C   0  0  0  0  0  0  0  0  0  0  0  0
   38.1540   24.6220   42.2020 C   0  0  0  0  0  0  0  0  0  0  0  0
   38.8900   25.6980   42.6160 C   0  0  0  0  0  0  0  0  0  0  0  0
   36.0840   26.3060   40.1530 H   0  0  0  0  0  0  0  0  0  0  0  0
   36.5060   24.0580   40.9290 H   0  0  0  0  0  0  0  0  0  0  0  0
   38.3590   23.6190   42.5620 H   0  0  0  0  0  0  0  0  0  0  0  0
   36.2560   30.7280   40.9930 C   0  0  0  0  0  0  0  0  0  0  0  0
   36.4680   29.4230   41.4410 C   0  0  0  0  0  0  0  0  0  0  0  0
   37.3850   28.5610   40.8170 C   0  0  0  0  0  0  0  0  0  0  0  0
   38.0440   29.0850   39.7520 N   0  0  0  0  0  0  0  0  0  0  0  0
   37.8350   30.3400   39.3250 C   0  0  0  0  0  0  0  0  0  0  0  0
   36.9540   31.1680   39.9280 N   0  0  0  0  0  0  0  0  0  0  0  0
   35.5470   31.3750   41.4860 H   0  0  0  0  0  0  0  0  0  0  0  0
   35.9110   29.0650   42.2960 H   0  0  0  0  0  0  0  0  0  0  0  0
   38.4470   30.5980   38.4600 H   0  0  0  0  0  0  0  0  0  0  0  0
   39.9780   25.4810   43.5670 C   0  0  0  0  0  0  0  0  0  0  0  0
   39.8670   25.6120   44.6330 H   0  0  0  0  0  0  0  0  0  0  0  0
   41.1220   25.1220   43.1870 O   0  0  0  0  0  0  0  0  0  0  0  0
  2  7  1  0  0  0  0
  2  1  1  0  0  0  0
  3  2  2  0  0  0  0
  4  3  1  0  0  0  0
  4  5  2  0  0  0  0
  5  6  1  0  0  0  0
  6 10  1  0  0  0  0
  6  7  2  0  0  0  0
  7 20  1  0  0  0  0
  8  4  1  0  0  0  0
  9  5  1  0  0  0  0
 11 12  1  0  0  0  0
 11 17  1  0  0  0  0
 12 18  1  0  0  0  0
 13  3  1  0  0  0  0
 13 12  2  0  0  0  0
 14 13  1  0  0  0  0
 15 14  2  0  0  0  0
 15 16  1  0  0  0  0
 16 11  2  0  0  0  0
 19 15  1  0  0  0  0
 20 21  1  0  0  0  0
 22 20  2  0  0  0  0
M  END
>  <minimizedAffinity>
-4.05434656

$$$$
