
 OpenBabel03242510433D

 35 37  0  0  0  0  0  0  0  0999 V2000
   39.1620   27.4630   40.0450 Cl  0  0  0  0  0  0  0  0  0  0  0  0
   38.1430   27.5170   41.4930 C   0  0  0  0  0  0  0  0  0  0  0  0
   38.1890   28.6600   42.2700 C   0  0  0  0  0  0  0  0  0  0  0  0
   37.4100   28.6920   43.3680 C   0  0  0  0  0  0  0  0  0  0  0  0
   36.6000   27.5930   43.6800 C   0  0  0  0  0  0  0  0  0  0  0  0
   36.5710   26.4580   42.8890 C   0  0  0  0  0  0  0  0  0  0  0  0
   37.3700   26.4090   41.7490 C   0  0  0  0  0  0  0  0  0  0  0  0
   37.3960   29.5580   44.0220 H   0  0  0  0  0  0  0  0  0  0  0  0
   35.9760   27.6240   44.5650 H   0  0  0  0  0  0  0  0  0  0  0  0
   35.9420   25.6160   43.1400 H   0  0  0  0  0  0  0  0  0  0  0  0
   38.9990   24.3320   42.4680 F   0  0  0  0  0  0  0  0  0  0  0  0
   38.2500   24.2600   41.3260 C   0  0  0  0  0  0  0  0  0  0  0  0
   37.3930   25.2450   40.8650 C   0  0  0  0  0  0  0  0  0  0  0  0
   36.6900   25.0590   39.7020 C   0  0  0  0  0  0  0  0  0  0  0  0
   36.8520   23.8850   39.0100 C   0  0  0  0  0  0  0  0  0  0  0  0
   37.7050   22.8790   39.4490 C   0  0  0  0  0  0  0  0  0  0  0  0
   38.4060   23.0730   40.6160 C   0  0  0  0  0  0  0  0  0  0  0  0
   36.0510   25.8730   39.4210 H   0  0  0  0  0  0  0  0  0  0  0  0
   36.2690   23.7920   38.0930 H   0  0  0  0  0  0  0  0  0  0  0  0
   37.8080   21.9590   38.8700 H   0  0  0  0  0  0  0  0  0  0  0  0
   39.0630   22.2800   40.9400 H   0  0  0  0  0  0  0  0  0  0  0  0
   41.1590   30.6910   41.6920 C   0  0  0  0  0  0  0  0  0  0  0  0
   40.6570   31.8830   41.1340 C   0  0  0  0  0  0  0  0  0  0  0  0
   39.2720   31.9610   40.9690 C   0  0  0  0  0  0  0  0  0  0  0  0
   38.5090   30.8970   41.3510 N   0  0  0  0  0  0  0  0  0  0  0  0
   39.0610   29.7690   41.8870 C   0  0  0  0  0  0  0  0  0  0  0  0
   40.3800   29.6880   42.0470 N   0  0  0  0  0  0  0  0  0  0  0  0
   42.2150   30.5750   41.8430 H   0  0  0  0  0  0  0  0  0  0  0  0
   38.7750   33.2110   40.3900 C   0  0  0  0  0  0  0  0  0  0  0  0
   37.3890   33.1360   40.2880 F   0  0  0  0  0  0  0  0  0  0  0  0
   39.2480   33.2640   39.1020 F   0  0  0  0  0  0  0  0  0  0  0  0
   39.0640   34.3080   41.1580 F   0  0  0  0  0  0  0  0  0  0  0  0
   41.6250   32.8880   40.7790 C   0  0  0  0  0  0  0  0  0  0  0  0
   41.8540   33.1340   39.7570 H   0  0  0  0  0  0  0  0  0  0  0  0
   42.3400   33.6220   41.4910 O   0  0  0  0  0  0  0  0  0  0  0  0
  1  2  1  0  0  0  0
  2  7  2  0  0  0  0
  2  3  1  0  0  0  0
  3  4  2  0  0  0  0
  4  5  1  0  0  0  0
  4  8  1  0  0  0  0
  5  9  1  0  0  0  0
  6 10  1  0  0  0  0
  6  5  2  0  0  0  0
  7  6  1  0  0  0  0
 12 11  1  0  0  0  0
 13 12  1  0  0  0  0
 13  7  1  0  0  0  0
 14 13  2  0  0  0  0
 15 16  2  0  0  0  0
 15 14  1  0  0  0  0
 16 17  1  0  0  0  0
 17 21  1  0  0  0  0
 17 12  2  0  0  0  0
 18 14  1  0  0  0  0
 19 15  1  0  0  0  0
 20 16  1  0  0  0  0
 22 28  1  0  0  0  0
 22 27  1  0  0  0  0
 23 22  2  0  0  0  0
 24 23  1  0  0  0  0
 24 25  2  0  0  0  0
 25 26  1  0  0  0  0
 26 27  2  0  0  0  0
 26  3  1  0  0  0  0
 29 24  1  0  0  0  0
 29 32  1  0  0  0  0
 30 29  1  0  0  0  0
 31 29  1  0  0  0  0
 33 23  1  0  0  0  0
 33 35  2  0  0  0  0
 34 33  1  0  0  0  0
M  END
>  <minimizedAffinity>
-6.04094934

$$$$

 OpenBabel03242510433D

 35 37  0  0  0  0  0  0  0  0999 V2000
   39.5260   28.1310   40.5280 Cl  0  0  0  0  0  0  0  0  0  0  0  0
   37.9790   28.9910   40.6040 C   0  0  0  0  0  0  0  0  0  0  0  0
   38.0100   30.3740   40.5650 C   0  0  0  0  0  0  0  0  0  0  0  0
   36.8290   31.0190   40.6230 C   0  0  0  0  0  0  0  0  0  0  0  0
   35.6390   30.2860   40.7170 C   0  0  0  0  0  0  0  0  0  0  0  0
   35.6320   28.9030   40.7560 C   0  0  0  0  0  0  0  0  0  0  0  0
   36.8450   28.2200   40.6980 C   0  0  0  0  0  0  0  0  0  0  0  0
   36.7790   32.1030   40.5960 H   0  0  0  0  0  0  0  0  0  0  0  0
   34.6920   30.8110   40.7640 H   0  0  0  0  0  0  0  0  0  0  0  0
   34.7070   28.3490   40.8300 H   0  0  0  0  0  0  0  0  0  0  0  0
   37.0390   27.0440   43.1600 F   0  0  0  0  0  0  0  0  0  0  0  0
   37.0140   26.2780   42.0270 C   0  0  0  0  0  0  0  0  0  0  0  0
   36.9180   26.7610   40.7340 C   0  0  0  0  0  0  0  0  0  0  0  0
   36.9020   25.8930   39.6720 C   0  0  0  0  0  0  0  0  0  0  0  0
   36.9820   24.5450   39.9170 C   0  0  0  0  0  0  0  0  0  0  0  0
   37.0790   24.0310   41.2050 C   0  0  0  0  0  0  0  0  0  0  0  0
   37.0940   24.9090   42.2640 C   0  0  0  0  0  0  0  0  0  0  0  0
   36.8250   26.3540   38.7070 H   0  0  0  0  0  0  0  0  0  0  0  0
   36.9640   23.9020   39.0360 H   0  0  0  0  0  0  0  0  0  0  0  0
   37.1410   22.9520   41.3600 H   0  0  0  0  0  0  0  0  0  0  0  0
   37.1700   24.4900   43.2560 H   0  0  0  0  0  0  0  0  0  0  0  0
   41.1840   31.9280   41.4570 C   0  0  0  0  0  0  0  0  0  0  0  0
   41.6990   32.3850   40.2290 C   0  0  0  0  0  0  0  0  0  0  0  0
   40.9200   32.1440   39.0950 C   0  0  0  0  0  0  0  0  0  0  0  0
   39.7310   31.4920   39.2480 N   0  0  0  0  0  0  0  0  0  0  0  0
   39.2890   31.0750   40.4700 C   0  0  0  0  0  0  0  0  0  0  0  0
   40.0270   31.3010   41.5540 N   0  0  0  0  0  0  0  0  0  0  0  0
   41.7380   32.0850   42.3620 H   0  0  0  0  0  0  0  0  0  0  0  0
   41.4750   32.6320   37.8310 C   0  0  0  0  0  0  0  0  0  0  0  0
   40.6100   32.2830   36.7980 F   0  0  0  0  0  0  0  0  0  0  0  0
   42.6320   31.9260   37.6110 F   0  0  0  0  0  0  0  0  0  0  0  0
   41.6140   33.9940   37.7980 F   0  0  0  0  0  0  0  0  0  0  0  0
   42.9800   33.0390   40.2700 C   0  0  0  0  0  0  0  0  0  0  0  0
   43.8960   32.5340   40.0160 H   0  0  0  0  0  0  0  0  0  0  0  0
   43.2920   34.2090   40.5730 O   0  0  0  0  0  0  0  0  0  0  0  0
  1  2  1  0  0  0  0
  2  7  1  0  0  0  0
  3  2  2  0  0  0  0
  3  4  1  0  0  0  0
  4  5  2  0  0  0  0
  5  6  1  0  0  0  0
  5  9  1  0  0  0  0
  6 10  1  0  0  0  0
  7 13  1  0  0  0  0
  7  6  2  0  0  0  0
  8  4  1  0  0  0  0
 12 17  1  0  0  0  0
 12 11  1  0  0  0  0
 13 12  2  0  0  0  0
 14 15  2  0  0  0  0
 14 13  1  0  0  0  0
 15 16  1  0  0  0  0
 16 20  1  0  0  0  0
 16 17  2  0  0  0  0
 17 21  1  0  0  0  0
 18 14  1  0  0  0  0
 19 15  1  0  0  0  0
 22 27  1  0  0  0  0
 22 28  1  0  0  0  0
 23 33  1  0  0  0  0
 23 22  2  0  0  0  0
 24 25  2  0  0  0  0
 24 23  1  0  0  0  0
 25 26  1  0  0  0  0
 26  3  1  0  0  0  0
 26 27  2  0  0  0  0
 29 24  1  0  0  0  0
 30 29  1  0  0  0  0
 31 29  1  0  0  0  0
 32 29  1  0  0  0  0
 33 35  2  0  0  0  0
 34 33  1  0  0  0  0
M  END
>  <minimizedAffinity>
-5.82734871

$$$$

 OpenBabel03242510433D

 35 37  0  0  0  0  0  0  0  0999 V2000
   37.8930   27.1020   39.4590 Cl  0  0  0  0  0  0  0  0  0  0  0  0
   38.4630   27.0580   41.1350 C   0  0  0  0  0  0  0  0  0  0  0  0
   38.5730   28.2610   41.8090 C   0  0  0  0  0  0  0  0  0  0  0  0
   39.0070   28.2180   43.0840 C   0  0  0  0  0  0  0  0  0  0  0  0
   39.3240   26.9860   43.6700 C   0  0  0  0  0  0  0  0  0  0  0  0
   39.2080   25.7940   42.9760 C   0  0  0  0  0  0  0  0  0  0  0  0
   38.7610   25.8210   41.6570 C   0  0  0  0  0  0  0  0  0  0  0  0
   39.1160   29.1230   43.6710 H   0  0  0  0  0  0  0  0  0  0  0  0
   39.6730   26.9560   44.6950 H   0  0  0  0  0  0  0  0  0  0  0  0
   39.4570   24.8500   43.4390 H   0  0  0  0  0  0  0  0  0  0  0  0
   36.4470   24.3980   41.9790 F   0  0  0  0  0  0  0  0  0  0  0  0
   37.4080   23.9680   41.1060 C   0  0  0  0  0  0  0  0  0  0  0  0
   38.6130   24.6040   40.8610 C   0  0  0  0  0  0  0  0  0  0  0  0
   39.5010   24.0770   39.9580 C   0  0  0  0  0  0  0  0  0  0  0  0
   39.1740   22.9140   39.3080 C   0  0  0  0  0  0  0  0  0  0  0  0
   37.9710   22.2540   39.5330 C   0  0  0  0  0  0  0  0  0  0  0  0
   37.0860   22.7890   40.4390 C   0  0  0  0  0  0  0  0  0  0  0  0
   40.4070   24.6360   39.8320 H   0  0  0  0  0  0  0  0  0  0  0  0
   39.9160   22.5410   38.6020 H   0  0  0  0  0  0  0  0  0  0  0  0
   37.7460   21.3300   38.9960 H   0  0  0  0  0  0  0  0  0  0  0  0
   36.1580   22.2610   40.6010 H   0  0  0  0  0  0  0  0  0  0  0  0
   36.7630   31.2420   40.7490 C   0  0  0  0  0  0  0  0  0  0  0  0
   37.6400   31.8730   39.8470 C   0  0  0  0  0  0  0  0  0  0  0  0
   38.8640   31.2400   39.6170 C   0  0  0  0  0  0  0  0  0  0  0  0
   39.1250   30.0710   40.2700 N   0  0  0  0  0  0  0  0  0  0  0  0
   38.2290   29.5110   41.1340 C   0  0  0  0  0  0  0  0  0  0  0  0
   37.0610   30.1100   41.3570 N   0  0  0  0  0  0  0  0  0  0  0  0
   35.8090   31.6810   40.9640 H   0  0  0  0  0  0  0  0  0  0  0  0
   39.7570   31.9140   38.6720 C   0  0  0  0  0  0  0  0  0  0  0  0
   40.9180   31.1580   38.5360 F   0  0  0  0  0  0  0  0  0  0  0  0
   40.1380   33.0920   39.2640 F   0  0  0  0  0  0  0  0  0  0  0  0
   39.2130   32.0450   37.4220 F   0  0  0  0  0  0  0  0  0  0  0  0
   37.1900   33.1120   39.2680 C   0  0  0  0  0  0  0  0  0  0  0  0
   36.6460   33.1520   38.3400 H   0  0  0  0  0  0  0  0  0  0  0  0
   37.3100   34.2900   39.6610 O   0  0  0  0  0  0  0  0  0  0  0  0
  1  2  1  0  0  0  0
  2  7  2  0  0  0  0
  2  3  1  0  0  0  0
  3  4  2  0  0  0  0
  4  5  1  0  0  0  0
  4  8  1  0  0  0  0
  5  9  1  0  0  0  0
  6 10  1  0  0  0  0
  6  5  2  0  0  0  0
  7  6  1  0  0  0  0
 12 11  1  0  0  0  0
 13 12  1  0  0  0  0
 13  7  1  0  0  0  0
 14 13  2  0  0  0  0
 15 16  2  0  0  0  0
 15 14  1  0  0  0  0
 16 17  1  0  0  0  0
 17 21  1  0  0  0  0
 17 12  2  0  0  0  0
 18 14  1  0  0  0  0
 19 15  1  0  0  0  0
 20 16  1  0  0  0  0
 22 28  1  0  0  0  0
 22 27  1  0  0  0  0
 23 22  2  0  0  0  0
 24 23  1  0  0  0  0
 24 25  2  0  0  0  0
 25 26  1  0  0  0  0
 26 27  2  0  0  0  0
 26  3  1  0  0  0  0
 29 31  1  0  0  0  0
 29 24  1  0  0  0  0
 30 29  1  0  0  0  0
 32 29  1  0  0  0  0
 33 35  2  0  0  0  0
 33 23  1  0  0  0  0
 34 33  1  0  0  0  0
M  END
>  <minimizedAffinity>
-5.81661034

$$$$

 OpenBabel03242510433D

 35 37  0  0  0  0  0  0  0  0999 V2000
   39.3510   28.2880   39.4430 Cl  0  0  0  0  0  0  0  0  0  0  0  0
   37.9140   29.1850   39.9570 C   0  0  0  0  0  0  0  0  0  0  0  0
   37.9210   30.5590   39.7950 C   0  0  0  0  0  0  0  0  0  0  0  0
   36.8230   31.2330   40.1880 C   0  0  0  0  0  0  0  0  0  0  0  0
   35.7370   30.5370   40.7340 C   0  0  0  0  0  0  0  0  0  0  0  0
   35.7520   29.1620   40.8890 C   0  0  0  0  0  0  0  0  0  0  0  0
   36.8800   28.4500   40.4880 C   0  0  0  0  0  0  0  0  0  0  0  0
   36.7600   32.3120   40.0890 H   0  0  0  0  0  0  0  0  0  0  0  0
   34.8570   31.0840   41.0490 H   0  0  0  0  0  0  0  0  0  0  0  0
   34.9080   28.6370   41.3130 H   0  0  0  0  0  0  0  0  0  0  0  0
   37.7660   27.4700   42.8830 F   0  0  0  0  0  0  0  0  0  0  0  0
   37.4290   26.6170   41.8690 C   0  0  0  0  0  0  0  0  0  0  0  0
   36.9700   26.9970   40.6190 C   0  0  0  0  0  0  0  0  0  0  0  0
   36.6610   26.0480   39.6790 C   0  0  0  0  0  0  0  0  0  0  0  0
   36.8160   24.7230   39.9990 C   0  0  0  0  0  0  0  0  0  0  0  0
   37.2750   24.3120   41.2460 C   0  0  0  0  0  0  0  0  0  0  0  0
   37.5810   25.2700   42.1830 C   0  0  0  0  0  0  0  0  0  0  0  0
   36.3130   26.4320   38.7410 H   0  0  0  0  0  0  0  0  0  0  0  0
   36.5550   24.0120   39.2140 H   0  0  0  0  0  0  0  0  0  0  0  0
   37.3850   23.2470   41.4640 H   0  0  0  0  0  0  0  0  0  0  0  0
   37.9360   24.9300   43.1450 H   0  0  0  0  0  0  0  0  0  0  0  0
   40.2410   32.0350   37.4020 C   0  0  0  0  0  0  0  0  0  0  0  0
   41.3110   32.4880   38.1970 C   0  0  0  0  0  0  0  0  0  0  0  0
   41.2070   32.2670   39.5720 C   0  0  0  0  0  0  0  0  0  0  0  0
   40.0950   31.6370   40.0480 N   0  0  0  0  0  0  0  0  0  0  0  0
   39.0910   31.2210   39.2210 C   0  0  0  0  0  0  0  0  0  0  0  0
   39.1840   31.4300   37.9100 N   0  0  0  0  0  0  0  0  0  0  0  0
   40.2660   32.1770   36.3390 H   0  0  0  0  0  0  0  0  0  0  0  0
   42.3330   32.7440   40.3760 C   0  0  0  0  0  0  0  0  0  0  0  0
   42.1120   32.3970   41.7060 F   0  0  0  0  0  0  0  0  0  0  0  0
   42.2970   34.1150   40.3300 F   0  0  0  0  0  0  0  0  0  0  0  0
   43.5290   32.1850   40.0070 F   0  0  0  0  0  0  0  0  0  0  0  0
   42.3920   33.1450   37.5100 C   0  0  0  0  0  0  0  0  0  0  0  0
   43.2390   32.6080   37.1190 H   0  0  0  0  0  0  0  0  0  0  0  0
   42.5780   34.3490   37.2390 O   0  0  0  0  0  0  0  0  0  0  0  0
  1  2  1  0  0  0  0
  2  7  1  0  0  0  0
  3  2  2  0  0  0  0
  3  4  1  0  0  0  0
  4  5  2  0  0  0  0
  5  6  1  0  0  0  0
  5  9  1  0  0  0  0
  6 10  1  0  0  0  0
  7 13  1  0  0  0  0
  7  6  2  0  0  0  0
  8  4  1  0  0  0  0
 12 17  1  0  0  0  0
 12 11  1  0  0  0  0
 13 12  2  0  0  0  0
 14 15  2  0  0  0  0
 14 13  1  0  0  0  0
 15 16  1  0  0  0  0
 16 20  1  0  0  0  0
 16 17  2  0  0  0  0
 17 21  1  0  0  0  0
 18 14  1  0  0  0  0
 19 15  1  0  0  0  0
 22 27  2  0  0  0  0
 22 23  1  0  0  0  0
 23 24  2  0  0  0  0
 24 25  1  0  0  0  0
 24 29  1  0  0  0  0
 26  3  1  0  0  0  0
 26 25  2  0  0  0  0
 27 26  1  0  0  0  0
 28 22  1  0  0  0  0
 29 30  1  0  0  0  0
 31 29  1  0  0  0  0
 32 29  1  0  0  0  0
 33 23  1  0  0  0  0
 34 33  1  0  0  0  0
 35 33  2  0  0  0  0
M  END
>  <minimizedAffinity>
-5.70151281

$$$$

 OpenBabel03242510433D

 35 37  0  0  0  0  0  0  0  0999 V2000
   40.5730   30.1720   39.2430 Cl  0  0  0  0  0  0  0  0  0  0  0  0
   39.2780   31.3500   39.5140 C   0  0  0  0  0  0  0  0  0  0  0  0
   38.0340   30.8660   39.8770 C   0  0  0  0  0  0  0  0  0  0  0  0
   37.0550   31.7690   40.0810 C   0  0  0  0  0  0  0  0  0  0  0  0
   37.3240   33.1340   39.9220 C   0  0  0  0  0  0  0  0  0  0  0  0
   38.5760   33.5970   39.5570 C   0  0  0  0  0  0  0  0  0  0  0  0
   39.5990   32.6760   39.3410 C   0  0  0  0  0  0  0  0  0  0  0  0
   36.0560   31.4590   40.3680 H   0  0  0  0  0  0  0  0  0  0  0  0
   36.5330   33.8560   40.0870 H   0  0  0  0  0  0  0  0  0  0  0  0
   38.7700   34.6530   39.4360 H   0  0  0  0  0  0  0  0  0  0  0  0
   41.3600   33.2330   41.3590 F   0  0  0  0  0  0  0  0  0  0  0  0
   41.7480   33.3430   40.0530 C   0  0  0  0  0  0  0  0  0  0  0  0
   40.9470   33.0870   38.9530 C   0  0  0  0  0  0  0  0  0  0  0  0
   41.4490   33.2320   37.6850 C   0  0  0  0  0  0  0  0  0  0  0  0
   42.7510   33.6330   37.5290 C   0  0  0  0  0  0  0  0  0  0  0  0
   43.5790   33.8970   38.6150 C   0  0  0  0  0  0  0  0  0  0  0  0
   43.0680   33.7480   39.8830 C   0  0  0  0  0  0  0  0  0  0  0  0
   40.7590   33.0130   36.8940 H   0  0  0  0  0  0  0  0  0  0  0  0
   43.0970   33.7320   36.5000 H   0  0  0  0  0  0  0  0  0  0  0  0
   44.6110   34.2140   38.4510 H   0  0  0  0  0  0  0  0  0  0  0  0
   43.7270   33.9580   40.7130 H   0  0  0  0  0  0  0  0  0  0  0  0
   37.3580   27.3690   39.1030 C   0  0  0  0  0  0  0  0  0  0  0  0
   37.4520   26.7180   40.3480 C   0  0  0  0  0  0  0  0  0  0  0  0
   37.7500   27.5200   41.4530 C   0  0  0  0  0  0  0  0  0  0  0  0
   37.9280   28.8580   41.2570 N   0  0  0  0  0  0  0  0  0  0  0  0
   37.8230   29.4260   40.0210 C   0  0  0  0  0  0  0  0  0  0  0  0
   37.5400   28.6680   38.9640 N   0  0  0  0  0  0  0  0  0  0  0  0
   37.1310   26.8050   38.2200 H   0  0  0  0  0  0  0  0  0  0  0  0
   37.8380   26.8200   42.7360 C   0  0  0  0  0  0  0  0  0  0  0  0
   36.5720   26.3510   43.0770 F   0  0  0  0  0  0  0  0  0  0  0  0
   38.1600   27.7650   43.6780 F   0  0  0  0  0  0  0  0  0  0  0  0
   38.6730   25.7340   42.6970 F   0  0  0  0  0  0  0  0  0  0  0  0
   37.2450   25.2930   40.3490 C   0  0  0  0  0  0  0  0  0  0  0  0
   38.0520   24.5920   40.4700 H   0  0  0  0  0  0  0  0  0  0  0  0
   36.2030   24.6180   40.2250 O   0  0  0  0  0  0  0  0  0  0  0  0
  1  2  1  0  0  0  0
  2  3  1  0  0  0  0
  3 26  1  0  0  0  0
  3  4  2  0  0  0  0
  4  8  1  0  0  0  0
  5  4  1  0  0  0  0
  5  9  1  0  0  0  0
  6  5  2  0  0  0  0
  7  2  2  0  0  0  0
  7  6  1  0  0  0  0
 10  6  1  0  0  0  0
 12 11  1  0  0  0  0
 13  7  1  0  0  0  0
 13 12  2  0  0  0  0
 14 13  1  0  0  0  0
 15 14  2  0  0  0  0
 15 16  1  0  0  0  0
 16 17  2  0  0  0  0
 17 12  1  0  0  0  0
 17 21  1  0  0  0  0
 18 14  1  0  0  0  0
 19 15  1  0  0  0  0
 20 16  1  0  0  0  0
 22 23  1  0  0  0  0
 23 33  1  0  0  0  0
 23 24  2  0  0  0  0
 24 29  1  0  0  0  0
 25 24  1  0  0  0  0
 26 25  2  0  0  0  0
 27 22  2  0  0  0  0
 27 26  1  0  0  0  0
 28 22  1  0  0  0  0
 29 30  1  0  0  0  0
 29 31  1  0  0  0  0
 32 29  1  0  0  0  0
 33 34  1  0  0  0  0
 35 33  2  0  0  0  0
M  END
>  <minimizedAffinity>
-5.62721395

$$$$

 OpenBabel03242510433D

 35 37  0  0  0  0  0  0  0  0999 V2000
   35.9450   29.8680   39.0090 Cl  0  0  0  0  0  0  0  0  0  0  0  0
   36.0640   28.1020   38.9330 C   0  0  0  0  0  0  0  0  0  0  0  0
   35.2810   27.4450   38.0010 C   0  0  0  0  0  0  0  0  0  0  0  0
   35.3790   26.1020   37.9500 C   0  0  0  0  0  0  0  0  0  0  0  0
   36.2490   25.4330   38.8210 C   0  0  0  0  0  0  0  0  0  0  0  0
   37.0220   26.1120   39.7460 C   0  0  0  0  0  0  0  0  0  0  0  0
   36.9320   27.5010   39.8130 C   0  0  0  0  0  0  0  0  0  0  0  0
   34.7940   25.5230   37.2430 H   0  0  0  0  0  0  0  0  0  0  0  0
   36.3230   24.3540   38.7760 H   0  0  0  0  0  0  0  0  0  0  0  0
   37.6880   25.5840   40.4140 H   0  0  0  0  0  0  0  0  0  0  0  0
   35.8740   27.8490   42.3110 F   0  0  0  0  0  0  0  0  0  0  0  0
   37.0860   28.3960   41.9900 C   0  0  0  0  0  0  0  0  0  0  0  0
   37.7170   28.2860   40.7640 C   0  0  0  0  0  0  0  0  0  0  0  0
   38.9360   28.8800   40.5590 C   0  0  0  0  0  0  0  0  0  0  0  0
   39.5130   29.5810   41.5870 C   0  0  0  0  0  0  0  0  0  0  0  0
   38.9030   29.7080   42.8290 C   0  0  0  0  0  0  0  0  0  0  0  0
   37.6810   29.1090   43.0270 C   0  0  0  0  0  0  0  0  0  0  0  0
   39.3510   28.7430   39.5800 H   0  0  0  0  0  0  0  0  0  0  0  0
   40.4820   30.0320   41.3680 H   0  0  0  0  0  0  0  0  0  0  0  0
   39.3930   30.2750   43.6240 H   0  0  0  0  0  0  0  0  0  0  0  0
   37.2230   29.2200   43.9990 H   0  0  0  0  0  0  0  0  0  0  0  0
   33.8940   29.1020   35.0660 C   0  0  0  0  0  0  0  0  0  0  0  0
   32.6700   29.6330   35.5190 C   0  0  0  0  0  0  0  0  0  0  0  0
   32.3460   29.4040   36.8580 C   0  0  0  0  0  0  0  0  0  0  0  0
   33.2200   28.6940   37.6280 N   0  0  0  0  0  0  0  0  0  0  0  0
   34.3920   28.2060   37.1250 C   0  0  0  0  0  0  0  0  0  0  0  0
   34.7060   28.4200   35.8500 N   0  0  0  0  0  0  0  0  0  0  0  0
   34.1960   29.2470   34.0470 H   0  0  0  0  0  0  0  0  0  0  0  0
   31.0710   29.9690   37.3050 C   0  0  0  0  0  0  0  0  0  0  0  0
   31.0160   29.9050   38.6950 F   0  0  0  0  0  0  0  0  0  0  0  0
   30.0870   29.1300   36.8470 F   0  0  0  0  0  0  0  0  0  0  0  0
   30.9180   31.2850   36.9560 F   0  0  0  0  0  0  0  0  0  0  0  0
   31.8770   30.3420   34.5500 C   0  0  0  0  0  0  0  0  0  0  0  0
   31.9520   31.4070   34.4090 H   0  0  0  0  0  0  0  0  0  0  0  0
   31.0170   29.9370   33.7420 O   0  0  0  0  0  0  0  0  0  0  0  0
  2  1  1  0  0  0  0
  2  7  1  0  0  0  0
  3  2  2  0  0  0  0
  4  3  1  0  0  0  0
  4  5  2  0  0  0  0
  5  6  1  0  0  0  0
  6  7  2  0  0  0  0
  6 10  1  0  0  0  0
  7 13  1  0  0  0  0
  8  4  1  0  0  0  0
  9  5  1  0  0  0  0
 12 11  1  0  0  0  0
 12 17  1  0  0  0  0
 13 12  2  0  0  0  0
 14 13  1  0  0  0  0
 14 15  2  0  0  0  0
 15 16  1  0  0  0  0
 16 17  2  0  0  0  0
 16 20  1  0  0  0  0
 17 21  1  0  0  0  0
 18 14  1  0  0  0  0
 19 15  1  0  0  0  0
 22 23  2  0  0  0  0
 22 27  1  0  0  0  0
 23 24  1  0  0  0  0
 24 29  1  0  0  0  0
 24 25  2  0  0  0  0
 26 25  1  0  0  0  0
 26  3  1  0  0  0  0
 27 26  2  0  0  0  0
 28 22  1  0  0  0  0
 29 30  1  0  0  0  0
 31 29  1  0  0  0  0
 32 29  1  0  0  0  0
 33 23  1  0  0  0  0
 34 33  1  0  0  0  0
 35 33  2  0  0  0  0
M  END
>  <minimizedAffinity>
-5.59581375

$$$$

 OpenBabel03242510433D

 35 37  0  0  0  0  0  0  0  0999 V2000
   36.1260   26.3960   38.9510 Cl  0  0  0  0  0  0  0  0  0  0  0  0
   36.3150   27.8420   39.9570 C   0  0  0  0  0  0  0  0  0  0  0  0
   35.6980   29.0050   39.5310 C   0  0  0  0  0  0  0  0  0  0  0  0
   35.8470   30.1000   40.3030 C   0  0  0  0  0  0  0  0  0  0  0  0
   36.6010   30.0250   41.4800 C   0  0  0  0  0  0  0  0  0  0  0  0
   37.2100   28.8500   41.8860 C   0  0  0  0  0  0  0  0  0  0  0  0
   37.0670   27.7090   41.0990 C   0  0  0  0  0  0  0  0  0  0  0  0
   35.3900   31.0450   40.0300 H   0  0  0  0  0  0  0  0  0  0  0  0
   36.7170   30.9080   42.0970 H   0  0  0  0  0  0  0  0  0  0  0  0
   37.7910   28.8050   42.7960 H   0  0  0  0  0  0  0  0  0  0  0  0
   39.6750   27.3280   40.3640 F   0  0  0  0  0  0  0  0  0  0  0  0
   38.9960   26.3520   41.0400 C   0  0  0  0  0  0  0  0  0  0  0  0
   37.6810   26.4330   41.4620 C   0  0  0  0  0  0  0  0  0  0  0  0
   37.1060   25.3850   42.1350 C   0  0  0  0  0  0  0  0  0  0  0  0
   37.8560   24.2630   42.3790 C   0  0  0  0  0  0  0  0  0  0  0  0
   39.1790   24.1530   41.9680 C   0  0  0  0  0  0  0  0  0  0  0  0
   39.7480   25.2080   41.2940 C   0  0  0  0  0  0  0  0  0  0  0  0
   36.0840   25.5350   42.4240 H   0  0  0  0  0  0  0  0  0  0  0  0
   37.3480   23.4620   42.9180 H   0  0  0  0  0  0  0  0  0  0  0  0
   39.7440   23.2430   42.1810 H   0  0  0  0  0  0  0  0  0  0  0  0
   40.7770   25.1030   40.9830 H   0  0  0  0  0  0  0  0  0  0  0  0
   32.9150   28.9440   37.1790 C   0  0  0  0  0  0  0  0  0  0  0  0
   33.5300   29.0490   35.9170 C   0  0  0  0  0  0  0  0  0  0  0  0
   34.9240   29.1370   35.9060 C   0  0  0  0  0  0  0  0  0  0  0  0
   35.5880   29.1170   37.0970 N   0  0  0  0  0  0  0  0  0  0  0  0
   34.9290   29.0130   38.2890 C   0  0  0  0  0  0  0  0  0  0  0  0
   33.6010   28.9290   38.3060 N   0  0  0  0  0  0  0  0  0  0  0  0
   31.8470   28.8720   37.2500 H   0  0  0  0  0  0  0  0  0  0  0  0
   35.5400   29.2410   34.5820 C   0  0  0  0  0  0  0  0  0  0  0  0
   36.9230   29.2910   34.7340 F   0  0  0  0  0  0  0  0  0  0  0  0
   35.1700   30.4610   34.0710 F   0  0  0  0  0  0  0  0  0  0  0  0
   35.2610   28.1690   33.7760 F   0  0  0  0  0  0  0  0  0  0  0  0
   32.6570   29.0680   34.7730 C   0  0  0  0  0  0  0  0  0  0  0  0
   32.6160   28.2600   34.0630 H   0  0  0  0  0  0  0  0  0  0  0  0
   31.8390   29.9260   34.3830 O   0  0  0  0  0  0  0  0  0  0  0  0
  1  2  1  0  0  0  0
  2  7  1  0  0  0  0
  3  2  2  0  0  0  0
  3  4  1  0  0  0  0
  4  5  2  0  0  0  0
  5  6  1  0  0  0  0
  5  9  1  0  0  0  0
  6 10  1  0  0  0  0
  7 13  1  0  0  0  0
  7  6  2  0  0  0  0
  8  4  1  0  0  0  0
 11 12  1  0  0  0  0
 12 17  2  0  0  0  0
 12 13  1  0  0  0  0
 13 14  2  0  0  0  0
 14 15  1  0  0  0  0
 14 18  1  0  0  0  0
 15 19  1  0  0  0  0
 16 20  1  0  0  0  0
 16 15  2  0  0  0  0
 17 16  1  0  0  0  0
 21 17  1  0  0  0  0
 22 28  1  0  0  0  0
 22 27  1  0  0  0  0
 23 22  2  0  0  0  0
 24 23  1  0  0  0  0
 24 25  2  0  0  0  0
 25 26  1  0  0  0  0
 26 27  2  0  0  0  0
 26  3  1  0  0  0  0
 29 30  1  0  0  0  0
 29 24  1  0  0  0  0
 31 29  1  0  0  0  0
 32 29  1  0  0  0  0
 33 23  1  0  0  0  0
 34 33  1  0  0  0  0
 35 33  2  0  0  0  0
M  END
>  <minimizedAffinity>
-5.53113794

$$$$

 OpenBabel03242510433D

 35 37  0  0  0  0  0  0  0  0999 V2000
   40.4080   29.8500   39.7050 Cl  0  0  0  0  0  0  0  0  0  0  0  0
   39.0230   30.1390   38.6390 C   0  0  0  0  0  0  0  0  0  0  0  0
   38.0690   29.1430   38.5410 C   0  0  0  0  0  0  0  0  0  0  0  0
   37.0190   29.3710   37.7280 C   0  0  0  0  0  0  0  0  0  0  0  0
   36.9320   30.5810   37.0270 C   0  0  0  0  0  0  0  0  0  0  0  0
   37.9000   31.5640   37.1390 C   0  0  0  0  0  0  0  0  0  0  0  0
   38.9920   31.3430   37.9750 C   0  0  0  0  0  0  0  0  0  0  0  0
   36.2330   28.6340   37.6040 H   0  0  0  0  0  0  0  0  0  0  0  0
   36.0860   30.7600   36.3740 H   0  0  0  0  0  0  0  0  0  0  0  0
   37.8220   32.4920   36.5920 H   0  0  0  0  0  0  0  0  0  0  0  0
   38.7200   33.1170   40.0390 F   0  0  0  0  0  0  0  0  0  0  0  0
   39.8100   33.1750   39.2160 C   0  0  0  0  0  0  0  0  0  0  0  0
   40.0540   32.3330   38.1460 C   0  0  0  0  0  0  0  0  0  0  0  0
   41.1880   32.4870   37.3890 C   0  0  0  0  0  0  0  0  0  0  0  0
   42.0690   33.4880   37.7130 C   0  0  0  0  0  0  0  0  0  0  0  0
   41.8510   34.3480   38.7830 C   0  0  0  0  0  0  0  0  0  0  0  0
   40.7120   34.1860   39.5370 C   0  0  0  0  0  0  0  0  0  0  0  0
   41.2940   31.7920   36.5810 H   0  0  0  0  0  0  0  0  0  0  0  0
   42.9530   33.5640   37.0780 H   0  0  0  0  0  0  0  0  0  0  0  0
   42.5760   35.1330   39.0100 H   0  0  0  0  0  0  0  0  0  0  0  0
   40.5610   34.8650   40.3630 H   0  0  0  0  0  0  0  0  0  0  0  0
   39.0770   25.7760   39.5050 C   0  0  0  0  0  0  0  0  0  0  0  0
   38.5010   25.5960   40.7770 C   0  0  0  0  0  0  0  0  0  0  0  0
   37.7570   26.6650   41.2830 C   0  0  0  0  0  0  0  0  0  0  0  0
   37.6400   27.7930   40.5270 N   0  0  0  0  0  0  0  0  0  0  0  0
   38.2260   27.9020   39.2980 C   0  0  0  0  0  0  0  0  0  0  0  0
   38.9350   26.8880   38.8100 N   0  0  0  0  0  0  0  0  0  0  0  0
   39.6590   24.9890   39.0650 H   0  0  0  0  0  0  0  0  0  0  0  0
   37.1650   26.4520   42.6050 C   0  0  0  0  0  0  0  0  0  0  0  0
   38.1850   26.4260   43.5530 F   0  0  0  0  0  0  0  0  0  0  0  0
   36.6240   25.1900   42.5960 F   0  0  0  0  0  0  0  0  0  0  0  0
   36.3000   27.4490   42.9710 F   0  0  0  0  0  0  0  0  0  0  0  0
   38.7510   24.3360   41.4270 C   0  0  0  0  0  0  0  0  0  0  0  0
   39.1860   24.2690   42.4090 H   0  0  0  0  0  0  0  0  0  0  0  0
   38.5450   23.1660   41.0480 O   0  0  0  0  0  0  0  0  0  0  0  0
  2  1  1  0  0  0  0
  3  2  1  0  0  0  0
  3 26  1  0  0  0  0
  4  3  2  0  0  0  0
  5  6  2  0  0  0  0
  5  4  1  0  0  0  0
  6  7  1  0  0  0  0
  7 13  1  0  0  0  0
  7  2  2  0  0  0  0
  8  4  1  0  0  0  0
  9  5  1  0  0  0  0
 10  6  1  0  0  0  0
 12 17  1  0  0  0  0
 12 11  1  0  0  0  0
 13 12  2  0  0  0  0
 14 15  2  0  0  0  0
 14 13  1  0  0  0  0
 15 16  1  0  0  0  0
 16 20  1  0  0  0  0
 16 17  2  0  0  0  0
 17 21  1  0  0  0  0
 18 14  1  0  0  0  0
 19 15  1  0  0  0  0
 22 23  1  0  0  0  0
 23 24  2  0  0  0  0
 23 33  1  0  0  0  0
 24 29  1  0  0  0  0
 25 24  1  0  0  0  0
 26 25  2  0  0  0  0
 27 26  1  0  0  0  0
 27 22  2  0  0  0  0
 28 22  1  0  0  0  0
 29 32  1  0  0  0  0
 29 30  1  0  0  0  0
 31 29  1  0  0  0  0
 33 34  1  0  0  0  0
 35 33  2  0  0  0  0
M  END
>  <minimizedAffinity>
-5.50839615

$$$$

 OpenBabel03242510433D

 35 37  0  0  0  0  0  0  0  0999 V2000
   38.6700   27.2580   39.5080 Cl  0  0  0  0  0  0  0  0  0  0  0  0
   39.2380   27.0240   41.1680 C   0  0  0  0  0  0  0  0  0  0  0  0
   39.7640   28.1210   41.8280 C   0  0  0  0  0  0  0  0  0  0  0  0
   40.1940   27.9340   43.0910 C   0  0  0  0  0  0  0  0  0  0  0  0
   40.0960   26.6660   43.6800 C   0  0  0  0  0  0  0  0  0  0  0  0
   39.5680   25.5830   43.0000 C   0  0  0  0  0  0  0  0  0  0  0  0
   39.1190   25.7590   41.6930 C   0  0  0  0  0  0  0  0  0  0  0  0
   40.6160   28.7500   43.6670 H   0  0  0  0  0  0  0  0  0  0  0  0
   40.4430   26.5220   44.6950 H   0  0  0  0  0  0  0  0  0  0  0  0
   39.4990   24.6100   43.4650 H   0  0  0  0  0  0  0  0  0  0  0  0
   36.4590   25.2310   42.0460 F   0  0  0  0  0  0  0  0  0  0  0  0
   37.2020   24.4870   41.1720 C   0  0  0  0  0  0  0  0  0  0  0  0
   38.5500   24.6620   40.9120 C   0  0  0  0  0  0  0  0  0  0  0  0
   39.1910   23.8520   40.0100 C   0  0  0  0  0  0  0  0  0  0  0  0
   38.4740   22.8700   39.3750 C   0  0  0  0  0  0  0  0  0  0  0  0
   37.1190   22.6700   39.6160 C   0  0  0  0  0  0  0  0  0  0  0  0
   36.4840   23.4870   40.5210 C   0  0  0  0  0  0  0  0  0  0  0  0
   40.2330   24.0590   39.8710 H   0  0  0  0  0  0  0  0  0  0  0  0
   39.0340   22.2550   38.6690 H   0  0  0  0  0  0  0  0  0  0  0  0
   36.5820   21.8770   39.0910 H   0  0  0  0  0  0  0  0  0  0  0  0
   35.4320   23.3160   40.6940 H   0  0  0  0  0  0  0  0  0  0  0  0
   41.0500   31.0310   40.0500 C   0  0  0  0  0  0  0  0  0  0  0  0
   39.9190   31.8510   39.8710 C   0  0  0  0  0  0  0  0  0  0  0  0
   38.7110   31.3710   40.3830 C   0  0  0  0  0  0  0  0  0  0  0  0
   38.7050   30.1600   41.0110 N   0  0  0  0  0  0  0  0  0  0  0  0
   39.8400   29.4140   41.1510 C   0  0  0  0  0  0  0  0  0  0  0  0
   40.9930   29.8660   40.6660 N   0  0  0  0  0  0  0  0  0  0  0  0
   42.0050   31.3480   39.6790 H   0  0  0  0  0  0  0  0  0  0  0  0
   37.5520   32.2430   40.1870 C   0  0  0  0  0  0  0  0  0  0  0  0
   36.4860   31.7440   40.9310 F   0  0  0  0  0  0  0  0  0  0  0  0
   37.1850   32.1210   38.8700 F   0  0  0  0  0  0  0  0  0  0  0  0
   37.7710   33.5280   40.6090 F   0  0  0  0  0  0  0  0  0  0  0  0
   40.1250   33.0890   39.1670 C   0  0  0  0  0  0  0  0  0  0  0  0
   39.5100   33.9570   39.3330 H   0  0  0  0  0  0  0  0  0  0  0  0
   40.9660   33.4090   38.3030 O   0  0  0  0  0  0  0  0  0  0  0  0
  1  2  1  0  0  0  0
  2  7  2  0  0  0  0
  2  3  1  0  0  0  0
  3  4  2  0  0  0  0
  4  8  1  0  0  0  0
  4  5  1  0  0  0  0
  5  9  1  0  0  0  0
  6 10  1  0  0  0  0
  6  5  2  0  0  0  0
  7  6  1  0  0  0  0
 12 11  1  0  0  0  0
 13 12  1  0  0  0  0
 13  7  1  0  0  0  0
 14 13  2  0  0  0  0
 15 16  2  0  0  0  0
 15 14  1  0  0  0  0
 16 17  1  0  0  0  0
 17 21  1  0  0  0  0
 17 12  2  0  0  0  0
 18 14  1  0  0  0  0
 19 15  1  0  0  0  0
 20 16  1  0  0  0  0
 22 27  1  0  0  0  0
 23 22  2  0  0  0  0
 23 24  1  0  0  0  0
 24 25  2  0  0  0  0
 25 26  1  0  0  0  0
 26  3  1  0  0  0  0
 27 26  2  0  0  0  0
 28 22  1  0  0  0  0
 29 24  1  0  0  0  0
 29 32  1  0  0  0  0
 29 30  1  0  0  0  0
 31 29  1  0  0  0  0
 33 34  1  0  0  0  0
 33 23  1  0  0  0  0
 35 33  2  0  0  0  0
M  END
>  <minimizedAffinity>
-5.50261784

$$$$
