
 OpenBabel03242523583D

 15 15  0  0  0  0  0  0  0  0999 V2000
   44.5180   36.0210   44.5420 C   0  0  0  0  0  0  0  0  0  0  0  0
   45.2650   35.9040   43.3350 C   0  0  0  0  0  0  0  0  0  0  0  0
   46.1510   34.8410   43.2340 C   0  0  0  0  0  0  0  0  0  0  0  0
   46.2720   33.9660   44.2700 N   0  0  0  0  0  0  0  0  0  0  0  0
   45.5470   34.1100   45.3970 C   0  0  0  0  0  0  0  0  0  0  0  0
   44.6730   35.1390   45.5260 N   0  0  0  0  0  0  0  0  0  0  0  0
   43.8390   36.8430   44.6100 H   0  0  0  0  0  0  0  0  0  0  0  0
   45.1320   36.6270   42.5400 H   0  0  0  0  0  0  0  0  0  0  0  0
   45.8200   33.0570   46.4060 C   0  0  0  0  0  0  0  0  0  0  0  0
   44.9830   33.1560   47.4940 F   0  0  0  0  0  0  0  0  0  0  0  0
   47.1280   33.1500   46.8470 F   0  0  0  0  0  0  0  0  0  0  0  0
   45.6950   31.8020   45.8010 F   0  0  0  0  0  0  0  0  0  0  0  0
   46.9480   34.6620   42.0250 C   0  0  0  0  0  0  0  0  0  0  0  0
   46.6630   33.9060   41.3140 H   0  0  0  0  0  0  0  0  0  0  0  0
   47.9550   35.3920   41.8330 O   0  0  0  0  0  0  0  0  0  0  0  0
  1  7  1  0  0  0  0
  1  6  1  0  0  0  0
  2  1  2  0  0  0  0
  3  2  1  0  0  0  0
  3  4  2  0  0  0  0
  4  5  1  0  0  0  0
  5  6  2  0  0  0  0
  5  9  1  0  0  0  0
  8  2  1  0  0  0  0
  9 11  1  0  0  0  0
  9 10  1  0  0  0  0
 12  9  1  0  0  0  0
 13  3  1  0  0  0  0
 14 13  1  0  0  0  0
 15 13  2  0  0  0  0
M  END
>  <minimizedAffinity>
-4.24337626

>  <minimizedRMSD>
0.438246906

$$$$
