
 OpenBabel03242511503D

 19 20  0  0  1  0  0  0  0  0999 V2000
   37.3250   28.3590   43.2900 C   0  0  1  0  0  0  0  0  0  0  0  0
   37.2360   27.0070   42.7390 C   0  0  2  0  0  0  0  0  0  0  0  0
   38.3870   27.3360   43.6340 C   0  0  0  0  0  0  0  0  0  0  0  0
   36.7850   28.6950   44.2190 H   0  0  0  0  0  0  0  0  0  0  0  0
   36.3740   26.3950   43.0940 H   0  0  0  0  0  0  0  0  0  0  0  0
   38.3420   26.8250   44.6080 H   0  0  0  0  0  0  0  0  0  0  0  0
   39.3860   27.4170   43.2050 H   0  0  0  0  0  0  0  0  0  0  0  0
   36.7650   30.0920   41.6010 C   0  0  0  0  0  0  0  0  0  0  0  0
   37.7120   29.5210   42.4540 C   0  0  0  0  0  0  0  0  0  0  0  0
   38.9870   30.0810   42.4530 C   0  0  0  0  0  0  0  0  0  0  0  0
   39.2400   31.1510   41.6220 N   0  0  0  0  0  0  0  0  0  0  0  0
   38.2990   31.6630   40.8220 C   0  0  0  0  0  0  0  0  0  0  0  0
   37.0400   31.1360   40.8020 N   0  0  0  0  0  0  0  0  0  0  0  0
   35.7390   29.8030   41.4820 H   0  0  0  0  0  0  0  0  0  0  0  0
   39.7370   29.6560   43.1050 H   0  0  0  0  0  0  0  0  0  0  0  0
   38.5880   32.5020   40.2030 H   0  0  0  0  0  0  0  0  0  0  0  0
   37.6130   26.8020   41.3190 C   0  0  0  0  0  0  0  0  0  0  0  0
   38.6810   26.7850   41.0460 H   0  0  0  0  0  0  0  0  0  0  0  0
   36.6960   26.6630   40.5450 O   0  0  0  0  0  0  0  0  0  0  0  0
  1  3  1  0  0  0  0
  1  4  1  1  0  0  0
  2  5  1  1  0  0  0
  2  1  1  0  0  0  0
  2  3  1  0  0  0  0
  3  6  1  0  0  0  0
  7  3  1  0  0  0  0
  8  9  1  0  0  0  0
  9  1  1  0  0  0  0
 10  9  2  0  0  0  0
 10 15  1  0  0  0  0
 11 10  1  0  0  0  0
 12 11  2  0  0  0  0
 13 12  1  0  0  0  0
 13  8  2  0  0  0  0
 14  8  1  0  0  0  0
 16 12  1  0  0  0  0
 17  2  1  0  0  0  0
 18 17  1  0  0  0  0
 19 17  2  0  0  0  0
M  END
>  <minimizedAffinity>
-3.4905231

$$$$

 OpenBabel03242511503D

 19 20  0  0  1  0  0  0  0  0999 V2000
   36.9520   25.1040   42.3060 C   0  0  1  0  0  0  0  0  0  0  0  0
   36.7280   24.6350   40.9400 C   0  0  2  0  0  0  0  0  0  0  0  0
   37.8450   24.0270   41.7270 C   0  0  0  0  0  0  0  0  0  0  0  0
   36.3950   24.7130   43.2030 H   0  0  0  0  0  0  0  0  0  0  0  0
   35.7710   24.0900   40.7650 H   0  0  0  0  0  0  0  0  0  0  0  0
   37.6650   22.9770   42.0010 H   0  0  0  0  0  0  0  0  0  0  0  0
   38.8740   24.2590   41.4510 H   0  0  0  0  0  0  0  0  0  0  0  0
   36.7330   27.5670   42.5350 C   0  0  0  0  0  0  0  0  0  0  0  0
   37.5450   26.4330   42.5910 C   0  0  0  0  0  0  0  0  0  0  0  0
   38.8890   26.6290   42.9010 C   0  0  0  0  0  0  0  0  0  0  0  0
   39.3340   27.9130   43.1320 N   0  0  0  0  0  0  0  0  0  0  0  0
   38.5170   28.9680   43.0660 C   0  0  0  0  0  0  0  0  0  0  0  0
   37.1950   28.8070   42.7640 N   0  0  0  0  0  0  0  0  0  0  0  0
   35.6810   27.6050   42.3270 H   0  0  0  0  0  0  0  0  0  0  0  0
   39.5370   25.7660   42.9510 H   0  0  0  0  0  0  0  0  0  0  0  0
   38.9550   29.9380   43.2610 H   0  0  0  0  0  0  0  0  0  0  0  0
   37.1760   25.4980   39.8200 C   0  0  0  0  0  0  0  0  0  0  0  0
   38.2500   25.5390   39.5720 H   0  0  0  0  0  0  0  0  0  0  0  0
   36.3080   26.1080   39.2440 O   0  0  0  0  0  0  0  0  0  0  0  0
  1  9  1  0  0  0  0
  1  4  1  1  0  0  0
  2  5  1  6  0  0  0
  2  3  1  0  0  0  0
  2  1  1  0  0  0  0
  3  6  1  0  0  0  0
  3  1  1  0  0  0  0
  7  3  1  0  0  0  0
  8  9  2  0  0  0  0
  8 13  1  0  0  0  0
  9 10  1  0  0  0  0
 10 15  1  0  0  0  0
 10 11  2  0  0  0  0
 12 11  1  0  0  0  0
 12 16  1  0  0  0  0
 13 12  2  0  0  0  0
 14  8  1  0  0  0  0
 17  2  1  0  0  0  0
 18 17  1  0  0  0  0
 19 17  2  0  0  0  0
M  END
>  <minimizedAffinity>
-3.42556214

$$$$

 OpenBabel03242511503D

 19 20  0  0  1  0  0  0  0  0999 V2000
   39.9840   25.8890   43.6430 C   0  0  1  0  0  0  0  0  0  0  0  0
   39.5540   24.6120   43.0780 C   0  0  2  0  0  0  0  0  0  0  0  0
   40.8570   25.1860   42.6250 C   0  0  0  0  0  0  0  0  0  0  0  0
   40.5270   25.9900   44.6250 H   0  0  0  0  0  0  0  0  0  0  0  0
   39.5070   23.7560   43.7920 H   0  0  0  0  0  0  0  0  0  0  0  0
   41.7300   24.6150   42.9720 H   0  0  0  0  0  0  0  0  0  0  0  0
   40.9390   25.5780   41.6110 H   0  0  0  0  0  0  0  0  0  0  0  0
   40.0460   28.0650   42.4470 C   0  0  0  0  0  0  0  0  0  0  0  0
   39.3460   27.1710   43.2600 C   0  0  0  0  0  0  0  0  0  0  0  0
   38.0740   27.5560   43.6780 C   0  0  0  0  0  0  0  0  0  0  0  0
   37.5860   28.7800   43.2730 N   0  0  0  0  0  0  0  0  0  0  0  0
   38.2960   29.6020   42.4950 C   0  0  0  0  0  0  0  0  0  0  0  0
   39.5450   29.2520   42.0680 N   0  0  0  0  0  0  0  0  0  0  0  0
   41.0220   27.9310   42.0230 H   0  0  0  0  0  0  0  0  0  0  0  0
   37.5130   26.8810   44.3080 H   0  0  0  0  0  0  0  0  0  0  0  0
   37.8330   30.5430   42.2270 H   0  0  0  0  0  0  0  0  0  0  0  0
   38.4930   24.6260   42.0410 C   0  0  0  0  0  0  0  0  0  0  0  0
   38.7220   25.0400   41.0450 H   0  0  0  0  0  0  0  0  0  0  0  0
   37.4250   24.1680   42.3720 O   0  0  0  0  0  0  0  0  0  0  0  0
  1  4  1  1  0  0  0
  2  1  1  0  0  0  0
  2  5  1  1  0  0  0
  3  6  1  0  0  0  0
  3  2  1  0  0  0  0
  3  1  1  0  0  0  0
  7  3  1  0  0  0  0
  8  9  1  0  0  0  0
  9  1  1  0  0  0  0
  9 10  2  0  0  0  0
 10 15  1  0  0  0  0
 11 10  1  0  0  0  0
 12 11  2  0  0  0  0
 13  8  2  0  0  0  0
 13 12  1  0  0  0  0
 14  8  1  0  0  0  0
 16 12  1  0  0  0  0
 17 19  2  0  0  0  0
 17  2  1  0  0  0  0
 18 17  1  0  0  0  0
M  END
>  <minimizedAffinity>
-3.39615774

$$$$

 OpenBabel03242511503D

 19 20  0  0  1  0  0  0  0  0999 V2000
   37.2450   25.5950   41.2780 C   0  0  1  0  0  0  0  0  0  0  0  0
   38.2090   24.4980   41.3530 C   0  0  2  0  0  0  0  0  0  0  0  0
   36.9660   24.4110   42.1800 C   0  0  0  0  0  0  0  0  0  0  0  0
   36.4520   25.6800   40.4830 H   0  0  0  0  0  0  0  0  0  0  0  0
   38.3350   23.8990   40.4210 H   0  0  0  0  0  0  0  0  0  0  0  0
   36.2690   23.6310   41.8390 H   0  0  0  0  0  0  0  0  0  0  0  0
   37.0420   24.5170   43.2630 H   0  0  0  0  0  0  0  0  0  0  0  0
   38.3180   27.8350   41.2410 C   0  0  0  0  0  0  0  0  0  0  0  0
   37.5080   26.9120   41.9060 C   0  0  0  0  0  0  0  0  0  0  0  0
   37.0010   27.2910   43.1470 C   0  0  0  0  0  0  0  0  0  0  0  0
   37.3250   28.5360   43.6420 N   0  0  0  0  0  0  0  0  0  0  0  0
   38.1060   29.3840   42.9680 C   0  0  0  0  0  0  0  0  0  0  0  0
   38.6160   29.0420   41.7490 N   0  0  0  0  0  0  0  0  0  0  0  0
   38.7790   27.7210   40.2790 H   0  0  0  0  0  0  0  0  0  0  0  0
   36.3710   26.5930   43.6810 H   0  0  0  0  0  0  0  0  0  0  0  0
   38.3070   30.3400   43.4340 H   0  0  0  0  0  0  0  0  0  0  0  0
   39.4480   24.7050   42.1420 C   0  0  0  0  0  0  0  0  0  0  0  0
   40.2520   25.3320   41.7220 H   0  0  0  0  0  0  0  0  0  0  0  0
   39.4860   24.1580   43.2180 O   0  0  0  0  0  0  0  0  0  0  0  0
  1  4  1  6  0  0  0
  1  2  1  0  0  0  0
  1  9  1  0  0  0  0
  1  3  1  0  0  0  0
  2  5  1  6  0  0  0
  2 17  1  0  0  0  0
  2  3  1  0  0  0  0
  3  7  1  0  0  0  0
  6  3  1  0  0  0  0
  8 13  2  0  0  0  0
  8  9  1  0  0  0  0
  9 10  2  0  0  0  0
 10 11  1  0  0  0  0
 10 15  1  0  0  0  0
 12 16  1  0  0  0  0
 12 11  2  0  0  0  0
 13 12  1  0  0  0  0
 14  8  1  0  0  0  0
 17 19  2  0  0  0  0
 18 17  1  0  0  0  0
M  END
>  <minimizedAffinity>
-3.38407588

$$$$

 OpenBabel03242511503D

 19 20  0  0  1  0  0  0  0  0999 V2000
   37.0740   27.0830   42.1270 C   0  0  1  0  0  0  0  0  0  0  0  0
   37.9410   27.5090   43.2240 C   0  0  2  0  0  0  0  0  0  0  0  0
   36.4690   27.4380   43.4680 C   0  0  0  0  0  0  0  0  0  0  0  0
   36.8660   26.0060   41.8730 H   0  0  0  0  0  0  0  0  0  0  0  0
   38.6390   26.7340   43.6190 H   0  0  0  0  0  0  0  0  0  0  0  0
   36.1790   26.6290   44.1560 H   0  0  0  0  0  0  0  0  0  0  0  0
   35.9060   28.3650   43.5880 H   0  0  0  0  0  0  0  0  0  0  0  0
   35.6110   28.7170   40.9610 C   0  0  0  0  0  0  0  0  0  0  0  0
   36.7860   27.9630   40.9690 C   0  0  0  0  0  0  0  0  0  0  0  0
   37.6210   28.0770   39.8590 C   0  0  0  0  0  0  0  0  0  0  0  0
   37.2440   28.9150   38.8310 N   0  0  0  0  0  0  0  0  0  0  0  0
   36.1070   29.6160   38.8700 C   0  0  0  0  0  0  0  0  0  0  0  0
   35.2700   29.5260   39.9440 N   0  0  0  0  0  0  0  0  0  0  0  0
   34.8640   28.7650   41.7300 H   0  0  0  0  0  0  0  0  0  0  0  0
   38.5360   27.5030   39.8420 H   0  0  0  0  0  0  0  0  0  0  0  0
   35.8940   30.2470   38.0170 H   0  0  0  0  0  0  0  0  0  0  0  0
   38.4850   28.8890   43.1930 C   0  0  0  0  0  0  0  0  0  0  0  0
   37.8300   29.7290   43.4800 H   0  0  0  0  0  0  0  0  0  0  0  0
   39.6370   28.9950   42.8490 O   0  0  0  0  0  0  0  0  0  0  0  0
  1  4  1  6  0  0  0
  1  2  1  0  0  0  0
  1  3  1  0  0  0  0
  2  3  1  0  0  0  0
  2  5  1  1  0  0  0
  3  7  1  0  0  0  0
  3  6  1  0  0  0  0
  8  9  1  0  0  0  0
  8 14  1  0  0  0  0
  9  1  1  0  0  0  0
 10  9  2  0  0  0  0
 11 12  2  0  0  0  0
 11 10  1  0  0  0  0
 12 13  1  0  0  0  0
 13  8  2  0  0  0  0
 15 10  1  0  0  0  0
 16 12  1  0  0  0  0
 17  2  1  0  0  0  0
 17 18  1  0  0  0  0
 19 17  2  0  0  0  0
M  END
>  <minimizedAffinity>
-3.37277818

$$$$

 OpenBabel03242511503D

 19 20  0  0  1  0  0  0  0  0999 V2000
   37.0530   27.1240   42.1370 C   0  0  1  0  0  0  0  0  0  0  0  0
   37.8970   27.5940   43.2340 C   0  0  2  0  0  0  0  0  0  0  0  0
   36.4320   27.4400   43.4810 C   0  0  0  0  0  0  0  0  0  0  0  0
   36.9050   26.0390   41.8800 H   0  0  0  0  0  0  0  0  0  0  0  0
   38.6380   26.8580   43.6260 H   0  0  0  0  0  0  0  0  0  0  0  0
   36.1880   26.6140   44.1660 H   0  0  0  0  0  0  0  0  0  0  0  0
   35.8180   28.3330   43.6050 H   0  0  0  0  0  0  0  0  0  0  0  0
   37.5860   28.0470   39.8930 C   0  0  0  0  0  0  0  0  0  0  0  0
   36.7140   27.9910   40.9830 C   0  0  0  0  0  0  0  0  0  0  0  0
   35.5680   28.7810   40.9210 C   0  0  0  0  0  0  0  0  0  0  0  0
   35.3630   29.5620   39.8030 N   0  0  0  0  0  0  0  0  0  0  0  0
   36.2280   29.5820   38.7850 C   0  0  0  0  0  0  0  0  0  0  0  0
   37.3590   28.8190   38.8180 N   0  0  0  0  0  0  0  0  0  0  0  0
   38.5010   27.5020   39.7640 H   0  0  0  0  0  0  0  0  0  0  0  0
   34.8790   28.7550   41.7520 H   0  0  0  0  0  0  0  0  0  0  0  0
   35.9850   30.2260   37.9500 H   0  0  0  0  0  0  0  0  0  0  0  0
   38.3630   29.0030   43.2080 C   0  0  0  0  0  0  0  0  0  0  0  0
   37.6580   29.8050   43.4840 H   0  0  0  0  0  0  0  0  0  0  0  0
   39.5120   29.1730   42.8780 O   0  0  0  0  0  0  0  0  0  0  0  0
  1  4  1  6  0  0  0
  1  2  1  0  0  0  0
  1  3  1  0  0  0  0
  2  3  1  0  0  0  0
  2  5  1  1  0  0  0
  3  7  1  0  0  0  0
  3  6  1  0  0  0  0
  8  9  1  0  0  0  0
  9  1  1  0  0  0  0
 10  9  2  0  0  0  0
 10 15  1  0  0  0  0
 11 10  1  0  0  0  0
 12 13  1  0  0  0  0
 12 11  2  0  0  0  0
 13  8  2  0  0  0  0
 14  8  1  0  0  0  0
 16 12  1  0  0  0  0
 17  2  1  0  0  0  0
 17 18  1  0  0  0  0
 19 17  2  0  0  0  0
M  END
>  <minimizedAffinity>
-3.37163186

$$$$

 OpenBabel03242511503D

 19 20  0  0  1  0  0  0  0  0999 V2000
   36.6400   27.6790   42.2840 C   0  0  1  0  0  0  0  0  0  0  0  0
   37.8690   27.0920   42.8120 C   0  0  2  0  0  0  0  0  0  0  0  0
   37.1040   28.0370   43.6800 C   0  0  0  0  0  0  0  0  0  0  0  0
   35.6350   27.1720   42.3210 H   0  0  0  0  0  0  0  0  0  0  0  0
   37.8460   25.9900   42.9830 H   0  0  0  0  0  0  0  0  0  0  0  0
   36.6280   27.5500   44.5440 H   0  0  0  0  0  0  0  0  0  0  0  0
   37.5190   29.0250   43.8830 H   0  0  0  0  0  0  0  0  0  0  0  0
   36.5250   30.0710   41.6230 C   0  0  0  0  0  0  0  0  0  0  0  0
   36.6600   28.7340   41.2420 C   0  0  0  0  0  0  0  0  0  0  0  0
   36.7920   28.4720   39.8800 C   0  0  0  0  0  0  0  0  0  0  0  0
   36.7810   29.5310   38.9980 N   0  0  0  0  0  0  0  0  0  0  0  0
   36.6480   30.7950   39.4120 C   0  0  0  0  0  0  0  0  0  0  0  0
   36.5180   31.0830   40.7400 N   0  0  0  0  0  0  0  0  0  0  0  0
   36.4280   30.4570   42.6190 H   0  0  0  0  0  0  0  0  0  0  0  0
   36.8980   27.4450   39.5620 H   0  0  0  0  0  0  0  0  0  0  0  0
   36.6500   31.5610   38.6480 H   0  0  0  0  0  0  0  0  0  0  0  0
   39.1660   27.6270   42.3300 C   0  0  0  0  0  0  0  0  0  0  0  0
   39.5250   27.3380   41.3280 H   0  0  0  0  0  0  0  0  0  0  0  0
   39.7490   28.3610   43.0910 O   0  0  0  0  0  0  0  0  0  0  0  0
  1  4  1  6  0  0  0
  1  2  1  0  0  0  0
  1  3  1  0  0  0  0
  2  5  1  1  0  0  0
  2  3  1  0  0  0  0
  3  7  1  0  0  0  0
  3  6  1  0  0  0  0
  8 14  1  0  0  0  0
  9  8  1  0  0  0  0
  9  1  1  0  0  0  0
 10  9  2  0  0  0  0
 11 12  2  0  0  0  0
 11 10  1  0  0  0  0
 12 13  1  0  0  0  0
 13  8  2  0  0  0  0
 15 10  1  0  0  0  0
 16 12  1  0  0  0  0
 17  2  1  0  0  0  0
 17 19  2  0  0  0  0
 18 17  1  0  0  0  0
M  END
>  <minimizedAffinity>
-3.34406734

$$$$

 OpenBabel03242511503D

 19 20  0  0  1  0  0  0  0  0999 V2000
   36.3070   30.6400   41.0600 C   0  0  1  0  0  0  0  0  0  0  0  0
   37.2010   31.7000   40.5970 C   0  0  2  0  0  0  0  0  0  0  0  0
   36.4700   30.8900   39.5760 C   0  0  0  0  0  0  0  0  0  0  0  0
   35.2400   30.8120   41.3740 H   0  0  0  0  0  0  0  0  0  0  0  0
   36.8920   32.7410   40.8510 H   0  0  0  0  0  0  0  0  0  0  0  0
   35.6950   31.4600   39.0410 H   0  0  0  0  0  0  0  0  0  0  0  0
   37.0280   30.1850   38.9590 H   0  0  0  0  0  0  0  0  0  0  0  0
   36.5480   28.1700   40.9600 C   0  0  0  0  0  0  0  0  0  0  0  0
   36.8230   29.3680   41.6210 C   0  0  0  0  0  0  0  0  0  0  0  0
   37.5670   29.2890   42.7970 C   0  0  0  0  0  0  0  0  0  0  0  0
   37.9820   28.0490   43.2340 N   0  0  0  0  0  0  0  0  0  0  0  0
   37.6920   26.9290   42.5660 C   0  0  0  0  0  0  0  0  0  0  0  0
   36.9660   26.9760   41.4110 N   0  0  0  0  0  0  0  0  0  0  0  0
   36.0060   28.0430   40.0430 H   0  0  0  0  0  0  0  0  0  0  0  0
   37.7930   30.2030   43.3260 H   0  0  0  0  0  0  0  0  0  0  0  0
   38.0580   26.0010   42.9850 H   0  0  0  0  0  0  0  0  0  0  0  0
   38.6630   31.4500   40.6340 C   0  0  0  0  0  0  0  0  0  0  0  0
   39.0930   30.6860   39.9650 H   0  0  0  0  0  0  0  0  0  0  0  0
   39.2930   32.1210   41.4150 O   0  0  0  0  0  0  0  0  0  0  0  0
  1  4  1  1  0  0  0
  1  9  1  0  0  0  0
  2 17  1  0  0  0  0
  2  5  1  1  0  0  0
  2  1  1  0  0  0  0
  3  2  1  0  0  0  0
  3  1  1  0  0  0  0
  6  3  1  0  0  0  0
  7  3  1  0  0  0  0
  8 13  2  0  0  0  0
  8  9  1  0  0  0  0
  9 10  2  0  0  0  0
 10 11  1  0  0  0  0
 10 15  1  0  0  0  0
 12 16  1  0  0  0  0
 12 11  2  0  0  0  0
 13 12  1  0  0  0  0
 14  8  1  0  0  0  0
 17 19  2  0  0  0  0
 18 17  1  0  0  0  0
M  END
>  <minimizedAffinity>
-3.33882713

$$$$

 OpenBabel03242511503D

 19 20  0  0  1  0  0  0  0  0999 V2000
   36.8460   27.3800   42.9640 C   0  0  1  0  0  0  0  0  0  0  0  0
   38.0190   27.8790   43.6800 C   0  0  2  0  0  0  0  0  0  0  0  0
   37.3910   28.7570   42.6470 C   0  0  0  0  0  0  0  0  0  0  0  0
   35.7940   27.4530   43.3560 H   0  0  0  0  0  0  0  0  0  0  0  0
   37.8790   28.0640   44.7700 H   0  0  0  0  0  0  0  0  0  0  0  0
   36.8910   29.6410   43.0700 H   0  0  0  0  0  0  0  0  0  0  0  0
   37.9190   28.9350   41.7100 H   0  0  0  0  0  0  0  0  0  0  0  0
   36.9610   26.6910   40.5800 C   0  0  0  0  0  0  0  0  0  0  0  0
   36.9520   26.3250   41.9270 C   0  0  0  0  0  0  0  0  0  0  0  0
   37.0270   24.9640   42.2150 C   0  0  0  0  0  0  0  0  0  0  0  0
   37.1050   24.0690   41.1700 N   0  0  0  0  0  0  0  0  0  0  0  0
   37.1100   24.4700   39.8950 C   0  0  0  0  0  0  0  0  0  0  0  0
   37.0370   25.7960   39.5810 N   0  0  0  0  0  0  0  0  0  0  0  0
   36.9240   27.6850   40.1760 H   0  0  0  0  0  0  0  0  0  0  0  0
   37.0220   24.6560   43.2510 H   0  0  0  0  0  0  0  0  0  0  0  0
   37.1730   23.6970   39.1400 H   0  0  0  0  0  0  0  0  0  0  0  0
   39.3520   27.3510   43.2970 C   0  0  0  0  0  0  0  0  0  0  0  0
   39.5610   26.2770   43.4310 H   0  0  0  0  0  0  0  0  0  0  0  0
   40.1310   28.1600   42.8520 O   0  0  0  0  0  0  0  0  0  0  0  0
  1  4  1  1  0  0  0
  1  2  1  0  0  0  0
  2  5  1  1  0  0  0
  3  1  1  0  0  0  0
  3  6  1  0  0  0  0
  3  2  1  0  0  0  0
  7  3  1  0  0  0  0
  8  9  1  0  0  0  0
  9 10  2  0  0  0  0
  9  1  1  0  0  0  0
 10 15  1  0  0  0  0
 11 10  1  0  0  0  0
 12 11  2  0  0  0  0
 13 12  1  0  0  0  0
 13  8  2  0  0  0  0
 14  8  1  0  0  0  0
 16 12  1  0  0  0  0
 17 18  1  0  0  0  0
 17  2  1  0  0  0  0
 19 17  2  0  0  0  0
M  END
>  <minimizedAffinity>
-3.3101418

$$$$
