
 OpenBabel03252509183D

 35 37  0  0  1  0  0  0  0  0999 V2000
   48.2570   30.2370   47.4070 C   0  0  1  0  0  0  0  0  0  0  0  0
   48.0220   30.9490   48.6940 C   0  0  0  0  0  0  0  0  0  0  0  0
   48.9660   30.5860   49.7960 C   0  0  0  0  0  0  0  0  0  0  0  0
   50.4020   30.4800   49.3350 C   0  0  0  0  0  0  0  0  0  0  0  0
   50.5410   29.7250   48.0350 C   0  0  0  0  0  0  0  0  0  0  0  0
   49.2070   29.0490   47.6920 C   0  0  2  0  0  0  0  0  0  0  0  0
   48.8340   30.8770   46.7260 H   0  0  0  0  0  0  0  0  0  0  0  0
   46.9940   30.6840   49.0650 H   0  0  0  0  0  0  0  0  0  0  0  0
   48.0210   32.0640   48.6100 H   0  0  0  0  0  0  0  0  0  0  0  0
   48.6900   29.5700   50.1770 H   0  0  0  0  0  0  0  0  0  0  0  0
   48.9300   31.3220   50.5970 H   0  0  0  0  0  0  0  0  0  0  0  0
   50.9500   29.9870   50.1640 H   0  0  0  0  0  0  0  0  0  0  0  0
   50.8390   31.4720   49.2090 H   0  0  0  0  0  0  0  0  0  0  0  0
   50.7460   30.4130   47.2020 H   0  0  0  0  0  0  0  0  0  0  0  0
   51.2850   28.9150   48.1150 H   0  0  0  0  0  0  0  0  0  0  0  0
   48.8410   28.4140   48.4990 H   0  0  0  0  0  0  0  0  0  0  0  0
   44.6710   28.6560   46.1930 C   0  0  0  0  0  0  0  0  0  0  0  0
   45.2250   29.5210   45.2370 C   0  0  0  0  0  0  0  0  0  0  0  0
   46.4070   30.0970   45.5270 C   0  0  0  0  0  0  0  0  0  0  0  0
   47.0510   29.8300   46.7500 C   0  0  0  0  0  0  0  0  0  0  0  0
   45.8960   28.6710   47.5590 S   0  0  0  0  0  0  0  0  0  0  0  0
   44.7320   29.7260   44.3000 H   0  0  0  0  0  0  0  0  0  0  0  0
   46.9860   30.7820   44.9270 H   0  0  0  0  0  0  0  0  0  0  0  0
   41.2090   27.6060   45.3220 C   0  0  0  0  0  0  0  0  0  0  0  0
   41.1630   26.3550   45.9560 C   0  0  0  0  0  0  0  0  0  0  0  0
   42.3100   25.9230   46.6520 C   0  0  0  0  0  0  0  0  0  0  0  0
   43.4010   26.7490   46.6680 N   0  0  0  0  0  0  0  0  0  0  0  0
   43.3900   27.9470   46.0380 C   0  0  0  0  0  0  0  0  0  0  0  0
   42.2920   28.3760   45.3640 N   0  0  0  0  0  0  0  0  0  0  0  0
   40.3400   27.9430   44.7890 H   0  0  0  0  0  0  0  0  0  0  0  0
   40.2840   25.7470   45.9130 H   0  0  0  0  0  0  0  0  0  0  0  0
   42.3280   24.9810   47.1520 H   0  0  0  0  0  0  0  0  0  0  0  0
   49.3860   28.3210   46.4030 C   0  0  0  0  0  0  0  0  0  0  0  0
   48.7780   27.4200   46.2740 H   0  0  0  0  0  0  0  0  0  0  0  0
   50.1580   28.6820   45.5190 O   0  0  0  0  0  0  0  0  0  0  0  0
  1  7  1  6  0  0  0
  1  6  1  0  0  0  0
  1  2  1  0  0  0  0
  2  8  1  0  0  0  0
  2  3  1  0  0  0  0
  3 10  1  0  0  0  0
  3 11  1  0  0  0  0
  4  3  1  0  0  0  0
  4 12  1  0  0  0  0
  5 15  1  0  0  0  0
  5  4  1  0  0  0  0
  6  5  1  0  0  0  0
  6 16  1  1  0  0  0
  9  2  1  0  0  0  0
 13  4  1  0  0  0  0
 14  5  1  0  0  0  0
 17 21  1  0  0  0  0
 18 19  1  0  0  0  0
 18 17  2  0  0  0  0
 19 20  2  0  0  0  0
 20  1  1  0  0  0  0
 20 21  1  0  0  0  0
 22 18  1  0  0  0  0
 23 19  1  0  0  0  0
 24 29  2  0  0  0  0
 24 25  1  0  0  0  0
 25 26  2  0  0  0  0
 26 27  1  0  0  0  0
 26 32  1  0  0  0  0
 28 17  1  0  0  0  0
 28 27  2  0  0  0  0
 29 28  1  0  0  0  0
 30 24  1  0  0  0  0
 31 25  1  0  0  0  0
 33  6  1  0  0  0  0
 34 33  1  0  0  0  0
 35 33  2  0  0  0  0
M  END
>  <minimizedAffinity>
-3.49824476

>  <minimizedRMSD>
5.62526131

$$$$
