
 OpenBabel03252509183D

 35 37  0  0  1  0  0  0  0  0999 V2000
   51.3240   28.4910   43.7930 C   0  0  1  0  0  0  0  0  0  0  0  0
   51.1800   28.3720   45.2710 C   0  0  0  0  0  0  0  0  0  0  0  0
   50.7040   27.0380   45.7520 C   0  0  0  0  0  0  0  0  0  0  0  0
   51.3700   25.8810   45.0440 C   0  0  0  0  0  0  0  0  0  0  0  0
   51.4520   26.0830   43.5500 C   0  0  0  0  0  0  0  0  0  0  0  0
   50.5910   27.2890   43.1500 C   0  0  2  0  0  0  0  0  0  0  0  0
   52.3740   28.3420   43.5070 H   0  0  0  0  0  0  0  0  0  0  0  0
   50.4120   29.1200   45.6140 H   0  0  0  0  0  0  0  0  0  0  0  0
   52.1050   28.6240   45.8460 H   0  0  0  0  0  0  0  0  0  0  0  0
   49.6110   26.9500   45.5250 H   0  0  0  0  0  0  0  0  0  0  0  0
   50.8870   26.9230   46.8190 H   0  0  0  0  0  0  0  0  0  0  0  0
   50.7790   24.9830   45.3120 H   0  0  0  0  0  0  0  0  0  0  0  0
   52.3790   25.7250   45.4290 H   0  0  0  0  0  0  0  0  0  0  0  0
   52.4770   26.3370   43.2440 H   0  0  0  0  0  0  0  0  0  0  0  0
   51.0420   25.2180   43.0020 H   0  0  0  0  0  0  0  0  0  0  0  0
   49.5620   27.2010   43.4980 H   0  0  0  0  0  0  0  0  0  0  0  0
   49.3400   31.8860   42.6220 C   0  0  0  0  0  0  0  0  0  0  0  0
   50.6940   31.9030   42.2520 C   0  0  0  0  0  0  0  0  0  0  0  0
   51.4450   30.8350   42.5810 C   0  0  0  0  0  0  0  0  0  0  0  0
   50.8760   29.7480   43.2730 C   0  0  0  0  0  0  0  0  0  0  0  0
   49.1400   30.2740   43.4750 S   0  0  0  0  0  0  0  0  0  0  0  0
   51.1300   32.7350   41.7220 H   0  0  0  0  0  0  0  0  0  0  0  0
   52.4920   30.6630   42.3860 H   0  0  0  0  0  0  0  0  0  0  0  0
   47.2390   34.5320   41.0640 C   0  0  0  0  0  0  0  0  0  0  0  0
   46.5160   34.9660   42.1860 C   0  0  0  0  0  0  0  0  0  0  0  0
   46.7740   34.3400   43.4230 C   0  0  0  0  0  0  0  0  0  0  0  0
   47.7140   33.3460   43.4560 N   0  0  0  0  0  0  0  0  0  0  0  0
   48.3820   32.9680   42.3410 C   0  0  0  0  0  0  0  0  0  0  0  0
   48.1440   33.5620   41.1440 N   0  0  0  0  0  0  0  0  0  0  0  0
   47.0490   35.0030   40.1190 H   0  0  0  0  0  0  0  0  0  0  0  0
   45.7910   35.7480   42.1060 H   0  0  0  0  0  0  0  0  0  0  0  0
   46.2520   34.6320   44.3070 H   0  0  0  0  0  0  0  0  0  0  0  0
   50.7040   27.4550   41.6730 C   0  0  0  0  0  0  0  0  0  0  0  0
   51.7150   27.6230   41.2850 H   0  0  0  0  0  0  0  0  0  0  0  0
   49.7450   27.4120   40.9080 O   0  0  0  0  0  0  0  0  0  0  0  0
  1  7  1  6  0  0  0
  1  2  1  0  0  0  0
  2  8  1  0  0  0  0
  2  3  1  0  0  0  0
  2  9  1  0  0  0  0
  3 11  1  0  0  0  0
  4 12  1  0  0  0  0
  4 13  1  0  0  0  0
  4  3  1  0  0  0  0
  5  4  1  0  0  0  0
  6 16  1  1  0  0  0
  6  5  1  0  0  0  0
  6  1  1  0  0  0  0
 10  3  1  0  0  0  0
 14  5  1  0  0  0  0
 15  5  1  0  0  0  0
 17 21  1  0  0  0  0
 18 19  1  0  0  0  0
 18 17  2  0  0  0  0
 19 20  2  0  0  0  0
 20 21  1  0  0  0  0
 20  1  1  0  0  0  0
 22 18  1  0  0  0  0
 23 19  1  0  0  0  0
 24 29  2  0  0  0  0
 24 25  1  0  0  0  0
 25 26  2  0  0  0  0
 26 27  1  0  0  0  0
 26 32  1  0  0  0  0
 28 17  1  0  0  0  0
 28 27  2  0  0  0  0
 29 28  1  0  0  0  0
 30 24  1  0  0  0  0
 31 25  1  0  0  0  0
 33  6  1  0  0  0  0
 34 33  1  0  0  0  0
 35 33  2  0  0  0  0
M  END
>  <minimizedAffinity>
-2.46658087

>  <minimizedRMSD>
6.31036711

$$$$
