
 OpenBabel03252508383D

 35 37  0  0  0  0  0  0  0  0999 V2000
   45.1460   33.9480   40.6940 C   0  0  0  0  0  0  0  0  0  0  0  0
   44.0950   33.6390   39.8710 C   0  0  0  0  0  0  0  0  0  0  0  0
   44.3980   33.1570   38.6330 C   0  0  0  0  0  0  0  0  0  0  0  0
   45.6770   32.9700   38.1790 C   0  0  0  0  0  0  0  0  0  0  0  0
   46.7130   33.2860   39.0190 C   0  0  0  0  0  0  0  0  0  0  0  0
   46.4640   33.7790   40.2890 C   0  0  0  0  0  0  0  0  0  0  0  0
   43.5810   32.9080   37.9690 H   0  0  0  0  0  0  0  0  0  0  0  0
   45.8560   32.5780   37.1700 H   0  0  0  0  0  0  0  0  0  0  0  0
   47.7310   33.1390   38.6670 H   0  0  0  0  0  0  0  0  0  0  0  0
   40.8090   35.2620   40.7880 C   0  0  0  0  0  0  0  0  0  0  0  0
   42.1040   35.0890   40.2710 C   0  0  0  0  0  0  0  0  0  0  0  0
   42.7580   33.8530   40.3920 C   0  0  0  0  0  0  0  0  0  0  0  0
   42.0570   32.8900   41.0240 N   0  0  0  0  0  0  0  0  0  0  0  0
   40.8300   33.0620   41.5110 C   0  0  0  0  0  0  0  0  0  0  0  0
   40.2060   34.2520   41.3920 N   0  0  0  0  0  0  0  0  0  0  0  0
   40.2020   36.5180   40.6390 N   0  0  0  0  0  0  0  0  0  0  0  0
   42.5950   35.9150   39.7780 H   0  0  0  0  0  0  0  0  0  0  0  0
   40.4000   32.1920   41.9920 H   0  0  0  0  0  0  0  0  0  0  0  0
   40.3710   37.2250   41.4100 H   0  0  0  0  0  0  0  0  0  0  0  0
   39.5960   36.7780   39.8100 H   0  0  0  0  0  0  0  0  0  0  0  0
   47.6240   34.0870   41.1140 C   0  0  0  0  0  0  0  0  0  0  0  0
   48.1510   35.3600   40.9430 C   0  0  0  0  0  0  0  0  0  0  0  0
   49.2610   35.8160   41.6550 C   0  0  0  0  0  0  0  0  0  0  0  0
   49.8490   34.9520   42.5630 C   0  0  0  0  0  0  0  0  0  0  0  0
   49.3320   33.6920   42.7350 C   0  0  0  0  0  0  0  0  0  0  0  0
   48.2360   33.2630   42.0220 C   0  0  0  0  0  0  0  0  0  0  0  0
   47.7260   36.0690   40.2450 H   0  0  0  0  0  0  0  0  0  0  0  0
   49.6380   36.8150   41.4890 H   0  0  0  0  0  0  0  0  0  0  0  0
   50.7050   35.2770   43.1240 H   0  0  0  0  0  0  0  0  0  0  0  0
   49.7980   33.0240   43.4470 H   0  0  0  0  0  0  0  0  0  0  0  0
   47.6690   31.9460   42.1810 C   0  0  0  0  0  0  0  0  0  0  0  0
   47.8920   31.1920   41.4370 H   0  0  0  0  0  0  0  0  0  0  0  0
   46.9390   31.6870   43.1590 O   0  0  0  0  0  0  0  0  0  0  0  0
   44.7470   34.8730   43.1100 N   0  0  0  0  0  0  0  0  0  0  0  0
   44.9180   34.4650   42.0230 C   0  0  0  0  0  0  0  0  0  0  0  0
  1 35  1  0  0  0  0
  2 12  1  0  0  0  0
  2  1  2  0  0  0  0
  3  2  1  0  0  0  0
  4  3  2  0  0  0  0
  4  5  1  0  0  0  0
  5  6  2  0  0  0  0
  6  1  1  0  0  0  0
  6 21  1  0  0  0  0
  7  3  1  0  0  0  0
  8  4  1  0  0  0  0
  9  5  1  0  0  0  0
 10 15  1  0  0  0  0
 11 12  1  0  0  0  0
 11 10  2  0  0  0  0
 12 13  2  0  0  0  0
 13 14  1  0  0  0  0
 14 18  1  0  0  0  0
 15 14  2  0  0  0  0
 16 10  1  0  0  0  0
 16 19  1  0  0  0  0
 17 11  1  0  0  0  0
 20 16  1  0  0  0  0
 21 26  1  0  0  0  0
 22 21  2  0  0  0  0
 22 23  1  0  0  0  0
 23 24  2  0  0  0  0
 24 25  1  0  0  0  0
 24 29  1  0  0  0  0
 25 30  1  0  0  0  0
 26 31  1  0  0  0  0
 26 25  2  0  0  0  0
 27 22  1  0  0  0  0
 28 23  1  0  0  0  0
 31 33  2  0  0  0  0
 32 31  1  0  0  0  0
 35 34  3  0  0  0  0
M  END
>  <minimizedAffinity>
-5.75297594

>  <minimizedRMSD>
0.163563594

$$$$
