
 OpenBabel03242515593D

 22 23  0  0  0  0  0  0  0  0999 V2000
   44.8160   33.1640   41.1670 Cl  0  0  0  0  0  0  0  0  0  0  0  0
   46.3360   34.0020   40.9930 C   0  0  0  0  0  0  0  0  0  0  0  0
   46.8550   34.7520   42.0100 C   0  0  0  0  0  0  0  0  0  0  0  0
   48.0640   35.3750   41.7730 C   0  0  0  0  0  0  0  0  0  0  0  0
   48.7290   35.2610   40.5880 C   0  0  0  0  0  0  0  0  0  0  0  0
   48.2050   34.5080   39.5700 C   0  0  0  0  0  0  0  0  0  0  0  0
   47.0080   33.8850   39.7900 C   0  0  0  0  0  0  0  0  0  0  0  0
   48.4660   35.9680   42.5900 H   0  0  0  0  0  0  0  0  0  0  0  0
   49.6690   35.7890   40.5030 H   0  0  0  0  0  0  0  0  0  0  0  0
   48.7310   34.4160   38.6250 H   0  0  0  0  0  0  0  0  0  0  0  0
   44.4860   35.9400   44.7140 C   0  0  0  0  0  0  0  0  0  0  0  0
   45.1910   35.8670   43.5110 C   0  0  0  0  0  0  0  0  0  0  0  0
   46.1180   34.8450   43.2510 C   0  0  0  0  0  0  0  0  0  0  0  0
   46.2790   33.9390   44.2500 N   0  0  0  0  0  0  0  0  0  0  0  0
   45.6000   34.0150   45.4050 C   0  0  0  0  0  0  0  0  0  0  0  0
   44.7080   34.9990   45.6520 N   0  0  0  0  0  0  0  0  0  0  0  0
   43.7780   36.7340   44.8950 H   0  0  0  0  0  0  0  0  0  0  0  0
   45.0160   36.6200   42.7550 H   0  0  0  0  0  0  0  0  0  0  0  0
   45.8500   33.2080   46.0950 H   0  0  0  0  0  0  0  0  0  0  0  0
   46.4300   33.0770   38.7180 C   0  0  0  0  0  0  0  0  0  0  0  0
   45.8160   32.2070   38.8980 H   0  0  0  0  0  0  0  0  0  0  0  0
   46.6200   33.3580   37.5070 O   0  0  0  0  0  0  0  0  0  0  0  0
  2  1  1  0  0  0  0
  2  3  1  0  0  0  0
  3 13  1  0  0  0  0
  4  3  2  0  0  0  0
  4  8  1  0  0  0  0
  5  4  1  0  0  0  0
  6  7  1  0  0  0  0
  6  5  2  0  0  0  0
  7  2  2  0  0  0  0
  9  5  1  0  0  0  0
 10  6  1  0  0  0  0
 11 17  1  0  0  0  0
 11 16  1  0  0  0  0
 12 11  2  0  0  0  0
 13 12  1  0  0  0  0
 13 14  2  0  0  0  0
 14 15  1  0  0  0  0
 15 16  2  0  0  0  0
 15 19  1  0  0  0  0
 18 12  1  0  0  0  0
 20 21  1  0  0  0  0
 20  7  1  0  0  0  0
 22 20  2  0  0  0  0
M  END
>  <minimizedAffinity>
-5.14250183

>  <minimizedRMSD>
0.42843914

$$$$
