
 OpenBabel03252507273D

 21 22  0  0  0  0  0  0  0  0999 V2000
   37.7920   28.3750   42.4530 C   0  0  0  0  0  0  0  0  0  0  0  0
   36.6120   27.8160   41.9580 C   0  0  0  0  0  0  0  0  0  0  0  0
   35.8580   28.5920   41.0480 C   0  0  0  0  0  0  0  0  0  0  0  0
   36.3170   29.8410   40.7010 N   0  0  0  0  0  0  0  0  0  0  0  0
   37.4730   30.3200   41.2210 C   0  0  0  0  0  0  0  0  0  0  0  0
   38.1970   29.6080   42.0770 N   0  0  0  0  0  0  0  0  0  0  0  0
   36.2630   26.8350   42.2390 H   0  0  0  0  0  0  0  0  0  0  0  0
   34.9420   28.1980   40.6440 H   0  0  0  0  0  0  0  0  0  0  0  0
   37.9120   31.6490   40.8170 C   0  0  0  0  0  0  0  0  0  0  0  0
   37.1070   32.4370   40.0050 C   0  0  0  0  0  0  0  0  0  0  0  0
   37.4290   33.7040   39.5660 C   0  0  0  0  0  0  0  0  0  0  0  0
   38.6630   34.1610   40.0090 C   0  0  0  0  0  0  0  0  0  0  0  0
   39.4820   33.3910   40.8210 C   0  0  0  0  0  0  0  0  0  0  0  0
   39.1080   32.1310   41.2280 N   0  0  0  0  0  0  0  0  0  0  0  0
   36.1500   32.0250   39.6880 H   0  0  0  0  0  0  0  0  0  0  0  0
   36.7680   34.2560   38.9440 H   0  0  0  0  0  0  0  0  0  0  0  0
   38.9950   35.1450   39.7120 H   0  0  0  0  0  0  0  0  0  0  0  0
   40.4430   33.7340   41.1720 H   0  0  0  0  0  0  0  0  0  0  0  0
   38.5910   27.5960   43.3930 C   0  0  0  0  0  0  0  0  0  0  0  0
   38.0950   26.9590   44.1130 H   0  0  0  0  0  0  0  0  0  0  0  0
   39.8460   27.6510   43.3790 O   0  0  0  0  0  0  0  0  0  0  0  0
  1 19  1  0  0  0  0
  2  7  1  0  0  0  0
  2  1  2  0  0  0  0
  3  2  1  0  0  0  0
  4  3  2  0  0  0  0
  4  5  1  0  0  0  0
  5  6  2  0  0  0  0
  6  1  1  0  0  0  0
  8  3  1  0  0  0  0
  9  5  1  0  0  0  0
  9 14  1  0  0  0  0
 10  9  2  0  0  0  0
 11 10  1  0  0  0  0
 11 12  2  0  0  0  0
 12 13  1  0  0  0  0
 13 18  1  0  0  0  0
 13 14  2  0  0  0  0
 15 10  1  0  0  0  0
 16 11  1  0  0  0  0
 17 12  1  0  0  0  0
 19 20  1  0  0  0  0
 21 19  2  0  0  0  0
M  END
>  <minimizedAffinity>
-4.26551294

$$$$

 OpenBabel03252507273D

 21 22  0  0  0  0  0  0  0  0999 V2000
   37.4400   32.3230   39.5630 C   0  0  0  0  0  0  0  0  0  0  0  0
   37.2920   31.9290   38.2310 C   0  0  0  0  0  0  0  0  0  0  0  0
   37.1320   30.5470   37.9760 C   0  0  0  0  0  0  0  0  0  0  0  0
   37.1310   29.6730   39.0370 N   0  0  0  0  0  0  0  0  0  0  0  0
   37.2800   30.1260   40.3050 C   0  0  0  0  0  0  0  0  0  0  0  0
   37.4310   31.4190   40.5670 N   0  0  0  0  0  0  0  0  0  0  0  0
   37.2950   32.6270   37.4080 H   0  0  0  0  0  0  0  0  0  0  0  0
   37.0160   30.2030   36.9640 H   0  0  0  0  0  0  0  0  0  0  0  0
   37.2700   29.1530   41.3900 C   0  0  0  0  0  0  0  0  0  0  0  0
   36.9640   27.8230   41.1370 C   0  0  0  0  0  0  0  0  0  0  0  0
   36.9260   26.8270   42.0900 C   0  0  0  0  0  0  0  0  0  0  0  0
   37.2280   27.2600   43.3740 C   0  0  0  0  0  0  0  0  0  0  0  0
   37.5360   28.5830   43.6490 C   0  0  0  0  0  0  0  0  0  0  0  0
   37.5580   29.5360   42.6560 N   0  0  0  0  0  0  0  0  0  0  0  0
   36.7360   27.5420   40.1090 H   0  0  0  0  0  0  0  0  0  0  0  0
   36.6850   25.8260   41.8310 H   0  0  0  0  0  0  0  0  0  0  0  0
   37.2210   26.5440   44.1830 H   0  0  0  0  0  0  0  0  0  0  0  0
   37.7720   28.9330   44.6430 H   0  0  0  0  0  0  0  0  0  0  0  0
   37.6060   33.7430   39.8550 C   0  0  0  0  0  0  0  0  0  0  0  0
   36.8620   34.4480   39.5110 H   0  0  0  0  0  0  0  0  0  0  0  0
   38.5990   34.1600   40.5020 O   0  0  0  0  0  0  0  0  0  0  0  0
  1 19  1  0  0  0  0
  1  6  1  0  0  0  0
  2  1  2  0  0  0  0
  3  2  1  0  0  0  0
  3  4  2  0  0  0  0
  4  5  1  0  0  0  0
  5  6  2  0  0  0  0
  5  9  1  0  0  0  0
  7  2  1  0  0  0  0
  8  3  1  0  0  0  0
  9 14  1  0  0  0  0
 10  9  2  0  0  0  0
 10 11  1  0  0  0  0
 11 12  2  0  0  0  0
 12 13  1  0  0  0  0
 12 17  1  0  0  0  0
 13 18  1  0  0  0  0
 14 13  2  0  0  0  0
 15 10  1  0  0  0  0
 16 11  1  0  0  0  0
 19 21  2  0  0  0  0
 20 19  1  0  0  0  0
M  END
>  <minimizedAffinity>
-4.20307398

$$$$

 OpenBabel03252507273D

 21 22  0  0  0  0  0  0  0  0999 V2000
   39.6380   32.8470   40.5430 C   0  0  0  0  0  0  0  0  0  0  0  0
   38.7110   33.6200   39.8400 C   0  0  0  0  0  0  0  0  0  0  0  0
   37.3850   33.1340   39.7640 C   0  0  0  0  0  0  0  0  0  0  0  0
   37.0790   31.9420   40.3770 N   0  0  0  0  0  0  0  0  0  0  0  0
   38.0310   31.2440   41.0430 C   0  0  0  0  0  0  0  0  0  0  0  0
   39.2820   31.6820   41.1270 N   0  0  0  0  0  0  0  0  0  0  0  0
   38.9660   34.5530   39.3640 H   0  0  0  0  0  0  0  0  0  0  0  0
   36.6410   33.6990   39.2320 H   0  0  0  0  0  0  0  0  0  0  0  0
   37.6480   29.9870   41.6740 C   0  0  0  0  0  0  0  0  0  0  0  0
   38.3010   29.5480   42.8170 C   0  0  0  0  0  0  0  0  0  0  0  0
   38.0190   28.3770   43.4880 C   0  0  0  0  0  0  0  0  0  0  0  0
   36.9920   27.6340   42.9210 C   0  0  0  0  0  0  0  0  0  0  0  0
   36.3260   28.0530   41.7790 C   0  0  0  0  0  0  0  0  0  0  0  0
   36.6530   29.2330   41.1510 N   0  0  0  0  0  0  0  0  0  0  0  0
   39.0990   30.1740   43.2160 H   0  0  0  0  0  0  0  0  0  0  0  0
   38.5570   28.0980   44.3590 H   0  0  0  0  0  0  0  0  0  0  0  0
   36.7050   26.7000   43.3820 H   0  0  0  0  0  0  0  0  0  0  0  0
   35.5270   27.4850   41.3290 H   0  0  0  0  0  0  0  0  0  0  0  0
   41.0140   33.3240   40.6380 C   0  0  0  0  0  0  0  0  0  0  0  0
   41.5570   33.2020   41.5650 H   0  0  0  0  0  0  0  0  0  0  0  0
   41.5790   33.8740   39.6590 O   0  0  0  0  0  0  0  0  0  0  0  0
  1 19  1  0  0  0  0
  1  6  1  0  0  0  0
  2  1  2  0  0  0  0
  3  2  1  0  0  0  0
  3  4  2  0  0  0  0
  4  5  1  0  0  0  0
  5  6  2  0  0  0  0
  5  9  1  0  0  0  0
  7  2  1  0  0  0  0
  8  3  1  0  0  0  0
  9 10  1  0  0  0  0
 10 15  1  0  0  0  0
 10 11  2  0  0  0  0
 11 16  1  0  0  0  0
 12 17  1  0  0  0  0
 12 11  1  0  0  0  0
 13 12  2  0  0  0  0
 14  9  2  0  0  0  0
 14 13  1  0  0  0  0
 18 13  1  0  0  0  0
 19 20  1  0  0  0  0
 21 19  2  0  0  0  0
M  END
>  <minimizedAffinity>
-4.18963051

$$$$

 OpenBabel03252507273D

 21 22  0  0  0  0  0  0  0  0999 V2000
   37.2430   26.8720   41.7890 C   0  0  0  0  0  0  0  0  0  0  0  0
   37.3630   27.1290   43.1560 C   0  0  0  0  0  0  0  0  0  0  0  0
   37.4720   28.4810   43.5560 C   0  0  0  0  0  0  0  0  0  0  0  0
   37.4540   29.4610   42.5920 N   0  0  0  0  0  0  0  0  0  0  0  0
   37.3340   29.1390   41.2820 C   0  0  0  0  0  0  0  0  0  0  0  0
   37.2310   27.8760   40.8840 N   0  0  0  0  0  0  0  0  0  0  0  0
   37.3760   26.3500   43.9020 H   0  0  0  0  0  0  0  0  0  0  0  0
   37.5670   28.7210   44.6000 H   0  0  0  0  0  0  0  0  0  0  0  0
   37.3210   30.2200   40.3050 C   0  0  0  0  0  0  0  0  0  0  0  0
   37.3670   31.5430   40.7210 C   0  0  0  0  0  0  0  0  0  0  0  0
   37.3570   32.6360   39.8800 C   0  0  0  0  0  0  0  0  0  0  0  0
   37.2970   32.3130   38.5310 C   0  0  0  0  0  0  0  0  0  0  0  0
   37.2500   30.9980   38.0940 C   0  0  0  0  0  0  0  0  0  0  0  0
   37.2620   29.9460   38.9800 N   0  0  0  0  0  0  0  0  0  0  0  0
   37.4130   31.7360   41.7920 H   0  0  0  0  0  0  0  0  0  0  0  0
   37.3940   33.6260   40.2630 H   0  0  0  0  0  0  0  0  0  0  0  0
   37.2850   33.1090   37.8020 H   0  0  0  0  0  0  0  0  0  0  0  0
   37.2030   30.7330   37.0480 H   0  0  0  0  0  0  0  0  0  0  0  0
   37.1290   25.4860   41.3480 C   0  0  0  0  0  0  0  0  0  0  0  0
   37.3130   25.2400   40.3110 H   0  0  0  0  0  0  0  0  0  0  0  0
   36.8210   24.5720   42.1540 O   0  0  0  0  0  0  0  0  0  0  0  0
  1  2  1  0  0  0  0
  2  3  2  0  0  0  0
  2  7  1  0  0  0  0
  3  8  1  0  0  0  0
  4  3  1  0  0  0  0
  5  4  2  0  0  0  0
  6  5  1  0  0  0  0
  6  1  2  0  0  0  0
  9 10  1  0  0  0  0
  9  5  1  0  0  0  0
 10 15  1  0  0  0  0
 11 16  1  0  0  0  0
 11 10  2  0  0  0  0
 12 11  1  0  0  0  0
 13 12  2  0  0  0  0
 13 14  1  0  0  0  0
 14  9  2  0  0  0  0
 17 12  1  0  0  0  0
 18 13  1  0  0  0  0
 19  1  1  0  0  0  0
 19 21  2  0  0  0  0
 20 19  1  0  0  0  0
M  END
>  <minimizedAffinity>
-4.15584517

$$$$

 OpenBabel03252507273D

 21 22  0  0  0  0  0  0  0  0999 V2000
   37.1450   27.1730   41.2920 C   0  0  0  0  0  0  0  0  0  0  0  0
   37.1150   26.9350   42.6680 C   0  0  0  0  0  0  0  0  0  0  0  0
   37.3360   28.0400   43.5240 C   0  0  0  0  0  0  0  0  0  0  0  0
   37.5640   29.2750   42.9660 N   0  0  0  0  0  0  0  0  0  0  0  0
   37.5780   29.4330   41.6200 C   0  0  0  0  0  0  0  0  0  0  0  0
   37.3740   28.4100   40.7990 N   0  0  0  0  0  0  0  0  0  0  0  0
   36.9350   25.9600   43.0920 H   0  0  0  0  0  0  0  0  0  0  0  0
   37.3210   27.8980   44.5890 H   0  0  0  0  0  0  0  0  0  0  0  0
   37.8260   30.7660   41.0860 C   0  0  0  0  0  0  0  0  0  0  0  0
   36.9370   31.3370   40.1850 C   0  0  0  0  0  0  0  0  0  0  0  0
   37.0780   32.5870   39.6210 C   0  0  0  0  0  0  0  0  0  0  0  0
   38.2170   33.2680   40.0310 C   0  0  0  0  0  0  0  0  0  0  0  0
   39.1180   32.7160   40.9290 C   0  0  0  0  0  0  0  0  0  0  0  0
   38.9250   31.4620   41.4600 N   0  0  0  0  0  0  0  0  0  0  0  0
   36.0600   30.7550   39.9010 H   0  0  0  0  0  0  0  0  0  0  0  0
   36.3610   32.9680   38.9370 H   0  0  0  0  0  0  0  0  0  0  0  0
   38.4070   34.2560   39.6370 H   0  0  0  0  0  0  0  0  0  0  0  0
   40.0070   33.2340   41.2550 H   0  0  0  0  0  0  0  0  0  0  0  0
   36.9200   26.0520   40.3870 C   0  0  0  0  0  0  0  0  0  0  0  0
   36.6210   26.2440   39.3650 H   0  0  0  0  0  0  0  0  0  0  0  0
   37.0690   24.8660   40.7730 O   0  0  0  0  0  0  0  0  0  0  0  0
  1  2  1  0  0  0  0
  2  7  1  0  0  0  0
  2  3  2  0  0  0  0
  3  8  1  0  0  0  0
  4  3  1  0  0  0  0
  5  4  2  0  0  0  0
  6  1  2  0  0  0  0
  6  5  1  0  0  0  0
  9 14  1  0  0  0  0
  9  5  1  0  0  0  0
 10  9  2  0  0  0  0
 11 12  2  0  0  0  0
 11 10  1  0  0  0  0
 12 13  1  0  0  0  0
 13 18  1  0  0  0  0
 13 14  2  0  0  0  0
 15 10  1  0  0  0  0
 16 11  1  0  0  0  0
 17 12  1  0  0  0  0
 19 21  2  0  0  0  0
 19  1  1  0  0  0  0
 20 19  1  0  0  0  0
M  END
>  <minimizedAffinity>
-4.13161373

$$$$

 OpenBabel03252507273D

 21 22  0  0  0  0  0  0  0  0999 V2000
   36.9600   30.2620   38.8300 C   0  0  0  0  0  0  0  0  0  0  0  0
   36.6460   31.1700   39.8440 C   0  0  0  0  0  0  0  0  0  0  0  0
   36.3560   30.6400   41.1230 C   0  0  0  0  0  0  0  0  0  0  0  0
   36.3970   29.2770   41.3020 N   0  0  0  0  0  0  0  0  0  0  0  0
   36.7100   28.4550   40.2720 C   0  0  0  0  0  0  0  0  0  0  0  0
   36.9860   28.9310   39.0630 N   0  0  0  0  0  0  0  0  0  0  0  0
   36.6170   32.2360   39.6900 H   0  0  0  0  0  0  0  0  0  0  0  0
   36.1090   31.3050   41.9310 H   0  0  0  0  0  0  0  0  0  0  0  0
   36.7390   27.0200   40.5200 C   0  0  0  0  0  0  0  0  0  0  0  0
   37.0190   26.5320   41.7890 C   0  0  0  0  0  0  0  0  0  0  0  0
   37.0720   25.1970   42.1280 C   0  0  0  0  0  0  0  0  0  0  0  0
   36.8140   24.3330   41.0720 C   0  0  0  0  0  0  0  0  0  0  0  0
   36.5330   24.7990   39.7960 C   0  0  0  0  0  0  0  0  0  0  0  0
   36.4940   26.1460   39.5160 N   0  0  0  0  0  0  0  0  0  0  0  0
   37.2130   27.2580   42.5790 H   0  0  0  0  0  0  0  0  0  0  0  0
   37.2930   24.8880   43.1200 H   0  0  0  0  0  0  0  0  0  0  0  0
   36.8360   23.2680   41.2480 H   0  0  0  0  0  0  0  0  0  0  0  0
   36.3310   24.1390   38.9660 H   0  0  0  0  0  0  0  0  0  0  0  0
   37.2640   30.7800   37.5010 C   0  0  0  0  0  0  0  0  0  0  0  0
   37.7640   31.7340   37.4030 H   0  0  0  0  0  0  0  0  0  0  0  0
   36.9570   30.1350   36.4670 O   0  0  0  0  0  0  0  0  0  0  0  0
  1  6  2  0  0  0  0
  1  2  1  0  0  0  0
  2  3  2  0  0  0  0
  3  4  1  0  0  0  0
  3  8  1  0  0  0  0
  5  9  1  0  0  0  0
  5  4  2  0  0  0  0
  6  5  1  0  0  0  0
  7  2  1  0  0  0  0
  9 10  1  0  0  0  0
 10 11  2  0  0  0  0
 10 15  1  0  0  0  0
 11 16  1  0  0  0  0
 12 17  1  0  0  0  0
 12 11  1  0  0  0  0
 13 12  2  0  0  0  0
 14 13  1  0  0  0  0
 14  9  2  0  0  0  0
 18 13  1  0  0  0  0
 19  1  1  0  0  0  0
 20 19  1  0  0  0  0
 21 19  2  0  0  0  0
M  END
>  <minimizedAffinity>
-3.84683967

$$$$

 OpenBabel03252507273D

 21 22  0  0  0  0  0  0  0  0999 V2000
   39.7500   31.5830   39.1860 C   0  0  0  0  0  0  0  0  0  0  0  0
   40.6400   32.3610   39.9300 C   0  0  0  0  0  0  0  0  0  0  0  0
   40.6780   32.1480   41.3270 C   0  0  0  0  0  0  0  0  0  0  0  0
   39.8490   31.1990   41.8770 N   0  0  0  0  0  0  0  0  0  0  0  0
   39.0090   30.4800   41.0930 C   0  0  0  0  0  0  0  0  0  0  0  0
   38.9570   30.6630   39.7790 N   0  0  0  0  0  0  0  0  0  0  0  0
   41.2850   33.1020   39.4850 H   0  0  0  0  0  0  0  0  0  0  0  0
   41.3500   32.7270   41.9350 H   0  0  0  0  0  0  0  0  0  0  0  0
   38.1530   29.4880   41.7310 C   0  0  0  0  0  0  0  0  0  0  0  0
   38.4650   28.9970   42.9920 C   0  0  0  0  0  0  0  0  0  0  0  0
   37.7240   28.0590   43.6800 C   0  0  0  0  0  0  0  0  0  0  0  0
   36.5960   27.6180   43.0000 C   0  0  0  0  0  0  0  0  0  0  0  0
   36.2670   28.0940   41.7400 C   0  0  0  0  0  0  0  0  0  0  0  0
   37.0450   29.0320   41.1010 N   0  0  0  0  0  0  0  0  0  0  0  0
   39.3620   29.3800   43.4760 H   0  0  0  0  0  0  0  0  0  0  0  0
   38.0170   27.7250   44.6430 H   0  0  0  0  0  0  0  0  0  0  0  0
   35.9590   26.8820   43.4660 H   0  0  0  0  0  0  0  0  0  0  0  0
   35.3930   27.7600   41.2010 H   0  0  0  0  0  0  0  0  0  0  0  0
   39.6900   31.7800   37.7420 C   0  0  0  0  0  0  0  0  0  0  0  0
   38.7960   31.5000   37.2030 H   0  0  0  0  0  0  0  0  0  0  0  0
   40.6610   32.2740   37.1140 O   0  0  0  0  0  0  0  0  0  0  0  0
  1  6  2  0  0  0  0
  1  2  1  0  0  0  0
  2  3  2  0  0  0  0
  3  4  1  0  0  0  0
  3  8  1  0  0  0  0
  5  9  1  0  0  0  0
  5  4  2  0  0  0  0
  6  5  1  0  0  0  0
  7  2  1  0  0  0  0
  9 10  1  0  0  0  0
 10 15  1  0  0  0  0
 10 11  2  0  0  0  0
 11 16  1  0  0  0  0
 12 17  1  0  0  0  0
 12 11  1  0  0  0  0
 13 12  2  0  0  0  0
 14  9  2  0  0  0  0
 14 13  1  0  0  0  0
 18 13  1  0  0  0  0
 19  1  1  0  0  0  0
 20 19  1  0  0  0  0
 21 19  2  0  0  0  0
M  END
>  <minimizedAffinity>
-3.831249

$$$$

 OpenBabel03252507273D

 21 22  0  0  0  0  0  0  0  0999 V2000
   35.5240   29.2000   37.8630 C   0  0  0  0  0  0  0  0  0  0  0  0
   36.4910   29.8690   37.1090 C   0  0  0  0  0  0  0  0  0  0  0  0
   37.7260   30.1510   37.7390 C   0  0  0  0  0  0  0  0  0  0  0  0
   37.9100   29.7580   39.0430 N   0  0  0  0  0  0  0  0  0  0  0  0
   36.9270   29.1110   39.7150 C   0  0  0  0  0  0  0  0  0  0  0  0
   35.7600   28.8370   39.1430 N   0  0  0  0  0  0  0  0  0  0  0  0
   36.3320   30.1720   36.0860 H   0  0  0  0  0  0  0  0  0  0  0  0
   38.4960   30.6640   37.1930 H   0  0  0  0  0  0  0  0  0  0  0  0
   37.1790   28.7180   41.0950 C   0  0  0  0  0  0  0  0  0  0  0  0
   36.7390   27.4890   41.5670 C   0  0  0  0  0  0  0  0  0  0  0  0
   36.9230   27.0240   42.8520 C   0  0  0  0  0  0  0  0  0  0  0  0
   37.6100   27.9020   43.6790 C   0  0  0  0  0  0  0  0  0  0  0  0
   38.0590   29.1350   43.2290 C   0  0  0  0  0  0  0  0  0  0  0  0
   37.8450   29.5470   41.9330 N   0  0  0  0  0  0  0  0  0  0  0  0
   36.2050   26.8410   40.8720 H   0  0  0  0  0  0  0  0  0  0  0  0
   36.5610   26.0720   43.1500 H   0  0  0  0  0  0  0  0  0  0  0  0
   37.7990   27.6180   44.7040 H   0  0  0  0  0  0  0  0  0  0  0  0
   38.5940   29.8270   43.8610 H   0  0  0  0  0  0  0  0  0  0  0  0
   34.2420   28.8960   37.2390 C   0  0  0  0  0  0  0  0  0  0  0  0
   34.2170   28.5410   36.2180 H   0  0  0  0  0  0  0  0  0  0  0  0
   33.1630   29.0370   37.8690 O   0  0  0  0  0  0  0  0  0  0  0  0
  1  6  1  0  0  0  0
  2  3  1  0  0  0  0
  2  1  2  0  0  0  0
  3  4  2  0  0  0  0
  4  5  1  0  0  0  0
  5  9  1  0  0  0  0
  6  5  2  0  0  0  0
  7  2  1  0  0  0  0
  8  3  1  0  0  0  0
  9 10  2  0  0  0  0
  9 14  1  0  0  0  0
 10 11  1  0  0  0  0
 11 16  1  0  0  0  0
 11 12  2  0  0  0  0
 12 17  1  0  0  0  0
 13 12  1  0  0  0  0
 13 18  1  0  0  0  0
 14 13  2  0  0  0  0
 15 10  1  0  0  0  0
 19  1  1  0  0  0  0
 19 21  2  0  0  0  0
 20 19  1  0  0  0  0
M  END
>  <minimizedAffinity>
-3.8089335

$$$$

 OpenBabel03252507273D

 21 22  0  0  0  0  0  0  0  0999 V2000
   37.4900   30.5820   40.6300 C   0  0  0  0  0  0  0  0  0  0  0  0
   36.1460   30.2440   40.4490 C   0  0  0  0  0  0  0  0  0  0  0  0
   35.7170   28.9940   40.9530 C   0  0  0  0  0  0  0  0  0  0  0  0
   36.6300   28.1850   41.5860 N   0  0  0  0  0  0  0  0  0  0  0  0
   37.9200   28.5780   41.7260 C   0  0  0  0  0  0  0  0  0  0  0  0
   38.3440   29.7470   41.2610 N   0  0  0  0  0  0  0  0  0  0  0  0
   35.4410   30.8890   39.9500 H   0  0  0  0  0  0  0  0  0  0  0  0
   34.6910   28.6970   40.8340 H   0  0  0  0  0  0  0  0  0  0  0  0
   38.8430   27.6790   42.4070 C   0  0  0  0  0  0  0  0  0  0  0  0
   38.5680   26.3220   42.4920 C   0  0  0  0  0  0  0  0  0  0  0  0
   39.3720   25.3890   43.1130 C   0  0  0  0  0  0  0  0  0  0  0  0
   40.5270   25.9210   43.6710 C   0  0  0  0  0  0  0  0  0  0  0  0
   40.8220   27.2740   43.5980 C   0  0  0  0  0  0  0  0  0  0  0  0
   39.9800   28.1580   42.9640 N   0  0  0  0  0  0  0  0  0  0  0  0
   37.6460   25.9620   42.0350 H   0  0  0  0  0  0  0  0  0  0  0  0
   39.1040   24.3630   43.1440 H   0  0  0  0  0  0  0  0  0  0  0  0
   41.2150   25.2610   44.1790 H   0  0  0  0  0  0  0  0  0  0  0  0
   41.7170   27.6990   44.0280 H   0  0  0  0  0  0  0  0  0  0  0  0
   37.9600   31.8650   40.1210 C   0  0  0  0  0  0  0  0  0  0  0  0
   38.0040   32.0310   39.0530 H   0  0  0  0  0  0  0  0  0  0  0  0
   38.3130   32.7830   40.9030 O   0  0  0  0  0  0  0  0  0  0  0  0
  1  6  1  0  0  0  0
  2  1  2  0  0  0  0
  2  3  1  0  0  0  0
  3  4  2  0  0  0  0
  4  5  1  0  0  0  0
  5  9  1  0  0  0  0
  6  5  2  0  0  0  0
  7  2  1  0  0  0  0
  8  3  1  0  0  0  0
  9 10  2  0  0  0  0
  9 14  1  0  0  0  0
 10 11  1  0  0  0  0
 11 16  1  0  0  0  0
 11 12  2  0  0  0  0
 12 17  1  0  0  0  0
 13 12  1  0  0  0  0
 13 18  1  0  0  0  0
 14 13  2  0  0  0  0
 15 10  1  0  0  0  0
 19  1  1  0  0  0  0
 19 21  2  0  0  0  0
 20 19  1  0  0  0  0
M  END
>  <minimizedAffinity>
-3.75621033

$$$$
