
 OpenBabel03252508203D

 28 29  0  0  0  0  0  0  0  0999 V2000
   44.4430   33.8020   41.1750 C   0  0  0  0  0  0  0  0  0  0  0  0
   44.2680   32.8470   41.6690 H   0  0  0  0  0  0  0  0  0  0  0  0
   43.9410   34.5840   41.7990 H   0  0  0  0  0  0  0  0  0  0  0  0
   45.8560   34.2170   41.0670 C   0  0  0  0  0  0  0  0  0  0  0  0
   46.6970   33.9310   40.0260 C   0  0  0  0  0  0  0  0  0  0  0  0
   48.0120   34.3160   39.9270 C   0  0  0  0  0  0  0  0  0  0  0  0
   48.5010   35.0610   40.9940 C   0  0  0  0  0  0  0  0  0  0  0  0
   47.6860   35.3720   42.0620 C   0  0  0  0  0  0  0  0  0  0  0  0
   46.3790   34.9620   42.1140 C   0  0  0  0  0  0  0  0  0  0  0  0
   46.2300   33.3410   39.2300 H   0  0  0  0  0  0  0  0  0  0  0  0
   48.6040   34.0520   39.0790 H   0  0  0  0  0  0  0  0  0  0  0  0
   49.5410   35.3710   40.9240 H   0  0  0  0  0  0  0  0  0  0  0  0
   48.1510   35.9520   42.8430 H   0  0  0  0  0  0  0  0  0  0  0  0
   45.6440   35.3690   43.3100 C   0  0  0  0  0  0  0  0  0  0  0  0
   45.5010   34.7430   44.1890 H   0  0  0  0  0  0  0  0  0  0  0  0
   45.0870   36.4940   43.4710 O   0  0  0  0  0  0  0  0  0  0  0  0
   43.7490   33.9200   39.8130 C   0  0  0  0  0  0  0  0  0  0  0  0
   44.3470   34.5840   39.1890 H   0  0  0  0  0  0  0  0  0  0  0  0
   43.6240   32.9450   39.3360 H   0  0  0  0  0  0  0  0  0  0  0  0
   40.9610   35.9770   41.3200 C   0  0  0  0  0  0  0  0  0  0  0  0
   42.2260   35.3640   41.1630 C   0  0  0  0  0  0  0  0  0  0  0  0
   42.4380   34.5910   40.0340 C   0  0  0  0  0  0  0  0  0  0  0  0
   41.4100   34.4670   39.1420 N   0  0  0  0  0  0  0  0  0  0  0  0
   40.2290   35.0610   39.3230 C   0  0  0  0  0  0  0  0  0  0  0  0
   39.9910   35.8190   40.4090 N   0  0  0  0  0  0  0  0  0  0  0  0
   40.9270   36.5590   42.2530 H   0  0  0  0  0  0  0  0  0  0  0  0
   43.0320   35.4570   41.8570 H   0  0  0  0  0  0  0  0  0  0  0  0
   39.4380   34.9420   38.5960 H   0  0  0  0  0  0  0  0  0  0  0  0
  1  2  1  0  0  0  0
  1  3  1  0  0  0  0
  4  1  1  0  0  0  0
  4  9  1  0  0  0  0
  5  4  2  0  0  0  0
  6  5  1  0  0  0  0
  6  7  2  0  0  0  0
  7  8  1  0  0  0  0
  8  9  2  0  0  0  0
  8 13  1  0  0  0  0
  9 14  1  0  0  0  0
 10  5  1  0  0  0  0
 11  6  1  0  0  0  0
 12  7  1  0  0  0  0
 14 16  2  0  0  0  0
 14 15  1  0  0  0  0
 17 22  1  0  0  0  0
 17  1  1  0  0  0  0
 18 17  1  0  0  0  0
 19 17  1  0  0  0  0
 20 26  1  0  0  0  0
 21 20  1  0  0  0  0
 21 27  1  0  0  0  0
 22 21  2  0  0  0  0
 23 24  2  0  0  0  0
 23 22  1  0  0  0  0
 24 25  1  0  0  0  0
 25 20  2  0  0  0  0
 28 24  1  0  0  0  0
M  END
>  <minimizedAffinity>
-4.85218382

>  <minimizedRMSD>
1.47057438

$$$$
