
 OpenBabel03252502113D

 22 23  0  0  0  0  0  0  0  0999 V2000
   43.9970   33.2070   40.9540 Cl  0  0  0  0  0  0  0  0  0  0  0  0
   45.6270   33.6920   40.5650 C   0  0  0  0  0  0  0  0  0  0  0  0
   46.3980   34.3620   41.4550 C   0  0  0  0  0  0  0  0  0  0  0  0
   47.6660   34.6930   41.0460 C   0  0  0  0  0  0  0  0  0  0  0  0
   48.1570   34.3810   39.8150 C   0  0  0  0  0  0  0  0  0  0  0  0
   47.3790   33.7050   38.9170 C   0  0  0  0  0  0  0  0  0  0  0  0
   46.1020   33.3640   39.3110 C   0  0  0  0  0  0  0  0  0  0  0  0
   49.1630   34.6580   39.5270 H   0  0  0  0  0  0  0  0  0  0  0  0
   47.6960   33.4190   37.9140 H   0  0  0  0  0  0  0  0  0  0  0  0
   45.4700   32.8240   38.6000 H   0  0  0  0  0  0  0  0  0  0  0  0
   44.6530   36.1670   44.2950 C   0  0  0  0  0  0  0  0  0  0  0  0
   45.1750   35.8890   43.0220 C   0  0  0  0  0  0  0  0  0  0  0  0
   45.8450   34.6830   42.7660 C   0  0  0  0  0  0  0  0  0  0  0  0
   45.9560   33.8250   43.7960 N   0  0  0  0  0  0  0  0  0  0  0  0
   45.4480   34.1050   45.0170 C   0  0  0  0  0  0  0  0  0  0  0  0
   44.8030   35.2640   45.2690 N   0  0  0  0  0  0  0  0  0  0  0  0
   44.1580   37.1350   44.3600 H   0  0  0  0  0  0  0  0  0  0  0  0
   45.0810   36.5880   42.1940 H   0  0  0  0  0  0  0  0  0  0  0  0
   45.5850   33.3580   45.7840 H   0  0  0  0  0  0  0  0  0  0  0  0
   48.5300   35.4190   41.9880 C   0  0  0  0  0  0  0  0  0  0  0  0
   48.5530   35.1840   43.0390 H   0  0  0  0  0  0  0  0  0  0  0  0
   49.2830   36.3530   41.6080 O   0  0  0  0  0  0  0  0  0  0  0  0
  2  1  1  0  0  0  0
  2  3  1  0  0  0  0
  3 13  1  0  0  0  0
  4  3  2  0  0  0  0
  4 20  1  0  0  0  0
  5  4  1  0  0  0  0
  6  7  1  0  0  0  0
  6  5  2  0  0  0  0
  7  2  2  0  0  0  0
  8  5  1  0  0  0  0
  9  6  1  0  0  0  0
 10  7  1  0  0  0  0
 11 17  1  0  0  0  0
 11 16  1  0  0  0  0
 12 11  2  0  0  0  0
 13 12  1  0  0  0  0
 13 14  2  0  0  0  0
 14 15  1  0  0  0  0
 15 16  2  0  0  0  0
 15 19  1  0  0  0  0
 18 12  1  0  0  0  0
 20 21  1  0  0  0  0
 22 20  2  0  0  0  0
M  END
>  <minimizedAffinity>
-4.94861841

>  <minimizedRMSD>
0.923573196

$$$$
