
 OpenBabel03242510413D

 35 37  0  0  0  0  0  0  0  0999 V2000
   47.5290   31.3880   45.4290 Cl  0  0  0  0  0  0  0  0  0  0  0  0
   46.6630   31.5040   46.9700 C   0  0  0  0  0  0  0  0  0  0  0  0
   45.7810   32.5570   47.1340 C   0  0  0  0  0  0  0  0  0  0  0  0
   45.1260   32.6370   48.3080 C   0  0  0  0  0  0  0  0  0  0  0  0
   45.3550   31.6750   49.3000 C   0  0  0  0  0  0  0  0  0  0  0  0
   46.2430   30.6300   49.1150 C   0  0  0  0  0  0  0  0  0  0  0  0
   46.9280   30.5330   47.9060 C   0  0  0  0  0  0  0  0  0  0  0  0
   44.4200   33.4370   48.5040 H   0  0  0  0  0  0  0  0  0  0  0  0
   44.8260   31.7440   50.2430 H   0  0  0  0  0  0  0  0  0  0  0  0
   46.4110   29.8940   49.8880 H   0  0  0  0  0  0  0  0  0  0  0  0
   49.5240   30.9530   48.6610 F   0  0  0  0  0  0  0  0  0  0  0  0
   49.1600   29.7810   48.0590 C   0  0  0  0  0  0  0  0  0  0  0  0
   47.8820   29.4580   47.6370 C   0  0  0  0  0  0  0  0  0  0  0  0
   47.6360   28.2460   47.0440 C   0  0  0  0  0  0  0  0  0  0  0  0
   48.6750   27.3650   46.8790 C   0  0  0  0  0  0  0  0  0  0  0  0
   49.9690   27.6620   47.2930 C   0  0  0  0  0  0  0  0  0  0  0  0
   50.2070   28.8790   47.8870 C   0  0  0  0  0  0  0  0  0  0  0  0
   46.6190   28.0810   46.7490 H   0  0  0  0  0  0  0  0  0  0  0  0
   48.4220   26.4170   46.4030 H   0  0  0  0  0  0  0  0  0  0  0  0
   50.7710   26.9360   47.1450 H   0  0  0  0  0  0  0  0  0  0  0  0
   51.2180   29.0910   48.2020 H   0  0  0  0  0  0  0  0  0  0  0  0
   44.6100   35.4350   45.2290 C   0  0  0  0  0  0  0  0  0  0  0  0
   45.2940   35.3370   44.0020 C   0  0  0  0  0  0  0  0  0  0  0  0
   46.1630   34.2520   43.8560 C   0  0  0  0  0  0  0  0  0  0  0  0
   46.2890   33.3750   44.8920 N   0  0  0  0  0  0  0  0  0  0  0  0
   45.5940   33.5290   46.0570 C   0  0  0  0  0  0  0  0  0  0  0  0
   44.7660   34.5600   46.2030 N   0  0  0  0  0  0  0  0  0  0  0  0
   43.9290   36.2470   45.3980 H   0  0  0  0  0  0  0  0  0  0  0  0
   46.8600   34.1700   42.5710 C   0  0  0  0  0  0  0  0  0  0  0  0
   47.7780   33.1250   42.6260 F   0  0  0  0  0  0  0  0  0  0  0  0
   47.6000   35.3200   42.4500 F   0  0  0  0  0  0  0  0  0  0  0  0
   46.0180   33.9110   41.5210 F   0  0  0  0  0  0  0  0  0  0  0  0
   45.0380   36.3710   43.0350 C   0  0  0  0  0  0  0  0  0  0  0  0
   44.6870   36.1580   42.0400 H   0  0  0  0  0  0  0  0  0  0  0  0
   45.1510   37.6110   43.1140 O   0  0  0  0  0  0  0  0  0  0  0  0
  1  2  1  0  0  0  0
  2  3  2  0  0  0  0
  2  7  1  0  0  0  0
  3  4  1  0  0  0  0
  4  8  1  0  0  0  0
  4  5  2  0  0  0  0
  5  9  1  0  0  0  0
  6  5  1  0  0  0  0
  6 10  1  0  0  0  0
  7  6  2  0  0  0  0
 12 11  1  0  0  0  0
 13  7  1  0  0  0  0
 13 12  2  0  0  0  0
 14 13  1  0  0  0  0
 15 14  2  0  0  0  0
 15 16  1  0  0  0  0
 16 17  2  0  0  0  0
 17 12  1  0  0  0  0
 17 21  1  0  0  0  0
 18 14  1  0  0  0  0
 19 15  1  0  0  0  0
 20 16  1  0  0  0  0
 22 28  1  0  0  0  0
 22 27  1  0  0  0  0
 23 22  2  0  0  0  0
 24 23  1  0  0  0  0
 24 25  2  0  0  0  0
 25 26  1  0  0  0  0
 26 27  2  0  0  0  0
 26  3  1  0  0  0  0
 29 30  1  0  0  0  0
 29 24  1  0  0  0  0
 31 29  1  0  0  0  0
 32 29  1  0  0  0  0
 33 35  2  0  0  0  0
 33 23  1  0  0  0  0
 34 33  1  0  0  0  0
M  END
>  <minimizedAffinity>
-5.915205

>  <minimizedRMSD>
0.720182717

$$$$
