
 OpenBabel03242522163D

 35 37  0  0  0  0  0  0  0  0999 V2000
   43.0380   35.5000   40.9620 C   0  0  0  0  0  0  0  0  0  0  0  0
   42.2800   35.1000   41.6800 H   0  0  0  0  0  0  0  0  0  0  0  0
   42.9570   36.6180   40.8700 H   0  0  0  0  0  0  0  0  0  0  0  0
   46.3620   34.1160   41.8220 C   0  0  0  0  0  0  0  0  0  0  0  0
   46.5940   34.8040   42.9660 C   0  0  0  0  0  0  0  0  0  0  0  0
   45.0680   35.8320   43.1160 S   0  0  0  0  0  0  0  0  0  0  0  0
   44.3710   35.1170   41.5470 C   0  0  0  0  0  0  0  0  0  0  0  0
   45.2290   34.4090   41.2820 N   0  0  0  0  0  0  0  0  0  0  0  0
   47.4770   34.7150   43.5820 H   0  0  0  0  0  0  0  0  0  0  0  0
   49.0740   32.4940   39.7840 C   0  0  0  0  0  0  0  0  0  0  0  0
   48.2120   33.4910   40.2760 C   0  0  0  0  0  0  0  0  0  0  0  0
   47.3100   33.1280   41.2470 C   0  0  0  0  0  0  0  0  0  0  0  0
   47.3180   31.8190   41.6660 N   0  0  0  0  0  0  0  0  0  0  0  0
   48.1600   30.9110   41.1640 C   0  0  0  0  0  0  0  0  0  0  0  0
   49.0320   31.2400   40.2330 N   0  0  0  0  0  0  0  0  0  0  0  0
   49.7980   32.7520   39.0170 H   0  0  0  0  0  0  0  0  0  0  0  0
   47.9730   29.9530   41.6510 H   0  0  0  0  0  0  0  0  0  0  0  0
   48.3430   34.7830   39.7340 N   0  0  0  0  0  0  0  0  0  0  0  0
   48.6470   34.9460   38.7620 H   0  0  0  0  0  0  0  0  0  0  0  0
   48.1040   35.5710   40.4000 H   0  0  0  0  0  0  0  0  0  0  0  0
   42.8550   34.9100   39.6160 C   0  0  0  0  0  0  0  0  0  0  0  0
   43.4230   33.9370   39.6020 H   0  0  0  0  0  0  0  0  0  0  0  0
   43.3560   35.5210   38.8150 H   0  0  0  0  0  0  0  0  0  0  0  0
   41.5050   34.6350   39.1710 C   0  0  0  0  0  0  0  0  0  0  0  0
   40.8490   34.9640   38.0260 C   0  0  0  0  0  0  0  0  0  0  0  0
   39.5600   34.6630   37.6840 C   0  0  0  0  0  0  0  0  0  0  0  0
   38.8610   33.9480   38.6110 C   0  0  0  0  0  0  0  0  0  0  0  0
   39.5160   33.6010   39.7930 C   0  0  0  0  0  0  0  0  0  0  0  0
   40.7880   33.9200   40.0850 N   0  0  0  0  0  0  0  0  0  0  0  0
   41.4800   35.5410   37.3250 H   0  0  0  0  0  0  0  0  0  0  0  0
   39.1360   34.9720   36.7490 H   0  0  0  0  0  0  0  0  0  0  0  0
   37.8420   33.6510   38.4620 H   0  0  0  0  0  0  0  0  0  0  0  0
   38.7290   32.8190   40.7890 C   0  0  0  0  0  0  0  0  0  0  0  0
   37.6700   32.7640   40.7410 H   0  0  0  0  0  0  0  0  0  0  0  0
   39.2990   32.1990   41.7210 O   0  0  0  0  0  0  0  0  0  0  0  0
  1  7  1  0  0  0  0
  1  2  1  0  0  0  0
  3  1  1  0  0  0  0
  4  5  2  0  0  0  0
  5  6  1  0  0  0  0
  5  9  1  0  0  0  0
  7  6  1  0  0  0  0
  8  7  2  0  0  0  0
  8  4  1  0  0  0  0
 10 15  2  0  0  0  0
 10 11  1  0  0  0  0
 11 12  2  0  0  0  0
 12 13  1  0  0  0  0
 12  4  1  0  0  0  0
 14 17  1  0  0  0  0
 14 13  2  0  0  0  0
 15 14  1  0  0  0  0
 16 10  1  0  0  0  0
 18 11  1  0  0  0  0
 18 20  1  0  0  0  0
 19 18  1  0  0  0  0
 21  1  1  0  0  0  0
 22 21  1  0  0  0  0
 23 21  1  0  0  0  0
 24 21  1  0  0  0  0
 24 29  1  0  0  0  0
 25 24  2  0  0  0  0
 26 25  1  0  0  0  0
 26 27  2  0  0  0  0
 27 28  1  0  0  0  0
 28 29  2  0  0  0  0
 28 33  1  0  0  0  0
 30 25  1  0  0  0  0
 31 26  1  0  0  0  0
 32 27  1  0  0  0  0
 33 35  2  0  0  0  0
 34 33  1  0  0  0  0
M  END
>  <minimizedAffinity>
-5.36792374

>  <minimizedRMSD>
1.73755622

$$$$
