
 OpenBabel03242520173D

 19 20  0  0  0  0  0  0  0  0999 V2000
   37.3530   27.0510   42.3380 C   0  0  0  0  0  0  0  0  0  0  0  0
   36.5730   28.0800   41.7260 C   0  0  0  0  0  0  0  0  0  0  0  0
   37.0250   29.4000   41.7900 C   0  0  0  0  0  0  0  0  0  0  0  0
   38.2010   29.6070   42.4480 N   0  0  0  0  0  0  0  0  0  0  0  0
   38.9130   28.6200   43.0150 C   0  0  0  0  0  0  0  0  0  0  0  0
   38.4930   27.3590   42.9600 N   0  0  0  0  0  0  0  0  0  0  0  0
   35.6510   27.8230   41.2240 H   0  0  0  0  0  0  0  0  0  0  0  0
   39.8460   28.8650   43.5260 H   0  0  0  0  0  0  0  0  0  0  0  0
   36.8390   25.6650   42.2640 C   0  0  0  0  0  0  0  0  0  0  0  0
   37.1570   24.9900   40.9050 C   0  0  0  0  0  0  0  0  0  0  0  0
   37.6990   24.5030   42.2120 C   0  0  0  0  0  0  0  0  0  0  0  0
   35.7980   25.5660   42.6160 H   0  0  0  0  0  0  0  0  0  0  0  0
   36.3070   24.4180   40.5090 H   0  0  0  0  0  0  0  0  0  0  0  0
   37.8180   25.5240   40.2040 H   0  0  0  0  0  0  0  0  0  0  0  0
   38.8080   24.6440   42.3100 H   0  0  0  0  0  0  0  0  0  0  0  0
   37.3200   23.5380   42.6020 H   0  0  0  0  0  0  0  0  0  0  0  0
   36.2600   30.4810   41.1770 C   0  0  0  0  0  0  0  0  0  0  0  0
   35.1920   30.3050   41.0600 H   0  0  0  0  0  0  0  0  0  0  0  0
   36.8060   31.5550   40.8030 O   0  0  0  0  0  0  0  0  0  0  0  0
  1  6  1  0  0  0  0
  2  3  1  0  0  0  0
  2  1  2  0  0  0  0
  3  4  2  0  0  0  0
  4  5  1  0  0  0  0
  5  8  1  0  0  0  0
  6  5  2  0  0  0  0
  7  2  1  0  0  0  0
  9  1  1  0  0  0  0
  9 12  1  0  0  0  0
 10 11  1  0  0  0  0
 10  9  1  0  0  0  0
 11  9  1  0  0  0  0
 11 15  1  0  0  0  0
 11 16  1  0  0  0  0
 13 10  1  0  0  0  0
 14 10  1  0  0  0  0
 17  3  1  0  0  0  0
 18 17  1  0  0  0  0
 19 17  2  0  0  0  0
M  END
>  <minimizedAffinity>
-3.60267019

$$$$

 OpenBabel03242520173D

 19 20  0  0  0  0  0  0  0  0999 V2000
   36.6070   28.7520   41.9250 C   0  0  0  0  0  0  0  0  0  0  0  0
   37.5370   29.8360   41.8570 C   0  0  0  0  0  0  0  0  0  0  0  0
   37.3700   30.8090   40.8690 C   0  0  0  0  0  0  0  0  0  0  0  0
   36.3110   30.6430   40.0270 N   0  0  0  0  0  0  0  0  0  0  0  0
   35.4540   29.6130   40.1140 C   0  0  0  0  0  0  0  0  0  0  0  0
   35.6010   28.6810   41.0510 N   0  0  0  0  0  0  0  0  0  0  0  0
   38.3490   29.8870   42.5680 H   0  0  0  0  0  0  0  0  0  0  0  0
   34.6280   29.5490   39.4020 H   0  0  0  0  0  0  0  0  0  0  0  0
   36.8210   27.7310   42.9750 C   0  0  0  0  0  0  0  0  0  0  0  0
   37.4620   26.4340   42.4160 C   0  0  0  0  0  0  0  0  0  0  0  0
   38.1320   27.3170   43.4210 C   0  0  0  0  0  0  0  0  0  0  0  0
   35.9440   27.5880   43.6290 H   0  0  0  0  0  0  0  0  0  0  0  0
   37.0000   25.5250   42.8240 H   0  0  0  0  0  0  0  0  0  0  0  0
   37.8070   26.4380   41.3700 H   0  0  0  0  0  0  0  0  0  0  0  0
   39.0350   27.8430   43.0140 H   0  0  0  0  0  0  0  0  0  0  0  0
   38.2500   26.9280   44.4530 H   0  0  0  0  0  0  0  0  0  0  0  0
   38.2950   31.9330   40.7660 C   0  0  0  0  0  0  0  0  0  0  0  0
   39.3340   31.7220   41.0130 H   0  0  0  0  0  0  0  0  0  0  0  0
   37.9110   33.0820   40.4120 O   0  0  0  0  0  0  0  0  0  0  0  0
  1  9  1  0  0  0  0
  2  1  1  0  0  0  0
  2  7  1  0  0  0  0
  3  2  2  0  0  0  0
  4  5  2  0  0  0  0
  4  3  1  0  0  0  0
  5  6  1  0  0  0  0
  6  1  2  0  0  0  0
  8  5  1  0  0  0  0
  9 11  1  0  0  0  0
  9 12  1  0  0  0  0
 10 13  1  0  0  0  0
 10  9  1  0  0  0  0
 10 11  1  0  0  0  0
 11 16  1  0  0  0  0
 14 10  1  0  0  0  0
 15 11  1  0  0  0  0
 17  3  1  0  0  0  0
 17 18  1  0  0  0  0
 19 17  2  0  0  0  0
M  END
>  <minimizedAffinity>
-3.53617239

$$$$

 OpenBabel03242520173D

 19 20  0  0  0  0  0  0  0  0999 V2000
   37.6870   26.7690   41.8220 C   0  0  0  0  0  0  0  0  0  0  0  0
   36.9200   27.7170   41.0750 C   0  0  0  0  0  0  0  0  0  0  0  0
   36.7840   29.0160   41.5680 C   0  0  0  0  0  0  0  0  0  0  0  0
   37.4060   29.2830   42.7520 N   0  0  0  0  0  0  0  0  0  0  0  0
   38.1200   28.3720   43.4330 C   0  0  0  0  0  0  0  0  0  0  0  0
   38.2580   27.1310   42.9720 N   0  0  0  0  0  0  0  0  0  0  0  0
   36.4620   27.4150   40.1440 H   0  0  0  0  0  0  0  0  0  0  0  0
   38.5890   28.6620   44.3750 H   0  0  0  0  0  0  0  0  0  0  0  0
   37.8000   25.3970   41.2770 C   0  0  0  0  0  0  0  0  0  0  0  0
   36.8530   24.3990   41.9910 C   0  0  0  0  0  0  0  0  0  0  0  0
   36.7380   24.7480   40.5400 C   0  0  0  0  0  0  0  0  0  0  0  0
   38.8440   25.0620   41.1530 H   0  0  0  0  0  0  0  0  0  0  0  0
   37.3370   23.4360   42.2050 H   0  0  0  0  0  0  0  0  0  0  0  0
   36.1220   24.8030   42.7090 H   0  0  0  0  0  0  0  0  0  0  0  0
   35.8110   25.3300   40.2990 H   0  0  0  0  0  0  0  0  0  0  0  0
   37.0010   23.9670   39.7990 H   0  0  0  0  0  0  0  0  0  0  0  0
   36.0120   30.0140   40.8370 C   0  0  0  0  0  0  0  0  0  0  0  0
   35.2410   29.6290   40.1710 H   0  0  0  0  0  0  0  0  0  0  0  0
   36.2270   31.2510   40.9680 O   0  0  0  0  0  0  0  0  0  0  0  0
  1  6  1  0  0  0  0
  2  3  1  0  0  0  0
  2  1  2  0  0  0  0
  3  4  2  0  0  0  0
  4  5  1  0  0  0  0
  5  8  1  0  0  0  0
  6  5  2  0  0  0  0
  7  2  1  0  0  0  0
  9  1  1  0  0  0  0
  9 10  1  0  0  0  0
 10 13  1  0  0  0  0
 10 14  1  0  0  0  0
 11  9  1  0  0  0  0
 11 10  1  0  0  0  0
 12  9  1  0  0  0  0
 15 11  1  0  0  0  0
 16 11  1  0  0  0  0
 17 19  2  0  0  0  0
 17  3  1  0  0  0  0
 18 17  1  0  0  0  0
M  END
>  <minimizedAffinity>
-3.50687885

$$$$

 OpenBabel03242520173D

 19 20  0  0  0  0  0  0  0  0999 V2000
   37.3160   29.3920   41.9110 C   0  0  0  0  0  0  0  0  0  0  0  0
   36.8280   30.3150   40.9340 C   0  0  0  0  0  0  0  0  0  0  0  0
   37.6080   31.4250   40.6030 C   0  0  0  0  0  0  0  0  0  0  0  0
   38.8000   31.5440   41.2550 N   0  0  0  0  0  0  0  0  0  0  0  0
   39.2330   30.6610   42.1690 C   0  0  0  0  0  0  0  0  0  0  0  0
   38.4990   29.5990   42.4920 N   0  0  0  0  0  0  0  0  0  0  0  0
   35.8690   30.1400   40.4680 H   0  0  0  0  0  0  0  0  0  0  0  0
   40.2000   30.8250   42.6490 H   0  0  0  0  0  0  0  0  0  0  0  0
   36.4580   28.2340   42.2480 C   0  0  0  0  0  0  0  0  0  0  0  0
   37.0310   26.8990   41.7060 C   0  0  0  0  0  0  0  0  0  0  0  0
   36.8620   27.1900   43.1650 C   0  0  0  0  0  0  0  0  0  0  0  0
   35.3880   28.4110   42.0500 H   0  0  0  0  0  0  0  0  0  0  0  0
   36.2570   26.2560   41.2650 H   0  0  0  0  0  0  0  0  0  0  0  0
   38.0380   26.9110   41.2600 H   0  0  0  0  0  0  0  0  0  0  0  0
   37.8370   27.2940   43.7090 H   0  0  0  0  0  0  0  0  0  0  0  0
   36.0810   26.6300   43.7170 H   0  0  0  0  0  0  0  0  0  0  0  0
   37.1490   32.3900   39.6110 C   0  0  0  0  0  0  0  0  0  0  0  0
   36.6220   31.9790   38.7510 H   0  0  0  0  0  0  0  0  0  0  0  0
   37.3510   33.6290   39.7430 O   0  0  0  0  0  0  0  0  0  0  0  0
  1  9  1  0  0  0  0
  1  6  1  0  0  0  0
  2  1  2  0  0  0  0
  3  2  1  0  0  0  0
  3  4  2  0  0  0  0
  4  5  1  0  0  0  0
  5  6  2  0  0  0  0
  5  8  1  0  0  0  0
  7  2  1  0  0  0  0
  9 11  1  0  0  0  0
 10  9  1  0  0  0  0
 10 11  1  0  0  0  0
 11 15  1  0  0  0  0
 11 16  1  0  0  0  0
 12  9  1  0  0  0  0
 13 10  1  0  0  0  0
 14 10  1  0  0  0  0
 17 19  2  0  0  0  0
 17  3  1  0  0  0  0
 18 17  1  0  0  0  0
M  END
>  <minimizedAffinity>
-3.49024034

$$$$

 OpenBabel03242520173D

 19 20  0  0  0  0  0  0  0  0999 V2000
   36.4490   28.9340   41.3290 C   0  0  0  0  0  0  0  0  0  0  0  0
   36.6190   27.5140   41.3280 C   0  0  0  0  0  0  0  0  0  0  0  0
   37.5540   26.9440   42.1940 C   0  0  0  0  0  0  0  0  0  0  0  0
   38.2470   27.8070   42.9910 N   0  0  0  0  0  0  0  0  0  0  0  0
   38.0670   29.1370   42.9700 C   0  0  0  0  0  0  0  0  0  0  0  0
   37.1780   29.6920   42.1500 N   0  0  0  0  0  0  0  0  0  0  0  0
   36.0240   26.9070   40.6610 H   0  0  0  0  0  0  0  0  0  0  0  0
   38.6610   29.7640   43.6390 H   0  0  0  0  0  0  0  0  0  0  0  0
   35.4590   29.5070   40.3890 C   0  0  0  0  0  0  0  0  0  0  0  0
   36.0980   29.9160   39.0370 C   0  0  0  0  0  0  0  0  0  0  0  0
   35.0570   28.8490   39.1660 C   0  0  0  0  0  0  0  0  0  0  0  0
   34.8000   30.2590   40.8550 H   0  0  0  0  0  0  0  0  0  0  0  0
   35.7320   30.8860   38.6740 H   0  0  0  0  0  0  0  0  0  0  0  0
   37.1480   29.6360   38.8560 H   0  0  0  0  0  0  0  0  0  0  0  0
   35.4490   27.8210   38.9480 H   0  0  0  0  0  0  0  0  0  0  0  0
   34.0500   29.0570   38.7520 H   0  0  0  0  0  0  0  0  0  0  0  0
   37.7580   25.5000   42.2260 C   0  0  0  0  0  0  0  0  0  0  0  0
   38.7920   25.1620   42.1850 H   0  0  0  0  0  0  0  0  0  0  0  0
   36.7910   24.6920   42.2960 O   0  0  0  0  0  0  0  0  0  0  0  0
  1  6  1  0  0  0  0
  2  1  2  0  0  0  0
  2  3  1  0  0  0  0
  3 17  1  0  0  0  0
  3  4  2  0  0  0  0
  5  4  1  0  0  0  0
  5  8  1  0  0  0  0
  6  5  2  0  0  0  0
  7  2  1  0  0  0  0
  9 12  1  0  0  0  0
  9  1  1  0  0  0  0
 10 11  1  0  0  0  0
 10  9  1  0  0  0  0
 11  9  1  0  0  0  0
 13 10  1  0  0  0  0
 14 10  1  0  0  0  0
 15 11  1  0  0  0  0
 16 11  1  0  0  0  0
 17 19  2  0  0  0  0
 18 17  1  0  0  0  0
M  END
>  <minimizedAffinity>
-3.45545053

$$$$

 OpenBabel03242520173D

 19 20  0  0  0  0  0  0  0  0999 V2000
   38.4760   26.6910   43.2090 C   0  0  0  0  0  0  0  0  0  0  0  0
   37.6850   25.9420   42.2840 C   0  0  0  0  0  0  0  0  0  0  0  0
   38.1230   24.6780   41.8870 C   0  0  0  0  0  0  0  0  0  0  0  0
   39.3000   24.2480   42.4250 N   0  0  0  0  0  0  0  0  0  0  0  0
   40.0240   24.9730   43.2920 C   0  0  0  0  0  0  0  0  0  0  0  0
   39.6160   26.1790   43.6790 N   0  0  0  0  0  0  0  0  0  0  0  0
   36.7630   26.3640   41.9080 H   0  0  0  0  0  0  0  0  0  0  0  0
   40.9570   24.5610   43.6800 H   0  0  0  0  0  0  0  0  0  0  0  0
   37.9900   28.0340   43.5990 C   0  0  0  0  0  0  0  0  0  0  0  0
   38.7560   29.1710   42.8760 C   0  0  0  0  0  0  0  0  0  0  0  0
   37.2930   28.9170   42.6900 C   0  0  0  0  0  0  0  0  0  0  0  0
   37.8680   28.1550   44.6880 H   0  0  0  0  0  0  0  0  0  0  0  0
   39.0050   30.0050   43.5470 H   0  0  0  0  0  0  0  0  0  0  0  0
   39.4640   28.8930   42.0800 H   0  0  0  0  0  0  0  0  0  0  0  0
   37.0370   28.5470   41.6630 H   0  0  0  0  0  0  0  0  0  0  0  0
   36.5820   29.6600   43.1040 H   0  0  0  0  0  0  0  0  0  0  0  0
   37.3450   23.8800   40.9450 C   0  0  0  0  0  0  0  0  0  0  0  0
   36.5190   24.3910   40.4540 H   0  0  0  0  0  0  0  0  0  0  0  0
   37.6150   22.6680   40.7170 O   0  0  0  0  0  0  0  0  0  0  0  0
  1  9  1  0  0  0  0
  1  6  1  0  0  0  0
  2  1  2  0  0  0  0
  3  2  1  0  0  0  0
  3  4  2  0  0  0  0
  4  5  1  0  0  0  0
  5  6  2  0  0  0  0
  5  8  1  0  0  0  0
  7  2  1  0  0  0  0
  9 12  1  0  0  0  0
 10 13  1  0  0  0  0
 10  9  1  0  0  0  0
 11 10  1  0  0  0  0
 11 16  1  0  0  0  0
 11  9  1  0  0  0  0
 14 10  1  0  0  0  0
 15 11  1  0  0  0  0
 17  3  1  0  0  0  0
 18 17  1  0  0  0  0
 19 17  2  0  0  0  0
M  END
>  <minimizedAffinity>
-3.41378951

$$$$

 OpenBabel03242520173D

 19 20  0  0  0  0  0  0  0  0999 V2000
   36.9980   30.7720   40.8240 C   0  0  0  0  0  0  0  0  0  0  0  0
   37.6810   30.0880   41.8770 C   0  0  0  0  0  0  0  0  0  0  0  0
   37.2030   28.8460   42.2990 C   0  0  0  0  0  0  0  0  0  0  0  0
   36.0950   28.3740   41.6590 N   0  0  0  0  0  0  0  0  0  0  0  0
   35.4730   29.0390   40.6720 C   0  0  0  0  0  0  0  0  0  0  0  0
   35.9200   30.2230   40.2610 N   0  0  0  0  0  0  0  0  0  0  0  0
   38.5540   30.5390   42.3280 H   0  0  0  0  0  0  0  0  0  0  0  0
   34.5900   28.5960   40.2080 H   0  0  0  0  0  0  0  0  0  0  0  0
   37.5240   32.0920   40.4100 C   0  0  0  0  0  0  0  0  0  0  0  0
   38.4130   32.0030   39.1430 C   0  0  0  0  0  0  0  0  0  0  0  0
   37.1210   32.7580   39.1910 C   0  0  0  0  0  0  0  0  0  0  0  0
   37.9410   32.6780   41.2470 H   0  0  0  0  0  0  0  0  0  0  0  0
   39.3190   32.6200   39.2190 H   0  0  0  0  0  0  0  0  0  0  0  0
   38.4620   31.0390   38.6130 H   0  0  0  0  0  0  0  0  0  0  0  0
   36.3170   32.2960   38.5610 H   0  0  0  0  0  0  0  0  0  0  0  0
   37.1670   33.8640   39.1440 H   0  0  0  0  0  0  0  0  0  0  0  0
   37.8710   28.1130   43.3690 C   0  0  0  0  0  0  0  0  0  0  0  0
   37.2520   27.8440   44.2230 H   0  0  0  0  0  0  0  0  0  0  0  0
   39.0950   27.8120   43.3070 O   0  0  0  0  0  0  0  0  0  0  0  0
  1  2  1  0  0  0  0
  2  3  2  0  0  0  0
  2  7  1  0  0  0  0
  3 17  1  0  0  0  0
  4  3  1  0  0  0  0
  5  4  2  0  0  0  0
  6  5  1  0  0  0  0
  6  1  2  0  0  0  0
  8  5  1  0  0  0  0
  9  1  1  0  0  0  0
  9 12  1  0  0  0  0
 10 11  1  0  0  0  0
 10 13  1  0  0  0  0
 10  9  1  0  0  0  0
 11  9  1  0  0  0  0
 14 10  1  0  0  0  0
 15 11  1  0  0  0  0
 16 11  1  0  0  0  0
 17 18  1  0  0  0  0
 19 17  2  0  0  0  0
M  END
>  <minimizedAffinity>
-3.40890312

$$$$

 OpenBabel03242520173D

 19 20  0  0  0  0  0  0  0  0999 V2000
   37.5530   30.7330   40.8720 C   0  0  0  0  0  0  0  0  0  0  0  0
   37.0620   29.6840   41.7100 C   0  0  0  0  0  0  0  0  0  0  0  0
   37.8340   29.2700   42.7980 C   0  0  0  0  0  0  0  0  0  0  0  0
   39.0230   29.9140   42.9780 N   0  0  0  0  0  0  0  0  0  0  0  0
   39.4590   30.8970   42.1740 C   0  0  0  0  0  0  0  0  0  0  0  0
   38.7320   31.3000   41.1350 N   0  0  0  0  0  0  0  0  0  0  0  0
   36.1060   29.2300   41.4910 H   0  0  0  0  0  0  0  0  0  0  0  0
   40.4230   31.3650   42.3820 H   0  0  0  0  0  0  0  0  0  0  0  0
   36.7170   31.1380   39.7200 C   0  0  0  0  0  0  0  0  0  0  0  0
   37.4380   30.9270   38.3640 C   0  0  0  0  0  0  0  0  0  0  0  0
   36.1910   30.1980   38.7550 C   0  0  0  0  0  0  0  0  0  0  0  0
   36.2310   32.1190   39.8570 H   0  0  0  0  0  0  0  0  0  0  0  0
   37.2920   31.7680   37.6730 H   0  0  0  0  0  0  0  0  0  0  0  0
   38.4040   30.3970   38.3690 H   0  0  0  0  0  0  0  0  0  0  0  0
   36.3540   29.1010   38.9210 H   0  0  0  0  0  0  0  0  0  0  0  0
   35.2550   30.4500   38.2160 H   0  0  0  0  0  0  0  0  0  0  0  0
   37.3700   28.2040   43.6790 C   0  0  0  0  0  0  0  0  0  0  0  0
   37.9150   28.0840   44.6130 H   0  0  0  0  0  0  0  0  0  0  0  0
   36.3940   27.4650   43.3730 O   0  0  0  0  0  0  0  0  0  0  0  0
  1  6  2  0  0  0  0
  1  2  1  0  0  0  0
  2  3  2  0  0  0  0
  3  4  1  0  0  0  0
  3 17  1  0  0  0  0
  5  8  1  0  0  0  0
  5  4  2  0  0  0  0
  6  5  1  0  0  0  0
  7  2  1  0  0  0  0
  9 12  1  0  0  0  0
  9  1  1  0  0  0  0
 10 14  1  0  0  0  0
 10 11  1  0  0  0  0
 10  9  1  0  0  0  0
 11 15  1  0  0  0  0
 11  9  1  0  0  0  0
 13 10  1  0  0  0  0
 16 11  1  0  0  0  0
 17 18  1  0  0  0  0
 19 17  2  0  0  0  0
M  END
>  <minimizedAffinity>
-3.39583254

$$$$

 OpenBabel03242520173D

 19 20  0  0  0  0  0  0  0  0999 V2000
   36.4770   28.7620   41.5450 C   0  0  0  0  0  0  0  0  0  0  0  0
   35.8710   28.4390   40.2910 C   0  0  0  0  0  0  0  0  0  0  0  0
   35.7480   29.4380   39.3230 C   0  0  0  0  0  0  0  0  0  0  0  0
   36.2240   30.6700   39.6600 N   0  0  0  0  0  0  0  0  0  0  0  0
   36.7880   30.9450   40.8460 C   0  0  0  0  0  0  0  0  0  0  0  0
   36.9120   30.0010   41.7760 N   0  0  0  0  0  0  0  0  0  0  0  0
   35.5210   27.4320   40.1110 H   0  0  0  0  0  0  0  0  0  0  0  0
   37.1470   31.9580   41.0420 H   0  0  0  0  0  0  0  0  0  0  0  0
   36.5800   27.6830   42.5540 C   0  0  0  0  0  0  0  0  0  0  0  0
   37.9430   26.9460   42.4930 C   0  0  0  0  0  0  0  0  0  0  0  0
   37.4870   27.7360   43.6790 C   0  0  0  0  0  0  0  0  0  0  0  0
   35.6870   27.0370   42.5950 H   0  0  0  0  0  0  0  0  0  0  0  0
   37.8370   25.8570   42.5870 H   0  0  0  0  0  0  0  0  0  0  0  0
   38.7220   27.3550   41.8310 H   0  0  0  0  0  0  0  0  0  0  0  0
   38.0900   28.6670   43.8470 H   0  0  0  0  0  0  0  0  0  0  0  0
   37.2290   27.1800   44.6030 H   0  0  0  0  0  0  0  0  0  0  0  0
   35.1370   29.1510   38.0290 C   0  0  0  0  0  0  0  0  0  0  0  0
   34.1720   28.6480   38.0570 H   0  0  0  0  0  0  0  0  0  0  0  0
   35.6970   29.4670   36.9430 O   0  0  0  0  0  0  0  0  0  0  0  0
  1  6  1  0  0  0  0
  1  9  1  0  0  0  0
  2  1  2  0  0  0  0
  3  4  2  0  0  0  0
  3  2  1  0  0  0  0
  4  5  1  0  0  0  0
  5  8  1  0  0  0  0
  5  6  2  0  0  0  0
  7  2  1  0  0  0  0
  9 12  1  0  0  0  0
  9 11  1  0  0  0  0
 10  9  1  0  0  0  0
 10 13  1  0  0  0  0
 10 11  1  0  0  0  0
 11 15  1  0  0  0  0
 11 16  1  0  0  0  0
 14 10  1  0  0  0  0
 17 18  1  0  0  0  0
 17  3  1  0  0  0  0
 19 17  2  0  0  0  0
M  END
>  <minimizedAffinity>
-3.38780189

$$$$
