
 OpenBabel03252504553D

 25 26  0  0  1  0  0  0  0  0999 V2000
   44.7360   34.7390   41.5040 N   0  0  0  0  0  0  0  0  0  0  0  0
   45.7160   34.1620   40.6530 C   0  0  0  0  0  0  0  0  0  0  0  0
   46.9820   34.3900   41.4110 C   0  0  0  0  0  0  0  0  0  0  0  0
   46.6460   35.0360   42.7340 C   0  0  0  0  0  0  0  0  0  0  0  0
   45.1230   34.7670   42.8330 C   0  0  1  0  0  0  0  0  0  0  0  0
   45.7840   33.6670   39.7250 H   0  0  0  0  0  0  0  0  0  0  0  0
   48.0040   34.1120   41.1300 H   0  0  0  0  0  0  0  0  0  0  0  0
   47.1800   34.5210   43.5500 H   0  0  0  0  0  0  0  0  0  0  0  0
   46.8770   36.1020   42.7390 H   0  0  0  0  0  0  0  0  0  0  0  0
   45.0240   33.7690   43.3010 H   0  0  0  0  0  0  0  0  0  0  0  0
   43.6150   35.2730   40.9550 C   0  0  0  0  0  0  0  0  0  0  0  0
   43.7060   35.2130   39.8180 H   0  0  0  0  0  0  0  0  0  0  0  0
   43.4250   36.3750   41.0790 H   0  0  0  0  0  0  0  0  0  0  0  0
   40.0160   34.4420   41.7330 C   0  0  0  0  0  0  0  0  0  0  0  0
   41.1660   35.2460   41.5310 C   0  0  0  0  0  0  0  0  0  0  0  0
   42.3590   34.5940   41.2320 C   0  0  0  0  0  0  0  0  0  0  0  0
   42.3470   33.2430   41.1550 N   0  0  0  0  0  0  0  0  0  0  0  0
   41.2290   32.4850   41.3530 C   0  0  0  0  0  0  0  0  0  0  0  0
   40.0600   33.0900   41.6440 N   0  0  0  0  0  0  0  0  0  0  0  0
   39.1160   34.9950   41.9600 H   0  0  0  0  0  0  0  0  0  0  0  0
   41.1530   36.3180   41.5980 H   0  0  0  0  0  0  0  0  0  0  0  0
   41.3610   31.4170   41.2630 H   0  0  0  0  0  0  0  0  0  0  0  0
   44.6140   35.8010   43.7240 C   0  0  0  0  0  0  0  0  0  0  0  0
   44.3340   36.6300   44.3550 H   0  0  0  0  0  0  0  0  0  0  0  0
   43.5770   35.7840   44.3970 O   0  0  0  0  0  0  0  0  0  0  0  0
  1  5  1  0  0  0  0
  2  3  2  0  0  0  0
  2  1  1  0  0  0  0
  3  4  1  0  0  0  0
  4  9  1  0  0  0  0
  4  5  1  0  0  0  0
  4  8  1  0  0  0  0
  5 10  1  1  0  0  0
  5 23  1  0  0  0  0
  6  2  1  0  0  0  0
  7  3  1  0  0  0  0
 11 13  1  0  0  0  0
 11 16  1  0  0  0  0
 11  1  1  0  0  0  0
 12 11  1  0  0  0  0
 14 20  1  0  0  0  0
 15 21  1  0  0  0  0
 15 14  2  0  0  0  0
 16 15  1  0  0  0  0
 17 16  2  0  0  0  0
 17 18  1  0  0  0  0
 18 19  2  0  0  0  0
 19 14  1  0  0  0  0
 22 18  1  0  0  0  0
 23 24  1  0  0  0  0
 23 25  2  0  0  0  0
M  END
>  <minimizedAffinity>
-4.41574383

>  <minimizedRMSD>
3.99586749

$$$$
