
 OpenBabel03242518113D

 25 26  0  0  0  0  0  0  0  0999 V2000
   48.3480   34.0250   42.7450 C   0  0  0  0  0  0  0  0  0  0  0  0
   48.9860   34.3550   43.5910 H   0  0  0  0  0  0  0  0  0  0  0  0
   47.5190   33.4360   43.1890 H   0  0  0  0  0  0  0  0  0  0  0  0
   49.1210   33.1950   41.8730 C   0  0  0  0  0  0  0  0  0  0  0  0
   48.9230   32.4260   40.6770 C   0  0  0  0  0  0  0  0  0  0  0  0
   49.9580   31.7560   40.1410 C   0  0  0  0  0  0  0  0  0  0  0  0
   51.2520   31.8390   40.8020 C   0  0  0  0  0  0  0  0  0  0  0  0
   50.9490   32.9050   42.2180 S   0  0  0  0  0  0  0  0  0  0  0  0
   47.9220   32.4420   40.2830 H   0  0  0  0  0  0  0  0  0  0  0  0
   49.9000   31.1690   39.2680 H   0  0  0  0  0  0  0  0  0  0  0  0
   52.4580   31.2640   40.4720 C   0  0  0  0  0  0  0  0  0  0  0  0
   52.9780   30.7040   41.2380 H   0  0  0  0  0  0  0  0  0  0  0  0
   52.8210   31.4720   39.2660 O   0  0  0  0  0  0  0  0  0  0  0  0
   47.7320   35.2450   42.0990 C   0  0  0  0  0  0  0  0  0  0  0  0
   48.1360   35.4830   41.1220 H   0  0  0  0  0  0  0  0  0  0  0  0
   47.9890   36.1120   42.7700 H   0  0  0  0  0  0  0  0  0  0  0  0
   46.2840   35.1090   42.1010 C   0  0  0  0  0  0  0  0  0  0  0  0
   45.4980   35.6630   43.1160 C   0  0  0  0  0  0  0  0  0  0  0  0
   44.1200   35.5000   43.0630 C   0  0  0  0  0  0  0  0  0  0  0  0
   43.6020   34.8000   42.0140 N   0  0  0  0  0  0  0  0  0  0  0  0
   44.3880   34.2770   41.0480 C   0  0  0  0  0  0  0  0  0  0  0  0
   45.7100   34.4350   41.1010 N   0  0  0  0  0  0  0  0  0  0  0  0
   45.9690   36.2070   43.9230 H   0  0  0  0  0  0  0  0  0  0  0  0
   43.5030   35.9150   43.8300 H   0  0  0  0  0  0  0  0  0  0  0  0
   43.9150   33.7310   40.2390 H   0  0  0  0  0  0  0  0  0  0  0  0
  1  3  1  0  0  0  0
  1  2  1  0  0  0  0
  4  8  1  0  0  0  0
  4  1  1  0  0  0  0
  5  4  2  0  0  0  0
  6  5  1  0  0  0  0
  6  7  2  0  0  0  0
  7  8  1  0  0  0  0
  9  5  1  0  0  0  0
 10  6  1  0  0  0  0
 11  7  1  0  0  0  0
 11 12  1  0  0  0  0
 13 11  2  0  0  0  0
 14 17  1  0  0  0  0
 14  1  1  0  0  0  0
 14 16  1  0  0  0  0
 15 14  1  0  0  0  0
 17 18  1  0  0  0  0
 18 23  1  0  0  0  0
 19 18  2  0  0  0  0
 19 24  1  0  0  0  0
 20 19  1  0  0  0  0
 21 22  1  0  0  0  0
 21 20  2  0  0  0  0
 22 17  2  0  0  0  0
 25 21  1  0  0  0  0
M  END
>  <minimizedAffinity>
-3.6465807

>  <minimizedRMSD>
1.02858531

$$$$
