
 OpenBabel03242523083D

 39 42  0  0  1  0  0  0  0  0999 V2000
   42.3010   32.3020   41.0000 C   0  0  0  0  0  0  0  0  0  0  0  0
   41.2700   31.3970   40.7550 C   0  0  0  0  0  0  0  0  0  0  0  0
   40.8940   30.5610   41.7730 C   0  0  0  0  0  0  0  0  0  0  0  0
   41.5450   30.6530   42.9750 N   0  0  0  0  0  0  0  0  0  0  0  0
   42.5380   31.5370   43.1820 C   0  0  0  0  0  0  0  0  0  0  0  0
   42.9070   32.3480   42.2040 N   0  0  0  0  0  0  0  0  0  0  0  0
   42.6170   32.9800   40.2000 H   0  0  0  0  0  0  0  0  0  0  0  0
   43.0930   31.6620   44.1020 H   0  0  0  0  0  0  0  0  0  0  0  0
   40.6940   31.3830   39.4880 N   0  0  0  0  0  0  0  0  0  0  0  0
   39.4060   31.8930   39.2260 C   0  0  0  0  0  0  0  0  0  0  0  0
   39.0200   31.9290   37.7680 C   0  0  0  0  0  0  0  0  0  0  0  0
   40.0310   32.3160   36.8800 N   0  0  0  0  0  0  0  0  0  0  0  0
   41.3000   31.8000   37.1360 C   0  0  0  0  0  0  0  0  0  0  0  0
   41.3170   30.8550   38.3190 C   0  0  0  0  0  0  0  0  0  0  0  0
   39.1740   32.8950   39.6490 H   0  0  0  0  0  0  0  0  0  0  0  0
   38.6770   31.1980   39.7300 H   0  0  0  0  0  0  0  0  0  0  0  0
   38.6780   30.8890   37.4950 H   0  0  0  0  0  0  0  0  0  0  0  0
   38.1010   32.5470   37.6580 H   0  0  0  0  0  0  0  0  0  0  0  0
   39.6950   32.2370   35.9180 H   0  0  0  0  0  0  0  0  0  0  0  0
   41.5900   31.1520   36.2570 H   0  0  0  0  0  0  0  0  0  0  0  0
   42.1130   32.5520   37.1900 H   0  0  0  0  0  0  0  0  0  0  0  0
   40.9570   29.8440   38.0540 H   0  0  0  0  0  0  0  0  0  0  0  0
   42.4010   30.7070   38.5820 H   0  0  0  0  0  0  0  0  0  0  0  0
   38.9410   29.8120   42.8540 C   0  0  0  0  0  0  0  0  0  0  0  0
   39.9150   29.5550   41.8620 C   0  0  0  0  0  0  0  0  0  0  0  0
   39.6830   28.3310   41.2600 C   0  0  0  0  0  0  0  0  0  0  0  0
   38.6750   27.4660   41.5540 C   0  0  0  0  0  0  0  0  0  0  0  0
   37.7700   27.7950   42.5420 C   0  0  0  0  0  0  0  0  0  0  0  0
   37.8980   28.9820   43.2050 C   0  0  0  0  0  0  0  0  0  0  0  0
   36.8980   26.7220   42.5960 O   0  0  0  0  0  0  0  0  0  0  0  0
   37.1910   25.8040   41.5730 C   0  0  1  0  0  0  0  0  0  0  0  0
   38.4120   26.2360   40.9690 O   0  0  0  0  0  0  0  0  0  0  0  0
   38.8180   30.6940   43.5150 H   0  0  0  0  0  0  0  0  0  0  0  0
   40.4010   28.1370   40.5290 H   0  0  0  0  0  0  0  0  0  0  0  0
   37.1460   29.1390   43.9450 H   0  0  0  0  0  0  0  0  0  0  0  0
   36.3670   25.9570   40.8140 H   0  0  0  0  0  0  0  0  0  0  0  0
   37.2480   24.4100   42.0290 C   0  0  0  0  0  0  0  0  0  0  0  0
   36.3220   23.8500   41.9760 H   0  0  0  0  0  0  0  0  0  0  0  0
   38.3930   24.1250   42.4060 O   0  0  0  0  0  0  0  0  0  0  0  0
  1  6  1  0  0  0  0
  2  1  2  0  0  0  0
  2  3  1  0  0  0  0
  3 25  1  0  0  0  0
  3  4  2  0  0  0  0
  4  5  1  0  0  0  0
  5  8  1  0  0  0  0
  6  5  2  0  0  0  0
  7  1  1  0  0  0  0
  9  2  1  0  0  0  0
 10  9  1  0  0  0  0
 10 15  1  0  0  0  0
 10 16  1  0  0  0  0
 11 10  1  0  0  0  0
 12 13  1  0  0  0  0
 12 11  1  0  0  0  0
 13 21  1  0  0  0  0
 13 14  1  0  0  0  0
 14 23  1  0  0  0  0
 14  9  1  0  0  0  0
 17 11  1  0  0  0  0
 18 11  1  0  0  0  0
 19 12  1  0  0  0  0
 20 13  1  0  0  0  0
 22 14  1  0  0  0  0
 24 29  1  0  0  0  0
 24 33  1  0  0  0  0
 25 24  2  0  0  0  0
 26 27  2  0  0  0  0
 26 25  1  0  0  0  0
 27 28  1  0  0  0  0
 28 30  1  0  0  0  0
 28 29  2  0  0  0  0
 29 35  1  0  0  0  0
 31 36  1  6  0  0  0
 31 37  1  0  0  0  0
 31 30  1  0  0  0  0
 32 27  1  0  0  0  0
 32 31  1  0  0  0  0
 34 26  1  0  0  0  0
 37 39  2  0  0  0  0
 38 37  1  0  0  0  0
M  END
>  <minimizedAffinity>
-5.44534683

$$$$

 OpenBabel03242523083D

 39 42  0  0  1  0  0  0  0  0999 V2000
   41.8310   33.9740   40.1140 C   0  0  0  0  0  0  0  0  0  0  0  0
   40.9320   32.9500   40.4080 C   0  0  0  0  0  0  0  0  0  0  0  0
   41.2470   32.0920   41.4290 C   0  0  0  0  0  0  0  0  0  0  0  0
   42.4230   32.2790   42.1070 N   0  0  0  0  0  0  0  0  0  0  0  0
   43.2710   33.2760   41.8000 C   0  0  0  0  0  0  0  0  0  0  0  0
   42.9750   34.1090   40.8170 N   0  0  0  0  0  0  0  0  0  0  0  0
   41.5980   34.6720   39.3030 H   0  0  0  0  0  0  0  0  0  0  0  0
   44.2130   33.4800   42.2930 H   0  0  0  0  0  0  0  0  0  0  0  0
   39.7770   32.8480   39.6380 N   0  0  0  0  0  0  0  0  0  0  0  0
   39.6770   32.0020   38.5150 C   0  0  0  0  0  0  0  0  0  0  0  0
   38.3000   31.9140   37.9050 C   0  0  0  0  0  0  0  0  0  0  0  0
   37.2340   31.8670   38.8110 N   0  0  0  0  0  0  0  0  0  0  0  0
   37.3320   32.7130   39.9140 C   0  0  0  0  0  0  0  0  0  0  0  0
   38.5750   33.5770   39.8770 C   0  0  0  0  0  0  0  0  0  0  0  0
   40.0420   30.9590   38.6450 H   0  0  0  0  0  0  0  0  0  0  0  0
   40.3480   32.4390   37.7230 H   0  0  0  0  0  0  0  0  0  0  0  0
   38.1760   32.8230   37.2480 H   0  0  0  0  0  0  0  0  0  0  0  0
   38.2820   31.0640   37.1870 H   0  0  0  0  0  0  0  0  0  0  0  0
   36.3480   31.8840   38.3040 H   0  0  0  0  0  0  0  0  0  0  0  0
   36.4780   33.4520   39.8560 H   0  0  0  0  0  0  0  0  0  0  0  0
   37.1920   32.2240   40.8990 H   0  0  0  0  0  0  0  0  0  0  0  0
   38.4590   34.4520   39.2120 H   0  0  0  0  0  0  0  0  0  0  0  0
   38.6770   34.0190   40.9070 H   0  0  0  0  0  0  0  0  0  0  0  0
   41.4200   29.8570   42.1490 C   0  0  0  0  0  0  0  0  0  0  0  0
   40.5790   30.9800   41.9720 C   0  0  0  0  0  0  0  0  0  0  0  0
   39.2800   30.6740   42.3340 C   0  0  0  0  0  0  0  0  0  0  0  0
   38.8320   29.4740   42.7950 C   0  0  0  0  0  0  0  0  0  0  0  0
   39.7220   28.4280   42.9310 C   0  0  0  0  0  0  0  0  0  0  0  0
   41.0360   28.6160   42.6070 C   0  0  0  0  0  0  0  0  0  0  0  0
   38.9620   27.3740   43.4030 O   0  0  0  0  0  0  0  0  0  0  0  0
   37.6490   27.8000   43.6690 C   0  0  1  0  0  0  0  0  0  0  0  0
   37.5400   29.1350   43.1690 O   0  0  0  0  0  0  0  0  0  0  0  0
   42.5100   29.7530   41.9710 H   0  0  0  0  0  0  0  0  0  0  0  0
   38.6550   31.4980   42.2030 H   0  0  0  0  0  0  0  0  0  0  0  0
   41.6370   27.7470   42.7520 H   0  0  0  0  0  0  0  0  0  0  0  0
   37.5950   27.8580   44.7960 H   0  0  0  0  0  0  0  0  0  0  0  0
   36.6170   26.9080   43.1270 C   0  0  0  0  0  0  0  0  0  0  0  0
   35.7500   26.7410   43.7540 H   0  0  0  0  0  0  0  0  0  0  0  0
   36.9480   26.4940   42.0070 O   0  0  0  0  0  0  0  0  0  0  0  0
  1  2  2  0  0  0  0
  1  6  1  0  0  0  0
  2  3  1  0  0  0  0
  3 25  1  0  0  0  0
  3  4  2  0  0  0  0
  5  4  1  0  0  0  0
  5  8  1  0  0  0  0
  6  5  2  0  0  0  0
  7  1  1  0  0  0  0
  9 14  1  0  0  0  0
  9  2  1  0  0  0  0
 10 15  1  0  0  0  0
 10  9  1  0  0  0  0
 11 10  1  0  0  0  0
 11 12  1  0  0  0  0
 12 13  1  0  0  0  0
 13 21  1  0  0  0  0
 14 13  1  0  0  0  0
 14 23  1  0  0  0  0
 16 10  1  0  0  0  0
 17 11  1  0  0  0  0
 18 11  1  0  0  0  0
 19 12  1  0  0  0  0
 20 13  1  0  0  0  0
 22 14  1  0  0  0  0
 24 29  1  0  0  0  0
 25 24  2  0  0  0  0
 25 26  1  0  0  0  0
 26 27  2  0  0  0  0
 27 28  1  0  0  0  0
 27 32  1  0  0  0  0
 28 30  1  0  0  0  0
 29 35  1  0  0  0  0
 29 28  2  0  0  0  0
 30 31  1  0  0  0  0
 31 36  1  1  0  0  0
 32 31  1  0  0  0  0
 33 24  1  0  0  0  0
 34 26  1  0  0  0  0
 37 31  1  0  0  0  0
 37 38  1  0  0  0  0
 39 37  2  0  0  0  0
M  END
>  <minimizedAffinity>
-5.43745708

$$$$

 OpenBabel03242523083D

 39 42  0  0  1  0  0  0  0  0999 V2000
   38.2880   29.6910   42.7550 C   0  0  0  0  0  0  0  0  0  0  0  0
   37.6720   29.7060   41.5050 C   0  0  0  0  0  0  0  0  0  0  0  0
   36.7180   28.7570   41.2480 C   0  0  0  0  0  0  0  0  0  0  0  0
   36.4190   27.8420   42.2230 N   0  0  0  0  0  0  0  0  0  0  0  0
   37.0320   27.8510   43.4200 C   0  0  0  0  0  0  0  0  0  0  0  0
   37.9530   28.7650   43.6770 N   0  0  0  0  0  0  0  0  0  0  0  0
   39.0520   30.4410   42.9820 H   0  0  0  0  0  0  0  0  0  0  0  0
   36.8450   27.1620   44.2330 H   0  0  0  0  0  0  0  0  0  0  0  0
   38.0710   30.6730   40.5870 N   0  0  0  0  0  0  0  0  0  0  0  0
   39.0880   30.4520   39.6350 C   0  0  0  0  0  0  0  0  0  0  0  0
   39.2710   31.5610   38.6290 C   0  0  0  0  0  0  0  0  0  0  0  0
   38.0940   32.1510   38.1520 N   0  0  0  0  0  0  0  0  0  0  0  0
   37.0960   32.3780   39.0980 C   0  0  0  0  0  0  0  0  0  0  0  0
   37.5200   31.9850   40.4980 C   0  0  0  0  0  0  0  0  0  0  0  0
   39.0330   29.5000   39.0610 H   0  0  0  0  0  0  0  0  0  0  0  0
   40.0540   30.3800   40.2080 H   0  0  0  0  0  0  0  0  0  0  0  0
   39.8950   32.3560   39.1310 H   0  0  0  0  0  0  0  0  0  0  0  0
   39.9230   31.1930   37.8070 H   0  0  0  0  0  0  0  0  0  0  0  0
   38.3240   32.9350   37.5390 H   0  0  0  0  0  0  0  0  0  0  0  0
   36.9310   33.4940   39.1610 H   0  0  0  0  0  0  0  0  0  0  0  0
   36.0960   31.9760   38.8360 H   0  0  0  0  0  0  0  0  0  0  0  0
   38.1530   32.7540   40.9760 H   0  0  0  0  0  0  0  0  0  0  0  0
   36.5800   31.9710   41.1150 H   0  0  0  0  0  0  0  0  0  0  0  0
   36.3470   27.3620   39.3870 C   0  0  0  0  0  0  0  0  0  0  0  0
   35.9220   28.4950   40.1180 C   0  0  0  0  0  0  0  0  0  0  0  0
   34.8440   29.0990   39.4940 C   0  0  0  0  0  0  0  0  0  0  0  0
   34.2530   28.6950   38.3370 C   0  0  0  0  0  0  0  0  0  0  0  0
   34.7370   27.5800   37.6840 C   0  0  0  0  0  0  0  0  0  0  0  0
   35.7970   26.8990   38.2110 C   0  0  0  0  0  0  0  0  0  0  0  0
   33.9360   27.4480   36.5640 O   0  0  0  0  0  0  0  0  0  0  0  0
   32.8990   28.3960   36.5930 C   0  0  1  0  0  0  0  0  0  0  0  0
   33.1720   29.2740   37.6870 O   0  0  0  0  0  0  0  0  0  0  0  0
   37.1660   26.6460   39.6030 H   0  0  0  0  0  0  0  0  0  0  0  0
   34.5290   29.9360   40.0290 H   0  0  0  0  0  0  0  0  0  0  0  0
   36.0890   26.0530   37.6310 H   0  0  0  0  0  0  0  0  0  0  0  0
   31.9790   27.7970   36.8620 H   0  0  0  0  0  0  0  0  0  0  0  0
   32.7190   29.1140   35.3250 C   0  0  0  0  0  0  0  0  0  0  0  0
   31.7010   29.2080   34.9680 H   0  0  0  0  0  0  0  0  0  0  0  0
   33.8130   29.4900   34.8820 O   0  0  0  0  0  0  0  0  0  0  0  0
  1  7  1  0  0  0  0
  1  6  1  0  0  0  0
  2  1  2  0  0  0  0
  3  2  1  0  0  0  0
  3  4  2  0  0  0  0
  4  5  1  0  0  0  0
  5  6  2  0  0  0  0
  5  8  1  0  0  0  0
  9  2  1  0  0  0  0
 10 16  1  0  0  0  0
 10  9  1  0  0  0  0
 11 17  1  0  0  0  0
 11 10  1  0  0  0  0
 12 11  1  0  0  0  0
 12 13  1  0  0  0  0
 13 20  1  0  0  0  0
 13 14  1  0  0  0  0
 14  9  1  0  0  0  0
 14 22  1  0  0  0  0
 14 23  1  0  0  0  0
 15 10  1  0  0  0  0
 18 11  1  0  0  0  0
 19 12  1  0  0  0  0
 21 13  1  0  0  0  0
 24 33  1  0  0  0  0
 24 25  1  0  0  0  0
 25  3  1  0  0  0  0
 26 34  1  0  0  0  0
 26 25  2  0  0  0  0
 27 26  1  0  0  0  0
 28 29  1  0  0  0  0
 28 27  2  0  0  0  0
 29 24  2  0  0  0  0
 30 31  1  0  0  0  0
 30 28  1  0  0  0  0
 31 36  1  1  0  0  0
 31 32  1  0  0  0  0
 32 27  1  0  0  0  0
 35 29  1  0  0  0  0
 37 31  1  0  0  0  0
 38 37  1  0  0  0  0
 39 37  2  0  0  0  0
M  END
>  <minimizedAffinity>
-5.35286188

$$$$

 OpenBabel03242523083D

 39 42  0  0  1  0  0  0  0  0999 V2000
   36.5500   24.8440   40.1030 C   0  0  0  0  0  0  0  0  0  0  0  0
   36.8650   26.1890   40.2870 C   0  0  0  0  0  0  0  0  0  0  0  0
   36.4770   27.0770   39.3190 C   0  0  0  0  0  0  0  0  0  0  0  0
   35.8040   26.6050   38.2230 N   0  0  0  0  0  0  0  0  0  0  0  0
   35.5150   25.3010   38.0720 C   0  0  0  0  0  0  0  0  0  0  0  0
   35.8850   24.4360   39.0030 N   0  0  0  0  0  0  0  0  0  0  0  0
   36.8490   24.1170   40.8650 H   0  0  0  0  0  0  0  0  0  0  0  0
   34.9890   24.8610   37.2350 H   0  0  0  0  0  0  0  0  0  0  0  0
   37.5680   26.5490   41.4330 N   0  0  0  0  0  0  0  0  0  0  0  0
   38.9690   26.7050   41.4550 C   0  0  0  0  0  0  0  0  0  0  0  0
   39.5290   27.2470   42.7460 C   0  0  0  0  0  0  0  0  0  0  0  0
   38.7840   28.2650   43.3530 N   0  0  0  0  0  0  0  0  0  0  0  0
   37.4010   28.1010   43.3400 C   0  0  0  0  0  0  0  0  0  0  0  0
   36.9750   26.7930   42.7060 C   0  0  0  0  0  0  0  0  0  0  0  0
   39.4150   27.3040   40.6300 H   0  0  0  0  0  0  0  0  0  0  0  0
   39.4090   25.6760   41.3250 H   0  0  0  0  0  0  0  0  0  0  0  0
   39.6020   26.3770   43.4610 H   0  0  0  0  0  0  0  0  0  0  0  0
   40.5890   27.5410   42.5800 H   0  0  0  0  0  0  0  0  0  0  0  0
   39.2020   28.5110   44.2530 H   0  0  0  0  0  0  0  0  0  0  0  0
   37.0540   28.0160   44.4120 H   0  0  0  0  0  0  0  0  0  0  0  0
   36.8260   28.9630   42.9440 H   0  0  0  0  0  0  0  0  0  0  0  0
   37.0720   25.9390   43.4010 H   0  0  0  0  0  0  0  0  0  0  0  0
   35.8680   26.8810   42.5240 H   0  0  0  0  0  0  0  0  0  0  0  0
   36.7740   28.8970   37.8540 C   0  0  0  0  0  0  0  0  0  0  0  0
   36.6300   28.4700   39.1940 C   0  0  0  0  0  0  0  0  0  0  0  0
   36.7340   29.5450   40.0590 C   0  0  0  0  0  0  0  0  0  0  0  0
   36.9490   30.8430   39.7100 C   0  0  0  0  0  0  0  0  0  0  0  0
   37.0840   31.1700   38.3770 C   0  0  0  0  0  0  0  0  0  0  0  0
   36.9950   30.1890   37.4300 C   0  0  0  0  0  0  0  0  0  0  0  0
   37.2950   32.5370   38.3660 O   0  0  0  0  0  0  0  0  0  0  0  0
   37.1700   33.0600   39.6650 C   0  0  1  0  0  0  0  0  0  0  0  0
   37.0550   31.9430   40.5490 O   0  0  0  0  0  0  0  0  0  0  0  0
   36.7340   28.3080   36.9150 H   0  0  0  0  0  0  0  0  0  0  0  0
   36.6310   29.2350   41.0490 H   0  0  0  0  0  0  0  0  0  0  0  0
   37.1100   30.5490   36.4330 H   0  0  0  0  0  0  0  0  0  0  0  0
   36.1710   33.5890   39.6590 H   0  0  0  0  0  0  0  0  0  0  0  0
   38.2580   33.9700   40.0430 C   0  0  0  0  0  0  0  0  0  0  0  0
   38.3540   34.8720   39.4530 H   0  0  0  0  0  0  0  0  0  0  0  0
   38.8890   33.5130   41.0060 O   0  0  0  0  0  0  0  0  0  0  0  0
  1  2  1  0  0  0  0
  1  7  1  0  0  0  0
  2  9  1  0  0  0  0
  3  2  2  0  0  0  0
  4  3  1  0  0  0  0
  5  4  2  0  0  0  0
  5  6  1  0  0  0  0
  6  1  2  0  0  0  0
  8  5  1  0  0  0  0
  9 10  1  0  0  0  0
  9 14  1  0  0  0  0
 10 11  1  0  0  0  0
 11 12  1  0  0  0  0
 11 17  1  0  0  0  0
 12 19  1  0  0  0  0
 13 12  1  0  0  0  0
 13 20  1  0  0  0  0
 14 13  1  0  0  0  0
 14 22  1  0  0  0  0
 15 10  1  0  0  0  0
 16 10  1  0  0  0  0
 18 11  1  0  0  0  0
 21 13  1  0  0  0  0
 23 14  1  0  0  0  0
 24 25  1  0  0  0  0
 25  3  1  0  0  0  0
 25 26  2  0  0  0  0
 26 34  1  0  0  0  0
 27 26  1  0  0  0  0
 27 32  1  0  0  0  0
 28 27  2  0  0  0  0
 29 24  2  0  0  0  0
 29 28  1  0  0  0  0
 30 28  1  0  0  0  0
 30 31  1  0  0  0  0
 31 36  1  1  0  0  0
 31 37  1  0  0  0  0
 31 32  1  0  0  0  0
 33 24  1  0  0  0  0
 35 29  1  0  0  0  0
 37 39  2  0  0  0  0
 38 37  1  0  0  0  0
M  END
>  <minimizedAffinity>
-5.26383448

$$$$

 OpenBabel03242523083D

 39 42  0  0  1  0  0  0  0  0999 V2000
   37.2470   32.3770   38.6810 C   0  0  0  0  0  0  0  0  0  0  0  0
   37.1740   31.0060   38.9260 C   0  0  0  0  0  0  0  0  0  0  0  0
   37.6970   30.5360   40.1010 C   0  0  0  0  0  0  0  0  0  0  0  0
   38.2640   31.4270   40.9740 N   0  0  0  0  0  0  0  0  0  0  0  0
   38.3200   32.7440   40.7100 C   0  0  0  0  0  0  0  0  0  0  0  0
   37.8170   33.2080   39.5770 N   0  0  0  0  0  0  0  0  0  0  0  0
   36.8340   32.7740   37.7480 H   0  0  0  0  0  0  0  0  0  0  0  0
   38.7510   33.5010   41.3520 H   0  0  0  0  0  0  0  0  0  0  0  0
   36.5910   30.1950   37.9560 N   0  0  0  0  0  0  0  0  0  0  0  0
   37.1600   29.9950   36.6820 C   0  0  0  0  0  0  0  0  0  0  0  0
   36.4640   28.9640   35.8290 C   0  0  0  0  0  0  0  0  0  0  0  0
   36.0260   27.8150   36.4980 N   0  0  0  0  0  0  0  0  0  0  0  0
   35.4550   28.0180   37.7520 C   0  0  0  0  0  0  0  0  0  0  0  0
   35.3660   29.4850   38.1220 C   0  0  0  0  0  0  0  0  0  0  0  0
   38.2470   29.7590   36.6540 H   0  0  0  0  0  0  0  0  0  0  0  0
   37.0700   30.9740   36.1330 H   0  0  0  0  0  0  0  0  0  0  0  0
   35.5700   29.4740   35.3650 H   0  0  0  0  0  0  0  0  0  0  0  0
   37.1130   28.7240   34.9580 H   0  0  0  0  0  0  0  0  0  0  0  0
   35.5050   27.2170   35.8550 H   0  0  0  0  0  0  0  0  0  0  0  0
   34.3770   27.6800   37.6980 H   0  0  0  0  0  0  0  0  0  0  0  0
   35.8830   27.4060   38.5720 H   0  0  0  0  0  0  0  0  0  0  0  0
   34.5060   29.9870   37.6450 H   0  0  0  0  0  0  0  0  0  0  0  0
   35.1340   29.5140   39.2220 H   0  0  0  0  0  0  0  0  0  0  0  0
   36.7230   28.9350   41.5270 C   0  0  0  0  0  0  0  0  0  0  0  0
   37.7870   29.2430   40.6480 C   0  0  0  0  0  0  0  0  0  0  0  0
   38.6890   28.1960   40.5940 C   0  0  0  0  0  0  0  0  0  0  0  0
   38.6050   27.0220   41.2760 C   0  0  0  0  0  0  0  0  0  0  0  0
   37.5340   26.8060   42.1190 C   0  0  0  0  0  0  0  0  0  0  0  0
   36.5750   27.7710   42.2500 C   0  0  0  0  0  0  0  0  0  0  0  0
   37.7490   25.5490   42.6520 O   0  0  0  0  0  0  0  0  0  0  0  0
   38.8710   24.9510   42.0540 C   0  0  1  0  0  0  0  0  0  0  0  0
   39.4880   25.9520   41.2420 O   0  0  0  0  0  0  0  0  0  0  0  0
   35.8300   29.5350   41.7960 H   0  0  0  0  0  0  0  0  0  0  0  0
   39.4770   28.4200   39.9480 H   0  0  0  0  0  0  0  0  0  0  0  0
   35.7920   27.5020   42.9210 H   0  0  0  0  0  0  0  0  0  0  0  0
   38.4370   24.1730   41.3580 H   0  0  0  0  0  0  0  0  0  0  0  0
   39.8040   24.3500   43.0160 C   0  0  0  0  0  0  0  0  0  0  0  0
   39.3790   23.6390   43.7140 H   0  0  0  0  0  0  0  0  0  0  0  0
   40.9490   24.7890   42.8400 O   0  0  0  0  0  0  0  0  0  0  0  0
  1  2  2  0  0  0  0
  1  6  1  0  0  0  0
  2  3  1  0  0  0  0
  3 25  1  0  0  0  0
  3  4  2  0  0  0  0
  5  4  1  0  0  0  0
  5  8  1  0  0  0  0
  6  5  2  0  0  0  0
  7  1  1  0  0  0  0
  9 14  1  0  0  0  0
  9  2  1  0  0  0  0
 10  9  1  0  0  0  0
 11 12  1  0  0  0  0
 11 10  1  0  0  0  0
 12 13  1  0  0  0  0
 13 14  1  0  0  0  0
 13 21  1  0  0  0  0
 14 23  1  0  0  0  0
 15 10  1  0  0  0  0
 16 10  1  0  0  0  0
 17 11  1  0  0  0  0
 18 11  1  0  0  0  0
 19 12  1  0  0  0  0
 20 13  1  0  0  0  0
 22 14  1  0  0  0  0
 24 33  1  0  0  0  0
 24 29  1  0  0  0  0
 25 24  2  0  0  0  0
 26 25  1  0  0  0  0
 26 27  2  0  0  0  0
 27 28  1  0  0  0  0
 28 29  2  0  0  0  0
 28 30  1  0  0  0  0
 29 35  1  0  0  0  0
 31 36  1  6  0  0  0
 31 30  1  0  0  0  0
 31 37  1  0  0  0  0
 32 27  1  0  0  0  0
 32 31  1  0  0  0  0
 34 26  1  0  0  0  0
 37 38  1  0  0  0  0
 39 37  2  0  0  0  0
M  END
>  <minimizedAffinity>
-5.10725689

$$$$

 OpenBabel03242523083D

 39 42  0  0  1  0  0  0  0  0999 V2000
   36.5670   24.4490   40.1000 C   0  0  0  0  0  0  0  0  0  0  0  0
   37.0350   25.6600   40.6070 C   0  0  0  0  0  0  0  0  0  0  0  0
   36.7470   26.8030   39.9090 C   0  0  0  0  0  0  0  0  0  0  0  0
   36.0200   26.7030   38.7520 N   0  0  0  0  0  0  0  0  0  0  0  0
   35.5820   25.5190   38.2860 C   0  0  0  0  0  0  0  0  0  0  0  0
   35.8550   24.4110   38.9550 N   0  0  0  0  0  0  0  0  0  0  0  0
   36.7850   23.5240   40.6430 H   0  0  0  0  0  0  0  0  0  0  0  0
   35.0060   25.3680   37.3840 H   0  0  0  0  0  0  0  0  0  0  0  0
   37.7800   25.6370   41.7830 N   0  0  0  0  0  0  0  0  0  0  0  0
   38.9270   24.8330   41.9470 C   0  0  0  0  0  0  0  0  0  0  0  0
   39.6850   25.0600   43.2310 C   0  0  0  0  0  0  0  0  0  0  0  0
   39.7990   26.3930   43.6430 N   0  0  0  0  0  0  0  0  0  0  0  0
   38.6600   27.1810   43.4900 C   0  0  0  0  0  0  0  0  0  0  0  0
   37.4800   26.4000   42.9490 C   0  0  0  0  0  0  0  0  0  0  0  0
   39.6720   24.8570   41.1220 H   0  0  0  0  0  0  0  0  0  0  0  0
   38.5690   23.7660   41.9740 H   0  0  0  0  0  0  0  0  0  0  0  0
   39.1460   24.4790   44.0350 H   0  0  0  0  0  0  0  0  0  0  0  0
   40.6730   24.5550   43.1570 H   0  0  0  0  0  0  0  0  0  0  0  0
   40.2600   26.4360   44.5540 H   0  0  0  0  0  0  0  0  0  0  0  0
   38.3280   27.5090   44.5190 H   0  0  0  0  0  0  0  0  0  0  0  0
   38.8150   28.1350   42.9450 H   0  0  0  0  0  0  0  0  0  0  0  0
   36.9710   25.8120   43.7340 H   0  0  0  0  0  0  0  0  0  0  0  0
   36.7190   27.1660   42.6340 H   0  0  0  0  0  0  0  0  0  0  0  0
   35.9150   28.9690   40.3100 C   0  0  0  0  0  0  0  0  0  0  0  0
   37.0580   28.1560   40.1350 C   0  0  0  0  0  0  0  0  0  0  0  0
   38.2090   28.9230   40.1760 C   0  0  0  0  0  0  0  0  0  0  0  0
   38.2740   30.2710   40.3530 C   0  0  0  0  0  0  0  0  0  0  0  0
   37.1060   30.9880   40.5110 C   0  0  0  0  0  0  0  0  0  0  0  0
   35.9060   30.3350   40.4910 C   0  0  0  0  0  0  0  0  0  0  0  0
   37.5130   32.3020   40.6580 O   0  0  0  0  0  0  0  0  0  0  0  0
   38.9160   32.3740   40.7110 C   0  0  1  0  0  0  0  0  0  0  0  0
   39.4080   31.0680   40.4030 O   0  0  0  0  0  0  0  0  0  0  0  0
   34.8420   28.6860   40.3430 H   0  0  0  0  0  0  0  0  0  0  0  0
   39.0550   28.3280   40.0450 H   0  0  0  0  0  0  0  0  0  0  0  0
   35.0690   30.9810   40.6250 H   0  0  0  0  0  0  0  0  0  0  0  0
   39.1450   32.5720   41.8000 H   0  0  0  0  0  0  0  0  0  0  0  0
   39.4870   33.4130   39.8450 C   0  0  0  0  0  0  0  0  0  0  0  0
   39.1950   33.3810   38.8030 H   0  0  0  0  0  0  0  0  0  0  0  0
   40.2280   34.1610   40.4970 O   0  0  0  0  0  0  0  0  0  0  0  0
  1  2  1  0  0  0  0
  1  7  1  0  0  0  0
  2  9  1  0  0  0  0
  3 25  1  0  0  0  0
  3  2  2  0  0  0  0
  4  3  1  0  0  0  0
  5  4  2  0  0  0  0
  5  6  1  0  0  0  0
  6  1  2  0  0  0  0
  8  5  1  0  0  0  0
  9 10  1  0  0  0  0
  9 14  1  0  0  0  0
 10 16  1  0  0  0  0
 10 11  1  0  0  0  0
 11 12  1  0  0  0  0
 11 17  1  0  0  0  0
 12 19  1  0  0  0  0
 13 12  1  0  0  0  0
 13 20  1  0  0  0  0
 14 13  1  0  0  0  0
 14 22  1  0  0  0  0
 15 10  1  0  0  0  0
 18 11  1  0  0  0  0
 21 13  1  0  0  0  0
 23 14  1  0  0  0  0
 24 33  1  0  0  0  0
 24 29  1  0  0  0  0
 25 26  1  0  0  0  0
 25 24  2  0  0  0  0
 26 27  2  0  0  0  0
 27 32  1  0  0  0  0
 27 28  1  0  0  0  0
 28 30  1  0  0  0  0
 29 28  2  0  0  0  0
 29 35  1  0  0  0  0
 30 31  1  0  0  0  0
 31 36  1  1  0  0  0
 32 31  1  0  0  0  0
 34 26  1  0  0  0  0
 37 39  2  0  0  0  0
 37 31  1  0  0  0  0
 38 37  1  0  0  0  0
M  END
>  <minimizedAffinity>
-5.08568287

$$$$

 OpenBabel03242523083D

 39 42  0  0  1  0  0  0  0  0999 V2000
   40.3410   32.9870   38.9850 C   0  0  0  0  0  0  0  0  0  0  0  0
   40.1430   31.6560   39.3480 C   0  0  0  0  0  0  0  0  0  0  0  0
   39.3710   31.3990   40.4500 C   0  0  0  0  0  0  0  0  0  0  0  0
   38.8340   32.4550   41.1390 N   0  0  0  0  0  0  0  0  0  0  0  0
   39.0420   33.7300   40.7640 C   0  0  0  0  0  0  0  0  0  0  0  0
   39.7870   33.9870   39.7010 N   0  0  0  0  0  0  0  0  0  0  0  0
   40.9540   33.2150   38.1060 H   0  0  0  0  0  0  0  0  0  0  0  0
   38.6510   34.6080   41.2600 H   0  0  0  0  0  0  0  0  0  0  0  0
   40.7540   30.6670   38.5820 N   0  0  0  0  0  0  0  0  0  0  0  0
   40.0280   29.7460   37.8000 C   0  0  0  0  0  0  0  0  0  0  0  0
   40.8690   28.8540   36.9220 C   0  0  0  0  0  0  0  0  0  0  0  0
   41.9620   29.4670   36.2990 N   0  0  0  0  0  0  0  0  0  0  0  0
   42.6840   30.3690   37.0790 C   0  0  0  0  0  0  0  0  0  0  0  0
   42.1620   30.4600   38.4980 C   0  0  0  0  0  0  0  0  0  0  0  0
   39.2220   30.1660   37.1580 H   0  0  0  0  0  0  0  0  0  0  0  0
   39.4900   29.0670   38.5200 H   0  0  0  0  0  0  0  0  0  0  0  0
   41.2510   28.0170   37.5770 H   0  0  0  0  0  0  0  0  0  0  0  0
   40.2040   28.3370   36.1960 H   0  0  0  0  0  0  0  0  0  0  0  0
   42.5090   28.7690   35.7910 H   0  0  0  0  0  0  0  0  0  0  0  0
   43.7320   29.9610   37.1940 H   0  0  0  0  0  0  0  0  0  0  0  0
   42.8380   31.3690   36.6250 H   0  0  0  0  0  0  0  0  0  0  0  0
   42.5160   29.6250   39.1300 H   0  0  0  0  0  0  0  0  0  0  0  0
   42.6400   31.3740   38.9470 H   0  0  0  0  0  0  0  0  0  0  0  0
   39.8390   29.8180   42.1300 C   0  0  0  0  0  0  0  0  0  0  0  0
   38.9800   30.2020   41.0760 C   0  0  0  0  0  0  0  0  0  0  0  0
   37.9880   29.2550   40.8900 C   0  0  0  0  0  0  0  0  0  0  0  0
   37.8300   28.1030   41.5970 C   0  0  0  0  0  0  0  0  0  0  0  0
   38.7200   27.8040   42.6070 C   0  0  0  0  0  0  0  0  0  0  0  0
   39.7410   28.6690   42.8850 C   0  0  0  0  0  0  0  0  0  0  0  0
   38.2920   26.5880   43.1090 O   0  0  0  0  0  0  0  0  0  0  0  0
   37.0860   26.2050   42.4980 C   0  0  1  0  0  0  0  0  0  0  0  0
   36.8480   27.1360   41.4390 O   0  0  0  0  0  0  0  0  0  0  0  0
   40.7220   30.3410   42.5510 H   0  0  0  0  0  0  0  0  0  0  0  0
   37.3530   29.5330   40.1110 H   0  0  0  0  0  0  0  0  0  0  0  0
   40.3670   28.3440   43.6840 H   0  0  0  0  0  0  0  0  0  0  0  0
   36.3000   26.3870   43.2890 H   0  0  0  0  0  0  0  0  0  0  0  0
   37.0730   24.8110   42.0380 C   0  0  0  0  0  0  0  0  0  0  0  0
   36.1690   24.4790   41.5440 H   0  0  0  0  0  0  0  0  0  0  0  0
   38.1440   24.2540   42.3150 O   0  0  0  0  0  0  0  0  0  0  0  0
  1  2  2  0  0  0  0
  1  6  1  0  0  0  0
  2  3  1  0  0  0  0
  3 25  1  0  0  0  0
  3  4  2  0  0  0  0
  5  4  1  0  0  0  0
  5  8  1  0  0  0  0
  6  5  2  0  0  0  0
  7  1  1  0  0  0  0
  9  2  1  0  0  0  0
 10 16  1  0  0  0  0
 10  9  1  0  0  0  0
 11 17  1  0  0  0  0
 11 10  1  0  0  0  0
 12 11  1  0  0  0  0
 12 13  1  0  0  0  0
 13 20  1  0  0  0  0
 13 14  1  0  0  0  0
 14  9  1  0  0  0  0
 14 23  1  0  0  0  0
 14 22  1  0  0  0  0
 15 10  1  0  0  0  0
 18 11  1  0  0  0  0
 19 12  1  0  0  0  0
 21 13  1  0  0  0  0
 24 33  1  0  0  0  0
 24 29  1  0  0  0  0
 25 24  2  0  0  0  0
 26 25  1  0  0  0  0
 26 27  2  0  0  0  0
 27 28  1  0  0  0  0
 28 29  2  0  0  0  0
 28 30  1  0  0  0  0
 29 35  1  0  0  0  0
 31 30  1  0  0  0  0
 31 36  1  1  0  0  0
 32 27  1  0  0  0  0
 32 31  1  0  0  0  0
 34 26  1  0  0  0  0
 37 39  2  0  0  0  0
 37 31  1  0  0  0  0
 38 37  1  0  0  0  0
M  END
>  <minimizedAffinity>
-5.05185795

$$$$

 OpenBabel03242523083D

 39 42  0  0  1  0  0  0  0  0999 V2000
   35.7630   27.6740   38.7460 C   0  0  0  0  0  0  0  0  0  0  0  0
   36.6530   28.4970   39.4360 C   0  0  0  0  0  0  0  0  0  0  0  0
   36.9940   29.6950   38.8660 C   0  0  0  0  0  0  0  0  0  0  0  0
   36.4500   30.0250   37.6530 N   0  0  0  0  0  0  0  0  0  0  0  0
   35.5940   29.2110   37.0100 C   0  0  0  0  0  0  0  0  0  0  0  0
   35.2590   28.0520   37.5540 N   0  0  0  0  0  0  0  0  0  0  0  0
   35.4770   26.7130   39.1850 H   0  0  0  0  0  0  0  0  0  0  0  0
   35.1290   29.4090   36.0540 H   0  0  0  0  0  0  0  0  0  0  0  0
   37.1550   28.0460   40.6540 N   0  0  0  0  0  0  0  0  0  0  0  0
   38.1960   27.1000   40.7510 C   0  0  0  0  0  0  0  0  0  0  0  0
   38.7060   26.8550   42.1490 C   0  0  0  0  0  0  0  0  0  0  0  0
   38.8230   27.9890   42.9620 N   0  0  0  0  0  0  0  0  0  0  0  0
   37.7870   28.9160   42.8720 C   0  0  0  0  0  0  0  0  0  0  0  0
   36.6860   28.4700   41.9320 C   0  0  0  0  0  0  0  0  0  0  0  0
   39.0860   27.2730   40.1060 H   0  0  0  0  0  0  0  0  0  0  0  0
   37.7730   26.1200   40.3900 H   0  0  0  0  0  0  0  0  0  0  0  0
   37.9870   26.1340   42.6370 H   0  0  0  0  0  0  0  0  0  0  0  0
   39.6560   26.2790   42.0870 H   0  0  0  0  0  0  0  0  0  0  0  0
   39.1020   27.7110   43.9050 H   0  0  0  0  0  0  0  0  0  0  0  0
   37.2850   28.9690   43.8830 H   0  0  0  0  0  0  0  0  0  0  0  0
   38.1030   29.9610   42.6780 H   0  0  0  0  0  0  0  0  0  0  0  0
   35.9990   27.7440   42.4040 H   0  0  0  0  0  0  0  0  0  0  0  0
   36.0490   29.3780   41.7460 H   0  0  0  0  0  0  0  0  0  0  0  0
   37.2170   32.0030   39.2740 C   0  0  0  0  0  0  0  0  0  0  0  0
   37.8430   30.7350   39.2830 C   0  0  0  0  0  0  0  0  0  0  0  0
   39.1710   30.8530   39.6540 C   0  0  0  0  0  0  0  0  0  0  0  0
   39.8210   32.0070   39.9680 C   0  0  0  0  0  0  0  0  0  0  0  0
   39.1330   33.2020   39.9270 C   0  0  0  0  0  0  0  0  0  0  0  0
   37.8130   33.2080   39.5770 C   0  0  0  0  0  0  0  0  0  0  0  0
   40.0650   34.1600   40.2850 O   0  0  0  0  0  0  0  0  0  0  0  0
   41.2740   33.5490   40.6580 C   0  0  1  0  0  0  0  0  0  0  0  0
   41.1470   32.1600   40.3460 O   0  0  0  0  0  0  0  0  0  0  0  0
   36.1670   32.2730   39.0390 H   0  0  0  0  0  0  0  0  0  0  0  0
   39.6380   29.9210   39.6600 H   0  0  0  0  0  0  0  0  0  0  0  0
   37.3770   34.1810   39.5800 H   0  0  0  0  0  0  0  0  0  0  0  0
   41.2980   33.6400   41.7850 H   0  0  0  0  0  0  0  0  0  0  0  0
   42.4590   34.1600   40.0450 C   0  0  0  0  0  0  0  0  0  0  0  0
   42.3160   34.6100   39.0700 H   0  0  0  0  0  0  0  0  0  0  0  0
   43.4420   34.0400   40.7880 O   0  0  0  0  0  0  0  0  0  0  0  0
  1  7  1  0  0  0  0
  1  2  1  0  0  0  0
  2  9  1  0  0  0  0
  3 25  1  0  0  0  0
  3  2  2  0  0  0  0
  4  3  1  0  0  0  0
  5  6  1  0  0  0  0
  5  4  2  0  0  0  0
  6  1  2  0  0  0  0
  8  5  1  0  0  0  0
  9 10  1  0  0  0  0
  9 14  1  0  0  0  0
 10 11  1  0  0  0  0
 11 17  1  0  0  0  0
 11 12  1  0  0  0  0
 12 19  1  0  0  0  0
 13 12  1  0  0  0  0
 13 20  1  0  0  0  0
 14 22  1  0  0  0  0
 14 13  1  0  0  0  0
 15 10  1  0  0  0  0
 16 10  1  0  0  0  0
 18 11  1  0  0  0  0
 21 13  1  0  0  0  0
 23 14  1  0  0  0  0
 24 25  2  0  0  0  0
 24 29  1  0  0  0  0
 25 26  1  0  0  0  0
 26 34  1  0  0  0  0
 26 27  2  0  0  0  0
 27 32  1  0  0  0  0
 28 27  1  0  0  0  0
 28 30  1  0  0  0  0
 29 35  1  0  0  0  0
 29 28  2  0  0  0  0
 30 31  1  0  0  0  0
 31 36  1  1  0  0  0
 32 31  1  0  0  0  0
 33 24  1  0  0  0  0
 37 31  1  0  0  0  0
 37 39  2  0  0  0  0
 38 37  1  0  0  0  0
M  END
>  <minimizedAffinity>
-5.02944803

$$$$

 OpenBabel03242523083D

 39 42  0  0  1  0  0  0  0  0999 V2000
   38.3150   23.7800   40.9950 C   0  0  0  0  0  0  0  0  0  0  0  0
   38.5260   25.1400   41.2200 C   0  0  0  0  0  0  0  0  0  0  0  0
   37.6130   26.0240   40.7090 C   0  0  0  0  0  0  0  0  0  0  0  0
   36.5440   25.5340   40.0040 N   0  0  0  0  0  0  0  0  0  0  0  0
   36.3680   24.2170   39.8020 C   0  0  0  0  0  0  0  0  0  0  0  0
   37.2440   23.3560   40.2930 N   0  0  0  0  0  0  0  0  0  0  0  0
   39.0320   23.0560   41.3950 H   0  0  0  0  0  0  0  0  0  0  0  0
   35.5510   23.7630   39.2580 H   0  0  0  0  0  0  0  0  0  0  0  0
   39.6580   25.5200   41.9350 N   0  0  0  0  0  0  0  0  0  0  0  0
   40.9290   25.6600   41.3400 C   0  0  0  0  0  0  0  0  0  0  0  0
   41.9950   26.2280   42.2430 C   0  0  0  0  0  0  0  0  0  0  0  0
   41.5890   27.2700   43.0850 N   0  0  0  0  0  0  0  0  0  0  0  0
   40.3370   27.1220   43.6800 C   0  0  0  0  0  0  0  0  0  0  0  0
   39.6780   25.8030   43.3320 C   0  0  0  0  0  0  0  0  0  0  0  0
   40.9710   26.2320   40.3870 H   0  0  0  0  0  0  0  0  0  0  0  0
   41.2680   24.6230   41.0610 H   0  0  0  0  0  0  0  0  0  0  0  0
   42.3720   25.3750   42.8800 H   0  0  0  0  0  0  0  0  0  0  0  0
   42.8770   26.5050   41.6240 H   0  0  0  0  0  0  0  0  0  0  0  0
   42.3560   27.5330   43.7050 H   0  0  0  0  0  0  0  0  0  0  0  0
   40.4920   27.0690   44.7980 H   0  0  0  0  0  0  0  0  0  0  0  0
   39.6480   27.9810   43.5490 H   0  0  0  0  0  0  0  0  0  0  0  0
   40.0680   24.9670   43.9390 H   0  0  0  0  0  0  0  0  0  0  0  0
   38.6030   25.9010   43.6470 H   0  0  0  0  0  0  0  0  0  0  0  0
   36.2090   27.8980   40.9590 C   0  0  0  0  0  0  0  0  0  0  0  0
   37.5260   27.4270   40.7510 C   0  0  0  0  0  0  0  0  0  0  0  0
   38.3990   28.4880   40.5840 C   0  0  0  0  0  0  0  0  0  0  0  0
   38.0760   29.8090   40.6050 C   0  0  0  0  0  0  0  0  0  0  0  0
   36.7630   30.1800   40.8080 C   0  0  0  0  0  0  0  0  0  0  0  0
   35.8110   29.2170   40.9900 C   0  0  0  0  0  0  0  0  0  0  0  0
   36.7730   31.5620   40.7660 O   0  0  0  0  0  0  0  0  0  0  0  0
   38.0920   32.0370   40.6600 C   0  0  1  0  0  0  0  0  0  0  0  0
   38.9250   30.8950   40.4450 O   0  0  0  0  0  0  0  0  0  0  0  0
   35.2740   27.3290   41.1380 H   0  0  0  0  0  0  0  0  0  0  0  0
   39.3720   28.1450   40.4280 H   0  0  0  0  0  0  0  0  0  0  0  0
   34.8320   29.6100   41.1420 H   0  0  0  0  0  0  0  0  0  0  0  0
   38.3300   32.4380   41.6900 H   0  0  0  0  0  0  0  0  0  0  0  0
   38.2680   33.0670   39.6290 C   0  0  0  0  0  0  0  0  0  0  0  0
   39.2310   33.0880   39.1330 H   0  0  0  0  0  0  0  0  0  0  0  0
   37.2390   33.7470   39.5170 O   0  0  0  0  0  0  0  0  0  0  0  0
  1  2  1  0  0  0  0
  1  7  1  0  0  0  0
  2  9  1  0  0  0  0
  3 25  1  0  0  0  0
  3  2  2  0  0  0  0
  4  3  1  0  0  0  0
  5  4  2  0  0  0  0
  5  6  1  0  0  0  0
  6  1  2  0  0  0  0
  8  5  1  0  0  0  0
  9 14  1  0  0  0  0
 10  9  1  0  0  0  0
 10 11  1  0  0  0  0
 11 17  1  0  0  0  0
 11 12  1  0  0  0  0
 12 13  1  0  0  0  0
 12 19  1  0  0  0  0
 13 20  1  0  0  0  0
 14 23  1  0  0  0  0
 14 13  1  0  0  0  0
 14 22  1  0  0  0  0
 15 10  1  0  0  0  0
 16 10  1  0  0  0  0
 18 11  1  0  0  0  0
 21 13  1  0  0  0  0
 24 29  1  0  0  0  0
 24 33  1  0  0  0  0
 25 24  2  0  0  0  0
 26 27  2  0  0  0  0
 26 25  1  0  0  0  0
 27 28  1  0  0  0  0
 28 29  2  0  0  0  0
 29 35  1  0  0  0  0
 30 28  1  0  0  0  0
 31 30  1  0  0  0  0
 31 36  1  1  0  0  0
 32 27  1  0  0  0  0
 32 31  1  0  0  0  0
 34 26  1  0  0  0  0
 37 31  1  0  0  0  0
 38 37  1  0  0  0  0
 39 37  2  0  0  0  0
M  END
>  <minimizedAffinity>
-4.86324024

$$$$
