
 OpenBabel03252508583D

 33 34  0  0  1  0  0  0  0  0999 V2000
   48.5140   33.8990   41.3240 N   0  0  0  0  0  0  0  0  0  0  0  0
   49.0350   33.0730   42.3290 C   0  0  0  0  0  0  0  0  0  0  0  0
   48.9460   31.5970   42.1100 C   0  0  0  0  0  0  0  0  0  0  0  0
   49.0320   31.1660   40.6680 C   0  0  0  0  0  0  0  0  0  0  0  0
   49.2490   32.3200   39.7440 C   0  0  0  0  0  0  0  0  0  0  0  0
   48.1320   33.3330   40.0980 C   0  0  2  0  0  0  0  0  0  0  0  0
   48.5560   33.3100   43.3150 H   0  0  0  0  0  0  0  0  0  0  0  0
   50.1160   33.3320   42.4690 H   0  0  0  0  0  0  0  0  0  0  0  0
   47.9290   31.2890   42.4670 H   0  0  0  0  0  0  0  0  0  0  0  0
   49.6580   31.0840   42.7700 H   0  0  0  0  0  0  0  0  0  0  0  0
   48.1660   30.5900   40.3370 H   0  0  0  0  0  0  0  0  0  0  0  0
   49.9220   30.4930   40.5980 H   0  0  0  0  0  0  0  0  0  0  0  0
   49.0730   31.9920   38.7010 H   0  0  0  0  0  0  0  0  0  0  0  0
   50.2220   32.8140   39.9020 H   0  0  0  0  0  0  0  0  0  0  0  0
   47.2160   32.7550   40.0330 H   0  0  0  0  0  0  0  0  0  0  0  0
   47.7700   35.0500   41.7590 C   0  0  0  0  0  0  0  0  0  0  0  0
   48.0000   35.9370   41.1480 H   0  0  0  0  0  0  0  0  0  0  0  0
   48.0640   35.2730   42.8020 H   0  0  0  0  0  0  0  0  0  0  0  0
   46.3000   34.7740   41.7540 C   0  0  0  0  0  0  0  0  0  0  0  0
   45.7890   35.4910   41.1180 H   0  0  0  0  0  0  0  0  0  0  0  0
   46.0130   33.7590   41.4150 H   0  0  0  0  0  0  0  0  0  0  0  0
   44.4980   36.0370   44.7990 C   0  0  0  0  0  0  0  0  0  0  0  0
   45.0040   35.9660   43.4840 C   0  0  0  0  0  0  0  0  0  0  0  0
   45.7630   34.8710   43.1290 C   0  0  0  0  0  0  0  0  0  0  0  0
   45.9890   33.9230   44.0500 N   0  0  0  0  0  0  0  0  0  0  0  0
   45.5010   34.0000   45.3060 C   0  0  0  0  0  0  0  0  0  0  0  0
   44.7500   35.0600   45.6900 N   0  0  0  0  0  0  0  0  0  0  0  0
   43.9080   36.9170   45.0210 H   0  0  0  0  0  0  0  0  0  0  0  0
   44.7950   36.7560   42.7750 H   0  0  0  0  0  0  0  0  0  0  0  0
   45.6890   33.2280   46.0380 H   0  0  0  0  0  0  0  0  0  0  0  0
   48.2070   34.3140   38.9740 C   0  0  0  0  0  0  0  0  0  0  0  0
   48.1460   35.3810   39.1530 H   0  0  0  0  0  0  0  0  0  0  0  0
   48.3180   34.5120   37.8020 O   0  0  0  0  0  0  0  0  0  0  0  0
  1 16  1  0  0  0  0
  1  2  1  0  0  0  0
  2  8  1  0  0  0  0
  2  7  1  0  0  0  0
  3  2  1  0  0  0  0
  3  9  1  0  0  0  0
  3 10  1  0  0  0  0
  4  3  1  0  0  0  0
  5 14  1  0  0  0  0
  5  6  1  0  0  0  0
  5  4  1  0  0  0  0
  6 15  1  1  0  0  0
  6  1  1  0  0  0  0
 11  4  1  0  0  0  0
 12  4  1  0  0  0  0
 13  5  1  0  0  0  0
 16 18  1  0  0  0  0
 17 16  1  0  0  0  0
 19 16  1  0  0  0  0
 19 24  1  0  0  0  0
 20 19  1  0  0  0  0
 21 19  1  0  0  0  0
 22 28  1  0  0  0  0
 22 27  1  0  0  0  0
 23 22  2  0  0  0  0
 24 23  1  0  0  0  0
 24 25  2  0  0  0  0
 25 26  1  0  0  0  0
 26 27  2  0  0  0  0
 26 30  1  0  0  0  0
 29 23  1  0  0  0  0
 31 32  1  0  0  0  0
 31  6  1  0  0  0  0
 33 31  2  0  0  0  0
M  END
>  <minimizedAffinity>
-4.20393515

>  <minimizedRMSD>
1.10308063

$$$$
