
 OpenBabel03252504503D

 18 18  0  0  0  0  0  0  0  0999 V2000
   36.8120   29.8490   41.7590 C   0  0  0  0  0  0  0  0  0  0  0  0
   38.1050   29.7110   42.3090 C   0  0  0  0  0  0  0  0  0  0  0  0
   39.0650   30.6270   41.8680 C   0  0  0  0  0  0  0  0  0  0  0  0
   38.7000   31.5640   40.9650 N   0  0  0  0  0  0  0  0  0  0  0  0
   37.4510   31.6570   40.4670 C   0  0  0  0  0  0  0  0  0  0  0  0
   36.4930   30.7850   40.8720 N   0  0  0  0  0  0  0  0  0  0  0  0
   36.0720   29.1570   42.0880 H   0  0  0  0  0  0  0  0  0  0  0  0
   40.0680   30.5490   42.2690 H   0  0  0  0  0  0  0  0  0  0  0  0
   38.3770   28.6650   43.2720 C   0  0  0  0  0  0  0  0  0  0  0  0
   38.8560   29.0780   44.1580 H   0  0  0  0  0  0  0  0  0  0  0  0
   39.0140   27.9020   42.7550 H   0  0  0  0  0  0  0  0  0  0  0  0
   37.0770   27.9500   43.5710 C   0  0  0  0  0  0  0  0  0  0  0  0
   36.2790   28.2200   42.8590 H   0  0  0  0  0  0  0  0  0  0  0  0
   36.7190   28.3280   44.5710 H   0  0  0  0  0  0  0  0  0  0  0  0
   37.1970   26.8540   43.6280 H   0  0  0  0  0  0  0  0  0  0  0  0
   37.1230   32.6870   39.4990 C   0  0  0  0  0  0  0  0  0  0  0  0
   36.6290   32.4430   38.5860 H   0  0  0  0  0  0  0  0  0  0  0  0
   37.4200   33.8940   39.7260 O   0  0  0  0  0  0  0  0  0  0  0  0
  1  7  1  0  0  0  0
  1  2  1  0  0  0  0
  2  9  1  0  0  0  0
  3  8  1  0  0  0  0
  3  2  2  0  0  0  0
  4  3  1  0  0  0  0
  5  6  1  0  0  0  0
  5  4  2  0  0  0  0
  6  1  2  0  0  0  0
  9 12  1  0  0  0  0
  9 10  1  0  0  0  0
 11  9  1  0  0  0  0
 12 15  1  0  0  0  0
 12 14  1  0  0  0  0
 13 12  1  0  0  0  0
 16 18  2  0  0  0  0
 16  5  1  0  0  0  0
 17 16  1  0  0  0  0
M  END
>  <minimizedAffinity>
-3.35300255

$$$$

 OpenBabel03252504503D

 18 18  0  0  0  0  0  0  0  0999 V2000
   38.7060   31.6340   41.0090 C   0  0  0  0  0  0  0  0  0  0  0  0
   37.4380   31.8700   40.4330 C   0  0  0  0  0  0  0  0  0  0  0  0
   36.4110   31.0070   40.8270 C   0  0  0  0  0  0  0  0  0  0  0  0
   36.6930   30.0260   41.7130 N   0  0  0  0  0  0  0  0  0  0  0  0
   37.9210   29.8390   42.2360 C   0  0  0  0  0  0  0  0  0  0  0  0
   38.9430   30.6570   41.8770 N   0  0  0  0  0  0  0  0  0  0  0  0
   39.4970   32.2870   40.7160 H   0  0  0  0  0  0  0  0  0  0  0  0
   35.4260   31.1590   40.4050 H   0  0  0  0  0  0  0  0  0  0  0  0
   37.2580   32.9560   39.4940 C   0  0  0  0  0  0  0  0  0  0  0  0
   36.2000   33.1900   39.3790 H   0  0  0  0  0  0  0  0  0  0  0  0
   37.7340   32.6380   38.5310 H   0  0  0  0  0  0  0  0  0  0  0  0
   38.0850   34.1320   39.9680 C   0  0  0  0  0  0  0  0  0  0  0  0
   38.7890   33.8520   40.7690 H   0  0  0  0  0  0  0  0  0  0  0  0
   37.3700   34.8610   40.4470 H   0  0  0  0  0  0  0  0  0  0  0  0
   38.6120   34.6420   39.1430 H   0  0  0  0  0  0  0  0  0  0  0  0
   38.1590   28.7660   43.1830 C   0  0  0  0  0  0  0  0  0  0  0  0
   39.1500   28.5050   43.4780 H   0  0  0  0  0  0  0  0  0  0  0  0
   37.1890   28.1210   43.6740 O   0  0  0  0  0  0  0  0  0  0  0  0
  1  6  1  0  0  0  0
  2  3  1  0  0  0  0
  2  1  2  0  0  0  0
  3  4  2  0  0  0  0
  4  5  1  0  0  0  0
  5 16  1  0  0  0  0
  6  5  2  0  0  0  0
  7  1  1  0  0  0  0
  8  3  1  0  0  0  0
  9 12  1  0  0  0  0
  9  2  1  0  0  0  0
 10  9  1  0  0  0  0
 11  9  1  0  0  0  0
 12 14  1  0  0  0  0
 12 13  1  0  0  0  0
 15 12  1  0  0  0  0
 16 17  1  0  0  0  0
 16 18  2  0  0  0  0
M  END
>  <minimizedAffinity>
-3.35005736

$$$$

 OpenBabel03252504503D

 18 18  0  0  0  0  0  0  0  0999 V2000
   37.2980   27.6040   42.4610 C   0  0  0  0  0  0  0  0  0  0  0  0
   38.5700   27.8740   43.0120 C   0  0  0  0  0  0  0  0  0  0  0  0
   39.0380   29.1840   42.8720 C   0  0  0  0  0  0  0  0  0  0  0  0
   38.2600   30.0860   42.2330 N   0  0  0  0  0  0  0  0  0  0  0  0
   37.0510   29.7820   41.7230 C   0  0  0  0  0  0  0  0  0  0  0  0
   36.5630   28.5200   41.8390 N   0  0  0  0  0  0  0  0  0  0  0  0
   36.9300   26.6090   42.5620 H   0  0  0  0  0  0  0  0  0  0  0  0
   40.0110   29.4250   43.2830 H   0  0  0  0  0  0  0  0  0  0  0  0
   39.3110   26.8220   43.6750 C   0  0  0  0  0  0  0  0  0  0  0  0
   39.1180   25.8610   43.2000 H   0  0  0  0  0  0  0  0  0  0  0  0
   39.0060   26.8380   44.7530 H   0  0  0  0  0  0  0  0  0  0  0  0
   40.7750   27.2070   43.6790 C   0  0  0  0  0  0  0  0  0  0  0  0
   40.9310   28.2590   43.3870 H   0  0  0  0  0  0  0  0  0  0  0  0
   41.2740   26.6000   42.8700 H   0  0  0  0  0  0  0  0  0  0  0  0
   41.2700   26.9910   44.6420 H   0  0  0  0  0  0  0  0  0  0  0  0
   36.2640   30.7960   41.0480 C   0  0  0  0  0  0  0  0  0  0  0  0
   35.1990   30.7960   41.1110 H   0  0  0  0  0  0  0  0  0  0  0  0
   36.8330   31.6990   40.3710 O   0  0  0  0  0  0  0  0  0  0  0  0
  1  7  1  0  0  0  0
  1  2  1  0  0  0  0
  2  9  1  0  0  0  0
  3  2  2  0  0  0  0
  3  8  1  0  0  0  0
  4  3  1  0  0  0  0
  5  6  1  0  0  0  0
  5  4  2  0  0  0  0
  6  1  2  0  0  0  0
  9 12  1  0  0  0  0
  9 11  1  0  0  0  0
 10  9  1  0  0  0  0
 12 15  1  0  0  0  0
 13 12  1  0  0  0  0
 14 12  1  0  0  0  0
 16 17  1  0  0  0  0
 16  5  1  0  0  0  0
 18 16  2  0  0  0  0
M  END
>  <minimizedAffinity>
-3.31659389

$$$$

 OpenBabel03252504503D

 18 18  0  0  0  0  0  0  0  0999 V2000
   37.2060   27.0800   42.9850 C   0  0  0  0  0  0  0  0  0  0  0  0
   37.0640   26.1750   41.9110 C   0  0  0  0  0  0  0  0  0  0  0  0
   36.9560   26.7400   40.6360 C   0  0  0  0  0  0  0  0  0  0  0  0
   36.9950   28.0860   40.5190 N   0  0  0  0  0  0  0  0  0  0  0  0
   37.1320   28.9110   41.5750 C   0  0  0  0  0  0  0  0  0  0  0  0
   37.2390   28.3990   42.8270 N   0  0  0  0  0  0  0  0  0  0  0  0
   37.2890   26.6610   43.9610 H   0  0  0  0  0  0  0  0  0  0  0  0
   36.8450   26.0730   39.7900 H   0  0  0  0  0  0  0  0  0  0  0  0
   37.0360   24.7500   42.1620 C   0  0  0  0  0  0  0  0  0  0  0  0
   36.4380   24.5290   43.0450 H   0  0  0  0  0  0  0  0  0  0  0  0
   38.1010   24.4160   42.2700 H   0  0  0  0  0  0  0  0  0  0  0  0
   36.5370   24.0590   40.9110 C   0  0  0  0  0  0  0  0  0  0  0  0
   36.5120   24.7380   40.0420 H   0  0  0  0  0  0  0  0  0  0  0  0
   35.4600   23.7820   41.0990 H   0  0  0  0  0  0  0  0  0  0  0  0
   37.1040   23.1420   40.6760 H   0  0  0  0  0  0  0  0  0  0  0  0
   37.1660   30.3490   41.3810 C   0  0  0  0  0  0  0  0  0  0  0  0
   38.0850   30.8870   41.4310 H   0  0  0  0  0  0  0  0  0  0  0  0
   36.0990   30.9870   41.1510 O   0  0  0  0  0  0  0  0  0  0  0  0
  1  7  1  0  0  0  0
  2  9  1  0  0  0  0
  2  1  2  0  0  0  0
  3  2  1  0  0  0  0
  4  3  2  0  0  0  0
  4  5  1  0  0  0  0
  5  6  2  0  0  0  0
  6  1  1  0  0  0  0
  8  3  1  0  0  0  0
  9 11  1  0  0  0  0
  9 10  1  0  0  0  0
 12 14  1  0  0  0  0
 12  9  1  0  0  0  0
 13 12  1  0  0  0  0
 15 12  1  0  0  0  0
 16 17  1  0  0  0  0
 16  5  1  0  0  0  0
 18 16  2  0  0  0  0
M  END
>  <minimizedAffinity>
-3.28788543

$$$$

 OpenBabel03252504503D

 18 18  0  0  0  0  0  0  0  0999 V2000
   35.8570   28.7110   41.2090 C   0  0  0  0  0  0  0  0  0  0  0  0
   36.8000   28.3560   42.1990 C   0  0  0  0  0  0  0  0  0  0  0  0
   37.8350   29.2700   42.4220 C   0  0  0  0  0  0  0  0  0  0  0  0
   37.8640   30.4070   41.6910 N   0  0  0  0  0  0  0  0  0  0  0  0
   36.9400   30.7030   40.7560 C   0  0  0  0  0  0  0  0  0  0  0  0
   35.9210   29.8390   40.5120 N   0  0  0  0  0  0  0  0  0  0  0  0
   35.0630   28.0220   41.0310 H   0  0  0  0  0  0  0  0  0  0  0  0
   38.5760   29.0290   43.1740 H   0  0  0  0  0  0  0  0  0  0  0  0
   36.6630   27.1080   42.9180 C   0  0  0  0  0  0  0  0  0  0  0  0
   35.6600   26.7030   42.7910 H   0  0  0  0  0  0  0  0  0  0  0  0
   36.9070   27.3200   43.9910 H   0  0  0  0  0  0  0  0  0  0  0  0
   37.7540   26.1700   42.4480 C   0  0  0  0  0  0  0  0  0  0  0  0
   38.5200   26.6890   41.8480 H   0  0  0  0  0  0  0  0  0  0  0  0
   37.2710   25.4380   41.7400 H   0  0  0  0  0  0  0  0  0  0  0  0
   38.2190   25.6090   43.2770 H   0  0  0  0  0  0  0  0  0  0  0  0
   37.0280   31.9410   40.0040 C   0  0  0  0  0  0  0  0  0  0  0  0
   37.1650   32.8750   40.5000 H   0  0  0  0  0  0  0  0  0  0  0  0
   36.9420   31.9290   38.7430 O   0  0  0  0  0  0  0  0  0  0  0  0
  1  2  1  0  0  0  0
  2  3  2  0  0  0  0
  2  9  1  0  0  0  0
  3  8  1  0  0  0  0
  4  3  1  0  0  0  0
  5  4  2  0  0  0  0
  6  5  1  0  0  0  0
  6  1  2  0  0  0  0
  7  1  1  0  0  0  0
  9 11  1  0  0  0  0
 10  9  1  0  0  0  0
 12  9  1  0  0  0  0
 12 15  1  0  0  0  0
 13 12  1  0  0  0  0
 14 12  1  0  0  0  0
 16 17  1  0  0  0  0
 16  5  1  0  0  0  0
 18 16  2  0  0  0  0
M  END
>  <minimizedAffinity>
-3.19723034

$$$$

 OpenBabel03252504503D

 18 18  0  0  0  0  0  0  0  0999 V2000
   38.8050   26.6580   42.3560 C   0  0  0  0  0  0  0  0  0  0  0  0
   37.4030   26.4970   42.4090 C   0  0  0  0  0  0  0  0  0  0  0  0
   36.6530   27.6660   42.5750 C   0  0  0  0  0  0  0  0  0  0  0  0
   37.3050   28.8460   42.6710 N   0  0  0  0  0  0  0  0  0  0  0  0
   38.6470   28.9510   42.6150 C   0  0  0  0  0  0  0  0  0  0  0  0
   39.4080   27.8380   42.4550 N   0  0  0  0  0  0  0  0  0  0  0  0
   39.3870   25.7750   42.2290 H   0  0  0  0  0  0  0  0  0  0  0  0
   35.5750   27.5790   42.6200 H   0  0  0  0  0  0  0  0  0  0  0  0
   36.8190   25.1780   42.2930 C   0  0  0  0  0  0  0  0  0  0  0  0
   36.0560   25.1660   41.5150 H   0  0  0  0  0  0  0  0  0  0  0  0
   36.4080   24.9130   43.3010 H   0  0  0  0  0  0  0  0  0  0  0  0
   37.9370   24.1860   42.0530 C   0  0  0  0  0  0  0  0  0  0  0  0
   38.9310   24.6280   42.2310 H   0  0  0  0  0  0  0  0  0  0  0  0
   37.9190   23.9340   40.9550 H   0  0  0  0  0  0  0  0  0  0  0  0
   37.8110   23.2560   42.6340 H   0  0  0  0  0  0  0  0  0  0  0  0
   39.2870   30.2480   42.7260 C   0  0  0  0  0  0  0  0  0  0  0  0
   39.8940   30.4900   43.5680 H   0  0  0  0  0  0  0  0  0  0  0  0
   39.1320   31.1150   41.8190 O   0  0  0  0  0  0  0  0  0  0  0  0
  1  2  2  0  0  0  0
  1  6  1  0  0  0  0
  2  3  1  0  0  0  0
  3  8  1  0  0  0  0
  3  4  2  0  0  0  0
  5  4  1  0  0  0  0
  5 16  1  0  0  0  0
  6  5  2  0  0  0  0
  7  1  1  0  0  0  0
  9  2  1  0  0  0  0
  9 11  1  0  0  0  0
 10  9  1  0  0  0  0
 12 13  1  0  0  0  0
 12  9  1  0  0  0  0
 12 15  1  0  0  0  0
 14 12  1  0  0  0  0
 16 17  1  0  0  0  0
 18 16  2  0  0  0  0
M  END
>  <minimizedAffinity>
-3.05337024

$$$$

 OpenBabel03252504503D

 18 18  0  0  0  0  0  0  0  0999 V2000
   36.7840   30.5790   38.1700 C   0  0  0  0  0  0  0  0  0  0  0  0
   36.0900   29.8000   39.1220 C   0  0  0  0  0  0  0  0  0  0  0  0
   36.0430   30.3130   40.4220 C   0  0  0  0  0  0  0  0  0  0  0  0
   36.6500   31.4930   40.6760 N   0  0  0  0  0  0  0  0  0  0  0  0
   37.3010   32.2020   39.7330 C   0  0  0  0  0  0  0  0  0  0  0  0
   37.3680   31.7360   38.4600 N   0  0  0  0  0  0  0  0  0  0  0  0
   36.8260   30.1990   37.1750 H   0  0  0  0  0  0  0  0  0  0  0  0
   35.5200   29.7400   41.1780 H   0  0  0  0  0  0  0  0  0  0  0  0
   35.4780   28.5490   38.7300 C   0  0  0  0  0  0  0  0  0  0  0  0
   35.5700   27.8130   39.5270 H   0  0  0  0  0  0  0  0  0  0  0  0
   35.9820   28.2210   37.7830 H   0  0  0  0  0  0  0  0  0  0  0  0
   34.0450   28.8290   38.3320 C   0  0  0  0  0  0  0  0  0  0  0  0
   33.8470   29.9070   38.2190 H   0  0  0  0  0  0  0  0  0  0  0  0
   33.3970   28.4990   39.1940 H   0  0  0  0  0  0  0  0  0  0  0  0
   33.7390   28.2770   37.4260 H   0  0  0  0  0  0  0  0  0  0  0  0
   37.9330   33.4640   40.0710 C   0  0  0  0  0  0  0  0  0  0  0  0
   37.6960   34.3560   39.5360 H   0  0  0  0  0  0  0  0  0  0  0  0
   38.7790   33.5230   41.0080 O   0  0  0  0  0  0  0  0  0  0  0  0
  1  6  2  0  0  0  0
  1  2  1  0  0  0  0
  2  3  2  0  0  0  0
  3  4  1  0  0  0  0
  3  8  1  0  0  0  0
  5 16  1  0  0  0  0
  5  4  2  0  0  0  0
  6  5  1  0  0  0  0
  7  1  1  0  0  0  0
  9  2  1  0  0  0  0
  9 10  1  0  0  0  0
 11  9  1  0  0  0  0
 12  9  1  0  0  0  0
 12 14  1  0  0  0  0
 13 12  1  0  0  0  0
 15 12  1  0  0  0  0
 16 18  2  0  0  0  0
 17 16  1  0  0  0  0
M  END
>  <minimizedAffinity>
-3.03088474

$$$$

 OpenBabel03252504503D

 18 18  0  0  0  0  0  0  0  0999 V2000
   36.2380   27.9850   40.4390 C   0  0  0  0  0  0  0  0  0  0  0  0
   35.5220   29.0960   39.9410 C   0  0  0  0  0  0  0  0  0  0  0  0
   35.8190   30.3320   40.5230 C   0  0  0  0  0  0  0  0  0  0  0  0
   36.7500   30.3810   41.5020 N   0  0  0  0  0  0  0  0  0  0  0  0
   37.4080   29.2920   41.9440 C   0  0  0  0  0  0  0  0  0  0  0  0
   37.1470   28.0750   41.4030 N   0  0  0  0  0  0  0  0  0  0  0  0
   36.0210   27.0370   40.0020 H   0  0  0  0  0  0  0  0  0  0  0  0
   35.2880   31.2050   40.1660 H   0  0  0  0  0  0  0  0  0  0  0  0
   34.5470   28.9180   38.8870 C   0  0  0  0  0  0  0  0  0  0  0  0
   33.6700   29.5380   39.0700 H   0  0  0  0  0  0  0  0  0  0  0  0
   34.3000   27.8250   38.8510 H   0  0  0  0  0  0  0  0  0  0  0  0
   35.2230   29.2090   37.5640 C   0  0  0  0  0  0  0  0  0  0  0  0
   36.3190   29.2760   37.6620 H   0  0  0  0  0  0  0  0  0  0  0  0
   34.8930   30.2410   37.2500 H   0  0  0  0  0  0  0  0  0  0  0  0
   34.9420   28.4900   36.7750 H   0  0  0  0  0  0  0  0  0  0  0  0
   38.3970   29.4120   42.9990 C   0  0  0  0  0  0  0  0  0  0  0  0
   38.3760   28.7650   43.8470 H   0  0  0  0  0  0  0  0  0  0  0  0
   39.3040   30.2900   42.9270 O   0  0  0  0  0  0  0  0  0  0  0  0
  1  6  1  0  0  0  0
  2  1  2  0  0  0  0
  2  3  1  0  0  0  0
  3  4  2  0  0  0  0
  4  5  1  0  0  0  0
  5 16  1  0  0  0  0
  6  5  2  0  0  0  0
  7  1  1  0  0  0  0
  8  3  1  0  0  0  0
  9 10  1  0  0  0  0
  9  2  1  0  0  0  0
 11  9  1  0  0  0  0
 12 13  1  0  0  0  0
 12  9  1  0  0  0  0
 14 12  1  0  0  0  0
 15 12  1  0  0  0  0
 16 17  1  0  0  0  0
 18 16  2  0  0  0  0
M  END
>  <minimizedAffinity>
-2.9904089

$$$$

 OpenBabel03252504503D

 18 18  0  0  0  0  0  0  0  0999 V2000
   36.8640   26.1250   40.4570 C   0  0  0  0  0  0  0  0  0  0  0  0
   37.1600   25.7570   41.7880 C   0  0  0  0  0  0  0  0  0  0  0  0
   36.9740   26.7470   42.7580 C   0  0  0  0  0  0  0  0  0  0  0  0
   36.5350   27.9640   42.3670 N   0  0  0  0  0  0  0  0  0  0  0  0
   36.2650   28.2690   41.0820 C   0  0  0  0  0  0  0  0  0  0  0  0
   36.4330   27.3330   40.1130 N   0  0  0  0  0  0  0  0  0  0  0  0
   37.0010   25.3780   39.7090 H   0  0  0  0  0  0  0  0  0  0  0  0
   37.1930   26.4990   43.7890 H   0  0  0  0  0  0  0  0  0  0  0  0
   37.6250   24.4190   42.0850 C   0  0  0  0  0  0  0  0  0  0  0  0
   37.5280   23.7780   41.2100 H   0  0  0  0  0  0  0  0  0  0  0  0
   37.0230   24.0500   42.9560 H   0  0  0  0  0  0  0  0  0  0  0  0
   39.0430   24.5170   42.6040 C   0  0  0  0  0  0  0  0  0  0  0  0
   39.3290   25.5540   42.8440 H   0  0  0  0  0  0  0  0  0  0  0  0
   39.7220   24.2120   41.7570 H   0  0  0  0  0  0  0  0  0  0  0  0
   39.2280   23.8510   43.4650 H   0  0  0  0  0  0  0  0  0  0  0  0
   35.7960   29.5950   40.7270 C   0  0  0  0  0  0  0  0  0  0  0  0
   34.9020   29.9930   41.1510 H   0  0  0  0  0  0  0  0  0  0  0  0
   36.4440   30.3020   39.9030 O   0  0  0  0  0  0  0  0  0  0  0  0
  1  2  1  0  0  0  0
  2  9  1  0  0  0  0
  2  3  2  0  0  0  0
  3  8  1  0  0  0  0
  4  3  1  0  0  0  0
  5  4  2  0  0  0  0
  6  1  2  0  0  0  0
  6  5  1  0  0  0  0
  7  1  1  0  0  0  0
  9 12  1  0  0  0  0
  9 11  1  0  0  0  0
 10  9  1  0  0  0  0
 12 13  1  0  0  0  0
 12 15  1  0  0  0  0
 14 12  1  0  0  0  0
 16  5  1  0  0  0  0
 16 17  1  0  0  0  0
 18 16  2  0  0  0  0
M  END
>  <minimizedAffinity>
-2.9840076

$$$$
