
 OpenBabel03252500133D

 32 34  0  0  0  0  0  0  0  0999 V2000
   45.5180   32.3500   40.5400 Cl  0  0  0  0  0  0  0  0  0  0  0  0
   46.8080   33.4630   40.1880 C   0  0  0  0  0  0  0  0  0  0  0  0
   47.3720   34.2030   41.1810 C   0  0  0  0  0  0  0  0  0  0  0  0
   48.4120   35.1090   40.9260 C   0  0  0  0  0  0  0  0  0  0  0  0
   48.8250   35.2000   39.6130 C   0  0  0  0  0  0  0  0  0  0  0  0
   48.2460   34.4470   38.6220 C   0  0  0  0  0  0  0  0  0  0  0  0
   47.2560   33.5880   38.8810 C   0  0  0  0  0  0  0  0  0  0  0  0
   48.8650   35.7010   41.7110 H   0  0  0  0  0  0  0  0  0  0  0  0
   49.6300   35.8910   39.3730 H   0  0  0  0  0  0  0  0  0  0  0  0
   48.6330   34.5820   37.6180 H   0  0  0  0  0  0  0  0  0  0  0  0
   46.8980   32.9110   44.5990 C   0  0  0  0  0  0  0  0  0  0  0  0
   45.9560   33.8190   45.1420 C   0  0  0  0  0  0  0  0  0  0  0  0
   45.5050   34.8520   44.3270 C   0  0  0  0  0  0  0  0  0  0  0  0
   45.9900   34.9400   43.0500 N   0  0  0  0  0  0  0  0  0  0  0  0
   46.8860   34.0600   42.5610 C   0  0  0  0  0  0  0  0  0  0  0  0
   47.3350   33.0510   43.3390 N   0  0  0  0  0  0  0  0  0  0  0  0
   47.2540   32.1050   45.2270 H   0  0  0  0  0  0  0  0  0  0  0  0
   45.5770   33.7400   46.1590 H   0  0  0  0  0  0  0  0  0  0  0  0
   44.5150   35.8680   44.7860 C   0  0  0  0  0  0  0  0  0  0  0  0
   44.9730   37.1330   44.5620 F   0  0  0  0  0  0  0  0  0  0  0  0
   43.3420   35.6870   44.0800 F   0  0  0  0  0  0  0  0  0  0  0  0
   44.3050   35.6370   46.1280 F   0  0  0  0  0  0  0  0  0  0  0  0
   46.6320   32.7830   37.8480 C   0  0  0  0  0  0  0  0  0  0  0  0
   45.5920   33.1900   37.0320 C   0  0  0  0  0  0  0  0  0  0  0  0
   45.2440   32.1890   36.1680 C   0  0  0  0  0  0  0  0  0  0  0  0
   46.1170   31.1680   36.5010 C   0  0  0  0  0  0  0  0  0  0  0  0
   46.9070   31.5590   37.4850 O   0  0  0  0  0  0  0  0  0  0  0  0
   45.0850   34.1670   37.0380 H   0  0  0  0  0  0  0  0  0  0  0  0
   44.5020   32.0990   35.3880 H   0  0  0  0  0  0  0  0  0  0  0  0
   46.2830   29.8220   35.9660 C   0  0  0  0  0  0  0  0  0  0  0  0
   45.9390   29.0020   36.5730 H   0  0  0  0  0  0  0  0  0  0  0  0
   46.7820   29.4940   34.8680 O   0  0  0  0  0  0  0  0  0  0  0  0
  2  1  1  0  0  0  0
  2  3  1  0  0  0  0
  3 15  1  0  0  0  0
  4  3  2  0  0  0  0
  4  8  1  0  0  0  0
  5  4  1  0  0  0  0
  6  7  1  0  0  0  0
  6  5  2  0  0  0  0
  7  2  2  0  0  0  0
  9  5  1  0  0  0  0
 10  6  1  0  0  0  0
 11 12  1  0  0  0  0
 11 17  1  0  0  0  0
 12 18  1  0  0  0  0
 13 19  1  0  0  0  0
 13 12  2  0  0  0  0
 14 13  1  0  0  0  0
 15 14  2  0  0  0  0
 15 16  1  0  0  0  0
 16 11  2  0  0  0  0
 19 22  1  0  0  0  0
 20 19  1  0  0  0  0
 21 19  1  0  0  0  0
 23  7  1  0  0  0  0
 24 28  1  0  0  0  0
 24 23  2  0  0  0  0
 25 26  2  0  0  0  0
 25 24  1  0  0  0  0
 26 27  1  0  0  0  0
 27 23  1  0  0  0  0
 29 25  1  0  0  0  0
 30 26  1  0  0  0  0
 30 31  1  0  0  0  0
 32 30  2  0  0  0  0
M  END
>  <minimizedAffinity>
-5.46439362

>  <minimizedRMSD>
0.0884503424

$$$$
