
 OpenBabel03252508313D

 26 27  0  0  1  0  0  0  0  0999 V2000
   46.2230   34.2910   41.7650 N   0  0  0  0  0  0  0  0  0  0  0  0
   47.6400   34.1050   41.6110 C   0  0  1  0  0  0  0  0  0  0  0  0
   48.0840   33.7400   40.2520 C   0  0  0  0  0  0  0  0  0  0  0  0
   47.2270   32.9360   39.4880 N   0  0  0  0  0  0  0  0  0  0  0  0
   45.8570   32.9290   39.7920 C   0  0  0  0  0  0  0  0  0  0  0  0
   45.4740   34.1910   40.5550 C   0  0  0  0  0  0  0  0  0  0  0  0
   48.0100   33.3970   42.3880 H   0  0  0  0  0  0  0  0  0  0  0  0
   48.3940   34.6630   39.7040 H   0  0  0  0  0  0  0  0  0  0  0  0
   49.0560   33.1760   40.3670 H   0  0  0  0  0  0  0  0  0  0  0  0
   47.3560   33.1690   38.4680 H   0  0  0  0  0  0  0  0  0  0  0  0
   45.6620   32.0950   40.5270 H   0  0  0  0  0  0  0  0  0  0  0  0
   45.2010   32.7300   38.9460 H   0  0  0  0  0  0  0  0  0  0  0  0
   44.4000   34.3080   40.6090 H   0  0  0  0  0  0  0  0  0  0  0  0
   45.8350   35.0380   39.8980 H   0  0  0  0  0  0  0  0  0  0  0  0
   44.9920   35.7100   43.2260 C   0  0  0  0  0  0  0  0  0  0  0  0
   45.7400   34.5500   43.0620 C   0  0  0  0  0  0  0  0  0  0  0  0
   45.9360   33.7740   44.1890 C   0  0  0  0  0  0  0  0  0  0  0  0
   45.4210   34.1320   45.3930 N   0  0  0  0  0  0  0  0  0  0  0  0
   44.6930   35.2800   45.5110 C   0  0  0  0  0  0  0  0  0  0  0  0
   44.4830   36.0530   44.4410 N   0  0  0  0  0  0  0  0  0  0  0  0
   44.7260   36.4460   42.4830 H   0  0  0  0  0  0  0  0  0  0  0  0
   46.5060   32.8880   44.0710 H   0  0  0  0  0  0  0  0  0  0  0  0
   44.3250   35.4790   46.5060 H   0  0  0  0  0  0  0  0  0  0  0  0
   48.2580   35.4370   41.9710 C   0  0  0  0  0  0  0  0  0  0  0  0
   48.1140   35.9520   42.9140 H   0  0  0  0  0  0  0  0  0  0  0  0
   48.9420   35.8600   41.0600 O   0  0  0  0  0  0  0  0  0  0  0  0
  1 16  1  0  0  0  0
  2  1  1  0  0  0  0
  2 24  1  0  0  0  0
  2  7  1  1  0  0  0
  3  9  1  0  0  0  0
  3  2  1  0  0  0  0
  4  5  1  0  0  0  0
  4  3  1  0  0  0  0
  5 11  1  0  0  0  0
  5  6  1  0  0  0  0
  6 13  1  0  0  0  0
  6  1  1  0  0  0  0
  8  3  1  0  0  0  0
 10  4  1  0  0  0  0
 12  5  1  0  0  0  0
 14  6  1  0  0  0  0
 15 20  1  0  0  0  0
 16 15  2  0  0  0  0
 16 17  1  0  0  0  0
 17 18  2  0  0  0  0
 18 19  1  0  0  0  0
 19 23  1  0  0  0  0
 20 19  2  0  0  0  0
 21 15  1  0  0  0  0
 22 17  1  0  0  0  0
 24 25  1  0  0  0  0
 26 24  2  0  0  0  0
M  END
>  <minimizedAffinity>
-3.96903968

>  <minimizedRMSD>
3.01695132

$$$$
