
 OpenBabel03252506273D

 39 42  0  0  0  0  0  0  0  0999 V2000
   37.0600   31.2590   39.2120 C   0  0  0  0  0  0  0  0  0  0  0  0
   36.1370   31.2830   38.5810 H   0  0  0  0  0  0  0  0  0  0  0  0
   37.8990   31.2000   38.4610 H   0  0  0  0  0  0  0  0  0  0  0  0
   36.8590   28.7310   39.6250 C   0  0  0  0  0  0  0  0  0  0  0  0
   37.0020   30.0450   40.0120 C   0  0  0  0  0  0  0  0  0  0  0  0
   37.1070   30.2660   41.3830 C   0  0  0  0  0  0  0  0  0  0  0  0
   37.0710   29.2380   42.2960 C   0  0  0  0  0  0  0  0  0  0  0  0
   37.1480   29.1510   43.6370 N   0  0  0  0  0  0  0  0  0  0  0  0
   37.0610   27.8850   44.0540 C   0  0  0  0  0  0  0  0  0  0  0  0
   36.9160   27.0620   42.9410 C   0  0  0  0  0  0  0  0  0  0  0  0
   36.9290   27.9400   41.8920 C   0  0  0  0  0  0  0  0  0  0  0  0
   36.8240   27.7040   40.5370 C   0  0  0  0  0  0  0  0  0  0  0  0
   36.7800   28.6120   38.5360 H   0  0  0  0  0  0  0  0  0  0  0  0
   37.2220   31.2390   41.8330 H   0  0  0  0  0  0  0  0  0  0  0  0
   37.2610   29.9640   44.2890 H   0  0  0  0  0  0  0  0  0  0  0  0
   37.0950   27.5570   45.0890 H   0  0  0  0  0  0  0  0  0  0  0  0
   36.8160   25.9810   42.9050 H   0  0  0  0  0  0  0  0  0  0  0  0
   36.6700   26.3400   40.0450 C   0  0  0  0  0  0  0  0  0  0  0  0
   35.6700   25.9260   39.8910 H   0  0  0  0  0  0  0  0  0  0  0  0
   37.6650   25.6140   39.7880 O   0  0  0  0  0  0  0  0  0  0  0  0
   37.1050   32.5480   39.9490 C   0  0  0  0  0  0  0  0  0  0  0  0
   36.2920   33.2130   39.5840 H   0  0  0  0  0  0  0  0  0  0  0  0
   36.8910   32.3500   41.0000 H   0  0  0  0  0  0  0  0  0  0  0  0
   40.4800   33.4500   39.1870 C   0  0  0  0  0  0  0  0  0  0  0  0
   40.0340   34.5700   39.9180 C   0  0  0  0  0  0  0  0  0  0  0  0
   38.7500   34.3670   40.2800 C   0  0  0  0  0  0  0  0  0  0  0  0
   38.4090   33.1700   39.7940 N   0  0  0  0  0  0  0  0  0  0  0  0
   39.4330   32.6120   39.1390 N   0  0  0  0  0  0  0  0  0  0  0  0
   40.5880   35.4760   40.1790 H   0  0  0  0  0  0  0  0  0  0  0  0
   38.0920   35.0180   40.8490 H   0  0  0  0  0  0  0  0  0  0  0  0
   43.2650   32.1950   37.1820 C   0  0  0  0  0  0  0  0  0  0  0  0
   44.3270   33.0120   37.5620 C   0  0  0  0  0  0  0  0  0  0  0  0
   44.0700   34.0040   38.5210 C   0  0  0  0  0  0  0  0  0  0  0  0
   42.8130   34.0970   39.0070 N   0  0  0  0  0  0  0  0  0  0  0  0
   41.8110   33.3060   38.6310 C   0  0  0  0  0  0  0  0  0  0  0  0
   42.0460   32.3530   37.7140 N   0  0  0  0  0  0  0  0  0  0  0  0
   43.5080   31.4450   36.4410 H   0  0  0  0  0  0  0  0  0  0  0  0
   45.3460   32.9670   37.1930 H   0  0  0  0  0  0  0  0  0  0  0  0
   44.8030   34.7010   38.9000 H   0  0  0  0  0  0  0  0  0  0  0  0
  1 21  1  0  0  0  0
  1  5  1  0  0  0  0
  2  1  1  0  0  0  0
  3  1  1  0  0  0  0
  4  5  2  0  0  0  0
  4 12  1  0  0  0  0
  5  6  1  0  0  0  0
  6 14  1  0  0  0  0
  6  7  2  0  0  0  0
  7  8  1  0  0  0  0
  8  9  1  0  0  0  0
  8 15  1  0  0  0  0
  9 16  1  0  0  0  0
 10  9  2  0  0  0  0
 11  7  1  0  0  0  0
 11 10  1  0  0  0  0
 12 11  2  0  0  0  0
 13  4  1  0  0  0  0
 17 10  1  0  0  0  0
 18 12  1  0  0  0  0
 19 18  1  0  0  0  0
 20 18  2  0  0  0  0
 21 23  1  0  0  0  0
 22 21  1  0  0  0  0
 24 25  1  0  0  0  0
 25 29  1  0  0  0  0
 25 26  2  0  0  0  0
 26 30  1  0  0  0  0
 27 21  1  0  0  0  0
 27 26  1  0  0  0  0
 28 24  2  0  0  0  0
 28 27  1  0  0  0  0
 31 32  2  0  0  0  0
 31 36  1  0  0  0  0
 32 33  1  0  0  0  0
 33 39  1  0  0  0  0
 33 34  2  0  0  0  0
 35 34  1  0  0  0  0
 35 24  1  0  0  0  0
 36 35  2  0  0  0  0
 37 31  1  0  0  0  0
 38 32  1  0  0  0  0
M  END
>  <minimizedAffinity>
-5.99977684

$$$$

 OpenBabel03252506273D

 39 42  0  0  0  0  0  0  0  0999 V2000
   35.5070   29.3600   38.5920 C   0  0  0  0  0  0  0  0  0  0  0  0
   35.4110   30.4120   38.9590 H   0  0  0  0  0  0  0  0  0  0  0  0
   34.4450   29.0530   38.3710 H   0  0  0  0  0  0  0  0  0  0  0  0
   36.4380   27.2490   39.7200 C   0  0  0  0  0  0  0  0  0  0  0  0
   36.0530   28.5710   39.6850 C   0  0  0  0  0  0  0  0  0  0  0  0
   36.2020   29.2790   40.8750 C   0  0  0  0  0  0  0  0  0  0  0  0
   36.7030   28.6970   42.0160 C   0  0  0  0  0  0  0  0  0  0  0  0
   36.9530   29.1190   43.2700 N   0  0  0  0  0  0  0  0  0  0  0  0
   37.4550   28.1390   44.0270 C   0  0  0  0  0  0  0  0  0  0  0  0
   37.5530   26.9880   43.2530 C   0  0  0  0  0  0  0  0  0  0  0  0
   37.0810   27.3840   42.0310 C   0  0  0  0  0  0  0  0  0  0  0  0
   36.9390   26.6680   40.8600 C   0  0  0  0  0  0  0  0  0  0  0  0
   36.3010   26.7370   38.7580 H   0  0  0  0  0  0  0  0  0  0  0  0
   35.9430   30.3180   40.9980 H   0  0  0  0  0  0  0  0  0  0  0  0
   36.7820   30.0890   43.6260 H   0  0  0  0  0  0  0  0  0  0  0  0
   37.7360   28.2300   45.0720 H   0  0  0  0  0  0  0  0  0  0  0  0
   37.9170   26.0050   43.5400 H   0  0  0  0  0  0  0  0  0  0  0  0
   37.3250   25.2630   40.8150 C   0  0  0  0  0  0  0  0  0  0  0  0
   38.2990   24.9780   40.4090 H   0  0  0  0  0  0  0  0  0  0  0  0
   36.5620   24.3540   41.2350 O   0  0  0  0  0  0  0  0  0  0  0  0
   36.3070   29.4190   37.3410 C   0  0  0  0  0  0  0  0  0  0  0  0
   36.3510   28.4090   36.8800 H   0  0  0  0  0  0  0  0  0  0  0  0
   35.7840   30.0590   36.6290 H   0  0  0  0  0  0  0  0  0  0  0  0
   39.2190   31.3380   38.1310 C   0  0  0  0  0  0  0  0  0  0  0  0
   39.7630   30.0570   37.9030 C   0  0  0  0  0  0  0  0  0  0  0  0
   38.7600   29.2100   37.5880 C   0  0  0  0  0  0  0  0  0  0  0  0
   37.6370   29.9330   37.6190 N   0  0  0  0  0  0  0  0  0  0  0  0
   37.8970   31.2050   37.9420 N   0  0  0  0  0  0  0  0  0  0  0  0
   40.8090   29.7430   37.9570 H   0  0  0  0  0  0  0  0  0  0  0  0
   38.8120   28.1510   37.3520 H   0  0  0  0  0  0  0  0  0  0  0  0
   41.8200   33.9030   38.0870 C   0  0  0  0  0  0  0  0  0  0  0  0
   41.4790   34.7240   39.1590 C   0  0  0  0  0  0  0  0  0  0  0  0
   40.3380   34.3800   39.8990 C   0  0  0  0  0  0  0  0  0  0  0  0
   39.6510   33.2810   39.5210 N   0  0  0  0  0  0  0  0  0  0  0  0
   39.9930   32.5080   38.4930 C   0  0  0  0  0  0  0  0  0  0  0  0
   41.0840   32.8280   37.7770 N   0  0  0  0  0  0  0  0  0  0  0  0
   42.7050   34.2050   37.5440 H   0  0  0  0  0  0  0  0  0  0  0  0
   42.0050   35.6130   39.4910 H   0  0  0  0  0  0  0  0  0  0  0  0
   39.9660   34.9300   40.7510 H   0  0  0  0  0  0  0  0  0  0  0  0
  1  2  1  0  0  0  0
  1  5  1  0  0  0  0
  3  1  1  0  0  0  0
  4 12  1  0  0  0  0
  5  4  2  0  0  0  0
  5  6  1  0  0  0  0
  6 14  1  0  0  0  0
  6  7  2  0  0  0  0
  7 11  1  0  0  0  0
  7  8  1  0  0  0  0
  8 15  1  0  0  0  0
  8  9  1  0  0  0  0
  9 16  1  0  0  0  0
 10 17  1  0  0  0  0
 10  9  2  0  0  0  0
 11 10  1  0  0  0  0
 12 11  2  0  0  0  0
 13  4  1  0  0  0  0
 18 12  1  0  0  0  0
 18 20  2  0  0  0  0
 19 18  1  0  0  0  0
 21 27  1  0  0  0  0
 21  1  1  0  0  0  0
 22 21  1  0  0  0  0
 23 21  1  0  0  0  0
 24 35  1  0  0  0  0
 25 29  1  0  0  0  0
 25 24  1  0  0  0  0
 26 27  1  0  0  0  0
 26 25  2  0  0  0  0
 27 28  1  0  0  0  0
 28 24  2  0  0  0  0
 30 26  1  0  0  0  0
 31 32  1  0  0  0  0
 32 38  1  0  0  0  0
 32 33  2  0  0  0  0
 33 39  1  0  0  0  0
 34 33  1  0  0  0  0
 35 34  2  0  0  0  0
 36 31  2  0  0  0  0
 36 35  1  0  0  0  0
 37 31  1  0  0  0  0
M  END
>  <minimizedAffinity>
-5.83843517

$$$$

 OpenBabel03252506273D

 39 42  0  0  0  0  0  0  0  0999 V2000
   36.1970   30.3700   38.7480 C   0  0  0  0  0  0  0  0  0  0  0  0
   35.6950   31.2040   39.2980 H   0  0  0  0  0  0  0  0  0  0  0  0
   35.4170   30.0240   38.0110 H   0  0  0  0  0  0  0  0  0  0  0  0
   36.6990   27.9790   39.5380 C   0  0  0  0  0  0  0  0  0  0  0  0
   36.4850   29.3260   39.7190 C   0  0  0  0  0  0  0  0  0  0  0  0
   36.5510   29.7800   41.0340 C   0  0  0  0  0  0  0  0  0  0  0  0
   36.8130   28.9360   42.0880 C   0  0  0  0  0  0  0  0  0  0  0  0
   36.9340   29.0850   43.4210 N   0  0  0  0  0  0  0  0  0  0  0  0
   37.2020   27.9230   44.0230 C   0  0  0  0  0  0  0  0  0  0  0  0
   37.2680   26.9270   43.0530 C   0  0  0  0  0  0  0  0  0  0  0  0
   37.0230   27.6010   41.8880 C   0  0  0  0  0  0  0  0  0  0  0  0
   36.9620   27.1360   40.5910 C   0  0  0  0  0  0  0  0  0  0  0  0
   36.6370   27.6730   38.4850 H   0  0  0  0  0  0  0  0  0  0  0  0
   36.4040   30.8070   41.3290 H   0  0  0  0  0  0  0  0  0  0  0  0
   36.8330   29.9900   43.9390 H   0  0  0  0  0  0  0  0  0  0  0  0
   37.3430   27.7830   45.0900 H   0  0  0  0  0  0  0  0  0  0  0  0
   37.4660   25.8670   43.1820 H   0  0  0  0  0  0  0  0  0  0  0  0
   37.1770   25.7200   40.3140 C   0  0  0  0  0  0  0  0  0  0  0  0
   38.1680   25.2830   40.4540 H   0  0  0  0  0  0  0  0  0  0  0  0
   36.2440   24.9760   39.9150 O   0  0  0  0  0  0  0  0  0  0  0  0
   37.3580   30.9680   38.0390 C   0  0  0  0  0  0  0  0  0  0  0  0
   38.0400   30.1600   37.6960 H   0  0  0  0  0  0  0  0  0  0  0  0
   36.9940   31.4650   37.1400 H   0  0  0  0  0  0  0  0  0  0  0  0
   39.6450   32.8230   40.0680 C   0  0  0  0  0  0  0  0  0  0  0  0
   38.4640   33.5840   40.1840 C   0  0  0  0  0  0  0  0  0  0  0  0
   37.4940   32.9930   39.4570 C   0  0  0  0  0  0  0  0  0  0  0  0
   38.0470   31.9070   38.9080 N   0  0  0  0  0  0  0  0  0  0  0  0
   39.3310   31.7950   39.2650 N   0  0  0  0  0  0  0  0  0  0  0  0
   38.3010   34.5050   40.7530 H   0  0  0  0  0  0  0  0  0  0  0  0
   36.4620   33.3030   39.3170 H   0  0  0  0  0  0  0  0  0  0  0  0
   42.7090   32.4780   42.0280 C   0  0  0  0  0  0  0  0  0  0  0  0
   43.2860   33.7420   41.9450 C   0  0  0  0  0  0  0  0  0  0  0  0
   42.6040   34.7180   41.2030 C   0  0  0  0  0  0  0  0  0  0  0  0
   41.4380   34.3640   40.6220 N   0  0  0  0  0  0  0  0  0  0  0  0
   40.9010   33.1490   40.7120 C   0  0  0  0  0  0  0  0  0  0  0  0
   41.5460   32.2080   41.4210 N   0  0  0  0  0  0  0  0  0  0  0  0
   43.2680   31.7570   42.6090 H   0  0  0  0  0  0  0  0  0  0  0  0
   44.2200   34.0620   42.3970 H   0  0  0  0  0  0  0  0  0  0  0  0
   42.9420   35.7340   41.0610 H   0  0  0  0  0  0  0  0  0  0  0  0
  1  2  1  0  0  0  0
  1  5  1  0  0  0  0
  3  1  1  0  0  0  0
  4  5  2  0  0  0  0
  4 12  1  0  0  0  0
  5  6  1  0  0  0  0
  6 14  1  0  0  0  0
  6  7  2  0  0  0  0
  7  8  1  0  0  0  0
  8 15  1  0  0  0  0
  8  9  1  0  0  0  0
  9 16  1  0  0  0  0
 10 17  1  0  0  0  0
 10  9  2  0  0  0  0
 11  7  1  0  0  0  0
 11 10  1  0  0  0  0
 12 11  2  0  0  0  0
 13  4  1  0  0  0  0
 18 19  1  0  0  0  0
 18 12  1  0  0  0  0
 20 18  2  0  0  0  0
 21  1  1  0  0  0  0
 21 27  1  0  0  0  0
 22 21  1  0  0  0  0
 23 21  1  0  0  0  0
 24 25  1  0  0  0  0
 24 35  1  0  0  0  0
 25 29  1  0  0  0  0
 26 25  2  0  0  0  0
 27 28  1  0  0  0  0
 27 26  1  0  0  0  0
 28 24  2  0  0  0  0
 30 26  1  0  0  0  0
 31 37  1  0  0  0  0
 32 31  1  0  0  0  0
 32 38  1  0  0  0  0
 33 32  2  0  0  0  0
 34 35  2  0  0  0  0
 34 33  1  0  0  0  0
 35 36  1  0  0  0  0
 36 31  2  0  0  0  0
 39 33  1  0  0  0  0
M  END
>  <minimizedAffinity>
-5.82747984

$$$$

 OpenBabel03252506273D

 39 42  0  0  0  0  0  0  0  0999 V2000
   36.2980   28.9110   41.0430 C   0  0  0  0  0  0  0  0  0  0  0  0
   35.2370   28.6940   41.3210 H   0  0  0  0  0  0  0  0  0  0  0  0
   36.2990   28.8560   39.9180 H   0  0  0  0  0  0  0  0  0  0  0  0
   36.9440   26.4830   41.5760 C   0  0  0  0  0  0  0  0  0  0  0  0
   37.1150   27.8480   41.6090 C   0  0  0  0  0  0  0  0  0  0  0  0
   38.2430   28.3030   42.2880 C   0  0  0  0  0  0  0  0  0  0  0  0
   39.1320   27.4440   42.8890 C   0  0  0  0  0  0  0  0  0  0  0  0
   40.2720   27.5890   43.5910 N   0  0  0  0  0  0  0  0  0  0  0  0
   40.7730   26.4090   43.9660 C   0  0  0  0  0  0  0  0  0  0  0  0
   39.9330   25.4030   43.4980 C   0  0  0  0  0  0  0  0  0  0  0  0
   38.9460   26.0900   42.8460 C   0  0  0  0  0  0  0  0  0  0  0  0
   37.8340   25.6240   42.1770 C   0  0  0  0  0  0  0  0  0  0  0  0
   36.0420   26.1760   41.0300 H   0  0  0  0  0  0  0  0  0  0  0  0
   38.5060   29.3430   42.3970 H   0  0  0  0  0  0  0  0  0  0  0  0
   40.7250   28.5050   43.8250 H   0  0  0  0  0  0  0  0  0  0  0  0
   41.6820   26.2630   44.5420 H   0  0  0  0  0  0  0  0  0  0  0  0
   40.0300   24.3280   43.6160 H   0  0  0  0  0  0  0  0  0  0  0  0
   37.5810   24.1900   42.0970 C   0  0  0  0  0  0  0  0  0  0  0  0
   37.0510   23.6840   42.9070 H   0  0  0  0  0  0  0  0  0  0  0  0
   37.9580   23.5070   41.1100 O   0  0  0  0  0  0  0  0  0  0  0  0
   36.5830   30.2940   41.5020 C   0  0  0  0  0  0  0  0  0  0  0  0
   35.6380   30.7810   41.8260 H   0  0  0  0  0  0  0  0  0  0  0  0
   37.2180   30.2390   42.3870 H   0  0  0  0  0  0  0  0  0  0  0  0
   38.7420   32.2200   39.4000 C   0  0  0  0  0  0  0  0  0  0  0  0
   37.6200   32.0250   38.5700 C   0  0  0  0  0  0  0  0  0  0  0  0
   36.7030   31.2990   39.2430 C   0  0  0  0  0  0  0  0  0  0  0  0
   37.2320   31.0510   40.4450 N   0  0  0  0  0  0  0  0  0  0  0  0
   38.4500   31.5950   40.5510 N   0  0  0  0  0  0  0  0  0  0  0  0
   37.4620   32.3770   37.5460 H   0  0  0  0  0  0  0  0  0  0  0  0
   35.7240   30.9630   38.9130 H   0  0  0  0  0  0  0  0  0  0  0  0
   41.4120   34.7140   39.4200 C   0  0  0  0  0  0  0  0  0  0  0  0
   42.1840   34.3650   38.3140 C   0  0  0  0  0  0  0  0  0  0  0  0
   41.7710   33.2570   37.5600 C   0  0  0  0  0  0  0  0  0  0  0  0
   40.6570   32.6060   37.9580 N   0  0  0  0  0  0  0  0  0  0  0  0
   39.9320   32.9540   39.0180 C   0  0  0  0  0  0  0  0  0  0  0  0
   40.3180   34.0140   39.7470 N   0  0  0  0  0  0  0  0  0  0  0  0
   41.7670   35.5730   39.9720 H   0  0  0  0  0  0  0  0  0  0  0  0
   43.0830   34.8630   37.9660 H   0  0  0  0  0  0  0  0  0  0  0  0
   42.2790   32.8830   36.6830 H   0  0  0  0  0  0  0  0  0  0  0  0
  1  2  1  0  0  0  0
  1 21  1  0  0  0  0
  1  5  1  0  0  0  0
  3  1  1  0  0  0  0
  4  5  2  0  0  0  0
  4 12  1  0  0  0  0
  5  6  1  0  0  0  0
  6 14  1  0  0  0  0
  6  7  2  0  0  0  0
  7  8  1  0  0  0  0
  8 15  1  0  0  0  0
  8  9  1  0  0  0  0
  9 16  1  0  0  0  0
 10 17  1  0  0  0  0
 10  9  2  0  0  0  0
 11  7  1  0  0  0  0
 11 10  1  0  0  0  0
 12 11  2  0  0  0  0
 13  4  1  0  0  0  0
 18 12  1  0  0  0  0
 18 19  1  0  0  0  0
 20 18  2  0  0  0  0
 21 22  1  0  0  0  0
 21 23  1  0  0  0  0
 24 28  2  0  0  0  0
 25 26  2  0  0  0  0
 25 24  1  0  0  0  0
 26 27  1  0  0  0  0
 27 28  1  0  0  0  0
 27 21  1  0  0  0  0
 29 25  1  0  0  0  0
 30 26  1  0  0  0  0
 31 36  1  0  0  0  0
 31 37  1  0  0  0  0
 32 31  2  0  0  0  0
 33 34  2  0  0  0  0
 33 32  1  0  0  0  0
 34 35  1  0  0  0  0
 35 24  1  0  0  0  0
 35 36  2  0  0  0  0
 38 32  1  0  0  0  0
 39 33  1  0  0  0  0
M  END
>  <minimizedAffinity>
-5.81468391

$$$$

 OpenBabel03252506273D

 39 42  0  0  0  0  0  0  0  0999 V2000
   37.2260   29.8200   42.1200 C   0  0  0  0  0  0  0  0  0  0  0  0
   38.1390   30.4580   42.0170 H   0  0  0  0  0  0  0  0  0  0  0  0
   36.7370   30.1980   43.0620 H   0  0  0  0  0  0  0  0  0  0  0  0
   38.6930   27.9360   43.0660 C   0  0  0  0  0  0  0  0  0  0  0  0
   37.6770   28.4470   42.2900 C   0  0  0  0  0  0  0  0  0  0  0  0
   36.9580   27.5190   41.5410 C   0  0  0  0  0  0  0  0  0  0  0  0
   37.2420   26.1740   41.5740 C   0  0  0  0  0  0  0  0  0  0  0  0
   36.7340   25.0770   40.9790 N   0  0  0  0  0  0  0  0  0  0  0  0
   37.3810   23.9700   41.3550 C   0  0  0  0  0  0  0  0  0  0  0  0
   38.3820   24.3260   42.2520 C   0  0  0  0  0  0  0  0  0  0  0  0
   38.2540   25.6840   42.3510 C   0  0  0  0  0  0  0  0  0  0  0  0
   38.9760   26.5920   43.0990 C   0  0  0  0  0  0  0  0  0  0  0  0
   39.2280   28.7080   43.6350 H   0  0  0  0  0  0  0  0  0  0  0  0
   36.1380   27.7710   40.8890 H   0  0  0  0  0  0  0  0  0  0  0  0
   35.9330   25.0740   40.3030 H   0  0  0  0  0  0  0  0  0  0  0  0
   37.1590   22.9640   41.0130 H   0  0  0  0  0  0  0  0  0  0  0  0
   39.1000   23.6850   42.7570 H   0  0  0  0  0  0  0  0  0  0  0  0
   40.0680   26.1300   43.9470 C   0  0  0  0  0  0  0  0  0  0  0  0
   39.9650   25.1980   44.5090 H   0  0  0  0  0  0  0  0  0  0  0  0
   41.1410   26.7780   44.0550 O   0  0  0  0  0  0  0  0  0  0  0  0
   36.3750   30.1050   40.9360 C   0  0  0  0  0  0  0  0  0  0  0  0
   35.9540   29.1540   40.5420 H   0  0  0  0  0  0  0  0  0  0  0  0
   35.5240   30.7050   41.2610 H   0  0  0  0  0  0  0  0  0  0  0  0
   38.7230   31.9960   39.0130 C   0  0  0  0  0  0  0  0  0  0  0  0
   37.7860   31.6060   38.0340 C   0  0  0  0  0  0  0  0  0  0  0  0
   36.8220   30.8710   38.6250 C   0  0  0  0  0  0  0  0  0  0  0  0
   37.1440   30.8040   39.9200 N   0  0  0  0  0  0  0  0  0  0  0  0
   38.2770   31.4720   40.1650 N   0  0  0  0  0  0  0  0  0  0  0  0
   37.7890   31.8300   36.9630 H   0  0  0  0  0  0  0  0  0  0  0  0
   35.9470   30.4080   38.1770 H   0  0  0  0  0  0  0  0  0  0  0  0
   41.7930   33.2090   37.4470 C   0  0  0  0  0  0  0  0  0  0  0  0
   42.1450   34.3010   38.2360 C   0  0  0  0  0  0  0  0  0  0  0  0
   41.3080   34.6150   39.3180 C   0  0  0  0  0  0  0  0  0  0  0  0
   40.2220   33.8380   39.5180 N   0  0  0  0  0  0  0  0  0  0  0  0
   39.9020   32.7970   38.7520 C   0  0  0  0  0  0  0  0  0  0  0  0
   40.6960   32.4880   37.7140 N   0  0  0  0  0  0  0  0  0  0  0  0
   42.4650   33.0040   36.6250 H   0  0  0  0  0  0  0  0  0  0  0  0
   43.0070   34.9470   38.1050 H   0  0  0  0  0  0  0  0  0  0  0  0
   41.4680   35.4330   40.0040 H   0  0  0  0  0  0  0  0  0  0  0  0
  1  5  1  0  0  0  0
  1  3  1  0  0  0  0
  2  1  1  0  0  0  0
  4 12  1  0  0  0  0
  4 13  1  0  0  0  0
  5  4  2  0  0  0  0
  6  7  2  0  0  0  0
  6  5  1  0  0  0  0
  7 11  1  0  0  0  0
  8  9  1  0  0  0  0
  8  7  1  0  0  0  0
  9 10  2  0  0  0  0
 10 11  1  0  0  0  0
 10 17  1  0  0  0  0
 11 12  2  0  0  0  0
 12 18  1  0  0  0  0
 14  6  1  0  0  0  0
 15  8  1  0  0  0  0
 16  9  1  0  0  0  0
 18 20  2  0  0  0  0
 18 19  1  0  0  0  0
 21 23  1  0  0  0  0
 21  1  1  0  0  0  0
 22 21  1  0  0  0  0
 24 28  2  0  0  0  0
 25 26  2  0  0  0  0
 25 24  1  0  0  0  0
 26 27  1  0  0  0  0
 27 28  1  0  0  0  0
 27 21  1  0  0  0  0
 29 25  1  0  0  0  0
 30 26  1  0  0  0  0
 31 36  2  0  0  0  0
 31 32  1  0  0  0  0
 32 33  2  0  0  0  0
 33 34  1  0  0  0  0
 33 39  1  0  0  0  0
 35 24  1  0  0  0  0
 35 34  2  0  0  0  0
 36 35  1  0  0  0  0
 37 31  1  0  0  0  0
 38 32  1  0  0  0  0
M  END
>  <minimizedAffinity>
-5.69291353

$$$$

 OpenBabel03252506273D

 39 42  0  0  0  0  0  0  0  0999 V2000
   38.2000   33.4700   39.9460 C   0  0  0  0  0  0  0  0  0  0  0  0
   37.5400   33.9400   40.7160 H   0  0  0  0  0  0  0  0  0  0  0  0
   38.2540   34.2420   39.1270 H   0  0  0  0  0  0  0  0  0  0  0  0
   36.7250   31.3760   40.1550 C   0  0  0  0  0  0  0  0  0  0  0  0
   37.5230   32.2700   39.4760 C   0  0  0  0  0  0  0  0  0  0  0  0
   37.7270   31.9980   38.1250 C   0  0  0  0  0  0  0  0  0  0  0  0
   37.1670   30.9050   37.5060 C   0  0  0  0  0  0  0  0  0  0  0  0
   37.1870   30.4050   36.2550 N   0  0  0  0  0  0  0  0  0  0  0  0
   36.4590   29.2880   36.1620 C   0  0  0  0  0  0  0  0  0  0  0  0
   35.9130   29.0100   37.4110 C   0  0  0  0  0  0  0  0  0  0  0  0
   36.3770   30.0300   38.1960 C   0  0  0  0  0  0  0  0  0  0  0  0
   36.1660   30.2850   39.5350 C   0  0  0  0  0  0  0  0  0  0  0  0
   36.5970   31.6360   41.2140 H   0  0  0  0  0  0  0  0  0  0  0  0
   38.3270   32.6070   37.4690 H   0  0  0  0  0  0  0  0  0  0  0  0
   37.7030   30.8240   35.4450 H   0  0  0  0  0  0  0  0  0  0  0  0
   36.3210   28.6990   35.2600 H   0  0  0  0  0  0  0  0  0  0  0  0
   35.2720   28.1830   37.7020 H   0  0  0  0  0  0  0  0  0  0  0  0
   35.3320   29.3860   40.3250 C   0  0  0  0  0  0  0  0  0  0  0  0
   34.2520   29.3580   40.1580 H   0  0  0  0  0  0  0  0  0  0  0  0
   35.8230   28.6310   41.2030 O   0  0  0  0  0  0  0  0  0  0  0  0
   39.5300   33.2850   40.5820 C   0  0  0  0  0  0  0  0  0  0  0  0
   39.6810   34.0650   41.3600 H   0  0  0  0  0  0  0  0  0  0  0  0
   39.5310   32.3270   41.1040 H   0  0  0  0  0  0  0  0  0  0  0  0
   42.0480   32.6420   38.1270 C   0  0  0  0  0  0  0  0  0  0  0  0
   42.0580   34.0500   38.1970 C   0  0  0  0  0  0  0  0  0  0  0  0
   41.1390   34.4450   39.1020 C   0  0  0  0  0  0  0  0  0  0  0  0
   40.5780   33.3290   39.5770 N   0  0  0  0  0  0  0  0  0  0  0  0
   41.1120   32.2460   39.0030 N   0  0  0  0  0  0  0  0  0  0  0  0
   42.6810   34.7550   37.6380 H   0  0  0  0  0  0  0  0  0  0  0  0
   40.8760   35.4530   39.4110 H   0  0  0  0  0  0  0  0  0  0  0  0
   43.1360   30.1040   35.7340 C   0  0  0  0  0  0  0  0  0  0  0  0
   44.5020   30.3450   35.6100 C   0  0  0  0  0  0  0  0  0  0  0  0
   45.0450   31.3970   36.3650 C   0  0  0  0  0  0  0  0  0  0  0  0
   44.2070   32.1000   37.1560 N   0  0  0  0  0  0  0  0  0  0  0  0
   42.9030   31.8550   37.2610 C   0  0  0  0  0  0  0  0  0  0  0  0
   42.3730   30.8500   36.5430 N   0  0  0  0  0  0  0  0  0  0  0  0
   42.7610   29.2860   35.1350 H   0  0  0  0  0  0  0  0  0  0  0  0
   45.2050   29.8030   34.9860 H   0  0  0  0  0  0  0  0  0  0  0  0
   46.0850   31.6870   36.3600 H   0  0  0  0  0  0  0  0  0  0  0  0
  1 21  1  0  0  0  0
  1  2  1  0  0  0  0
  3  1  1  0  0  0  0
  4 13  1  0  0  0  0
  5  1  1  0  0  0  0
  5  4  2  0  0  0  0
  6  5  1  0  0  0  0
  7  6  2  0  0  0  0
  7 11  1  0  0  0  0
  8  7  1  0  0  0  0
  9  8  1  0  0  0  0
  9 10  2  0  0  0  0
 10 17  1  0  0  0  0
 10 11  1  0  0  0  0
 11 12  2  0  0  0  0
 12  4  1  0  0  0  0
 12 18  1  0  0  0  0
 14  6  1  0  0  0  0
 15  8  1  0  0  0  0
 16  9  1  0  0  0  0
 18 20  2  0  0  0  0
 19 18  1  0  0  0  0
 21 23  1  0  0  0  0
 21 22  1  0  0  0  0
 24 25  1  0  0  0  0
 24 28  2  0  0  0  0
 25 26  2  0  0  0  0
 26 30  1  0  0  0  0
 26 27  1  0  0  0  0
 27 21  1  0  0  0  0
 28 27  1  0  0  0  0
 29 25  1  0  0  0  0
 31 36  1  0  0  0  0
 32 31  2  0  0  0  0
 32 33  1  0  0  0  0
 33 34  2  0  0  0  0
 34 35  1  0  0  0  0
 35 24  1  0  0  0  0
 36 35  2  0  0  0  0
 37 31  1  0  0  0  0
 38 32  1  0  0  0  0
 39 33  1  0  0  0  0
M  END
>  <minimizedAffinity>
-5.68017244

$$$$

 OpenBabel03252506273D

 39 42  0  0  0  0  0  0  0  0999 V2000
   36.1340   30.1650   38.6200 C   0  0  0  0  0  0  0  0  0  0  0  0
   35.7350   30.3790   37.5980 H   0  0  0  0  0  0  0  0  0  0  0  0
   35.2950   30.4710   39.3080 H   0  0  0  0  0  0  0  0  0  0  0  0
   38.5790   30.8960   38.3350 C   0  0  0  0  0  0  0  0  0  0  0  0
   37.2960   31.0190   38.8160 C   0  0  0  0  0  0  0  0  0  0  0  0
   37.0520   32.1300   39.6200 C   0  0  0  0  0  0  0  0  0  0  0  0
   38.0320   33.0480   39.9170 C   0  0  0  0  0  0  0  0  0  0  0  0
   38.0880   34.1820   40.6410 N   0  0  0  0  0  0  0  0  0  0  0  0
   39.3090   34.7230   40.6140 C   0  0  0  0  0  0  0  0  0  0  0  0
   40.1310   33.9200   39.8310 C   0  0  0  0  0  0  0  0  0  0  0  0
   39.3010   32.9100   39.4290 C   0  0  0  0  0  0  0  0  0  0  0  0
   39.5580   31.8140   38.6300 C   0  0  0  0  0  0  0  0  0  0  0  0
   38.7190   30.0050   37.7080 H   0  0  0  0  0  0  0  0  0  0  0  0
   36.0980   32.3560   40.0680 H   0  0  0  0  0  0  0  0  0  0  0  0
   37.2850   34.6020   41.1680 H   0  0  0  0  0  0  0  0  0  0  0  0
   39.6050   35.6370   41.1210 H   0  0  0  0  0  0  0  0  0  0  0  0
   41.1820   34.0540   39.5910 H   0  0  0  0  0  0  0  0  0  0  0  0
   40.8930   31.6120   38.0810 C   0  0  0  0  0  0  0  0  0  0  0  0
   41.6430   31.0660   38.6590 H   0  0  0  0  0  0  0  0  0  0  0  0
   41.2150   32.0510   36.9460 O   0  0  0  0  0  0  0  0  0  0  0  0
   36.3600   28.6980   38.6890 C   0  0  0  0  0  0  0  0  0  0  0  0
   35.4330   28.1640   38.3850 H   0  0  0  0  0  0  0  0  0  0  0  0
   37.1210   28.4330   37.9550 H   0  0  0  0  0  0  0  0  0  0  0  0
   38.0500   27.6350   41.6550 C   0  0  0  0  0  0  0  0  0  0  0  0
   36.7510   27.9000   42.1350 C   0  0  0  0  0  0  0  0  0  0  0  0
   35.9860   28.3180   41.1060 C   0  0  0  0  0  0  0  0  0  0  0  0
   36.7750   28.3150   40.0280 N   0  0  0  0  0  0  0  0  0  0  0  0
   38.0100   27.9100   40.3420 N   0  0  0  0  0  0  0  0  0  0  0  0
   36.3710   27.8020   43.1560 H   0  0  0  0  0  0  0  0  0  0  0  0
   34.9390   28.6080   41.1100 H   0  0  0  0  0  0  0  0  0  0  0  0
   40.1670   25.4300   43.6560 C   0  0  0  0  0  0  0  0  0  0  0  0
   41.2280   26.2540   44.0270 C   0  0  0  0  0  0  0  0  0  0  0  0
   41.2030   27.5830   43.5780 C   0  0  0  0  0  0  0  0  0  0  0  0
   40.1560   27.9690   42.8180 N   0  0  0  0  0  0  0  0  0  0  0  0
   39.1510   27.1670   42.4730 C   0  0  0  0  0  0  0  0  0  0  0  0
   39.1650   25.8930   42.8980 N   0  0  0  0  0  0  0  0  0  0  0  0
   40.2280   24.4150   44.0230 H   0  0  0  0  0  0  0  0  0  0  0  0
   42.0840   25.9780   44.6340 H   0  0  0  0  0  0  0  0  0  0  0  0
   41.9600   28.3220   43.7940 H   0  0  0  0  0  0  0  0  0  0  0  0
  1 21  1  0  0  0  0
  1  5  1  0  0  0  0
  1  3  1  0  0  0  0
  2  1  1  0  0  0  0
  4 12  2  0  0  0  0
  4  5  1  0  0  0  0
  5  6  2  0  0  0  0
  6  7  1  0  0  0  0
  6 14  1  0  0  0  0
  7  8  1  0  0  0  0
  8 15  1  0  0  0  0
  9  8  1  0  0  0  0
  9 16  1  0  0  0  0
 10  9  2  0  0  0  0
 11 10  1  0  0  0  0
 11  7  2  0  0  0  0
 12 11  1  0  0  0  0
 13  4  1  0  0  0  0
 17 10  1  0  0  0  0
 18 12  1  0  0  0  0
 18 19  1  0  0  0  0
 20 18  2  0  0  0  0
 21 27  1  0  0  0  0
 22 21  1  0  0  0  0
 23 21  1  0  0  0  0
 24 25  1  0  0  0  0
 24 35  1  0  0  0  0
 25 29  1  0  0  0  0
 26 30  1  0  0  0  0
 26 25  2  0  0  0  0
 27 28  1  0  0  0  0
 27 26  1  0  0  0  0
 28 24  2  0  0  0  0
 31 37  1  0  0  0  0
 31 32  1  0  0  0  0
 32 38  1  0  0  0  0
 33 39  1  0  0  0  0
 33 32  2  0  0  0  0
 34 33  1  0  0  0  0
 35 34  2  0  0  0  0
 35 36  1  0  0  0  0
 36 31  2  0  0  0  0
M  END
>  <minimizedAffinity>
-5.64039946

$$$$

 OpenBabel03252506273D

 39 42  0  0  0  0  0  0  0  0999 V2000
   35.6600   27.8280   38.3090 C   0  0  0  0  0  0  0  0  0  0  0  0
   34.7540   27.2600   37.9820 H   0  0  0  0  0  0  0  0  0  0  0  0
   36.3390   27.7940   37.4110 H   0  0  0  0  0  0  0  0  0  0  0  0
   36.5440   27.5150   40.7000 C   0  0  0  0  0  0  0  0  0  0  0  0
   36.2450   27.0970   39.4230 C   0  0  0  0  0  0  0  0  0  0  0  0
   36.5440   25.7680   39.1340 C   0  0  0  0  0  0  0  0  0  0  0  0
   37.1040   24.9240   40.0640 C   0  0  0  0  0  0  0  0  0  0  0  0
   37.4880   23.6330   40.0700 N   0  0  0  0  0  0  0  0  0  0  0  0
   37.9870   23.2750   41.2570 C   0  0  0  0  0  0  0  0  0  0  0  0
   37.9420   24.3760   42.1060 C   0  0  0  0  0  0  0  0  0  0  0  0
   37.3930   25.3570   41.3270 C   0  0  0  0  0  0  0  0  0  0  0  0
   37.1020   26.6710   41.6300 C   0  0  0  0  0  0  0  0  0  0  0  0
   36.2900   28.5690   40.8770 H   0  0  0  0  0  0  0  0  0  0  0  0
   36.3670   25.3010   38.1780 H   0  0  0  0  0  0  0  0  0  0  0  0
   37.4140   22.9770   39.2560 H   0  0  0  0  0  0  0  0  0  0  0  0
   38.3650   22.2890   41.5100 H   0  0  0  0  0  0  0  0  0  0  0  0
   38.2640   24.4480   43.1410 H   0  0  0  0  0  0  0  0  0  0  0  0
   37.3890   27.1920   42.9610 C   0  0  0  0  0  0  0  0  0  0  0  0
   38.4240   27.2780   43.3010 H   0  0  0  0  0  0  0  0  0  0  0  0
   36.4700   27.5510   43.7420 O   0  0  0  0  0  0  0  0  0  0  0  0
   35.2140   29.2190   38.5790 C   0  0  0  0  0  0  0  0  0  0  0  0
   34.3220   29.4510   37.9570 H   0  0  0  0  0  0  0  0  0  0  0  0
   34.8890   29.2800   39.6180 H   0  0  0  0  0  0  0  0  0  0  0  0
   37.7770   31.7110   38.6610 C   0  0  0  0  0  0  0  0  0  0  0  0
   37.8560   31.2510   37.3310 C   0  0  0  0  0  0  0  0  0  0  0  0
   36.9290   30.2880   37.1490 C   0  0  0  0  0  0  0  0  0  0  0  0
   36.2970   30.1530   38.3190 N   0  0  0  0  0  0  0  0  0  0  0  0
   36.7940   30.9960   39.2300 N   0  0  0  0  0  0  0  0  0  0  0  0
   38.5330   31.5800   36.5370 H   0  0  0  0  0  0  0  0  0  0  0  0
   36.7090   29.7150   36.2530 H   0  0  0  0  0  0  0  0  0  0  0  0
   38.8110   34.7150   40.4650 C   0  0  0  0  0  0  0  0  0  0  0  0
   40.1950   34.7230   40.3080 C   0  0  0  0  0  0  0  0  0  0  0  0
   40.7680   33.6770   39.5700 C   0  0  0  0  0  0  0  0  0  0  0  0
   39.9400   32.7370   39.0650 N   0  0  0  0  0  0  0  0  0  0  0  0
   38.6190   32.7470   39.2260 C   0  0  0  0  0  0  0  0  0  0  0  0
   38.0600   33.7440   39.9310 N   0  0  0  0  0  0  0  0  0  0  0  0
   38.4130   35.5400   41.0410 H   0  0  0  0  0  0  0  0  0  0  0  0
   40.8900   35.4590   40.6990 H   0  0  0  0  0  0  0  0  0  0  0  0
   41.8250   33.5650   39.3750 H   0  0  0  0  0  0  0  0  0  0  0  0
  1 21  1  0  0  0  0
  1  5  1  0  0  0  0
  2  1  1  0  0  0  0
  3  1  1  0  0  0  0
  4 13  1  0  0  0  0
  4 12  1  0  0  0  0
  5  4  2  0  0  0  0
  6  5  1  0  0  0  0
  6  7  2  0  0  0  0
  7  8  1  0  0  0  0
  7 11  1  0  0  0  0
  8  9  1  0  0  0  0
  9 16  1  0  0  0  0
  9 10  2  0  0  0  0
 10 17  1  0  0  0  0
 11 12  2  0  0  0  0
 11 10  1  0  0  0  0
 12 18  1  0  0  0  0
 14  6  1  0  0  0  0
 15  8  1  0  0  0  0
 18 19  1  0  0  0  0
 18 20  2  0  0  0  0
 21 23  1  0  0  0  0
 22 21  1  0  0  0  0
 24 35  1  0  0  0  0
 24 28  2  0  0  0  0
 25 24  1  0  0  0  0
 26 25  2  0  0  0  0
 26 27  1  0  0  0  0
 27 21  1  0  0  0  0
 27 28  1  0  0  0  0
 29 25  1  0  0  0  0
 30 26  1  0  0  0  0
 31 37  1  0  0  0  0
 32 31  1  0  0  0  0
 32 38  1  0  0  0  0
 33 32  2  0  0  0  0
 34 35  2  0  0  0  0
 34 33  1  0  0  0  0
 35 36  1  0  0  0  0
 36 31  2  0  0  0  0
 39 33  1  0  0  0  0
M  END
>  <minimizedAffinity>
-5.60658884

$$$$

 OpenBabel03252506273D

 39 42  0  0  0  0  0  0  0  0999 V2000
   36.5770   27.4540   43.0460 C   0  0  0  0  0  0  0  0  0  0  0  0
   35.8650   26.9000   43.7070 H   0  0  0  0  0  0  0  0  0  0  0  0
   35.9910   28.3570   42.7130 H   0  0  0  0  0  0  0  0  0  0  0  0
   36.8490   26.8540   40.5640 C   0  0  0  0  0  0  0  0  0  0  0  0
   36.8740   26.5890   41.9140 C   0  0  0  0  0  0  0  0  0  0  0  0
   37.2390   25.2940   42.2730 C   0  0  0  0  0  0  0  0  0  0  0  0
   37.5550   24.3360   41.3370 C   0  0  0  0  0  0  0  0  0  0  0  0
   37.9320   23.0440   41.3860 N   0  0  0  0  0  0  0  0  0  0  0  0
   38.1270   22.5430   40.1630 C   0  0  0  0  0  0  0  0  0  0  0  0
   37.8700   23.5420   39.2290 C   0  0  0  0  0  0  0  0  0  0  0  0
   37.5250   24.6180   40.0000 C   0  0  0  0  0  0  0  0  0  0  0  0
   37.1650   25.8970   39.6290 C   0  0  0  0  0  0  0  0  0  0  0  0
   36.5550   27.8870   40.3350 H   0  0  0  0  0  0  0  0  0  0  0  0
   37.3020   24.9420   43.2900 H   0  0  0  0  0  0  0  0  0  0  0  0
   38.0610   22.4860   42.2630 H   0  0  0  0  0  0  0  0  0  0  0  0
   38.4320   21.5260   39.9390 H   0  0  0  0  0  0  0  0  0  0  0  0
   37.9270   23.4900   38.1460 H   0  0  0  0  0  0  0  0  0  0  0  0
   37.1140   26.2580   38.2170 C   0  0  0  0  0  0  0  0  0  0  0  0
   37.7320   25.7180   37.4950 H   0  0  0  0  0  0  0  0  0  0  0  0
   36.3710   27.1820   37.7980 O   0  0  0  0  0  0  0  0  0  0  0  0
   37.7220   27.8580   43.9020 C   0  0  0  0  0  0  0  0  0  0  0  0
   37.3440   28.3760   44.8100 H   0  0  0  0  0  0  0  0  0  0  0  0
   38.2250   26.9560   44.2500 H   0  0  0  0  0  0  0  0  0  0  0  0
   39.3780   30.4070   42.0180 C   0  0  0  0  0  0  0  0  0  0  0  0
   40.3950   29.4420   42.1660 C   0  0  0  0  0  0  0  0  0  0  0  0
   39.9060   28.4010   42.8700 C   0  0  0  0  0  0  0  0  0  0  0  0
   38.6350   28.7040   43.1520 N   0  0  0  0  0  0  0  0  0  0  0  0
   38.3080   29.8990   42.6490 N   0  0  0  0  0  0  0  0  0  0  0  0
   41.4240   29.4760   41.7940 H   0  0  0  0  0  0  0  0  0  0  0  0
   40.4080   27.4850   43.1700 H   0  0  0  0  0  0  0  0  0  0  0  0
   38.5520   33.5460   40.3410 C   0  0  0  0  0  0  0  0  0  0  0  0
   39.7980   34.0580   39.9870 C   0  0  0  0  0  0  0  0  0  0  0  0
   40.9290   33.3040   40.3350 C   0  0  0  0  0  0  0  0  0  0  0  0
   40.7320   32.1390   40.9870 N   0  0  0  0  0  0  0  0  0  0  0  0
   39.5320   31.6660   41.3170 C   0  0  0  0  0  0  0  0  0  0  0  0
   38.4420   32.3800   40.9890 N   0  0  0  0  0  0  0  0  0  0  0  0
   37.7080   34.1590   40.0540 H   0  0  0  0  0  0  0  0  0  0  0  0
   39.9940   34.9880   39.4640 H   0  0  0  0  0  0  0  0  0  0  0  0
   41.9490   33.5880   40.1200 H   0  0  0  0  0  0  0  0  0  0  0  0
  1  2  1  0  0  0  0
  1 21  1  0  0  0  0
  3  1  1  0  0  0  0
  4  5  1  0  0  0  0
  5  6  2  0  0  0  0
  5  1  1  0  0  0  0
  6 14  1  0  0  0  0
  7  8  1  0  0  0  0
  7  6  1  0  0  0  0
  8 15  1  0  0  0  0
  9  8  1  0  0  0  0
 10 11  1  0  0  0  0
 10  9  2  0  0  0  0
 11  7  2  0  0  0  0
 12 11  1  0  0  0  0
 12  4  2  0  0  0  0
 13  4  1  0  0  0  0
 16  9  1  0  0  0  0
 17 10  1  0  0  0  0
 18 12  1  0  0  0  0
 19 18  1  0  0  0  0
 20 18  2  0  0  0  0
 21 23  1  0  0  0  0
 21 22  1  0  0  0  0
 24 25  1  0  0  0  0
 24 28  2  0  0  0  0
 25 26  2  0  0  0  0
 26 27  1  0  0  0  0
 26 30  1  0  0  0  0
 27 21  1  0  0  0  0
 28 27  1  0  0  0  0
 29 25  1  0  0  0  0
 31 36  1  0  0  0  0
 32 33  1  0  0  0  0
 32 31  2  0  0  0  0
 33 34  2  0  0  0  0
 34 35  1  0  0  0  0
 35 24  1  0  0  0  0
 36 35  2  0  0  0  0
 37 31  1  0  0  0  0
 38 32  1  0  0  0  0
 39 33  1  0  0  0  0
M  END
>  <minimizedAffinity>
-5.56618261

$$$$
