
 OpenBabel03252500413D

 22 23  0  0  1  0  0  0  0  0999 V2000
   47.2910   33.9980   42.5970 C   0  0  0  0  0  0  0  0  0  0  0  0
   48.2260   33.6380   43.0740 H   0  0  0  0  0  0  0  0  0  0  0  0
   46.8610   33.1360   42.0530 H   0  0  0  0  0  0  0  0  0  0  0  0
   46.3570   34.3590   43.6870 C   0  0  0  0  0  0  0  0  0  0  0  0
   45.5710   35.4590   43.4210 C   0  0  0  0  0  0  0  0  0  0  0  0
   44.6500   35.9170   44.3750 C   0  0  0  0  0  0  0  0  0  0  0  0
   44.6010   35.2110   45.5320 N   0  0  0  0  0  0  0  0  0  0  0  0
   45.3780   34.1260   45.7850 C   0  0  0  0  0  0  0  0  0  0  0  0
   46.2490   33.7050   44.8680 N   0  0  0  0  0  0  0  0  0  0  0  0
   45.4170   36.1570   42.6130 H   0  0  0  0  0  0  0  0  0  0  0  0
   43.9480   36.7350   44.3910 H   0  0  0  0  0  0  0  0  0  0  0  0
   45.2900   33.6030   46.7310 H   0  0  0  0  0  0  0  0  0  0  0  0
   47.5130   35.1290   41.6470 C   0  0  1  0  0  0  0  0  0  0  0  0
   48.9300   35.6090   41.4880 C   0  0  0  0  0  0  0  0  0  0  0  0
   48.2520   34.8420   40.3840 C   0  0  1  0  0  0  0  0  0  0  0  0
   46.8170   36.0020   41.5880 H   0  0  0  0  0  0  0  0  0  0  0  0
   49.1910   36.6400   41.2620 H   0  0  0  0  0  0  0  0  0  0  0  0
   49.7470   35.0190   41.9960 H   0  0  0  0  0  0  0  0  0  0  0  0
   47.9670   35.4270   39.4630 H   0  0  0  0  0  0  0  0  0  0  0  0
   48.6020   33.4100   40.1750 C   0  0  0  0  0  0  0  0  0  0  0  0
   48.8810   32.8370   41.0530 H   0  0  0  0  0  0  0  0  0  0  0  0
   48.5130   33.1000   38.9980 O   0  0  0  0  0  0  0  0  0  0  0  0
  1  2  1  0  0  0  0
  1  4  1  0  0  0  0
  3  1  1  0  0  0  0
  4  9  1  0  0  0  0
  5  4  2  0  0  0  0
  5  6  1  0  0  0  0
  6 11  1  0  0  0  0
  6  7  2  0  0  0  0
  7  8  1  0  0  0  0
  8 12  1  0  0  0  0
  9  8  2  0  0  0  0
 10  5  1  0  0  0  0
 13 16  1  6  0  0  0
 13  1  1  0  0  0  0
 14 13  1  0  0  0  0
 14 18  1  0  0  0  0
 15 19  1  6  0  0  0
 15 14  1  0  0  0  0
 15 13  1  0  0  0  0
 17 14  1  0  0  0  0
 20 15  1  0  0  0  0
 20 21  1  0  0  0  0
 22 20  2  0  0  0  0
M  END
>  <minimizedAffinity>
-4.27279997

>  <minimizedRMSD>
0.706432164

$$$$
