
 OpenBabel03252501273D

 36 39  0  0  0  0  0  0  0  0999 V2000
   45.8790   33.2490   40.8550 F   0  0  0  0  0  0  0  0  0  0  0  0
   46.8920   34.0910   41.0160 C   0  0  0  0  0  0  0  0  0  0  0  0
   47.7100   34.3900   39.9480 C   0  0  0  0  0  0  0  0  0  0  0  0
   48.7840   35.2770   40.1000 C   0  0  0  0  0  0  0  0  0  0  0  0
   49.0610   35.8760   41.3050 C   0  0  0  0  0  0  0  0  0  0  0  0
   48.2320   35.5640   42.3610 C   0  0  0  0  0  0  0  0  0  0  0  0
   47.1660   34.6890   42.2270 C   0  0  0  0  0  0  0  0  0  0  0  0
   49.4400   35.5270   39.2770 H   0  0  0  0  0  0  0  0  0  0  0  0
   49.8920   36.5590   41.4130 H   0  0  0  0  0  0  0  0  0  0  0  0
   48.4320   36.0250   43.3210 H   0  0  0  0  0  0  0  0  0  0  0  0
   46.3510   34.4300   43.4110 C   0  0  0  0  0  0  0  0  0  0  0  0
   45.1090   34.8910   43.7860 C   0  0  0  0  0  0  0  0  0  0  0  0
   44.7530   34.3720   44.9810 N   0  0  0  0  0  0  0  0  0  0  0  0
   45.7660   33.5810   45.3680 C   0  0  0  0  0  0  0  0  0  0  0  0
   46.7280   33.6150   44.4250 N   0  0  0  0  0  0  0  0  0  0  0  0
   44.5270   35.5700   43.1890 H   0  0  0  0  0  0  0  0  0  0  0  0
   43.8920   34.5150   45.5350 H   0  0  0  0  0  0  0  0  0  0  0  0
   45.9190   32.9710   46.2450 H   0  0  0  0  0  0  0  0  0  0  0  0
   46.5520   32.8290   37.0200 C   0  0  0  0  0  0  0  0  0  0  0  0
   47.8230   33.2430   36.6020 C   0  0  0  0  0  0  0  0  0  0  0  0
   48.4300   33.8820   37.6370 C   0  0  0  0  0  0  0  0  0  0  0  0
   47.5570   33.8620   38.6590 N   0  0  0  0  0  0  0  0  0  0  0  0
   46.4450   33.2310   38.2740 N   0  0  0  0  0  0  0  0  0  0  0  0
   48.2480   33.0770   35.6160 H   0  0  0  0  0  0  0  0  0  0  0  0
   49.4160   34.3190   37.6380 H   0  0  0  0  0  0  0  0  0  0  0  0
   44.9500   31.3220   34.1050 C   0  0  0  0  0  0  0  0  0  0  0  0
   43.7790   30.7470   34.6590 C   0  0  0  0  0  0  0  0  0  0  0  0
   43.5690   30.8940   36.0330 C   0  0  0  0  0  0  0  0  0  0  0  0
   44.4960   31.5710   36.7220 N   0  0  0  0  0  0  0  0  0  0  0  0
   45.6030   32.1130   36.1930 C   0  0  0  0  0  0  0  0  0  0  0  0
   45.8470   31.9930   34.8510 N   0  0  0  0  0  0  0  0  0  0  0  0
   45.1130   31.2090   33.0430 H   0  0  0  0  0  0  0  0  0  0  0  0
   43.0770   30.2140   34.0310 H   0  0  0  0  0  0  0  0  0  0  0  0
   42.3890   30.3290   36.6680 C   0  0  0  0  0  0  0  0  0  0  0  0
   42.3590   30.2730   37.7350 H   0  0  0  0  0  0  0  0  0  0  0  0
   41.4410   29.9270   35.9460 O   0  0  0  0  0  0  0  0  0  0  0  0
  1  2  1  0  0  0  0
  2  7  1  0  0  0  0
  3  4  1  0  0  0  0
  3  2  2  0  0  0  0
  4  5  2  0  0  0  0
  5  9  1  0  0  0  0
  5  6  1  0  0  0  0
  6 10  1  0  0  0  0
  7  6  2  0  0  0  0
  7 11  1  0  0  0  0
  8  4  1  0  0  0  0
 11 12  2  0  0  0  0
 11 15  1  0  0  0  0
 12 13  1  0  0  0  0
 13 14  1  0  0  0  0
 13 17  1  0  0  0  0
 14 18  1  0  0  0  0
 15 14  2  0  0  0  0
 16 12  1  0  0  0  0
 19 23  2  0  0  0  0
 20 19  1  0  0  0  0
 20 21  2  0  0  0  0
 21 25  1  0  0  0  0
 21 22  1  0  0  0  0
 22  3  1  0  0  0  0
 23 22  1  0  0  0  0
 24 20  1  0  0  0  0
 26 27  2  0  0  0  0
 26 31  1  0  0  0  0
 27 28  1  0  0  0  0
 28 34  1  0  0  0  0
 28 29  2  0  0  0  0
 30 29  1  0  0  0  0
 30 19  1  0  0  0  0
 31 30  2  0  0  0  0
 32 26  1  0  0  0  0
 33 27  1  0  0  0  0
 34 35  1  0  0  0  0
 36 34  2  0  0  0  0
M  END
>  <minimizedAffinity>
-5.71240854

>  <minimizedRMSD>
8.90367126

$$$$
