
 OpenBabel03252508573D

 33 34  0  0  1  0  0  0  0  0999 V2000
   48.8080   33.2890   41.2530 N   0  0  0  0  0  0  0  0  0  0  0  0
   48.8320   32.2140   40.3550 C   0  0  0  0  0  0  0  0  0  0  0  0
   47.9040   32.2840   39.1850 C   0  0  0  0  0  0  0  0  0  0  0  0
   47.6320   33.6770   38.6780 C   0  0  0  0  0  0  0  0  0  0  0  0
   48.4050   34.7140   39.4270 C   0  0  0  0  0  0  0  0  0  0  0  0
   48.0900   34.4470   40.9210 C   0  0  2  0  0  0  0  0  0  0  0  0
   48.6410   31.2500   40.8960 H   0  0  0  0  0  0  0  0  0  0  0  0
   49.8750   32.1140   39.9570 H   0  0  0  0  0  0  0  0  0  0  0  0
   46.9200   31.8850   39.5430 H   0  0  0  0  0  0  0  0  0  0  0  0
   48.2400   31.5860   38.4080 H   0  0  0  0  0  0  0  0  0  0  0  0
   46.5720   33.9380   38.6790 H   0  0  0  0  0  0  0  0  0  0  0  0
   47.9730   33.6920   37.6130 H   0  0  0  0  0  0  0  0  0  0  0  0
   48.0030   35.7170   39.1830 H   0  0  0  0  0  0  0  0  0  0  0  0
   49.4930   34.6180   39.2840 H   0  0  0  0  0  0  0  0  0  0  0  0
   47.0060   34.4430   40.9680 H   0  0  0  0  0  0  0  0  0  0  0  0
   48.8830   32.9600   42.6520 C   0  0  0  0  0  0  0  0  0  0  0  0
   48.9190   33.8640   43.2800 H   0  0  0  0  0  0  0  0  0  0  0  0
   49.8190   32.3940   42.8200 H   0  0  0  0  0  0  0  0  0  0  0  0
   47.7440   32.0810   43.0590 C   0  0  0  0  0  0  0  0  0  0  0  0
   47.1180   31.8610   42.1980 H   0  0  0  0  0  0  0  0  0  0  0  0
   48.0350   31.1150   43.5180 H   0  0  0  0  0  0  0  0  0  0  0  0
   45.2650   34.3580   44.7260 C   0  0  0  0  0  0  0  0  0  0  0  0
   46.0320   33.7310   43.7230 C   0  0  0  0  0  0  0  0  0  0  0  0
   46.9320   32.7540   44.0950 C   0  0  0  0  0  0  0  0  0  0  0  0
   47.0380   32.4450   45.3960 N   0  0  0  0  0  0  0  0  0  0  0  0
   46.2990   33.0510   46.3490 C   0  0  0  0  0  0  0  0  0  0  0  0
   45.4060   34.0130   46.0210 N   0  0  0  0  0  0  0  0  0  0  0  0
   44.5750   35.1150   44.3770 H   0  0  0  0  0  0  0  0  0  0  0  0
   45.9120   34.0150   42.6860 H   0  0  0  0  0  0  0  0  0  0  0  0
   46.3940   32.7910   47.3940 H   0  0  0  0  0  0  0  0  0  0  0  0
   48.6340   35.6640   41.5940 C   0  0  0  0  0  0  0  0  0  0  0  0
   48.2290   36.0130   42.5370 H   0  0  0  0  0  0  0  0  0  0  0  0
   49.4140   36.5670   41.5910 O   0  0  0  0  0  0  0  0  0  0  0  0
  1 16  1  0  0  0  0
  2  7  1  0  0  0  0
  2  1  1  0  0  0  0
  3  9  1  0  0  0  0
  3  2  1  0  0  0  0
  4 11  1  0  0  0  0
  4  3  1  0  0  0  0
  4  5  1  0  0  0  0
  5  6  1  0  0  0  0
  6 15  1  1  0  0  0
  6  1  1  0  0  0  0
  6 31  1  0  0  0  0
  8  2  1  0  0  0  0
 10  3  1  0  0  0  0
 12  4  1  0  0  0  0
 13  5  1  0  0  0  0
 14  5  1  0  0  0  0
 16 18  1  0  0  0  0
 16 19  1  0  0  0  0
 16 17  1  0  0  0  0
 19 21  1  0  0  0  0
 19 24  1  0  0  0  0
 20 19  1  0  0  0  0
 22 27  1  0  0  0  0
 23 24  1  0  0  0  0
 23 22  2  0  0  0  0
 24 25  2  0  0  0  0
 25 26  1  0  0  0  0
 26 30  1  0  0  0  0
 27 26  2  0  0  0  0
 28 22  1  0  0  0  0
 29 23  1  0  0  0  0
 31 32  1  0  0  0  0
 33 31  2  0  0  0  0
M  END
>  <minimizedAffinity>
-3.89756417

>  <minimizedRMSD>
2.23776865

$$$$
