
 OpenBabel03252505143D

 19 20  0  0  0  0  0  0  0  0999 V2000
   44.6070   35.9130   44.3350 C   0  0  0  0  0  0  0  0  0  0  0  0
   45.3160   35.8990   43.1230 C   0  0  0  0  0  0  0  0  0  0  0  0
   46.2660   34.8900   43.0000 C   0  0  0  0  0  0  0  0  0  0  0  0
   46.4520   33.9970   44.0300 N   0  0  0  0  0  0  0  0  0  0  0  0
   45.7360   34.0590   45.1800 C   0  0  0  0  0  0  0  0  0  0  0  0
   44.8120   35.0220   45.3260 N   0  0  0  0  0  0  0  0  0  0  0  0
   43.8480   36.6980   44.4640 H   0  0  0  0  0  0  0  0  0  0  0  0
   45.1440   36.6120   42.3410 H   0  0  0  0  0  0  0  0  0  0  0  0
   47.0770   34.7550   41.7400 C   0  0  0  0  0  0  0  0  0  0  0  0
   48.3880   35.5010   41.8080 C   0  0  0  0  0  0  0  0  0  0  0  0
   48.2950   33.9560   41.7940 C   0  0  0  0  0  0  0  0  0  0  0  0
   46.5210   34.9100   40.7940 H   0  0  0  0  0  0  0  0  0  0  0  0
   48.7510   35.9600   40.8720 H   0  0  0  0  0  0  0  0  0  0  0  0
   48.7090   36.0080   42.7190 H   0  0  0  0  0  0  0  0  0  0  0  0
   48.6150   33.4600   40.8360 H   0  0  0  0  0  0  0  0  0  0  0  0
   48.6620   33.5030   42.7330 H   0  0  0  0  0  0  0  0  0  0  0  0
   45.9800   33.0810   46.2330 C   0  0  0  0  0  0  0  0  0  0  0  0
   46.7790   32.3600   46.1250 H   0  0  0  0  0  0  0  0  0  0  0  0
   45.2480   33.0990   47.2560 O   0  0  0  0  0  0  0  0  0  0  0  0
  1  7  1  0  0  0  0
  1  6  1  0  0  0  0
  2  1  2  0  0  0  0
  3  2  1  0  0  0  0
  3  4  2  0  0  0  0
  4  5  1  0  0  0  0
  5  6  2  0  0  0  0
  5 17  1  0  0  0  0
  8  2  1  0  0  0  0
  9 11  1  0  0  0  0
  9 10  1  0  0  0  0
  9  3  1  0  0  0  0
 10 14  1  0  0  0  0
 11 10  1  0  0  0  0
 11 16  1  0  0  0  0
 12  9  1  0  0  0  0
 13 10  1  0  0  0  0
 15 11  1  0  0  0  0
 17 19  2  0  0  0  0
 18 17  1  0  0  0  0
M  END
>  <minimizedAffinity>
-4.14224625

>  <minimizedRMSD>
0.0934510604

$$$$
