
 OpenBabel03252507533D

 32 34  0  0  1  0  0  0  0  0999 V2000
   46.9260   34.9930   42.0810 C   0  0  2  0  0  0  0  0  0  0  0  0
   46.3000   34.1760   40.9770 C   0  0  0  0  0  0  0  0  0  0  0  0
   47.5100   34.1290   40.0260 C   0  0  0  0  0  0  0  0  0  0  0  0
   48.7110   34.0500   40.9300 C   0  0  1  0  0  0  0  0  0  0  0  0
   48.1840   34.1660   42.3250 C   0  0  0  0  0  0  0  0  0  0  0  0
   47.1440   35.9860   41.6940 H   0  0  0  0  0  0  0  0  0  0  0  0
   46.0600   33.1620   41.3720 H   0  0  0  0  0  0  0  0  0  0  0  0
   45.4330   34.6690   40.5030 H   0  0  0  0  0  0  0  0  0  0  0  0
   47.4570   35.0600   39.4370 H   0  0  0  0  0  0  0  0  0  0  0  0
   47.4190   33.2580   39.3440 H   0  0  0  0  0  0  0  0  0  0  0  0
   49.3710   34.9010   40.7390 H   0  0  0  0  0  0  0  0  0  0  0  0
   48.8710   34.6570   43.0320 H   0  0  0  0  0  0  0  0  0  0  0  0
   47.6810   33.2650   42.7270 H   0  0  0  0  0  0  0  0  0  0  0  0
   44.4340   36.0650   44.7070 C   0  0  0  0  0  0  0  0  0  0  0  0
   45.1640   36.0900   43.5130 C   0  0  0  0  0  0  0  0  0  0  0  0
   46.0840   35.0570   43.3050 C   0  0  0  0  0  0  0  0  0  0  0  0
   46.2360   34.0730   44.2570 N   0  0  0  0  0  0  0  0  0  0  0  0
   45.5020   34.0980   45.3960 C   0  0  0  0  0  0  0  0  0  0  0  0
   44.6120   35.0820   45.6180 N   0  0  0  0  0  0  0  0  0  0  0  0
   43.7250   36.8680   44.8620 H   0  0  0  0  0  0  0  0  0  0  0  0
   45.0590   36.8460   42.7640 H   0  0  0  0  0  0  0  0  0  0  0  0
   45.6910   33.2820   46.0870 H   0  0  0  0  0  0  0  0  0  0  0  0
   49.4530   32.7500   40.8600 C   0  0  2  0  0  0  0  0  0  0  0  0
   49.3330   31.8230   41.9590 C   0  0  0  0  0  0  0  0  0  0  0  0
   50.6650   32.4570   41.5910 C   0  0  1  0  0  0  0  0  0  0  0  0
   49.4220   32.3340   39.8330 H   0  0  0  0  0  0  0  0  0  0  0  0
   49.2300   30.7230   41.6880 H   0  0  0  0  0  0  0  0  0  0  0  0
   49.2340   31.9090   43.0270 H   0  0  0  0  0  0  0  0  0  0  0  0
   51.1130   33.2640   42.1650 H   0  0  0  0  0  0  0  0  0  0  0  0
   51.6910   31.5180   41.0360 C   0  0  0  0  0  0  0  0  0  0  0  0
   52.0220   30.6020   41.5540 H   0  0  0  0  0  0  0  0  0  0  0  0
   52.2680   31.6660   39.9550 O   0  0  0  0  0  0  0  0  0  0  0  0
  1  6  1  6  0  0  0
  1  5  1  0  0  0  0
  1 16  1  0  0  0  0
  2  7  1  0  0  0  0
  2  1  1  0  0  0  0
  3  4  1  0  0  0  0
  3  2  1  0  0  0  0
  4 11  1  6  0  0  0
  4  5  1  0  0  0  0
  5 13  1  0  0  0  0
  5 12  1  0  0  0  0
  8  2  1  0  0  0  0
  9  3  1  0  0  0  0
 10  3  1  0  0  0  0
 14 20  1  0  0  0  0
 14 19  1  0  0  0  0
 15 14  2  0  0  0  0
 16 15  1  0  0  0  0
 16 17  2  0  0  0  0
 17 18  1  0  0  0  0
 18 19  2  0  0  0  0
 18 22  1  0  0  0  0
 21 15  1  0  0  0  0
 23 26  1  6  0  0  0
 23  4  1  0  0  0  0
 23 25  1  0  0  0  0
 23 24  1  0  0  0  0
 24 28  1  0  0  0  0
 25 24  1  0  0  0  0
 25 29  1  1  0  0  0
 27 24  1  0  0  0  0
 30 31  1  0  0  0  0
 30 25  1  0  0  0  0
 32 30  2  0  0  0  0
M  END
>  <minimizedAffinity>
-4.75722122

>  <minimizedRMSD>
0.540613949

$$$$
