
 OpenBabel03252507533D

 32 34  0  0  1  0  0  0  0  0999 V2000
   46.9640   34.9710   42.0940 C   0  0  2  0  0  0  0  0  0  0  0  0
   46.3230   34.1960   40.9680 C   0  0  0  0  0  0  0  0  0  0  0  0
   47.5420   34.1320   40.0270 C   0  0  0  0  0  0  0  0  0  0  0  0
   48.7300   33.9960   40.9400 C   0  0  1  0  0  0  0  0  0  0  0  0
   48.1940   34.1000   42.3320 C   0  0  0  0  0  0  0  0  0  0  0  0
   47.2160   35.9640   41.7300 H   0  0  0  0  0  0  0  0  0  0  0  0
   46.0480   33.1830   41.3390 H   0  0  0  0  0  0  0  0  0  0  0  0
   45.4770   34.7250   40.4960 H   0  0  0  0  0  0  0  0  0  0  0  0
   47.5230   35.0750   39.4580 H   0  0  0  0  0  0  0  0  0  0  0  0
   47.4300   33.2780   39.3260 H   0  0  0  0  0  0  0  0  0  0  0  0
   49.4190   34.8310   40.7730 H   0  0  0  0  0  0  0  0  0  0  0  0
   48.8880   34.5540   43.0560 H   0  0  0  0  0  0  0  0  0  0  0  0
   47.6590   33.2070   42.7110 H   0  0  0  0  0  0  0  0  0  0  0  0
   44.4460   36.0400   44.6950 C   0  0  0  0  0  0  0  0  0  0  0  0
   45.1850   36.0640   43.5080 C   0  0  0  0  0  0  0  0  0  0  0  0
   46.1120   35.0350   43.3110 C   0  0  0  0  0  0  0  0  0  0  0  0
   46.2640   34.0570   44.2700 N   0  0  0  0  0  0  0  0  0  0  0  0
   45.5210   34.0830   45.4030 C   0  0  0  0  0  0  0  0  0  0  0  0
   44.6230   35.0630   45.6140 N   0  0  0  0  0  0  0  0  0  0  0  0
   43.7300   36.8380   44.8410 H   0  0  0  0  0  0  0  0  0  0  0  0
   45.0800   36.8150   42.7540 H   0  0  0  0  0  0  0  0  0  0  0  0
   45.7100   33.2720   46.1000 H   0  0  0  0  0  0  0  0  0  0  0  0
   49.4330   32.6760   40.8500 C   0  0  2  0  0  0  0  0  0  0  0  0
   49.3340   31.7610   41.9610 C   0  0  0  0  0  0  0  0  0  0  0  0
   50.6660   32.3540   41.5310 C   0  0  1  0  0  0  0  0  0  0  0  0
   49.3460   32.2530   39.8290 H   0  0  0  0  0  0  0  0  0  0  0  0
   49.1890   30.6620   41.7030 H   0  0  0  0  0  0  0  0  0  0  0  0
   49.2840   31.8570   43.0310 H   0  0  0  0  0  0  0  0  0  0  0  0
   51.1600   33.1530   42.0780 H   0  0  0  0  0  0  0  0  0  0  0  0
   51.6410   31.3830   40.9400 C   0  0  0  0  0  0  0  0  0  0  0  0
   51.5390   30.2880   41.0300 H   0  0  0  0  0  0  0  0  0  0  0  0
   52.6470   31.6990   40.2990 O   0  0  0  0  0  0  0  0  0  0  0  0
  1  6  1  6  0  0  0
  1  5  1  0  0  0  0
  1 16  1  0  0  0  0
  2  7  1  0  0  0  0
  2  1  1  0  0  0  0
  3  4  1  0  0  0  0
  3  2  1  0  0  0  0
  4 11  1  6  0  0  0
  4  5  1  0  0  0  0
  5 13  1  0  0  0  0
  5 12  1  0  0  0  0
  8  2  1  0  0  0  0
  9  3  1  0  0  0  0
 10  3  1  0  0  0  0
 14 20  1  0  0  0  0
 14 19  1  0  0  0  0
 15 14  2  0  0  0  0
 16 15  1  0  0  0  0
 16 17  2  0  0  0  0
 17 18  1  0  0  0  0
 18 19  2  0  0  0  0
 18 22  1  0  0  0  0
 21 15  1  0  0  0  0
 23 26  1  6  0  0  0
 23  4  1  0  0  0  0
 23 25  1  0  0  0  0
 23 24  1  0  0  0  0
 24 28  1  0  0  0  0
 25 24  1  0  0  0  0
 25 29  1  1  0  0  0
 27 24  1  0  0  0  0
 30 31  1  0  0  0  0
 30 25  1  0  0  0  0
 32 30  2  0  0  0  0
M  END
>  <minimizedAffinity>
-4.75915432

>  <minimizedRMSD>
0.61416471

$$$$
