
 OpenBabel03252507533D

 32 34  0  0  1  0  0  0  0  0999 V2000
   46.9580   34.9780   42.0910 C   0  0  2  0  0  0  0  0  0  0  0  0
   46.3250   34.1890   40.9720 C   0  0  0  0  0  0  0  0  0  0  0  0
   47.5440   34.1280   40.0310 C   0  0  0  0  0  0  0  0  0  0  0  0
   48.7340   34.0110   40.9460 C   0  0  1  0  0  0  0  0  0  0  0  0
   48.1960   34.1210   42.3370 C   0  0  0  0  0  0  0  0  0  0  0  0
   47.2020   35.9700   41.7190 H   0  0  0  0  0  0  0  0  0  0  0  0
   46.0600   33.1760   41.3520 H   0  0  0  0  0  0  0  0  0  0  0  0
   45.4740   34.7060   40.4950 H   0  0  0  0  0  0  0  0  0  0  0  0
   47.5170   35.0670   39.4550 H   0  0  0  0  0  0  0  0  0  0  0  0
   47.4410   33.2670   39.3380 H   0  0  0  0  0  0  0  0  0  0  0  0
   49.4140   34.8500   40.7730 H   0  0  0  0  0  0  0  0  0  0  0  0
   48.8860   34.5880   43.0570 H   0  0  0  0  0  0  0  0  0  0  0  0
   47.6700   33.2260   42.7230 H   0  0  0  0  0  0  0  0  0  0  0  0
   44.4420   36.0550   44.6920 C   0  0  0  0  0  0  0  0  0  0  0  0
   45.1820   36.0770   43.5050 C   0  0  0  0  0  0  0  0  0  0  0  0
   46.1060   35.0450   43.3080 C   0  0  0  0  0  0  0  0  0  0  0  0
   46.2520   34.0650   44.2660 N   0  0  0  0  0  0  0  0  0  0  0  0
   45.5090   34.0930   45.3990 C   0  0  0  0  0  0  0  0  0  0  0  0
   44.6150   35.0760   45.6090 N   0  0  0  0  0  0  0  0  0  0  0  0
   43.7290   36.8560   44.8380 H   0  0  0  0  0  0  0  0  0  0  0  0
   45.0800   36.8290   42.7520 H   0  0  0  0  0  0  0  0  0  0  0  0
   45.6940   33.2800   46.0950 H   0  0  0  0  0  0  0  0  0  0  0  0
   49.4490   32.6970   40.8670 C   0  0  2  0  0  0  0  0  0  0  0  0
   49.3320   31.7760   41.9720 C   0  0  0  0  0  0  0  0  0  0  0  0
   50.6680   32.3820   41.5750 C   0  0  1  0  0  0  0  0  0  0  0  0
   49.3890   32.2770   39.8430 H   0  0  0  0  0  0  0  0  0  0  0  0
   49.2020   30.6770   41.7070 H   0  0  0  0  0  0  0  0  0  0  0  0
   49.2560   31.8670   43.0410 H   0  0  0  0  0  0  0  0  0  0  0  0
   51.1430   33.1820   42.1360 H   0  0  0  0  0  0  0  0  0  0  0  0
   51.6640   31.4210   41.0030 C   0  0  0  0  0  0  0  0  0  0  0  0
   51.7170   30.3560   41.2880 H   0  0  0  0  0  0  0  0  0  0  0  0
   52.5220   31.7140   40.1640 O   0  0  0  0  0  0  0  0  0  0  0  0
  1  6  1  6  0  0  0
  1  5  1  0  0  0  0
  1 16  1  0  0  0  0
  2  7  1  0  0  0  0
  2  1  1  0  0  0  0
  3  4  1  0  0  0  0
  3  2  1  0  0  0  0
  4 11  1  6  0  0  0
  4  5  1  0  0  0  0
  5 13  1  0  0  0  0
  5 12  1  0  0  0  0
  8  2  1  0  0  0  0
  9  3  1  0  0  0  0
 10  3  1  0  0  0  0
 14 20  1  0  0  0  0
 14 19  1  0  0  0  0
 15 14  2  0  0  0  0
 16 15  1  0  0  0  0
 16 17  2  0  0  0  0
 17 18  1  0  0  0  0
 18 19  2  0  0  0  0
 18 22  1  0  0  0  0
 21 15  1  0  0  0  0
 23 26  1  6  0  0  0
 23  4  1  0  0  0  0
 23 25  1  0  0  0  0
 23 24  1  0  0  0  0
 24 28  1  0  0  0  0
 25 24  1  0  0  0  0
 25 29  1  1  0  0  0
 27 24  1  0  0  0  0
 30 31  1  0  0  0  0
 30 25  1  0  0  0  0
 32 30  2  0  0  0  0
M  END
>  <minimizedAffinity>
-4.76075745

>  <minimizedRMSD>
0.42481935

$$$$
