
 OpenBabel03252507533D

 32 34  0  0  1  0  0  0  0  0999 V2000
   36.8310   29.7940   41.8040 C   0  0  2  0  0  0  0  0  0  0  0  0
   38.1510   29.5720   42.5010 C   0  0  0  0  0  0  0  0  0  0  0  0
   37.6720   28.5650   43.5630 C   0  0  0  0  0  0  0  0  0  0  0  0
   36.6240   27.7380   42.8680 C   0  0  1  0  0  0  0  0  0  0  0  0
   36.4530   28.3450   41.5120 C   0  0  0  0  0  0  0  0  0  0  0  0
   36.1490   30.2730   42.5020 H   0  0  0  0  0  0  0  0  0  0  0  0
   38.8600   29.0940   41.7850 H   0  0  0  0  0  0  0  0  0  0  0  0
   38.5620   30.4850   42.9670 H   0  0  0  0  0  0  0  0  0  0  0  0
   37.2790   29.1770   44.3910 H   0  0  0  0  0  0  0  0  0  0  0  0
   38.5320   27.9640   43.9270 H   0  0  0  0  0  0  0  0  0  0  0  0
   35.6730   27.8220   43.4050 H   0  0  0  0  0  0  0  0  0  0  0  0
   35.4360   28.2590   41.0980 H   0  0  0  0  0  0  0  0  0  0  0  0
   37.2620   28.1350   40.7840 H   0  0  0  0  0  0  0  0  0  0  0  0
   37.0380   30.7910   38.1690 C   0  0  0  0  0  0  0  0  0  0  0  0
   36.8830   29.9670   39.2890 C   0  0  0  0  0  0  0  0  0  0  0  0
   36.9630   30.5750   40.5460 C   0  0  0  0  0  0  0  0  0  0  0  0
   37.1870   31.9320   40.6370 N   0  0  0  0  0  0  0  0  0  0  0  0
   37.3300   32.6830   39.5180 C   0  0  0  0  0  0  0  0  0  0  0  0
   37.2560   32.1190   38.2990 N   0  0  0  0  0  0  0  0  0  0  0  0
   36.9750   30.3140   37.2000 H   0  0  0  0  0  0  0  0  0  0  0  0
   36.7090   28.9130   39.2360 H   0  0  0  0  0  0  0  0  0  0  0  0
   37.5020   33.7410   39.6890 H   0  0  0  0  0  0  0  0  0  0  0  0
   37.0080   26.3070   42.6500 C   0  0  2  0  0  0  0  0  0  0  0  0
   38.3500   26.0070   42.2150 C   0  0  0  0  0  0  0  0  0  0  0  0
   37.1400   25.6800   41.3550 C   0  0  1  0  0  0  0  0  0  0  0  0
   36.5680   25.6570   43.4340 H   0  0  0  0  0  0  0  0  0  0  0  0
   38.8550   25.1110   42.7000 H   0  0  0  0  0  0  0  0  0  0  0  0
   39.0690   26.4790   41.5690 H   0  0  0  0  0  0  0  0  0  0  0  0
   36.8590   26.2650   40.4840 H   0  0  0  0  0  0  0  0  0  0  0  0
   36.8580   24.2210   41.1740 C   0  0  0  0  0  0  0  0  0  0  0  0
   37.4580   23.4210   41.6410 H   0  0  0  0  0  0  0  0  0  0  0  0
   35.9350   23.7630   40.4910 O   0  0  0  0  0  0  0  0  0  0  0  0
  1  2  1  0  0  0  0
  1  6  1  1  0  0  0
  2  8  1  0  0  0  0
  2  3  1  0  0  0  0
  3 10  1  0  0  0  0
  3  9  1  0  0  0  0
  4 11  1  1  0  0  0
  4  3  1  0  0  0  0
  5  1  1  0  0  0  0
  5  4  1  0  0  0  0
  7  2  1  0  0  0  0
 12  5  1  0  0  0  0
 13  5  1  0  0  0  0
 14 19  2  0  0  0  0
 14 15  1  0  0  0  0
 15 16  2  0  0  0  0
 16 17  1  0  0  0  0
 16  1  1  0  0  0  0
 18 22  1  0  0  0  0
 18 17  2  0  0  0  0
 19 18  1  0  0  0  0
 20 14  1  0  0  0  0
 21 15  1  0  0  0  0
 23  4  1  0  0  0  0
 23 26  1  1  0  0  0
 24 23  1  0  0  0  0
 24 27  1  0  0  0  0
 25 29  1  6  0  0  0
 25 24  1  0  0  0  0
 25 23  1  0  0  0  0
 28 24  1  0  0  0  0
 30 25  1  0  0  0  0
 30 31  1  0  0  0  0
 32 30  2  0  0  0  0
M  END
>  <minimizedAffinity>
-4.9484148

$$$$

 OpenBabel03252507533D

 32 34  0  0  1  0  0  0  0  0999 V2000
   37.2220   29.5350   42.1830 C   0  0  2  0  0  0  0  0  0  0  0  0
   38.3360   29.0050   43.0530 C   0  0  0  0  0  0  0  0  0  0  0  0
   37.6520   27.7050   43.5160 C   0  0  0  0  0  0  0  0  0  0  0  0
   36.8480   27.2460   42.3290 C   0  0  1  0  0  0  0  0  0  0  0  0
   36.9940   28.3160   41.2940 C   0  0  0  0  0  0  0  0  0  0  0  0
   36.3670   29.7600   42.8150 H   0  0  0  0  0  0  0  0  0  0  0  0
   39.2210   28.7880   42.4120 H   0  0  0  0  0  0  0  0  0  0  0  0
   38.5760   29.6610   43.9080 H   0  0  0  0  0  0  0  0  0  0  0  0
   37.0380   27.9900   44.3850 H   0  0  0  0  0  0  0  0  0  0  0  0
   38.4200   26.9690   43.8330 H   0  0  0  0  0  0  0  0  0  0  0  0
   35.7910   27.1770   42.6050 H   0  0  0  0  0  0  0  0  0  0  0  0
   36.1180   28.4400   40.6390 H   0  0  0  0  0  0  0  0  0  0  0  0
   37.9670   28.3470   40.7660 H   0  0  0  0  0  0  0  0  0  0  0  0
   37.2380   32.4300   39.7590 C   0  0  0  0  0  0  0  0  0  0  0  0
   36.7490   31.3360   40.4830 C   0  0  0  0  0  0  0  0  0  0  0  0
   37.6290   30.7160   41.3750 C   0  0  0  0  0  0  0  0  0  0  0  0
   38.9160   31.1890   41.5090 N   0  0  0  0  0  0  0  0  0  0  0  0
   39.3380   32.2530   40.7820 C   0  0  0  0  0  0  0  0  0  0  0  0
   38.5090   32.8650   39.9170 N   0  0  0  0  0  0  0  0  0  0  0  0
   36.5520   32.9050   39.0700 H   0  0  0  0  0  0  0  0  0  0  0  0
   35.7540   30.9560   40.3910 H   0  0  0  0  0  0  0  0  0  0  0  0
   40.3660   32.5540   40.9540 H   0  0  0  0  0  0  0  0  0  0  0  0
   37.3380   25.9770   41.7020 C   0  0  2  0  0  0  0  0  0  0  0  0
   36.8170   24.7200   42.1830 C   0  0  0  0  0  0  0  0  0  0  0  0
   38.2900   25.0750   42.3110 C   0  0  1  0  0  0  0  0  0  0  0  0
   37.4530   26.0970   40.6060 H   0  0  0  0  0  0  0  0  0  0  0  0
   36.5760   23.9350   41.3960 H   0  0  0  0  0  0  0  0  0  0  0  0
   36.5090   24.3330   43.1380 H   0  0  0  0  0  0  0  0  0  0  0  0
   38.7440   25.3830   43.2490 H   0  0  0  0  0  0  0  0  0  0  0  0
   39.2220   24.2590   41.4700 C   0  0  0  0  0  0  0  0  0  0  0  0
   39.3870   23.1780   41.6180 H   0  0  0  0  0  0  0  0  0  0  0  0
   39.8960   24.7020   40.5350 O   0  0  0  0  0  0  0  0  0  0  0  0
  1  6  1  1  0  0  0
  1  2  1  0  0  0  0
  2  3  1  0  0  0  0
  2  8  1  0  0  0  0
  3 10  1  0  0  0  0
  3  9  1  0  0  0  0
  4 11  1  1  0  0  0
  4  3  1  0  0  0  0
  5  1  1  0  0  0  0
  5  4  1  0  0  0  0
  7  2  1  0  0  0  0
 12  5  1  0  0  0  0
 13  5  1  0  0  0  0
 14 19  2  0  0  0  0
 14 15  1  0  0  0  0
 15 16  2  0  0  0  0
 16 17  1  0  0  0  0
 16  1  1  0  0  0  0
 18 22  1  0  0  0  0
 18 17  2  0  0  0  0
 19 18  1  0  0  0  0
 20 14  1  0  0  0  0
 21 15  1  0  0  0  0
 23 26  1  6  0  0  0
 23 24  1  0  0  0  0
 23 25  1  0  0  0  0
 23  4  1  0  0  0  0
 24 25  1  0  0  0  0
 24 28  1  0  0  0  0
 25 29  1  1  0  0  0
 27 24  1  0  0  0  0
 30 31  1  0  0  0  0
 30 25  1  0  0  0  0
 32 30  2  0  0  0  0
M  END
>  <minimizedAffinity>
-4.79163885

$$$$

 OpenBabel03252507533D

 32 34  0  0  1  0  0  0  0  0999 V2000
   36.8460   28.0560   42.1390 C   0  0  2  0  0  0  0  0  0  0  0  0
   36.4630   27.8710   40.6910 C   0  0  0  0  0  0  0  0  0  0  0  0
   35.5560   29.1080   40.5460 C   0  0  0  0  0  0  0  0  0  0  0  0
   36.1990   30.1630   41.4050 C   0  0  1  0  0  0  0  0  0  0  0  0
   37.3500   29.4940   42.0860 C   0  0  0  0  0  0  0  0  0  0  0  0
   35.9530   27.9450   42.7490 H   0  0  0  0  0  0  0  0  0  0  0  0
   37.3780   27.9680   40.0620 H   0  0  0  0  0  0  0  0  0  0  0  0
   35.9060   26.9380   40.4990 H   0  0  0  0  0  0  0  0  0  0  0  0
   34.5640   28.7870   40.9030 H   0  0  0  0  0  0  0  0  0  0  0  0
   35.4850   29.3990   39.4770 H   0  0  0  0  0  0  0  0  0  0  0  0
   35.4910   30.4950   42.1710 H   0  0  0  0  0  0  0  0  0  0  0  0
   37.5790   29.8890   43.0880 H   0  0  0  0  0  0  0  0  0  0  0  0
   38.2410   29.3060   41.4550 H   0  0  0  0  0  0  0  0  0  0  0  0
   39.9800   26.6190   43.6790 C   0  0  0  0  0  0  0  0  0  0  0  0
   39.0130   27.5700   43.3350 C   0  0  0  0  0  0  0  0  0  0  0  0
   37.9240   27.1290   42.5760 C   0  0  0  0  0  0  0  0  0  0  0  0
   37.8410   25.8050   42.2030 N   0  0  0  0  0  0  0  0  0  0  0  0
   38.8080   24.9250   42.5640 C   0  0  0  0  0  0  0  0  0  0  0  0
   39.8640   25.3280   43.2930 N   0  0  0  0  0  0  0  0  0  0  0  0
   40.8200   26.9680   44.2660 H   0  0  0  0  0  0  0  0  0  0  0  0
   39.0620   28.6010   43.6160 H   0  0  0  0  0  0  0  0  0  0  0  0
   38.6570   23.9050   42.2240 H   0  0  0  0  0  0  0  0  0  0  0  0
   36.7670   31.3210   40.6420 C   0  0  2  0  0  0  0  0  0  0  0  0
   37.0000   31.1710   39.2260 C   0  0  0  0  0  0  0  0  0  0  0  0
   38.1400   31.4180   40.2010 C   0  0  1  0  0  0  0  0  0  0  0  0
   36.3260   32.2760   40.9900 H   0  0  0  0  0  0  0  0  0  0  0  0
   36.7250   32.0580   38.5690 H   0  0  0  0  0  0  0  0  0  0  0  0
   37.3130   30.3690   38.5820 H   0  0  0  0  0  0  0  0  0  0  0  0
   38.8250   30.6370   40.5180 H   0  0  0  0  0  0  0  0  0  0  0  0
   38.8150   32.7490   40.0750 C   0  0  0  0  0  0  0  0  0  0  0  0
   39.3570   33.0730   39.1710 H   0  0  0  0  0  0  0  0  0  0  0  0
   38.8360   33.6130   40.9580 O   0  0  0  0  0  0  0  0  0  0  0  0
  1 16  1  0  0  0  0
  1  6  1  1  0  0  0
  2  1  1  0  0  0  0
  3  2  1  0  0  0  0
  3  9  1  0  0  0  0
  3  4  1  0  0  0  0
  4  5  1  0  0  0  0
  4 11  1  1  0  0  0
  5  1  1  0  0  0  0
  5 12  1  0  0  0  0
  7  2  1  0  0  0  0
  8  2  1  0  0  0  0
 10  3  1  0  0  0  0
 13  5  1  0  0  0  0
 14 20  1  0  0  0  0
 15 21  1  0  0  0  0
 15 14  1  0  0  0  0
 16 15  2  0  0  0  0
 17 18  2  0  0  0  0
 17 16  1  0  0  0  0
 18 19  1  0  0  0  0
 19 14  2  0  0  0  0
 22 18  1  0  0  0  0
 23 26  1  1  0  0  0
 23  4  1  0  0  0  0
 24 25  1  0  0  0  0
 24 23  1  0  0  0  0
 25 29  1  1  0  0  0
 25 23  1  0  0  0  0
 27 24  1  0  0  0  0
 28 24  1  0  0  0  0
 30 25  1  0  0  0  0
 30 32  2  0  0  0  0
 31 30  1  0  0  0  0
M  END
>  <minimizedAffinity>
-4.75882244

$$$$

 OpenBabel03252507533D

 32 34  0  0  1  0  0  0  0  0999 V2000
   37.0550   28.3090   42.1520 C   0  0  2  0  0  0  0  0  0  0  0  0
   36.2570   28.1590   40.8800 C   0  0  0  0  0  0  0  0  0  0  0  0
   35.7820   29.6190   40.7470 C   0  0  0  0  0  0  0  0  0  0  0  0
   36.9310   30.4480   41.2530 C   0  0  1  0  0  0  0  0  0  0  0  0
   37.9520   29.4760   41.7520 C   0  0  0  0  0  0  0  0  0  0  0  0
   36.3730   28.5610   42.9600 H   0  0  0  0  0  0  0  0  0  0  0  0
   36.9500   27.8850   40.0520 H   0  0  0  0  0  0  0  0  0  0  0  0
   35.4040   27.4650   40.9750 H   0  0  0  0  0  0  0  0  0  0  0  0
   34.8740   29.6890   41.3700 H   0  0  0  0  0  0  0  0  0  0  0  0
   35.5200   29.8340   39.6900 H   0  0  0  0  0  0  0  0  0  0  0  0
   36.5990   31.0610   42.0960 H   0  0  0  0  0  0  0  0  0  0  0  0
   38.5560   29.8420   42.5970 H   0  0  0  0  0  0  0  0  0  0  0  0
   38.5330   28.9430   40.9730 H   0  0  0  0  0  0  0  0  0  0  0  0
   38.3690   24.7740   42.3250 C   0  0  0  0  0  0  0  0  0  0  0  0
   37.5560   25.8460   41.9420 C   0  0  0  0  0  0  0  0  0  0  0  0
   37.8620   27.1020   42.4760 C   0  0  0  0  0  0  0  0  0  0  0  0
   38.9270   27.2380   43.3410 N   0  0  0  0  0  0  0  0  0  0  0  0
   39.6810   26.1650   43.6780 C   0  0  0  0  0  0  0  0  0  0  0  0
   39.4060   24.9470   43.1760 N   0  0  0  0  0  0  0  0  0  0  0  0
   38.1270   23.8050   41.9080 H   0  0  0  0  0  0  0  0  0  0  0  0
   36.7270   25.7580   41.2730 H   0  0  0  0  0  0  0  0  0  0  0  0
   40.4980   26.3680   44.3640 H   0  0  0  0  0  0  0  0  0  0  0  0
   37.6070   31.2750   40.2030 C   0  0  2  0  0  0  0  0  0  0  0  0
   37.1230   32.6120   39.9550 C   0  0  0  0  0  0  0  0  0  0  0  0
   37.0680   31.5310   38.8870 C   0  0  1  0  0  0  0  0  0  0  0  0
   38.7050   31.1260   40.2300 H   0  0  0  0  0  0  0  0  0  0  0  0
   37.9100   33.4160   39.7890 H   0  0  0  0  0  0  0  0  0  0  0  0
   36.1600   33.0910   39.9590 H   0  0  0  0  0  0  0  0  0  0  0  0
   36.1500   31.0190   38.6120 H   0  0  0  0  0  0  0  0  0  0  0  0
   37.9720   31.7430   37.7120 C   0  0  0  0  0  0  0  0  0  0  0  0
   39.0630   31.8810   37.8010 H   0  0  0  0  0  0  0  0  0  0  0  0
   37.5980   31.7870   36.5360 O   0  0  0  0  0  0  0  0  0  0  0  0
  1 16  1  0  0  0  0
  1  6  1  1  0  0  0
  2  8  1  0  0  0  0
  2  1  1  0  0  0  0
  3  2  1  0  0  0  0
  3  4  1  0  0  0  0
  3  9  1  0  0  0  0
  4  5  1  0  0  0  0
  4 11  1  1  0  0  0
  5  1  1  0  0  0  0
  5 12  1  0  0  0  0
  7  2  1  0  0  0  0
 10  3  1  0  0  0  0
 13  5  1  0  0  0  0
 14 19  1  0  0  0  0
 15 14  2  0  0  0  0
 15 16  1  0  0  0  0
 16 17  2  0  0  0  0
 17 18  1  0  0  0  0
 18 22  1  0  0  0  0
 19 18  2  0  0  0  0
 20 14  1  0  0  0  0
 21 15  1  0  0  0  0
 23 26  1  1  0  0  0
 23  4  1  0  0  0  0
 24 28  1  0  0  0  0
 24 23  1  0  0  0  0
 25 29  1  6  0  0  0
 25 24  1  0  0  0  0
 25 23  1  0  0  0  0
 27 24  1  0  0  0  0
 30 31  1  0  0  0  0
 30 25  1  0  0  0  0
 32 30  2  0  0  0  0
M  END
>  <minimizedAffinity>
-4.58849859

$$$$

 OpenBabel03252507533D

 32 34  0  0  1  0  0  0  0  0999 V2000
   39.1810   29.1570   42.8490 C   0  0  2  0  0  0  0  0  0  0  0  0
   40.4230   28.6470   42.1590 C   0  0  0  0  0  0  0  0  0  0  0  0
   40.8070   27.5580   43.1780 C   0  0  0  0  0  0  0  0  0  0  0  0
   39.4960   27.0060   43.6690 C   0  0  1  0  0  0  0  0  0  0  0  0
   38.4330   27.8400   43.0290 C   0  0  0  0  0  0  0  0  0  0  0  0
   39.4720   29.6070   43.7950 H   0  0  0  0  0  0  0  0  0  0  0  0
   40.1320   28.1980   41.1820 H   0  0  0  0  0  0  0  0  0  0  0  0
   41.2170   29.4080   42.0640 H   0  0  0  0  0  0  0  0  0  0  0  0
   41.3900   28.0770   43.9570 H   0  0  0  0  0  0  0  0  0  0  0  0
   41.4470   26.7940   42.6880 H   0  0  0  0  0  0  0  0  0  0  0  0
   39.4260   27.1320   44.7530 H   0  0  0  0  0  0  0  0  0  0  0  0
   37.5220   27.9610   43.6350 H   0  0  0  0  0  0  0  0  0  0  0  0
   38.2440   27.6410   41.9550 H   0  0  0  0  0  0  0  0  0  0  0  0
   38.1630   32.0620   40.6630 C   0  0  0  0  0  0  0  0  0  0  0  0
   38.9920   31.2250   41.4180 C   0  0  0  0  0  0  0  0  0  0  0  0
   38.4000   30.1050   42.0110 C   0  0  0  0  0  0  0  0  0  0  0  0
   37.0530   29.8690   41.8360 N   0  0  0  0  0  0  0  0  0  0  0  0
   36.2960   30.7130   41.0940 C   0  0  0  0  0  0  0  0  0  0  0  0
   36.8450   31.7970   40.5150 N   0  0  0  0  0  0  0  0  0  0  0  0
   38.6270   32.9260   40.2070 H   0  0  0  0  0  0  0  0  0  0  0  0
   40.0380   31.3940   41.5630 H   0  0  0  0  0  0  0  0  0  0  0  0
   35.2470   30.4460   41.0130 H   0  0  0  0  0  0  0  0  0  0  0  0
   39.2300   25.5880   43.2610 C   0  0  2  0  0  0  0  0  0  0  0  0
   40.3040   24.8210   42.6790 C   0  0  0  0  0  0  0  0  0  0  0  0
   39.0420   25.1480   41.8980 C   0  0  1  0  0  0  0  0  0  0  0  0
   38.5820   25.0810   44.0040 H   0  0  0  0  0  0  0  0  0  0  0  0
   40.3970   23.7380   43.0160 H   0  0  0  0  0  0  0  0  0  0  0  0
   41.1340   25.0340   42.0290 H   0  0  0  0  0  0  0  0  0  0  0  0
   39.0070   25.9100   41.1240 H   0  0  0  0  0  0  0  0  0  0  0  0
   38.1610   23.9780   41.5820 C   0  0  0  0  0  0  0  0  0  0  0  0
   38.5420   22.9550   41.4250 H   0  0  0  0  0  0  0  0  0  0  0  0
   36.9330   24.0350   41.4640 O   0  0  0  0  0  0  0  0  0  0  0  0
  1  5  1  0  0  0  0
  1  6  1  1  0  0  0
  2  1  1  0  0  0  0
  2  3  1  0  0  0  0
  3  4  1  0  0  0  0
  3  9  1  0  0  0  0
  4 11  1  1  0  0  0
  5 12  1  0  0  0  0
  5  4  1  0  0  0  0
  7  2  1  0  0  0  0
  8  2  1  0  0  0  0
 10  3  1  0  0  0  0
 13  5  1  0  0  0  0
 14 15  1  0  0  0  0
 15 21  1  0  0  0  0
 15 16  2  0  0  0  0
 16  1  1  0  0  0  0
 17 16  1  0  0  0  0
 18 17  2  0  0  0  0
 19 14  2  0  0  0  0
 19 18  1  0  0  0  0
 20 14  1  0  0  0  0
 22 18  1  0  0  0  0
 23  4  1  0  0  0  0
 23 26  1  1  0  0  0
 24 27  1  0  0  0  0
 24 23  1  0  0  0  0
 25 29  1  6  0  0  0
 25 24  1  0  0  0  0
 25 23  1  0  0  0  0
 28 24  1  0  0  0  0
 30 25  1  0  0  0  0
 31 30  1  0  0  0  0
 32 30  2  0  0  0  0
M  END
>  <minimizedAffinity>
-4.56027794

$$$$

 OpenBabel03252507533D

 32 34  0  0  1  0  0  0  0  0999 V2000
   37.3980   30.3400   40.2230 C   0  0  2  0  0  0  0  0  0  0  0  0
   36.1600   30.2690   41.0820 C   0  0  0  0  0  0  0  0  0  0  0  0
   35.9110   28.7520   40.9830 C   0  0  0  0  0  0  0  0  0  0  0  0
   37.2840   28.1360   40.9510 C   0  0  1  0  0  0  0  0  0  0  0  0
   38.2480   29.2790   40.9160 C   0  0  0  0  0  0  0  0  0  0  0  0
   37.1290   30.0640   39.2060 H   0  0  0  0  0  0  0  0  0  0  0  0
   36.4260   30.5660   42.1230 H   0  0  0  0  0  0  0  0  0  0  0  0
   35.3090   30.8440   40.6760 H   0  0  0  0  0  0  0  0  0  0  0  0
   35.3370   28.6090   40.0530 H   0  0  0  0  0  0  0  0  0  0  0  0
   35.3020   28.4140   41.8470 H   0  0  0  0  0  0  0  0  0  0  0  0
   37.4050   27.5560   40.0310 H   0  0  0  0  0  0  0  0  0  0  0  0
   39.1800   29.0730   40.3680 H   0  0  0  0  0  0  0  0  0  0  0  0
   38.3900   29.8200   41.8730 H   0  0  0  0  0  0  0  0  0  0  0  0
   38.1030   34.0430   40.0030 C   0  0  0  0  0  0  0  0  0  0  0  0
   37.3800   32.8460   39.9410 C   0  0  0  0  0  0  0  0  0  0  0  0
   38.0620   31.6700   40.2710 C   0  0  0  0  0  0  0  0  0  0  0  0
   39.3900   31.7270   40.6360 N   0  0  0  0  0  0  0  0  0  0  0  0
   40.0410   32.9150   40.6790 C   0  0  0  0  0  0  0  0  0  0  0  0
   39.4060   34.0580   40.3660 N   0  0  0  0  0  0  0  0  0  0  0  0
   37.5690   34.9480   39.7460 H   0  0  0  0  0  0  0  0  0  0  0  0
   36.3500   32.7840   39.6600 H   0  0  0  0  0  0  0  0  0  0  0  0
   41.0840   32.8610   40.9770 H   0  0  0  0  0  0  0  0  0  0  0  0
   37.6270   27.3250   42.1630 C   0  0  2  0  0  0  0  0  0  0  0  0
   37.4400   27.9130   43.4670 C   0  0  0  0  0  0  0  0  0  0  0  0
   38.8160   27.5080   42.9630 C   0  0  1  0  0  0  0  0  0  0  0  0
   37.3200   26.2680   42.0290 H   0  0  0  0  0  0  0  0  0  0  0  0
   37.0020   27.2370   44.2710 H   0  0  0  0  0  0  0  0  0  0  0  0
   37.5420   28.8980   43.8850 H   0  0  0  0  0  0  0  0  0  0  0  0
   39.5520   28.2270   42.6130 H   0  0  0  0  0  0  0  0  0  0  0  0
   39.4470   26.3530   43.6790 C   0  0  0  0  0  0  0  0  0  0  0  0
   38.9200   25.7400   44.4290 H   0  0  0  0  0  0  0  0  0  0  0  0
   40.6090   25.9710   43.5080 O   0  0  0  0  0  0  0  0  0  0  0  0
  1  6  1  6  0  0  0
  1 16  1  0  0  0  0
  1  5  1  0  0  0  0
  1  2  1  0  0  0  0
  2  7  1  0  0  0  0
  3  2  1  0  0  0  0
  3 10  1  0  0  0  0
  4 11  1  6  0  0  0
  4  3  1  0  0  0  0
  4 23  1  0  0  0  0
  5  4  1  0  0  0  0
  5 13  1  0  0  0  0
  8  2  1  0  0  0  0
  9  3  1  0  0  0  0
 12  5  1  0  0  0  0
 14 19  1  0  0  0  0
 15 14  2  0  0  0  0
 15 16  1  0  0  0  0
 16 17  2  0  0  0  0
 17 18  1  0  0  0  0
 18 22  1  0  0  0  0
 19 18  2  0  0  0  0
 20 14  1  0  0  0  0
 21 15  1  0  0  0  0
 23 26  1  6  0  0  0
 23 25  1  0  0  0  0
 23 24  1  0  0  0  0
 24 28  1  0  0  0  0
 24 27  1  0  0  0  0
 25 29  1  6  0  0  0
 25 24  1  0  0  0  0
 25 30  1  0  0  0  0
 30 31  1  0  0  0  0
 32 30  2  0  0  0  0
M  END
>  <minimizedAffinity>
-4.52504969

$$$$

 OpenBabel03252507533D

 32 34  0  0  1  0  0  0  0  0999 V2000
   39.2350   26.3260   43.3920 C   0  0  2  0  0  0  0  0  0  0  0  0
   38.8400   25.6390   42.1080 C   0  0  0  0  0  0  0  0  0  0  0  0
   37.3110   25.7340   42.2690 C   0  0  0  0  0  0  0  0  0  0  0  0
   37.0750   27.0580   42.9450 C   0  0  1  0  0  0  0  0  0  0  0  0
   38.4290   27.6140   43.2480 C   0  0  0  0  0  0  0  0  0  0  0  0
   38.9020   25.7150   44.2270 H   0  0  0  0  0  0  0  0  0  0  0  0
   39.1930   26.2550   41.2480 H   0  0  0  0  0  0  0  0  0  0  0  0
   39.1750   24.5890   42.0500 H   0  0  0  0  0  0  0  0  0  0  0  0
   37.0270   24.8640   42.8830 H   0  0  0  0  0  0  0  0  0  0  0  0
   36.8230   25.6590   41.2750 H   0  0  0  0  0  0  0  0  0  0  0  0
   36.5490   26.8980   43.8920 H   0  0  0  0  0  0  0  0  0  0  0  0
   38.4760   28.2350   44.1560 H   0  0  0  0  0  0  0  0  0  0  0  0
   38.9850   28.0280   42.3830 H   0  0  0  0  0  0  0  0  0  0  0  0
   42.5780   28.0780   43.4730 C   0  0  0  0  0  0  0  0  0  0  0  0
   41.1900   27.9190   43.4050 C   0  0  0  0  0  0  0  0  0  0  0  0
   40.6910   26.6140   43.4720 C   0  0  0  0  0  0  0  0  0  0  0  0
   41.5630   25.5540   43.6010 N   0  0  0  0  0  0  0  0  0  0  0  0
   42.9000   25.7650   43.6630 C   0  0  0  0  0  0  0  0  0  0  0  0
   43.4020   27.0120   43.5990 N   0  0  0  0  0  0  0  0  0  0  0  0
   42.9570   29.0900   43.4190 H   0  0  0  0  0  0  0  0  0  0  0  0
   40.5000   28.7300   43.3040 H   0  0  0  0  0  0  0  0  0  0  0  0
   43.5070   24.8710   43.7640 H   0  0  0  0  0  0  0  0  0  0  0  0
   36.3770   28.0730   42.0930 C   0  0  2  0  0  0  0  0  0  0  0  0
   36.4780   27.9610   40.6580 C   0  0  0  0  0  0  0  0  0  0  0  0
   37.0350   29.1610   41.4060 C   0  0  1  0  0  0  0  0  0  0  0  0
   35.3850   28.3280   42.5170 H   0  0  0  0  0  0  0  0  0  0  0  0
   35.5280   28.1600   40.0640 H   0  0  0  0  0  0  0  0  0  0  0  0
   37.2390   27.6480   39.9650 H   0  0  0  0  0  0  0  0  0  0  0  0
   38.0960   29.3010   41.5900 H   0  0  0  0  0  0  0  0  0  0  0  0
   36.3260   30.4570   41.1600 C   0  0  0  0  0  0  0  0  0  0  0  0
   35.2340   30.5810   41.2570 H   0  0  0  0  0  0  0  0  0  0  0  0
   36.8800   31.5090   40.8260 O   0  0  0  0  0  0  0  0  0  0  0  0
  1 16  1  0  0  0  0
  1  6  1  1  0  0  0
  2  3  1  0  0  0  0
  2  1  1  0  0  0  0
  3  9  1  0  0  0  0
  3  4  1  0  0  0  0
  4  5  1  0  0  0  0
  4 11  1  1  0  0  0
  5  1  1  0  0  0  0
  5 12  1  0  0  0  0
  7  2  1  0  0  0  0
  8  2  1  0  0  0  0
 10  3  1  0  0  0  0
 13  5  1  0  0  0  0
 14 19  1  0  0  0  0
 15 16  1  0  0  0  0
 15 14  2  0  0  0  0
 16 17  2  0  0  0  0
 17 18  1  0  0  0  0
 18 22  1  0  0  0  0
 19 18  2  0  0  0  0
 20 14  1  0  0  0  0
 21 15  1  0  0  0  0
 23 26  1  1  0  0  0
 23  4  1  0  0  0  0
 24 25  1  0  0  0  0
 24 23  1  0  0  0  0
 25 29  1  1  0  0  0
 25 23  1  0  0  0  0
 27 24  1  0  0  0  0
 28 24  1  0  0  0  0
 30 31  1  0  0  0  0
 30 25  1  0  0  0  0
 32 30  2  0  0  0  0
M  END
>  <minimizedAffinity>
-4.52370405

$$$$

 OpenBabel03252507533D

 32 34  0  0  1  0  0  0  0  0999 V2000
   36.7010   29.5080   41.4240 C   0  0  2  0  0  0  0  0  0  0  0  0
   38.1690   29.8450   41.3320 C   0  0  0  0  0  0  0  0  0  0  0  0
   38.5380   29.6200   42.8110 C   0  0  0  0  0  0  0  0  0  0  0  0
   37.6840   28.4620   43.2510 C   0  0  1  0  0  0  0  0  0  0  0  0
   36.7970   28.1400   42.0910 C   0  0  0  0  0  0  0  0  0  0  0  0
   36.2150   30.2500   42.0540 H   0  0  0  0  0  0  0  0  0  0  0  0
   38.6690   29.0970   40.6750 H   0  0  0  0  0  0  0  0  0  0  0  0
   38.3630   30.8870   41.0220 H   0  0  0  0  0  0  0  0  0  0  0  0
   38.2990   30.5680   43.3200 H   0  0  0  0  0  0  0  0  0  0  0  0
   39.6260   29.4190   42.9000 H   0  0  0  0  0  0  0  0  0  0  0  0
   37.0530   28.7690   44.0920 H   0  0  0  0  0  0  0  0  0  0  0  0
   35.8070   27.7450   42.3690 H   0  0  0  0  0  0  0  0  0  0  0  0
   37.2800   27.6080   41.2480 H   0  0  0  0  0  0  0  0  0  0  0  0
   36.0180   29.5790   37.7110 C   0  0  0  0  0  0  0  0  0  0  0  0
   36.7340   29.6880   38.9090 C   0  0  0  0  0  0  0  0  0  0  0  0
   36.0440   29.4080   40.0930 C   0  0  0  0  0  0  0  0  0  0  0  0
   34.7160   29.0450   40.0430 N   0  0  0  0  0  0  0  0  0  0  0  0
   34.0700   28.9560   38.8550 C   0  0  0  0  0  0  0  0  0  0  0  0
   34.7140   29.2200   37.7030 N   0  0  0  0  0  0  0  0  0  0  0  0
   36.5570   29.7980   36.7990 H   0  0  0  0  0  0  0  0  0  0  0  0
   37.7640   29.9690   38.9650 H   0  0  0  0  0  0  0  0  0  0  0  0
   33.0270   28.6620   38.9150 H   0  0  0  0  0  0  0  0  0  0  0  0
   38.4490   27.2120   43.5640 C   0  0  2  0  0  0  0  0  0  0  0  0
   39.8900   27.2530   43.5250 C   0  0  0  0  0  0  0  0  0  0  0  0
   39.0900   26.3740   42.5780 C   0  0  1  0  0  0  0  0  0  0  0  0
   37.9750   26.6600   44.4010 H   0  0  0  0  0  0  0  0  0  0  0  0
   40.4380   26.6980   44.3530 H   0  0  0  0  0  0  0  0  0  0  0  0
   40.6260   27.7610   42.9270 H   0  0  0  0  0  0  0  0  0  0  0  0
   38.9350   26.6210   41.5310 H   0  0  0  0  0  0  0  0  0  0  0  0
   39.2330   24.8990   42.7970 C   0  0  0  0  0  0  0  0  0  0  0  0
   39.4850   24.4500   43.7720 H   0  0  0  0  0  0  0  0  0  0  0  0
   39.0850   24.0410   41.9210 O   0  0  0  0  0  0  0  0  0  0  0  0
  1  6  1  1  0  0  0
  1  5  1  0  0  0  0
  2  1  1  0  0  0  0
  2  3  1  0  0  0  0
  3 10  1  0  0  0  0
  3  4  1  0  0  0  0
  3  9  1  0  0  0  0
  4 23  1  0  0  0  0
  4 11  1  1  0  0  0
  5 12  1  0  0  0  0
  5  4  1  0  0  0  0
  7  2  1  0  0  0  0
  8  2  1  0  0  0  0
 13  5  1  0  0  0  0
 14 15  1  0  0  0  0
 15 21  1  0  0  0  0
 15 16  2  0  0  0  0
 16  1  1  0  0  0  0
 17 16  1  0  0  0  0
 18 22  1  0  0  0  0
 18 17  2  0  0  0  0
 19 14  2  0  0  0  0
 19 18  1  0  0  0  0
 20 14  1  0  0  0  0
 23 26  1  1  0  0  0
 24 23  1  0  0  0  0
 24 27  1  0  0  0  0
 25 29  1  6  0  0  0
 25 30  1  0  0  0  0
 25 24  1  0  0  0  0
 25 23  1  0  0  0  0
 28 24  1  0  0  0  0
 30 31  1  0  0  0  0
 32 30  2  0  0  0  0
M  END
>  <minimizedAffinity>
-4.42563581

$$$$

 OpenBabel03252507533D

 32 34  0  0  1  0  0  0  0  0999 V2000
   36.4040   29.0700   40.0090 C   0  0  2  0  0  0  0  0  0  0  0  0
   37.4730   29.2890   38.9670 C   0  0  0  0  0  0  0  0  0  0  0  0
   37.0560   30.7030   38.5200 C   0  0  0  0  0  0  0  0  0  0  0  0
   36.5630   31.3760   39.7730 C   0  0  1  0  0  0  0  0  0  0  0  0
   36.6000   30.3320   40.8420 C   0  0  0  0  0  0  0  0  0  0  0  0
   35.4380   29.0410   39.5110 H   0  0  0  0  0  0  0  0  0  0  0  0
   38.4670   29.3030   39.4700 H   0  0  0  0  0  0  0  0  0  0  0  0
   37.4250   28.5710   38.1300 H   0  0  0  0  0  0  0  0  0  0  0  0
   36.2740   30.5510   37.7590 H   0  0  0  0  0  0  0  0  0  0  0  0
   37.9220   31.2210   38.0580 H   0  0  0  0  0  0  0  0  0  0  0  0
   35.5250   31.6920   39.6360 H   0  0  0  0  0  0  0  0  0  0  0  0
   35.8230   30.4420   41.6150 H   0  0  0  0  0  0  0  0  0  0  0  0
   37.6040   30.0810   41.2380 H   0  0  0  0  0  0  0  0  0  0  0  0
   36.9190   26.6920   42.8960 C   0  0  0  0  0  0  0  0  0  0  0  0
   36.6820   27.8960   42.2240 C   0  0  0  0  0  0  0  0  0  0  0  0
   36.6320   27.8490   40.8270 C   0  0  0  0  0  0  0  0  0  0  0  0
   36.8140   26.6480   40.1750 N   0  0  0  0  0  0  0  0  0  0  0  0
   37.0410   25.5110   40.8770 C   0  0  0  0  0  0  0  0  0  0  0  0
   37.0930   25.5330   42.2210 N   0  0  0  0  0  0  0  0  0  0  0  0
   36.9560   26.7360   43.9770 H   0  0  0  0  0  0  0  0  0  0  0  0
   36.5390   28.8360   42.7130 H   0  0  0  0  0  0  0  0  0  0  0  0
   37.1720   24.6150   40.2790 H   0  0  0  0  0  0  0  0  0  0  0  0
   37.4250   32.5060   40.2480 C   0  0  2  0  0  0  0  0  0  0  0  0
   37.3710   33.7630   39.5430 C   0  0  0  0  0  0  0  0  0  0  0  0
   38.6440   32.9360   39.6040 C   0  0  1  0  0  0  0  0  0  0  0  0
   37.4510   32.5410   41.3560 H   0  0  0  0  0  0  0  0  0  0  0  0
   37.3760   34.7050   40.1810 H   0  0  0  0  0  0  0  0  0  0  0  0
   37.2450   34.0620   38.5180 H   0  0  0  0  0  0  0  0  0  0  0  0
   39.0050   32.3450   38.7660 H   0  0  0  0  0  0  0  0  0  0  0  0
   39.7630   33.5370   40.3970 C   0  0  0  0  0  0  0  0  0  0  0  0
   39.6860   34.5030   40.9240 H   0  0  0  0  0  0  0  0  0  0  0  0
   40.8760   33.0220   40.5450 O   0  0  0  0  0  0  0  0  0  0  0  0
  1  6  1  6  0  0  0
  1 16  1  0  0  0  0
  1  5  1  0  0  0  0
  2  7  1  0  0  0  0
  2  1  1  0  0  0  0
  3  2  1  0  0  0  0
  3  4  1  0  0  0  0
  4 11  1  6  0  0  0
  4 23  1  0  0  0  0
  4  5  1  0  0  0  0
  5 13  1  0  0  0  0
  5 12  1  0  0  0  0
  8  2  1  0  0  0  0
  9  3  1  0  0  0  0
 10  3  1  0  0  0  0
 14 20  1  0  0  0  0
 15 21  1  0  0  0  0
 15 14  1  0  0  0  0
 16 15  2  0  0  0  0
 17 16  1  0  0  0  0
 17 18  2  0  0  0  0
 18 19  1  0  0  0  0
 19 14  2  0  0  0  0
 22 18  1  0  0  0  0
 23 26  1  1  0  0  0
 24 25  1  0  0  0  0
 24 27  1  0  0  0  0
 24 23  1  0  0  0  0
 25 29  1  6  0  0  0
 25 23  1  0  0  0  0
 25 30  1  0  0  0  0
 28 24  1  0  0  0  0
 30 32  2  0  0  0  0
 30 31  1  0  0  0  0
M  END
>  <minimizedAffinity>
-4.42495251

$$$$
