
 OpenBabel03242519183D

 36 38  0  0  1  0  0  0  0  0999 V2000
   35.7080   29.5420   40.9410 C   0  0  0  0  0  0  0  0  0  0  0  0
   34.8820   29.8560   41.6280 H   0  0  0  0  0  0  0  0  0  0  0  0
   35.2050   28.9520   40.1430 H   0  0  0  0  0  0  0  0  0  0  0  0
   36.6290   28.7270   41.7020 C   0  0  0  0  0  0  0  0  0  0  0  0
   37.6200   29.2800   42.4840 C   0  0  0  0  0  0  0  0  0  0  0  0
   38.5290   28.5070   43.2200 C   0  0  0  0  0  0  0  0  0  0  0  0
   38.3650   27.1630   43.1080 N   0  0  0  0  0  0  0  0  0  0  0  0
   37.3970   26.6350   42.3440 C   0  0  0  0  0  0  0  0  0  0  0  0
   36.5430   27.4010   41.6530 N   0  0  0  0  0  0  0  0  0  0  0  0
   37.7270   30.3610   42.5550 H   0  0  0  0  0  0  0  0  0  0  0  0
   39.2830   28.9740   43.8150 H   0  0  0  0  0  0  0  0  0  0  0  0
   37.2390   25.1520   42.2020 C   0  0  2  0  0  0  0  0  0  0  0  0
   38.4650   24.3110   42.0570 C   0  0  0  0  0  0  0  0  0  0  0  0
   37.5380   24.5810   40.8570 C   0  0  1  0  0  0  0  0  0  0  0  0
   36.3970   24.7240   42.7740 H   0  0  0  0  0  0  0  0  0  0  0  0
   39.4170   24.8760   42.0240 H   0  0  0  0  0  0  0  0  0  0  0  0
   38.4760   23.2660   42.3580 H   0  0  0  0  0  0  0  0  0  0  0  0
   37.8840   25.2760   40.0950 H   0  0  0  0  0  0  0  0  0  0  0  0
   36.6740   23.4780   40.3740 C   0  0  0  0  0  0  0  0  0  0  0  0
   36.9000   22.4360   40.3920 H   0  0  0  0  0  0  0  0  0  0  0  0
   35.5750   23.7910   39.8990 O   0  0  0  0  0  0  0  0  0  0  0  0
   36.3820   30.7230   40.3730 C   0  0  0  0  0  0  0  0  0  0  0  0
   37.3960   30.8580   40.8240 H   0  0  0  0  0  0  0  0  0  0  0  0
   35.8140   31.6410   40.5800 H   0  0  0  0  0  0  0  0  0  0  0  0
   38.2470   32.7090   39.1980 Cl  0  0  0  0  0  0  0  0  0  0  0  0
   37.4660   31.4910   38.2340 C   0  0  0  0  0  0  0  0  0  0  0  0
   36.6190   30.6270   38.8980 C   0  0  0  0  0  0  0  0  0  0  0  0
   35.9850   29.6540   38.1450 C   0  0  0  0  0  0  0  0  0  0  0  0
   36.1960   29.5550   36.7870 C   0  0  0  0  0  0  0  0  0  0  0  0
   37.0600   30.4420   36.1370 C   0  0  0  0  0  0  0  0  0  0  0  0
   37.6830   31.4040   36.8920 C   0  0  0  0  0  0  0  0  0  0  0  0
   35.3170   28.9530   38.5950 H   0  0  0  0  0  0  0  0  0  0  0  0
   35.7080   28.7960   36.1800 H   0  0  0  0  0  0  0  0  0  0  0  0
   37.2420   30.3860   35.0750 H   0  0  0  0  0  0  0  0  0  0  0  0
   38.5720   32.3480   36.3430 O   0  0  0  0  0  0  0  0  0  0  0  0
   39.5130   31.9880   36.2040 H   0  0  0  0  0  0  0  0  0  0  0  0
  1  2  1  0  0  0  0
  1  4  1  0  0  0  0
  3  1  1  0  0  0  0
  4  5  1  0  0  0  0
  5 10  1  0  0  0  0
  5  6  2  0  0  0  0
  6 11  1  0  0  0  0
  7  6  1  0  0  0  0
  8  7  2  0  0  0  0
  9  4  2  0  0  0  0
  9  8  1  0  0  0  0
 12  8  1  0  0  0  0
 12 15  1  1  0  0  0
 13 12  1  0  0  0  0
 13 17  1  0  0  0  0
 14 18  1  6  0  0  0
 14 13  1  0  0  0  0
 14 12  1  0  0  0  0
 16 13  1  0  0  0  0
 19 20  1  0  0  0  0
 19 14  1  0  0  0  0
 21 19  2  0  0  0  0
 22 24  1  0  0  0  0
 22 23  1  0  0  0  0
 22  1  1  0  0  0  0
 26 27  1  0  0  0  0
 26 25  1  0  0  0  0
 27 22  1  0  0  0  0
 28 32  1  0  0  0  0
 28 27  2  0  0  0  0
 29 28  1  0  0  0  0
 30 29  2  0  0  0  0
 30 31  1  0  0  0  0
 31 26  2  0  0  0  0
 33 29  1  0  0  0  0
 34 30  1  0  0  0  0
 35 31  1  0  0  0  0
 36 35  1  0  0  0  0
M  END
>  <minimizedAffinity>
-5.59808254

$$$$

 OpenBabel03242519183D

 36 38  0  0  1  0  0  0  0  0999 V2000
   37.3160   28.6920   43.3890 C   0  0  0  0  0  0  0  0  0  0  0  0
   36.8000   29.2180   44.2320 H   0  0  0  0  0  0  0  0  0  0  0  0
   38.3980   28.8970   43.5470 H   0  0  0  0  0  0  0  0  0  0  0  0
   36.8420   29.2690   42.1510 C   0  0  0  0  0  0  0  0  0  0  0  0
   35.9390   28.6170   41.3400 C   0  0  0  0  0  0  0  0  0  0  0  0
   35.4760   29.1550   40.1310 C   0  0  0  0  0  0  0  0  0  0  0  0
   35.9830   30.3740   39.8100 N   0  0  0  0  0  0  0  0  0  0  0  0
   36.8630   31.0000   40.6080 C   0  0  0  0  0  0  0  0  0  0  0  0
   37.2850   30.4600   41.7580 N   0  0  0  0  0  0  0  0  0  0  0  0
   35.5480   27.6410   41.6220 H   0  0  0  0  0  0  0  0  0  0  0  0
   34.7740   28.6190   39.5300 H   0  0  0  0  0  0  0  0  0  0  0  0
   37.4410   32.3310   40.2350 C   0  0  2  0  0  0  0  0  0  0  0  0
   37.2790   32.8160   38.8320 C   0  0  0  0  0  0  0  0  0  0  0  0
   38.6390   32.3060   39.3470 C   0  0  1  0  0  0  0  0  0  0  0  0
   37.4040   33.0880   41.0390 H   0  0  0  0  0  0  0  0  0  0  0  0
   36.7660   32.1090   38.1510 H   0  0  0  0  0  0  0  0  0  0  0  0
   37.2870   33.8760   38.5920 H   0  0  0  0  0  0  0  0  0  0  0  0
   38.9770   31.3290   39.0070 H   0  0  0  0  0  0  0  0  0  0  0  0
   39.7070   33.2980   39.6100 C   0  0  0  0  0  0  0  0  0  0  0  0
   40.0100   34.0960   38.9700 H   0  0  0  0  0  0  0  0  0  0  0  0
   40.3160   33.1990   40.6840 O   0  0  0  0  0  0  0  0  0  0  0  0
   37.0440   27.2440   43.4440 C   0  0  0  0  0  0  0  0  0  0  0  0
   36.3200   26.9450   42.6470 H   0  0  0  0  0  0  0  0  0  0  0  0
   36.5960   26.9620   44.4070 H   0  0  0  0  0  0  0  0  0  0  0  0
   36.6240   24.7130   41.9550 Cl  0  0  0  0  0  0  0  0  0  0  0  0
   38.1910   25.1990   42.5290 C   0  0  0  0  0  0  0  0  0  0  0  0
   38.2560   26.3970   43.2110 C   0  0  0  0  0  0  0  0  0  0  0  0
   39.4960   26.7970   43.6790 C   0  0  0  0  0  0  0  0  0  0  0  0
   40.6190   26.0260   43.4680 C   0  0  0  0  0  0  0  0  0  0  0  0
   40.5270   24.8150   42.7740 C   0  0  0  0  0  0  0  0  0  0  0  0
   39.2930   24.4280   42.3140 C   0  0  0  0  0  0  0  0  0  0  0  0
   39.6170   27.7130   44.2130 H   0  0  0  0  0  0  0  0  0  0  0  0
   41.6000   26.3250   43.8280 H   0  0  0  0  0  0  0  0  0  0  0  0
   41.3910   24.1930   42.5970 H   0  0  0  0  0  0  0  0  0  0  0  0
   39.0860   23.2300   41.6040 O   0  0  0  0  0  0  0  0  0  0  0  0
   39.3230   23.2950   40.6180 H   0  0  0  0  0  0  0  0  0  0  0  0
  1 22  1  0  0  0  0
  1  3  1  0  0  0  0
  1  2  1  0  0  0  0
  4  1  1  0  0  0  0
  5 10  1  0  0  0  0
  5  4  2  0  0  0  0
  6  5  1  0  0  0  0
  7  6  2  0  0  0  0
  7  8  1  0  0  0  0
  8  9  2  0  0  0  0
  9  4  1  0  0  0  0
 11  6  1  0  0  0  0
 12  8  1  0  0  0  0
 12 15  1  1  0  0  0
 13 14  1  0  0  0  0
 13 12  1  0  0  0  0
 14 18  1  6  0  0  0
 14 19  1  0  0  0  0
 14 12  1  0  0  0  0
 16 13  1  0  0  0  0
 17 13  1  0  0  0  0
 19 21  2  0  0  0  0
 20 19  1  0  0  0  0
 22 24  1  0  0  0  0
 23 22  1  0  0  0  0
 25 26  1  0  0  0  0
 26 27  1  0  0  0  0
 27 22  1  0  0  0  0
 27 28  2  0  0  0  0
 28 32  1  0  0  0  0
 29 28  1  0  0  0  0
 29 33  1  0  0  0  0
 30 29  2  0  0  0  0
 31 26  2  0  0  0  0
 31 30  1  0  0  0  0
 34 30  1  0  0  0  0
 35 31  1  0  0  0  0
 36 35  1  0  0  0  0
M  END
>  <minimizedAffinity>
-5.5322094

$$$$

 OpenBabel03242519183D

 36 38  0  0  1  0  0  0  0  0999 V2000
   36.4930   26.8130   38.0200 C   0  0  0  0  0  0  0  0  0  0  0  0
   36.1260   26.0610   37.2780 H   0  0  0  0  0  0  0  0  0  0  0  0
   37.4730   27.1540   37.6170 H   0  0  0  0  0  0  0  0  0  0  0  0
   36.6490   26.1400   39.2910 C   0  0  0  0  0  0  0  0  0  0  0  0
   36.3020   24.8180   39.4640 C   0  0  0  0  0  0  0  0  0  0  0  0
   36.4350   24.1510   40.6900 C   0  0  0  0  0  0  0  0  0  0  0  0
   36.9320   24.9050   41.7050 N   0  0  0  0  0  0  0  0  0  0  0  0
   37.2660   26.1920   41.5260 C   0  0  0  0  0  0  0  0  0  0  0  0
   37.1290   26.8000   40.3410 N   0  0  0  0  0  0  0  0  0  0  0  0
   35.9060   24.2380   38.6320 H   0  0  0  0  0  0  0  0  0  0  0  0
   36.1560   23.1240   40.7840 H   0  0  0  0  0  0  0  0  0  0  0  0
   37.7880   27.0260   42.6560 C   0  0  2  0  0  0  0  0  0  0  0  0
   36.8200   27.5560   43.6620 C   0  0  0  0  0  0  0  0  0  0  0  0
   37.4600   28.4800   42.6100 C   0  0  1  0  0  0  0  0  0  0  0  0
   38.7860   26.7280   43.0220 H   0  0  0  0  0  0  0  0  0  0  0  0
   35.7580   27.3150   43.4600 H   0  0  0  0  0  0  0  0  0  0  0  0
   37.1280   27.7910   44.6780 H   0  0  0  0  0  0  0  0  0  0  0  0
   36.8370   28.8170   41.7840 H   0  0  0  0  0  0  0  0  0  0  0  0
   38.5060   29.4310   43.0530 C   0  0  0  0  0  0  0  0  0  0  0  0
   39.1080   29.3550   43.9310 H   0  0  0  0  0  0  0  0  0  0  0  0
   38.7090   30.4200   42.3370 O   0  0  0  0  0  0  0  0  0  0  0  0
   35.5490   27.9390   38.1220 C   0  0  0  0  0  0  0  0  0  0  0  0
   34.9070   27.8390   39.0320 H   0  0  0  0  0  0  0  0  0  0  0  0
   34.8740   27.9700   37.2550 H   0  0  0  0  0  0  0  0  0  0  0  0
   35.0540   29.4160   40.6470 Cl  0  0  0  0  0  0  0  0  0  0  0  0
   36.0670   30.0540   39.3870 C   0  0  0  0  0  0  0  0  0  0  0  0
   36.2170   29.2720   38.2590 C   0  0  0  0  0  0  0  0  0  0  0  0
   37.0170   29.7670   37.2440 C   0  0  0  0  0  0  0  0  0  0  0  0
   37.6380   30.9920   37.3600 C   0  0  0  0  0  0  0  0  0  0  0  0
   37.4710   31.7650   38.5130 C   0  0  0  0  0  0  0  0  0  0  0  0
   36.6760   31.2660   39.5140 C   0  0  0  0  0  0  0  0  0  0  0  0
   37.1760   29.2140   36.3450 H   0  0  0  0  0  0  0  0  0  0  0  0
   38.2710   31.3950   36.5730 H   0  0  0  0  0  0  0  0  0  0  0  0
   37.9460   32.7270   38.6280 H   0  0  0  0  0  0  0  0  0  0  0  0
   36.4380   31.9580   40.7160 O   0  0  0  0  0  0  0  0  0  0  0  0
   37.1870   31.8600   41.3980 H   0  0  0  0  0  0  0  0  0  0  0  0
  1 22  1  0  0  0  0
  1  4  1  0  0  0  0
  2  1  1  0  0  0  0
  3  1  1  0  0  0  0
  4  5  2  0  0  0  0
  4  9  1  0  0  0  0
  5  6  1  0  0  0  0
  6 11  1  0  0  0  0
  6  7  2  0  0  0  0
  8  7  1  0  0  0  0
  8 12  1  0  0  0  0
  9  8  2  0  0  0  0
 10  5  1  0  0  0  0
 12 15  1  1  0  0  0
 12 13  1  0  0  0  0
 13 17  1  0  0  0  0
 14 18  1  6  0  0  0
 14 12  1  0  0  0  0
 14 19  1  0  0  0  0
 14 13  1  0  0  0  0
 16 13  1  0  0  0  0
 19 20  1  0  0  0  0
 21 19  2  0  0  0  0
 22 27  1  0  0  0  0
 22 23  1  0  0  0  0
 24 22  1  0  0  0  0
 26 31  1  0  0  0  0
 26 25  1  0  0  0  0
 27 26  2  0  0  0  0
 28 29  2  0  0  0  0
 28 27  1  0  0  0  0
 29 30  1  0  0  0  0
 30 34  1  0  0  0  0
 30 31  2  0  0  0  0
 31 35  1  0  0  0  0
 32 28  1  0  0  0  0
 33 29  1  0  0  0  0
 35 36  1  0  0  0  0
M  END
>  <minimizedAffinity>
-5.4695034

$$$$

 OpenBabel03242519183D

 36 38  0  0  1  0  0  0  0  0999 V2000
   36.2280   28.4550   41.5730 C   0  0  0  0  0  0  0  0  0  0  0  0
   35.6330   27.6560   41.0630 H   0  0  0  0  0  0  0  0  0  0  0  0
   35.5720   28.8110   42.3990 H   0  0  0  0  0  0  0  0  0  0  0  0
   36.4800   29.5020   40.6080 C   0  0  0  0  0  0  0  0  0  0  0  0
   36.0510   29.4110   39.3020 C   0  0  0  0  0  0  0  0  0  0  0  0
   36.2950   30.4100   38.3500 C   0  0  0  0  0  0  0  0  0  0  0  0
   36.9900   31.4850   38.8060 N   0  0  0  0  0  0  0  0  0  0  0  0
   37.4030   31.5640   40.0810 C   0  0  0  0  0  0  0  0  0  0  0  0
   37.1530   30.5920   40.9670 N   0  0  0  0  0  0  0  0  0  0  0  0
   35.4960   28.5380   38.9640 H   0  0  0  0  0  0  0  0  0  0  0  0
   35.9450   30.3030   37.3460 H   0  0  0  0  0  0  0  0  0  0  0  0
   38.1940   32.7380   40.5710 C   0  0  2  0  0  0  0  0  0  0  0  0
   37.9720   34.0690   39.9310 C   0  0  0  0  0  0  0  0  0  0  0  0
   39.2490   33.2540   39.6520 C   0  0  1  0  0  0  0  0  0  0  0  0
   38.4060   32.7260   41.6550 H   0  0  0  0  0  0  0  0  0  0  0  0
   37.2490   34.0690   39.0930 H   0  0  0  0  0  0  0  0  0  0  0  0
   38.1680   34.9960   40.4650 H   0  0  0  0  0  0  0  0  0  0  0  0
   39.3380   32.7660   38.6840 H   0  0  0  0  0  0  0  0  0  0  0  0
   40.5210   33.7110   40.2600 C   0  0  0  0  0  0  0  0  0  0  0  0
   41.0300   34.6280   40.0620 H   0  0  0  0  0  0  0  0  0  0  0  0
   41.0550   32.9570   41.0830 O   0  0  0  0  0  0  0  0  0  0  0  0
   37.4860   27.9010   42.1030 C   0  0  0  0  0  0  0  0  0  0  0  0
   37.5580   28.0630   43.2070 H   0  0  0  0  0  0  0  0  0  0  0  0
   38.3570   28.3920   41.6480 H   0  0  0  0  0  0  0  0  0  0  0  0
   39.6210   26.5500   43.6580 Cl  0  0  0  0  0  0  0  0  0  0  0  0
   38.5680   25.6790   42.5850 C   0  0  0  0  0  0  0  0  0  0  0  0
   37.6150   26.4210   41.9160 C   0  0  0  0  0  0  0  0  0  0  0  0
   36.7700   25.7430   41.0530 C   0  0  0  0  0  0  0  0  0  0  0  0
   36.8790   24.3810   40.8740 C   0  0  0  0  0  0  0  0  0  0  0  0
   37.8530   23.6510   41.5640 C   0  0  0  0  0  0  0  0  0  0  0  0
   38.6850   24.3320   42.4160 C   0  0  0  0  0  0  0  0  0  0  0  0
   36.0110   26.2560   40.5050 H   0  0  0  0  0  0  0  0  0  0  0  0
   36.2240   23.8330   40.2020 H   0  0  0  0  0  0  0  0  0  0  0  0
   37.9590   22.5850   41.4410 H   0  0  0  0  0  0  0  0  0  0  0  0
   39.6990   23.6990   43.1600 O   0  0  0  0  0  0  0  0  0  0  0  0
   39.3620   23.2490   44.0070 H   0  0  0  0  0  0  0  0  0  0  0  0
  1 22  1  0  0  0  0
  1  3  1  0  0  0  0
  2  1  1  0  0  0  0
  4  9  1  0  0  0  0
  4  1  1  0  0  0  0
  5  4  2  0  0  0  0
  6  7  2  0  0  0  0
  6  5  1  0  0  0  0
  7  8  1  0  0  0  0
  8 12  1  0  0  0  0
  8  9  2  0  0  0  0
 10  5  1  0  0  0  0
 11  6  1  0  0  0  0
 12 15  1  1  0  0  0
 13 17  1  0  0  0  0
 13 12  1  0  0  0  0
 14 18  1  6  0  0  0
 14 13  1  0  0  0  0
 14 19  1  0  0  0  0
 14 12  1  0  0  0  0
 16 13  1  0  0  0  0
 19 21  2  0  0  0  0
 20 19  1  0  0  0  0
 22 23  1  0  0  0  0
 24 22  1  0  0  0  0
 26 25  1  0  0  0  0
 27 22  1  0  0  0  0
 27 26  2  0  0  0  0
 28 27  1  0  0  0  0
 29 28  2  0  0  0  0
 29 30  1  0  0  0  0
 30 31  2  0  0  0  0
 31 26  1  0  0  0  0
 31 35  1  0  0  0  0
 32 28  1  0  0  0  0
 33 29  1  0  0  0  0
 34 30  1  0  0  0  0
 35 36  1  0  0  0  0
M  END
>  <minimizedAffinity>
-5.4247508

$$$$

 OpenBabel03242519183D

 36 38  0  0  1  0  0  0  0  0999 V2000
   35.9010   29.8820   39.7510 C   0  0  0  0  0  0  0  0  0  0  0  0
   34.7950   29.9560   39.6010 H   0  0  0  0  0  0  0  0  0  0  0  0
   36.3420   30.3090   38.8220 H   0  0  0  0  0  0  0  0  0  0  0  0
   36.2340   28.4830   39.9010 C   0  0  0  0  0  0  0  0  0  0  0  0
   36.0440   27.5740   38.8840 C   0  0  0  0  0  0  0  0  0  0  0  0
   36.3500   26.2120   39.0140 C   0  0  0  0  0  0  0  0  0  0  0  0
   36.8510   25.8460   40.2220 N   0  0  0  0  0  0  0  0  0  0  0  0
   37.0330   26.7400   41.2060 C   0  0  0  0  0  0  0  0  0  0  0  0
   36.7320   28.0350   41.0510 N   0  0  0  0  0  0  0  0  0  0  0  0
   35.6400   27.8950   37.9250 H   0  0  0  0  0  0  0  0  0  0  0  0
   36.1890   25.5380   38.2000 H   0  0  0  0  0  0  0  0  0  0  0  0
   37.5600   26.3260   42.5460 C   0  0  2  0  0  0  0  0  0  0  0  0
   37.5690   27.3270   43.6540 C   0  0  0  0  0  0  0  0  0  0  0  0
   38.8730   26.9080   42.9480 C   0  0  1  0  0  0  0  0  0  0  0  0
   37.3510   25.2750   42.8150 H   0  0  0  0  0  0  0  0  0  0  0  0
   37.2130   28.3370   43.3720 H   0  0  0  0  0  0  0  0  0  0  0  0
   37.5340   27.0210   44.6970 H   0  0  0  0  0  0  0  0  0  0  0  0
   39.3270   27.6170   42.2590 H   0  0  0  0  0  0  0  0  0  0  0  0
   39.8160   26.0300   43.6790 C   0  0  0  0  0  0  0  0  0  0  0  0
   40.4690   26.3140   44.4730 H   0  0  0  0  0  0  0  0  0  0  0  0
   39.8560   24.8400   43.3390 O   0  0  0  0  0  0  0  0  0  0  0  0
   36.3140   30.6610   40.9320 C   0  0  0  0  0  0  0  0  0  0  0  0
   36.8150   30.0050   41.6860 H   0  0  0  0  0  0  0  0  0  0  0  0
   35.4460   31.1160   41.4290 H   0  0  0  0  0  0  0  0  0  0  0  0
   38.9670   30.4230   42.2390 Cl  0  0  0  0  0  0  0  0  0  0  0  0
   38.5790   31.7350   41.1680 C   0  0  0  0  0  0  0  0  0  0  0  0
   37.3100   31.7350   40.6230 C   0  0  0  0  0  0  0  0  0  0  0  0
   36.9830   32.7760   39.7710 C   0  0  0  0  0  0  0  0  0  0  0  0
   37.8930   33.7690   39.4790 C   0  0  0  0  0  0  0  0  0  0  0  0
   39.1730   33.7470   40.0430 C   0  0  0  0  0  0  0  0  0  0  0  0
   39.4870   32.7110   40.8870 C   0  0  0  0  0  0  0  0  0  0  0  0
   36.0200   32.8370   39.3160 H   0  0  0  0  0  0  0  0  0  0  0  0
   37.6540   34.5930   38.8120 H   0  0  0  0  0  0  0  0  0  0  0  0
   39.9020   34.5120   39.8310 H   0  0  0  0  0  0  0  0  0  0  0  0
   40.7440   32.5880   41.5100 O   0  0  0  0  0  0  0  0  0  0  0  0
   41.4580   32.1850   40.9080 H   0  0  0  0  0  0  0  0  0  0  0  0
  1  4  1  0  0  0  0
  1 22  1  0  0  0  0
  2  1  1  0  0  0  0
  3  1  1  0  0  0  0
  4  9  1  0  0  0  0
  5  6  1  0  0  0  0
  5  4  2  0  0  0  0
  6  7  2  0  0  0  0
  7  8  1  0  0  0  0
  8 12  1  0  0  0  0
  9  8  2  0  0  0  0
 10  5  1  0  0  0  0
 11  6  1  0  0  0  0
 12 15  1  1  0  0  0
 12 14  1  0  0  0  0
 12 13  1  0  0  0  0
 13 17  1  0  0  0  0
 14 18  1  6  0  0  0
 14 13  1  0  0  0  0
 14 19  1  0  0  0  0
 16 13  1  0  0  0  0
 19 20  1  0  0  0  0
 21 19  2  0  0  0  0
 22 24  1  0  0  0  0
 22 23  1  0  0  0  0
 26 25  1  0  0  0  0
 27 22  1  0  0  0  0
 27 26  2  0  0  0  0
 28 27  1  0  0  0  0
 29 28  2  0  0  0  0
 29 30  1  0  0  0  0
 30 31  2  0  0  0  0
 31 26  1  0  0  0  0
 31 35  1  0  0  0  0
 32 28  1  0  0  0  0
 33 29  1  0  0  0  0
 34 30  1  0  0  0  0
 36 35  1  0  0  0  0
M  END
>  <minimizedAffinity>
-5.37807178

$$$$

 OpenBabel03242519183D

 36 38  0  0  1  0  0  0  0  0999 V2000
   36.4330   29.5530   40.2830 C   0  0  0  0  0  0  0  0  0  0  0  0
   35.8710   30.4280   40.6950 H   0  0  0  0  0  0  0  0  0  0  0  0
   35.7010   29.0280   39.6290 H   0  0  0  0  0  0  0  0  0  0  0  0
   36.8380   28.7240   41.3960 C   0  0  0  0  0  0  0  0  0  0  0  0
   37.3310   29.2610   42.5660 C   0  0  0  0  0  0  0  0  0  0  0  0
   37.7390   28.4740   43.6510 C   0  0  0  0  0  0  0  0  0  0  0  0
   37.6150   27.1330   43.4710 N   0  0  0  0  0  0  0  0  0  0  0  0
   37.1340   26.6200   42.3280 C   0  0  0  0  0  0  0  0  0  0  0  0
   36.7510   27.4000   41.3080 N   0  0  0  0  0  0  0  0  0  0  0  0
   37.4190   30.3400   42.6830 H   0  0  0  0  0  0  0  0  0  0  0  0
   38.1150   28.9290   44.5420 H   0  0  0  0  0  0  0  0  0  0  0  0
   37.0270   25.1400   42.1230 C   0  0  2  0  0  0  0  0  0  0  0  0
   38.2760   24.3220   42.1310 C   0  0  0  0  0  0  0  0  0  0  0  0
   37.5240   24.6160   40.8190 C   0  0  1  0  0  0  0  0  0  0  0  0
   36.1200   24.6830   42.5570 H   0  0  0  0  0  0  0  0  0  0  0  0
   39.2120   24.9020   42.2490 H   0  0  0  0  0  0  0  0  0  0  0  0
   38.2640   23.2690   42.4010 H   0  0  0  0  0  0  0  0  0  0  0  0
   37.9620   25.3390   40.1340 H   0  0  0  0  0  0  0  0  0  0  0  0
   36.7590   23.5160   40.1870 C   0  0  0  0  0  0  0  0  0  0  0  0
   37.1590   22.6300   39.7460 H   0  0  0  0  0  0  0  0  0  0  0  0
   35.5260   23.6280   40.1640 O   0  0  0  0  0  0  0  0  0  0  0  0
   37.5980   30.0110   39.5040 C   0  0  0  0  0  0  0  0  0  0  0  0
   37.3960   29.9380   38.4070 H   0  0  0  0  0  0  0  0  0  0  0  0
   38.4800   29.3890   39.7100 H   0  0  0  0  0  0  0  0  0  0  0  0
   40.2050   30.5290   40.8210 Cl  0  0  0  0  0  0  0  0  0  0  0  0
   39.1380   31.8160   40.3450 C   0  0  0  0  0  0  0  0  0  0  0  0
   37.9520   31.4450   39.7430 C   0  0  0  0  0  0  0  0  0  0  0  0
   37.0890   32.4580   39.3620 C   0  0  0  0  0  0  0  0  0  0  0  0
   37.4060   33.7820   39.5760 C   0  0  0  0  0  0  0  0  0  0  0  0
   38.6140   34.1320   40.1890 C   0  0  0  0  0  0  0  0  0  0  0  0
   39.4630   33.1210   40.5630 C   0  0  0  0  0  0  0  0  0  0  0  0
   36.1560   32.2420   38.8910 H   0  0  0  0  0  0  0  0  0  0  0  0
   36.7400   34.5890   39.2830 H   0  0  0  0  0  0  0  0  0  0  0  0
   38.8850   35.1600   40.3680 H   0  0  0  0  0  0  0  0  0  0  0  0
   40.7030   33.3570   41.1860 O   0  0  0  0  0  0  0  0  0  0  0  0
   41.4450   33.6050   40.5350 H   0  0  0  0  0  0  0  0  0  0  0  0
  1  2  1  0  0  0  0
  1  4  1  0  0  0  0
  3  1  1  0  0  0  0
  4  5  1  0  0  0  0
  5 10  1  0  0  0  0
  5  6  2  0  0  0  0
  6 11  1  0  0  0  0
  7  6  1  0  0  0  0
  8  7  2  0  0  0  0
  9  4  2  0  0  0  0
  9  8  1  0  0  0  0
 12 13  1  0  0  0  0
 12  8  1  0  0  0  0
 12 15  1  1  0  0  0
 13 16  1  0  0  0  0
 13 17  1  0  0  0  0
 14 18  1  6  0  0  0
 14 12  1  0  0  0  0
 14 13  1  0  0  0  0
 19 14  1  0  0  0  0
 20 19  1  0  0  0  0
 21 19  2  0  0  0  0
 22 24  1  0  0  0  0
 22 27  1  0  0  0  0
 22  1  1  0  0  0  0
 23 22  1  0  0  0  0
 26 31  1  0  0  0  0
 26 25  1  0  0  0  0
 27 26  2  0  0  0  0
 28 29  2  0  0  0  0
 28 27  1  0  0  0  0
 29 30  1  0  0  0  0
 30 34  1  0  0  0  0
 30 31  2  0  0  0  0
 31 35  1  0  0  0  0
 32 28  1  0  0  0  0
 33 29  1  0  0  0  0
 36 35  1  0  0  0  0
M  END
>  <minimizedAffinity>
-5.37259722

$$$$

 OpenBabel03242519183D

 36 38  0  0  1  0  0  0  0  0999 V2000
   36.3550   27.2120   37.9740 C   0  0  0  0  0  0  0  0  0  0  0  0
   36.1170   26.7020   37.0070 H   0  0  0  0  0  0  0  0  0  0  0  0
   37.3460   27.6910   37.8060 H   0  0  0  0  0  0  0  0  0  0  0  0
   36.4250   26.1990   39.0030 C   0  0  0  0  0  0  0  0  0  0  0  0
   36.0380   24.8970   38.7730 C   0  0  0  0  0  0  0  0  0  0  0  0
   36.0880   23.9030   39.7610 C   0  0  0  0  0  0  0  0  0  0  0  0
   36.5470   24.3150   40.9710 N   0  0  0  0  0  0  0  0  0  0  0  0
   36.9210   25.5860   41.1850 C   0  0  0  0  0  0  0  0  0  0  0  0
   36.8630   26.5130   40.2200 N   0  0  0  0  0  0  0  0  0  0  0  0
   35.6740   24.5950   37.7930 H   0  0  0  0  0  0  0  0  0  0  0  0
   35.7790   22.9040   39.5430 H   0  0  0  0  0  0  0  0  0  0  0  0
   37.4000   26.0410   42.5290 C   0  0  2  0  0  0  0  0  0  0  0  0
   36.7370   27.2180   43.1660 C   0  0  0  0  0  0  0  0  0  0  0  0
   38.1500   27.3310   42.5610 C   0  0  1  0  0  0  0  0  0  0  0  0
   37.7350   25.2270   43.1950 H   0  0  0  0  0  0  0  0  0  0  0  0
   35.9490   27.6980   42.5530 H   0  0  0  0  0  0  0  0  0  0  0  0
   36.7260   27.3490   44.2460 H   0  0  0  0  0  0  0  0  0  0  0  0
   38.2570   27.8600   41.6170 H   0  0  0  0  0  0  0  0  0  0  0  0
   39.3030   27.4280   43.4860 C   0  0  0  0  0  0  0  0  0  0  0  0
   39.3090   27.8710   44.4570 H   0  0  0  0  0  0  0  0  0  0  0  0
   40.3770   26.9480   43.0990 O   0  0  0  0  0  0  0  0  0  0  0  0
   35.3310   28.2250   38.2870 C   0  0  0  0  0  0  0  0  0  0  0  0
   34.5850   27.8230   39.0170 H   0  0  0  0  0  0  0  0  0  0  0  0
   34.7740   28.5160   37.3850 H   0  0  0  0  0  0  0  0  0  0  0  0
   36.7610   30.1190   36.5070 Cl  0  0  0  0  0  0  0  0  0  0  0  0
   36.5670   30.4160   38.2090 C   0  0  0  0  0  0  0  0  0  0  0  0
   35.8840   29.4580   38.9300 C   0  0  0  0  0  0  0  0  0  0  0  0
   35.7240   29.6770   40.2880 C   0  0  0  0  0  0  0  0  0  0  0  0
   36.2280   30.8100   40.8900 C   0  0  0  0  0  0  0  0  0  0  0  0
   36.9170   31.7670   40.1370 C   0  0  0  0  0  0  0  0  0  0  0  0
   37.0700   31.5400   38.7920 C   0  0  0  0  0  0  0  0  0  0  0  0
   35.2060   28.9770   40.9040 H   0  0  0  0  0  0  0  0  0  0  0  0
   36.1110   30.9980   41.9540 H   0  0  0  0  0  0  0  0  0  0  0  0
   37.3210   32.6610   40.5850 H   0  0  0  0  0  0  0  0  0  0  0  0
   37.7450   32.4350   37.9400 O   0  0  0  0  0  0  0  0  0  0  0  0
   37.1740   33.2220   37.6420 H   0  0  0  0  0  0  0  0  0  0  0  0
  1 22  1  0  0  0  0
  1  4  1  0  0  0  0
  2  1  1  0  0  0  0
  3  1  1  0  0  0  0
  4  9  1  0  0  0  0
  5  4  2  0  0  0  0
  5  6  1  0  0  0  0
  6  7  2  0  0  0  0
  7  8  1  0  0  0  0
  8 12  1  0  0  0  0
  9  8  2  0  0  0  0
 10  5  1  0  0  0  0
 11  6  1  0  0  0  0
 12 14  1  0  0  0  0
 12 13  1  0  0  0  0
 12 15  1  1  0  0  0
 13 17  1  0  0  0  0
 14 18  1  6  0  0  0
 14 13  1  0  0  0  0
 14 19  1  0  0  0  0
 16 13  1  0  0  0  0
 19 20  1  0  0  0  0
 21 19  2  0  0  0  0
 22 27  1  0  0  0  0
 22 23  1  0  0  0  0
 24 22  1  0  0  0  0
 25 26  1  0  0  0  0
 26 31  2  0  0  0  0
 26 27  1  0  0  0  0
 27 28  2  0  0  0  0
 28 29  1  0  0  0  0
 28 32  1  0  0  0  0
 29 33  1  0  0  0  0
 30 34  1  0  0  0  0
 30 29  2  0  0  0  0
 31 30  1  0  0  0  0
 35 31  1  0  0  0  0
 36 35  1  0  0  0  0
M  END
>  <minimizedAffinity>
-5.30359745

$$$$

 OpenBabel03242519183D

 36 38  0  0  1  0  0  0  0  0999 V2000
   36.8810   28.0770   36.8770 C   0  0  0  0  0  0  0  0  0  0  0  0
   36.7520   27.6800   35.8390 H   0  0  0  0  0  0  0  0  0  0  0  0
   37.9280   28.4520   36.9090 H   0  0  0  0  0  0  0  0  0  0  0  0
   36.6830   26.9790   37.7980 C   0  0  0  0  0  0  0  0  0  0  0  0
   35.9310   25.8740   37.4650 C   0  0  0  0  0  0  0  0  0  0  0  0
   35.7190   24.8050   38.3470 C   0  0  0  0  0  0  0  0  0  0  0  0
   36.3100   24.9340   39.5630 N   0  0  0  0  0  0  0  0  0  0  0  0
   37.0410   26.0160   39.8770 C   0  0  0  0  0  0  0  0  0  0  0  0
   37.2260   27.0200   39.0110 N   0  0  0  0  0  0  0  0  0  0  0  0
   35.4690   25.7970   36.4830 H   0  0  0  0  0  0  0  0  0  0  0  0
   35.1300   23.9640   38.0510 H   0  0  0  0  0  0  0  0  0  0  0  0
   37.6670   26.1660   41.2290 C   0  0  2  0  0  0  0  0  0  0  0  0
   36.9890   25.5470   42.4070 C   0  0  0  0  0  0  0  0  0  0  0  0
   36.9660   27.0710   42.1850 C   0  0  1  0  0  0  0  0  0  0  0  0
   38.7720   26.1680   41.2250 H   0  0  0  0  0  0  0  0  0  0  0  0
   36.0260   25.0470   42.1810 H   0  0  0  0  0  0  0  0  0  0  0  0
   37.5450   25.2550   43.2950 H   0  0  0  0  0  0  0  0  0  0  0  0
   36.0360   27.5200   41.8430 H   0  0  0  0  0  0  0  0  0  0  0  0
   37.8040   27.9210   43.0630 C   0  0  0  0  0  0  0  0  0  0  0  0
   38.5360   27.5880   43.7640 H   0  0  0  0  0  0  0  0  0  0  0  0
   37.6440   29.1460   42.9800 O   0  0  0  0  0  0  0  0  0  0  0  0
   35.9240   29.1690   37.1330 C   0  0  0  0  0  0  0  0  0  0  0  0
   34.9620   28.7680   37.5360 H   0  0  0  0  0  0  0  0  0  0  0  0
   35.6850   29.7100   36.2070 H   0  0  0  0  0  0  0  0  0  0  0  0
   34.6080   29.0540   39.7890 Cl  0  0  0  0  0  0  0  0  0  0  0  0
   35.8660   30.1980   39.4300 C   0  0  0  0  0  0  0  0  0  0  0  0
   36.3980   30.1530   38.1570 C   0  0  0  0  0  0  0  0  0  0  0  0
   37.3980   31.0600   37.8520 C   0  0  0  0  0  0  0  0  0  0  0  0
   37.8430   31.9700   38.7870 C   0  0  0  0  0  0  0  0  0  0  0  0
   37.2880   31.9960   40.0710 C   0  0  0  0  0  0  0  0  0  0  0  0
   36.2970   31.0930   40.3630 C   0  0  0  0  0  0  0  0  0  0  0  0
   37.8530   31.0800   36.8870 H   0  0  0  0  0  0  0  0  0  0  0  0
   38.6270   32.6890   38.5660 H   0  0  0  0  0  0  0  0  0  0  0  0
   37.6180   32.6980   40.8200 H   0  0  0  0  0  0  0  0  0  0  0  0
   35.6680   31.0290   41.6210 O   0  0  0  0  0  0  0  0  0  0  0  0
   36.2040   30.5170   42.3180 H   0  0  0  0  0  0  0  0  0  0  0  0
  1  3  1  0  0  0  0
  1 22  1  0  0  0  0
  1  4  1  0  0  0  0
  2  1  1  0  0  0  0
  4  9  1  0  0  0  0
  5  4  2  0  0  0  0
  5  6  1  0  0  0  0
  6  7  2  0  0  0  0
  7  8  1  0  0  0  0
  8 12  1  0  0  0  0
  9  8  2  0  0  0  0
 10  5  1  0  0  0  0
 11  6  1  0  0  0  0
 12 15  1  1  0  0  0
 12 14  1  0  0  0  0
 12 13  1  0  0  0  0
 13 17  1  0  0  0  0
 14 18  1  6  0  0  0
 14 13  1  0  0  0  0
 14 19  1  0  0  0  0
 16 13  1  0  0  0  0
 19 20  1  0  0  0  0
 21 19  2  0  0  0  0
 22 23  1  0  0  0  0
 22 27  1  0  0  0  0
 24 22  1  0  0  0  0
 26 25  1  0  0  0  0
 26 31  1  0  0  0  0
 27 26  2  0  0  0  0
 28 27  1  0  0  0  0
 28 29  2  0  0  0  0
 29 30  1  0  0  0  0
 30 31  2  0  0  0  0
 30 34  1  0  0  0  0
 31 35  1  0  0  0  0
 32 28  1  0  0  0  0
 33 29  1  0  0  0  0
 35 36  1  0  0  0  0
M  END
>  <minimizedAffinity>
-5.29743528

$$$$

 OpenBabel03242519183D

 36 38  0  0  1  0  0  0  0  0999 V2000
   39.3970   30.6170   42.1730 C   0  0  0  0  0  0  0  0  0  0  0  0
   40.3360   30.1350   41.8040 H   0  0  0  0  0  0  0  0  0  0  0  0
   39.6640   31.0290   43.1720 H   0  0  0  0  0  0  0  0  0  0  0  0
   38.3840   29.5900   42.2770 C   0  0  0  0  0  0  0  0  0  0  0  0
   38.0910   28.9720   43.4730 C   0  0  0  0  0  0  0  0  0  0  0  0
   37.1210   27.9670   43.5920 C   0  0  0  0  0  0  0  0  0  0  0  0
   36.4840   27.6400   42.4380 N   0  0  0  0  0  0  0  0  0  0  0  0
   36.7770   28.2480   41.2780 C   0  0  0  0  0  0  0  0  0  0  0  0
   37.7090   29.2070   41.1970 N   0  0  0  0  0  0  0  0  0  0  0  0
   38.6170   29.2550   44.3830 H   0  0  0  0  0  0  0  0  0  0  0  0
   36.9220   27.5130   44.5380 H   0  0  0  0  0  0  0  0  0  0  0  0
   36.0920   27.8640   40.0020 C   0  0  2  0  0  0  0  0  0  0  0  0
   36.8950   27.8100   38.7440 C   0  0  0  0  0  0  0  0  0  0  0  0
   35.8970   28.9540   39.0030 C   0  0  1  0  0  0  0  0  0  0  0  0
   35.2870   27.1170   40.1220 H   0  0  0  0  0  0  0  0  0  0  0  0
   37.9550   28.1080   38.8550 H   0  0  0  0  0  0  0  0  0  0  0  0
   36.6040   27.1730   37.9120 H   0  0  0  0  0  0  0  0  0  0  0  0
   36.3000   29.9320   39.2580 H   0  0  0  0  0  0  0  0  0  0  0  0
   34.6260   28.9640   38.2410 C   0  0  0  0  0  0  0  0  0  0  0  0
   34.5170   28.9130   37.1800 H   0  0  0  0  0  0  0  0  0  0  0  0
   33.5770   29.0390   38.8940 O   0  0  0  0  0  0  0  0  0  0  0  0
   38.9770   31.6930   41.2570 C   0  0  0  0  0  0  0  0  0  0  0  0
   38.9800   32.6820   41.7780 H   0  0  0  0  0  0  0  0  0  0  0  0
   37.9530   31.5250   40.8930 H   0  0  0  0  0  0  0  0  0  0  0  0
   37.6700   32.0450   38.6170 Cl  0  0  0  0  0  0  0  0  0  0  0  0
   39.3980   32.0420   38.8000 C   0  0  0  0  0  0  0  0  0  0  0  0
   39.8850   31.8670   40.0800 C   0  0  0  0  0  0  0  0  0  0  0  0
   41.2590   31.8570   40.2430 C   0  0  0  0  0  0  0  0  0  0  0  0
   42.1050   32.0170   39.1660 C   0  0  0  0  0  0  0  0  0  0  0  0
   41.5880   32.1930   37.8780 C   0  0  0  0  0  0  0  0  0  0  0  0
   40.2230   32.2010   37.7280 C   0  0  0  0  0  0  0  0  0  0  0  0
   41.7020   31.7270   41.2050 H   0  0  0  0  0  0  0  0  0  0  0  0
   43.1860   32.0130   39.2760 H   0  0  0  0  0  0  0  0  0  0  0  0
   42.2280   32.3210   37.0200 H   0  0  0  0  0  0  0  0  0  0  0  0
   39.5950   32.3710   36.4790 O   0  0  0  0  0  0  0  0  0  0  0  0
   39.5340   33.3410   36.1830 H   0  0  0  0  0  0  0  0  0  0  0  0
  1  4  1  0  0  0  0
  1  3  1  0  0  0  0
  2  1  1  0  0  0  0
  4  5  1  0  0  0  0
  5  6  2  0  0  0  0
  5 10  1  0  0  0  0
  6 11  1  0  0  0  0
  7  6  1  0  0  0  0
  8  7  2  0  0  0  0
  9  8  1  0  0  0  0
  9  4  2  0  0  0  0
 12 15  1  1  0  0  0
 12  8  1  0  0  0  0
 13 16  1  0  0  0  0
 13 14  1  0  0  0  0
 13 12  1  0  0  0  0
 14 18  1  1  0  0  0
 14 12  1  0  0  0  0
 17 13  1  0  0  0  0
 19 21  2  0  0  0  0
 19 14  1  0  0  0  0
 20 19  1  0  0  0  0
 22 23  1  0  0  0  0
 22  1  1  0  0  0  0
 24 22  1  0  0  0  0
 25 26  1  0  0  0  0
 26 27  1  0  0  0  0
 27 28  2  0  0  0  0
 27 22  1  0  0  0  0
 28 32  1  0  0  0  0
 29 33  1  0  0  0  0
 29 28  1  0  0  0  0
 30 29  2  0  0  0  0
 31 30  1  0  0  0  0
 31 26  2  0  0  0  0
 34 30  1  0  0  0  0
 35 31  1  0  0  0  0
 36 35  1  0  0  0  0
M  END
>  <minimizedAffinity>
-5.03732538

$$$$
