
 OpenBabel03242511433D

 28 29  0  0  0  0  0  0  0  0999 V2000
   35.5710   28.4940   39.4530 C   0  0  0  0  0  0  0  0  0  0  0  0
   34.6440   28.2180   38.8700 H   0  0  0  0  0  0  0  0  0  0  0  0
   35.1980   29.0150   40.3370 H   0  0  0  0  0  0  0  0  0  0  0  0
   36.2900   29.4580   38.6270 C   0  0  0  0  0  0  0  0  0  0  0  0
   36.7210   29.4180   37.3380 C   0  0  0  0  0  0  0  0  0  0  0  0
   37.3620   30.4640   36.7150 C   0  0  0  0  0  0  0  0  0  0  0  0
   37.5970   31.6220   37.3940 C   0  0  0  0  0  0  0  0  0  0  0  0
   37.1710   31.6970   38.7160 C   0  0  0  0  0  0  0  0  0  0  0  0
   36.5340   30.6170   39.2980 C   0  0  0  0  0  0  0  0  0  0  0  0
   36.4950   28.4600   36.8640 H   0  0  0  0  0  0  0  0  0  0  0  0
   37.6130   30.2200   35.7110 H   0  0  0  0  0  0  0  0  0  0  0  0
   38.1130   32.3310   36.7310 H   0  0  0  0  0  0  0  0  0  0  0  0
   37.4560   32.6890   39.0510 H   0  0  0  0  0  0  0  0  0  0  0  0
   36.3490   31.1130   40.6520 C   0  0  0  0  0  0  0  0  0  0  0  0
   36.5330   31.7030   41.5000 H   0  0  0  0  0  0  0  0  0  0  0  0
   35.6500   30.9540   41.6550 O   0  0  0  0  0  0  0  0  0  0  0  0
   36.3650   27.2540   39.7490 C   0  0  0  0  0  0  0  0  0  0  0  0
   37.2190   27.1640   38.9990 H   0  0  0  0  0  0  0  0  0  0  0  0
   35.7740   26.3570   39.8690 H   0  0  0  0  0  0  0  0  0  0  0  0
   39.1490   27.6720   42.1200 C   0  0  0  0  0  0  0  0  0  0  0  0
   38.4690   28.0140   43.3230 C   0  0  0  0  0  0  0  0  0  0  0  0
   37.0900   28.1020   43.2610 C   0  0  0  0  0  0  0  0  0  0  0  0
   36.4630   27.8680   42.1010 N   0  0  0  0  0  0  0  0  0  0  0  0
   37.1610   27.5440   40.9840 C   0  0  0  0  0  0  0  0  0  0  0  0
   38.4740   27.4470   40.9830 N   0  0  0  0  0  0  0  0  0  0  0  0
   40.2240   27.6110   42.1990 H   0  0  0  0  0  0  0  0  0  0  0  0
   38.9570   28.2030   44.2540 H   0  0  0  0  0  0  0  0  0  0  0  0
   36.4810   28.3560   44.1170 H   0  0  0  0  0  0  0  0  0  0  0  0
  1 17  1  0  0  0  0
  1  3  1  0  0  0  0
  2  1  1  0  0  0  0
  4  9  1  0  0  0  0
  4  1  1  0  0  0  0
  5  4  2  0  0  0  0
  6  5  1  0  0  0  0
  6  7  2  0  0  0  0
  7  8  1  0  0  0  0
  8 13  1  0  0  0  0
  8  9  2  0  0  0  0
  9 14  1  0  0  0  0
 10  5  1  0  0  0  0
 11  6  1  0  0  0  0
 12  7  1  0  0  0  0
 14 15  1  0  0  0  0
 14 16  2  0  0  0  0
 17 19  1  0  0  0  0
 17 24  1  0  0  0  0
 18 17  1  0  0  0  0
 20 26  1  0  0  0  0
 20 21  1  0  0  0  0
 21 27  1  0  0  0  0
 22 21  2  0  0  0  0
 22 28  1  0  0  0  0
 23 22  1  0  0  0  0
 24 23  2  0  0  0  0
 25 24  1  0  0  0  0
 25 20  2  0  0  0  0
M  END
>  <minimizedAffinity>
-4.87875032

$$$$

 OpenBabel03242511433D

 28 29  0  0  0  0  0  0  0  0999 V2000
   38.8940   30.2790   42.8440 C   0  0  0  0  0  0  0  0  0  0  0  0
   39.1510   30.4540   43.9300 H   0  0  0  0  0  0  0  0  0  0  0  0
   38.0730   30.9680   42.6390 H   0  0  0  0  0  0  0  0  0  0  0  0
   38.3740   28.9170   42.7700 C   0  0  0  0  0  0  0  0  0  0  0  0
   38.8360   27.7340   43.2560 C   0  0  0  0  0  0  0  0  0  0  0  0
   38.1710   26.5380   43.1110 C   0  0  0  0  0  0  0  0  0  0  0  0
   36.9800   26.4960   42.4500 C   0  0  0  0  0  0  0  0  0  0  0  0
   36.4790   27.6890   41.9380 C   0  0  0  0  0  0  0  0  0  0  0  0
   37.1870   28.8640   42.1080 C   0  0  0  0  0  0  0  0  0  0  0  0
   39.7920   27.8520   43.7720 H   0  0  0  0  0  0  0  0  0  0  0  0
   38.7080   25.7400   43.5640 H   0  0  0  0  0  0  0  0  0  0  0  0
   36.6090   25.4610   42.4420 H   0  0  0  0  0  0  0  0  0  0  0  0
   35.5400   27.4220   41.4640 H   0  0  0  0  0  0  0  0  0  0  0  0
   36.3450   29.7930   41.3720 C   0  0  0  0  0  0  0  0  0  0  0  0
   35.7570   30.1430   40.5770 H   0  0  0  0  0  0  0  0  0  0  0  0
   35.8370   30.9120   41.4520 O   0  0  0  0  0  0  0  0  0  0  0  0
   40.1160   30.4970   41.9980 C   0  0  0  0  0  0  0  0  0  0  0  0
   40.0820   29.7960   41.0990 H   0  0  0  0  0  0  0  0  0  0  0  0
   41.0490   30.4880   42.5420 H   0  0  0  0  0  0  0  0  0  0  0  0
   38.5680   33.3990   40.3470 C   0  0  0  0  0  0  0  0  0  0  0  0
   39.7050   34.1450   39.9250 C   0  0  0  0  0  0  0  0  0  0  0  0
   40.9470   33.6270   40.2400 C   0  0  0  0  0  0  0  0  0  0  0  0
   41.0320   32.4730   40.9140 N   0  0  0  0  0  0  0  0  0  0  0  0
   39.9160   31.8030   41.2920 C   0  0  0  0  0  0  0  0  0  0  0  0
   38.7070   32.2480   41.0210 N   0  0  0  0  0  0  0  0  0  0  0  0
   37.6120   33.8290   40.0870 H   0  0  0  0  0  0  0  0  0  0  0  0
   39.6510   35.0660   39.3870 H   0  0  0  0  0  0  0  0  0  0  0  0
   41.8720   34.1160   39.9660 H   0  0  0  0  0  0  0  0  0  0  0  0
  1  2  1  0  0  0  0
  3  1  1  0  0  0  0
  4  1  1  0  0  0  0
  4  5  1  0  0  0  0
  5 10  1  0  0  0  0
  6  5  2  0  0  0  0
  6 11  1  0  0  0  0
  7  6  1  0  0  0  0
  8  9  1  0  0  0  0
  8  7  2  0  0  0  0
  9  4  2  0  0  0  0
 12  7  1  0  0  0  0
 13  8  1  0  0  0  0
 14 16  2  0  0  0  0
 14  9  1  0  0  0  0
 15 14  1  0  0  0  0
 17 19  1  0  0  0  0
 17  1  1  0  0  0  0
 18 17  1  0  0  0  0
 20 25  1  0  0  0  0
 21 22  1  0  0  0  0
 21 20  2  0  0  0  0
 22 23  2  0  0  0  0
 23 24  1  0  0  0  0
 24 17  1  0  0  0  0
 25 24  2  0  0  0  0
 26 20  1  0  0  0  0
 27 21  1  0  0  0  0
 28 22  1  0  0  0  0
M  END
>  <minimizedAffinity>
-4.86052608

$$$$

 OpenBabel03242511433D

 28 29  0  0  0  0  0  0  0  0999 V2000
   36.9170   31.1430   39.8970 C   0  0  0  0  0  0  0  0  0  0  0  0
   36.6850   32.2310   39.6990 H   0  0  0  0  0  0  0  0  0  0  0  0
   38.0050   31.1000   39.9650 H   0  0  0  0  0  0  0  0  0  0  0  0
   36.5070   30.4220   38.6960 C   0  0  0  0  0  0  0  0  0  0  0  0
   35.5180   29.5180   38.4640 C   0  0  0  0  0  0  0  0  0  0  0  0
   35.2620   28.9670   37.2290 C   0  0  0  0  0  0  0  0  0  0  0  0
   36.0210   29.3220   36.1530 C   0  0  0  0  0  0  0  0  0  0  0  0
   37.0430   30.2440   36.3550 C   0  0  0  0  0  0  0  0  0  0  0  0
   37.2620   30.7670   37.6160 C   0  0  0  0  0  0  0  0  0  0  0  0
   34.9580   29.2880   39.3730 H   0  0  0  0  0  0  0  0  0  0  0  0
   34.4490   28.2840   37.2720 H   0  0  0  0  0  0  0  0  0  0  0  0
   35.6630   28.7810   35.2660 H   0  0  0  0  0  0  0  0  0  0  0  0
   37.5030   30.3750   35.3820 H   0  0  0  0  0  0  0  0  0  0  0  0
   38.4300   31.5940   37.3650 C   0  0  0  0  0  0  0  0  0  0  0  0
   39.3440   32.0660   37.5730 H   0  0  0  0  0  0  0  0  0  0  0  0
   38.9530   32.2930   36.4960 O   0  0  0  0  0  0  0  0  0  0  0  0
   36.1960   30.6940   41.1360 C   0  0  0  0  0  0  0  0  0  0  0  0
   35.3590   29.9760   40.8460 H   0  0  0  0  0  0  0  0  0  0  0  0
   35.8960   31.4930   41.7980 H   0  0  0  0  0  0  0  0  0  0  0  0
   39.1290   29.1830   42.7680 C   0  0  0  0  0  0  0  0  0  0  0  0
   38.6850   27.8510   43.0050 C   0  0  0  0  0  0  0  0  0  0  0  0
   37.3980   27.5380   42.6110 C   0  0  0  0  0  0  0  0  0  0  0  0
   36.6350   28.4770   42.0350 N   0  0  0  0  0  0  0  0  0  0  0  0
   37.1080   29.7310   41.8310 C   0  0  0  0  0  0  0  0  0  0  0  0
   38.3250   30.0870   42.1870 N   0  0  0  0  0  0  0  0  0  0  0  0
   40.1380   29.3970   43.0860 H   0  0  0  0  0  0  0  0  0  0  0  0
   39.2830   27.0930   43.4630 H   0  0  0  0  0  0  0  0  0  0  0  0
   36.9660   26.5570   42.7470 H   0  0  0  0  0  0  0  0  0  0  0  0
  1  3  1  0  0  0  0
  1 17  1  0  0  0  0
  2  1  1  0  0  0  0
  4  1  1  0  0  0  0
  5  4  1  0  0  0  0
  5 10  1  0  0  0  0
  6 11  1  0  0  0  0
  6  5  2  0  0  0  0
  7  8  2  0  0  0  0
  7  6  1  0  0  0  0
  8  9  1  0  0  0  0
  9  4  2  0  0  0  0
 12  7  1  0  0  0  0
 13  8  1  0  0  0  0
 14 15  1  0  0  0  0
 14  9  1  0  0  0  0
 16 14  2  0  0  0  0
 17 19  1  0  0  0  0
 17 24  1  0  0  0  0
 18 17  1  0  0  0  0
 20 21  1  0  0  0  0
 20 26  1  0  0  0  0
 21 27  1  0  0  0  0
 22 28  1  0  0  0  0
 22 21  2  0  0  0  0
 23 22  1  0  0  0  0
 24 23  2  0  0  0  0
 24 25  1  0  0  0  0
 25 20  2  0  0  0  0
M  END
>  <minimizedAffinity>
-4.81198597

$$$$

 OpenBabel03242511433D

 28 29  0  0  0  0  0  0  0  0999 V2000
   39.0860   27.8070   42.9110 C   0  0  0  0  0  0  0  0  0  0  0  0
   39.5450   28.2330   41.9710 H   0  0  0  0  0  0  0  0  0  0  0  0
   39.9310   27.6420   43.5820 H   0  0  0  0  0  0  0  0  0  0  0  0
   38.5420   26.5050   42.5360 C   0  0  0  0  0  0  0  0  0  0  0  0
   37.3020   26.1120   42.1410 C   0  0  0  0  0  0  0  0  0  0  0  0
   36.9890   24.8190   41.7880 C   0  0  0  0  0  0  0  0  0  0  0  0
   37.9480   23.8500   41.8230 C   0  0  0  0  0  0  0  0  0  0  0  0
   39.2280   24.2190   42.2250 C   0  0  0  0  0  0  0  0  0  0  0  0
   39.4920   25.5310   42.5720 C   0  0  0  0  0  0  0  0  0  0  0  0
   36.5940   26.9430   42.1390 H   0  0  0  0  0  0  0  0  0  0  0  0
   35.9650   24.7300   41.5140 H   0  0  0  0  0  0  0  0  0  0  0  0
   37.5060   22.8950   41.5070 H   0  0  0  0  0  0  0  0  0  0  0  0
   39.8140   23.3070   42.1760 H   0  0  0  0  0  0  0  0  0  0  0  0
   40.8830   25.4260   42.9770 C   0  0  0  0  0  0  0  0  0  0  0  0
   41.7950   25.7360   43.3940 H   0  0  0  0  0  0  0  0  0  0  0  0
   41.8380   24.6480   42.9730 O   0  0  0  0  0  0  0  0  0  0  0  0
   38.0490   28.7570   43.4380 C   0  0  0  0  0  0  0  0  0  0  0  0
   38.5190   29.4240   44.2360 H   0  0  0  0  0  0  0  0  0  0  0  0
   37.1180   28.2930   43.7290 H   0  0  0  0  0  0  0  0  0  0  0  0
   36.5060   30.8220   40.8110 C   0  0  0  0  0  0  0  0  0  0  0  0
   37.6020   31.6220   40.3780 C   0  0  0  0  0  0  0  0  0  0  0  0
   38.8120   31.4280   41.0170 C   0  0  0  0  0  0  0  0  0  0  0  0
   38.9060   30.5180   41.9950 N   0  0  0  0  0  0  0  0  0  0  0  0
   37.8300   29.7820   42.3680 C   0  0  0  0  0  0  0  0  0  0  0  0
   36.6520   29.9240   41.7970 N   0  0  0  0  0  0  0  0  0  0  0  0
   35.5750   30.9960   40.2940 H   0  0  0  0  0  0  0  0  0  0  0  0
   37.5400   32.3510   39.5990 H   0  0  0  0  0  0  0  0  0  0  0  0
   39.7030   31.9840   40.7630 H   0  0  0  0  0  0  0  0  0  0  0  0
  1 17  1  0  0  0  0
  1  3  1  0  0  0  0
  2  1  1  0  0  0  0
  4  9  1  0  0  0  0
  4  1  1  0  0  0  0
  5  4  2  0  0  0  0
  6  7  2  0  0  0  0
  6  5  1  0  0  0  0
  7  8  1  0  0  0  0
  8  9  2  0  0  0  0
  9 14  1  0  0  0  0
 10  5  1  0  0  0  0
 11  6  1  0  0  0  0
 12  7  1  0  0  0  0
 13  8  1  0  0  0  0
 14 15  1  0  0  0  0
 16 14  2  0  0  0  0
 17 19  1  0  0  0  0
 17 18  1  0  0  0  0
 20 25  1  0  0  0  0
 21 20  2  0  0  0  0
 21 22  1  0  0  0  0
 22 23  2  0  0  0  0
 23 24  1  0  0  0  0
 24 17  1  0  0  0  0
 25 24  2  0  0  0  0
 26 20  1  0  0  0  0
 27 21  1  0  0  0  0
 28 22  1  0  0  0  0
M  END
>  <minimizedAffinity>
-4.8088994

$$$$

 OpenBabel03242511433D

 28 29  0  0  0  0  0  0  0  0999 V2000
   39.0450   30.6970   42.1590 C   0  0  0  0  0  0  0  0  0  0  0  0
   39.5870   31.0680   43.0780 H   0  0  0  0  0  0  0  0  0  0  0  0
   38.1760   31.3520   42.0680 H   0  0  0  0  0  0  0  0  0  0  0  0
   38.5710   29.3570   42.4880 C   0  0  0  0  0  0  0  0  0  0  0  0
   39.1640   28.3040   43.1110 C   0  0  0  0  0  0  0  0  0  0  0  0
   38.5280   27.1110   43.3660 C   0  0  0  0  0  0  0  0  0  0  0  0
   37.2300   26.9360   42.9880 C   0  0  0  0  0  0  0  0  0  0  0  0
   36.5920   27.9930   42.3460 C   0  0  0  0  0  0  0  0  0  0  0  0
   37.2760   29.1710   42.1110 C   0  0  0  0  0  0  0  0  0  0  0  0
   40.1990   28.5240   43.3820 H   0  0  0  0  0  0  0  0  0  0  0  0
   39.1740   26.4260   43.8600 H   0  0  0  0  0  0  0  0  0  0  0  0
   36.9030   25.9270   43.2780 H   0  0  0  0  0  0  0  0  0  0  0  0
   35.5880   27.6370   42.1430 H   0  0  0  0  0  0  0  0  0  0  0  0
   36.2700   29.9240   41.3810 C   0  0  0  0  0  0  0  0  0  0  0  0
   35.5480   30.1110   40.6430 H   0  0  0  0  0  0  0  0  0  0  0  0
   35.6980   31.0150   41.3670 O   0  0  0  0  0  0  0  0  0  0  0  0
   39.9750   30.7290   40.9810 C   0  0  0  0  0  0  0  0  0  0  0  0
   40.2460   29.6600   40.6860 H   0  0  0  0  0  0  0  0  0  0  0  0
   40.8180   31.3940   41.0880 H   0  0  0  0  0  0  0  0  0  0  0  0
   37.6050   32.4430   38.7460 C   0  0  0  0  0  0  0  0  0  0  0  0
   37.6180   31.6030   37.5970 C   0  0  0  0  0  0  0  0  0  0  0  0
   38.4500   30.5000   37.6340 C   0  0  0  0  0  0  0  0  0  0  0  0
   39.1940   30.2680   38.7230 N   0  0  0  0  0  0  0  0  0  0  0  0
   39.1430   31.1010   39.7920 C   0  0  0  0  0  0  0  0  0  0  0  0
   38.3700   32.1670   39.8130 N   0  0  0  0  0  0  0  0  0  0  0  0
   36.9460   33.2960   38.6880 H   0  0  0  0  0  0  0  0  0  0  0  0
   37.0290   31.7770   36.7220 H   0  0  0  0  0  0  0  0  0  0  0  0
   38.5330   29.8020   36.8130 H   0  0  0  0  0  0  0  0  0  0  0  0
  1  4  1  0  0  0  0
  1  2  1  0  0  0  0
  3  1  1  0  0  0  0
  4  5  1  0  0  0  0
  5  6  2  0  0  0  0
  5 10  1  0  0  0  0
  6 11  1  0  0  0  0
  7 12  1  0  0  0  0
  7  6  1  0  0  0  0
  8  7  2  0  0  0  0
  9  8  1  0  0  0  0
  9  4  2  0  0  0  0
 13  8  1  0  0  0  0
 14  9  1  0  0  0  0
 15 14  1  0  0  0  0
 16 14  2  0  0  0  0
 17 19  1  0  0  0  0
 17  1  1  0  0  0  0
 18 17  1  0  0  0  0
 20 25  1  0  0  0  0
 21 22  1  0  0  0  0
 21 20  2  0  0  0  0
 22 23  2  0  0  0  0
 23 24  1  0  0  0  0
 24 25  2  0  0  0  0
 24 17  1  0  0  0  0
 26 20  1  0  0  0  0
 27 21  1  0  0  0  0
 28 22  1  0  0  0  0
M  END
>  <minimizedAffinity>
-4.80417442

$$$$

 OpenBabel03242511433D

 28 29  0  0  0  0  0  0  0  0999 V2000
   39.3460   30.2130   41.1410 C   0  0  0  0  0  0  0  0  0  0  0  0
   40.4130   29.9730   40.8590 H   0  0  0  0  0  0  0  0  0  0  0  0
   38.7380   29.5900   40.4810 H   0  0  0  0  0  0  0  0  0  0  0  0
   39.1380   31.6080   40.7670 C   0  0  0  0  0  0  0  0  0  0  0  0
   39.9960   32.6520   40.6120 C   0  0  0  0  0  0  0  0  0  0  0  0
   39.6050   33.9090   40.2100 C   0  0  0  0  0  0  0  0  0  0  0  0
   38.2910   34.1610   39.9430 C   0  0  0  0  0  0  0  0  0  0  0  0
   37.3860   33.1160   40.0930 C   0  0  0  0  0  0  0  0  0  0  0  0
   37.8290   31.8720   40.5020 C   0  0  0  0  0  0  0  0  0  0  0  0
   41.0250   32.3680   40.8440 H   0  0  0  0  0  0  0  0  0  0  0  0
   40.4330   34.5730   40.1560 H   0  0  0  0  0  0  0  0  0  0  0  0
   38.1820   35.2120   39.6380 H   0  0  0  0  0  0  0  0  0  0  0  0
   36.4210   33.5370   39.8310 H   0  0  0  0  0  0  0  0  0  0  0  0
   36.5690   31.1520   40.5850 C   0  0  0  0  0  0  0  0  0  0  0  0
   35.6860   30.7050   40.2370 H   0  0  0  0  0  0  0  0  0  0  0  0
   35.8120   30.6130   41.3940 O   0  0  0  0  0  0  0  0  0  0  0  0
   39.1420   29.9520   42.6060 C   0  0  0  0  0  0  0  0  0  0  0  0
   38.2970   30.6130   42.9930 H   0  0  0  0  0  0  0  0  0  0  0  0
   40.0440   29.9780   43.1990 H   0  0  0  0  0  0  0  0  0  0  0  0
   38.4050   26.3550   42.3430 C   0  0  0  0  0  0  0  0  0  0  0  0
   37.0880   26.2800   42.8780 C   0  0  0  0  0  0  0  0  0  0  0  0
   36.5220   27.4610   43.3200 C   0  0  0  0  0  0  0  0  0  0  0  0
   37.2160   28.6030   43.2290 N   0  0  0  0  0  0  0  0  0  0  0  0
   38.4680   28.6180   42.7090 C   0  0  0  0  0  0  0  0  0  0  0  0
   39.0590   27.5250   42.2740 N   0  0  0  0  0  0  0  0  0  0  0  0
   38.8210   25.4170   42.0060 H   0  0  0  0  0  0  0  0  0  0  0  0
   36.5240   25.3760   42.9560 H   0  0  0  0  0  0  0  0  0  0  0  0
   35.5280   27.5120   43.7440 H   0  0  0  0  0  0  0  0  0  0  0  0
  1 17  1  0  0  0  0
  2  1  1  0  0  0  0
  3  1  1  0  0  0  0
  4  1  1  0  0  0  0
  5  4  1  0  0  0  0
  5 10  1  0  0  0  0
  6  5  2  0  0  0  0
  7  8  2  0  0  0  0
  7  6  1  0  0  0  0
  8  9  1  0  0  0  0
  9 14  1  0  0  0  0
  9  4  2  0  0  0  0
 11  6  1  0  0  0  0
 12  7  1  0  0  0  0
 13  8  1  0  0  0  0
 14 16  2  0  0  0  0
 15 14  1  0  0  0  0
 17 24  1  0  0  0  0
 17 18  1  0  0  0  0
 17 19  1  0  0  0  0
 20 21  1  0  0  0  0
 21 27  1  0  0  0  0
 21 22  2  0  0  0  0
 22 28  1  0  0  0  0
 23 22  1  0  0  0  0
 24 23  2  0  0  0  0
 25 20  2  0  0  0  0
 25 24  1  0  0  0  0
 26 20  1  0  0  0  0
M  END
>  <minimizedAffinity>
-4.73232174

$$$$

 OpenBabel03242511433D

 28 29  0  0  0  0  0  0  0  0999 V2000
   38.7310   29.7200   42.9620 C   0  0  0  0  0  0  0  0  0  0  0  0
   38.8370   30.0750   44.0290 H   0  0  0  0  0  0  0  0  0  0  0  0
   37.6730   29.8550   42.7290 H   0  0  0  0  0  0  0  0  0  0  0  0
   39.0120   28.2880   42.9870 C   0  0  0  0  0  0  0  0  0  0  0  0
   40.0940   27.5750   43.3980 C   0  0  0  0  0  0  0  0  0  0  0  0
   40.1560   26.2010   43.3770 C   0  0  0  0  0  0  0  0  0  0  0  0
   39.0920   25.4770   42.9240 C   0  0  0  0  0  0  0  0  0  0  0  0
   37.9680   26.1750   42.4940 C   0  0  0  0  0  0  0  0  0  0  0  0
   37.9570   27.5570   42.5330 C   0  0  0  0  0  0  0  0  0  0  0  0
   40.9000   28.2260   43.7460 H   0  0  0  0  0  0  0  0  0  0  0  0
   41.0920   25.8500   43.7390 H   0  0  0  0  0  0  0  0  0  0  0  0
   39.3320   24.4060   42.9870 H   0  0  0  0  0  0  0  0  0  0  0  0
   37.2610   25.4120   42.1860 H   0  0  0  0  0  0  0  0  0  0  0  0
   36.6590   27.8320   41.9410 C   0  0  0  0  0  0  0  0  0  0  0  0
   35.7450   27.6180   41.4700 H   0  0  0  0  0  0  0  0  0  0  0  0
   35.8850   28.7570   41.6890 O   0  0  0  0  0  0  0  0  0  0  0  0
   39.6670   30.4950   42.0790 C   0  0  0  0  0  0  0  0  0  0  0  0
   40.0590   29.8130   41.2530 H   0  0  0  0  0  0  0  0  0  0  0  0
   40.4290   31.0500   42.6060 H   0  0  0  0  0  0  0  0  0  0  0  0
   37.0090   31.7950   39.8890 C   0  0  0  0  0  0  0  0  0  0  0  0
   37.4080   33.1490   39.7050 C   0  0  0  0  0  0  0  0  0  0  0  0
   38.5590   33.5570   40.3530 C   0  0  0  0  0  0  0  0  0  0  0  0
   39.2380   32.6860   41.1110 N   0  0  0  0  0  0  0  0  0  0  0  0
   38.8130   31.4060   41.2510 C   0  0  0  0  0  0  0  0  0  0  0  0
   37.7240   30.9610   40.6590 N   0  0  0  0  0  0  0  0  0  0  0  0
   36.1070   31.5050   39.3710 H   0  0  0  0  0  0  0  0  0  0  0  0
   36.8760   33.8540   39.1040 H   0  0  0  0  0  0  0  0  0  0  0  0
   38.9470   34.5640   40.2800 H   0  0  0  0  0  0  0  0  0  0  0  0
  1  4  1  0  0  0  0
  1  2  1  0  0  0  0
  3  1  1  0  0  0  0
  4  5  1  0  0  0  0
  5 10  1  0  0  0  0
  6  5  2  0  0  0  0
  6 11  1  0  0  0  0
  7 12  1  0  0  0  0
  7  6  1  0  0  0  0
  8  9  1  0  0  0  0
  8  7  2  0  0  0  0
  9  4  2  0  0  0  0
 13  8  1  0  0  0  0
 14  9  1  0  0  0  0
 15 14  1  0  0  0  0
 16 14  2  0  0  0  0
 17 19  1  0  0  0  0
 17  1  1  0  0  0  0
 18 17  1  0  0  0  0
 20 25  1  0  0  0  0
 21 20  2  0  0  0  0
 21 22  1  0  0  0  0
 22 23  2  0  0  0  0
 23 24  1  0  0  0  0
 24 17  1  0  0  0  0
 25 24  2  0  0  0  0
 26 20  1  0  0  0  0
 27 21  1  0  0  0  0
 28 22  1  0  0  0  0
M  END
>  <minimizedAffinity>
-4.7075057

$$$$

 OpenBabel03242511433D

 28 29  0  0  0  0  0  0  0  0999 V2000
   36.4970   30.2510   41.5150 C   0  0  0  0  0  0  0  0  0  0  0  0
   37.3090   30.9640   41.1860 H   0  0  0  0  0  0  0  0  0  0  0  0
   35.9290   30.8040   42.2660 H   0  0  0  0  0  0  0  0  0  0  0  0
   37.1800   29.1480   42.1820 C   0  0  0  0  0  0  0  0  0  0  0  0
   36.7630   27.9100   42.5640 C   0  0  0  0  0  0  0  0  0  0  0  0
   37.5830   26.9790   43.1590 C   0  0  0  0  0  0  0  0  0  0  0  0
   38.8920   27.2760   43.3970 C   0  0  0  0  0  0  0  0  0  0  0  0
   39.3510   28.5340   43.0210 C   0  0  0  0  0  0  0  0  0  0  0  0
   38.4870   29.4350   42.4280 C   0  0  0  0  0  0  0  0  0  0  0  0
   35.7060   27.7510   42.3390 H   0  0  0  0  0  0  0  0  0  0  0  0
   37.0550   26.0820   43.3760 H   0  0  0  0  0  0  0  0  0  0  0  0
   39.3770   26.4110   43.8720 H   0  0  0  0  0  0  0  0  0  0  0  0
   40.4000   28.5480   43.2980 H   0  0  0  0  0  0  0  0  0  0  0  0
   39.3590   30.5890   42.2850 C   0  0  0  0  0  0  0  0  0  0  0  0
   39.9160   31.3250   41.7860 H   0  0  0  0  0  0  0  0  0  0  0  0
   39.9840   31.4200   42.9480 O   0  0  0  0  0  0  0  0  0  0  0  0
   35.6940   29.8200   40.3210 C   0  0  0  0  0  0  0  0  0  0  0  0
   34.7220   30.4170   40.2840 H   0  0  0  0  0  0  0  0  0  0  0  0
   35.5710   28.7520   40.2210 H   0  0  0  0  0  0  0  0  0  0  0  0
   37.0980   30.2630   36.9470 C   0  0  0  0  0  0  0  0  0  0  0  0
   37.7230   31.5380   37.0490 C   0  0  0  0  0  0  0  0  0  0  0  0
   37.6190   32.1940   38.2610 C   0  0  0  0  0  0  0  0  0  0  0  0
   36.9510   31.6180   39.2700 N   0  0  0  0  0  0  0  0  0  0  0  0
   36.3750   30.4000   39.1200 C   0  0  0  0  0  0  0  0  0  0  0  0
   36.4400   29.7300   37.9880 N   0  0  0  0  0  0  0  0  0  0  0  0
   37.1960   29.7760   35.9890 H   0  0  0  0  0  0  0  0  0  0  0  0
   38.2580   32.0080   36.2520 H   0  0  0  0  0  0  0  0  0  0  0  0
   38.0560   33.1660   38.4410 H   0  0  0  0  0  0  0  0  0  0  0  0
  1  4  1  0  0  0  0
  1  3  1  0  0  0  0
  2  1  1  0  0  0  0
  4  9  2  0  0  0  0
  4  5  1  0  0  0  0
  5  6  2  0  0  0  0
  6 11  1  0  0  0  0
  6  7  1  0  0  0  0
  7 12  1  0  0  0  0
  8 13  1  0  0  0  0
  8  7  2  0  0  0  0
  9  8  1  0  0  0  0
 10  5  1  0  0  0  0
 14  9  1  0  0  0  0
 14 16  2  0  0  0  0
 15 14  1  0  0  0  0
 17  1  1  0  0  0  0
 18 17  1  0  0  0  0
 19 17  1  0  0  0  0
 20 21  2  0  0  0  0
 20 25  1  0  0  0  0
 21 22  1  0  0  0  0
 22 28  1  0  0  0  0
 22 23  2  0  0  0  0
 24 23  1  0  0  0  0
 24 17  1  0  0  0  0
 25 24  2  0  0  0  0
 26 20  1  0  0  0  0
 27 21  1  0  0  0  0
M  END
>  <minimizedAffinity>
-4.68568754

$$$$

 OpenBabel03242511433D

 28 29  0  0  0  0  0  0  0  0999 V2000
   36.7500   27.7230   42.9820 C   0  0  0  0  0  0  0  0  0  0  0  0
   35.9190   27.1770   43.5180 H   0  0  0  0  0  0  0  0  0  0  0  0
   36.4400   28.7690   42.9810 H   0  0  0  0  0  0  0  0  0  0  0  0
   36.7230   27.2400   41.6050 C   0  0  0  0  0  0  0  0  0  0  0  0
   37.0760   26.0530   41.0440 C   0  0  0  0  0  0  0  0  0  0  0  0
   36.9390   25.7700   39.7040 C   0  0  0  0  0  0  0  0  0  0  0  0
   36.4230   26.7080   38.8590 C   0  0  0  0  0  0  0  0  0  0  0  0
   36.0520   27.9350   39.4000 C   0  0  0  0  0  0  0  0  0  0  0  0
   36.2130   28.1700   40.7520 C   0  0  0  0  0  0  0  0  0  0  0  0
   37.4790   25.3580   41.7850 H   0  0  0  0  0  0  0  0  0  0  0  0
   37.2780   24.7880   39.4790 H   0  0  0  0  0  0  0  0  0  0  0  0
   36.3920   26.2960   37.8410 H   0  0  0  0  0  0  0  0  0  0  0  0
   35.6740   28.5110   38.5610 H   0  0  0  0  0  0  0  0  0  0  0  0
   35.7760   29.5540   40.8370 C   0  0  0  0  0  0  0  0  0  0  0  0
   35.2740   30.4290   40.5490 H   0  0  0  0  0  0  0  0  0  0  0  0
   35.8780   30.5610   41.5400 O   0  0  0  0  0  0  0  0  0  0  0  0
   38.0550   27.4600   43.6790 C   0  0  0  0  0  0  0  0  0  0  0  0
   38.5090   26.4930   43.2780 H   0  0  0  0  0  0  0  0  0  0  0  0
   38.0120   27.5250   44.7560 H   0  0  0  0  0  0  0  0  0  0  0  0
   41.1190   28.9690   42.3080 C   0  0  0  0  0  0  0  0  0  0  0  0
   40.7550   30.3410   42.2010 C   0  0  0  0  0  0  0  0  0  0  0  0
   39.4720   30.6820   42.5870 C   0  0  0  0  0  0  0  0  0  0  0  0
   38.6410   29.7320   43.0360 N   0  0  0  0  0  0  0  0  0  0  0  0
   39.0400   28.4380   43.1190 C   0  0  0  0  0  0  0  0  0  0  0  0
   40.2490   28.0550   42.7640 N   0  0  0  0  0  0  0  0  0  0  0  0
   42.1270   28.7330   41.9990 H   0  0  0  0  0  0  0  0  0  0  0  0
   41.4080   31.1080   41.8450 H   0  0  0  0  0  0  0  0  0  0  0  0
   39.0970   31.6950   42.5440 H   0  0  0  0  0  0  0  0  0  0  0  0
  1  2  1  0  0  0  0
  1 17  1  0  0  0  0
  3  1  1  0  0  0  0
  4  1  1  0  0  0  0
  5  4  1  0  0  0  0
  5 10  1  0  0  0  0
  6  5  2  0  0  0  0
  7  8  2  0  0  0  0
  7  6  1  0  0  0  0
  8  9  1  0  0  0  0
  9 14  1  0  0  0  0
  9  4  2  0  0  0  0
 11  6  1  0  0  0  0
 12  7  1  0  0  0  0
 13  8  1  0  0  0  0
 14 16  2  0  0  0  0
 15 14  1  0  0  0  0
 17 19  1  0  0  0  0
 18 17  1  0  0  0  0
 20 25  1  0  0  0  0
 21 20  2  0  0  0  0
 21 22  1  0  0  0  0
 22 23  2  0  0  0  0
 23 24  1  0  0  0  0
 24 17  1  0  0  0  0
 25 24  2  0  0  0  0
 26 20  1  0  0  0  0
 27 21  1  0  0  0  0
 28 22  1  0  0  0  0
M  END
>  <minimizedAffinity>
-4.64319849

$$$$
