
 OpenBabel03252507533D

 32 34  0  0  1  0  0  0  0  0999 V2000
   46.9660   34.9700   42.0920 C   0  0  2  0  0  0  0  0  0  0  0  0
   46.3260   34.1950   40.9670 C   0  0  0  0  0  0  0  0  0  0  0  0
   47.5450   34.1290   40.0260 C   0  0  0  0  0  0  0  0  0  0  0  0
   48.7330   33.9950   40.9410 C   0  0  1  0  0  0  0  0  0  0  0  0
   48.1960   34.1000   42.3320 C   0  0  0  0  0  0  0  0  0  0  0  0
   47.2180   35.9630   41.7280 H   0  0  0  0  0  0  0  0  0  0  0  0
   46.0510   33.1810   41.3390 H   0  0  0  0  0  0  0  0  0  0  0  0
   45.4800   34.7230   40.4940 H   0  0  0  0  0  0  0  0  0  0  0  0
   47.5260   35.0720   39.4560 H   0  0  0  0  0  0  0  0  0  0  0  0
   47.4340   33.2750   39.3270 H   0  0  0  0  0  0  0  0  0  0  0  0
   49.4210   34.8300   40.7740 H   0  0  0  0  0  0  0  0  0  0  0  0
   48.8890   34.5560   43.0560 H   0  0  0  0  0  0  0  0  0  0  0  0
   47.6610   33.2070   42.7120 H   0  0  0  0  0  0  0  0  0  0  0  0
   44.4460   36.0420   44.6920 C   0  0  0  0  0  0  0  0  0  0  0  0
   45.1860   36.0650   43.5050 C   0  0  0  0  0  0  0  0  0  0  0  0
   46.1130   35.0360   43.3090 C   0  0  0  0  0  0  0  0  0  0  0  0
   46.2630   34.0580   44.2680 N   0  0  0  0  0  0  0  0  0  0  0  0
   45.5200   34.0840   45.4010 C   0  0  0  0  0  0  0  0  0  0  0  0
   44.6220   35.0650   45.6100 N   0  0  0  0  0  0  0  0  0  0  0  0
   43.7310   36.8410   44.8370 H   0  0  0  0  0  0  0  0  0  0  0  0
   45.0820   36.8160   42.7510 H   0  0  0  0  0  0  0  0  0  0  0  0
   45.7070   33.2730   46.0980 H   0  0  0  0  0  0  0  0  0  0  0  0
   49.4360   32.6750   40.8530 C   0  0  2  0  0  0  0  0  0  0  0  0
   49.3360   31.7600   41.9640 C   0  0  0  0  0  0  0  0  0  0  0  0
   50.6680   32.3540   41.5360 C   0  0  1  0  0  0  0  0  0  0  0  0
   49.3510   32.2520   39.8310 H   0  0  0  0  0  0  0  0  0  0  0  0
   49.1920   30.6610   41.7060 H   0  0  0  0  0  0  0  0  0  0  0  0
   49.2830   31.8570   43.0330 H   0  0  0  0  0  0  0  0  0  0  0  0
   51.1610   33.1530   42.0840 H   0  0  0  0  0  0  0  0  0  0  0  0
   51.6440   31.3830   40.9480 C   0  0  0  0  0  0  0  0  0  0  0  0
   51.5540   30.2890   41.0530 H   0  0  0  0  0  0  0  0  0  0  0  0
   52.6410   31.7000   40.2900 O   0  0  0  0  0  0  0  0  0  0  0  0
  1  6  1  6  0  0  0
  1  5  1  0  0  0  0
  1 16  1  0  0  0  0
  2  7  1  0  0  0  0
  2  1  1  0  0  0  0
  3  4  1  0  0  0  0
  3  2  1  0  0  0  0
  4 11  1  6  0  0  0
  4  5  1  0  0  0  0
  5 13  1  0  0  0  0
  5 12  1  0  0  0  0
  8  2  1  0  0  0  0
  9  3  1  0  0  0  0
 10  3  1  0  0  0  0
 14 20  1  0  0  0  0
 14 19  1  0  0  0  0
 15 14  2  0  0  0  0
 16 15  1  0  0  0  0
 16 17  2  0  0  0  0
 17 18  1  0  0  0  0
 18 19  2  0  0  0  0
 18 22  1  0  0  0  0
 21 15  1  0  0  0  0
 23 26  1  6  0  0  0
 23  4  1  0  0  0  0
 23 25  1  0  0  0  0
 23 24  1  0  0  0  0
 24 28  1  0  0  0  0
 25 24  1  0  0  0  0
 25 29  1  1  0  0  0
 27 24  1  0  0  0  0
 30 31  1  0  0  0  0
 30 25  1  0  0  0  0
 32 30  2  0  0  0  0
M  END
>  <minimizedAffinity>
-4.76127529

>  <minimizedRMSD>
0.458695233

$$$$
