
 OpenBabel03242523183D

 31 33  0  0  0  0  0  0  0  0999 V2000
   47.5090   32.8290   43.9150 C   0  0  0  0  0  0  0  0  0  0  0  0
   48.3440   33.3800   43.0220 C   0  0  0  0  0  0  0  0  0  0  0  0
   49.1990   32.4870   42.4100 C   0  0  0  0  0  0  0  0  0  0  0  0
   49.1210   31.1320   42.7670 N   0  0  0  0  0  0  0  0  0  0  0  0
   48.2780   30.6620   43.6540 C   0  0  0  0  0  0  0  0  0  0  0  0
   47.4050   31.5260   44.2870 N   0  0  0  0  0  0  0  0  0  0  0  0
   49.9440   32.7560   41.6560 H   0  0  0  0  0  0  0  0  0  0  0  0
   48.3350   29.5940   43.8290 H   0  0  0  0  0  0  0  0  0  0  0  0
   48.4970   34.7640   42.7530 C   0  0  0  0  0  0  0  0  0  0  0  0
   49.5300   35.3960   42.1320 C   0  0  0  0  0  0  0  0  0  0  0  0
   48.3310   35.2210   41.2410 C   0  0  0  0  0  0  0  0  0  0  0  0
   47.9910   35.4210   43.4860 H   0  0  0  0  0  0  0  0  0  0  0  0
   50.4160   34.7880   41.7800 H   0  0  0  0  0  0  0  0  0  0  0  0
   49.8590   36.4600   42.2020 H   0  0  0  0  0  0  0  0  0  0  0  0
   48.2990   34.3780   40.5410 H   0  0  0  0  0  0  0  0  0  0  0  0
   47.6530   36.0690   41.0950 H   0  0  0  0  0  0  0  0  0  0  0  0
   46.4330   33.5170   44.6430 C   0  0  0  0  0  0  0  0  0  0  0  0
   45.8650   33.8690   45.6470 O   0  0  0  0  0  0  0  0  0  0  0  0
   44.5840   31.7100   42.9660 Cl  0  0  0  0  0  0  0  0  0  0  0  0
   44.6070   33.4670   42.8000 C   0  0  0  0  0  0  0  0  0  0  0  0
   45.5100   34.1380   43.6520 C   0  0  0  0  0  0  0  0  0  0  0  0
   45.4480   35.5070   43.4410 C   0  0  0  0  0  0  0  0  0  0  0  0
   44.6950   36.2130   42.5860 C   0  0  0  0  0  0  0  0  0  0  0  0
   43.8500   35.4870   41.7960 C   0  0  0  0  0  0  0  0  0  0  0  0
   43.7920   34.1420   41.8870 C   0  0  0  0  0  0  0  0  0  0  0  0
   46.0720   36.1910   44.0560 H   0  0  0  0  0  0  0  0  0  0  0  0
   44.6860   37.2780   42.4570 H   0  0  0  0  0  0  0  0  0  0  0  0
   43.1770   35.8990   41.0560 H   0  0  0  0  0  0  0  0  0  0  0  0
   42.9080   33.3040   41.0740 C   0  0  0  0  0  0  0  0  0  0  0  0
   43.2430   32.7340   40.2350 H   0  0  0  0  0  0  0  0  0  0  0  0
   41.6980   33.1930   41.2990 O   0  0  0  0  0  0  0  0  0  0  0  0
  1  6  1  0  0  0  0
  1 17  1  0  0  0  0
  2  1  2  0  0  0  0
  3  4  2  0  0  0  0
  3  2  1  0  0  0  0
  4  5  1  0  0  0  0
  5  8  1  0  0  0  0
  5  6  2  0  0  0  0
  7  3  1  0  0  0  0
  9  2  1  0  0  0  0
  9 12  1  0  0  0  0
 10 14  1  0  0  0  0
 10  9  1  0  0  0  0
 11 10  1  0  0  0  0
 11  9  1  0  0  0  0
 13 10  1  0  0  0  0
 15 11  1  0  0  0  0
 16 11  1  0  0  0  0
 17 18  2  0  0  0  0
 20 19  1  0  0  0  0
 20 21  1  0  0  0  0
 21 17  1  0  0  0  0
 22 21  2  0  0  0  0
 22 26  1  0  0  0  0
 23 22  1  0  0  0  0
 24 25  1  0  0  0  0
 24 23  2  0  0  0  0
 25 20  2  0  0  0  0
 27 23  1  0  0  0  0
 28 24  1  0  0  0  0
 29 31  2  0  0  0  0
 29 25  1  0  0  0  0
 30 29  1  0  0  0  0
M  END
>  <minimizedAffinity>
-4.99087191

>  <minimizedRMSD>
0.103654936

$$$$
