
 OpenBabel03242523193D

 31 33  0  0  0  0  0  0  0  0999 V2000
   47.5070   32.8250   43.9120 C   0  0  0  0  0  0  0  0  0  0  0  0
   48.3450   33.3760   43.0230 C   0  0  0  0  0  0  0  0  0  0  0  0
   49.1990   32.4820   42.4100 C   0  0  0  0  0  0  0  0  0  0  0  0
   49.1150   31.1270   42.7630 N   0  0  0  0  0  0  0  0  0  0  0  0
   48.2690   30.6570   43.6470 C   0  0  0  0  0  0  0  0  0  0  0  0
   47.3970   31.5220   44.2810 N   0  0  0  0  0  0  0  0  0  0  0  0
   49.9460   32.7510   41.6580 H   0  0  0  0  0  0  0  0  0  0  0  0
   48.3220   29.5880   43.8190 H   0  0  0  0  0  0  0  0  0  0  0  0
   48.5040   34.7610   42.7580 C   0  0  0  0  0  0  0  0  0  0  0  0
   49.5400   35.3900   42.1410 C   0  0  0  0  0  0  0  0  0  0  0  0
   48.3420   35.2220   41.2470 C   0  0  0  0  0  0  0  0  0  0  0  0
   47.9990   35.4170   43.4920 H   0  0  0  0  0  0  0  0  0  0  0  0
   50.4240   34.7800   41.7890 H   0  0  0  0  0  0  0  0  0  0  0  0
   49.8730   36.4530   42.2150 H   0  0  0  0  0  0  0  0  0  0  0  0
   48.3090   34.3810   40.5450 H   0  0  0  0  0  0  0  0  0  0  0  0
   47.6680   36.0730   41.1020 H   0  0  0  0  0  0  0  0  0  0  0  0
   46.4320   33.5150   44.6410 C   0  0  0  0  0  0  0  0  0  0  0  0
   45.8650   33.8680   45.6440 O   0  0  0  0  0  0  0  0  0  0  0  0
   44.5790   31.7100   42.9660 Cl  0  0  0  0  0  0  0  0  0  0  0  0
   44.6050   33.4670   42.7980 C   0  0  0  0  0  0  0  0  0  0  0  0
   45.5090   34.1370   43.6500 C   0  0  0  0  0  0  0  0  0  0  0  0
   45.4500   35.5060   43.4370 C   0  0  0  0  0  0  0  0  0  0  0  0
   44.6970   36.2120   42.5820 C   0  0  0  0  0  0  0  0  0  0  0  0
   43.8510   35.4870   41.7930 C   0  0  0  0  0  0  0  0  0  0  0  0
   43.7900   34.1420   41.8850 C   0  0  0  0  0  0  0  0  0  0  0  0
   46.0750   36.1890   44.0520 H   0  0  0  0  0  0  0  0  0  0  0  0
   44.6900   37.2770   42.4520 H   0  0  0  0  0  0  0  0  0  0  0  0
   43.1780   35.8990   41.0530 H   0  0  0  0  0  0  0  0  0  0  0  0
   42.9050   33.3050   41.0730 C   0  0  0  0  0  0  0  0  0  0  0  0
   43.2380   32.7360   40.2340 H   0  0  0  0  0  0  0  0  0  0  0  0
   41.6950   33.1950   41.3010 O   0  0  0  0  0  0  0  0  0  0  0  0
  1  6  1  0  0  0  0
  1 17  1  0  0  0  0
  2  1  2  0  0  0  0
  3  4  2  0  0  0  0
  3  2  1  0  0  0  0
  4  5  1  0  0  0  0
  5  8  1  0  0  0  0
  5  6  2  0  0  0  0
  7  3  1  0  0  0  0
  9  2  1  0  0  0  0
  9 12  1  0  0  0  0
 10 14  1  0  0  0  0
 10  9  1  0  0  0  0
 11 10  1  0  0  0  0
 11  9  1  0  0  0  0
 13 10  1  0  0  0  0
 15 11  1  0  0  0  0
 16 11  1  0  0  0  0
 17 18  2  0  0  0  0
 20 19  1  0  0  0  0
 20 21  1  0  0  0  0
 21 17  1  0  0  0  0
 22 21  2  0  0  0  0
 22 26  1  0  0  0  0
 23 22  1  0  0  0  0
 24 25  1  0  0  0  0
 24 23  2  0  0  0  0
 25 20  2  0  0  0  0
 27 23  1  0  0  0  0
 28 24  1  0  0  0  0
 29 31  2  0  0  0  0
 29 25  1  0  0  0  0
 30 29  1  0  0  0  0
M  END
>  <minimizedAffinity>
-4.98840427

>  <minimizedRMSD>
0.196281269

$$$$
