
 OpenBabel03242523183D

 31 33  0  0  0  0  0  0  0  0999 V2000
   47.3930   32.8150   44.0320 C   0  0  0  0  0  0  0  0  0  0  0  0
   48.2520   33.3180   43.1340 C   0  0  0  0  0  0  0  0  0  0  0  0
   49.1050   32.3900   42.5740 C   0  0  0  0  0  0  0  0  0  0  0  0
   49.0000   31.0510   42.9820 N   0  0  0  0  0  0  0  0  0  0  0  0
   48.1340   30.6290   43.8720 C   0  0  0  0  0  0  0  0  0  0  0  0
   47.2630   31.5300   44.4540 N   0  0  0  0  0  0  0  0  0  0  0  0
   49.8670   32.6180   41.8230 H   0  0  0  0  0  0  0  0  0  0  0  0
   48.1730   29.5680   44.0900 H   0  0  0  0  0  0  0  0  0  0  0  0
   48.4310   34.6880   42.8130 C   0  0  0  0  0  0  0  0  0  0  0  0
   49.4410   35.2670   42.1080 C   0  0  0  0  0  0  0  0  0  0  0  0
   48.1830   35.1060   41.3000 C   0  0  0  0  0  0  0  0  0  0  0  0
   47.9940   35.3830   43.5550 H   0  0  0  0  0  0  0  0  0  0  0  0
   50.2840   34.6200   41.7210 H   0  0  0  0  0  0  0  0  0  0  0  0
   49.8080   36.3210   42.1250 H   0  0  0  0  0  0  0  0  0  0  0  0
   48.0800   34.2450   40.6310 H   0  0  0  0  0  0  0  0  0  0  0  0
   47.5240   35.9720   41.1710 H   0  0  0  0  0  0  0  0  0  0  0  0
   46.3150   33.5470   44.7120 C   0  0  0  0  0  0  0  0  0  0  0  0
   45.7290   33.9390   45.6900 O   0  0  0  0  0  0  0  0  0  0  0  0
   44.6120   31.7250   42.9030 Cl  0  0  0  0  0  0  0  0  0  0  0  0
   44.5990   33.4850   42.7670 C   0  0  0  0  0  0  0  0  0  0  0  0
   45.4340   34.1630   43.6810 C   0  0  0  0  0  0  0  0  0  0  0  0
   45.3490   35.5340   43.4890 C   0  0  0  0  0  0  0  0  0  0  0  0
   44.6270   36.2360   42.6050 C   0  0  0  0  0  0  0  0  0  0  0  0
   43.8470   35.5030   41.7560 C   0  0  0  0  0  0  0  0  0  0  0  0
   43.8190   34.1560   41.8200 C   0  0  0  0  0  0  0  0  0  0  0  0
   45.9190   36.2210   44.1500 H   0  0  0  0  0  0  0  0  0  0  0  0
   44.5980   37.3020   42.4930 H   0  0  0  0  0  0  0  0  0  0  0  0
   43.2070   35.9110   40.9850 H   0  0  0  0  0  0  0  0  0  0  0  0
   43.0060   33.3100   40.9440 C   0  0  0  0  0  0  0  0  0  0  0  0
   43.2650   32.3090   40.6820 H   0  0  0  0  0  0  0  0  0  0  0  0
   41.9450   33.6980   40.4390 O   0  0  0  0  0  0  0  0  0  0  0  0
  1  6  1  0  0  0  0
  1 17  1  0  0  0  0
  2  1  2  0  0  0  0
  3  4  2  0  0  0  0
  3  2  1  0  0  0  0
  4  5  1  0  0  0  0
  5  8  1  0  0  0  0
  5  6  2  0  0  0  0
  7  3  1  0  0  0  0
  9  2  1  0  0  0  0
  9 12  1  0  0  0  0
 10 14  1  0  0  0  0
 10  9  1  0  0  0  0
 11 10  1  0  0  0  0
 11  9  1  0  0  0  0
 13 10  1  0  0  0  0
 15 11  1  0  0  0  0
 16 11  1  0  0  0  0
 17 18  2  0  0  0  0
 20 19  1  0  0  0  0
 20 21  1  0  0  0  0
 21 17  1  0  0  0  0
 22 21  2  0  0  0  0
 22 26  1  0  0  0  0
 23 22  1  0  0  0  0
 24 25  1  0  0  0  0
 24 23  2  0  0  0  0
 25 20  2  0  0  0  0
 27 23  1  0  0  0  0
 28 24  1  0  0  0  0
 29 25  1  0  0  0  0
 30 29  1  0  0  0  0
 31 29  2  0  0  0  0
M  END
>  <minimizedAffinity>
-4.9586215

>  <minimizedRMSD>
0.482434779

$$$$
