
 OpenBabel03242523193D

 31 33  0  0  0  0  0  0  0  0999 V2000
   47.5010   32.8200   43.9120 C   0  0  0  0  0  0  0  0  0  0  0  0
   48.3450   33.3680   43.0270 C   0  0  0  0  0  0  0  0  0  0  0  0
   49.1960   32.4720   42.4150 C   0  0  0  0  0  0  0  0  0  0  0  0
   49.1040   31.1160   42.7640 N   0  0  0  0  0  0  0  0  0  0  0  0
   48.2530   30.6490   43.6440 C   0  0  0  0  0  0  0  0  0  0  0  0
   47.3830   31.5160   44.2770 N   0  0  0  0  0  0  0  0  0  0  0  0
   49.9470   32.7390   41.6660 H   0  0  0  0  0  0  0  0  0  0  0  0
   48.3000   29.5780   43.8130 H   0  0  0  0  0  0  0  0  0  0  0  0
   48.5120   34.7530   42.7660 C   0  0  0  0  0  0  0  0  0  0  0  0
   49.5520   35.3780   42.1520 C   0  0  0  0  0  0  0  0  0  0  0  0
   48.3550   35.2190   41.2560 C   0  0  0  0  0  0  0  0  0  0  0  0
   48.0100   35.4110   43.5010 H   0  0  0  0  0  0  0  0  0  0  0  0
   50.4340   34.7650   41.8000 H   0  0  0  0  0  0  0  0  0  0  0  0
   49.8910   36.4390   42.2290 H   0  0  0  0  0  0  0  0  0  0  0  0
   48.3180   34.3810   40.5510 H   0  0  0  0  0  0  0  0  0  0  0  0
   47.6860   36.0740   41.1120 H   0  0  0  0  0  0  0  0  0  0  0  0
   46.4270   33.5140   44.6390 C   0  0  0  0  0  0  0  0  0  0  0  0
   45.8600   33.8700   45.6410 O   0  0  0  0  0  0  0  0  0  0  0  0
   44.5690   31.7100   42.9680 Cl  0  0  0  0  0  0  0  0  0  0  0  0
   44.6010   33.4670   42.7960 C   0  0  0  0  0  0  0  0  0  0  0  0
   45.5070   34.1370   43.6460 C   0  0  0  0  0  0  0  0  0  0  0  0
   45.4520   35.5050   43.4300 C   0  0  0  0  0  0  0  0  0  0  0  0
   44.7020   36.2120   42.5740 C   0  0  0  0  0  0  0  0  0  0  0  0
   43.8530   35.4870   41.7860 C   0  0  0  0  0  0  0  0  0  0  0  0
   43.7880   34.1430   41.8810 C   0  0  0  0  0  0  0  0  0  0  0  0
   46.0800   36.1880   44.0430 H   0  0  0  0  0  0  0  0  0  0  0  0
   44.6980   37.2760   42.4410 H   0  0  0  0  0  0  0  0  0  0  0  0
   43.1820   35.9000   41.0450 H   0  0  0  0  0  0  0  0  0  0  0  0
   42.9010   33.3070   41.0710 C   0  0  0  0  0  0  0  0  0  0  0  0
   43.2320   32.7360   40.2310 H   0  0  0  0  0  0  0  0  0  0  0  0
   41.6910   33.1980   41.3000 O   0  0  0  0  0  0  0  0  0  0  0  0
  1  6  1  0  0  0  0
  1 17  1  0  0  0  0
  2  1  2  0  0  0  0
  3  4  2  0  0  0  0
  3  2  1  0  0  0  0
  4  5  1  0  0  0  0
  5  8  1  0  0  0  0
  5  6  2  0  0  0  0
  7  3  1  0  0  0  0
  9  2  1  0  0  0  0
  9 12  1  0  0  0  0
 10 14  1  0  0  0  0
 10  9  1  0  0  0  0
 11 10  1  0  0  0  0
 11  9  1  0  0  0  0
 13 10  1  0  0  0  0
 15 11  1  0  0  0  0
 16 11  1  0  0  0  0
 17 18  2  0  0  0  0
 20 19  1  0  0  0  0
 20 21  1  0  0  0  0
 21 17  1  0  0  0  0
 22 21  2  0  0  0  0
 22 26  1  0  0  0  0
 23 22  1  0  0  0  0
 24 25  1  0  0  0  0
 24 23  2  0  0  0  0
 25 20  2  0  0  0  0
 27 23  1  0  0  0  0
 28 24  1  0  0  0  0
 29 31  2  0  0  0  0
 29 25  1  0  0  0  0
 30 29  1  0  0  0  0
M  END
>  <minimizedAffinity>
-4.98843527

>  <minimizedRMSD>
0.159563377

$$$$
