
 OpenBabel03242523193D

 31 33  0  0  0  0  0  0  0  0999 V2000
   47.5010   32.8230   43.9440 C   0  0  0  0  0  0  0  0  0  0  0  0
   48.3310   33.3680   43.0430 C   0  0  0  0  0  0  0  0  0  0  0  0
   49.1920   32.4740   42.4410 C   0  0  0  0  0  0  0  0  0  0  0  0
   49.1230   31.1240   42.8150 N   0  0  0  0  0  0  0  0  0  0  0  0
   48.2850   30.6590   43.7090 C   0  0  0  0  0  0  0  0  0  0  0  0
   47.4070   31.5240   44.3330 N   0  0  0  0  0  0  0  0  0  0  0  0
   49.9340   32.7390   41.6830 H   0  0  0  0  0  0  0  0  0  0  0  0
   48.3500   29.5930   43.8970 H   0  0  0  0  0  0  0  0  0  0  0  0
   48.4750   34.7510   42.7570 C   0  0  0  0  0  0  0  0  0  0  0  0
   49.4920   35.3780   42.1070 C   0  0  0  0  0  0  0  0  0  0  0  0
   48.2750   35.1910   41.2440 C   0  0  0  0  0  0  0  0  0  0  0  0
   47.9830   35.4140   43.4930 H   0  0  0  0  0  0  0  0  0  0  0  0
   50.3720   34.7690   41.7430 H   0  0  0  0  0  0  0  0  0  0  0  0
   49.8200   36.4440   42.1590 H   0  0  0  0  0  0  0  0  0  0  0  0
   48.2310   34.3400   40.5540 H   0  0  0  0  0  0  0  0  0  0  0  0
   47.5920   36.0350   41.1030 H   0  0  0  0  0  0  0  0  0  0  0  0
   46.4220   33.5130   44.6650 C   0  0  0  0  0  0  0  0  0  0  0  0
   45.8490   33.8670   45.6650 O   0  0  0  0  0  0  0  0  0  0  0  0
   44.6270   31.6990   42.9370 Cl  0  0  0  0  0  0  0  0  0  0  0  0
   44.6260   33.4590   42.7930 C   0  0  0  0  0  0  0  0  0  0  0  0
   45.5040   34.1330   43.6680 C   0  0  0  0  0  0  0  0  0  0  0  0
   45.4250   35.5030   43.4730 C   0  0  0  0  0  0  0  0  0  0  0  0
   44.6740   36.2080   42.6160 C   0  0  0  0  0  0  0  0  0  0  0  0
   43.8520   35.4790   41.8040 C   0  0  0  0  0  0  0  0  0  0  0  0
   43.8140   34.1330   41.8760 C   0  0  0  0  0  0  0  0  0  0  0  0
   46.0280   36.1880   44.1070 H   0  0  0  0  0  0  0  0  0  0  0  0
   44.6500   37.2750   42.5000 H   0  0  0  0  0  0  0  0  0  0  0  0
   43.1840   35.8900   41.0590 H   0  0  0  0  0  0  0  0  0  0  0  0
   42.9560   33.2920   41.0390 C   0  0  0  0  0  0  0  0  0  0  0  0
   43.1460   32.2580   40.8510 H   0  0  0  0  0  0  0  0  0  0  0  0
   41.9390   33.7210   40.4810 O   0  0  0  0  0  0  0  0  0  0  0  0
  1  6  1  0  0  0  0
  1 17  1  0  0  0  0
  2  1  2  0  0  0  0
  3  4  2  0  0  0  0
  3  2  1  0  0  0  0
  4  5  1  0  0  0  0
  5  8  1  0  0  0  0
  5  6  2  0  0  0  0
  7  3  1  0  0  0  0
  9  2  1  0  0  0  0
  9 12  1  0  0  0  0
 10 14  1  0  0  0  0
 10  9  1  0  0  0  0
 11 10  1  0  0  0  0
 11  9  1  0  0  0  0
 13 10  1  0  0  0  0
 15 11  1  0  0  0  0
 16 11  1  0  0  0  0
 17 18  2  0  0  0  0
 20 19  1  0  0  0  0
 20 21  1  0  0  0  0
 21 17  1  0  0  0  0
 22 21  2  0  0  0  0
 22 26  1  0  0  0  0
 23 22  1  0  0  0  0
 24 25  1  0  0  0  0
 24 23  2  0  0  0  0
 25 20  2  0  0  0  0
 27 23  1  0  0  0  0
 28 24  1  0  0  0  0
 29 25  1  0  0  0  0
 30 29  1  0  0  0  0
 31 29  2  0  0  0  0
M  END
>  <minimizedAffinity>
-4.98207998

>  <minimizedRMSD>
0.112405784

$$$$
