
 OpenBabel03242523183D

 31 33  0  0  0  0  0  0  0  0999 V2000
   47.5030   32.8250   43.9380 C   0  0  0  0  0  0  0  0  0  0  0  0
   48.3330   33.3720   43.0390 C   0  0  0  0  0  0  0  0  0  0  0  0
   49.1940   32.4790   42.4360 C   0  0  0  0  0  0  0  0  0  0  0  0
   49.1260   31.1280   42.8080 N   0  0  0  0  0  0  0  0  0  0  0  0
   48.2880   30.6620   43.7010 C   0  0  0  0  0  0  0  0  0  0  0  0
   47.4080   31.5260   44.3250 N   0  0  0  0  0  0  0  0  0  0  0  0
   49.9360   32.7450   41.6780 H   0  0  0  0  0  0  0  0  0  0  0  0
   48.3530   29.5950   43.8880 H   0  0  0  0  0  0  0  0  0  0  0  0
   48.4760   34.7550   42.7540 C   0  0  0  0  0  0  0  0  0  0  0  0
   49.4940   35.3840   42.1080 C   0  0  0  0  0  0  0  0  0  0  0  0
   48.2790   35.1970   41.2410 C   0  0  0  0  0  0  0  0  0  0  0  0
   47.9820   35.4170   43.4910 H   0  0  0  0  0  0  0  0  0  0  0  0
   50.3760   34.7760   41.7450 H   0  0  0  0  0  0  0  0  0  0  0  0
   49.8210   36.4500   42.1620 H   0  0  0  0  0  0  0  0  0  0  0  0
   48.2370   34.3470   40.5500 H   0  0  0  0  0  0  0  0  0  0  0  0
   47.5960   36.0410   41.1000 H   0  0  0  0  0  0  0  0  0  0  0  0
   46.4230   33.5140   44.6600 C   0  0  0  0  0  0  0  0  0  0  0  0
   45.8500   33.8670   45.6600 O   0  0  0  0  0  0  0  0  0  0  0  0
   44.6250   31.6990   42.9360 Cl  0  0  0  0  0  0  0  0  0  0  0  0
   44.6240   33.4590   42.7910 C   0  0  0  0  0  0  0  0  0  0  0  0
   45.5050   34.1330   43.6630 C   0  0  0  0  0  0  0  0  0  0  0  0
   45.4260   35.5030   43.4670 C   0  0  0  0  0  0  0  0  0  0  0  0
   44.6740   36.2080   42.6100 C   0  0  0  0  0  0  0  0  0  0  0  0
   43.8510   35.4790   41.8000 C   0  0  0  0  0  0  0  0  0  0  0  0
   43.8120   34.1320   41.8740 C   0  0  0  0  0  0  0  0  0  0  0  0
   46.0310   36.1890   44.1000 H   0  0  0  0  0  0  0  0  0  0  0  0
   44.6510   37.2740   42.4940 H   0  0  0  0  0  0  0  0  0  0  0  0
   43.1820   35.8890   41.0550 H   0  0  0  0  0  0  0  0  0  0  0  0
   42.9520   33.2910   41.0390 C   0  0  0  0  0  0  0  0  0  0  0  0
   43.1400   32.2560   40.8540 H   0  0  0  0  0  0  0  0  0  0  0  0
   41.9370   33.7210   40.4790 O   0  0  0  0  0  0  0  0  0  0  0  0
  1  6  1  0  0  0  0
  1 17  1  0  0  0  0
  2  1  2  0  0  0  0
  3  4  2  0  0  0  0
  3  2  1  0  0  0  0
  4  5  1  0  0  0  0
  5  8  1  0  0  0  0
  5  6  2  0  0  0  0
  7  3  1  0  0  0  0
  9  2  1  0  0  0  0
  9 12  1  0  0  0  0
 10 14  1  0  0  0  0
 10  9  1  0  0  0  0
 11 10  1  0  0  0  0
 11  9  1  0  0  0  0
 13 10  1  0  0  0  0
 15 11  1  0  0  0  0
 16 11  1  0  0  0  0
 17 18  2  0  0  0  0
 20 19  1  0  0  0  0
 20 21  1  0  0  0  0
 21 17  1  0  0  0  0
 22 21  2  0  0  0  0
 22 26  1  0  0  0  0
 23 22  1  0  0  0  0
 24 25  1  0  0  0  0
 24 23  2  0  0  0  0
 25 20  2  0  0  0  0
 27 23  1  0  0  0  0
 28 24  1  0  0  0  0
 29 25  1  0  0  0  0
 30 29  1  0  0  0  0
 31 29  2  0  0  0  0
M  END
>  <minimizedAffinity>
-4.97564173

>  <minimizedRMSD>
0.0697181895

$$$$
