
 OpenBabel03242521213D

 30 32  0  0  0  0  0  0  0  0999 V2000
   45.7240   34.0430   45.1300 C   0  0  0  0  0  0  0  0  0  0  0  0
   44.9170   35.1200   45.2970 C   0  0  0  0  0  0  0  0  0  0  0  0
   44.6240   36.0170   44.2930 C   0  0  0  0  0  0  0  0  0  0  0  0
   45.1910   35.7750   43.0950 N   0  0  0  0  0  0  0  0  0  0  0  0
   45.9890   34.7140   42.9210 C   0  0  0  0  0  0  0  0  0  0  0  0
   46.2790   33.8250   43.9150 N   0  0  0  0  0  0  0  0  0  0  0  0
   44.4760   35.2880   46.2720 H   0  0  0  0  0  0  0  0  0  0  0  0
   43.9840   36.8760   44.4160 H   0  0  0  0  0  0  0  0  0  0  0  0
   46.6080   34.4540   41.6020 C   0  0  0  0  0  0  0  0  0  0  0  0
   45.9190   33.7610   40.6440 C   0  0  0  0  0  0  0  0  0  0  0  0
   46.4360   33.4840   39.3940 C   0  0  0  0  0  0  0  0  0  0  0  0
   47.7180   33.9340   39.1010 C   0  0  0  0  0  0  0  0  0  0  0  0
   48.4020   34.6220   40.0520 C   0  0  0  0  0  0  0  0  0  0  0  0
   47.8890   34.9010   41.3050 C   0  0  0  0  0  0  0  0  0  0  0  0
   44.9230   33.4150   40.8810 H   0  0  0  0  0  0  0  0  0  0  0  0
   45.8220   32.9260   38.6850 H   0  0  0  0  0  0  0  0  0  0  0  0
   48.1410   33.7270   38.1250 H   0  0  0  0  0  0  0  0  0  0  0  0
   49.3980   34.9610   39.7980 H   0  0  0  0  0  0  0  0  0  0  0  0
   48.6610   35.6450   42.2980 C   0  0  0  0  0  0  0  0  0  0  0  0
   48.3070   36.5850   42.6470 H   0  0  0  0  0  0  0  0  0  0  0  0
   49.7360   35.1460   42.7160 O   0  0  0  0  0  0  0  0  0  0  0  0
   47.3260   31.3930   47.0960 C   0  0  0  0  0  0  0  0  0  0  0  0
   46.5500   31.3780   48.2530 C   0  0  0  0  0  0  0  0  0  0  0  0
   45.4830   32.2680   48.3680 C   0  0  0  0  0  0  0  0  0  0  0  0
   45.2410   33.1280   47.3270 N   0  0  0  0  0  0  0  0  0  0  0  0
   46.0060   33.1200   46.2190 C   0  0  0  0  0  0  0  0  0  0  0  0
   47.0280   32.2660   46.1100 N   0  0  0  0  0  0  0  0  0  0  0  0
   48.1720   30.7310   46.9340 H   0  0  0  0  0  0  0  0  0  0  0  0
   46.7910   30.6770   49.0410 H   0  0  0  0  0  0  0  0  0  0  0  0
   44.8600   32.2800   49.2590 H   0  0  0  0  0  0  0  0  0  0  0  0
  1  2  1  0  0  0  0
  1 26  1  0  0  0  0
  2  7  1  0  0  0  0
  3  8  1  0  0  0  0
  3  2  2  0  0  0  0
  4  3  1  0  0  0  0
  5  4  2  0  0  0  0
  5  6  1  0  0  0  0
  6  1  2  0  0  0  0
  9  5  1  0  0  0  0
 10 15  1  0  0  0  0
 10  9  2  0  0  0  0
 11 10  1  0  0  0  0
 12 11  2  0  0  0  0
 12 13  1  0  0  0  0
 13 14  2  0  0  0  0
 14  9  1  0  0  0  0
 14 19  1  0  0  0  0
 16 11  1  0  0  0  0
 17 12  1  0  0  0  0
 18 13  1  0  0  0  0
 19 20  1  0  0  0  0
 19 21  2  0  0  0  0
 22 23  1  0  0  0  0
 23 24  2  0  0  0  0
 23 29  1  0  0  0  0
 24 30  1  0  0  0  0
 25 24  1  0  0  0  0
 26 25  2  0  0  0  0
 27 26  1  0  0  0  0
 27 22  2  0  0  0  0
 28 22  1  0  0  0  0
M  END
>  <minimizedAffinity>
-5.94510508

>  <minimizedRMSD>
1.24008691

$$$$
