
 OpenBabel03242521223D

 30 32  0  0  0  0  0  0  0  0999 V2000
   39.2320   31.5190   39.0900 C   0  0  0  0  0  0  0  0  0  0  0  0
   38.4550   32.6300   39.0710 C   0  0  0  0  0  0  0  0  0  0  0  0
   37.3320   32.7910   39.8550 C   0  0  0  0  0  0  0  0  0  0  0  0
   37.0250   31.7640   40.6700 N   0  0  0  0  0  0  0  0  0  0  0  0
   37.7860   30.6620   40.6950 C   0  0  0  0  0  0  0  0  0  0  0  0
   38.8970   30.5030   39.9200 N   0  0  0  0  0  0  0  0  0  0  0  0
   38.7280   33.4400   38.4050 H   0  0  0  0  0  0  0  0  0  0  0  0
   36.7090   33.6710   39.8460 H   0  0  0  0  0  0  0  0  0  0  0  0
   37.4410   29.5380   41.5930 C   0  0  0  0  0  0  0  0  0  0  0  0
   38.0810   29.3960   42.7950 C   0  0  0  0  0  0  0  0  0  0  0  0
   37.8100   28.3730   43.6800 C   0  0  0  0  0  0  0  0  0  0  0  0
   36.8370   27.4440   43.3280 C   0  0  0  0  0  0  0  0  0  0  0  0
   36.2010   27.5840   42.1350 C   0  0  0  0  0  0  0  0  0  0  0  0
   36.4710   28.6070   41.2460 C   0  0  0  0  0  0  0  0  0  0  0  0
   38.8360   30.1240   43.0600 H   0  0  0  0  0  0  0  0  0  0  0  0
   38.3640   28.3300   44.6190 H   0  0  0  0  0  0  0  0  0  0  0  0
   36.6090   26.6320   44.0090 H   0  0  0  0  0  0  0  0  0  0  0  0
   35.4490   26.8470   41.8850 H   0  0  0  0  0  0  0  0  0  0  0  0
   35.7620   28.7190   39.9730 C   0  0  0  0  0  0  0  0  0  0  0  0
   36.1940   28.3150   39.0890 H   0  0  0  0  0  0  0  0  0  0  0  0
   34.6470   29.2990   39.9590 O   0  0  0  0  0  0  0  0  0  0  0  0
   41.9070   30.0140   37.0830 C   0  0  0  0  0  0  0  0  0  0  0  0
   42.6200   31.1340   36.6600 C   0  0  0  0  0  0  0  0  0  0  0  0
   42.1940   32.4010   37.0560 C   0  0  0  0  0  0  0  0  0  0  0  0
   41.0790   32.4910   37.8510 N   0  0  0  0  0  0  0  0  0  0  0  0
   40.4100   31.3930   38.2450 C   0  0  0  0  0  0  0  0  0  0  0  0
   40.8200   30.1780   37.8660 N   0  0  0  0  0  0  0  0  0  0  0  0
   42.1780   28.9960   36.8160 H   0  0  0  0  0  0  0  0  0  0  0  0
   43.4910   30.9990   36.0330 H   0  0  0  0  0  0  0  0  0  0  0  0
   42.7300   33.2940   36.7420 H   0  0  0  0  0  0  0  0  0  0  0  0
  1  6  1  0  0  0  0
  2  1  2  0  0  0  0
  2  3  1  0  0  0  0
  3  4  2  0  0  0  0
  4  5  1  0  0  0  0
  5  9  1  0  0  0  0
  6  5  2  0  0  0  0
  7  2  1  0  0  0  0
  8  3  1  0  0  0  0
  9 10  1  0  0  0  0
 10 15  1  0  0  0  0
 10 11  2  0  0  0  0
 11 16  1  0  0  0  0
 12 11  1  0  0  0  0
 12 17  1  0  0  0  0
 13 12  2  0  0  0  0
 14  9  2  0  0  0  0
 14 13  1  0  0  0  0
 18 13  1  0  0  0  0
 19 14  1  0  0  0  0
 20 19  1  0  0  0  0
 21 19  2  0  0  0  0
 22 27  1  0  0  0  0
 23 24  1  0  0  0  0
 23 22  2  0  0  0  0
 24 25  2  0  0  0  0
 25 26  1  0  0  0  0
 26  1  1  0  0  0  0
 27 26  2  0  0  0  0
 28 22  1  0  0  0  0
 29 23  1  0  0  0  0
 30 24  1  0  0  0  0
M  END
>  <minimizedAffinity>
-5.20075321

$$$$

 OpenBabel03242521223D

 30 32  0  0  0  0  0  0  0  0999 V2000
   37.4430   28.9840   41.3580 C   0  0  0  0  0  0  0  0  0  0  0  0
   37.4710   29.1790   42.7000 C   0  0  0  0  0  0  0  0  0  0  0  0
   37.5300   28.1540   43.6200 C   0  0  0  0  0  0  0  0  0  0  0  0
   37.5600   26.9050   43.1160 N   0  0  0  0  0  0  0  0  0  0  0  0
   37.5330   26.7030   41.7930 C   0  0  0  0  0  0  0  0  0  0  0  0
   37.4750   27.7170   40.8830 N   0  0  0  0  0  0  0  0  0  0  0  0
   37.4460   30.1950   43.0750 H   0  0  0  0  0  0  0  0  0  0  0  0
   37.5530   28.3000   44.6880 H   0  0  0  0  0  0  0  0  0  0  0  0
   37.5660   25.3280   41.2480 C   0  0  0  0  0  0  0  0  0  0  0  0
   36.4550   24.7980   40.6500 C   0  0  0  0  0  0  0  0  0  0  0  0
   36.4170   23.5230   40.1220 C   0  0  0  0  0  0  0  0  0  0  0  0
   37.5660   22.7460   40.2040 C   0  0  0  0  0  0  0  0  0  0  0  0
   38.6690   23.2710   40.7980 C   0  0  0  0  0  0  0  0  0  0  0  0
   38.7120   24.5460   41.3280 C   0  0  0  0  0  0  0  0  0  0  0  0
   35.5660   25.4100   40.5900 H   0  0  0  0  0  0  0  0  0  0  0  0
   35.4910   23.1750   39.6600 H   0  0  0  0  0  0  0  0  0  0  0  0
   37.5560   21.7420   39.7940 H   0  0  0  0  0  0  0  0  0  0  0  0
   39.5500   22.6440   40.8490 H   0  0  0  0  0  0  0  0  0  0  0  0
   39.9210   25.0710   41.9590 C   0  0  0  0  0  0  0  0  0  0  0  0
   40.4680   25.8510   41.4860 H   0  0  0  0  0  0  0  0  0  0  0  0
   40.2860   24.5780   43.0560 O   0  0  0  0  0  0  0  0  0  0  0  0
   37.3570   32.4120   40.0600 C   0  0  0  0  0  0  0  0  0  0  0  0
   37.2660   32.2020   38.6850 C   0  0  0  0  0  0  0  0  0  0  0  0
   37.2350   30.8960   38.1970 C   0  0  0  0  0  0  0  0  0  0  0  0
   37.2960   29.8660   39.1010 N   0  0  0  0  0  0  0  0  0  0  0  0
   37.3820   30.0970   40.4230 C   0  0  0  0  0  0  0  0  0  0  0  0
   37.4120   31.3490   40.8900 N   0  0  0  0  0  0  0  0  0  0  0  0
   37.3870   33.3990   40.5130 H   0  0  0  0  0  0  0  0  0  0  0  0
   37.2220   33.0560   38.0230 H   0  0  0  0  0  0  0  0  0  0  0  0
   37.1640   30.7010   37.1300 H   0  0  0  0  0  0  0  0  0  0  0  0
  1  2  1  0  0  0  0
  2  7  1  0  0  0  0
  2  3  2  0  0  0  0
  3  8  1  0  0  0  0
  4  3  1  0  0  0  0
  5  4  2  0  0  0  0
  6  1  2  0  0  0  0
  6  5  1  0  0  0  0
  9 14  1  0  0  0  0
  9  5  1  0  0  0  0
 10  9  2  0  0  0  0
 11 12  2  0  0  0  0
 11 10  1  0  0  0  0
 12 13  1  0  0  0  0
 13 18  1  0  0  0  0
 13 14  2  0  0  0  0
 14 19  1  0  0  0  0
 15 10  1  0  0  0  0
 16 11  1  0  0  0  0
 17 12  1  0  0  0  0
 19 21  2  0  0  0  0
 20 19  1  0  0  0  0
 22 28  1  0  0  0  0
 22 27  1  0  0  0  0
 23 22  2  0  0  0  0
 24 23  1  0  0  0  0
 24 25  2  0  0  0  0
 25 26  1  0  0  0  0
 26 27  2  0  0  0  0
 26  1  1  0  0  0  0
 29 23  1  0  0  0  0
 30 24  1  0  0  0  0
M  END
>  <minimizedAffinity>
-5.08827734

$$$$

 OpenBabel03242521223D

 30 32  0  0  0  0  0  0  0  0999 V2000
   38.2410   30.4680   39.7980 C   0  0  0  0  0  0  0  0  0  0  0  0
   37.2590   31.2700   40.2800 C   0  0  0  0  0  0  0  0  0  0  0  0
   36.1590   30.8020   40.9660 C   0  0  0  0  0  0  0  0  0  0  0  0
   36.0940   29.4690   41.1450 N   0  0  0  0  0  0  0  0  0  0  0  0
   37.0580   28.6700   40.6720 C   0  0  0  0  0  0  0  0  0  0  0  0
   38.1480   29.1330   39.9930 N   0  0  0  0  0  0  0  0  0  0  0  0
   37.3400   32.3390   40.1200 H   0  0  0  0  0  0  0  0  0  0  0  0
   35.3740   31.4320   41.3520 H   0  0  0  0  0  0  0  0  0  0  0  0
   36.9790   27.2060   40.8730 C   0  0  0  0  0  0  0  0  0  0  0  0
   36.6360   26.3860   39.8320 C   0  0  0  0  0  0  0  0  0  0  0  0
   36.5420   25.0140   39.9500 C   0  0  0  0  0  0  0  0  0  0  0  0
   36.8120   24.4430   41.1880 C   0  0  0  0  0  0  0  0  0  0  0  0
   37.1540   25.2570   42.2220 C   0  0  0  0  0  0  0  0  0  0  0  0
   37.2470   26.6310   42.1090 C   0  0  0  0  0  0  0  0  0  0  0  0
   36.4280   26.8390   38.8730 H   0  0  0  0  0  0  0  0  0  0  0  0
   36.2630   24.4300   39.0710 H   0  0  0  0  0  0  0  0  0  0  0  0
   36.7450   23.3670   41.3020 H   0  0  0  0  0  0  0  0  0  0  0  0
   37.3580   24.7870   43.1750 H   0  0  0  0  0  0  0  0  0  0  0  0
   37.6180   27.4680   43.2480 C   0  0  0  0  0  0  0  0  0  0  0  0
   36.8820   28.0710   43.7230 H   0  0  0  0  0  0  0  0  0  0  0  0
   38.8130   27.4510   43.6380 O   0  0  0  0  0  0  0  0  0  0  0  0
   41.2240   30.6420   37.6720 C   0  0  0  0  0  0  0  0  0  0  0  0
   41.5420   31.9980   37.7240 C   0  0  0  0  0  0  0  0  0  0  0  0
   40.7440   32.8550   38.4810 C   0  0  0  0  0  0  0  0  0  0  0  0
   39.6700   32.3200   39.1470 N   0  0  0  0  0  0  0  0  0  0  0  0
   39.3870   31.0070   39.0790 C   0  0  0  0  0  0  0  0  0  0  0  0
   40.1520   30.1860   38.3540 N   0  0  0  0  0  0  0  0  0  0  0  0
   41.7980   29.9140   37.1030 H   0  0  0  0  0  0  0  0  0  0  0  0
   42.4020   32.3590   37.1770 H   0  0  0  0  0  0  0  0  0  0  0  0
   40.9680   33.9170   38.5420 H   0  0  0  0  0  0  0  0  0  0  0  0
  1  6  2  0  0  0  0
  1  2  1  0  0  0  0
  2  3  2  0  0  0  0
  3  4  1  0  0  0  0
  3  8  1  0  0  0  0
  5  9  1  0  0  0  0
  5  4  2  0  0  0  0
  6  5  1  0  0  0  0
  7  2  1  0  0  0  0
  9 14  1  0  0  0  0
 10 11  1  0  0  0  0
 10  9  2  0  0  0  0
 11 12  2  0  0  0  0
 12 17  1  0  0  0  0
 12 13  1  0  0  0  0
 13 18  1  0  0  0  0
 14 13  2  0  0  0  0
 14 19  1  0  0  0  0
 15 10  1  0  0  0  0
 16 11  1  0  0  0  0
 19 21  2  0  0  0  0
 19 20  1  0  0  0  0
 22 23  2  0  0  0  0
 22 27  1  0  0  0  0
 23 24  1  0  0  0  0
 24 30  1  0  0  0  0
 24 25  2  0  0  0  0
 26 25  1  0  0  0  0
 26  1  1  0  0  0  0
 27 26  2  0  0  0  0
 28 22  1  0  0  0  0
 29 23  1  0  0  0  0
M  END
>  <minimizedAffinity>
-5.06724167

$$$$

 OpenBabel03242521223D

 30 32  0  0  0  0  0  0  0  0999 V2000
   37.5370   30.4320   40.7450 C   0  0  0  0  0  0  0  0  0  0  0  0
   36.2110   30.2340   40.5340 C   0  0  0  0  0  0  0  0  0  0  0  0
   35.5780   29.0270   40.7390 C   0  0  0  0  0  0  0  0  0  0  0  0
   36.3530   28.0160   41.1740 N   0  0  0  0  0  0  0  0  0  0  0  0
   37.6620   28.2020   41.3850 C   0  0  0  0  0  0  0  0  0  0  0  0
   38.2900   29.3960   41.1820 N   0  0  0  0  0  0  0  0  0  0  0  0
   35.6140   31.0680   40.1840 H   0  0  0  0  0  0  0  0  0  0  0  0
   34.5250   28.8610   40.5740 H   0  0  0  0  0  0  0  0  0  0  0  0
   38.5070   27.0850   41.8620 C   0  0  0  0  0  0  0  0  0  0  0  0
   38.9150   27.0410   43.1680 C   0  0  0  0  0  0  0  0  0  0  0  0
   39.7030   26.0300   43.6800 C   0  0  0  0  0  0  0  0  0  0  0  0
   40.0990   25.0100   42.8220 C   0  0  0  0  0  0  0  0  0  0  0  0
   39.6940   25.0540   41.5250 C   0  0  0  0  0  0  0  0  0  0  0  0
   38.9060   26.0650   41.0090 C   0  0  0  0  0  0  0  0  0  0  0  0
   38.6020   27.8380   43.8290 H   0  0  0  0  0  0  0  0  0  0  0  0
   39.9850   26.0660   44.7340 H   0  0  0  0  0  0  0  0  0  0  0  0
   40.7180   24.2060   43.2040 H   0  0  0  0  0  0  0  0  0  0  0  0
   40.0170   24.2480   40.8780 H   0  0  0  0  0  0  0  0  0  0  0  0
   38.4940   26.0720   39.6060 C   0  0  0  0  0  0  0  0  0  0  0  0
   39.0190   26.6730   38.9040 H   0  0  0  0  0  0  0  0  0  0  0  0
   37.5170   25.3570   39.2670 O   0  0  0  0  0  0  0  0  0  0  0  0
   37.9500   33.9800   39.9150 C   0  0  0  0  0  0  0  0  0  0  0  0
   39.3220   34.1610   40.0780 C   0  0  0  0  0  0  0  0  0  0  0  0
   40.1080   33.0790   40.4710 C   0  0  0  0  0  0  0  0  0  0  0  0
   39.4910   31.8720   40.6820 N   0  0  0  0  0  0  0  0  0  0  0  0
   38.1640   31.7250   40.5150 C   0  0  0  0  0  0  0  0  0  0  0  0
   37.4110   32.7630   40.1390 N   0  0  0  0  0  0  0  0  0  0  0  0
   37.2730   34.7750   39.6120 H   0  0  0  0  0  0  0  0  0  0  0  0
   39.7500   35.1380   39.8980 H   0  0  0  0  0  0  0  0  0  0  0  0
   41.1820   33.1890   40.6060 H   0  0  0  0  0  0  0  0  0  0  0  0
  1  6  1  0  0  0  0
  2  3  1  0  0  0  0
  2  1  2  0  0  0  0
  3  4  2  0  0  0  0
  4  5  1  0  0  0  0
  5  9  1  0  0  0  0
  6  5  2  0  0  0  0
  7  2  1  0  0  0  0
  8  3  1  0  0  0  0
  9 10  1  0  0  0  0
 10 11  2  0  0  0  0
 10 15  1  0  0  0  0
 11 16  1  0  0  0  0
 12 17  1  0  0  0  0
 12 11  1  0  0  0  0
 13 12  2  0  0  0  0
 14 13  1  0  0  0  0
 14  9  2  0  0  0  0
 18 13  1  0  0  0  0
 19 14  1  0  0  0  0
 20 19  1  0  0  0  0
 21 19  2  0  0  0  0
 22 23  2  0  0  0  0
 22 27  1  0  0  0  0
 23 24  1  0  0  0  0
 24 30  1  0  0  0  0
 24 25  2  0  0  0  0
 26 25  1  0  0  0  0
 26  1  1  0  0  0  0
 27 26  2  0  0  0  0
 28 22  1  0  0  0  0
 29 23  1  0  0  0  0
M  END
>  <minimizedAffinity>
-4.9523139

$$$$

 OpenBabel03242521223D

 30 32  0  0  0  0  0  0  0  0999 V2000
   37.1520   27.1880   41.4520 C   0  0  0  0  0  0  0  0  0  0  0  0
   37.0970   27.0570   42.8010 C   0  0  0  0  0  0  0  0  0  0  0  0
   37.3250   28.0950   43.6790 C   0  0  0  0  0  0  0  0  0  0  0  0
   37.6140   29.2880   43.1240 N   0  0  0  0  0  0  0  0  0  0  0  0
   37.6700   29.4260   41.7940 C   0  0  0  0  0  0  0  0  0  0  0  0
   37.4450   28.3990   40.9250 N   0  0  0  0  0  0  0  0  0  0  0  0
   36.8620   26.0850   43.2160 H   0  0  0  0  0  0  0  0  0  0  0  0
   37.2840   28.0010   44.7520 H   0  0  0  0  0  0  0  0  0  0  0  0
   37.9890   30.7410   41.1930 C   0  0  0  0  0  0  0  0  0  0  0  0
   37.0210   31.4470   40.5310 C   0  0  0  0  0  0  0  0  0  0  0  0
   37.2490   32.6770   39.9480 C   0  0  0  0  0  0  0  0  0  0  0  0
   38.5260   33.2190   40.0410 C   0  0  0  0  0  0  0  0  0  0  0  0
   39.4870   32.5180   40.6980 C   0  0  0  0  0  0  0  0  0  0  0  0
   39.2630   31.2870   41.2820 C   0  0  0  0  0  0  0  0  0  0  0  0
   36.0310   31.0180   40.4640 H   0  0  0  0  0  0  0  0  0  0  0  0
   36.4230   33.1780   39.4390 H   0  0  0  0  0  0  0  0  0  0  0  0
   38.7250   34.1850   39.5900 H   0  0  0  0  0  0  0  0  0  0  0  0
   40.4720   32.9630   40.7560 H   0  0  0  0  0  0  0  0  0  0  0  0
   40.3270   30.5670   41.9800 C   0  0  0  0  0  0  0  0  0  0  0  0
   40.3960   29.5090   41.8920 H   0  0  0  0  0  0  0  0  0  0  0  0
   41.1410   31.2280   42.6730 O   0  0  0  0  0  0  0  0  0  0  0  0
   36.7810   23.7440   40.2480 C   0  0  0  0  0  0  0  0  0  0  0  0
   36.4400   23.9370   38.9100 C   0  0  0  0  0  0  0  0  0  0  0  0
   36.3360   25.2360   38.4160 C   0  0  0  0  0  0  0  0  0  0  0  0
   36.5750   26.2780   39.2760 N   0  0  0  0  0  0  0  0  0  0  0  0
   36.9030   26.0630   40.5630 C   0  0  0  0  0  0  0  0  0  0  0  0
   37.0030   24.8170   41.0360 N   0  0  0  0  0  0  0  0  0  0  0  0
   36.8810   22.7630   40.7040 H   0  0  0  0  0  0  0  0  0  0  0  0
   36.2630   23.0750   38.2810 H   0  0  0  0  0  0  0  0  0  0  0  0
   36.0720   25.4180   37.3760 H   0  0  0  0  0  0  0  0  0  0  0  0
  1  2  1  0  0  0  0
  2  7  1  0  0  0  0
  2  3  2  0  0  0  0
  3  8  1  0  0  0  0
  4  3  1  0  0  0  0
  5  4  2  0  0  0  0
  6  1  2  0  0  0  0
  6  5  1  0  0  0  0
  9 14  1  0  0  0  0
  9  5  1  0  0  0  0
 10  9  2  0  0  0  0
 11 12  2  0  0  0  0
 11 10  1  0  0  0  0
 12 13  1  0  0  0  0
 13 18  1  0  0  0  0
 13 14  2  0  0  0  0
 14 19  1  0  0  0  0
 15 10  1  0  0  0  0
 16 11  1  0  0  0  0
 17 12  1  0  0  0  0
 19 21  2  0  0  0  0
 20 19  1  0  0  0  0
 22 28  1  0  0  0  0
 22 27  1  0  0  0  0
 23 22  2  0  0  0  0
 24 23  1  0  0  0  0
 24 25  2  0  0  0  0
 25 26  1  0  0  0  0
 26 27  2  0  0  0  0
 26  1  1  0  0  0  0
 29 23  1  0  0  0  0
 30 24  1  0  0  0  0
M  END
>  <minimizedAffinity>
-4.90736675

$$$$

 OpenBabel03242521223D

 30 32  0  0  0  0  0  0  0  0999 V2000
   39.5870   32.3360   40.5620 C   0  0  0  0  0  0  0  0  0  0  0  0
   38.5770   33.0810   40.0460 C   0  0  0  0  0  0  0  0  0  0  0  0
   37.2580   32.6790   40.0390 C   0  0  0  0  0  0  0  0  0  0  0  0
   37.0020   31.4750   40.5850 N   0  0  0  0  0  0  0  0  0  0  0  0
   37.9920   30.7330   41.0970 C   0  0  0  0  0  0  0  0  0  0  0  0
   39.2970   31.1310   41.1030 N   0  0  0  0  0  0  0  0  0  0  0  0
   38.8150   34.0450   39.6140 H   0  0  0  0  0  0  0  0  0  0  0  0
   36.4500   33.2640   39.6310 H   0  0  0  0  0  0  0  0  0  0  0  0
   37.7020   29.4110   41.6950 C   0  0  0  0  0  0  0  0  0  0  0  0
   37.5980   29.2790   43.0530 C   0  0  0  0  0  0  0  0  0  0  0  0
   37.3290   28.0770   43.6760 C   0  0  0  0  0  0  0  0  0  0  0  0
   37.1570   26.9500   42.8800 C   0  0  0  0  0  0  0  0  0  0  0  0
   37.2600   27.0820   41.5320 C   0  0  0  0  0  0  0  0  0  0  0  0
   37.5300   28.2820   40.9040 C   0  0  0  0  0  0  0  0  0  0  0  0
   37.7330   30.1600   43.6640 H   0  0  0  0  0  0  0  0  0  0  0  0
   37.2610   28.0550   44.7660 H   0  0  0  0  0  0  0  0  0  0  0  0
   36.9450   25.9970   43.3500 H   0  0  0  0  0  0  0  0  0  0  0  0
   37.1220   26.1890   40.9350 H   0  0  0  0  0  0  0  0  0  0  0  0
   37.6320   28.3780   39.4490 C   0  0  0  0  0  0  0  0  0  0  0  0
   38.5880   28.3420   38.9820 H   0  0  0  0  0  0  0  0  0  0  0  0
   36.5740   28.5010   38.7820 O   0  0  0  0  0  0  0  0  0  0  0  0
   42.6150   34.1600   39.5850 C   0  0  0  0  0  0  0  0  0  0  0  0
   43.5500   33.6870   40.5030 C   0  0  0  0  0  0  0  0  0  0  0  0
   43.1540   32.7480   41.4550 C   0  0  0  0  0  0  0  0  0  0  0  0
   41.8480   32.3280   41.4460 N   0  0  0  0  0  0  0  0  0  0  0  0
   40.9660   32.8010   40.5470 C   0  0  0  0  0  0  0  0  0  0  0  0
   41.3460   33.7010   39.6350 N   0  0  0  0  0  0  0  0  0  0  0  0
   42.8480   34.8920   38.8160 H   0  0  0  0  0  0  0  0  0  0  0  0
   44.5650   34.0570   40.4600 H   0  0  0  0  0  0  0  0  0  0  0  0
   43.8620   32.3600   42.1830 H   0  0  0  0  0  0  0  0  0  0  0  0
  1  6  1  0  0  0  0
  2  1  2  0  0  0  0
  3  2  1  0  0  0  0
  3  4  2  0  0  0  0
  4  5  1  0  0  0  0
  5  6  2  0  0  0  0
  5  9  1  0  0  0  0
  7  2  1  0  0  0  0
  8  3  1  0  0  0  0
  9 10  1  0  0  0  0
 10 15  1  0  0  0  0
 10 11  2  0  0  0  0
 11 16  1  0  0  0  0
 12 17  1  0  0  0  0
 12 11  1  0  0  0  0
 13 12  2  0  0  0  0
 14 13  1  0  0  0  0
 14  9  2  0  0  0  0
 18 13  1  0  0  0  0
 19 14  1  0  0  0  0
 20 19  1  0  0  0  0
 21 19  2  0  0  0  0
 22 27  2  0  0  0  0
 22 23  1  0  0  0  0
 23 24  2  0  0  0  0
 24 30  1  0  0  0  0
 25 24  1  0  0  0  0
 26  1  1  0  0  0  0
 26 25  2  0  0  0  0
 27 26  1  0  0  0  0
 28 22  1  0  0  0  0
 29 23  1  0  0  0  0
M  END
>  <minimizedAffinity>
-4.90439939

$$$$

 OpenBabel03242521223D

 30 32  0  0  0  0  0  0  0  0999 V2000
   39.3330   30.6830   38.4300 C   0  0  0  0  0  0  0  0  0  0  0  0
   38.4910   31.6950   38.0990 C   0  0  0  0  0  0  0  0  0  0  0  0
   37.3520   32.0030   38.8100 C   0  0  0  0  0  0  0  0  0  0  0  0
   37.0950   31.2320   39.8850 N   0  0  0  0  0  0  0  0  0  0  0  0
   37.9200   30.2320   40.2180 C   0  0  0  0  0  0  0  0  0  0  0  0
   39.0480   29.9270   39.5150 N   0  0  0  0  0  0  0  0  0  0  0  0
   38.7250   32.2970   37.2290 H   0  0  0  0  0  0  0  0  0  0  0  0
   36.6770   32.8050   38.5550 H   0  0  0  0  0  0  0  0  0  0  0  0
   37.6310   29.3900   41.4000 C   0  0  0  0  0  0  0  0  0  0  0  0
   36.6590   28.4280   41.3390 C   0  0  0  0  0  0  0  0  0  0  0  0
   36.3380   27.6090   42.4020 C   0  0  0  0  0  0  0  0  0  0  0  0
   37.0400   27.7740   43.5910 C   0  0  0  0  0  0  0  0  0  0  0  0
   38.0050   28.7290   43.6520 C   0  0  0  0  0  0  0  0  0  0  0  0
   38.3290   29.5510   42.5900 C   0  0  0  0  0  0  0  0  0  0  0  0
   36.1180   28.3070   40.4110 H   0  0  0  0  0  0  0  0  0  0  0  0
   35.5500   26.8650   42.2720 H   0  0  0  0  0  0  0  0  0  0  0  0
   36.8030   27.1400   44.4380 H   0  0  0  0  0  0  0  0  0  0  0  0
   38.5360   28.8360   44.5890 H   0  0  0  0  0  0  0  0  0  0  0  0
   39.3750   30.5660   42.7010 C   0  0  0  0  0  0  0  0  0  0  0  0
   39.1100   31.5900   42.8060 H   0  0  0  0  0  0  0  0  0  0  0  0
   40.5750   30.1930   42.6680 O   0  0  0  0  0  0  0  0  0  0  0  0
   41.8700   28.8240   36.5440 C   0  0  0  0  0  0  0  0  0  0  0  0
   42.7640   29.8310   36.1860 C   0  0  0  0  0  0  0  0  0  0  0  0
   42.5070   31.1420   36.5840 C   0  0  0  0  0  0  0  0  0  0  0  0
   41.3730   31.3860   37.3170 N   0  0  0  0  0  0  0  0  0  0  0  0
   40.5270   30.3950   37.6500 C   0  0  0  0  0  0  0  0  0  0  0  0
   40.7740   29.1380   37.2680 N   0  0  0  0  0  0  0  0  0  0  0  0
   42.0020   27.7800   36.2710 H   0  0  0  0  0  0  0  0  0  0  0  0
   43.6410   29.5750   35.6060 H   0  0  0  0  0  0  0  0  0  0  0  0
   43.1870   31.9490   36.3200 H   0  0  0  0  0  0  0  0  0  0  0  0
  1  6  1  0  0  0  0
  2  1  2  0  0  0  0
  2  3  1  0  0  0  0
  3  4  2  0  0  0  0
  4  5  1  0  0  0  0
  5  9  1  0  0  0  0
  6  5  2  0  0  0  0
  7  2  1  0  0  0  0
  8  3  1  0  0  0  0
  9 14  1  0  0  0  0
 10  9  2  0  0  0  0
 10 11  1  0  0  0  0
 11 12  2  0  0  0  0
 12 13  1  0  0  0  0
 12 17  1  0  0  0  0
 13 18  1  0  0  0  0
 14 19  1  0  0  0  0
 14 13  2  0  0  0  0
 15 10  1  0  0  0  0
 16 11  1  0  0  0  0
 19 20  1  0  0  0  0
 21 19  2  0  0  0  0
 22 27  1  0  0  0  0
 23 22  2  0  0  0  0
 23 24  1  0  0  0  0
 24 25  2  0  0  0  0
 25 26  1  0  0  0  0
 26  1  1  0  0  0  0
 27 26  2  0  0  0  0
 28 22  1  0  0  0  0
 29 23  1  0  0  0  0
 30 24  1  0  0  0  0
M  END
>  <minimizedAffinity>
-4.88544703

$$$$

 OpenBabel03242521223D

 30 32  0  0  0  0  0  0  0  0999 V2000
   37.8430   30.1710   40.0690 C   0  0  0  0  0  0  0  0  0  0  0  0
   36.6180   30.7530   40.0850 C   0  0  0  0  0  0  0  0  0  0  0  0
   35.4460   30.0580   40.2910 C   0  0  0  0  0  0  0  0  0  0  0  0
   35.5680   28.7310   40.4830 N   0  0  0  0  0  0  0  0  0  0  0  0
   36.7740   28.1480   40.4690 C   0  0  0  0  0  0  0  0  0  0  0  0
   37.9340   28.8360   40.2650 N   0  0  0  0  0  0  0  0  0  0  0  0
   36.5530   31.8230   39.9280 H   0  0  0  0  0  0  0  0  0  0  0  0
   34.4680   30.5120   40.3060 H   0  0  0  0  0  0  0  0  0  0  0  0
   36.8990   26.6890   40.6810 C   0  0  0  0  0  0  0  0  0  0  0  0
   36.8070   25.8290   39.6200 C   0  0  0  0  0  0  0  0  0  0  0  0
   36.9140   24.4590   39.7460 C   0  0  0  0  0  0  0  0  0  0  0  0
   37.1270   23.9330   41.0150 C   0  0  0  0  0  0  0  0  0  0  0  0
   37.2180   24.7860   42.0690 C   0  0  0  0  0  0  0  0  0  0  0  0
   37.1110   26.1580   41.9470 C   0  0  0  0  0  0  0  0  0  0  0  0
   36.6420   26.2480   38.6370 H   0  0  0  0  0  0  0  0  0  0  0  0
   36.8300   23.8420   38.8490 H   0  0  0  0  0  0  0  0  0  0  0  0
   37.2140   22.8590   41.1350 H   0  0  0  0  0  0  0  0  0  0  0  0
   37.3840   24.3500   43.0460 H   0  0  0  0  0  0  0  0  0  0  0  0
   37.2160   27.0390   43.1090 C   0  0  0  0  0  0  0  0  0  0  0  0
   38.1740   27.3440   43.4560 H   0  0  0  0  0  0  0  0  0  0  0  0
   36.1570   27.4140   43.6720 O   0  0  0  0  0  0  0  0  0  0  0  0
   40.1770   32.9990   39.9810 C   0  0  0  0  0  0  0  0  0  0  0  0
   41.3220   32.4160   39.4400 C   0  0  0  0  0  0  0  0  0  0  0  0
   41.3030   31.0630   39.1050 C   0  0  0  0  0  0  0  0  0  0  0  0
   40.1480   30.3580   39.3250 N   0  0  0  0  0  0  0  0  0  0  0  0
   39.0560   30.9450   39.8480 C   0  0  0  0  0  0  0  0  0  0  0  0
   39.0750   32.2430   40.1690 N   0  0  0  0  0  0  0  0  0  0  0  0
   40.1160   34.0460   40.2670 H   0  0  0  0  0  0  0  0  0  0  0  0
   42.2030   33.0260   39.2920 H   0  0  0  0  0  0  0  0  0  0  0  0
   42.1810   30.5810   38.6810 H   0  0  0  0  0  0  0  0  0  0  0  0
  1  2  2  0  0  0  0
  1  6  1  0  0  0  0
  2  3  1  0  0  0  0
  3  8  1  0  0  0  0
  3  4  2  0  0  0  0
  5  4  1  0  0  0  0
  5  9  1  0  0  0  0
  6  5  2  0  0  0  0
  7  2  1  0  0  0  0
  9 14  1  0  0  0  0
 10 11  1  0  0  0  0
 10  9  2  0  0  0  0
 11 12  2  0  0  0  0
 12 17  1  0  0  0  0
 12 13  1  0  0  0  0
 13 18  1  0  0  0  0
 14 13  2  0  0  0  0
 14 19  1  0  0  0  0
 15 10  1  0  0  0  0
 16 11  1  0  0  0  0
 19 20  1  0  0  0  0
 19 21  2  0  0  0  0
 22 27  1  0  0  0  0
 22 28  1  0  0  0  0
 23 22  2  0  0  0  0
 24 25  2  0  0  0  0
 24 23  1  0  0  0  0
 25 26  1  0  0  0  0
 26  1  1  0  0  0  0
 26 27  2  0  0  0  0
 29 23  1  0  0  0  0
 30 24  1  0  0  0  0
M  END
>  <minimizedAffinity>
-4.86499596

$$$$

 OpenBabel03242521223D

 30 32  0  0  0  0  0  0  0  0999 V2000
   38.8520   30.4450   38.2870 C   0  0  0  0  0  0  0  0  0  0  0  0
   37.7200   30.7900   37.6230 C   0  0  0  0  0  0  0  0  0  0  0  0
   36.4510   30.4950   38.0730 C   0  0  0  0  0  0  0  0  0  0  0  0
   36.3750   29.8280   39.2400 N   0  0  0  0  0  0  0  0  0  0  0  0
   37.4870   29.4830   39.9020 C   0  0  0  0  0  0  0  0  0  0  0  0
   38.7430   29.7750   39.4570 N   0  0  0  0  0  0  0  0  0  0  0  0
   37.8140   31.3260   36.6860 H   0  0  0  0  0  0  0  0  0  0  0  0
   35.5460   30.7650   37.5510 H   0  0  0  0  0  0  0  0  0  0  0  0
   37.3940   28.7500   41.1840 C   0  0  0  0  0  0  0  0  0  0  0  0
   37.6370   29.3970   42.3660 C   0  0  0  0  0  0  0  0  0  0  0  0
   37.5680   28.7750   43.5960 C   0  0  0  0  0  0  0  0  0  0  0  0
   37.2360   27.4250   43.6290 C   0  0  0  0  0  0  0  0  0  0  0  0
   36.9950   26.7830   42.4560 C   0  0  0  0  0  0  0  0  0  0  0  0
   37.0630   27.4020   41.2230 C   0  0  0  0  0  0  0  0  0  0  0  0
   37.8940   30.4460   42.3300 H   0  0  0  0  0  0  0  0  0  0  0  0
   37.7750   29.3610   44.4930 H   0  0  0  0  0  0  0  0  0  0  0  0
   37.1770   26.9180   44.5850 H   0  0  0  0  0  0  0  0  0  0  0  0
   36.7390   25.7320   42.5110 H   0  0  0  0  0  0  0  0  0  0  0  0
   36.7960   26.6710   39.9860 C   0  0  0  0  0  0  0  0  0  0  0  0
   35.8430   26.7510   39.5190 H   0  0  0  0  0  0  0  0  0  0  0  0
   37.7120   25.9590   39.5020 O   0  0  0  0  0  0  0  0  0  0  0  0
   42.2370   30.0580   36.9320 C   0  0  0  0  0  0  0  0  0  0  0  0
   42.6570   31.3820   36.8100 C   0  0  0  0  0  0  0  0  0  0  0  0
   41.7900   32.4070   37.1860 C   0  0  0  0  0  0  0  0  0  0  0  0
   40.5510   32.0640   37.6650 N   0  0  0  0  0  0  0  0  0  0  0  0
   40.1720   30.7780   37.7740 C   0  0  0  0  0  0  0  0  0  0  0  0
   41.0030   29.7960   37.4120 N   0  0  0  0  0  0  0  0  0  0  0  0
   42.8550   29.2070   36.6580 H   0  0  0  0  0  0  0  0  0  0  0  0
   43.6460   31.5880   36.4240 H   0  0  0  0  0  0  0  0  0  0  0  0
   42.0890   33.4490   37.1030 H   0  0  0  0  0  0  0  0  0  0  0  0
  1  6  1  0  0  0  0
  2  3  1  0  0  0  0
  2  1  2  0  0  0  0
  3  4  2  0  0  0  0
  4  5  1  0  0  0  0
  5  9  1  0  0  0  0
  6  5  2  0  0  0  0
  7  2  1  0  0  0  0
  8  3  1  0  0  0  0
  9 14  2  0  0  0  0
  9 10  1  0  0  0  0
 10 11  2  0  0  0  0
 11 12  1  0  0  0  0
 11 16  1  0  0  0  0
 12 17  1  0  0  0  0
 13 18  1  0  0  0  0
 13 12  2  0  0  0  0
 14 13  1  0  0  0  0
 15 10  1  0  0  0  0
 19 14  1  0  0  0  0
 20 19  1  0  0  0  0
 21 19  2  0  0  0  0
 22 27  1  0  0  0  0
 23 22  2  0  0  0  0
 23 24  1  0  0  0  0
 24 25  2  0  0  0  0
 25 26  1  0  0  0  0
 26  1  1  0  0  0  0
 27 26  2  0  0  0  0
 28 22  1  0  0  0  0
 29 23  1  0  0  0  0
 30 24  1  0  0  0  0
M  END
>  <minimizedAffinity>
-4.81961536

$$$$
