
 OpenBabel03242521213D

 30 32  0  0  0  0  0  0  0  0999 V2000
   47.1450   32.1950   43.1100 C   0  0  0  0  0  0  0  0  0  0  0  0
   46.1130   32.3320   42.2410 C   0  0  0  0  0  0  0  0  0  0  0  0
   44.8620   31.7920   42.4500 C   0  0  0  0  0  0  0  0  0  0  0  0
   44.6990   31.0960   43.5920 N   0  0  0  0  0  0  0  0  0  0  0  0
   45.7130   30.9550   44.4550 C   0  0  0  0  0  0  0  0  0  0  0  0
   46.9510   31.4900   44.2480 N   0  0  0  0  0  0  0  0  0  0  0  0
   46.2750   32.8980   41.3310 H   0  0  0  0  0  0  0  0  0  0  0  0
   44.0360   31.8960   41.7650 H   0  0  0  0  0  0  0  0  0  0  0  0
   45.5250   30.1890   45.7070 C   0  0  0  0  0  0  0  0  0  0  0  0
   45.2940   28.8410   45.6600 C   0  0  0  0  0  0  0  0  0  0  0  0
   45.1100   28.0660   46.7880 C   0  0  0  0  0  0  0  0  0  0  0  0
   45.1640   28.6920   48.0280 C   0  0  0  0  0  0  0  0  0  0  0  0
   45.3930   30.0310   48.0750 C   0  0  0  0  0  0  0  0  0  0  0  0
   45.5770   30.8100   46.9490 C   0  0  0  0  0  0  0  0  0  0  0  0
   45.2540   28.3630   44.6920 H   0  0  0  0  0  0  0  0  0  0  0  0
   44.9310   26.9970   46.6660 H   0  0  0  0  0  0  0  0  0  0  0  0
   45.0220   28.1020   48.9260 H   0  0  0  0  0  0  0  0  0  0  0  0
   45.4300   30.4930   49.0530 H   0  0  0  0  0  0  0  0  0  0  0  0
   45.8220   32.2480   47.0460 C   0  0  0  0  0  0  0  0  0  0  0  0
   46.6420   32.6810   46.5260 H   0  0  0  0  0  0  0  0  0  0  0  0
   45.0450   32.9400   47.7520 O   0  0  0  0  0  0  0  0  0  0  0  0
   49.7830   34.7030   42.6610 C   0  0  0  0  0  0  0  0  0  0  0  0
   50.8900   33.9120   42.3600 C   0  0  0  0  0  0  0  0  0  0  0  0
   50.7430   32.5270   42.3090 C   0  0  0  0  0  0  0  0  0  0  0  0
   49.5030   31.9980   42.5610 N   0  0  0  0  0  0  0  0  0  0  0  0
   48.4500   32.7850   42.8480 C   0  0  0  0  0  0  0  0  0  0  0  0
   48.5920   34.1130   42.8970 N   0  0  0  0  0  0  0  0  0  0  0  0
   49.8200   35.7880   42.7190 H   0  0  0  0  0  0  0  0  0  0  0  0
   51.8430   34.3890   42.1720 H   0  0  0  0  0  0  0  0  0  0  0  0
   51.5890   31.8840   42.0770 H   0  0  0  0  0  0  0  0  0  0  0  0
  1  6  1  0  0  0  0
  2  3  1  0  0  0  0
  2  1  2  0  0  0  0
  3  4  2  0  0  0  0
  4  5  1  0  0  0  0
  5  9  1  0  0  0  0
  6  5  2  0  0  0  0
  7  2  1  0  0  0  0
  8  3  1  0  0  0  0
  9 14  1  0  0  0  0
 10  9  2  0  0  0  0
 10 11  1  0  0  0  0
 11 12  2  0  0  0  0
 12 13  1  0  0  0  0
 12 17  1  0  0  0  0
 13 18  1  0  0  0  0
 14 19  1  0  0  0  0
 14 13  2  0  0  0  0
 15 10  1  0  0  0  0
 16 11  1  0  0  0  0
 19 21  2  0  0  0  0
 20 19  1  0  0  0  0
 22 28  1  0  0  0  0
 22 27  1  0  0  0  0
 23 22  2  0  0  0  0
 24 23  1  0  0  0  0
 24 25  2  0  0  0  0
 25 26  1  0  0  0  0
 26 27  2  0  0  0  0
 26  1  1  0  0  0  0
 29 23  1  0  0  0  0
 30 24  1  0  0  0  0
M  END
>  <minimizedAffinity>
-4.07300854

>  <minimizedRMSD>
6.41246986

$$$$
