
 OpenBabel03252508593D

 39 40  0  0  1  0  0  0  0  0999 V2000
   46.7300   34.4650   43.5550 N   0  0  0  0  0  0  0  0  0  0  0  0
   46.2720   35.5570   42.7630 C   0  0  0  0  0  0  0  0  0  0  0  0
   44.7930   35.7950   42.7880 C   0  0  0  0  0  0  0  0  0  0  0  0
   44.1070   35.4190   44.0740 C   0  0  0  0  0  0  0  0  0  0  0  0
   45.1150   35.0290   45.1300 C   0  0  0  0  0  0  0  0  0  0  0  0
   45.8940   33.8390   44.4600 C   0  0  2  0  0  0  0  0  0  0  0  0
   46.5900   35.5540   41.7160 H   0  0  0  0  0  0  0  0  0  0  0  0
   46.7530   36.4810   43.1980 H   0  0  0  0  0  0  0  0  0  0  0  0
   44.6080   36.8890   42.6320 H   0  0  0  0  0  0  0  0  0  0  0  0
   44.3050   35.3130   41.9010 H   0  0  0  0  0  0  0  0  0  0  0  0
   43.3790   36.1820   44.4120 H   0  0  0  0  0  0  0  0  0  0  0  0
   43.4980   34.5050   43.8590 H   0  0  0  0  0  0  0  0  0  0  0  0
   44.5990   34.6720   46.0300 H   0  0  0  0  0  0  0  0  0  0  0  0
   45.8410   35.8470   45.3080 H   0  0  0  0  0  0  0  0  0  0  0  0
   45.1310   33.1410   44.0580 H   0  0  0  0  0  0  0  0  0  0  0  0
   47.8050   33.7220   42.9670 C   0  0  0  0  0  0  0  0  0  0  0  0
   48.3910   33.2190   43.7600 H   0  0  0  0  0  0  0  0  0  0  0  0
   48.4460   34.4280   42.3980 H   0  0  0  0  0  0  0  0  0  0  0  0
   47.2130   32.6730   42.0670 C   0  0  0  0  0  0  0  0  0  0  0  0
   46.1000   32.8120   41.9670 H   0  0  0  0  0  0  0  0  0  0  0  0
   47.3720   31.6410   42.4050 H   0  0  0  0  0  0  0  0  0  0  0  0
   49.0730   31.9890   38.8720 C   0  0  0  0  0  0  0  0  0  0  0  0
   48.5450   31.8360   40.1670 C   0  0  0  0  0  0  0  0  0  0  0  0
   47.7680   32.8420   40.6960 C   0  0  0  0  0  0  0  0  0  0  0  0
   47.5480   33.9300   39.9390 N   0  0  0  0  0  0  0  0  0  0  0  0
   48.0550   34.0670   38.7040 C   0  0  0  0  0  0  0  0  0  0  0  0
   48.8230   33.0980   38.1570 N   0  0  0  0  0  0  0  0  0  0  0  0
   49.6850   31.1900   38.4620 H   0  0  0  0  0  0  0  0  0  0  0  0
   48.7560   30.9400   40.7230 H   0  0  0  0  0  0  0  0  0  0  0  0
   47.8340   34.9750   38.1570 H   0  0  0  0  0  0  0  0  0  0  0  0
   46.5960   33.3210   45.5370 O   0  0  0  0  0  0  0  0  0  0  0  0
   45.4570   31.0830   44.6570 O   0  0  0  0  0  0  0  0  0  0  0  0
   46.2520   31.6980   45.8140 P   0  0  2  0  0  0  0  0  0  0  0  0
   45.1760   31.6610   47.1460 O   0  0  0  0  0  0  0  0  0  0  0  0
   45.6810   31.8280   47.9800 H   0  0  0  0  0  0  0  0  0  0  0  0
   47.5920   30.8010   46.2170 O   0  0  0  0  0  0  0  0  0  0  0  0
   48.0470   29.8210   45.3470 C   0  0  0  0  0  0  0  0  0  0  0  0
   47.8960   28.7580   45.5010 H   0  0  0  0  0  0  0  0  0  0  0  0
   48.6530   30.3390   44.3690 O   0  0  0  0  0  0  0  0  0  0  0  0
  1  6  1  0  0  0  0
  2  3  1  0  0  0  0
  2  8  1  0  0  0  0
  2  1  1  0  0  0  0
  3  4  1  0  0  0  0
  4 11  1  0  0  0  0
  4  5  1  0  0  0  0
  5 14  1  0  0  0  0
  5 13  1  0  0  0  0
  6 15  1  6  0  0  0
  6  5  1  0  0  0  0
  6 31  1  0  0  0  0
  7  2  1  0  0  0  0
  9  3  1  0  0  0  0
 10  3  1  0  0  0  0
 12  4  1  0  0  0  0
 16  1  1  0  0  0  0
 16 17  1  0  0  0  0
 18 16  1  0  0  0  0
 19 21  1  0  0  0  0
 19 16  1  0  0  0  0
 20 19  1  0  0  0  0
 22 23  1  0  0  0  0
 23 24  2  0  0  0  0
 23 29  1  0  0  0  0
 24 19  1  0  0  0  0
 25 24  1  0  0  0  0
 26 25  2  0  0  0  0
 27 26  1  0  0  0  0
 27 22  2  0  0  0  0
 28 22  1  0  0  0  0
 30 26  1  0  0  0  0
 31 33  1  0  0  0  0
 33 32  2  6  0  0  0
 33 36  1  0  0  0  0
 33 34  1  0  0  0  0
 34 35  1  0  0  0  0
 37 38  1  0  0  0  0
 37 36  1  0  0  0  0
 39 37  2  0  0  0  0
M  END
>  <minimizedAffinity>
-3.80457878

>  <minimizedRMSD>
0.877979934

$$$$
