
 OpenBabel03252508593D

 39 40  0  0  1  0  0  0  0  0999 V2000
   47.1750   34.1380   43.0800 N   0  0  0  0  0  0  0  0  0  0  0  0
   46.6670   35.3480   42.5240 C   0  0  0  0  0  0  0  0  0  0  0  0
   45.2080   35.5980   42.7520 C   0  0  0  0  0  0  0  0  0  0  0  0
   44.6560   35.0340   44.0330 C   0  0  0  0  0  0  0  0  0  0  0  0
   45.7600   34.4690   44.8960 C   0  0  0  0  0  0  0  0  0  0  0  0
   46.4240   33.3890   43.9660 C   0  0  2  0  0  0  0  0  0  0  0  0
   46.8690   35.5050   41.4600 H   0  0  0  0  0  0  0  0  0  0  0  0
   47.2210   36.1850   43.0400 H   0  0  0  0  0  0  0  0  0  0  0  0
   45.0420   36.7060   42.7890 H   0  0  0  0  0  0  0  0  0  0  0  0
   44.6120   35.2690   41.8620 H   0  0  0  0  0  0  0  0  0  0  0  0
   43.9920   35.7440   44.5660 H   0  0  0  0  0  0  0  0  0  0  0  0
   43.9990   34.1740   43.7500 H   0  0  0  0  0  0  0  0  0  0  0  0
   45.3340   33.9820   45.7820 H   0  0  0  0  0  0  0  0  0  0  0  0
   46.5270   35.2380   45.1150 H   0  0  0  0  0  0  0  0  0  0  0  0
   45.6000   32.7730   43.5500 H   0  0  0  0  0  0  0  0  0  0  0  0
   48.1560   33.4820   42.2670 C   0  0  0  0  0  0  0  0  0  0  0  0
   48.7820   32.8200   42.8950 H   0  0  0  0  0  0  0  0  0  0  0  0
   48.7800   34.2600   41.7780 H   0  0  0  0  0  0  0  0  0  0  0  0
   47.4350   32.6400   41.2500 C   0  0  0  0  0  0  0  0  0  0  0  0
   46.3450   32.9160   41.2010 H   0  0  0  0  0  0  0  0  0  0  0  0
   47.4780   31.5600   41.4410 H   0  0  0  0  0  0  0  0  0  0  0  0
   49.3350   32.2710   38.0270 C   0  0  0  0  0  0  0  0  0  0  0  0
   48.8090   32.0020   39.3040 C   0  0  0  0  0  0  0  0  0  0  0  0
   47.9880   32.9330   39.9000 C   0  0  0  0  0  0  0  0  0  0  0  0
   47.7270   34.0640   39.2230 N   0  0  0  0  0  0  0  0  0  0  0  0
   48.2330   34.3130   38.0060 C   0  0  0  0  0  0  0  0  0  0  0  0
   49.0430   33.4190   37.3940 N   0  0  0  0  0  0  0  0  0  0  0  0
   49.9820   31.5310   37.5640 H   0  0  0  0  0  0  0  0  0  0  0  0
   49.0550   31.0770   39.7940 H   0  0  0  0  0  0  0  0  0  0  0  0
   47.9760   35.2480   37.5250 H   0  0  0  0  0  0  0  0  0  0  0  0
   47.2220   32.6980   44.8640 O   0  0  0  0  0  0  0  0  0  0  0  0
   46.0600   30.5170   43.8760 O   0  0  0  0  0  0  0  0  0  0  0  0
   46.6830   31.1290   45.1360 P   0  0  2  0  0  0  0  0  0  0  0  0
   45.3810   31.2600   46.2420 O   0  0  0  0  0  0  0  0  0  0  0  0
   45.7360   31.4310   47.1490 H   0  0  0  0  0  0  0  0  0  0  0  0
   47.8340   30.1460   45.8220 O   0  0  0  0  0  0  0  0  0  0  0  0
   48.7950   29.5510   45.0160 C   0  0  0  0  0  0  0  0  0  0  0  0
   49.6530   30.0740   44.6110 H   0  0  0  0  0  0  0  0  0  0  0  0
   48.5280   28.3310   44.8290 O   0  0  0  0  0  0  0  0  0  0  0  0
  1  6  1  0  0  0  0
  2  3  1  0  0  0  0
  2  8  1  0  0  0  0
  2  1  1  0  0  0  0
  3  9  1  0  0  0  0
  3  4  1  0  0  0  0
  4 11  1  0  0  0  0
  4  5  1  0  0  0  0
  5 14  1  0  0  0  0
  5 13  1  0  0  0  0
  6 15  1  6  0  0  0
  6 31  1  0  0  0  0
  6  5  1  0  0  0  0
  7  2  1  0  0  0  0
 10  3  1  0  0  0  0
 12  4  1  0  0  0  0
 16 17  1  0  0  0  0
 16  1  1  0  0  0  0
 18 16  1  0  0  0  0
 19 21  1  0  0  0  0
 19 16  1  0  0  0  0
 20 19  1  0  0  0  0
 22 23  1  0  0  0  0
 23 29  1  0  0  0  0
 23 24  2  0  0  0  0
 24 19  1  0  0  0  0
 25 24  1  0  0  0  0
 26 25  2  0  0  0  0
 27 26  1  0  0  0  0
 27 22  2  0  0  0  0
 28 22  1  0  0  0  0
 30 26  1  0  0  0  0
 31 33  1  0  0  0  0
 33 32  2  6  0  0  0
 33 36  1  0  0  0  0
 33 34  1  0  0  0  0
 34 35  1  0  0  0  0
 37 36  1  0  0  0  0
 38 37  1  0  0  0  0
 39 37  2  0  0  0  0
M  END
>  <minimizedAffinity>
-3.57617784

>  <minimizedRMSD>
0.106088981

$$$$
