
 OpenBabel03252508583D

 39 40  0  0  1  0  0  0  0  0999 V2000
   46.8750   34.3060   43.5500 N   0  0  0  0  0  0  0  0  0  0  0  0
   46.5260   35.0190   42.3660 C   0  0  0  0  0  0  0  0  0  0  0  0
   45.0610   35.0690   42.0530 C   0  0  0  0  0  0  0  0  0  0  0  0
   44.1510   35.0460   43.2510 C   0  0  0  0  0  0  0  0  0  0  0  0
   44.9420   35.1450   44.5340 C   0  0  0  0  0  0  0  0  0  0  0  0
   45.9090   33.9070   44.4540 C   0  0  2  0  0  0  0  0  0  0  0  0
   47.0510   34.7170   41.4550 H   0  0  0  0  0  0  0  0  0  0  0  0
   46.8530   36.0860   42.5380 H   0  0  0  0  0  0  0  0  0  0  0  0
   44.8500   36.0230   41.5040 H   0  0  0  0  0  0  0  0  0  0  0  0
   44.7940   34.2710   41.3130 H   0  0  0  0  0  0  0  0  0  0  0  0
   43.3260   35.7820   43.1780 H   0  0  0  0  0  0  0  0  0  0  0  0
   43.6520   34.0450   43.2580 H   0  0  0  0  0  0  0  0  0  0  0  0
   44.2740   35.0370   45.3980 H   0  0  0  0  0  0  0  0  0  0  0  0
   45.5690   36.0590   44.5460 H   0  0  0  0  0  0  0  0  0  0  0  0
   45.2850   33.0290   44.1880 H   0  0  0  0  0  0  0  0  0  0  0  0
   48.0880   33.5500   43.4450 C   0  0  0  0  0  0  0  0  0  0  0  0
   48.4300   33.2480   44.4530 H   0  0  0  0  0  0  0  0  0  0  0  0
   48.8520   34.1850   42.9490 H   0  0  0  0  0  0  0  0  0  0  0  0
   47.8020   32.3110   42.6430 C   0  0  0  0  0  0  0  0  0  0  0  0
   46.8980   32.4570   41.9870 H   0  0  0  0  0  0  0  0  0  0  0  0
   47.6120   31.4130   43.2450 H   0  0  0  0  0  0  0  0  0  0  0  0
   51.2980   32.0920   41.2780 C   0  0  0  0  0  0  0  0  0  0  0  0
   50.2180   32.3270   42.1490 C   0  0  0  0  0  0  0  0  0  0  0  0
   48.9390   32.0610   41.7160 C   0  0  0  0  0  0  0  0  0  0  0  0
   48.7840   31.5840   40.4690 N   0  0  0  0  0  0  0  0  0  0  0  0
   49.8200   31.3640   39.6450 C   0  0  0  0  0  0  0  0  0  0  0  0
   51.0890   31.6150   40.0410 N   0  0  0  0  0  0  0  0  0  0  0  0
   52.3050   32.3050   41.6290 H   0  0  0  0  0  0  0  0  0  0  0  0
   50.4070   32.7090   43.1360 H   0  0  0  0  0  0  0  0  0  0  0  0
   49.6140   30.9780   38.6540 H   0  0  0  0  0  0  0  0  0  0  0  0
   46.4040   33.8540   45.7480 O   0  0  0  0  0  0  0  0  0  0  0  0
   45.7860   31.2850   45.4310 O   0  0  0  0  0  0  0  0  0  0  0  0
   46.1950   32.3460   46.4600 P   0  0  2  0  0  0  0  0  0  0  0  0
   44.8370   32.4930   47.4930 O   0  0  0  0  0  0  0  0  0  0  0  0
   45.0970   32.9840   48.3110 H   0  0  0  0  0  0  0  0  0  0  0  0
   47.4900   31.8700   47.3880 O   0  0  0  0  0  0  0  0  0  0  0  0
   47.3680   30.7670   48.2200 C   0  0  0  0  0  0  0  0  0  0  0  0
   47.8370   29.8090   48.0270 H   0  0  0  0  0  0  0  0  0  0  0  0
   46.6440   31.0370   49.2190 O   0  0  0  0  0  0  0  0  0  0  0  0
  1  6  1  0  0  0  0
  2  8  1  0  0  0  0
  2  1  1  0  0  0  0
  3  2  1  0  0  0  0
  3  4  1  0  0  0  0
  4 12  1  0  0  0  0
  4  5  1  0  0  0  0
  5 14  1  0  0  0  0
  5 13  1  0  0  0  0
  6 15  1  6  0  0  0
  6  5  1  0  0  0  0
  6 31  1  0  0  0  0
  7  2  1  0  0  0  0
  9  3  1  0  0  0  0
 10  3  1  0  0  0  0
 11  4  1  0  0  0  0
 16  1  1  0  0  0  0
 16 17  1  0  0  0  0
 18 16  1  0  0  0  0
 19 21  1  0  0  0  0
 19 16  1  0  0  0  0
 20 19  1  0  0  0  0
 22 28  1  0  0  0  0
 22 23  1  0  0  0  0
 23 29  1  0  0  0  0
 24 23  2  0  0  0  0
 24 19  1  0  0  0  0
 25 24  1  0  0  0  0
 26 27  1  0  0  0  0
 26 25  2  0  0  0  0
 27 22  2  0  0  0  0
 30 26  1  0  0  0  0
 31 33  1  0  0  0  0
 33 32  2  6  0  0  0
 33 36  1  0  0  0  0
 33 34  1  0  0  0  0
 34 35  1  0  0  0  0
 36 37  1  0  0  0  0
 37 39  2  0  0  0  0
 38 37  1  0  0  0  0
M  END
>  <minimizedAffinity>
-4.27263784

>  <minimizedRMSD>
2.59272861

$$$$
