
 OpenBabel03252505103D

 38 40  0  0  1  0  0  0  0  0999 V2000
   44.5680   35.6050   44.6100 C   0  0  0  0  0  0  0  0  0  0  0  0
   45.2270   35.6160   43.3550 C   0  0  0  0  0  0  0  0  0  0  0  0
   46.3170   34.6990   43.1820 C   0  0  0  0  0  0  0  0  0  0  0  0
   46.6540   33.8850   44.2020 N   0  0  0  0  0  0  0  0  0  0  0  0
   46.0040   33.9080   45.3690 C   0  0  0  0  0  0  0  0  0  0  0  0
   44.9530   34.7690   45.5860 N   0  0  0  0  0  0  0  0  0  0  0  0
   43.7670   36.3070   44.6790 H   0  0  0  0  0  0  0  0  0  0  0  0
   44.9480   36.2740   42.5410 H   0  0  0  0  0  0  0  0  0  0  0  0
   46.4240   32.9870   46.4640 C   0  0  2  0  0  0  0  0  0  0  0  0
   46.9480   31.7560   45.7570 C   0  0  0  0  0  0  0  0  0  0  0  0
   46.0770   30.5740   45.7670 C   0  0  0  0  0  0  0  0  0  0  0  0
   45.7930   30.3010   47.2400 C   0  0  0  0  0  0  0  0  0  0  0  0
   44.9960   31.3730   47.8600 C   0  0  0  0  0  0  0  0  0  0  0  0
   45.3750   32.7420   47.4120 C   0  0  0  0  0  0  0  0  0  0  0  0
   47.2700   33.5170   46.9650 H   0  0  0  0  0  0  0  0  0  0  0  0
   47.8970   31.4760   46.2650 H   0  0  0  0  0  0  0  0  0  0  0  0
   47.2580   31.9670   44.7030 H   0  0  0  0  0  0  0  0  0  0  0  0
   45.1390   30.6500   45.2030 H   0  0  0  0  0  0  0  0  0  0  0  0
   46.6450   29.7130   45.4100 H   0  0  0  0  0  0  0  0  0  0  0  0
   45.1060   29.4170   47.2180 H   0  0  0  0  0  0  0  0  0  0  0  0
   46.7070   30.0260   47.7730 H   0  0  0  0  0  0  0  0  0  0  0  0
   44.2030   31.3950   48.5600 H   0  0  0  0  0  0  0  0  0  0  0  0
   44.6840   33.8730   47.9290 N   0  0  0  0  0  0  0  0  0  0  0  0
   45.1590   34.6080   48.4890 H   0  0  0  0  0  0  0  0  0  0  0  0
   43.6700   34.0540   47.7910 H   0  0  0  0  0  0  0  0  0  0  0  0
   47.0140   34.6840   41.9050 C   0  0  0  0  0  0  0  0  0  0  0  0
   48.1520   35.3960   41.7730 C   0  0  0  0  0  0  0  0  0  0  0  0
   48.7780   35.3400   40.5140 C   0  0  0  0  0  0  0  0  0  0  0  0
   48.1660   34.5630   39.5420 C   0  0  0  0  0  0  0  0  0  0  0  0
   47.0120   33.8430   39.6830 C   0  0  0  0  0  0  0  0  0  0  0  0
   46.4520   33.9360   40.9230 N   0  0  0  0  0  0  0  0  0  0  0  0
   48.6160   35.9980   42.5390 H   0  0  0  0  0  0  0  0  0  0  0  0
   49.6930   35.8790   40.3180 H   0  0  0  0  0  0  0  0  0  0  0  0
   48.6850   34.5480   38.5860 H   0  0  0  0  0  0  0  0  0  0  0  0
   46.4790   33.1000   38.6560 O   0  0  0  0  0  0  0  0  0  0  0  0
   45.0860   32.9220   38.6640 C   0  0  0  0  0  0  0  0  0  0  0  0
   44.4280   32.1900   39.1370 H   0  0  0  0  0  0  0  0  0  0  0  0
   44.0250   33.4220   38.2100 O   0  0  0  0  0  0  0  0  0  0  0  0
  1  7  1  0  0  0  0
  1  6  1  0  0  0  0
  2  1  2  0  0  0  0
  3  2  1  0  0  0  0
  3  4  2  0  0  0  0
  4  5  1  0  0  0  0
  5  6  2  0  0  0  0
  5  9  1  0  0  0  0
  8  2  1  0  0  0  0
  9 15  1  1  0  0  0
  9 14  1  0  0  0  0
 10 11  1  0  0  0  0
 10 16  1  0  0  0  0
 10  9  1  0  0  0  0
 11 12  1  0  0  0  0
 12 21  1  0  0  0  0
 12 13  1  0  0  0  0
 13 22  1  0  0  0  0
 14 13  2  0  0  0  0
 14 23  1  0  0  0  0
 17 10  1  0  0  0  0
 18 11  1  0  0  0  0
 19 11  1  0  0  0  0
 20 12  1  0  0  0  0
 23 24  1  0  0  0  0
 25 23  1  0  0  0  0
 26  3  1  0  0  0  0
 27 26  1  0  0  0  0
 27 32  1  0  0  0  0
 28 27  2  0  0  0  0
 29 30  2  0  0  0  0
 29 28  1  0  0  0  0
 30 31  1  0  0  0  0
 31 26  2  0  0  0  0
 33 28  1  0  0  0  0
 34 29  1  0  0  0  0
 35 36  1  0  0  0  0
 35 30  1  0  0  0  0
 36 37  1  0  0  0  0
 38 36  2  0  0  0  0
M  END
>  <minimizedAffinity>
-6.61853886

>  <minimizedRMSD>
0.510549128

$$$$
