
 OpenBabel03242516433D

 38 39  0  0  1  0  0  0  0  0999 V2000
   34.8120   28.9270   40.3190 O   0  0  0  0  0  0  0  0  0  0  0  0
   36.0450   29.7940   40.4990 P   0  0  2  0  0  0  0  0  0  0  0  0
   35.7390   31.1640   41.4060 O   0  0  0  0  0  0  0  0  0  0  0  0
   36.5120   31.7900   41.2380 H   0  0  0  0  0  0  0  0  0  0  0  0
   36.6240   30.2370   38.9830 O   0  0  0  0  0  0  0  0  0  0  0  0
   37.4570   31.3430   39.0630 C   0  0  0  0  0  0  0  0  0  0  0  0
   36.9250   32.1860   38.5730 H   0  0  0  0  0  0  0  0  0  0  0  0
   37.5780   31.5640   40.1370 H   0  0  0  0  0  0  0  0  0  0  0  0
   38.7900   31.0350   38.4560 C   0  0  0  0  0  0  0  0  0  0  0  0
   39.2210   30.0880   38.7980 H   0  0  0  0  0  0  0  0  0  0  0  0
   38.6740   30.9160   37.3410 H   0  0  0  0  0  0  0  0  0  0  0  0
   41.4880   33.5620   37.7970 C   0  0  0  0  0  0  0  0  0  0  0  0
   40.6360   32.4610   37.6410 C   0  0  0  0  0  0  0  0  0  0  0  0
   39.6960   32.2020   38.6190 C   0  0  0  0  0  0  0  0  0  0  0  0
   39.6340   33.0300   39.7000 N   0  0  0  0  0  0  0  0  0  0  0  0
   40.4740   34.0850   39.8190 C   0  0  0  0  0  0  0  0  0  0  0  0
   41.3970   34.3550   38.8790 N   0  0  0  0  0  0  0  0  0  0  0  0
   42.4640   33.8600   36.8180 N   0  0  0  0  0  0  0  0  0  0  0  0
   40.7350   31.8510   36.7690 H   0  0  0  0  0  0  0  0  0  0  0  0
   40.3210   34.6620   40.7240 H   0  0  0  0  0  0  0  0  0  0  0  0
   42.7360   33.1040   36.1480 H   0  0  0  0  0  0  0  0  0  0  0  0
   42.8970   34.7930   36.7610 H   0  0  0  0  0  0  0  0  0  0  0  0
   37.2480   28.8920   41.3190 O   0  0  0  0  0  0  0  0  0  0  0  0
   38.7500   29.6260   42.9800 C   0  0  1  0  0  0  0  0  0  0  0  0
   37.3390   29.2520   42.6310 C   0  0  2  0  0  0  0  0  0  0  0  0
   37.2450   27.9270   43.4230 C   0  0  0  0  0  0  0  0  0  0  0  0
   38.4510   27.3050   43.2490 O   0  0  0  0  0  0  0  0  0  0  0  0
   39.4080   28.2570   43.0010 C   0  0  0  0  0  0  0  0  0  0  0  0
   38.8240   30.0450   44.0040 H   0  0  0  0  0  0  0  0  0  0  0  0
   36.5690   29.9600   42.9970 H   0  0  0  0  0  0  0  0  0  0  0  0
   37.0950   28.2320   44.4900 H   0  0  0  0  0  0  0  0  0  0  0  0
   36.3770   27.3490   43.0710 H   0  0  0  0  0  0  0  0  0  0  0  0
   39.8190   28.0920   41.9800 H   0  0  0  0  0  0  0  0  0  0  0  0
   40.2530   28.2610   43.7030 H   0  0  0  0  0  0  0  0  0  0  0  0
   39.3390   30.4540   42.0120 O   0  0  0  0  0  0  0  0  0  0  0  0
   40.7280   30.6310   42.0730 C   0  0  0  0  0  0  0  0  0  0  0  0
   41.2590   30.1840   41.2210 H   0  0  0  0  0  0  0  0  0  0  0  0
   41.4320   31.2230   42.9590 O   0  0  0  0  0  0  0  0  0  0  0  0
  2  1  2  6  0  0  0
  2 23  1  0  0  0  0
  2  3  1  0  0  0  0
  4  3  1  0  0  0  0
  5  6  1  0  0  0  0
  5  2  1  0  0  0  0
  6  8  1  0  0  0  0
  7  6  1  0  0  0  0
  9 14  1  0  0  0  0
  9 10  1  0  0  0  0
  9  6  1  0  0  0  0
 11  9  1  0  0  0  0
 12 17  1  0  0  0  0
 13 12  2  0  0  0  0
 13 14  1  0  0  0  0
 14 15  2  0  0  0  0
 15 16  1  0  0  0  0
 16 20  1  0  0  0  0
 17 16  2  0  0  0  0
 18 12  1  0  0  0  0
 19 13  1  0  0  0  0
 21 18  1  0  0  0  0
 22 18  1  0  0  0  0
 23 25  1  0  0  0  0
 24 28  1  0  0  0  0
 24 29  1  1  0  0  0
 25 24  1  0  0  0  0
 25 30  1  1  0  0  0
 25 26  1  0  0  0  0
 26 31  1  0  0  0  0
 27 26  1  0  0  0  0
 28 27  1  0  0  0  0
 28 34  1  0  0  0  0
 32 26  1  0  0  0  0
 33 28  1  0  0  0  0
 35 36  1  0  0  0  0
 35 24  1  0  0  0  0
 36 38  2  0  0  0  0
 37 36  1  0  0  0  0
M  END
>  <minimizedAffinity>
-5.19899559

$$$$

 OpenBabel03242516433D

 38 39  0  0  1  0  0  0  0  0999 V2000
   36.9580   30.8980   39.1090 O   0  0  0  0  0  0  0  0  0  0  0  0
   37.0380   30.7970   40.6220 P   0  0  2  0  0  0  0  0  0  0  0  0
   35.5510   30.9990   41.3580 O   0  0  0  0  0  0  0  0  0  0  0  0
   35.7430   31.1910   42.3290 H   0  0  0  0  0  0  0  0  0  0  0  0
   38.1130   31.9600   41.1880 O   0  0  0  0  0  0  0  0  0  0  0  0
   38.3340   32.9490   40.2400 C   0  0  0  0  0  0  0  0  0  0  0  0
   38.1040   32.5050   39.2480 H   0  0  0  0  0  0  0  0  0  0  0  0
   37.6100   33.7540   40.4560 H   0  0  0  0  0  0  0  0  0  0  0  0
   39.7280   33.4790   40.3570 C   0  0  0  0  0  0  0  0  0  0  0  0
   39.7770   34.5600   40.5240 H   0  0  0  0  0  0  0  0  0  0  0  0
   40.2270   33.0220   41.2590 H   0  0  0  0  0  0  0  0  0  0  0  0
   42.0830   33.4830   37.4310 C   0  0  0  0  0  0  0  0  0  0  0  0
   41.3200   33.9250   38.5200 C   0  0  0  0  0  0  0  0  0  0  0  0
   40.5390   33.0130   39.2010 C   0  0  0  0  0  0  0  0  0  0  0  0
   40.5410   31.7140   38.7860 N   0  0  0  0  0  0  0  0  0  0  0  0
   41.2910   31.3210   37.7290 C   0  0  0  0  0  0  0  0  0  0  0  0
   42.0580   32.1940   37.0520 N   0  0  0  0  0  0  0  0  0  0  0  0
   42.8950   34.3870   36.7080 N   0  0  0  0  0  0  0  0  0  0  0  0
   41.3620   34.9570   38.7950 H   0  0  0  0  0  0  0  0  0  0  0  0
   41.2020   30.2650   37.5030 H   0  0  0  0  0  0  0  0  0  0  0  0
   42.6960   35.4100   36.8010 H   0  0  0  0  0  0  0  0  0  0  0  0
   43.6620   34.0540   36.1070 H   0  0  0  0  0  0  0  0  0  0  0  0
   37.6160   29.2430   41.0480 O   0  0  0  0  0  0  0  0  0  0  0  0
   39.3250   28.5990   42.5380 C   0  0  1  0  0  0  0  0  0  0  0  0
   37.9490   29.1750   42.3690 C   0  0  2  0  0  0  0  0  0  0  0  0
   37.1290   27.9920   42.9350 C   0  0  0  0  0  0  0  0  0  0  0  0
   37.7360   26.8600   42.4650 O   0  0  0  0  0  0  0  0  0  0  0  0
   39.0580   27.1360   42.2240 C   0  0  0  0  0  0  0  0  0  0  0  0
   39.6680   28.6540   43.5920 H   0  0  0  0  0  0  0  0  0  0  0  0
   37.7510   30.0860   42.9690 H   0  0  0  0  0  0  0  0  0  0  0  0
   37.2250   28.0730   44.0470 H   0  0  0  0  0  0  0  0  0  0  0  0
   36.0730   28.1020   42.6390 H   0  0  0  0  0  0  0  0  0  0  0  0
   39.2570   27.0100   41.1360 H   0  0  0  0  0  0  0  0  0  0  0  0
   39.7720   26.5030   42.7680 H   0  0  0  0  0  0  0  0  0  0  0  0
   40.2490   29.1490   41.6380 O   0  0  0  0  0  0  0  0  0  0  0  0
   41.1000   30.1540   42.1200 C   0  0  0  0  0  0  0  0  0  0  0  0
   42.1400   30.0390   41.7840 H   0  0  0  0  0  0  0  0  0  0  0  0
   40.8320   31.1510   42.8730 O   0  0  0  0  0  0  0  0  0  0  0  0
  2  1  2  6  0  0  0
  2 23  1  0  0  0  0
  2  5  1  0  0  0  0
  2  3  1  0  0  0  0
  3  4  1  0  0  0  0
  6  9  1  0  0  0  0
  6  8  1  0  0  0  0
  6  5  1  0  0  0  0
  7  6  1  0  0  0  0
  9 10  1  0  0  0  0
  9 11  1  0  0  0  0
 12 13  1  0  0  0  0
 13 19  1  0  0  0  0
 13 14  2  0  0  0  0
 14  9  1  0  0  0  0
 15 14  1  0  0  0  0
 16 15  2  0  0  0  0
 17 12  2  0  0  0  0
 17 16  1  0  0  0  0
 18 21  1  0  0  0  0
 18 12  1  0  0  0  0
 20 16  1  0  0  0  0
 22 18  1  0  0  0  0
 23 25  1  0  0  0  0
 24 29  1  1  0  0  0
 25 24  1  0  0  0  0
 25 26  1  0  0  0  0
 25 30  1  1  0  0  0
 26 31  1  0  0  0  0
 27 26  1  0  0  0  0
 28 27  1  0  0  0  0
 28 24  1  0  0  0  0
 28 34  1  0  0  0  0
 32 26  1  0  0  0  0
 33 28  1  0  0  0  0
 35 36  1  0  0  0  0
 35 24  1  0  0  0  0
 36 38  2  0  0  0  0
 37 36  1  0  0  0  0
M  END
>  <minimizedAffinity>
-5.08341455

$$$$

 OpenBabel03242516433D

 38 39  0  0  1  0  0  0  0  0999 V2000
   34.7970   28.9080   40.3910 O   0  0  0  0  0  0  0  0  0  0  0  0
   36.0890   29.6120   40.7640 P   0  0  2  0  0  0  0  0  0  0  0  0
   35.8260   31.0850   41.5080 O   0  0  0  0  0  0  0  0  0  0  0  0
   36.7020   31.5830   41.4620 H   0  0  0  0  0  0  0  0  0  0  0  0
   37.0070   29.8360   39.3730 O   0  0  0  0  0  0  0  0  0  0  0  0
   36.6400   30.9960   38.7060 C   0  0  0  0  0  0  0  0  0  0  0  0
   35.6910   30.7750   38.1700 H   0  0  0  0  0  0  0  0  0  0  0  0
   36.4510   31.7550   39.4840 H   0  0  0  0  0  0  0  0  0  0  0  0
   37.7470   31.4540   37.8100 C   0  0  0  0  0  0  0  0  0  0  0  0
   38.1840   30.6530   37.2050 H   0  0  0  0  0  0  0  0  0  0  0  0
   37.3420   32.1950   37.0630 H   0  0  0  0  0  0  0  0  0  0  0  0
   39.2500   33.7250   40.3950 C   0  0  0  0  0  0  0  0  0  0  0  0
   38.3080   33.0020   39.6520 C   0  0  0  0  0  0  0  0  0  0  0  0
   38.7450   32.2220   38.6000 C   0  0  0  0  0  0  0  0  0  0  0  0
   40.0790   32.1870   38.3250 N   0  0  0  0  0  0  0  0  0  0  0  0
   40.9630   32.8990   39.0640 C   0  0  0  0  0  0  0  0  0  0  0  0
   40.5580   33.6650   40.0920 N   0  0  0  0  0  0  0  0  0  0  0  0
   38.8410   34.5350   41.4800 N   0  0  0  0  0  0  0  0  0  0  0  0
   37.2750   33.0720   39.9200 H   0  0  0  0  0  0  0  0  0  0  0  0
   41.9910   32.7840   38.7400 H   0  0  0  0  0  0  0  0  0  0  0  0
   37.8360   34.8170   41.5330 H   0  0  0  0  0  0  0  0  0  0  0  0
   39.5110   34.8410   42.2010 H   0  0  0  0  0  0  0  0  0  0  0  0
   36.9630   28.6300   41.8620 O   0  0  0  0  0  0  0  0  0  0  0  0
   38.4960   26.8810   41.4800 C   0  0  1  0  0  0  0  0  0  0  0  0
   38.2170   28.3540   41.4010 C   0  0  2  0  0  0  0  0  0  0  0  0
   39.1740   28.8340   42.5170 C   0  0  0  0  0  0  0  0  0  0  0  0
   39.0670   27.9110   43.5210 O   0  0  0  0  0  0  0  0  0  0  0  0
   38.6850   26.7100   42.9780 C   0  0  0  0  0  0  0  0  0  0  0  0
   39.4570   26.6170   40.9920 H   0  0  0  0  0  0  0  0  0  0  0  0
   38.4980   28.8280   40.4400 H   0  0  0  0  0  0  0  0  0  0  0  0
   40.1950   28.8170   42.0570 H   0  0  0  0  0  0  0  0  0  0  0  0
   38.9110   29.8620   42.8110 H   0  0  0  0  0  0  0  0  0  0  0  0
   37.6890   26.4330   43.3890 H   0  0  0  0  0  0  0  0  0  0  0  0
   39.3700   25.8730   43.1730 H   0  0  0  0  0  0  0  0  0  0  0  0
   37.4220   26.1080   41.0150 O   0  0  0  0  0  0  0  0  0  0  0  0
   37.0390   25.0040   41.7890 C   0  0  0  0  0  0  0  0  0  0  0  0
   36.3990   25.2730   42.6410 H   0  0  0  0  0  0  0  0  0  0  0  0
   37.3280   23.7680   41.6390 O   0  0  0  0  0  0  0  0  0  0  0  0
  2  1  2  6  0  0  0
  2  3  1  0  0  0  0
  2 23  1  0  0  0  0
  4  3  1  0  0  0  0
  5  2  1  0  0  0  0
  6  5  1  0  0  0  0
  6  8  1  0  0  0  0
  7  6  1  0  0  0  0
  9 14  1  0  0  0  0
  9  6  1  0  0  0  0
 10  9  1  0  0  0  0
 11  9  1  0  0  0  0
 12 18  1  0  0  0  0
 13 19  1  0  0  0  0
 13 12  2  0  0  0  0
 14 13  1  0  0  0  0
 15 14  2  0  0  0  0
 15 16  1  0  0  0  0
 16 17  2  0  0  0  0
 17 12  1  0  0  0  0
 18 21  1  0  0  0  0
 18 22  1  0  0  0  0
 20 16  1  0  0  0  0
 24 29  1  6  0  0  0
 24 28  1  0  0  0  0
 25 30  1  6  0  0  0
 25 24  1  0  0  0  0
 25 23  1  0  0  0  0
 25 26  1  0  0  0  0
 26 32  1  0  0  0  0
 26 27  1  0  0  0  0
 28 34  1  0  0  0  0
 28 33  1  0  0  0  0
 28 27  1  0  0  0  0
 31 26  1  0  0  0  0
 35 24  1  0  0  0  0
 35 36  1  0  0  0  0
 36 37  1  0  0  0  0
 38 36  2  0  0  0  0
M  END
>  <minimizedAffinity>
-5.06891918

$$$$

 OpenBabel03242516433D

 38 39  0  0  1  0  0  0  0  0999 V2000
   36.9220   30.7020   39.0480 O   0  0  0  0  0  0  0  0  0  0  0  0
   37.0270   30.5520   40.5550 P   0  0  2  0  0  0  0  0  0  0  0  0
   35.7010   31.1770   41.3570 O   0  0  0  0  0  0  0  0  0  0  0  0
   35.9790   31.2840   42.3200 H   0  0  0  0  0  0  0  0  0  0  0  0
   38.4240   31.3280   41.0810 O   0  0  0  0  0  0  0  0  0  0  0  0
   39.0030   32.0730   40.0640 C   0  0  0  0  0  0  0  0  0  0  0  0
   39.7770   31.4310   39.5920 H   0  0  0  0  0  0  0  0  0  0  0  0
   38.2020   32.2750   39.3320 H   0  0  0  0  0  0  0  0  0  0  0  0
   39.5340   33.3640   40.6020 C   0  0  0  0  0  0  0  0  0  0  0  0
   38.8560   34.2120   40.4630 H   0  0  0  0  0  0  0  0  0  0  0  0
   39.6660   33.2770   41.7190 H   0  0  0  0  0  0  0  0  0  0  0  0
   42.3640   34.0920   38.2440 C   0  0  0  0  0  0  0  0  0  0  0  0
   41.0710   33.8710   38.7350 C   0  0  0  0  0  0  0  0  0  0  0  0
   40.9050   33.5990   40.0780 C   0  0  0  0  0  0  0  0  0  0  0  0
   42.0100   33.5550   40.8760 N   0  0  0  0  0  0  0  0  0  0  0  0
   43.2460   33.7730   40.3680 C   0  0  0  0  0  0  0  0  0  0  0  0
   43.4290   34.0400   39.0630 N   0  0  0  0  0  0  0  0  0  0  0  0
   42.5750   34.3740   36.8740 N   0  0  0  0  0  0  0  0  0  0  0  0
   40.2460   33.9200   38.0570 H   0  0  0  0  0  0  0  0  0  0  0  0
   44.0360   33.7090   41.1070 H   0  0  0  0  0  0  0  0  0  0  0  0
   41.8160   34.1270   36.1980 H   0  0  0  0  0  0  0  0  0  0  0  0
   43.4480   34.8100   36.5460 H   0  0  0  0  0  0  0  0  0  0  0  0
   37.1270   28.8880   40.9460 O   0  0  0  0  0  0  0  0  0  0  0  0
   38.4640   27.1740   41.8570 C   0  0  1  0  0  0  0  0  0  0  0  0
   38.1380   28.6390   41.8280 C   0  0  2  0  0  0  0  0  0  0  0  0
   37.4950   28.7630   43.2280 C   0  0  0  0  0  0  0  0  0  0  0  0
   36.7360   27.6370   43.3910 O   0  0  0  0  0  0  0  0  0  0  0  0
   37.2650   26.6330   42.6180 C   0  0  0  0  0  0  0  0  0  0  0  0
   39.3660   26.9640   42.4670 H   0  0  0  0  0  0  0  0  0  0  0  0
   39.0180   29.3080   41.7610 H   0  0  0  0  0  0  0  0  0  0  0  0
   38.3540   28.7820   43.9460 H   0  0  0  0  0  0  0  0  0  0  0  0
   36.9310   29.7070   43.2920 H   0  0  0  0  0  0  0  0  0  0  0  0
   36.5140   26.3400   41.8510 H   0  0  0  0  0  0  0  0  0  0  0  0
   37.5510   25.7260   43.1670 H   0  0  0  0  0  0  0  0  0  0  0  0
   38.5380   26.6170   40.5710 O   0  0  0  0  0  0  0  0  0  0  0  0
   37.6580   25.5690   40.2700 C   0  0  0  0  0  0  0  0  0  0  0  0
   37.6700   24.7640   41.0190 H   0  0  0  0  0  0  0  0  0  0  0  0
   36.8710   25.4310   39.2730 O   0  0  0  0  0  0  0  0  0  0  0  0
  2  1  2  6  0  0  0
  2 23  1  0  0  0  0
  2  5  1  0  0  0  0
  2  3  1  0  0  0  0
  3  4  1  0  0  0  0
  6  9  1  0  0  0  0
  6  5  1  0  0  0  0
  7  6  1  0  0  0  0
  8  6  1  0  0  0  0
  9 11  1  0  0  0  0
 10  9  1  0  0  0  0
 12 13  2  0  0  0  0
 12 17  1  0  0  0  0
 13 14  1  0  0  0  0
 14  9  1  0  0  0  0
 14 15  2  0  0  0  0
 16 15  1  0  0  0  0
 16 20  1  0  0  0  0
 17 16  2  0  0  0  0
 18 12  1  0  0  0  0
 19 13  1  0  0  0  0
 21 18  1  0  0  0  0
 22 18  1  0  0  0  0
 23 25  1  0  0  0  0
 24 29  1  1  0  0  0
 24 28  1  0  0  0  0
 25 30  1  6  0  0  0
 25 24  1  0  0  0  0
 25 26  1  0  0  0  0
 26 32  1  0  0  0  0
 26 27  1  0  0  0  0
 26 31  1  0  0  0  0
 28 34  1  0  0  0  0
 28 27  1  0  0  0  0
 33 28  1  0  0  0  0
 35 24  1  0  0  0  0
 36 35  1  0  0  0  0
 36 37  1  0  0  0  0
 38 36  2  0  0  0  0
M  END
>  <minimizedAffinity>
-5.04639578

$$$$

 OpenBabel03242516433D

 38 39  0  0  1  0  0  0  0  0999 V2000
   37.8090   31.9760   40.3400 O   0  0  0  0  0  0  0  0  0  0  0  0
   36.8770   30.7830   40.4440 P   0  0  2  0  0  0  0  0  0  0  0  0
   35.5630   31.0780   41.4330 O   0  0  0  0  0  0  0  0  0  0  0  0
   35.1710   30.1760   41.6560 H   0  0  0  0  0  0  0  0  0  0  0  0
   37.7440   29.4660   41.0310 O   0  0  0  0  0  0  0  0  0  0  0  0
   37.4450   29.2170   42.3620 C   0  0  0  0  0  0  0  0  0  0  0  0
   38.4000   29.2810   42.9270 H   0  0  0  0  0  0  0  0  0  0  0  0
   36.7740   30.0300   42.6870 H   0  0  0  0  0  0  0  0  0  0  0  0
   36.7480   27.9000   42.5020 C   0  0  0  0  0  0  0  0  0  0  0  0
   35.9330   27.9080   43.2330 H   0  0  0  0  0  0  0  0  0  0  0  0
   36.2580   27.6320   41.5220 H   0  0  0  0  0  0  0  0  0  0  0  0
   38.5030   24.5840   42.3490 C   0  0  0  0  0  0  0  0  0  0  0  0
   37.5580   25.5950   42.1330 C   0  0  0  0  0  0  0  0  0  0  0  0
   37.7500   26.8250   42.7290 C   0  0  0  0  0  0  0  0  0  0  0  0
   38.8540   27.0080   43.5070 N   0  0  0  0  0  0  0  0  0  0  0  0
   39.7480   26.0080   43.6950 C   0  0  0  0  0  0  0  0  0  0  0  0
   39.5800   24.8030   43.1240 N   0  0  0  0  0  0  0  0  0  0  0  0
   38.3420   23.3100   41.7560 N   0  0  0  0  0  0  0  0  0  0  0  0
   36.7130   25.3880   41.5110 H   0  0  0  0  0  0  0  0  0  0  0  0
   40.5790   26.2840   44.3340 H   0  0  0  0  0  0  0  0  0  0  0  0
   37.3910   23.0440   41.4120 H   0  0  0  0  0  0  0  0  0  0  0  0
   39.1360   22.6600   41.6620 H   0  0  0  0  0  0  0  0  0  0  0  0
   36.2730   30.4090   38.8850 O   0  0  0  0  0  0  0  0  0  0  0  0
   36.1210   28.8080   37.1620 C   0  0  1  0  0  0  0  0  0  0  0  0
   36.3570   29.0740   38.6200 C   0  0  2  0  0  0  0  0  0  0  0  0
   35.0520   28.4650   39.1840 C   0  0  0  0  0  0  0  0  0  0  0  0
   34.0640   28.8320   38.3120 O   0  0  0  0  0  0  0  0  0  0  0  0
   34.6210   29.0350   37.0740 C   0  0  0  0  0  0  0  0  0  0  0  0
   36.3120   27.7480   36.9000 H   0  0  0  0  0  0  0  0  0  0  0  0
   37.2310   28.5450   39.0520 H   0  0  0  0  0  0  0  0  0  0  0  0
   35.2140   27.3570   39.1710 H   0  0  0  0  0  0  0  0  0  0  0  0
   34.9010   28.8120   40.2180 H   0  0  0  0  0  0  0  0  0  0  0  0
   34.4830   30.1020   36.7910 H   0  0  0  0  0  0  0  0  0  0  0  0
   34.1990   28.4200   36.2680 H   0  0  0  0  0  0  0  0  0  0  0  0
   36.8170   29.7040   36.3360 O   0  0  0  0  0  0  0  0  0  0  0  0
   36.3350   29.8860   35.0320 C   0  0  0  0  0  0  0  0  0  0  0  0
   35.5500   30.6510   34.9630 H   0  0  0  0  0  0  0  0  0  0  0  0
   36.6790   29.2970   33.9510 O   0  0  0  0  0  0  0  0  0  0  0  0
  2  1  2  6  0  0  0
  2  5  1  0  0  0  0
  2  3  1  0  0  0  0
  3  4  1  0  0  0  0
  5  6  1  0  0  0  0
  6  9  1  0  0  0  0
  6  8  1  0  0  0  0
  6  7  1  0  0  0  0
  9 14  1  0  0  0  0
  9 10  1  0  0  0  0
 11  9  1  0  0  0  0
 12 17  1  0  0  0  0
 13 12  2  0  0  0  0
 13 14  1  0  0  0  0
 14 15  2  0  0  0  0
 15 16  1  0  0  0  0
 16 20  1  0  0  0  0
 17 16  2  0  0  0  0
 18 12  1  0  0  0  0
 19 13  1  0  0  0  0
 21 18  1  0  0  0  0
 22 18  1  0  0  0  0
 23  2  1  0  0  0  0
 24 29  1  6  0  0  0
 24 25  1  0  0  0  0
 25 23  1  0  0  0  0
 25 30  1  1  0  0  0
 25 26  1  0  0  0  0
 26 32  1  0  0  0  0
 27 26  1  0  0  0  0
 28 24  1  0  0  0  0
 28 27  1  0  0  0  0
 31 26  1  0  0  0  0
 33 28  1  0  0  0  0
 34 28  1  0  0  0  0
 35 24  1  0  0  0  0
 36 35  1  0  0  0  0
 37 36  1  0  0  0  0
 38 36  2  0  0  0  0
M  END
>  <minimizedAffinity>
-4.94891977

$$$$

 OpenBabel03242516433D

 38 39  0  0  1  0  0  0  0  0999 V2000
   34.9530   28.7870   40.5730 O   0  0  0  0  0  0  0  0  0  0  0  0
   36.1010   29.7780   40.5060 P   0  0  2  0  0  0  0  0  0  0  0  0
   35.7800   31.1900   41.3390 O   0  0  0  0  0  0  0  0  0  0  0  0
   36.4520   31.8680   41.0140 H   0  0  0  0  0  0  0  0  0  0  0  0
   36.4200   30.1320   38.8920 O   0  0  0  0  0  0  0  0  0  0  0  0
   37.7840   30.1850   38.6460 C   0  0  0  0  0  0  0  0  0  0  0  0
   38.2940   30.1490   39.6320 H   0  0  0  0  0  0  0  0  0  0  0  0
   38.0320   29.2740   38.0740 H   0  0  0  0  0  0  0  0  0  0  0  0
   38.1190   31.3970   37.8360 C   0  0  0  0  0  0  0  0  0  0  0  0
   38.5130   31.1670   36.8400 H   0  0  0  0  0  0  0  0  0  0  0  0
   37.1800   31.9910   37.6460 H   0  0  0  0  0  0  0  0  0  0  0  0
   39.2640   33.8320   40.4550 C   0  0  0  0  0  0  0  0  0  0  0  0
   38.4440   32.9760   39.7080 C   0  0  0  0  0  0  0  0  0  0  0  0
   38.9870   32.3060   38.6300 C   0  0  0  0  0  0  0  0  0  0  0  0
   40.3020   32.5040   38.3340 N   0  0  0  0  0  0  0  0  0  0  0  0
   41.0660   33.3400   39.0770 C   0  0  0  0  0  0  0  0  0  0  0  0
   40.5570   34.0020   40.1310 N   0  0  0  0  0  0  0  0  0  0  0  0
   38.7450   34.5360   41.5660 N   0  0  0  0  0  0  0  0  0  0  0  0
   37.4200   32.8640   39.9930 H   0  0  0  0  0  0  0  0  0  0  0  0
   42.0930   33.4090   38.7350 H   0  0  0  0  0  0  0  0  0  0  0  0
   37.7070   34.6420   41.6410 H   0  0  0  0  0  0  0  0  0  0  0  0
   39.3670   34.9350   42.2850 H   0  0  0  0  0  0  0  0  0  0  0  0
   37.4920   29.0700   41.2110 O   0  0  0  0  0  0  0  0  0  0  0  0
   39.0940   29.7980   42.7800 C   0  0  1  0  0  0  0  0  0  0  0  0
   37.6550   29.4650   42.5060 C   0  0  2  0  0  0  0  0  0  0  0  0
   37.5530   28.1680   43.3420 C   0  0  0  0  0  0  0  0  0  0  0  0
   38.7270   27.4970   43.1340 O   0  0  0  0  0  0  0  0  0  0  0  0
   39.7030   28.4070   42.8140 C   0  0  0  0  0  0  0  0  0  0  0  0
   39.2290   30.2440   43.7860 H   0  0  0  0  0  0  0  0  0  0  0  0
   36.9280   30.2100   42.8840 H   0  0  0  0  0  0  0  0  0  0  0  0
   37.4620   28.5090   44.4050 H   0  0  0  0  0  0  0  0  0  0  0  0
   36.6490   27.6110   43.0470 H   0  0  0  0  0  0  0  0  0  0  0  0
   40.0610   28.1970   41.7810 H   0  0  0  0  0  0  0  0  0  0  0  0
   40.5790   28.4010   43.4760 H   0  0  0  0  0  0  0  0  0  0  0  0
   39.6650   30.5750   41.7610 O   0  0  0  0  0  0  0  0  0  0  0  0
   41.0520   30.7730   41.8020 C   0  0  0  0  0  0  0  0  0  0  0  0
   41.3980   31.2220   42.7430 H   0  0  0  0  0  0  0  0  0  0  0  0
   41.9360   30.5070   40.9180 O   0  0  0  0  0  0  0  0  0  0  0  0
  2  1  2  1  0  0  0
  2 23  1  0  0  0  0
  2  3  1  0  0  0  0
  4  3  1  0  0  0  0
  5  2  1  0  0  0  0
  6  5  1  0  0  0  0
  6  7  1  0  0  0  0
  8  6  1  0  0  0  0
  9 14  1  0  0  0  0
  9  6  1  0  0  0  0
 10  9  1  0  0  0  0
 11  9  1  0  0  0  0
 12 18  1  0  0  0  0
 13 19  1  0  0  0  0
 13 12  2  0  0  0  0
 14 13  1  0  0  0  0
 15 14  2  0  0  0  0
 15 16  1  0  0  0  0
 16 17  2  0  0  0  0
 17 12  1  0  0  0  0
 18 21  1  0  0  0  0
 18 22  1  0  0  0  0
 20 16  1  0  0  0  0
 23 25  1  0  0  0  0
 24 28  1  0  0  0  0
 24 29  1  1  0  0  0
 25 24  1  0  0  0  0
 25 30  1  1  0  0  0
 25 26  1  0  0  0  0
 26 31  1  0  0  0  0
 27 26  1  0  0  0  0
 28 27  1  0  0  0  0
 28 34  1  0  0  0  0
 32 26  1  0  0  0  0
 33 28  1  0  0  0  0
 35 36  1  0  0  0  0
 35 24  1  0  0  0  0
 36 37  1  0  0  0  0
 38 36  2  0  0  0  0
M  END
>  <minimizedAffinity>
-4.92568636

$$$$

 OpenBabel03242516433D

 38 39  0  0  1  0  0  0  0  0999 V2000
   38.2710   31.6720   41.1720 O   0  0  0  0  0  0  0  0  0  0  0  0
   37.2640   30.5450   41.0310 P   0  0  2  0  0  0  0  0  0  0  0  0
   35.6860   31.0700   41.2000 O   0  0  0  0  0  0  0  0  0  0  0  0
   35.1320   30.2440   41.3670 H   0  0  0  0  0  0  0  0  0  0  0  0
   37.5970   29.3710   42.1880 O   0  0  0  0  0  0  0  0  0  0  0  0
   36.7410   28.2850   42.0670 C   0  0  0  0  0  0  0  0  0  0  0  0
   35.7240   28.6920   41.8830 H   0  0  0  0  0  0  0  0  0  0  0  0
   37.0760   27.7230   41.1780 H   0  0  0  0  0  0  0  0  0  0  0  0
   36.8330   27.4140   43.2800 C   0  0  0  0  0  0  0  0  0  0  0  0
   36.9470   27.9720   44.2150 H   0  0  0  0  0  0  0  0  0  0  0  0
   35.8710   26.8380   43.4000 H   0  0  0  0  0  0  0  0  0  0  0  0
   38.5430   24.2790   42.1190 C   0  0  0  0  0  0  0  0  0  0  0  0
   37.5610   25.2590   42.3150 C   0  0  0  0  0  0  0  0  0  0  0  0
   37.8720   26.3720   43.0710 C   0  0  0  0  0  0  0  0  0  0  0  0
   39.1250   26.4730   43.5990 N   0  0  0  0  0  0  0  0  0  0  0  0
   40.0490   25.5060   43.3900 C   0  0  0  0  0  0  0  0  0  0  0  0
   39.7670   24.4150   42.6570 N   0  0  0  0  0  0  0  0  0  0  0  0
   38.2630   23.1250   41.3510 N   0  0  0  0  0  0  0  0  0  0  0  0
   36.5980   25.1210   41.8730 H   0  0  0  0  0  0  0  0  0  0  0  0
   41.0030   25.7070   43.8650 H   0  0  0  0  0  0  0  0  0  0  0  0
   37.2610   22.8730   41.1870 H   0  0  0  0  0  0  0  0  0  0  0  0
   39.0210   22.5460   40.9610 H   0  0  0  0  0  0  0  0  0  0  0  0
   37.4110   29.8560   39.4710 O   0  0  0  0  0  0  0  0  0  0  0  0
   35.7800   29.1320   37.9310 C   0  0  1  0  0  0  0  0  0  0  0  0
   36.4260   30.2910   38.6330 C   0  0  2  0  0  0  0  0  0  0  0  0
   37.1650   30.9130   37.4260 C   0  0  0  0  0  0  0  0  0  0  0  0
   37.6580   29.8590   36.7070 O   0  0  0  0  0  0  0  0  0  0  0  0
   36.8700   28.7590   36.9400 C   0  0  0  0  0  0  0  0  0  0  0  0
   34.8930   29.4470   37.3460 H   0  0  0  0  0  0  0  0  0  0  0  0
   35.7170   31.0290   39.0570 H   0  0  0  0  0  0  0  0  0  0  0  0
   36.3770   31.4640   36.8510 H   0  0  0  0  0  0  0  0  0  0  0  0
   37.9300   31.6180   37.7870 H   0  0  0  0  0  0  0  0  0  0  0  0
   37.4860   27.9760   37.4340 H   0  0  0  0  0  0  0  0  0  0  0  0
   36.4200   28.3120   36.0440 H   0  0  0  0  0  0  0  0  0  0  0  0
   35.5030   28.0660   38.8020 O   0  0  0  0  0  0  0  0  0  0  0  0
   36.0810   26.8250   38.5040 C   0  0  0  0  0  0  0  0  0  0  0  0
   36.6130   26.8130   37.5430 H   0  0  0  0  0  0  0  0  0  0  0  0
   36.0700   25.7410   39.1820 O   0  0  0  0  0  0  0  0  0  0  0  0
  2  1  2  1  0  0  0
  2  3  1  0  0  0  0
  2  5  1  0  0  0  0
  3  4  1  0  0  0  0
  6  5  1  0  0  0  0
  6  9  1  0  0  0  0
  7  6  1  0  0  0  0
  8  6  1  0  0  0  0
  9 11  1  0  0  0  0
  9 10  1  0  0  0  0
 12 13  2  0  0  0  0
 12 17  1  0  0  0  0
 13 14  1  0  0  0  0
 14  9  1  0  0  0  0
 14 15  2  0  0  0  0
 16 15  1  0  0  0  0
 16 20  1  0  0  0  0
 17 16  2  0  0  0  0
 18 12  1  0  0  0  0
 19 13  1  0  0  0  0
 21 18  1  0  0  0  0
 22 18  1  0  0  0  0
 23  2  1  0  0  0  0
 24 29  1  6  0  0  0
 24 25  1  0  0  0  0
 24 35  1  0  0  0  0
 25 30  1  1  0  0  0
 25 23  1  0  0  0  0
 26 32  1  0  0  0  0
 26 25  1  0  0  0  0
 27 28  1  0  0  0  0
 27 26  1  0  0  0  0
 28 33  1  0  0  0  0
 28 24  1  0  0  0  0
 31 26  1  0  0  0  0
 34 28  1  0  0  0  0
 36 35  1  0  0  0  0
 36 38  2  0  0  0  0
 37 36  1  0  0  0  0
M  END
>  <minimizedAffinity>
-4.76967716

$$$$

 OpenBabel03242516433D

 38 39  0  0  1  0  0  0  0  0999 V2000
   38.3100   29.6280   39.5850 O   0  0  0  0  0  0  0  0  0  0  0  0
   38.3990   30.1420   41.0100 P   0  0  2  0  0  0  0  0  0  0  0  0
   39.6660   29.4600   41.8600 O   0  0  0  0  0  0  0  0  0  0  0  0
   39.4800   29.6400   42.8350 H   0  0  0  0  0  0  0  0  0  0  0  0
   36.9490   29.8150   41.7970 O   0  0  0  0  0  0  0  0  0  0  0  0
   36.5610   28.4950   41.6160 C   0  0  0  0  0  0  0  0  0  0  0  0
   35.5660   28.5140   41.1220 H   0  0  0  0  0  0  0  0  0  0  0  0
   37.3000   28.0460   40.9300 H   0  0  0  0  0  0  0  0  0  0  0  0
   36.5740   27.7660   42.9220 C   0  0  0  0  0  0  0  0  0  0  0  0
   36.6210   28.4260   43.7950 H   0  0  0  0  0  0  0  0  0  0  0  0
   35.6090   27.1950   43.0410 H   0  0  0  0  0  0  0  0  0  0  0  0
   38.3700   24.5360   42.2530 C   0  0  0  0  0  0  0  0  0  0  0  0
   37.3720   25.5200   42.2710 C   0  0  0  0  0  0  0  0  0  0  0  0
   37.6310   26.7200   42.9020 C   0  0  0  0  0  0  0  0  0  0  0  0
   38.8500   26.9020   43.4840 N   0  0  0  0  0  0  0  0  0  0  0  0
   39.7920   25.9290   43.4470 C   0  0  0  0  0  0  0  0  0  0  0  0
   39.5600   24.7530   42.8390 N   0  0  0  0  0  0  0  0  0  0  0  0
   38.1430   23.2940   41.6170 N   0  0  0  0  0  0  0  0  0  0  0  0
   36.4370   25.3150   41.7960 H   0  0  0  0  0  0  0  0  0  0  0  0
   40.7150   26.2000   43.9470 H   0  0  0  0  0  0  0  0  0  0  0  0
   37.1540   23.0100   41.4300 H   0  0  0  0  0  0  0  0  0  0  0  0
   38.9250   22.6810   41.3450 H   0  0  0  0  0  0  0  0  0  0  0  0
   38.6530   31.8350   40.9780 O   0  0  0  0  0  0  0  0  0  0  0  0
   39.9510   33.0090   39.4000 C   0  0  1  0  0  0  0  0  0  0  0  0
   38.6520   32.3200   39.7040 C   0  0  2  0  0  0  0  0  0  0  0  0
   37.7320   33.5620   39.7420 C   0  0  0  0  0  0  0  0  0  0  0  0
   38.4480   34.5360   40.3810 O   0  0  0  0  0  0  0  0  0  0  0  0
   39.7860   34.2870   40.2040 C   0  0  0  0  0  0  0  0  0  0  0  0
   40.0250   33.2970   38.3310 H   0  0  0  0  0  0  0  0  0  0  0  0
   38.3030   31.6220   38.9170 H   0  0  0  0  0  0  0  0  0  0  0  0
   37.5510   33.8270   38.6690 H   0  0  0  0  0  0  0  0  0  0  0  0
   36.7800   33.2990   40.2300 H   0  0  0  0  0  0  0  0  0  0  0  0
   40.2470   34.0920   41.1980 H   0  0  0  0  0  0  0  0  0  0  0  0
   40.3520   35.1010   39.7300 H   0  0  0  0  0  0  0  0  0  0  0  0
   41.0620   32.2740   39.8410 O   0  0  0  0  0  0  0  0  0  0  0  0
   41.8560   32.8460   40.8440 C   0  0  0  0  0  0  0  0  0  0  0  0
   42.1310   33.8890   40.6370 H   0  0  0  0  0  0  0  0  0  0  0  0
   42.2870   32.3290   41.9310 O   0  0  0  0  0  0  0  0  0  0  0  0
  2  1  2  6  0  0  0
  2  5  1  0  0  0  0
  2  3  1  0  0  0  0
  3  4  1  0  0  0  0
  6  5  1  0  0  0  0
  6  9  1  0  0  0  0
  7  6  1  0  0  0  0
  8  6  1  0  0  0  0
  9 11  1  0  0  0  0
  9 10  1  0  0  0  0
 12 13  2  0  0  0  0
 12 17  1  0  0  0  0
 13 14  1  0  0  0  0
 14  9  1  0  0  0  0
 14 15  2  0  0  0  0
 16 15  1  0  0  0  0
 16 20  1  0  0  0  0
 17 16  2  0  0  0  0
 18 12  1  0  0  0  0
 19 13  1  0  0  0  0
 21 18  1  0  0  0  0
 22 18  1  0  0  0  0
 23  2  1  0  0  0  0
 24 29  1  6  0  0  0
 24 25  1  0  0  0  0
 24 35  1  0  0  0  0
 24 28  1  0  0  0  0
 25 30  1  6  0  0  0
 25 26  1  0  0  0  0
 25 23  1  0  0  0  0
 26 32  1  0  0  0  0
 26 27  1  0  0  0  0
 28 27  1  0  0  0  0
 28 33  1  0  0  0  0
 31 26  1  0  0  0  0
 34 28  1  0  0  0  0
 35 36  1  0  0  0  0
 36 38  2  0  0  0  0
 37 36  1  0  0  0  0
M  END
>  <minimizedAffinity>
-4.68603802

$$$$

 OpenBabel03242516433D

 38 39  0  0  1  0  0  0  0  0999 V2000
   37.1830   32.6230   38.6370 O   0  0  0  0  0  0  0  0  0  0  0  0
   38.1800   31.7240   37.9280 P   0  0  2  0  0  0  0  0  0  0  0  0
   38.6070   32.3050   36.4200 O   0  0  0  0  0  0  0  0  0  0  0  0
   39.0320   31.5310   35.9320 H   0  0  0  0  0  0  0  0  0  0  0  0
   37.5130   30.1870   37.7750 O   0  0  0  0  0  0  0  0  0  0  0  0
   36.5110   29.9760   38.7110 C   0  0  0  0  0  0  0  0  0  0  0  0
   36.8820   30.3750   39.6800 H   0  0  0  0  0  0  0  0  0  0  0  0
   35.6440   30.5720   38.3790 H   0  0  0  0  0  0  0  0  0  0  0  0
   36.1410   28.5270   38.7570 C   0  0  0  0  0  0  0  0  0  0  0  0
   35.1040   28.3280   38.4680 H   0  0  0  0  0  0  0  0  0  0  0  0
   36.7660   27.9580   38.0110 H   0  0  0  0  0  0  0  0  0  0  0  0
   36.9440   28.2510   42.4150 C   0  0  0  0  0  0  0  0  0  0  0  0
   36.5890   28.7920   41.1730 C   0  0  0  0  0  0  0  0  0  0  0  0
   36.5170   27.9550   40.0770 C   0  0  0  0  0  0  0  0  0  0  0  0
   36.7950   26.6320   40.2470 N   0  0  0  0  0  0  0  0  0  0  0  0
   37.1350   26.1420   41.4640 C   0  0  0  0  0  0  0  0  0  0  0  0
   37.2110   26.9390   42.5430 N   0  0  0  0  0  0  0  0  0  0  0  0
   37.0280   29.0750   43.5610 N   0  0  0  0  0  0  0  0  0  0  0  0
   36.3820   29.8390   41.1060 H   0  0  0  0  0  0  0  0  0  0  0  0
   37.3320   25.0760   41.4620 H   0  0  0  0  0  0  0  0  0  0  0  0
   37.1150   30.1080   43.4190 H   0  0  0  0  0  0  0  0  0  0  0  0
   37.0050   28.6760   44.5100 H   0  0  0  0  0  0  0  0  0  0  0  0
   39.6100   31.6270   38.8650 O   0  0  0  0  0  0  0  0  0  0  0  0
   41.8770   32.2620   38.7600 C   0  0  1  0  0  0  0  0  0  0  0  0
   40.4420   32.6800   38.6240 C   0  0  2  0  0  0  0  0  0  0  0  0
   40.3380   33.5750   39.8810 C   0  0  0  0  0  0  0  0  0  0  0  0
   41.0370   32.9230   40.8600 O   0  0  0  0  0  0  0  0  0  0  0  0
   41.9910   32.1330   40.2700 C   0  0  0  0  0  0  0  0  0  0  0  0
   42.5720   33.0660   38.4430 H   0  0  0  0  0  0  0  0  0  0  0  0
   40.2180   33.2810   37.7200 H   0  0  0  0  0  0  0  0  0  0  0  0
   40.8360   34.5380   39.5990 H   0  0  0  0  0  0  0  0  0  0  0  0
   39.2780   33.7560   40.1180 H   0  0  0  0  0  0  0  0  0  0  0  0
   41.7710   31.0690   40.5090 H   0  0  0  0  0  0  0  0  0  0  0  0
   43.0230   32.3380   40.5830 H   0  0  0  0  0  0  0  0  0  0  0  0
   42.1390   31.0380   38.1270 O   0  0  0  0  0  0  0  0  0  0  0  0
   42.3700   31.0630   36.7450 C   0  0  0  0  0  0  0  0  0  0  0  0
   42.2600   32.0640   36.3050 H   0  0  0  0  0  0  0  0  0  0  0  0
   42.6810   30.1060   35.9560 O   0  0  0  0  0  0  0  0  0  0  0  0
  2  1  2  1  0  0  0
  2 23  1  0  0  0  0
  3  2  1  0  0  0  0
  4  3  1  0  0  0  0
  5  2  1  0  0  0  0
  5  6  1  0  0  0  0
  6  9  1  0  0  0  0
  6  7  1  0  0  0  0
  8  6  1  0  0  0  0
  9 14  1  0  0  0  0
 10  9  1  0  0  0  0
 11  9  1  0  0  0  0
 12 17  1  0  0  0  0
 12 18  1  0  0  0  0
 13 12  2  0  0  0  0
 14 15  2  0  0  0  0
 14 13  1  0  0  0  0
 15 16  1  0  0  0  0
 16 17  2  0  0  0  0
 18 22  1  0  0  0  0
 19 13  1  0  0  0  0
 20 16  1  0  0  0  0
 21 18  1  0  0  0  0
 24 29  1  6  0  0  0
 24 28  1  0  0  0  0
 25 30  1  6  0  0  0
 25 24  1  0  0  0  0
 25 23  1  0  0  0  0
 25 26  1  0  0  0  0
 26 32  1  0  0  0  0
 26 27  1  0  0  0  0
 28 33  1  0  0  0  0
 28 34  1  0  0  0  0
 28 27  1  0  0  0  0
 31 26  1  0  0  0  0
 35 24  1  0  0  0  0
 36 35  1  0  0  0  0
 37 36  1  0  0  0  0
 38 36  2  0  0  0  0
M  END
>  <minimizedAffinity>
-4.61738586

$$$$
