
 OpenBabel03252506143D

 33 34  0  0  0  0  0  0  0  0999 V2000
   45.5050   33.4180   41.1920 F   0  0  0  0  0  0  0  0  0  0  0  0
   46.6180   34.1220   41.1060 C   0  0  0  0  0  0  0  0  0  0  0  0
   46.9810   34.9000   42.1860 C   0  0  0  0  0  0  0  0  0  0  0  0
   48.1500   35.6890   42.2040 C   0  0  0  0  0  0  0  0  0  0  0  0
   48.9750   35.6790   41.0740 C   0  0  0  0  0  0  0  0  0  0  0  0
   48.5680   34.8900   40.0280 C   0  0  0  0  0  0  0  0  0  0  0  0
   47.4530   34.1310   39.9970 C   0  0  0  0  0  0  0  0  0  0  0  0
   48.3660   36.2730   43.0920 H   0  0  0  0  0  0  0  0  0  0  0  0
   49.8560   36.3000   41.1400 H   0  0  0  0  0  0  0  0  0  0  0  0
   49.3160   34.9810   39.2270 H   0  0  0  0  0  0  0  0  0  0  0  0
   45.5410   33.9130   45.4090 C   0  0  0  0  0  0  0  0  0  0  0  0
   44.6150   34.9690   45.6540 C   0  0  0  0  0  0  0  0  0  0  0  0
   44.5010   36.0260   44.6830 C   0  0  0  0  0  0  0  0  0  0  0  0
   45.3030   35.9370   43.5770 N   0  0  0  0  0  0  0  0  0  0  0  0
   46.1460   34.9360   43.3950 C   0  0  0  0  0  0  0  0  0  0  0  0
   46.2670   33.9370   44.2960 N   0  0  0  0  0  0  0  0  0  0  0  0
   43.9870   35.0260   46.5340 H   0  0  0  0  0  0  0  0  0  0  0  0
   43.8130   36.8260   44.8470 H   0  0  0  0  0  0  0  0  0  0  0  0
   45.6230   32.9160   46.3740 N   0  0  0  0  0  0  0  0  0  0  0  0
   46.5150   33.1730   46.8610 H   0  0  0  0  0  0  0  0  0  0  0  0
   44.7530   32.3730   46.1630 H   0  0  0  0  0  0  0  0  0  0  0  0
   47.1540   33.3840   38.8910 O   0  0  0  0  0  0  0  0  0  0  0  0
   48.0630   34.8000   36.8480 O   0  0  0  0  0  0  0  0  0  0  0  0
   47.9520   33.4010   37.4210 P   0  0  2  0  0  0  0  0  0  0  0  0
   47.0860   32.4200   36.3050 O   0  0  0  0  0  0  0  0  0  0  0  0
   47.6960   32.1840   35.0830 C   0  0  0  0  0  0  0  0  0  0  0  0
   48.7460   32.0130   34.9060 H   0  0  0  0  0  0  0  0  0  0  0  0
   46.9510   32.1650   34.0470 O   0  0  0  0  0  0  0  0  0  0  0  0
   49.4940   32.7230   37.4890 O   0  0  0  0  0  0  0  0  0  0  0  0
   49.4960   31.5820   38.3260 C   0  0  0  0  0  0  0  0  0  0  0  0
   50.5480   30.7990   37.8240 F   0  0  0  0  0  0  0  0  0  0  0  0
   49.8300   31.9270   39.6110 F   0  0  0  0  0  0  0  0  0  0  0  0
   48.3120   30.9140   38.3540 F   0  0  0  0  0  0  0  0  0  0  0  0
  2  1  1  0  0  0  0
  2  3  1  0  0  0  0
  3  4  2  0  0  0  0
  3 15  1  0  0  0  0
  4  8  1  0  0  0  0
  5  9  1  0  0  0  0
  5  4  1  0  0  0  0
  6  5  2  0  0  0  0
  7  6  1  0  0  0  0
  7  2  2  0  0  0  0
 10  6  1  0  0  0  0
 11 12  1  0  0  0  0
 11 19  1  0  0  0  0
 12 17  1  0  0  0  0
 13 18  1  0  0  0  0
 13 12  2  0  0  0  0
 14 13  1  0  0  0  0
 15 14  2  0  0  0  0
 15 16  1  0  0  0  0
 16 11  2  0  0  0  0
 19 20  1  0  0  0  0
 21 19  1  0  0  0  0
 22  7  1  0  0  0  0
 24 23  2  6  0  0  0
 24 29  1  0  0  0  0
 24 22  1  0  0  0  0
 25 24  1  0  0  0  0
 26 25  1  0  0  0  0
 27 26  1  0  0  0  0
 28 26  2  0  0  0  0
 29 30  1  0  0  0  0
 30 33  1  0  0  0  0
 30 32  1  0  0  0  0
 31 30  1  0  0  0  0
M  END
>  <minimizedAffinity>
-5.37985039

>  <minimizedRMSD>
1.58683789

$$$$
