
 OpenBabel03252505133D

 38 40  0  0  1  0  0  0  0  0999 V2000
   37.3680   32.5500   39.9630 C   0  0  0  0  0  0  0  0  0  0  0  0
   36.9880   31.3880   40.6800 C   0  0  0  0  0  0  0  0  0  0  0  0
   37.9910   30.3770   40.8640 C   0  0  0  0  0  0  0  0  0  0  0  0
   39.2230   30.5800   40.3560 N   0  0  0  0  0  0  0  0  0  0  0  0
   39.5370   31.6920   39.6860 C   0  0  0  0  0  0  0  0  0  0  0  0
   38.6130   32.6900   39.4820 N   0  0  0  0  0  0  0  0  0  0  0  0
   36.5820   33.2650   39.8580 H   0  0  0  0  0  0  0  0  0  0  0  0
   35.9960   31.2350   41.0850 H   0  0  0  0  0  0  0  0  0  0  0  0
   40.9150   31.8590   39.1420 C   0  0  2  0  0  0  0  0  0  0  0  0
   41.7260   32.4060   40.2980 C   0  0  0  0  0  0  0  0  0  0  0  0
   42.0630   33.8330   40.2450 C   0  0  0  0  0  0  0  0  0  0  0  0
   42.7810   34.0230   38.9130 C   0  0  0  0  0  0  0  0  0  0  0  0
   41.8890   33.7940   37.7640 C   0  0  0  0  0  0  0  0  0  0  0  0
   40.9460   32.6560   37.9500 C   0  0  0  0  0  0  0  0  0  0  0  0
   41.2520   30.8190   38.9110 H   0  0  0  0  0  0  0  0  0  0  0  0
   42.6810   31.8360   40.3150 H   0  0  0  0  0  0  0  0  0  0  0  0
   41.2610   32.1810   41.2910 H   0  0  0  0  0  0  0  0  0  0  0  0
   41.2290   34.5390   40.3350 H   0  0  0  0  0  0  0  0  0  0  0  0
   42.8060   34.0510   41.0150 H   0  0  0  0  0  0  0  0  0  0  0  0
   43.0010   35.1200   38.8840 H   0  0  0  0  0  0  0  0  0  0  0  0
   43.7260   33.4730   38.8920 H   0  0  0  0  0  0  0  0  0  0  0  0
   41.7610   34.2590   36.8230 H   0  0  0  0  0  0  0  0  0  0  0  0
   40.0230   32.3250   36.9190 N   0  0  0  0  0  0  0  0  0  0  0  0
   40.0400   31.4080   36.4300 H   0  0  0  0  0  0  0  0  0  0  0  0
   39.2730   32.9570   36.5770 H   0  0  0  0  0  0  0  0  0  0  0  0
   37.6340   29.1730   41.5980 C   0  0  0  0  0  0  0  0  0  0  0  0
   37.5810   29.2200   42.9450 C   0  0  0  0  0  0  0  0  0  0  0  0
   37.2300   28.0220   43.5950 C   0  0  0  0  0  0  0  0  0  0  0  0
   36.9750   26.9220   42.7900 C   0  0  0  0  0  0  0  0  0  0  0  0
   37.0310   26.8810   41.4250 C   0  0  0  0  0  0  0  0  0  0  0  0
   37.3760   28.0700   40.8520 N   0  0  0  0  0  0  0  0  0  0  0  0
   37.7820   30.0840   43.5580 H   0  0  0  0  0  0  0  0  0  0  0  0
   37.1620   27.9680   44.6720 H   0  0  0  0  0  0  0  0  0  0  0  0
   36.7070   26.0190   43.3360 H   0  0  0  0  0  0  0  0  0  0  0  0
   36.7630   25.7370   40.7120 O   0  0  0  0  0  0  0  0  0  0  0  0
   37.0720   24.5180   41.3370 C   0  0  0  0  0  0  0  0  0  0  0  0
   36.4770   23.7900   41.8930 H   0  0  0  0  0  0  0  0  0  0  0  0
   38.0340   23.7380   41.5560 O   0  0  0  0  0  0  0  0  0  0  0  0
  1  2  1  0  0  0  0
  2  3  2  0  0  0  0
  2  8  1  0  0  0  0
  3 26  1  0  0  0  0
  4  3  1  0  0  0  0
  5  4  2  0  0  0  0
  6  5  1  0  0  0  0
  6  1  2  0  0  0  0
  7  1  1  0  0  0  0
  9 15  1  6  0  0  0
  9  5  1  0  0  0  0
  9 10  1  0  0  0  0
 10 16  1  0  0  0  0
 10 17  1  0  0  0  0
 11 10  1  0  0  0  0
 11 18  1  0  0  0  0
 11 19  1  0  0  0  0
 12 11  1  0  0  0  0
 13 14  2  0  0  0  0
 13 12  1  0  0  0  0
 14  9  1  0  0  0  0
 20 12  1  0  0  0  0
 21 12  1  0  0  0  0
 22 13  1  0  0  0  0
 23 14  1  0  0  0  0
 24 23  1  0  0  0  0
 25 23  1  0  0  0  0
 26 27  1  0  0  0  0
 27 32  1  0  0  0  0
 27 28  2  0  0  0  0
 28 33  1  0  0  0  0
 29 34  1  0  0  0  0
 29 28  1  0  0  0  0
 30 29  2  0  0  0  0
 31 30  1  0  0  0  0
 31 26  2  0  0  0  0
 35 36  1  0  0  0  0
 35 30  1  0  0  0  0
 36 38  2  0  0  0  0
 36 37  1  0  0  0  0
M  END
>  <minimizedAffinity>
-5.87991667

$$$$

 OpenBabel03252505133D

 38 40  0  0  1  0  0  0  0  0999 V2000
   36.0580   29.0730   37.7450 C   0  0  0  0  0  0  0  0  0  0  0  0
   36.1610   28.4120   38.9940 C   0  0  0  0  0  0  0  0  0  0  0  0
   36.9470   29.0530   40.0090 C   0  0  0  0  0  0  0  0  0  0  0  0
   37.5370   30.2320   39.7300 N   0  0  0  0  0  0  0  0  0  0  0  0
   37.4130   30.8210   38.5370 C   0  0  0  0  0  0  0  0  0  0  0  0
   36.6700   30.2470   37.5310 N   0  0  0  0  0  0  0  0  0  0  0  0
   35.4610   28.5500   37.0310 H   0  0  0  0  0  0  0  0  0  0  0  0
   35.6830   27.4640   39.2080 H   0  0  0  0  0  0  0  0  0  0  0  0
   38.0920   32.1240   38.2840 C   0  0  2  0  0  0  0  0  0  0  0  0
   39.4490   31.7530   37.7270 C   0  0  0  0  0  0  0  0  0  0  0  0
   40.5930   31.8950   38.6350 C   0  0  0  0  0  0  0  0  0  0  0  0
   40.5520   33.3460   39.1010 C   0  0  0  0  0  0  0  0  0  0  0  0
   39.3660   33.6320   39.9250 C   0  0  0  0  0  0  0  0  0  0  0  0
   38.1240   32.9650   39.4460 C   0  0  0  0  0  0  0  0  0  0  0  0
   37.4800   32.6060   37.4830 H   0  0  0  0  0  0  0  0  0  0  0  0
   39.6290   32.4200   36.8550 H   0  0  0  0  0  0  0  0  0  0  0  0
   39.4640   30.7240   37.2860 H   0  0  0  0  0  0  0  0  0  0  0  0
   40.6240   31.2170   39.4960 H   0  0  0  0  0  0  0  0  0  0  0  0
   41.5160   31.7940   38.0620 H   0  0  0  0  0  0  0  0  0  0  0  0
   41.4130   33.4210   39.8130 H   0  0  0  0  0  0  0  0  0  0  0  0
   40.7220   34.0330   38.2670 H   0  0  0  0  0  0  0  0  0  0  0  0
   39.1900   34.2100   40.7940 H   0  0  0  0  0  0  0  0  0  0  0  0
   36.9020   33.1520   40.1510 N   0  0  0  0  0  0  0  0  0  0  0  0
   36.0730   33.6040   39.7180 H   0  0  0  0  0  0  0  0  0  0  0  0
   36.7410   32.8570   41.1340 H   0  0  0  0  0  0  0  0  0  0  0  0
   37.0730   28.4010   41.3040 C   0  0  0  0  0  0  0  0  0  0  0  0
   37.3510   29.1530   42.3890 C   0  0  0  0  0  0  0  0  0  0  0  0
   37.4590   28.4630   43.6110 C   0  0  0  0  0  0  0  0  0  0  0  0
   37.2690   27.0900   43.5760 C   0  0  0  0  0  0  0  0  0  0  0  0
   36.9870   26.3350   42.4720 C   0  0  0  0  0  0  0  0  0  0  0  0
   36.8950   27.0580   41.3190 N   0  0  0  0  0  0  0  0  0  0  0  0
   37.4970   30.2220   42.4000 H   0  0  0  0  0  0  0  0  0  0  0  0
   37.6790   28.9840   44.5310 H   0  0  0  0  0  0  0  0  0  0  0  0
   37.3610   26.5990   44.5430 H   0  0  0  0  0  0  0  0  0  0  0  0
   36.8170   24.9720   42.5370 O   0  0  0  0  0  0  0  0  0  0  0  0
   36.9440   24.2630   41.3310 C   0  0  0  0  0  0  0  0  0  0  0  0
   36.5860   24.4440   40.3150 H   0  0  0  0  0  0  0  0  0  0  0  0
   37.4500   23.2170   40.8500 O   0  0  0  0  0  0  0  0  0  0  0  0
  1  2  1  0  0  0  0
  2  8  1  0  0  0  0
  2  3  2  0  0  0  0
  3 26  1  0  0  0  0
  4  3  1  0  0  0  0
  5  4  2  0  0  0  0
  6  1  2  0  0  0  0
  6  5  1  0  0  0  0
  7  1  1  0  0  0  0
  9 15  1  6  0  0  0
  9  5  1  0  0  0  0
  9 14  1  0  0  0  0
 10  9  1  0  0  0  0
 10 11  1  0  0  0  0
 11 12  1  0  0  0  0
 11 18  1  0  0  0  0
 12 20  1  0  0  0  0
 12 13  1  0  0  0  0
 13 22  1  0  0  0  0
 14 13  2  0  0  0  0
 14 23  1  0  0  0  0
 16 10  1  0  0  0  0
 17 10  1  0  0  0  0
 19 11  1  0  0  0  0
 21 12  1  0  0  0  0
 23 25  1  0  0  0  0
 24 23  1  0  0  0  0
 26 31  2  0  0  0  0
 26 27  1  0  0  0  0
 27 32  1  0  0  0  0
 27 28  2  0  0  0  0
 28 33  1  0  0  0  0
 29 28  1  0  0  0  0
 29 34  1  0  0  0  0
 30 35  1  0  0  0  0
 30 29  2  0  0  0  0
 31 30  1  0  0  0  0
 36 35  1  0  0  0  0
 37 36  1  0  0  0  0
 38 36  2  0  0  0  0
M  END
>  <minimizedAffinity>
-5.61434078

$$$$

 OpenBabel03252505133D

 38 40  0  0  1  0  0  0  0  0999 V2000
   38.1220   32.7760   40.2090 C   0  0  0  0  0  0  0  0  0  0  0  0
   37.2990   32.0730   39.2940 C   0  0  0  0  0  0  0  0  0  0  0  0
   37.1050   30.6710   39.5350 C   0  0  0  0  0  0  0  0  0  0  0  0
   37.7030   30.1030   40.6000 N   0  0  0  0  0  0  0  0  0  0  0  0
   38.4710   30.8060   41.4380 C   0  0  0  0  0  0  0  0  0  0  0  0
   38.6890   32.1510   41.2520 N   0  0  0  0  0  0  0  0  0  0  0  0
   38.2290   33.8140   39.9790 H   0  0  0  0  0  0  0  0  0  0  0  0
   36.8230   32.5390   38.4400 H   0  0  0  0  0  0  0  0  0  0  0  0
   39.1110   30.1230   42.5990 C   0  0  2  0  0  0  0  0  0  0  0  0
   40.5020   29.7660   42.1220 C   0  0  0  0  0  0  0  0  0  0  0  0
   40.7410   28.3560   41.7910 C   0  0  0  0  0  0  0  0  0  0  0  0
   40.3610   27.5830   43.0490 C   0  0  0  0  0  0  0  0  0  0  0  0
   38.9210   27.6720   43.3430 C   0  0  0  0  0  0  0  0  0  0  0  0
   38.3360   29.0180   43.0860 C   0  0  0  0  0  0  0  0  0  0  0  0
   39.1790   30.9130   43.3850 H   0  0  0  0  0  0  0  0  0  0  0  0
   41.2010   30.0410   42.9420 H   0  0  0  0  0  0  0  0  0  0  0  0
   40.8350   30.4000   41.2610 H   0  0  0  0  0  0  0  0  0  0  0  0
   40.2060   27.9580   40.9200 H   0  0  0  0  0  0  0  0  0  0  0  0
   41.8130   28.1990   41.6600 H   0  0  0  0  0  0  0  0  0  0  0  0
   40.5230   26.5130   42.7630 H   0  0  0  0  0  0  0  0  0  0  0  0
   41.0270   27.8310   43.8810 H   0  0  0  0  0  0  0  0  0  0  0  0
   38.1940   26.9910   43.6980 H   0  0  0  0  0  0  0  0  0  0  0  0
   36.9510   29.2460   43.3230 N   0  0  0  0  0  0  0  0  0  0  0  0
   36.6120   29.9280   44.0290 H   0  0  0  0  0  0  0  0  0  0  0  0
   36.1820   28.7590   42.8210 H   0  0  0  0  0  0  0  0  0  0  0  0
   36.2650   29.9200   38.6150 C   0  0  0  0  0  0  0  0  0  0  0  0
   35.1500   29.3260   39.0870 C   0  0  0  0  0  0  0  0  0  0  0  0
   34.3800   28.6150   38.1470 C   0  0  0  0  0  0  0  0  0  0  0  0
   34.8420   28.5980   36.8400 C   0  0  0  0  0  0  0  0  0  0  0  0
   35.9740   29.2030   36.3690 C   0  0  0  0  0  0  0  0  0  0  0  0
   36.6780   29.8760   37.3250 N   0  0  0  0  0  0  0  0  0  0  0  0
   34.8020   29.3480   40.1080 H   0  0  0  0  0  0  0  0  0  0  0  0
   33.4710   28.1080   38.4360 H   0  0  0  0  0  0  0  0  0  0  0  0
   34.2160   28.0370   36.1490 H   0  0  0  0  0  0  0  0  0  0  0  0
   36.3540   29.1270   35.0500 O   0  0  0  0  0  0  0  0  0  0  0  0
   35.9940   30.2090   34.2280 C   0  0  0  0  0  0  0  0  0  0  0  0
   35.0870   30.4570   33.6730 H   0  0  0  0  0  0  0  0  0  0  0  0
   36.4430   31.2880   33.7650 O   0  0  0  0  0  0  0  0  0  0  0  0
  1  6  1  0  0  0  0
  2  3  1  0  0  0  0
  2  1  2  0  0  0  0
  3  4  2  0  0  0  0
  4  5  1  0  0  0  0
  5  9  1  0  0  0  0
  6  5  2  0  0  0  0
  7  1  1  0  0  0  0
  8  2  1  0  0  0  0
  9 14  1  0  0  0  0
  9 15  1  1  0  0  0
 10  9  1  0  0  0  0
 10 16  1  0  0  0  0
 11 10  1  0  0  0  0
 11 12  1  0  0  0  0
 12 13  1  0  0  0  0
 12 21  1  0  0  0  0
 13 22  1  0  0  0  0
 14 23  1  0  0  0  0
 14 13  2  0  0  0  0
 17 10  1  0  0  0  0
 18 11  1  0  0  0  0
 19 11  1  0  0  0  0
 20 12  1  0  0  0  0
 23 24  1  0  0  0  0
 25 23  1  0  0  0  0
 26 27  1  0  0  0  0
 26  3  1  0  0  0  0
 27 32  1  0  0  0  0
 28 33  1  0  0  0  0
 28 27  2  0  0  0  0
 29 28  1  0  0  0  0
 30 29  2  0  0  0  0
 30 31  1  0  0  0  0
 31 26  2  0  0  0  0
 34 29  1  0  0  0  0
 35 30  1  0  0  0  0
 36 35  1  0  0  0  0
 37 36  1  0  0  0  0
 38 36  2  0  0  0  0
M  END
>  <minimizedAffinity>
-5.59317684

$$$$

 OpenBabel03252505133D

 38 40  0  0  1  0  0  0  0  0999 V2000
   37.0140   28.8600   37.6570 C   0  0  0  0  0  0  0  0  0  0  0  0
   37.0600   28.2090   38.9150 C   0  0  0  0  0  0  0  0  0  0  0  0
   37.5640   28.9660   40.0240 C   0  0  0  0  0  0  0  0  0  0  0  0
   37.9620   30.2370   39.8200 N   0  0  0  0  0  0  0  0  0  0  0  0
   37.9020   30.8120   38.6150 C   0  0  0  0  0  0  0  0  0  0  0  0
   37.4260   30.1290   37.5190 N   0  0  0  0  0  0  0  0  0  0  0  0
   36.6300   28.2480   36.8710 H   0  0  0  0  0  0  0  0  0  0  0  0
   36.7370   27.1860   39.0690 H   0  0  0  0  0  0  0  0  0  0  0  0
   38.3600   32.2210   38.4470 C   0  0  2  0  0  0  0  0  0  0  0  0
   39.7970   32.1100   37.9860 C   0  0  0  0  0  0  0  0  0  0  0  0
   40.8310   32.4110   38.9830 C   0  0  0  0  0  0  0  0  0  0  0  0
   40.5060   33.8160   39.4800 C   0  0  0  0  0  0  0  0  0  0  0  0
   39.2330   33.8620   40.2190 C   0  0  0  0  0  0  0  0  0  0  0  0
   38.1630   33.0110   39.6290 C   0  0  0  0  0  0  0  0  0  0  0  0
   37.7320   32.6220   37.6150 H   0  0  0  0  0  0  0  0  0  0  0  0
   39.9200   32.8300   37.1480 H   0  0  0  0  0  0  0  0  0  0  0  0
   40.0220   31.1160   37.5220 H   0  0  0  0  0  0  0  0  0  0  0  0
   40.9190   31.7160   39.8270 H   0  0  0  0  0  0  0  0  0  0  0  0
   41.7960   32.4920   38.4790 H   0  0  0  0  0  0  0  0  0  0  0  0
   41.2880   34.0100   40.2570 H   0  0  0  0  0  0  0  0  0  0  0  0
   40.6130   34.5530   38.6790 H   0  0  0  0  0  0  0  0  0  0  0  0
   38.8980   34.3680   41.0850 H   0  0  0  0  0  0  0  0  0  0  0  0
   36.8800   32.9580   40.2430 N   0  0  0  0  0  0  0  0  0  0  0  0
   36.0180   33.2780   39.7600 H   0  0  0  0  0  0  0  0  0  0  0  0
   36.7040   32.6030   41.2030 H   0  0  0  0  0  0  0  0  0  0  0  0
   37.6230   28.3280   41.3300 C   0  0  0  0  0  0  0  0  0  0  0  0
   36.4710   28.0750   41.9860 C   0  0  0  0  0  0  0  0  0  0  0  0
   36.5950   27.4560   43.2430 C   0  0  0  0  0  0  0  0  0  0  0  0
   37.8800   27.1690   43.6790 C   0  0  0  0  0  0  0  0  0  0  0  0
   39.0430   27.4290   43.0090 C   0  0  0  0  0  0  0  0  0  0  0  0
   38.8600   28.0290   41.7970 N   0  0  0  0  0  0  0  0  0  0  0  0
   35.4770   28.3050   41.6340 H   0  0  0  0  0  0  0  0  0  0  0  0
   35.7260   27.2160   43.8380 H   0  0  0  0  0  0  0  0  0  0  0  0
   37.9270   26.6910   44.6550 H   0  0  0  0  0  0  0  0  0  0  0  0
   40.2760   27.1080   43.5250 O   0  0  0  0  0  0  0  0  0  0  0  0
   40.5760   25.7400   43.6370 C   0  0  0  0  0  0  0  0  0  0  0  0
   41.1500   25.1570   44.3610 H   0  0  0  0  0  0  0  0  0  0  0  0
   40.3820   24.6370   43.0650 O   0  0  0  0  0  0  0  0  0  0  0  0
  1  2  1  0  0  0  0
  2  8  1  0  0  0  0
  2  3  2  0  0  0  0
  3 26  1  0  0  0  0
  4  3  1  0  0  0  0
  5  4  2  0  0  0  0
  6  1  2  0  0  0  0
  6  5  1  0  0  0  0
  7  1  1  0  0  0  0
  9 15  1  6  0  0  0
  9  5  1  0  0  0  0
  9 14  1  0  0  0  0
 10  9  1  0  0  0  0
 10 11  1  0  0  0  0
 11 12  1  0  0  0  0
 11 18  1  0  0  0  0
 12 13  1  0  0  0  0
 12 20  1  0  0  0  0
 13 22  1  0  0  0  0
 14 13  2  0  0  0  0
 14 23  1  0  0  0  0
 16 10  1  0  0  0  0
 17 10  1  0  0  0  0
 19 11  1  0  0  0  0
 21 12  1  0  0  0  0
 23 25  1  0  0  0  0
 24 23  1  0  0  0  0
 26 31  2  0  0  0  0
 26 27  1  0  0  0  0
 27 28  2  0  0  0  0
 28 29  1  0  0  0  0
 28 33  1  0  0  0  0
 29 34  1  0  0  0  0
 30 35  1  0  0  0  0
 30 29  2  0  0  0  0
 31 30  1  0  0  0  0
 32 27  1  0  0  0  0
 35 36  1  0  0  0  0
 36 37  1  0  0  0  0
 38 36  2  0  0  0  0
M  END
>  <minimizedAffinity>
-5.58236361

$$$$

 OpenBabel03252505133D

 38 40  0  0  1  0  0  0  0  0999 V2000
   35.3600   29.5530   40.2260 C   0  0  0  0  0  0  0  0  0  0  0  0
   36.2410   30.6490   40.0480 C   0  0  0  0  0  0  0  0  0  0  0  0
   37.4760   30.6190   40.7780 C   0  0  0  0  0  0  0  0  0  0  0  0
   37.7340   29.5680   41.5820 N   0  0  0  0  0  0  0  0  0  0  0  0
   36.8750   28.5550   41.7190 C   0  0  0  0  0  0  0  0  0  0  0  0
   35.6770   28.5360   41.0420 N   0  0  0  0  0  0  0  0  0  0  0  0
   34.4590   29.6300   39.6580 H   0  0  0  0  0  0  0  0  0  0  0  0
   36.0240   31.4880   39.4000 H   0  0  0  0  0  0  0  0  0  0  0  0
   37.2120   27.4210   42.6260 C   0  0  2  0  0  0  0  0  0  0  0  0
   38.2000   27.9960   43.6170 C   0  0  0  0  0  0  0  0  0  0  0  0
   39.6070   27.6210   43.4330 C   0  0  0  0  0  0  0  0  0  0  0  0
   39.6180   26.0970   43.4470 C   0  0  0  0  0  0  0  0  0  0  0  0
   38.9110   25.5260   42.2880 C   0  0  0  0  0  0  0  0  0  0  0  0
   37.6710   26.2620   41.9150 C   0  0  0  0  0  0  0  0  0  0  0  0
   36.2530   27.1870   43.1490 H   0  0  0  0  0  0  0  0  0  0  0  0
   37.8870   27.6390   44.6230 H   0  0  0  0  0  0  0  0  0  0  0  0
   38.1300   29.1100   43.6940 H   0  0  0  0  0  0  0  0  0  0  0  0
   40.1030   28.0000   42.5310 H   0  0  0  0  0  0  0  0  0  0  0  0
   40.1740   27.9290   44.3140 H   0  0  0  0  0  0  0  0  0  0  0  0
   40.6930   25.8370   43.2760 H   0  0  0  0  0  0  0  0  0  0  0  0
   39.3110   25.7080   44.4230 H   0  0  0  0  0  0  0  0  0  0  0  0
   39.0840   24.7020   41.6480 H   0  0  0  0  0  0  0  0  0  0  0  0
   36.8910   25.8220   40.8090 N   0  0  0  0  0  0  0  0  0  0  0  0
   35.9100   25.4950   40.9150 H   0  0  0  0  0  0  0  0  0  0  0  0
   37.2290   25.7920   39.8280 H   0  0  0  0  0  0  0  0  0  0  0  0
   38.4040   31.7280   40.6170 C   0  0  0  0  0  0  0  0  0  0  0  0
   37.9120   32.9620   40.3780 C   0  0  0  0  0  0  0  0  0  0  0  0
   38.8600   33.9910   40.2320 C   0  0  0  0  0  0  0  0  0  0  0  0
   40.1960   33.6360   40.3480 C   0  0  0  0  0  0  0  0  0  0  0  0
   40.6870   32.3840   40.5900 C   0  0  0  0  0  0  0  0  0  0  0  0
   39.7220   31.4290   40.7220 N   0  0  0  0  0  0  0  0  0  0  0  0
   36.8690   33.2220   40.2900 H   0  0  0  0  0  0  0  0  0  0  0  0
   38.5560   35.0090   40.0400 H   0  0  0  0  0  0  0  0  0  0  0  0
   40.8920   34.4640   40.2290 H   0  0  0  0  0  0  0  0  0  0  0  0
   42.0340   32.1280   40.6870 O   0  0  0  0  0  0  0  0  0  0  0  0
   42.6150   32.2820   41.9560 C   0  0  0  0  0  0  0  0  0  0  0  0
   42.5910   31.6820   42.8680 H   0  0  0  0  0  0  0  0  0  0  0  0
   43.3510   33.0590   42.6170 O   0  0  0  0  0  0  0  0  0  0  0  0
  1  6  1  0  0  0  0
  2  1  2  0  0  0  0
  2  3  1  0  0  0  0
  3  4  2  0  0  0  0
  4  5  1  0  0  0  0
  5  9  1  0  0  0  0
  6  5  2  0  0  0  0
  7  1  1  0  0  0  0
  8  2  1  0  0  0  0
  9 15  1  1  0  0  0
  9 10  1  0  0  0  0
 10 17  1  0  0  0  0
 10 16  1  0  0  0  0
 11 12  1  0  0  0  0
 11 10  1  0  0  0  0
 11 19  1  0  0  0  0
 12 21  1  0  0  0  0
 13 12  1  0  0  0  0
 14 13  2  0  0  0  0
 14  9  1  0  0  0  0
 18 11  1  0  0  0  0
 20 12  1  0  0  0  0
 22 13  1  0  0  0  0
 23 24  1  0  0  0  0
 23 14  1  0  0  0  0
 25 23  1  0  0  0  0
 26 31  1  0  0  0  0
 26  3  1  0  0  0  0
 27 26  2  0  0  0  0
 28 29  2  0  0  0  0
 28 27  1  0  0  0  0
 29 30  1  0  0  0  0
 30 35  1  0  0  0  0
 30 31  2  0  0  0  0
 32 27  1  0  0  0  0
 33 28  1  0  0  0  0
 34 29  1  0  0  0  0
 35 36  1  0  0  0  0
 36 38  2  0  0  0  0
 36 37  1  0  0  0  0
M  END
>  <minimizedAffinity>
-5.52922726

$$$$

 OpenBabel03252505133D

 38 40  0  0  1  0  0  0  0  0999 V2000
   35.3100   27.9770   37.4240 C   0  0  0  0  0  0  0  0  0  0  0  0
   35.7530   27.0040   38.3560 C   0  0  0  0  0  0  0  0  0  0  0  0
   36.5070   27.4740   39.4820 C   0  0  0  0  0  0  0  0  0  0  0  0
   36.7520   28.7950   39.5980 N   0  0  0  0  0  0  0  0  0  0  0  0
   36.3140   29.6770   38.6960 C   0  0  0  0  0  0  0  0  0  0  0  0
   35.5880   29.2780   37.5980 N   0  0  0  0  0  0  0  0  0  0  0  0
   34.7550   27.5680   36.6090 H   0  0  0  0  0  0  0  0  0  0  0  0
   35.5510   25.9450   38.2530 H   0  0  0  0  0  0  0  0  0  0  0  0
   36.6200   31.1260   38.8740 C   0  0  2  0  0  0  0  0  0  0  0  0
   37.8050   31.3870   37.9710 C   0  0  0  0  0  0  0  0  0  0  0  0
   39.1090   31.5370   38.6270 C   0  0  0  0  0  0  0  0  0  0  0  0
   38.9170   32.6580   39.6430 C   0  0  0  0  0  0  0  0  0  0  0  0
   37.9850   32.2790   40.7180 C   0  0  0  0  0  0  0  0  0  0  0  0
   36.8160   31.4840   40.2500 C   0  0  0  0  0  0  0  0  0  0  0  0
   35.7210   31.6520   38.4700 H   0  0  0  0  0  0  0  0  0  0  0  0
   37.5910   32.3360   37.4300 H   0  0  0  0  0  0  0  0  0  0  0  0
   37.8970   30.6270   37.1540 H   0  0  0  0  0  0  0  0  0  0  0  0
   39.5200   30.6450   39.1140 H   0  0  0  0  0  0  0  0  0  0  0  0
   39.8300   31.9180   37.9000 H   0  0  0  0  0  0  0  0  0  0  0  0
   39.9130   32.7330   40.1480 H   0  0  0  0  0  0  0  0  0  0  0  0
   38.7000   33.6080   39.1460 H   0  0  0  0  0  0  0  0  0  0  0  0
   37.9550   32.4420   41.7630 H   0  0  0  0  0  0  0  0  0  0  0  0
   35.8360   31.0460   41.1850 N   0  0  0  0  0  0  0  0  0  0  0  0
   34.8450   31.3550   41.1380 H   0  0  0  0  0  0  0  0  0  0  0  0
   36.0260   30.3970   41.9730 H   0  0  0  0  0  0  0  0  0  0  0  0
   36.9750   26.5020   40.4580 C   0  0  0  0  0  0  0  0  0  0  0  0
   36.7220   25.1930   40.2490 C   0  0  0  0  0  0  0  0  0  0  0  0
   37.2010   24.3040   41.2280 C   0  0  0  0  0  0  0  0  0  0  0  0
   37.8810   24.8590   42.3020 C   0  0  0  0  0  0  0  0  0  0  0  0
   38.1340   26.1860   42.5080 C   0  0  0  0  0  0  0  0  0  0  0  0
   37.6460   26.9990   41.5260 N   0  0  0  0  0  0  0  0  0  0  0  0
   36.1910   24.7760   39.4070 H   0  0  0  0  0  0  0  0  0  0  0  0
   37.0450   23.2390   41.1430 H   0  0  0  0  0  0  0  0  0  0  0  0
   38.2330   24.1340   43.0330 H   0  0  0  0  0  0  0  0  0  0  0  0
   38.8170   26.6430   43.6090 O   0  0  0  0  0  0  0  0  0  0  0  0
   40.1240   27.1100   43.3910 C   0  0  0  0  0  0  0  0  0  0  0  0
   41.0940   26.6130   43.3180 H   0  0  0  0  0  0  0  0  0  0  0  0
   40.7730   28.1690   43.1970 O   0  0  0  0  0  0  0  0  0  0  0  0
  1  6  2  0  0  0  0
  1  2  1  0  0  0  0
  2  3  2  0  0  0  0
  3  4  1  0  0  0  0
  3 26  1  0  0  0  0
  5  9  1  0  0  0  0
  5  4  2  0  0  0  0
  6  5  1  0  0  0  0
  7  1  1  0  0  0  0
  8  2  1  0  0  0  0
  9 15  1  6  0  0  0
  9 14  1  0  0  0  0
 10 11  1  0  0  0  0
 10  9  1  0  0  0  0
 11 18  1  0  0  0  0
 11 12  1  0  0  0  0
 12 20  1  0  0  0  0
 12 13  1  0  0  0  0
 13 22  1  0  0  0  0
 14 13  2  0  0  0  0
 14 23  1  0  0  0  0
 16 10  1  0  0  0  0
 17 10  1  0  0  0  0
 19 11  1  0  0  0  0
 21 12  1  0  0  0  0
 23 25  1  0  0  0  0
 24 23  1  0  0  0  0
 26 31  1  0  0  0  0
 27 26  2  0  0  0  0
 27 28  1  0  0  0  0
 28 29  2  0  0  0  0
 29 30  1  0  0  0  0
 29 34  1  0  0  0  0
 30 35  1  0  0  0  0
 31 30  2  0  0  0  0
 32 27  1  0  0  0  0
 33 28  1  0  0  0  0
 36 35  1  0  0  0  0
 37 36  1  0  0  0  0
 38 36  2  0  0  0  0
M  END
>  <minimizedAffinity>
-5.52241755

$$$$

 OpenBabel03252505133D

 38 40  0  0  1  0  0  0  0  0999 V2000
   38.1310   29.1270   43.2770 C   0  0  0  0  0  0  0  0  0  0  0  0
   37.6740   27.8600   42.8350 C   0  0  0  0  0  0  0  0  0  0  0  0
   37.5520   27.6680   41.4190 C   0  0  0  0  0  0  0  0  0  0  0  0
   37.8730   28.6830   40.5920 N   0  0  0  0  0  0  0  0  0  0  0  0
   38.3000   29.8620   41.0520 C   0  0  0  0  0  0  0  0  0  0  0  0
   38.4350   30.0970   42.4020 N   0  0  0  0  0  0  0  0  0  0  0  0
   38.2030   29.2110   44.3390 H   0  0  0  0  0  0  0  0  0  0  0  0
   37.4190   27.0510   43.5080 H   0  0  0  0  0  0  0  0  0  0  0  0
   38.6370   30.9500   40.0910 C   0  0  2  0  0  0  0  0  0  0  0  0
   40.1480   31.0290   40.1050 C   0  0  0  0  0  0  0  0  0  0  0  0
   40.7380   32.1600   40.8310 C   0  0  0  0  0  0  0  0  0  0  0  0
   40.1150   33.4030   40.2040 C   0  0  0  0  0  0  0  0  0  0  0  0
   38.6680   33.4900   40.4650 C   0  0  0  0  0  0  0  0  0  0  0  0
   37.9630   32.1810   40.3900 C   0  0  0  0  0  0  0  0  0  0  0  0
   38.2940   30.5630   39.1000 H   0  0  0  0  0  0  0  0  0  0  0  0
   40.4740   31.1050   39.0450 H   0  0  0  0  0  0  0  0  0  0  0  0
   40.6220   30.0820   40.4660 H   0  0  0  0  0  0  0  0  0  0  0  0
   40.6040   32.1710   41.9190 H   0  0  0  0  0  0  0  0  0  0  0  0
   41.8030   32.2150   40.5970 H   0  0  0  0  0  0  0  0  0  0  0  0
   40.5570   34.2470   40.7920 H   0  0  0  0  0  0  0  0  0  0  0  0
   40.4120   33.5080   39.1570 H   0  0  0  0  0  0  0  0  0  0  0  0
   38.0040   34.2800   40.6970 H   0  0  0  0  0  0  0  0  0  0  0  0
   36.5600   32.1170   40.6250 N   0  0  0  0  0  0  0  0  0  0  0  0
   35.8880   31.8060   39.8960 H   0  0  0  0  0  0  0  0  0  0  0  0
   36.1040   32.3700   41.5230 H   0  0  0  0  0  0  0  0  0  0  0  0
   37.0870   26.3780   40.9320 C   0  0  0  0  0  0  0  0  0  0  0  0
   37.1920   25.3000   41.7360 C   0  0  0  0  0  0  0  0  0  0  0  0
   36.7240   24.0830   41.2080 C   0  0  0  0  0  0  0  0  0  0  0  0
   36.2060   24.1140   39.9210 C   0  0  0  0  0  0  0  0  0  0  0  0
   36.1030   25.2110   39.1120 C   0  0  0  0  0  0  0  0  0  0  0  0
   36.5720   26.3600   39.6780 N   0  0  0  0  0  0  0  0  0  0  0  0
   37.5980   25.2910   42.7360 H   0  0  0  0  0  0  0  0  0  0  0  0
   36.7680   23.1690   41.7810 H   0  0  0  0  0  0  0  0  0  0  0  0
   35.8570   23.1510   39.5540 H   0  0  0  0  0  0  0  0  0  0  0  0
   35.5750   25.1420   37.8450 O   0  0  0  0  0  0  0  0  0  0  0  0
   34.9420   26.3000   37.3630 C   0  0  0  0  0  0  0  0  0  0  0  0
   35.3060   27.2920   37.0870 H   0  0  0  0  0  0  0  0  0  0  0  0
   33.8100   26.7450   37.0420 O   0  0  0  0  0  0  0  0  0  0  0  0
  1  7  1  0  0  0  0
  2  1  1  0  0  0  0
  2  8  1  0  0  0  0
  3  2  2  0  0  0  0
  4  5  2  0  0  0  0
  4  3  1  0  0  0  0
  5  6  1  0  0  0  0
  6  1  2  0  0  0  0
  9 15  1  6  0  0  0
  9 10  1  0  0  0  0
  9 14  1  0  0  0  0
  9  5  1  0  0  0  0
 10 17  1  0  0  0  0
 10 11  1  0  0  0  0
 11 18  1  0  0  0  0
 12 13  1  0  0  0  0
 12 20  1  0  0  0  0
 12 11  1  0  0  0  0
 13 22  1  0  0  0  0
 14 13  2  0  0  0  0
 14 23  1  0  0  0  0
 16 10  1  0  0  0  0
 19 11  1  0  0  0  0
 21 12  1  0  0  0  0
 23 25  1  0  0  0  0
 24 23  1  0  0  0  0
 26  3  1  0  0  0  0
 26 27  1  0  0  0  0
 27 32  1  0  0  0  0
 28 27  2  0  0  0  0
 28 33  1  0  0  0  0
 29 28  1  0  0  0  0
 30 31  1  0  0  0  0
 30 29  2  0  0  0  0
 31 26  2  0  0  0  0
 34 29  1  0  0  0  0
 35 30  1  0  0  0  0
 36 35  1  0  0  0  0
 37 36  1  0  0  0  0
 38 36  2  0  0  0  0
M  END
>  <minimizedAffinity>
-5.30765104

$$$$

 OpenBabel03252505133D

 38 40  0  0  1  0  0  0  0  0999 V2000
   35.4650   28.1960   37.1730 C   0  0  0  0  0  0  0  0  0  0  0  0
   35.7530   27.1780   38.1170 C   0  0  0  0  0  0  0  0  0  0  0  0
   36.4070   27.5780   39.3300 C   0  0  0  0  0  0  0  0  0  0  0  0
   36.7080   28.8790   39.5100 N   0  0  0  0  0  0  0  0  0  0  0  0
   36.4180   29.8060   38.5940 C   0  0  0  0  0  0  0  0  0  0  0  0
   35.7920   29.4740   37.4140 N   0  0  0  0  0  0  0  0  0  0  0  0
   34.9780   27.8390   36.2920 H   0  0  0  0  0  0  0  0  0  0  0  0
   35.5060   26.1350   37.9620 H   0  0  0  0  0  0  0  0  0  0  0  0
   36.7800   31.2300   38.8460 C   0  0  2  0  0  0  0  0  0  0  0  0
   38.0290   31.4650   38.0250 C   0  0  0  0  0  0  0  0  0  0  0  0
   39.2960   31.5260   38.7630 C   0  0  0  0  0  0  0  0  0  0  0  0
   39.0960   32.6180   39.8080 C   0  0  0  0  0  0  0  0  0  0  0  0
   38.0830   32.2470   40.8110 C   0  0  0  0  0  0  0  0  0  0  0  0
   36.9080   31.5290   40.2430 C   0  0  0  0  0  0  0  0  0  0  0  0
   35.9330   31.8150   38.4100 H   0  0  0  0  0  0  0  0  0  0  0  0
   37.8940   32.4420   37.5100 H   0  0  0  0  0  0  0  0  0  0  0  0
   38.1350   30.7310   37.1860 H   0  0  0  0  0  0  0  0  0  0  0  0
   39.6340   30.5980   39.2380 H   0  0  0  0  0  0  0  0  0  0  0  0
   40.0780   31.8960   38.0960 H   0  0  0  0  0  0  0  0  0  0  0  0
   40.0610   32.6250   40.3740 H   0  0  0  0  0  0  0  0  0  0  0  0
   38.9550   33.5950   39.3370 H   0  0  0  0  0  0  0  0  0  0  0  0
   37.9960   32.3730   41.8570 H   0  0  0  0  0  0  0  0  0  0  0  0
   35.8530   31.1070   41.1010 N   0  0  0  0  0  0  0  0  0  0  0  0
   34.8830   31.4660   41.0070 H   0  0  0  0  0  0  0  0  0  0  0  0
   35.9640   30.4200   41.8730 H   0  0  0  0  0  0  0  0  0  0  0  0
   36.7150   26.5570   40.3200 C   0  0  0  0  0  0  0  0  0  0  0  0
   36.9610   26.9340   41.5910 C   0  0  0  0  0  0  0  0  0  0  0  0
   37.2530   25.9000   42.5000 C   0  0  0  0  0  0  0  0  0  0  0  0
   37.2570   24.6070   42.0000 C   0  0  0  0  0  0  0  0  0  0  0  0
   37.0070   24.2320   40.7100 C   0  0  0  0  0  0  0  0  0  0  0  0
   36.7310   25.2760   39.8760 N   0  0  0  0  0  0  0  0  0  0  0  0
   36.9540   27.9460   41.9660 H   0  0  0  0  0  0  0  0  0  0  0  0
   37.4620   26.1090   43.5390 H   0  0  0  0  0  0  0  0  0  0  0  0
   37.4870   23.8410   42.7380 H   0  0  0  0  0  0  0  0  0  0  0  0
   37.0370   22.9180   40.3060 O   0  0  0  0  0  0  0  0  0  0  0  0
   36.4110   22.6200   39.0850 C   0  0  0  0  0  0  0  0  0  0  0  0
   35.3740   22.4220   38.8040 H   0  0  0  0  0  0  0  0  0  0  0  0
   36.6610   22.4470   37.8640 O   0  0  0  0  0  0  0  0  0  0  0  0
  1  6  2  0  0  0  0
  1  2  1  0  0  0  0
  2  3  2  0  0  0  0
  3  4  1  0  0  0  0
  3 26  1  0  0  0  0
  5  9  1  0  0  0  0
  5  4  2  0  0  0  0
  6  5  1  0  0  0  0
  7  1  1  0  0  0  0
  8  2  1  0  0  0  0
  9 15  1  6  0  0  0
  9 14  1  0  0  0  0
 10 11  1  0  0  0  0
 10  9  1  0  0  0  0
 11 18  1  0  0  0  0
 11 12  1  0  0  0  0
 12 20  1  0  0  0  0
 12 13  1  0  0  0  0
 13 22  1  0  0  0  0
 14 13  2  0  0  0  0
 14 23  1  0  0  0  0
 16 10  1  0  0  0  0
 17 10  1  0  0  0  0
 19 11  1  0  0  0  0
 21 12  1  0  0  0  0
 23 25  1  0  0  0  0
 24 23  1  0  0  0  0
 26 27  1  0  0  0  0
 27 32  1  0  0  0  0
 27 28  2  0  0  0  0
 28 33  1  0  0  0  0
 29 28  1  0  0  0  0
 29 34  1  0  0  0  0
 30 29  2  0  0  0  0
 31 26  2  0  0  0  0
 31 30  1  0  0  0  0
 35 30  1  0  0  0  0
 36 35  1  0  0  0  0
 37 36  1  0  0  0  0
 38 36  2  0  0  0  0
M  END
>  <minimizedAffinity>
-5.28463936

$$$$

 OpenBabel03252505133D

 38 40  0  0  1  0  0  0  0  0999 V2000
   36.2000   26.4860   39.1390 C   0  0  0  0  0  0  0  0  0  0  0  0
   37.1450   26.1740   40.1480 C   0  0  0  0  0  0  0  0  0  0  0  0
   37.8080   27.2760   40.7850 C   0  0  0  0  0  0  0  0  0  0  0  0
   37.5030   28.5310   40.4010 N   0  0  0  0  0  0  0  0  0  0  0  0
   36.6030   28.7800   39.4450 C   0  0  0  0  0  0  0  0  0  0  0  0
   35.9410   27.7590   38.8030 N   0  0  0  0  0  0  0  0  0  0  0  0
   35.7400   25.6270   38.7020 H   0  0  0  0  0  0  0  0  0  0  0  0
   37.3830   25.1610   40.4490 H   0  0  0  0  0  0  0  0  0  0  0  0
   36.3100   30.1890   39.0580 C   0  0  2  0  0  0  0  0  0  0  0  0
   37.2510   30.4820   37.9100 C   0  0  0  0  0  0  0  0  0  0  0  0
   38.4130   31.3260   38.2130 C   0  0  0  0  0  0  0  0  0  0  0  0
   37.8310   32.6060   38.8040 C   0  0  0  0  0  0  0  0  0  0  0  0
   37.1760   32.3700   40.1020 C   0  0  0  0  0  0  0  0  0  0  0  0
   36.4040   31.0970   40.1650 C   0  0  0  0  0  0  0  0  0  0  0  0
   35.2590   30.1620   38.6800 H   0  0  0  0  0  0  0  0  0  0  0  0
   36.6520   31.0030   37.1310 H   0  0  0  0  0  0  0  0  0  0  0  0
   37.6050   29.5510   37.3990 H   0  0  0  0  0  0  0  0  0  0  0  0
   39.1670   30.9020   38.8850 H   0  0  0  0  0  0  0  0  0  0  0  0
   38.8890   31.6240   37.2760 H   0  0  0  0  0  0  0  0  0  0  0  0
   38.7340   33.2180   39.0530 H   0  0  0  0  0  0  0  0  0  0  0  0
   37.2300   33.1450   38.0660 H   0  0  0  0  0  0  0  0  0  0  0  0
   37.1270   32.9030   41.0140 H   0  0  0  0  0  0  0  0  0  0  0  0
   35.7230   30.7400   41.3630 N   0  0  0  0  0  0  0  0  0  0  0  0
   34.6900   30.6330   41.4050 H   0  0  0  0  0  0  0  0  0  0  0  0
   36.1910   30.5610   42.2730 H   0  0  0  0  0  0  0  0  0  0  0  0
   38.7830   26.9900   41.8260 C   0  0  0  0  0  0  0  0  0  0  0  0
   38.6870   25.8310   42.5100 C   0  0  0  0  0  0  0  0  0  0  0  0
   39.6600   25.6140   43.5030 C   0  0  0  0  0  0  0  0  0  0  0  0
   40.6130   26.6070   43.6770 C   0  0  0  0  0  0  0  0  0  0  0  0
   40.7040   27.7790   42.9790 C   0  0  0  0  0  0  0  0  0  0  0  0
   39.7350   27.9330   42.0320 N   0  0  0  0  0  0  0  0  0  0  0  0
   37.9390   25.0680   42.3640 H   0  0  0  0  0  0  0  0  0  0  0  0
   39.6610   24.7140   44.1000 H   0  0  0  0  0  0  0  0  0  0  0  0
   41.3450   26.3960   44.4540 H   0  0  0  0  0  0  0  0  0  0  0  0
   41.6880   28.7070   43.2260 O   0  0  0  0  0  0  0  0  0  0  0  0
   42.0620   29.5300   42.1500 C   0  0  0  0  0  0  0  0  0  0  0  0
   41.7450   30.5220   41.8220 H   0  0  0  0  0  0  0  0  0  0  0  0
   42.8300   29.5640   41.1560 O   0  0  0  0  0  0  0  0  0  0  0  0
  1  2  1  0  0  0  0
  2  8  1  0  0  0  0
  2  3  2  0  0  0  0
  3 26  1  0  0  0  0
  4  3  1  0  0  0  0
  5  4  2  0  0  0  0
  6  1  2  0  0  0  0
  6  5  1  0  0  0  0
  7  1  1  0  0  0  0
  9 15  1  6  0  0  0
  9  5  1  0  0  0  0
  9 14  1  0  0  0  0
 10 11  1  0  0  0  0
 10  9  1  0  0  0  0
 11 12  1  0  0  0  0
 11 18  1  0  0  0  0
 12 20  1  0  0  0  0
 12 13  1  0  0  0  0
 13 14  2  0  0  0  0
 13 22  1  0  0  0  0
 14 23  1  0  0  0  0
 16 10  1  0  0  0  0
 17 10  1  0  0  0  0
 19 11  1  0  0  0  0
 21 12  1  0  0  0  0
 23 24  1  0  0  0  0
 23 25  1  0  0  0  0
 26 31  2  0  0  0  0
 26 27  1  0  0  0  0
 27 28  2  0  0  0  0
 28 29  1  0  0  0  0
 28 33  1  0  0  0  0
 29 34  1  0  0  0  0
 30 35  1  0  0  0  0
 30 29  2  0  0  0  0
 31 30  1  0  0  0  0
 32 27  1  0  0  0  0
 36 35  1  0  0  0  0
 37 36  1  0  0  0  0
 38 36  2  0  0  0  0
M  END
>  <minimizedAffinity>
-5.24253607

$$$$
