
 OpenBabel03252509313D

 21 21  0  0  0  0  0  0  0  0999 V2000
   47.1300   33.7760   42.8030 C   0  0  0  0  0  0  0  0  0  0  0  0
   46.5730   33.0640   42.1840 H   0  0  0  0  0  0  0  0  0  0  0  0
   47.3820   34.6350   42.1340 H   0  0  0  0  0  0  0  0  0  0  0  0
   45.2320   34.1870   45.9850 C   0  0  0  0  0  0  0  0  0  0  0  0
   46.1110   33.6470   45.0430 C   0  0  0  0  0  0  0  0  0  0  0  0
   46.2240   34.2950   43.8320 C   0  0  0  0  0  0  0  0  0  0  0  0
   45.4770   35.4360   43.6000 N   0  0  0  0  0  0  0  0  0  0  0  0
   44.6410   35.9140   44.5500 C   0  0  0  0  0  0  0  0  0  0  0  0
   44.5170   35.2960   45.7370 N   0  0  0  0  0  0  0  0  0  0  0  0
   45.1890   33.6290   46.9190 H   0  0  0  0  0  0  0  0  0  0  0  0
   46.7040   32.7500   45.2150 H   0  0  0  0  0  0  0  0  0  0  0  0
   44.0690   36.8050   44.3430 H   0  0  0  0  0  0  0  0  0  0  0  0
   48.2610   33.2010   43.3870 O   0  0  0  0  0  0  0  0  0  0  0  0
   50.6410   32.5930   42.5070 O   0  0  0  0  0  0  0  0  0  0  0  0
   49.5870   33.6610   42.4460 P   0  0  2  0  0  0  0  0  0  0  0  0
   50.1150   35.1510   43.0080 O   0  0  0  0  0  0  0  0  0  0  0  0
   50.8600   35.0400   43.6510 H   0  0  0  0  0  0  0  0  0  0  0  0
   49.0490   33.7960   40.8430 O   0  0  0  0  0  0  0  0  0  0  0  0
   48.9780   32.6470   40.0630 C   0  0  0  0  0  0  0  0  0  0  0  0
   48.0120   32.1460   40.0930 H   0  0  0  0  0  0  0  0  0  0  0  0
   49.8130   32.0860   39.3370 O   0  0  0  0  0  0  0  0  0  0  0  0
  1 13  1  0  0  0  0
  1  6  1  0  0  0  0
  2  1  1  0  0  0  0
  3  1  1  0  0  0  0
  4 10  1  0  0  0  0
  5 11  1  0  0  0  0
  5  4  2  0  0  0  0
  6  5  1  0  0  0  0
  7  6  2  0  0  0  0
  7  8  1  0  0  0  0
  8  9  2  0  0  0  0
  9  4  1  0  0  0  0
 12  8  1  0  0  0  0
 15 14  2  1  0  0  0
 15 16  1  0  0  0  0
 15 13  1  0  0  0  0
 16 17  1  0  0  0  0
 18 15  1  0  0  0  0
 19 20  1  0  0  0  0
 19 18  1  0  0  0  0
 21 19  2  0  0  0  0
M  END
>  <minimizedAffinity>
-4.01886654

>  <minimizedRMSD>
0.708075225

$$$$
