
 OpenBabel03252507543D

 38 40  0  0  1  0  0  0  0  0999 V2000
   47.1000   34.8140   42.0980 C   0  0  2  0  0  0  0  0  0  0  0  0
   46.3320   34.3140   40.8750 C   0  0  0  0  0  0  0  0  0  0  0  0
   47.5340   34.1740   39.9170 C   0  0  0  0  0  0  0  0  0  0  0  0
   48.6600   33.6960   40.7810 C   0  0  1  0  0  0  0  0  0  0  0  0
   48.1490   33.7380   42.1890 C   0  0  0  0  0  0  0  0  0  0  0  0
   47.5800   35.7770   41.8450 H   0  0  0  0  0  0  0  0  0  0  0  0
   45.9680   33.3030   41.0830 H   0  0  0  0  0  0  0  0  0  0  0  0
   45.6030   35.0350   40.5130 H   0  0  0  0  0  0  0  0  0  0  0  0
   47.2840   33.4260   39.1330 H   0  0  0  0  0  0  0  0  0  0  0  0
   47.6860   35.1890   39.5120 H   0  0  0  0  0  0  0  0  0  0  0  0
   49.5230   34.3920   40.6260 H   0  0  0  0  0  0  0  0  0  0  0  0
   48.9820   34.0890   42.8460 H   0  0  0  0  0  0  0  0  0  0  0  0
   47.7460   32.7790   42.5300 H   0  0  0  0  0  0  0  0  0  0  0  0
   44.5350   35.8050   44.6700 C   0  0  0  0  0  0  0  0  0  0  0  0
   45.2650   35.8480   43.4710 C   0  0  0  0  0  0  0  0  0  0  0  0
   46.2360   34.8710   43.3040 C   0  0  0  0  0  0  0  0  0  0  0  0
   46.4590   33.9010   44.2940 N   0  0  0  0  0  0  0  0  0  0  0  0
   45.7170   33.9170   45.4290 C   0  0  0  0  0  0  0  0  0  0  0  0
   44.7610   34.8690   45.6090 N   0  0  0  0  0  0  0  0  0  0  0  0
   43.7730   36.5540   44.8250 H   0  0  0  0  0  0  0  0  0  0  0  0
   45.1150   36.5820   42.6930 H   0  0  0  0  0  0  0  0  0  0  0  0
   45.9850   33.1220   46.1070 H   0  0  0  0  0  0  0  0  0  0  0  0
   49.1020   32.2770   40.5060 C   0  0  2  0  0  0  0  0  0  0  0  0
   49.9260   31.6540   41.5290 C   0  0  0  0  0  0  0  0  0  0  0  0
   50.4910   31.9580   40.1790 C   0  0  1  0  0  0  0  0  0  0  0  0
   48.3200   31.6600   40.0250 H   0  0  0  0  0  0  0  0  0  0  0  0
   49.8590   30.6120   41.8780 H   0  0  0  0  0  0  0  0  0  0  0  0
   50.3540   32.3120   42.3420 H   0  0  0  0  0  0  0  0  0  0  0  0
   51.1050   32.8240   39.9250 H   0  0  0  0  0  0  0  0  0  0  0  0
   50.7200   30.8590   39.3130 O   0  0  0  0  0  0  0  0  0  0  0  0
   51.1310   30.4070   36.7770 O   0  0  0  0  0  0  0  0  0  0  0  0
   51.2820   31.4570   37.8460 P   0  0  1  0  0  0  0  0  0  0  0  0
   50.3450   32.8120   37.3650 O   0  0  0  0  0  0  0  0  0  0  0  0
   49.4080   32.5760   37.1920 H   0  0  0  0  0  0  0  0  0  0  0  0
   52.8660   31.9640   37.8700 O   0  0  0  0  0  0  0  0  0  0  0  0
   53.8320   31.1580   38.4580 C   0  0  0  0  0  0  0  0  0  0  0  0
   53.7860   30.7290   39.4360 H   0  0  0  0  0  0  0  0  0  0  0  0
   54.7500   31.0630   37.5750 O   0  0  0  0  0  0  0  0  0  0  0  0
  1  6  1  6  0  0  0
  1  5  1  0  0  0  0
  1 16  1  0  0  0  0
  2  7  1  0  0  0  0
  2  1  1  0  0  0  0
  3  4  1  0  0  0  0
  3  2  1  0  0  0  0
  4 11  1  6  0  0  0
  4  5  1  0  0  0  0
  5 13  1  0  0  0  0
  5 12  1  0  0  0  0
  8  2  1  0  0  0  0
  9  3  1  0  0  0  0
 10  3  1  0  0  0  0
 14 20  1  0  0  0  0
 14 19  1  0  0  0  0
 15 14  2  0  0  0  0
 16 15  1  0  0  0  0
 16 17  2  0  0  0  0
 17 18  1  0  0  0  0
 18 19  2  0  0  0  0
 18 22  1  0  0  0  0
 21 15  1  0  0  0  0
 23 26  1  6  0  0  0
 23  4  1  0  0  0  0
 23 24  1  0  0  0  0
 24 27  1  0  0  0  0
 24 28  1  0  0  0  0
 25 29  1  6  0  0  0
 25 23  1  0  0  0  0
 25 24  1  0  0  0  0
 30 25  1  0  0  0  0
 32 31  2  6  0  0  0
 32 35  1  0  0  0  0
 32 30  1  0  0  0  0
 33 32  1  0  0  0  0
 34 33  1  0  0  0  0
 35 36  1  0  0  0  0
 36 37  1  0  0  0  0
 38 36  2  0  0  0  0
M  END
>  <minimizedAffinity>
-5.03299236

>  <minimizedRMSD>
0.667977571

$$$$
