
 OpenBabel03252507363D

 26 28  0  0  0  0  0  0  0  0999 V2000
   36.9170   30.0320   40.7940 C   0  0  0  0  0  0  0  0  0  0  0  0
   38.0770   29.8060   41.4980 C   0  0  0  0  0  0  0  0  0  0  0  0
   38.9910   30.8350   41.6220 C   0  0  0  0  0  0  0  0  0  0  0  0
   38.7810   32.0800   41.0630 C   0  0  0  0  0  0  0  0  0  0  0  0
   39.5070   33.2150   41.0470 N   0  0  0  0  0  0  0  0  0  0  0  0
   38.8210   34.1610   40.3410 C   0  0  0  0  0  0  0  0  0  0  0  0
   37.6750   33.5850   39.9310 N   0  0  0  0  0  0  0  0  0  0  0  0
   37.6250   32.3110   40.3590 C   0  0  0  0  0  0  0  0  0  0  0  0
   36.6940   31.2880   40.2260 C   0  0  0  0  0  0  0  0  0  0  0  0
   36.1820   29.2430   40.6820 H   0  0  0  0  0  0  0  0  0  0  0  0
   39.9010   30.6680   42.1700 H   0  0  0  0  0  0  0  0  0  0  0  0
   40.4530   33.3810   41.4960 H   0  0  0  0  0  0  0  0  0  0  0  0
   39.0880   35.1850   40.1170 H   0  0  0  0  0  0  0  0  0  0  0  0
   35.7720   31.4610   39.6680 H   0  0  0  0  0  0  0  0  0  0  0  0
   37.7490   26.1700   42.4540 C   0  0  0  0  0  0  0  0  0  0  0  0
   37.4570   27.4040   41.8340 C   0  0  0  0  0  0  0  0  0  0  0  0
   38.2700   28.4860   42.0740 C   0  0  0  0  0  0  0  0  0  0  0  0
   39.3330   28.3200   42.9050 N   0  0  0  0  0  0  0  0  0  0  0  0
   39.6060   27.1330   43.4950 C   0  0  0  0  0  0  0  0  0  0  0  0
   38.8160   26.0740   43.2650 N   0  0  0  0  0  0  0  0  0  0  0  0
   36.5990   27.5360   41.1640 H   0  0  0  0  0  0  0  0  0  0  0  0
   40.4520   27.0260   44.1490 H   0  0  0  0  0  0  0  0  0  0  0  0
   36.9320   25.0860   42.2140 O   0  0  0  0  0  0  0  0  0  0  0  0
   37.2970   24.2750   41.1230 C   0  0  0  0  0  0  0  0  0  0  0  0
   36.7900   24.2640   40.1640 H   0  0  0  0  0  0  0  0  0  0  0  0
   38.2510   23.4580   41.1030 O   0  0  0  0  0  0  0  0  0  0  0  0
  1  2  1  0  0  0  0
  2  3  2  0  0  0  0
  2 17  1  0  0  0  0
  3 11  1  0  0  0  0
  4  3  1  0  0  0  0
  5  4  1  0  0  0  0
  5 12  1  0  0  0  0
  6  5  1  0  0  0  0
  7  6  2  0  0  0  0
  7  8  1  0  0  0  0
  8  4  2  0  0  0  0
  9  8  1  0  0  0  0
  9  1  2  0  0  0  0
 10  1  1  0  0  0  0
 13  6  1  0  0  0  0
 14  9  1  0  0  0  0
 15 20  1  0  0  0  0
 16 17  1  0  0  0  0
 16 15  2  0  0  0  0
 17 18  2  0  0  0  0
 18 19  1  0  0  0  0
 19 22  1  0  0  0  0
 20 19  2  0  0  0  0
 21 16  1  0  0  0  0
 23 15  1  0  0  0  0
 24 23  1  0  0  0  0
 25 24  1  0  0  0  0
 26 24  2  0  0  0  0
M  END
>  <minimizedAffinity>
-4.78804827

$$$$

 OpenBabel03252507363D

 26 28  0  0  0  0  0  0  0  0999 V2000
   39.6370   30.2480   41.6630 C   0  0  0  0  0  0  0  0  0  0  0  0
   38.3240   29.8740   41.4910 C   0  0  0  0  0  0  0  0  0  0  0  0
   37.4340   30.7910   40.9680 C   0  0  0  0  0  0  0  0  0  0  0  0
   37.8140   32.0700   40.6130 C   0  0  0  0  0  0  0  0  0  0  0  0
   37.1440   33.1190   40.0960 N   0  0  0  0  0  0  0  0  0  0  0  0
   38.0170   34.1570   39.9370 C   0  0  0  0  0  0  0  0  0  0  0  0
   39.2180   33.7240   40.3640 N   0  0  0  0  0  0  0  0  0  0  0  0
   39.1220   32.4500   40.7830 C   0  0  0  0  0  0  0  0  0  0  0  0
   40.0320   31.5390   41.3070 C   0  0  0  0  0  0  0  0  0  0  0  0
   40.3570   29.5490   42.0700 H   0  0  0  0  0  0  0  0  0  0  0  0
   36.4050   30.5080   40.8300 H   0  0  0  0  0  0  0  0  0  0  0  0
   36.1160   33.1650   39.8440 H   0  0  0  0  0  0  0  0  0  0  0  0
   37.8430   35.1530   39.5530 H   0  0  0  0  0  0  0  0  0  0  0  0
   41.0750   31.8310   41.4450 H   0  0  0  0  0  0  0  0  0  0  0  0
   38.1210   26.1240   41.8640 C   0  0  0  0  0  0  0  0  0  0  0  0
   38.5750   27.3830   41.4170 C   0  0  0  0  0  0  0  0  0  0  0  0
   37.9530   28.5220   41.8740 C   0  0  0  0  0  0  0  0  0  0  0  0
   36.9190   28.3850   42.7460 N   0  0  0  0  0  0  0  0  0  0  0  0
   36.4910   27.1720   43.1690 C   0  0  0  0  0  0  0  0  0  0  0  0
   37.0930   26.0580   42.7270 N   0  0  0  0  0  0  0  0  0  0  0  0
   39.4080   27.4920   40.7130 H   0  0  0  0  0  0  0  0  0  0  0  0
   35.6720   27.0890   43.8590 H   0  0  0  0  0  0  0  0  0  0  0  0
   38.7440   24.9820   41.4030 O   0  0  0  0  0  0  0  0  0  0  0  0
   40.0380   24.7490   41.9050 C   0  0  0  0  0  0  0  0  0  0  0  0
   40.9480   24.8120   41.3200 H   0  0  0  0  0  0  0  0  0  0  0  0
   40.3200   24.4360   43.0880 O   0  0  0  0  0  0  0  0  0  0  0  0
  1 10  1  0  0  0  0
  2  1  1  0  0  0  0
  2 17  1  0  0  0  0
  3  2  2  0  0  0  0
  4  8  2  0  0  0  0
  4  3  1  0  0  0  0
  5  4  1  0  0  0  0
  6  5  1  0  0  0  0
  6  7  2  0  0  0  0
  7  8  1  0  0  0  0
  8  9  1  0  0  0  0
  9 14  1  0  0  0  0
  9  1  2  0  0  0  0
 11  3  1  0  0  0  0
 12  5  1  0  0  0  0
 13  6  1  0  0  0  0
 15 20  1  0  0  0  0
 16 15  2  0  0  0  0
 16 17  1  0  0  0  0
 17 18  2  0  0  0  0
 18 19  1  0  0  0  0
 19 22  1  0  0  0  0
 20 19  2  0  0  0  0
 21 16  1  0  0  0  0
 23 15  1  0  0  0  0
 23 24  1  0  0  0  0
 24 26  2  0  0  0  0
 25 24  1  0  0  0  0
M  END
>  <minimizedAffinity>
-4.66882896

$$$$

 OpenBabel03252507363D

 26 28  0  0  0  0  0  0  0  0999 V2000
   36.3910   27.0360   39.4460 C   0  0  0  0  0  0  0  0  0  0  0  0
   35.7290   28.2420   39.4150 C   0  0  0  0  0  0  0  0  0  0  0  0
   35.8230   29.0810   40.5090 C   0  0  0  0  0  0  0  0  0  0  0  0
   36.5570   28.7510   41.6310 C   0  0  0  0  0  0  0  0  0  0  0  0
   36.7940   29.3880   42.7950 N   0  0  0  0  0  0  0  0  0  0  0  0
   37.6000   28.6000   43.5660 C   0  0  0  0  0  0  0  0  0  0  0  0
   37.8460   27.4830   42.8560 N   0  0  0  0  0  0  0  0  0  0  0  0
   37.2200   27.5500   41.6680 C   0  0  0  0  0  0  0  0  0  0  0  0
   37.1370   26.6940   40.5760 C   0  0  0  0  0  0  0  0  0  0  0  0
   36.3350   26.3600   38.6020 H   0  0  0  0  0  0  0  0  0  0  0  0
   35.3080   30.0250   40.4940 H   0  0  0  0  0  0  0  0  0  0  0  0
   36.4320   30.3380   43.0940 H   0  0  0  0  0  0  0  0  0  0  0  0
   37.9960   28.7780   44.5560 H   0  0  0  0  0  0  0  0  0  0  0  0
   37.6600   25.7360   40.5950 H   0  0  0  0  0  0  0  0  0  0  0  0
   32.9930   29.1690   36.9860 C   0  0  0  0  0  0  0  0  0  0  0  0
   33.6260   28.8780   38.2140 C   0  0  0  0  0  0  0  0  0  0  0  0
   34.9640   28.5610   38.2210 C   0  0  0  0  0  0  0  0  0  0  0  0
   35.6270   28.5410   37.0350 N   0  0  0  0  0  0  0  0  0  0  0  0
   35.0120   28.8220   35.8620 C   0  0  0  0  0  0  0  0  0  0  0  0
   33.7070   29.1320   35.8480 N   0  0  0  0  0  0  0  0  0  0  0  0
   33.0900   28.8930   39.1700 H   0  0  0  0  0  0  0  0  0  0  0  0
   35.5570   28.8010   34.9360 H   0  0  0  0  0  0  0  0  0  0  0  0
   31.6510   29.4860   36.9800 O   0  0  0  0  0  0  0  0  0  0  0  0
   31.2660   30.4930   36.0760 C   0  0  0  0  0  0  0  0  0  0  0  0
   31.2980   30.4000   34.9960 H   0  0  0  0  0  0  0  0  0  0  0  0
   30.8350   31.6310   36.3860 O   0  0  0  0  0  0  0  0  0  0  0  0
  1  9  1  0  0  0  0
  2  1  2  0  0  0  0
  2  3  1  0  0  0  0
  3  4  2  0  0  0  0
  4  8  1  0  0  0  0
  4  5  1  0  0  0  0
  5 12  1  0  0  0  0
  5  6  1  0  0  0  0
  6 13  1  0  0  0  0
  7  6  2  0  0  0  0
  8  7  1  0  0  0  0
  9 14  1  0  0  0  0
  9  8  2  0  0  0  0
 10  1  1  0  0  0  0
 11  3  1  0  0  0  0
 15 16  1  0  0  0  0
 16 17  2  0  0  0  0
 16 21  1  0  0  0  0
 17  2  1  0  0  0  0
 18 17  1  0  0  0  0
 19 18  2  0  0  0  0
 20 19  1  0  0  0  0
 20 15  2  0  0  0  0
 22 19  1  0  0  0  0
 23 15  1  0  0  0  0
 24 26  2  0  0  0  0
 24 23  1  0  0  0  0
 25 24  1  0  0  0  0
M  END
>  <minimizedAffinity>
-4.65298557

$$$$

 OpenBabel03252507363D

 26 28  0  0  0  0  0  0  0  0999 V2000
   39.1640   29.3100   40.2170 C   0  0  0  0  0  0  0  0  0  0  0  0
   38.9060   30.4730   40.9050 C   0  0  0  0  0  0  0  0  0  0  0  0
   38.1700   30.4060   42.0720 C   0  0  0  0  0  0  0  0  0  0  0  0
   37.6860   29.2140   42.5720 C   0  0  0  0  0  0  0  0  0  0  0  0
   36.9610   28.9020   43.6650 N   0  0  0  0  0  0  0  0  0  0  0  0
   36.7560   27.5520   43.6800 C   0  0  0  0  0  0  0  0  0  0  0  0
   37.3630   27.0540   42.5860 N   0  0  0  0  0  0  0  0  0  0  0  0
   37.9400   28.0500   41.8910 C   0  0  0  0  0  0  0  0  0  0  0  0
   38.6790   28.0990   40.7140 C   0  0  0  0  0  0  0  0  0  0  0  0
   39.7390   29.3330   39.2990 H   0  0  0  0  0  0  0  0  0  0  0  0
   37.9620   31.3110   42.6170 H   0  0  0  0  0  0  0  0  0  0  0  0
   36.5960   29.5650   44.4070 H   0  0  0  0  0  0  0  0  0  0  0  0
   36.2220   26.9420   44.3950 H   0  0  0  0  0  0  0  0  0  0  0  0
   38.8870   27.1790   40.1650 H   0  0  0  0  0  0  0  0  0  0  0  0
   40.6680   33.0610   38.7970 C   0  0  0  0  0  0  0  0  0  0  0  0
   40.2230   31.7950   39.2350 C   0  0  0  0  0  0  0  0  0  0  0  0
   39.4280   31.7130   40.3540 C   0  0  0  0  0  0  0  0  0  0  0  0
   39.1010   32.8650   40.9970 N   0  0  0  0  0  0  0  0  0  0  0  0
   39.5330   34.0750   40.5690 C   0  0  0  0  0  0  0  0  0  0  0  0
   40.3080   34.1610   39.4790 N   0  0  0  0  0  0  0  0  0  0  0  0
   40.4880   30.8660   38.7160 H   0  0  0  0  0  0  0  0  0  0  0  0
   39.2610   34.9720   41.0940 H   0  0  0  0  0  0  0  0  0  0  0  0
   41.4670   33.1410   37.6760 O   0  0  0  0  0  0  0  0  0  0  0  0
   42.4420   34.1560   37.6920 C   0  0  0  0  0  0  0  0  0  0  0  0
   42.2270   35.2190   37.6930 H   0  0  0  0  0  0  0  0  0  0  0  0
   43.6850   33.9790   37.7070 O   0  0  0  0  0  0  0  0  0  0  0  0
  1  9  2  0  0  0  0
  1  2  1  0  0  0  0
  2  3  2  0  0  0  0
  3  4  1  0  0  0  0
  3 11  1  0  0  0  0
  4  5  1  0  0  0  0
  5  6  1  0  0  0  0
  5 12  1  0  0  0  0
  6 13  1  0  0  0  0
  7  6  2  0  0  0  0
  8  4  2  0  0  0  0
  8  7  1  0  0  0  0
  9  8  1  0  0  0  0
 10  1  1  0  0  0  0
 14  9  1  0  0  0  0
 15 16  2  0  0  0  0
 15 20  1  0  0  0  0
 16 17  1  0  0  0  0
 17  2  1  0  0  0  0
 17 18  2  0  0  0  0
 19 18  1  0  0  0  0
 19 22  1  0  0  0  0
 20 19  2  0  0  0  0
 21 16  1  0  0  0  0
 23 24  1  0  0  0  0
 23 15  1  0  0  0  0
 24 25  1  0  0  0  0
 24 26  2  0  0  0  0
M  END
>  <minimizedAffinity>
-4.63293743

$$$$

 OpenBabel03252507363D

 26 28  0  0  0  0  0  0  0  0999 V2000
   36.4110   26.8840   39.5400 C   0  0  0  0  0  0  0  0  0  0  0  0
   35.9180   28.1590   39.3870 C   0  0  0  0  0  0  0  0  0  0  0  0
   36.0230   29.0430   40.4440 C   0  0  0  0  0  0  0  0  0  0  0  0
   36.6030   28.6920   41.6470 C   0  0  0  0  0  0  0  0  0  0  0  0
   36.8150   29.3620   42.7960 N   0  0  0  0  0  0  0  0  0  0  0  0
   37.4380   28.5270   43.6780 C   0  0  0  0  0  0  0  0  0  0  0  0
   37.5990   27.3470   43.0500 N   0  0  0  0  0  0  0  0  0  0  0  0
   37.0960   27.4210   41.8050 C   0  0  0  0  0  0  0  0  0  0  0  0
   37.0000   26.5180   40.7520 C   0  0  0  0  0  0  0  0  0  0  0  0
   36.3430   26.1710   38.7270 H   0  0  0  0  0  0  0  0  0  0  0  0
   35.6390   30.0430   40.3340 H   0  0  0  0  0  0  0  0  0  0  0  0
   36.5560   30.3670   43.0130 H   0  0  0  0  0  0  0  0  0  0  0  0
   37.7630   28.7120   44.6930 H   0  0  0  0  0  0  0  0  0  0  0  0
   37.3900   25.5050   40.8670 H   0  0  0  0  0  0  0  0  0  0  0  0
   35.3060   29.0120   35.7620 C   0  0  0  0  0  0  0  0  0  0  0  0
   36.0100   28.6820   36.9400 C   0  0  0  0  0  0  0  0  0  0  0  0
   35.3120   28.5000   38.1110 C   0  0  0  0  0  0  0  0  0  0  0  0
   33.9610   28.6460   38.0840 N   0  0  0  0  0  0  0  0  0  0  0  0
   33.2940   28.9620   36.9490 C   0  0  0  0  0  0  0  0  0  0  0  0
   33.9690   29.1410   35.8040 N   0  0  0  0  0  0  0  0  0  0  0  0
   37.1000   28.5660   36.9610 H   0  0  0  0  0  0  0  0  0  0  0  0
   32.2250   29.0710   36.9520 H   0  0  0  0  0  0  0  0  0  0  0  0
   36.0080   29.1970   34.5890 O   0  0  0  0  0  0  0  0  0  0  0  0
   36.2450   30.5350   34.2230 C   0  0  0  0  0  0  0  0  0  0  0  0
   37.1080   31.1150   34.5290 H   0  0  0  0  0  0  0  0  0  0  0  0
   35.4990   31.2410   33.5000 O   0  0  0  0  0  0  0  0  0  0  0  0
  1  9  1  0  0  0  0
  2  1  2  0  0  0  0
  2  3  1  0  0  0  0
  3  4  2  0  0  0  0
  4  8  1  0  0  0  0
  4  5  1  0  0  0  0
  5 12  1  0  0  0  0
  5  6  1  0  0  0  0
  6 13  1  0  0  0  0
  7  6  2  0  0  0  0
  8  7  1  0  0  0  0
  9 14  1  0  0  0  0
  9  8  2  0  0  0  0
 10  1  1  0  0  0  0
 11  3  1  0  0  0  0
 15 20  2  0  0  0  0
 15 16  1  0  0  0  0
 16 21  1  0  0  0  0
 16 17  2  0  0  0  0
 17  2  1  0  0  0  0
 18 17  1  0  0  0  0
 19 22  1  0  0  0  0
 19 18  2  0  0  0  0
 20 19  1  0  0  0  0
 23 15  1  0  0  0  0
 24 25  1  0  0  0  0
 24 23  1  0  0  0  0
 26 24  2  0  0  0  0
M  END
>  <minimizedAffinity>
-4.49240398

$$$$

 OpenBabel03252507363D

 26 28  0  0  0  0  0  0  0  0999 V2000
   37.0930   29.0550   38.8330 C   0  0  0  0  0  0  0  0  0  0  0  0
   37.0590   29.0710   40.2080 C   0  0  0  0  0  0  0  0  0  0  0  0
   37.0780   30.2890   40.8600 C   0  0  0  0  0  0  0  0  0  0  0  0
   37.1320   31.4900   40.1800 C   0  0  0  0  0  0  0  0  0  0  0  0
   37.1600   32.7750   40.5840 N   0  0  0  0  0  0  0  0  0  0  0  0
   37.2120   33.5770   39.4800 C   0  0  0  0  0  0  0  0  0  0  0  0
   37.2150   32.7630   38.4080 N   0  0  0  0  0  0  0  0  0  0  0  0
   37.1660   31.4800   38.8080 C   0  0  0  0  0  0  0  0  0  0  0  0
   37.1470   30.2640   38.1350 C   0  0  0  0  0  0  0  0  0  0  0  0
   37.0780   28.1140   38.2960 H   0  0  0  0  0  0  0  0  0  0  0  0
   37.0530   30.3120   41.9350 H   0  0  0  0  0  0  0  0  0  0  0  0
   37.1460   33.1370   41.5800 H   0  0  0  0  0  0  0  0  0  0  0  0
   37.2460   34.6560   39.4110 H   0  0  0  0  0  0  0  0  0  0  0  0
   37.1740   30.2450   37.0440 H   0  0  0  0  0  0  0  0  0  0  0  0
   36.9420   25.3940   41.0490 C   0  0  0  0  0  0  0  0  0  0  0  0
   36.9980   26.5690   40.2680 C   0  0  0  0  0  0  0  0  0  0  0  0
   37.0040   27.7920   40.8960 C   0  0  0  0  0  0  0  0  0  0  0  0
   36.9560   27.8190   42.2540 N   0  0  0  0  0  0  0  0  0  0  0  0
   36.9030   26.6860   42.9940 C   0  0  0  0  0  0  0  0  0  0  0  0
   36.8960   25.4910   42.3880 N   0  0  0  0  0  0  0  0  0  0  0  0
   37.0350   26.5460   39.1730 H   0  0  0  0  0  0  0  0  0  0  0  0
   36.8670   26.7330   44.0670 H   0  0  0  0  0  0  0  0  0  0  0  0
   36.9340   24.1670   40.4180 O   0  0  0  0  0  0  0  0  0  0  0  0
   38.1050   23.4000   40.5600 C   0  0  0  0  0  0  0  0  0  0  0  0
   38.1260   22.3330   40.7470 H   0  0  0  0  0  0  0  0  0  0  0  0
   39.2810   23.8370   40.4920 O   0  0  0  0  0  0  0  0  0  0  0  0
  1  2  1  0  0  0  0
  2  3  2  0  0  0  0
  2 17  1  0  0  0  0
  3 11  1  0  0  0  0
  4  5  1  0  0  0  0
  4  3  1  0  0  0  0
  5 12  1  0  0  0  0
  6  5  1  0  0  0  0
  7  8  1  0  0  0  0
  7  6  2  0  0  0  0
  8  4  2  0  0  0  0
  9  8  1  0  0  0  0
  9  1  2  0  0  0  0
 10  1  1  0  0  0  0
 13  6  1  0  0  0  0
 14  9  1  0  0  0  0
 15 20  1  0  0  0  0
 16 17  1  0  0  0  0
 16 15  2  0  0  0  0
 17 18  2  0  0  0  0
 18 19  1  0  0  0  0
 19 22  1  0  0  0  0
 20 19  2  0  0  0  0
 21 16  1  0  0  0  0
 23 24  1  0  0  0  0
 23 15  1  0  0  0  0
 24 25  1  0  0  0  0
 26 24  2  0  0  0  0
M  END
>  <minimizedAffinity>
-4.47148418

$$$$

 OpenBabel03252507363D

 26 28  0  0  0  0  0  0  0  0999 V2000
   35.9000   29.3550   37.2050 C   0  0  0  0  0  0  0  0  0  0  0  0
   35.1470   29.1640   38.3410 C   0  0  0  0  0  0  0  0  0  0  0  0
   33.8260   28.7810   38.2060 C   0  0  0  0  0  0  0  0  0  0  0  0
   33.2370   28.5830   36.9730 C   0  0  0  0  0  0  0  0  0  0  0  0
   31.9960   28.2180   36.5950 N   0  0  0  0  0  0  0  0  0  0  0  0
   31.9520   28.1730   35.2310 C   0  0  0  0  0  0  0  0  0  0  0  0
   33.1770   28.5160   34.7910 N   0  0  0  0  0  0  0  0  0  0  0  0
   33.9830   28.7720   35.8370 C   0  0  0  0  0  0  0  0  0  0  0  0
   35.3130   29.1570   35.9530 C   0  0  0  0  0  0  0  0  0  0  0  0
   36.9380   29.6550   37.2810 H   0  0  0  0  0  0  0  0  0  0  0  0
   33.2290   28.6300   39.0880 H   0  0  0  0  0  0  0  0  0  0  0  0
   31.1710   27.9950   37.2230 H   0  0  0  0  0  0  0  0  0  0  0  0
   31.1300   27.9230   34.5740 H   0  0  0  0  0  0  0  0  0  0  0  0
   35.9160   29.3100   35.0560 H   0  0  0  0  0  0  0  0  0  0  0  0
   36.5890   28.7530   41.8040 C   0  0  0  0  0  0  0  0  0  0  0  0
   35.9390   28.4190   40.5960 C   0  0  0  0  0  0  0  0  0  0  0  0
   35.7940   29.3810   39.6230 C   0  0  0  0  0  0  0  0  0  0  0  0
   36.2880   30.6230   39.8690 N   0  0  0  0  0  0  0  0  0  0  0  0
   36.9100   30.9340   41.0300 C   0  0  0  0  0  0  0  0  0  0  0  0
   37.0540   30.0010   41.9820 N   0  0  0  0  0  0  0  0  0  0  0  0
   35.5410   27.4170   40.4000 H   0  0  0  0  0  0  0  0  0  0  0  0
   37.2920   31.9240   41.2010 H   0  0  0  0  0  0  0  0  0  0  0  0
   36.7320   27.7880   42.7790 O   0  0  0  0  0  0  0  0  0  0  0  0
   37.8430   27.9400   43.6290 C   0  0  0  0  0  0  0  0  0  0  0  0
   37.9200   28.6770   44.4210 H   0  0  0  0  0  0  0  0  0  0  0  0
   38.8940   27.2530   43.5920 O   0  0  0  0  0  0  0  0  0  0  0  0
  1 10  1  0  0  0  0
  1  2  1  0  0  0  0
  2 17  1  0  0  0  0
  3  2  2  0  0  0  0
  3 11  1  0  0  0  0
  4  3  1  0  0  0  0
  5  4  1  0  0  0  0
  5 12  1  0  0  0  0
  6  5  1  0  0  0  0
  7  6  2  0  0  0  0
  7  8  1  0  0  0  0
  8  9  1  0  0  0  0
  8  4  2  0  0  0  0
  9  1  2  0  0  0  0
 13  6  1  0  0  0  0
 14  9  1  0  0  0  0
 15 20  1  0  0  0  0
 15 23  1  0  0  0  0
 16 15  2  0  0  0  0
 17 18  2  0  0  0  0
 17 16  1  0  0  0  0
 18 19  1  0  0  0  0
 19 22  1  0  0  0  0
 19 20  2  0  0  0  0
 21 16  1  0  0  0  0
 23 24  1  0  0  0  0
 24 25  1  0  0  0  0
 26 24  2  0  0  0  0
M  END
>  <minimizedAffinity>
-4.43296766

$$$$

 OpenBabel03252507363D

 26 28  0  0  0  0  0  0  0  0999 V2000
   36.8150   30.2810   39.0740 C   0  0  0  0  0  0  0  0  0  0  0  0
   35.8120   29.3400   39.0710 C   0  0  0  0  0  0  0  0  0  0  0  0
   35.6070   28.5830   40.2080 C   0  0  0  0  0  0  0  0  0  0  0  0
   36.3730   28.7370   41.3460 C   0  0  0  0  0  0  0  0  0  0  0  0
   36.3650   28.1310   42.5500 N   0  0  0  0  0  0  0  0  0  0  0  0
   37.3520   28.6780   43.3190 C   0  0  0  0  0  0  0  0  0  0  0  0
   37.9550   29.6180   42.5670 N   0  0  0  0  0  0  0  0  0  0  0  0
   37.3760   29.6750   41.3550 C   0  0  0  0  0  0  0  0  0  0  0  0
   37.5960   30.4460   40.2190 C   0  0  0  0  0  0  0  0  0  0  0  0
   36.9970   30.8890   38.1960 H   0  0  0  0  0  0  0  0  0  0  0  0
   34.8250   27.8440   40.2150 H   0  0  0  0  0  0  0  0  0  0  0  0
   35.7170   27.3600   42.8780 H   0  0  0  0  0  0  0  0  0  0  0  0
   37.6440   28.4480   44.3340 H   0  0  0  0  0  0  0  0  0  0  0  0
   38.3900   31.1940   40.2160 H   0  0  0  0  0  0  0  0  0  0  0  0
   33.0070   28.8770   36.5880 C   0  0  0  0  0  0  0  0  0  0  0  0
   33.6620   28.9990   37.8320 C   0  0  0  0  0  0  0  0  0  0  0  0
   35.0220   29.1990   37.8580 C   0  0  0  0  0  0  0  0  0  0  0  0
   35.6850   29.2730   36.6740 N   0  0  0  0  0  0  0  0  0  0  0  0
   35.0480   29.1550   35.4850 C   0  0  0  0  0  0  0  0  0  0  0  0
   33.7220   28.9600   35.4530 N   0  0  0  0  0  0  0  0  0  0  0  0
   33.1270   28.9380   38.7870 H   0  0  0  0  0  0  0  0  0  0  0  0
   35.5930   29.2170   34.5610 H   0  0  0  0  0  0  0  0  0  0  0  0
   31.6430   28.6750   36.5630 O   0  0  0  0  0  0  0  0  0  0  0  0
   30.8520   29.8160   36.7890 C   0  0  0  0  0  0  0  0  0  0  0  0
   29.9150   29.8210   37.3350 H   0  0  0  0  0  0  0  0  0  0  0  0
   31.1150   30.9800   36.3960 O   0  0  0  0  0  0  0  0  0  0  0  0
  1  9  1  0  0  0  0
  2  1  2  0  0  0  0
  2  3  1  0  0  0  0
  3 11  1  0  0  0  0
  3  4  2  0  0  0  0
  4  8  1  0  0  0  0
  4  5  1  0  0  0  0
  5 12  1  0  0  0  0
  5  6  1  0  0  0  0
  6 13  1  0  0  0  0
  7  6  2  0  0  0  0
  8  7  1  0  0  0  0
  9  8  2  0  0  0  0
 10  1  1  0  0  0  0
 14  9  1  0  0  0  0
 15 16  1  0  0  0  0
 16 17  2  0  0  0  0
 16 21  1  0  0  0  0
 17  2  1  0  0  0  0
 18 17  1  0  0  0  0
 19 18  2  0  0  0  0
 20 19  1  0  0  0  0
 20 15  2  0  0  0  0
 22 19  1  0  0  0  0
 23 15  1  0  0  0  0
 23 24  1  0  0  0  0
 24 25  1  0  0  0  0
 26 24  2  0  0  0  0
M  END
>  <minimizedAffinity>
-4.38107395

$$$$

 OpenBabel03252507363D

 26 28  0  0  0  0  0  0  0  0999 V2000
   35.5560   29.2630   38.8900 C   0  0  0  0  0  0  0  0  0  0  0  0
   36.8530   29.7140   38.8050 C   0  0  0  0  0  0  0  0  0  0  0  0
   37.3960   29.9440   37.5550 C   0  0  0  0  0  0  0  0  0  0  0  0
   36.6840   29.7350   36.3910 C   0  0  0  0  0  0  0  0  0  0  0  0
   36.9900   29.8840   35.0870 N   0  0  0  0  0  0  0  0  0  0  0  0
   35.9010   29.5320   34.3420 C   0  0  0  0  0  0  0  0  0  0  0  0
   34.9370   29.1690   35.2090 N   0  0  0  0  0  0  0  0  0  0  0  0
   35.3900   29.2850   36.4700 C   0  0  0  0  0  0  0  0  0  0  0  0
   34.8270   29.0490   37.7190 C   0  0  0  0  0  0  0  0  0  0  0  0
   35.1050   29.0750   39.8570 H   0  0  0  0  0  0  0  0  0  0  0  0
   38.4090   30.2970   37.4780 H   0  0  0  0  0  0  0  0  0  0  0  0
   37.9080   30.2160   34.6750 H   0  0  0  0  0  0  0  0  0  0  0  0
   35.7720   29.5220   33.2680 H   0  0  0  0  0  0  0  0  0  0  0  0
   33.7990   28.6900   37.7930 H   0  0  0  0  0  0  0  0  0  0  0  0
   38.0300   29.6270   42.3890 C   0  0  0  0  0  0  0  0  0  0  0  0
   37.2470   29.3450   41.2500 C   0  0  0  0  0  0  0  0  0  0  0  0
   37.5770   29.9240   40.0470 C   0  0  0  0  0  0  0  0  0  0  0  0
   38.6550   30.7510   40.0060 N   0  0  0  0  0  0  0  0  0  0  0  0
   39.4010   31.0160   41.1040 C   0  0  0  0  0  0  0  0  0  0  0  0
   39.0840   30.4550   42.2800 N   0  0  0  0  0  0  0  0  0  0  0  0
   36.3780   28.6780   41.2850 H   0  0  0  0  0  0  0  0  0  0  0  0
   40.2490   31.6740   41.0470 H   0  0  0  0  0  0  0  0  0  0  0  0
   37.6970   29.0470   43.5950 O   0  0  0  0  0  0  0  0  0  0  0  0
   37.8050   27.6450   43.6480 C   0  0  0  0  0  0  0  0  0  0  0  0
   36.9640   26.9610   43.6700 H   0  0  0  0  0  0  0  0  0  0  0  0
   38.8780   26.9920   43.6790 O   0  0  0  0  0  0  0  0  0  0  0  0
  1 10  1  0  0  0  0
  2  1  1  0  0  0  0
  2 17  1  0  0  0  0
  3  2  2  0  0  0  0
  4  8  2  0  0  0  0
  4  3  1  0  0  0  0
  5  4  1  0  0  0  0
  6  5  1  0  0  0  0
  6  7  2  0  0  0  0
  7  8  1  0  0  0  0
  8  9  1  0  0  0  0
  9 14  1  0  0  0  0
  9  1  2  0  0  0  0
 11  3  1  0  0  0  0
 12  5  1  0  0  0  0
 13  6  1  0  0  0  0
 15 23  1  0  0  0  0
 16 21  1  0  0  0  0
 16 15  2  0  0  0  0
 17 16  1  0  0  0  0
 18 17  2  0  0  0  0
 18 19  1  0  0  0  0
 19 20  2  0  0  0  0
 20 15  1  0  0  0  0
 22 19  1  0  0  0  0
 23 24  1  0  0  0  0
 24 25  1  0  0  0  0
 24 26  2  0  0  0  0
M  END
>  <minimizedAffinity>
-4.3745389

$$$$
