
 OpenBabel03252507563D

 38 40  0  0  1  0  0  0  0  0999 V2000
   36.7280   28.3190   42.0350 C   0  0  2  0  0  0  0  0  0  0  0  0
   36.3140   28.0230   40.5930 C   0  0  0  0  0  0  0  0  0  0  0  0
   35.4580   29.2850   40.3590 C   0  0  0  0  0  0  0  0  0  0  0  0
   36.1710   30.3750   41.0980 C   0  0  1  0  0  0  0  0  0  0  0  0
   37.2790   29.7070   41.8550 C   0  0  0  0  0  0  0  0  0  0  0  0
   35.8190   28.3610   42.6620 H   0  0  0  0  0  0  0  0  0  0  0  0
   37.1970   28.1120   39.9540 H   0  0  0  0  0  0  0  0  0  0  0  0
   35.7300   27.1110   40.5030 H   0  0  0  0  0  0  0  0  0  0  0  0
   35.4210   29.4980   39.2690 H   0  0  0  0  0  0  0  0  0  0  0  0
   34.4710   29.0340   40.7840 H   0  0  0  0  0  0  0  0  0  0  0  0
   35.4280   30.8610   41.7820 H   0  0  0  0  0  0  0  0  0  0  0  0
   37.3620   30.2050   42.8520 H   0  0  0  0  0  0  0  0  0  0  0  0
   38.2340   29.7200   41.3200 H   0  0  0  0  0  0  0  0  0  0  0  0
   39.6670   26.7320   43.7740 C   0  0  0  0  0  0  0  0  0  0  0  0
   38.7450   27.7290   43.4160 C   0  0  0  0  0  0  0  0  0  0  0  0
   37.7510   27.3590   42.5210 C   0  0  0  0  0  0  0  0  0  0  0  0
   37.6900   26.0520   42.0140 N   0  0  0  0  0  0  0  0  0  0  0  0
   38.6140   25.1370   42.4020 C   0  0  0  0  0  0  0  0  0  0  0  0
   39.5950   25.4840   43.2790 N   0  0  0  0  0  0  0  0  0  0  0  0
   40.4500   26.9940   44.4700 H   0  0  0  0  0  0  0  0  0  0  0  0
   38.7680   28.7430   43.7910 H   0  0  0  0  0  0  0  0  0  0  0  0
   38.4560   24.1740   41.9420 H   0  0  0  0  0  0  0  0  0  0  0  0
   36.8010   31.4260   40.2130 C   0  0  2  0  0  0  0  0  0  0  0  0
   36.7830   31.1540   38.7850 C   0  0  0  0  0  0  0  0  0  0  0  0
   38.0750   31.1920   39.5350 C   0  0  1  0  0  0  0  0  0  0  0  0
   36.5930   32.4600   40.5450 H   0  0  0  0  0  0  0  0  0  0  0  0
   36.5870   31.8820   37.9830 H   0  0  0  0  0  0  0  0  0  0  0  0
   36.5030   30.1130   38.4450 H   0  0  0  0  0  0  0  0  0  0  0  0
   38.6270   30.3230   39.8990 H   0  0  0  0  0  0  0  0  0  0  0  0
   38.9130   32.3140   39.3190 O   0  0  0  0  0  0  0  0  0  0  0  0
   40.2880   30.3630   38.2680 O   0  0  0  0  0  0  0  0  0  0  0  0
   40.1310   31.8610   38.2530 P   0  0  1  0  0  0  0  0  0  0  0  0
   39.7090   32.3120   36.6520 O   0  0  0  0  0  0  0  0  0  0  0  0
   38.9110   31.8420   36.3300 H   0  0  0  0  0  0  0  0  0  0  0  0
   41.6120   32.5510   38.5640 O   0  0  0  0  0  0  0  0  0  0  0  0
   42.3310   33.1230   37.5220 C   0  0  0  0  0  0  0  0  0  0  0  0
   42.4980   34.1680   37.3700 H   0  0  0  0  0  0  0  0  0  0  0  0
   42.7250   32.1300   36.8220 O   0  0  0  0  0  0  0  0  0  0  0  0
  1 16  1  0  0  0  0
  1  6  1  1  0  0  0
  2  1  1  0  0  0  0
  3  2  1  0  0  0  0
  3 10  1  0  0  0  0
  3  4  1  0  0  0  0
  4 11  1  1  0  0  0
  4  5  1  0  0  0  0
  5  1  1  0  0  0  0
  5 12  1  0  0  0  0
  7  2  1  0  0  0  0
  8  2  1  0  0  0  0
  9  3  1  0  0  0  0
 13  5  1  0  0  0  0
 14 20  1  0  0  0  0
 15 14  1  0  0  0  0
 15 21  1  0  0  0  0
 16 15  2  0  0  0  0
 17 18  2  0  0  0  0
 17 16  1  0  0  0  0
 18 19  1  0  0  0  0
 19 14  2  0  0  0  0
 22 18  1  0  0  0  0
 23 26  1  1  0  0  0
 23  4  1  0  0  0  0
 24 25  1  0  0  0  0
 24 23  1  0  0  0  0
 25 29  1  1  0  0  0
 25 23  1  0  0  0  0
 27 24  1  0  0  0  0
 28 24  1  0  0  0  0
 30 25  1  0  0  0  0
 32 31  2  1  0  0  0
 32 35  1  0  0  0  0
 32 30  1  0  0  0  0
 33 32  1  0  0  0  0
 34 33  1  0  0  0  0
 36 35  1  0  0  0  0
 37 36  1  0  0  0  0
 38 36  2  0  0  0  0
M  END
>  <minimizedAffinity>
-5.44658136

$$$$

 OpenBabel03252507563D

 38 40  0  0  1  0  0  0  0  0999 V2000
   37.3980   28.8350   42.3320 C   0  0  2  0  0  0  0  0  0  0  0  0
   36.7020   27.9320   41.3120 C   0  0  0  0  0  0  0  0  0  0  0  0
   35.5690   28.9010   40.9140 C   0  0  0  0  0  0  0  0  0  0  0  0
   36.2010   30.2580   40.9320 C   0  0  1  0  0  0  0  0  0  0  0  0
   37.5800   30.0670   41.4870 C   0  0  0  0  0  0  0  0  0  0  0  0
   36.6900   29.0510   43.1520 H   0  0  0  0  0  0  0  0  0  0  0  0
   37.3550   27.8260   40.4410 H   0  0  0  0  0  0  0  0  0  0  0  0
   36.3200   27.0160   41.7550 H   0  0  0  0  0  0  0  0  0  0  0  0
   35.2120   28.6380   39.8950 H   0  0  0  0  0  0  0  0  0  0  0  0
   34.7980   28.7610   41.6920 H   0  0  0  0  0  0  0  0  0  0  0  0
   35.5720   30.9150   41.5860 H   0  0  0  0  0  0  0  0  0  0  0  0
   37.8070   30.9390   42.1490 H   0  0  0  0  0  0  0  0  0  0  0  0
   38.3420   29.9430   40.7120 H   0  0  0  0  0  0  0  0  0  0  0  0
   40.0410   26.6360   43.8660 C   0  0  0  0  0  0  0  0  0  0  0  0
   38.7600   27.0540   43.4700 C   0  0  0  0  0  0  0  0  0  0  0  0
   38.6890   28.2600   42.7850 C   0  0  0  0  0  0  0  0  0  0  0  0
   39.8480   29.0020   42.5130 N   0  0  0  0  0  0  0  0  0  0  0  0
   41.0550   28.5380   42.9250 C   0  0  0  0  0  0  0  0  0  0  0  0
   41.1420   27.3590   43.5980 N   0  0  0  0  0  0  0  0  0  0  0  0
   40.1230   25.7010   44.4010 H   0  0  0  0  0  0  0  0  0  0  0  0
   37.8510   26.5040   43.6660 H   0  0  0  0  0  0  0  0  0  0  0  0
   41.8630   29.2000   42.6540 H   0  0  0  0  0  0  0  0  0  0  0  0
   36.3490   30.8990   39.5700 C   0  0  2  0  0  0  0  0  0  0  0  0
   36.1470   30.0250   38.4270 C   0  0  0  0  0  0  0  0  0  0  0  0
   37.4940   30.6080   38.7090 C   0  0  1  0  0  0  0  0  0  0  0  0
   35.9320   31.9220   39.5210 H   0  0  0  0  0  0  0  0  0  0  0  0
   35.6180   30.2790   37.4950 H   0  0  0  0  0  0  0  0  0  0  0  0
   36.1040   28.9100   38.6090 H   0  0  0  0  0  0  0  0  0  0  0  0
   38.3180   30.0960   39.2100 H   0  0  0  0  0  0  0  0  0  0  0  0
   37.9410   31.6430   37.8500 O   0  0  0  0  0  0  0  0  0  0  0  0
   40.2400   30.5470   38.4150 O   0  0  0  0  0  0  0  0  0  0  0  0
   39.5850   31.8710   38.1180 P   0  0  1  0  0  0  0  0  0  0  0  0
   40.3290   32.5020   36.7060 O   0  0  0  0  0  0  0  0  0  0  0  0
   40.2870   31.8780   35.9510 H   0  0  0  0  0  0  0  0  0  0  0  0
   39.9430   32.9260   39.3520 O   0  0  0  0  0  0  0  0  0  0  0  0
   38.9270   33.6860   39.9170 C   0  0  0  0  0  0  0  0  0  0  0  0
   38.3260   34.4120   39.4130 H   0  0  0  0  0  0  0  0  0  0  0  0
   38.8930   33.3160   41.1390 O   0  0  0  0  0  0  0  0  0  0  0  0
  1 16  1  0  0  0  0
  1  6  1  1  0  0  0
  2  8  1  0  0  0  0
  2  1  1  0  0  0  0
  3  4  1  0  0  0  0
  3  2  1  0  0  0  0
  3 10  1  0  0  0  0
  4  5  1  0  0  0  0
  4 11  1  1  0  0  0
  5 12  1  0  0  0  0
  5  1  1  0  0  0  0
  7  2  1  0  0  0  0
  9  3  1  0  0  0  0
 13  5  1  0  0  0  0
 14 20  1  0  0  0  0
 15 21  1  0  0  0  0
 15 14  2  0  0  0  0
 16 15  1  0  0  0  0
 17 16  2  0  0  0  0
 17 18  1  0  0  0  0
 18 19  2  0  0  0  0
 19 14  1  0  0  0  0
 22 18  1  0  0  0  0
 23 26  1  6  0  0  0
 23  4  1  0  0  0  0
 24 28  1  0  0  0  0
 24 25  1  0  0  0  0
 24 23  1  0  0  0  0
 25 29  1  1  0  0  0
 25 23  1  0  0  0  0
 27 24  1  0  0  0  0
 30 32  1  0  0  0  0
 30 25  1  0  0  0  0
 32 31  2  1  0  0  0
 32 35  1  0  0  0  0
 33 32  1  0  0  0  0
 34 33  1  0  0  0  0
 35 36  1  0  0  0  0
 36 38  2  0  0  0  0
 37 36  1  0  0  0  0
M  END
>  <minimizedAffinity>
-5.3088026

$$$$

 OpenBabel03252507563D

 38 40  0  0  1  0  0  0  0  0999 V2000
   36.6400   28.4830   41.9540 C   0  0  2  0  0  0  0  0  0  0  0  0
   36.1000   28.1270   40.5680 C   0  0  0  0  0  0  0  0  0  0  0  0
   35.2980   29.4210   40.3180 C   0  0  0  0  0  0  0  0  0  0  0  0
   36.1240   30.5090   40.9300 C   0  0  1  0  0  0  0  0  0  0  0  0
   37.2490   29.8240   41.6440 C   0  0  0  0  0  0  0  0  0  0  0  0
   35.7860   28.6160   42.6420 H   0  0  0  0  0  0  0  0  0  0  0  0
   36.9340   28.1240   39.8610 H   0  0  0  0  0  0  0  0  0  0  0  0
   35.4620   27.2470   40.5800 H   0  0  0  0  0  0  0  0  0  0  0  0
   35.1880   29.5700   39.2210 H   0  0  0  0  0  0  0  0  0  0  0  0
   34.3340   29.2550   40.8300 H   0  0  0  0  0  0  0  0  0  0  0  0
   35.4640   31.0780   41.6340 H   0  0  0  0  0  0  0  0  0  0  0  0
   37.4360   30.3750   42.5990 H   0  0  0  0  0  0  0  0  0  0  0  0
   38.1590   29.7480   41.0400 H   0  0  0  0  0  0  0  0  0  0  0  0
   39.4060   26.7430   43.8230 C   0  0  0  0  0  0  0  0  0  0  0  0
   38.4830   27.7500   43.4990 C   0  0  0  0  0  0  0  0  0  0  0  0
   37.6430   27.4960   42.4230 C   0  0  0  0  0  0  0  0  0  0  0  0
   37.7310   26.2890   41.7120 N   0  0  0  0  0  0  0  0  0  0  0  0
   38.6470   25.3580   42.0790 C   0  0  0  0  0  0  0  0  0  0  0  0
   39.4780   25.5920   43.1310 N   0  0  0  0  0  0  0  0  0  0  0  0
   40.0700   26.9160   44.6560 H   0  0  0  0  0  0  0  0  0  0  0  0
   38.3930   28.6880   44.0280 H   0  0  0  0  0  0  0  0  0  0  0  0
   38.6120   24.4790   41.4540 H   0  0  0  0  0  0  0  0  0  0  0  0
   36.7390   31.4660   39.9350 C   0  0  2  0  0  0  0  0  0  0  0  0
   37.0160   30.9250   38.6140 C   0  0  0  0  0  0  0  0  0  0  0  0
   38.1340   31.3410   39.5140 C   0  0  1  0  0  0  0  0  0  0  0  0
   36.3260   32.4900   39.9980 H   0  0  0  0  0  0  0  0  0  0  0  0
   36.8610   31.4370   37.6520 H   0  0  0  0  0  0  0  0  0  0  0  0
   36.9580   29.8050   38.4740 H   0  0  0  0  0  0  0  0  0  0  0  0
   38.7340   30.6730   40.1360 H   0  0  0  0  0  0  0  0  0  0  0  0
   38.8220   32.5340   39.1790 O   0  0  0  0  0  0  0  0  0  0  0  0
   40.9330   33.7520   40.1100 O   0  0  0  0  0  0  0  0  0  0  0  0
   39.6730   33.0450   40.5360 P   0  0  1  0  0  0  0  0  0  0  0  0
   38.7350   34.1700   41.4300 O   0  0  0  0  0  0  0  0  0  0  0  0
   38.5580   34.9920   40.9250 H   0  0  0  0  0  0  0  0  0  0  0  0
   40.0820   31.8270   41.5930 O   0  0  0  0  0  0  0  0  0  0  0  0
   41.3500   31.2630   41.5270 C   0  0  0  0  0  0  0  0  0  0  0  0
   41.7270   30.6480   40.7370 H   0  0  0  0  0  0  0  0  0  0  0  0
   41.9260   31.6440   42.6010 O   0  0  0  0  0  0  0  0  0  0  0  0
  1 16  1  0  0  0  0
  1  6  1  1  0  0  0
  2  8  1  0  0  0  0
  2  1  1  0  0  0  0
  3  2  1  0  0  0  0
  3 10  1  0  0  0  0
  3  4  1  0  0  0  0
  4 11  1  1  0  0  0
  4  5  1  0  0  0  0
  5  1  1  0  0  0  0
  5 12  1  0  0  0  0
  7  2  1  0  0  0  0
  9  3  1  0  0  0  0
 13  5  1  0  0  0  0
 14 20  1  0  0  0  0
 15 14  1  0  0  0  0
 15 21  1  0  0  0  0
 16 15  2  0  0  0  0
 17 18  2  0  0  0  0
 17 16  1  0  0  0  0
 18 19  1  0  0  0  0
 19 14  2  0  0  0  0
 22 18  1  0  0  0  0
 23 26  1  1  0  0  0
 23  4  1  0  0  0  0
 24 25  1  0  0  0  0
 24 23  1  0  0  0  0
 25 23  1  0  0  0  0
 25 29  1  1  0  0  0
 27 24  1  0  0  0  0
 28 24  1  0  0  0  0
 30 25  1  0  0  0  0
 30 32  1  0  0  0  0
 32 31  2  6  0  0  0
 32 33  1  0  0  0  0
 32 35  1  0  0  0  0
 34 33  1  0  0  0  0
 36 35  1  0  0  0  0
 36 38  2  0  0  0  0
 37 36  1  0  0  0  0
M  END
>  <minimizedAffinity>
-5.29415607

$$$$

 OpenBabel03252507563D

 38 40  0  0  1  0  0  0  0  0999 V2000
   38.0600   26.3740   42.5050 C   0  0  2  0  0  0  0  0  0  0  0  0
   36.9610   27.4300   42.6310 C   0  0  0  0  0  0  0  0  0  0  0  0
   37.7780   28.4910   43.3980 C   0  0  0  0  0  0  0  0  0  0  0  0
   39.1580   28.4010   42.8240 C   0  0  1  0  0  0  0  0  0  0  0  0
   39.1480   27.2200   41.9020 C   0  0  0  0  0  0  0  0  0  0  0  0
   38.3600   26.0550   43.5200 H   0  0  0  0  0  0  0  0  0  0  0  0
   36.7580   27.8390   41.6370 H   0  0  0  0  0  0  0  0  0  0  0  0
   36.1060   27.0800   43.2030 H   0  0  0  0  0  0  0  0  0  0  0  0
   37.3320   29.4920   43.2140 H   0  0  0  0  0  0  0  0  0  0  0  0
   37.7170   28.1780   44.4550 H   0  0  0  0  0  0  0  0  0  0  0  0
   39.8700   28.2620   43.6780 H   0  0  0  0  0  0  0  0  0  0  0  0
   40.1280   26.6930   42.0090 H   0  0  0  0  0  0  0  0  0  0  0  0
   38.9500   27.4890   40.8600 H   0  0  0  0  0  0  0  0  0  0  0  0
   37.7040   23.0140   40.8450 C   0  0  0  0  0  0  0  0  0  0  0  0
   38.1540   23.9720   41.7670 C   0  0  0  0  0  0  0  0  0  0  0  0
   37.6490   25.2570   41.6180 C   0  0  0  0  0  0  0  0  0  0  0  0
   36.7380   25.5580   40.5950 N   0  0  0  0  0  0  0  0  0  0  0  0
   36.3450   24.5820   39.7370 C   0  0  0  0  0  0  0  0  0  0  0  0
   36.8310   23.3180   39.8680 N   0  0  0  0  0  0  0  0  0  0  0  0
   38.0820   22.0060   40.9390 H   0  0  0  0  0  0  0  0  0  0  0  0
   38.8540   23.7690   42.5650 H   0  0  0  0  0  0  0  0  0  0  0  0
   35.6450   24.9430   38.9990 H   0  0  0  0  0  0  0  0  0  0  0  0
   39.5790   29.6040   42.0100 C   0  0  2  0  0  0  0  0  0  0  0  0
   39.8460   30.8210   42.7580 C   0  0  0  0  0  0  0  0  0  0  0  0
   38.6870   30.7470   41.8170 C   0  0  1  0  0  0  0  0  0  0  0  0
   40.2560   29.3500   41.1740 H   0  0  0  0  0  0  0  0  0  0  0  0
   40.6630   31.5350   42.5730 H   0  0  0  0  0  0  0  0  0  0  0  0
   39.5300   30.8610   43.8420 H   0  0  0  0  0  0  0  0  0  0  0  0
   37.6490   30.5610   42.0980 H   0  0  0  0  0  0  0  0  0  0  0  0
   38.8000   31.4600   40.5970 O   0  0  0  0  0  0  0  0  0  0  0  0
   36.2340   31.1240   40.9300 O   0  0  0  0  0  0  0  0  0  0  0  0
   37.2490   31.8030   40.0470 P   0  0  1  0  0  0  0  0  0  0  0  0
   36.9530   33.4910   40.1360 O   0  0  0  0  0  0  0  0  0  0  0  0
   36.9670   33.8250   41.0590 H   0  0  0  0  0  0  0  0  0  0  0  0
   36.9610   31.3560   38.4720 O   0  0  0  0  0  0  0  0  0  0  0  0
   36.9140   30.0080   38.1420 C   0  0  0  0  0  0  0  0  0  0  0  0
   36.0550   29.3740   38.1990 H   0  0  0  0  0  0  0  0  0  0  0  0
   38.1030   29.7270   37.7700 O   0  0  0  0  0  0  0  0  0  0  0  0
  1  2  1  0  0  0  0
  1  6  1  1  0  0  0
  2  8  1  0  0  0  0
  2  3  1  0  0  0  0
  3 10  1  0  0  0  0
  4  3  1  0  0  0  0
  4 11  1  1  0  0  0
  5 12  1  0  0  0  0
  5  1  1  0  0  0  0
  5  4  1  0  0  0  0
  7  2  1  0  0  0  0
  9  3  1  0  0  0  0
 13  5  1  0  0  0  0
 14 20  1  0  0  0  0
 14 15  1  0  0  0  0
 15 21  1  0  0  0  0
 16 15  2  0  0  0  0
 16  1  1  0  0  0  0
 17 16  1  0  0  0  0
 18 19  1  0  0  0  0
 18 17  2  0  0  0  0
 19 14  2  0  0  0  0
 22 18  1  0  0  0  0
 23 26  1  6  0  0  0
 23 24  1  0  0  0  0
 23  4  1  0  0  0  0
 24 28  1  0  0  0  0
 25 23  1  0  0  0  0
 25 29  1  1  0  0  0
 25 24  1  0  0  0  0
 27 24  1  0  0  0  0
 30 25  1  0  0  0  0
 32 33  1  0  0  0  0
 32 30  1  0  0  0  0
 32 31  2  1  0  0  0
 33 34  1  0  0  0  0
 35 32  1  0  0  0  0
 36 37  1  0  0  0  0
 36 35  1  0  0  0  0
 38 36  2  0  0  0  0
M  END
>  <minimizedAffinity>
-5.15801287

$$$$

 OpenBabel03252507563D

 38 40  0  0  1  0  0  0  0  0999 V2000
   36.9500   29.1910   41.9660 C   0  0  2  0  0  0  0  0  0  0  0  0
   37.7610   28.7880   43.1980 C   0  0  0  0  0  0  0  0  0  0  0  0
   37.1400   27.3910   43.4090 C   0  0  0  0  0  0  0  0  0  0  0  0
   36.9010   26.8650   42.0270 C   0  0  1  0  0  0  0  0  0  0  0  0
   37.2140   27.9940   41.0930 C   0  0  0  0  0  0  0  0  0  0  0  0
   35.8800   29.2180   42.2420 H   0  0  0  0  0  0  0  0  0  0  0  0
   38.8010   28.6340   42.8940 H   0  0  0  0  0  0  0  0  0  0  0  0
   37.5890   29.4440   44.0480 H   0  0  0  0  0  0  0  0  0  0  0  0
   37.8650   26.7540   43.9610 H   0  0  0  0  0  0  0  0  0  0  0  0
   36.2130   27.5820   43.9770 H   0  0  0  0  0  0  0  0  0  0  0  0
   35.8270   26.5540   41.9660 H   0  0  0  0  0  0  0  0  0  0  0  0
   36.4660   27.9700   40.2630 H   0  0  0  0  0  0  0  0  0  0  0  0
   38.2390   27.9650   40.7110 H   0  0  0  0  0  0  0  0  0  0  0  0
   37.2620   32.4060   40.0310 C   0  0  0  0  0  0  0  0  0  0  0  0
   36.6570   31.2510   40.5540 C   0  0  0  0  0  0  0  0  0  0  0  0
   37.4510   30.4540   41.3680 C   0  0  0  0  0  0  0  0  0  0  0  0
   38.7820   30.8040   41.6400 N   0  0  0  0  0  0  0  0  0  0  0  0
   39.3030   31.9340   41.1000 C   0  0  0  0  0  0  0  0  0  0  0  0
   38.5390   32.7260   40.3000 N   0  0  0  0  0  0  0  0  0  0  0  0
   36.6660   33.0430   39.3950 H   0  0  0  0  0  0  0  0  0  0  0  0
   35.6350   30.9580   40.3630 H   0  0  0  0  0  0  0  0  0  0  0  0
   40.3330   32.0880   41.3850 H   0  0  0  0  0  0  0  0  0  0  0  0
   37.7840   25.7010   41.6380 C   0  0  2  0  0  0  0  0  0  0  0  0
   37.2970   24.3800   41.9970 C   0  0  0  0  0  0  0  0  0  0  0  0
   38.5280   24.9360   42.6380 C   0  0  1  0  0  0  0  0  0  0  0  0
   38.2600   25.8260   40.6470 H   0  0  0  0  0  0  0  0  0  0  0  0
   37.3580   23.4710   41.3800 H   0  0  0  0  0  0  0  0  0  0  0  0
   36.4230   24.3100   42.7110 H   0  0  0  0  0  0  0  0  0  0  0  0
   38.5760   25.4070   43.6210 H   0  0  0  0  0  0  0  0  0  0  0  0
   39.7690   24.3800   42.2400 O   0  0  0  0  0  0  0  0  0  0  0  0
   40.5570   26.2650   43.8630 O   0  0  0  0  0  0  0  0  0  0  0  0
   40.9850   25.4620   42.6630 P   0  0  1  0  0  0  0  0  0  0  0  0
   42.4060   24.6070   43.1020 O   0  0  0  0  0  0  0  0  0  0  0  0
   42.2780   24.0550   43.9030 H   0  0  0  0  0  0  0  0  0  0  0  0
   41.4230   26.5140   41.4520 O   0  0  0  0  0  0  0  0  0  0  0  0
   40.8950   27.7990   41.4400 C   0  0  0  0  0  0  0  0  0  0  0  0
   40.7540   28.4320   42.2900 H   0  0  0  0  0  0  0  0  0  0  0  0
   40.6310   28.0260   40.2110 O   0  0  0  0  0  0  0  0  0  0  0  0
  1  6  1  1  0  0  0
  1  2  1  0  0  0  0
  2  3  1  0  0  0  0
  2  8  1  0  0  0  0
  3  9  1  0  0  0  0
  3 10  1  0  0  0  0
  4 11  1  6  0  0  0
  4  3  1  0  0  0  0
  5  1  1  0  0  0  0
  5  4  1  0  0  0  0
  7  2  1  0  0  0  0
 12  5  1  0  0  0  0
 13  5  1  0  0  0  0
 14 19  2  0  0  0  0
 14 15  1  0  0  0  0
 15 16  2  0  0  0  0
 16 17  1  0  0  0  0
 16  1  1  0  0  0  0
 18 22  1  0  0  0  0
 18 17  2  0  0  0  0
 19 18  1  0  0  0  0
 20 14  1  0  0  0  0
 21 15  1  0  0  0  0
 23 26  1  6  0  0  0
 23 24  1  0  0  0  0
 23  4  1  0  0  0  0
 23 25  1  0  0  0  0
 24 25  1  0  0  0  0
 24 28  1  0  0  0  0
 25 29  1  1  0  0  0
 27 24  1  0  0  0  0
 30 25  1  0  0  0  0
 30 32  1  0  0  0  0
 32 33  1  0  0  0  0
 32 31  2  1  0  0  0
 33 34  1  0  0  0  0
 35 32  1  0  0  0  0
 36 35  1  0  0  0  0
 36 37  1  0  0  0  0
 38 36  2  0  0  0  0
M  END
>  <minimizedAffinity>
-5.0838294

$$$$

 OpenBabel03252507563D

 38 40  0  0  1  0  0  0  0  0999 V2000
   36.6990   28.6740   41.8000 C   0  0  2  0  0  0  0  0  0  0  0  0
   36.0590   28.3270   40.4550 C   0  0  0  0  0  0  0  0  0  0  0  0
   35.3620   29.6800   40.2010 C   0  0  0  0  0  0  0  0  0  0  0  0
   36.3110   30.7080   40.7360 C   0  0  1  0  0  0  0  0  0  0  0  0
   37.4070   29.9450   41.4170 C   0  0  0  0  0  0  0  0  0  0  0  0
   35.8960   28.9020   42.5240 H   0  0  0  0  0  0  0  0  0  0  0  0
   36.8530   28.2300   39.7080 H   0  0  0  0  0  0  0  0  0  0  0  0
   35.3480   27.5080   40.5270 H   0  0  0  0  0  0  0  0  0  0  0  0
   35.2100   29.8070   39.1070 H   0  0  0  0  0  0  0  0  0  0  0  0
   34.4150   29.6150   40.7640 H   0  0  0  0  0  0  0  0  0  0  0  0
   35.7400   31.3520   41.4530 H   0  0  0  0  0  0  0  0  0  0  0  0
   37.6900   30.5040   42.3430 H   0  0  0  0  0  0  0  0  0  0  0  0
   38.2740   29.7710   40.7730 H   0  0  0  0  0  0  0  0  0  0  0  0
   38.4050   25.3760   42.4230 C   0  0  0  0  0  0  0  0  0  0  0  0
   37.4640   26.2810   41.9060 C   0  0  0  0  0  0  0  0  0  0  0  0
   37.6350   27.6140   42.2520 C   0  0  0  0  0  0  0  0  0  0  0  0
   38.7000   28.0130   43.0740 N   0  0  0  0  0  0  0  0  0  0  0  0
   39.5730   27.0850   43.5390 C   0  0  0  0  0  0  0  0  0  0  0  0
   39.4200   25.7740   43.2100 N   0  0  0  0  0  0  0  0  0  0  0  0
   38.2940   24.3320   42.1690 H   0  0  0  0  0  0  0  0  0  0  0  0
   36.6350   26.0020   41.2710 H   0  0  0  0  0  0  0  0  0  0  0  0
   40.3430   27.5200   44.1580 H   0  0  0  0  0  0  0  0  0  0  0  0
   36.9560   31.5770   39.6810 C   0  0  2  0  0  0  0  0  0  0  0  0
   37.4120   30.8940   38.4810 C   0  0  0  0  0  0  0  0  0  0  0  0
   38.3930   31.5210   39.4180 C   0  0  1  0  0  0  0  0  0  0  0  0
   36.4630   32.5590   39.5620 H   0  0  0  0  0  0  0  0  0  0  0  0
   37.3230   31.2610   37.4470 H   0  0  0  0  0  0  0  0  0  0  0  0
   37.4530   29.7650   38.4940 H   0  0  0  0  0  0  0  0  0  0  0  0
   38.9720   30.9970   40.1810 H   0  0  0  0  0  0  0  0  0  0  0  0
   39.0220   32.7170   38.9880 O   0  0  0  0  0  0  0  0  0  0  0  0
   38.5380   34.5360   40.7940 O   0  0  0  0  0  0  0  0  0  0  0  0
   39.5730   33.5360   40.3490 P   0  0  1  0  0  0  0  0  0  0  0  0
   39.8080   32.4350   41.6430 O   0  0  0  0  0  0  0  0  0  0  0  0
   38.9710   32.0140   41.9320 H   0  0  0  0  0  0  0  0  0  0  0  0
   41.0180   34.3310   40.1360 O   0  0  0  0  0  0  0  0  0  0  0  0
   42.1740   33.8120   40.7050 C   0  0  0  0  0  0  0  0  0  0  0  0
   42.7900   34.2930   41.4340 H   0  0  0  0  0  0  0  0  0  0  0  0
   42.3110   32.6650   40.1600 O   0  0  0  0  0  0  0  0  0  0  0  0
  1 16  1  0  0  0  0
  1  6  1  1  0  0  0
  2  8  1  0  0  0  0
  2  1  1  0  0  0  0
  3  2  1  0  0  0  0
  3  4  1  0  0  0  0
  3 10  1  0  0  0  0
  4  5  1  0  0  0  0
  4 11  1  1  0  0  0
  5  1  1  0  0  0  0
  5 12  1  0  0  0  0
  7  2  1  0  0  0  0
  9  3  1  0  0  0  0
 13  5  1  0  0  0  0
 14 19  1  0  0  0  0
 15 16  1  0  0  0  0
 15 14  2  0  0  0  0
 16 17  2  0  0  0  0
 17 18  1  0  0  0  0
 18 22  1  0  0  0  0
 19 18  2  0  0  0  0
 20 14  1  0  0  0  0
 21 15  1  0  0  0  0
 23 26  1  6  0  0  0
 23  4  1  0  0  0  0
 24 28  1  0  0  0  0
 24 25  1  0  0  0  0
 24 23  1  0  0  0  0
 25 23  1  0  0  0  0
 25 29  1  1  0  0  0
 27 24  1  0  0  0  0
 30 25  1  0  0  0  0
 30 32  1  0  0  0  0
 32 31  2  1  0  0  0
 32 33  1  0  0  0  0
 33 34  1  0  0  0  0
 35 32  1  0  0  0  0
 35 36  1  0  0  0  0
 36 37  1  0  0  0  0
 38 36  2  0  0  0  0
M  END
>  <minimizedAffinity>
-5.07475376

$$$$

 OpenBabel03252507563D

 38 40  0  0  1  0  0  0  0  0999 V2000
   37.4460   30.5880   40.0450 C   0  0  2  0  0  0  0  0  0  0  0  0
   36.1820   30.7110   40.8970 C   0  0  0  0  0  0  0  0  0  0  0  0
   35.7910   29.2190   40.9060 C   0  0  0  0  0  0  0  0  0  0  0  0
   37.0920   28.4810   40.9690 C   0  0  1  0  0  0  0  0  0  0  0  0
   38.1640   29.5190   40.8220 C   0  0  0  0  0  0  0  0  0  0  0  0
   37.1650   30.1970   39.0510 H   0  0  0  0  0  0  0  0  0  0  0  0
   36.4750   30.9730   41.9180 H   0  0  0  0  0  0  0  0  0  0  0  0
   35.4200   31.3310   40.4300 H   0  0  0  0  0  0  0  0  0  0  0  0
   35.1710   29.0140   41.8060 H   0  0  0  0  0  0  0  0  0  0  0  0
   35.2420   29.0690   39.9600 H   0  0  0  0  0  0  0  0  0  0  0  0
   37.1030   27.7440   40.1260 H   0  0  0  0  0  0  0  0  0  0  0  0
   38.9770   29.0850   40.1900 H   0  0  0  0  0  0  0  0  0  0  0  0
   38.5510   29.8760   41.7820 H   0  0  0  0  0  0  0  0  0  0  0  0
   38.4080   34.2290   40.0370 C   0  0  0  0  0  0  0  0  0  0  0  0
   37.5800   33.0980   40.1260 C   0  0  0  0  0  0  0  0  0  0  0  0
   38.2030   31.8640   39.9990 C   0  0  0  0  0  0  0  0  0  0  0  0
   39.5890   31.7760   39.7950 N   0  0  0  0  0  0  0  0  0  0  0  0
   40.3300   32.9100   39.7180 C   0  0  0  0  0  0  0  0  0  0  0  0
   39.7340   34.1270   39.8400 N   0  0  0  0  0  0  0  0  0  0  0  0
   37.9480   35.2010   40.1330 H   0  0  0  0  0  0  0  0  0  0  0  0
   36.5110   33.1360   40.2830 H   0  0  0  0  0  0  0  0  0  0  0  0
   41.3780   32.7050   39.5590 H   0  0  0  0  0  0  0  0  0  0  0  0
   37.3420   27.7580   42.2730 C   0  0  2  0  0  0  0  0  0  0  0  0
   37.8350   28.5720   43.3710 C   0  0  0  0  0  0  0  0  0  0  0  0
   38.6970   27.5120   42.7640 C   0  0  1  0  0  0  0  0  0  0  0  0
   36.5790   26.9900   42.4990 H   0  0  0  0  0  0  0  0  0  0  0  0
   37.5310   28.5000   44.4270 H   0  0  0  0  0  0  0  0  0  0  0  0
   38.1970   29.6170   43.1390 H   0  0  0  0  0  0  0  0  0  0  0  0
   39.4820   27.6750   42.0240 H   0  0  0  0  0  0  0  0  0  0  0  0
   38.9070   26.3360   43.5280 O   0  0  0  0  0  0  0  0  0  0  0  0
   41.0420   25.5660   42.2400 O   0  0  0  0  0  0  0  0  0  0  0  0
   39.6140   25.1830   42.5290 P   0  0  1  0  0  0  0  0  0  0  0  0
   39.6440   23.6600   43.3190 O   0  0  0  0  0  0  0  0  0  0  0  0
   40.2070   23.6680   44.1220 H   0  0  0  0  0  0  0  0  0  0  0  0
   38.8270   24.9500   41.0830 O   0  0  0  0  0  0  0  0  0  0  0  0
   37.8720   23.9470   40.9790 C   0  0  0  0  0  0  0  0  0  0  0  0
   37.8780   23.1390   40.2770 H   0  0  0  0  0  0  0  0  0  0  0  0
   37.0200   24.2180   41.8910 O   0  0  0  0  0  0  0  0  0  0  0  0
  1  6  1  6  0  0  0
  1  5  1  0  0  0  0
  1  2  1  0  0  0  0
  2  3  1  0  0  0  0
  2  7  1  0  0  0  0
  3  4  1  0  0  0  0
  3  9  1  0  0  0  0
  4 11  1  6  0  0  0
  4 23  1  0  0  0  0
  5  4  1  0  0  0  0
  5 13  1  0  0  0  0
  8  2  1  0  0  0  0
 10  3  1  0  0  0  0
 12  5  1  0  0  0  0
 14 15  1  0  0  0  0
 14 20  1  0  0  0  0
 15 21  1  0  0  0  0
 16  1  1  0  0  0  0
 16 15  2  0  0  0  0
 17 16  1  0  0  0  0
 18 17  2  0  0  0  0
 18 19  1  0  0  0  0
 19 14  2  0  0  0  0
 22 18  1  0  0  0  0
 23 26  1  1  0  0  0
 23 25  1  0  0  0  0
 23 24  1  0  0  0  0
 24 27  1  0  0  0  0
 25 29  1  6  0  0  0
 25 24  1  0  0  0  0
 25 30  1  0  0  0  0
 28 24  1  0  0  0  0
 32 31  2  6  0  0  0
 32 33  1  0  0  0  0
 32 30  1  0  0  0  0
 33 34  1  0  0  0  0
 35 32  1  0  0  0  0
 36 35  1  0  0  0  0
 36 38  2  0  0  0  0
 37 36  1  0  0  0  0
M  END
>  <minimizedAffinity>
-5.06954908

$$$$

 OpenBabel03252507563D

 38 40  0  0  1  0  0  0  0  0999 V2000
   36.6390   27.8670   41.0880 C   0  0  2  0  0  0  0  0  0  0  0  0
   36.5700   28.1040   39.5790 C   0  0  0  0  0  0  0  0  0  0  0  0
   35.8910   29.4890   39.6170 C   0  0  0  0  0  0  0  0  0  0  0  0
   36.4790   30.1720   40.8130 C   0  0  1  0  0  0  0  0  0  0  0  0
   37.3170   29.1420   41.5090 C   0  0  0  0  0  0  0  0  0  0  0  0
   35.6100   27.8460   41.4890 H   0  0  0  0  0  0  0  0  0  0  0  0
   37.5870   28.2550   39.2050 H   0  0  0  0  0  0  0  0  0  0  0  0
   35.9610   27.3650   39.0650 H   0  0  0  0  0  0  0  0  0  0  0  0
   36.1380   30.0370   38.6810 H   0  0  0  0  0  0  0  0  0  0  0  0
   34.8150   29.2690   39.7170 H   0  0  0  0  0  0  0  0  0  0  0  0
   35.6290   30.5240   41.4520 H   0  0  0  0  0  0  0  0  0  0  0  0
   37.1890   29.2840   42.6100 H   0  0  0  0  0  0  0  0  0  0  0  0
   38.3720   29.1790   41.2190 H   0  0  0  0  0  0  0  0  0  0  0  0
   37.7250   24.4260   42.1650 C   0  0  0  0  0  0  0  0  0  0  0  0
   36.8520   25.4830   41.8610 C   0  0  0  0  0  0  0  0  0  0  0  0
   37.4390   26.6610   41.4180 C   0  0  0  0  0  0  0  0  0  0  0  0
   38.8320   26.7650   41.2880 N   0  0  0  0  0  0  0  0  0  0  0  0
   39.6170   25.7030   41.6000 C   0  0  0  0  0  0  0  0  0  0  0  0
   39.0580   24.5420   42.0360 N   0  0  0  0  0  0  0  0  0  0  0  0
   37.2930   23.4990   42.5120 H   0  0  0  0  0  0  0  0  0  0  0  0
   35.7760   25.4310   41.9520 H   0  0  0  0  0  0  0  0  0  0  0  0
   40.6660   25.9130   41.4570 H   0  0  0  0  0  0  0  0  0  0  0  0
   37.3820   31.3410   40.4870 C   0  0  2  0  0  0  0  0  0  0  0  0
   36.9500   32.1980   39.3960 C   0  0  0  0  0  0  0  0  0  0  0  0
   38.1880   31.3690   39.2680 C   0  0  1  0  0  0  0  0  0  0  0  0
   37.8140   31.8220   41.3840 H   0  0  0  0  0  0  0  0  0  0  0  0
   37.0150   33.2960   39.3620 H   0  0  0  0  0  0  0  0  0  0  0  0
   36.1090   31.8350   38.7340 H   0  0  0  0  0  0  0  0  0  0  0  0
   38.2610   30.4090   38.7540 H   0  0  0  0  0  0  0  0  0  0  0  0
   39.4290   32.0500   39.3240 O   0  0  0  0  0  0  0  0  0  0  0  0
   40.4350   30.2950   37.6770 O   0  0  0  0  0  0  0  0  0  0  0  0
   40.2430   31.7750   37.8790 P   0  0  1  0  0  0  0  0  0  0  0  0
   39.3100   32.3530   36.5600 O   0  0  0  0  0  0  0  0  0  0  0  0
   38.4620   31.8690   36.4620 H   0  0  0  0  0  0  0  0  0  0  0  0
   41.7260   32.5210   37.7700 O   0  0  0  0  0  0  0  0  0  0  0  0
   41.8490   33.8540   38.1370 C   0  0  0  0  0  0  0  0  0  0  0  0
   41.3540   34.3320   38.9560 H   0  0  0  0  0  0  0  0  0  0  0  0
   42.6650   34.3460   37.2880 O   0  0  0  0  0  0  0  0  0  0  0  0
  1 16  1  0  0  0  0
  1  6  1  1  0  0  0
  1  5  1  0  0  0  0
  2  3  1  0  0  0  0
  2  1  1  0  0  0  0
  3 10  1  0  0  0  0
  3  4  1  0  0  0  0
  4 11  1  1  0  0  0
  4  5  1  0  0  0  0
  5 12  1  0  0  0  0
  7  2  1  0  0  0  0
  8  2  1  0  0  0  0
  9  3  1  0  0  0  0
 13  5  1  0  0  0  0
 14 20  1  0  0  0  0
 15 21  1  0  0  0  0
 15 14  2  0  0  0  0
 16 15  1  0  0  0  0
 17 16  2  0  0  0  0
 17 18  1  0  0  0  0
 18 19  2  0  0  0  0
 19 14  1  0  0  0  0
 22 18  1  0  0  0  0
 23  4  1  0  0  0  0
 23 26  1  1  0  0  0
 24 23  1  0  0  0  0
 25 29  1  6  0  0  0
 25 30  1  0  0  0  0
 25 24  1  0  0  0  0
 25 23  1  0  0  0  0
 27 24  1  0  0  0  0
 28 24  1  0  0  0  0
 32 31  2  6  0  0  0
 32 30  1  0  0  0  0
 33 32  1  0  0  0  0
 34 33  1  0  0  0  0
 35 32  1  0  0  0  0
 35 36  1  0  0  0  0
 36 37  1  0  0  0  0
 38 36  2  0  0  0  0
M  END
>  <minimizedAffinity>
-4.90533733

$$$$

 OpenBabel03252507563D

 38 40  0  0  1  0  0  0  0  0999 V2000
   37.9800   26.6570   42.1910 C   0  0  2  0  0  0  0  0  0  0  0  0
   36.7940   27.0310   43.0820 C   0  0  0  0  0  0  0  0  0  0  0  0
   37.2220   28.4790   43.4000 C   0  0  0  0  0  0  0  0  0  0  0  0
   37.8510   28.9800   42.1370 C   0  0  1  0  0  0  0  0  0  0  0  0
   37.9270   27.8010   41.2150 C   0  0  0  0  0  0  0  0  0  0  0  0
   38.9060   26.7250   42.7900 H   0  0  0  0  0  0  0  0  0  0  0  0
   35.8980   27.0910   42.4580 H   0  0  0  0  0  0  0  0  0  0  0  0
   36.7320   26.4180   43.9770 H   0  0  0  0  0  0  0  0  0  0  0  0
   36.3190   29.0730   43.6600 H   0  0  0  0  0  0  0  0  0  0  0  0
   37.9320   28.3820   44.2400 H   0  0  0  0  0  0  0  0  0  0  0  0
   38.8660   29.3750   42.3990 H   0  0  0  0  0  0  0  0  0  0  0  0
   38.8960   27.8600   40.6620 H   0  0  0  0  0  0  0  0  0  0  0  0
   37.0770   27.7360   40.5290 H   0  0  0  0  0  0  0  0  0  0  0  0
   38.4130   23.1280   40.9520 C   0  0  0  0  0  0  0  0  0  0  0  0
   38.7100   24.3140   41.6420 C   0  0  0  0  0  0  0  0  0  0  0  0
   37.7800   25.3400   41.5370 C   0  0  0  0  0  0  0  0  0  0  0  0
   36.6130   25.1770   40.7760 N   0  0  0  0  0  0  0  0  0  0  0  0
   36.3880   24.0030   40.1330 C   0  0  0  0  0  0  0  0  0  0  0  0
   37.2900   22.9880   40.2260 N   0  0  0  0  0  0  0  0  0  0  0  0
   39.1200   22.3150   41.0180 H   0  0  0  0  0  0  0  0  0  0  0  0
   39.6000   24.4680   42.2350 H   0  0  0  0  0  0  0  0  0  0  0  0
   35.4590   24.0060   39.5850 H   0  0  0  0  0  0  0  0  0  0  0  0
   37.0620   30.0560   41.4260 C   0  0  2  0  0  0  0  0  0  0  0  0
   35.7900   29.6440   40.8540 C   0  0  0  0  0  0  0  0  0  0  0  0
   36.9200   30.0660   39.9710 C   0  0  1  0  0  0  0  0  0  0  0  0
   37.1080   31.0380   41.9320 H   0  0  0  0  0  0  0  0  0  0  0  0
   34.8520   30.2190   40.8640 H   0  0  0  0  0  0  0  0  0  0  0  0
   35.5700   28.5370   40.7860 H   0  0  0  0  0  0  0  0  0  0  0  0
   37.6040   29.3960   39.4460 H   0  0  0  0  0  0  0  0  0  0  0  0
   36.8070   31.3290   39.3370 O   0  0  0  0  0  0  0  0  0  0  0  0
   39.1060   30.4190   38.5080 O   0  0  0  0  0  0  0  0  0  0  0  0
   38.2700   31.6700   38.5840 P   0  0  1  0  0  0  0  0  0  0  0  0
   37.9940   32.1970   36.9750 O   0  0  0  0  0  0  0  0  0  0  0  0
   37.5870   31.5000   36.4180 H   0  0  0  0  0  0  0  0  0  0  0  0
   39.1660   32.8600   39.3240 O   0  0  0  0  0  0  0  0  0  0  0  0
   38.7480   33.3690   40.5460 C   0  0  0  0  0  0  0  0  0  0  0  0
   38.8050   32.8700   41.4910 H   0  0  0  0  0  0  0  0  0  0  0  0
   38.2980   34.5320   40.2720 O   0  0  0  0  0  0  0  0  0  0  0  0
  1  6  1  1  0  0  0
  1  2  1  0  0  0  0
  2  3  1  0  0  0  0
  2  8  1  0  0  0  0
  3  9  1  0  0  0  0
  3 10  1  0  0  0  0
  4 11  1  1  0  0  0
  4  3  1  0  0  0  0
  5  4  1  0  0  0  0
  5  1  1  0  0  0  0
  7  2  1  0  0  0  0
 12  5  1  0  0  0  0
 13  5  1  0  0  0  0
 14 20  1  0  0  0  0
 14 15  1  0  0  0  0
 15 21  1  0  0  0  0
 16 15  2  0  0  0  0
 16  1  1  0  0  0  0
 17 16  1  0  0  0  0
 18 19  1  0  0  0  0
 18 17  2  0  0  0  0
 19 14  2  0  0  0  0
 22 18  1  0  0  0  0
 23 26  1  1  0  0  0
 23  4  1  0  0  0  0
 24 27  1  0  0  0  0
 24 23  1  0  0  0  0
 25 29  1  6  0  0  0
 25 24  1  0  0  0  0
 25 23  1  0  0  0  0
 28 24  1  0  0  0  0
 30 25  1  0  0  0  0
 32 31  2  6  0  0  0
 32 35  1  0  0  0  0
 32 30  1  0  0  0  0
 33 32  1  0  0  0  0
 34 33  1  0  0  0  0
 35 36  1  0  0  0  0
 36 37  1  0  0  0  0
 38 36  2  0  0  0  0
M  END
>  <minimizedAffinity>
-4.86476517

$$$$
