
 OpenBabel03252502253D

 28 29  0  0  1  0  0  0  0  0999 V2000
   37.0250   30.7120   39.5520 N   0  0  0  0  0  0  0  0  0  0  0  0
   37.1460   29.9400   38.3190 C   0  0  0  0  0  0  0  0  0  0  0  0
   35.7080   29.6630   37.8960 C   0  0  0  0  0  0  0  0  0  0  0  0
   35.0090   28.8030   38.9210 C   0  0  0  0  0  0  0  0  0  0  0  0
   35.3650   29.1000   40.3340 C   0  0  0  0  0  0  0  0  0  0  0  0
   36.0490   30.4130   40.5510 C   0  0  1  0  0  0  0  0  0  0  0  0
   37.7340   29.0270   38.4350 H   0  0  0  0  0  0  0  0  0  0  0  0
   37.5820   30.6290   37.5580 H   0  0  0  0  0  0  0  0  0  0  0  0
   35.7620   29.0910   36.9430 H   0  0  0  0  0  0  0  0  0  0  0  0
   35.2110   30.6240   37.6990 H   0  0  0  0  0  0  0  0  0  0  0  0
   33.9210   28.8980   38.7290 H   0  0  0  0  0  0  0  0  0  0  0  0
   35.2680   27.7460   38.6970 H   0  0  0  0  0  0  0  0  0  0  0  0
   34.4640   29.0560   40.9810 H   0  0  0  0  0  0  0  0  0  0  0  0
   36.0530   28.3180   40.7540 H   0  0  0  0  0  0  0  0  0  0  0  0
   35.2800   31.2270   40.5510 H   0  0  0  0  0  0  0  0  0  0  0  0
   38.4020   34.1560   40.0350 C   0  0  0  0  0  0  0  0  0  0  0  0
   37.4490   33.1450   39.7920 C   0  0  0  0  0  0  0  0  0  0  0  0
   37.9110   31.8210   39.7900 C   0  0  0  0  0  0  0  0  0  0  0  0
   39.2400   31.5910   40.0210 N   0  0  0  0  0  0  0  0  0  0  0  0
   40.1100   32.6070   40.2500 C   0  0  0  0  0  0  0  0  0  0  0  0
   39.6790   33.8910   40.2550 N   0  0  0  0  0  0  0  0  0  0  0  0
   38.0710   35.1820   40.0420 H   0  0  0  0  0  0  0  0  0  0  0  0
   36.4050   33.3450   39.6110 H   0  0  0  0  0  0  0  0  0  0  0  0
   41.1640   32.3580   40.4280 H   0  0  0  0  0  0  0  0  0  0  0  0
   36.6560   30.3920   41.8110 O   0  0  0  0  0  0  0  0  0  0  0  0
   37.2560   29.2180   42.3010 C   0  0  0  0  0  0  0  0  0  0  0  0
   37.0140   28.3120   41.7370 H   0  0  0  0  0  0  0  0  0  0  0  0
   38.0010   29.2180   43.2960 O   0  0  0  0  0  0  0  0  0  0  0  0
  1 18  1  0  0  0  0
  1  6  1  0  0  0  0
  2  7  1  0  0  0  0
  2  1  1  0  0  0  0
  3  2  1  0  0  0  0
  3  4  1  0  0  0  0
  4  5  1  0  0  0  0
  5  6  1  0  0  0  0
  5 14  1  0  0  0  0
  5 13  1  0  0  0  0
  6 15  1  6  0  0  0
  6 25  1  0  0  0  0
  8  2  1  0  0  0  0
  9  3  1  0  0  0  0
 10  3  1  0  0  0  0
 11  4  1  0  0  0  0
 12  4  1  0  0  0  0
 16 22  1  0  0  0  0
 16 21  1  0  0  0  0
 17 16  2  0  0  0  0
 18 17  1  0  0  0  0
 18 19  2  0  0  0  0
 19 20  1  0  0  0  0
 20 21  2  0  0  0  0
 20 24  1  0  0  0  0
 23 17  1  0  0  0  0
 25 26  1  0  0  0  0
 26 28  2  0  0  0  0
 27 26  1  0  0  0  0
M  END
>  <minimizedAffinity>
-4.20805836

$$$$

 OpenBabel03252502253D

 28 29  0  0  1  0  0  0  0  0999 V2000
   38.0080   30.5620   41.4070 N   0  0  0  0  0  0  0  0  0  0  0  0
   36.6730   31.0170   41.0300 C   0  0  0  0  0  0  0  0  0  0  0  0
   36.8810   31.7770   39.7240 C   0  0  0  0  0  0  0  0  0  0  0  0
   37.7460   32.9940   39.9490 C   0  0  0  0  0  0  0  0  0  0  0  0
   38.8490   32.8040   40.9280 C   0  0  0  0  0  0  0  0  0  0  0  0
   39.1690   31.3800   41.2520 C   0  0  1  0  0  0  0  0  0  0  0  0
   36.1900   31.6240   41.7970 H   0  0  0  0  0  0  0  0  0  0  0  0
   36.0860   30.1010   40.7840 H   0  0  0  0  0  0  0  0  0  0  0  0
   35.8760   32.1210   39.3950 H   0  0  0  0  0  0  0  0  0  0  0  0
   37.2740   31.0760   38.9730 H   0  0  0  0  0  0  0  0  0  0  0  0
   38.1120   33.3130   38.9530 H   0  0  0  0  0  0  0  0  0  0  0  0
   37.0800   33.8090   40.3060 H   0  0  0  0  0  0  0  0  0  0  0  0
   39.7740   33.3070   40.5750 H   0  0  0  0  0  0  0  0  0  0  0  0
   38.6140   33.3020   41.9070 H   0  0  0  0  0  0  0  0  0  0  0  0
   39.7960   30.9520   40.4300 H   0  0  0  0  0  0  0  0  0  0  0  0
   37.8850   27.5710   43.6500 C   0  0  0  0  0  0  0  0  0  0  0  0
   37.6530   28.8890   43.2050 C   0  0  0  0  0  0  0  0  0  0  0  0
   38.1840   29.2430   41.9570 C   0  0  0  0  0  0  0  0  0  0  0  0
   38.8850   28.3020   41.2520 N   0  0  0  0  0  0  0  0  0  0  0  0
   39.0740   27.0470   41.7320 C   0  0  0  0  0  0  0  0  0  0  0  0
   38.5680   26.6900   42.9370 N   0  0  0  0  0  0  0  0  0  0  0  0
   37.4870   27.2740   44.6070 H   0  0  0  0  0  0  0  0  0  0  0  0
   37.0990   29.6180   43.7740 H   0  0  0  0  0  0  0  0  0  0  0  0
   39.6460   26.3380   41.1200 H   0  0  0  0  0  0  0  0  0  0  0  0
   39.9230   31.3530   42.4300 O   0  0  0  0  0  0  0  0  0  0  0  0
   41.3270   31.2770   42.3820 C   0  0  0  0  0  0  0  0  0  0  0  0
   41.7460   31.1890   41.3760 H   0  0  0  0  0  0  0  0  0  0  0  0
   42.0290   31.3080   43.4080 O   0  0  0  0  0  0  0  0  0  0  0  0
  1 18  1  0  0  0  0
  2  1  1  0  0  0  0
  2  7  1  0  0  0  0
  3  4  1  0  0  0  0
  3  2  1  0  0  0  0
  4 12  1  0  0  0  0
  4  5  1  0  0  0  0
  5  6  1  0  0  0  0
  5 14  1  0  0  0  0
  6 15  1  6  0  0  0
  6  1  1  0  0  0  0
  6 25  1  0  0  0  0
  8  2  1  0  0  0  0
  9  3  1  0  0  0  0
 10  3  1  0  0  0  0
 11  4  1  0  0  0  0
 13  5  1  0  0  0  0
 16 22  1  0  0  0  0
 17 16  1  0  0  0  0
 17 23  1  0  0  0  0
 18 17  2  0  0  0  0
 19 20  2  0  0  0  0
 19 18  1  0  0  0  0
 20 21  1  0  0  0  0
 21 16  2  0  0  0  0
 24 20  1  0  0  0  0
 26 25  1  0  0  0  0
 26 28  2  0  0  0  0
 27 26  1  0  0  0  0
M  END
>  <minimizedAffinity>
-4.02730036

$$$$

 OpenBabel03252502253D

 28 29  0  0  1  0  0  0  0  0999 V2000
   37.2990   27.2690   41.0310 N   0  0  0  0  0  0  0  0  0  0  0  0
   37.6020   26.4650   39.8510 C   0  0  0  0  0  0  0  0  0  0  0  0
   36.6170   25.3030   39.9140 C   0  0  0  0  0  0  0  0  0  0  0  0
   36.8730   24.4550   41.1370 C   0  0  0  0  0  0  0  0  0  0  0  0
   37.2650   25.2150   42.3540 C   0  0  0  0  0  0  0  0  0  0  0  0
   36.9890   26.6840   42.2980 C   0  0  1  0  0  0  0  0  0  0  0  0
   38.6410   26.1340   39.8070 H   0  0  0  0  0  0  0  0  0  0  0  0
   37.3180   27.0840   38.9680 H   0  0  0  0  0  0  0  0  0  0  0  0
   36.8060   24.6780   39.0130 H   0  0  0  0  0  0  0  0  0  0  0  0
   35.5960   25.7080   39.8510 H   0  0  0  0  0  0  0  0  0  0  0  0
   35.9640   23.8410   41.2950 H   0  0  0  0  0  0  0  0  0  0  0  0
   37.6840   23.7410   40.8790 H   0  0  0  0  0  0  0  0  0  0  0  0
   36.7700   24.7930   43.2530 H   0  0  0  0  0  0  0  0  0  0  0  0
   38.3640   25.1120   42.5610 H   0  0  0  0  0  0  0  0  0  0  0  0
   35.9040   26.8580   42.5120 H   0  0  0  0  0  0  0  0  0  0  0  0
   36.2450   30.8550   40.9180 C   0  0  0  0  0  0  0  0  0  0  0  0
   36.1250   29.4540   41.0220 C   0  0  0  0  0  0  0  0  0  0  0  0
   37.3070   28.7050   40.9390 C   0  0  0  0  0  0  0  0  0  0  0  0
   38.4920   29.3680   40.7650 N   0  0  0  0  0  0  0  0  0  0  0  0
   38.5440   30.7200   40.6730 C   0  0  0  0  0  0  0  0  0  0  0  0
   37.4110   31.4580   40.7510 N   0  0  0  0  0  0  0  0  0  0  0  0
   35.3510   31.4540   40.9790 H   0  0  0  0  0  0  0  0  0  0  0  0
   35.1830   28.9480   41.1590 H   0  0  0  0  0  0  0  0  0  0  0  0
   39.5250   31.1940   40.5330 H   0  0  0  0  0  0  0  0  0  0  0  0
   37.7340   27.3120   43.3010 O   0  0  0  0  0  0  0  0  0  0  0  0
   39.0450   26.8920   43.5930 C   0  0  0  0  0  0  0  0  0  0  0  0
   39.1120   25.9210   44.0920 H   0  0  0  0  0  0  0  0  0  0  0  0
   40.0420   27.5760   43.3040 O   0  0  0  0  0  0  0  0  0  0  0  0
  1  6  1  0  0  0  0
  2  3  1  0  0  0  0
  2  1  1  0  0  0  0
  3  4  1  0  0  0  0
  4 11  1  0  0  0  0
  4  5  1  0  0  0  0
  5 14  1  0  0  0  0
  5 13  1  0  0  0  0
  6  5  1  0  0  0  0
  6 15  1  1  0  0  0
  6 25  1  0  0  0  0
  7  2  1  0  0  0  0
  8  2  1  0  0  0  0
  9  3  1  0  0  0  0
 10  3  1  0  0  0  0
 12  4  1  0  0  0  0
 16 22  1  0  0  0  0
 16 17  1  0  0  0  0
 17 23  1  0  0  0  0
 18 17  2  0  0  0  0
 18  1  1  0  0  0  0
 19 18  1  0  0  0  0
 20 21  1  0  0  0  0
 20 19  2  0  0  0  0
 21 16  2  0  0  0  0
 24 20  1  0  0  0  0
 25 26  1  0  0  0  0
 26 27  1  0  0  0  0
 28 26  2  0  0  0  0
M  END
>  <minimizedAffinity>
-3.93948317

$$$$

 OpenBabel03252502253D

 28 29  0  0  1  0  0  0  0  0999 V2000
   36.8570   28.3410   40.9290 N   0  0  0  0  0  0  0  0  0  0  0  0
   37.0520   27.0300   41.5420 C   0  0  0  0  0  0  0  0  0  0  0  0
   36.6530   27.2250   43.0010 C   0  0  0  0  0  0  0  0  0  0  0  0
   37.5820   28.2030   43.6800 C   0  0  0  0  0  0  0  0  0  0  0  0
   38.0200   29.3420   42.8290 C   0  0  0  0  0  0  0  0  0  0  0  0
   37.2070   29.5570   41.5920 C   0  0  1  0  0  0  0  0  0  0  0  0
   38.0680   26.6470   41.4320 H   0  0  0  0  0  0  0  0  0  0  0  0
   36.2930   26.3530   41.0850 H   0  0  0  0  0  0  0  0  0  0  0  0
   36.7690   26.2350   43.4960 H   0  0  0  0  0  0  0  0  0  0  0  0
   35.5910   27.5110   43.0360 H   0  0  0  0  0  0  0  0  0  0  0  0
   37.0720   28.5360   44.6060 H   0  0  0  0  0  0  0  0  0  0  0  0
   38.4760   27.6330   44.0110 H   0  0  0  0  0  0  0  0  0  0  0  0
   38.0320   30.2840   43.4170 H   0  0  0  0  0  0  0  0  0  0  0  0
   39.0810   29.2090   42.4870 H   0  0  0  0  0  0  0  0  0  0  0  0
   36.2640   30.0950   41.8660 H   0  0  0  0  0  0  0  0  0  0  0  0
   34.5300   28.9460   38.0640 C   0  0  0  0  0  0  0  0  0  0  0  0
   34.9850   28.8950   39.3980 C   0  0  0  0  0  0  0  0  0  0  0  0
   36.2920   28.4340   39.6090 C   0  0  0  0  0  0  0  0  0  0  0  0
   37.0410   28.0680   38.5220 N   0  0  0  0  0  0  0  0  0  0  0  0
   36.5480   28.1410   37.2600 C   0  0  0  0  0  0  0  0  0  0  0  0
   35.2860   28.5830   37.0410 N   0  0  0  0  0  0  0  0  0  0  0  0
   33.5280   29.2970   37.8760 H   0  0  0  0  0  0  0  0  0  0  0  0
   34.3820   29.1870   40.2420 H   0  0  0  0  0  0  0  0  0  0  0  0
   37.1970   27.8320   36.4310 H   0  0  0  0  0  0  0  0  0  0  0  0
   37.9350   30.3740   40.7220 O   0  0  0  0  0  0  0  0  0  0  0  0
   37.6160   31.7370   40.5800 C   0  0  0  0  0  0  0  0  0  0  0  0
   36.6090   31.9340   40.2010 H   0  0  0  0  0  0  0  0  0  0  0  0
   38.4210   32.6410   40.8650 O   0  0  0  0  0  0  0  0  0  0  0  0
  1  2  1  0  0  0  0
  1  6  1  0  0  0  0
  2  3  1  0  0  0  0
  3 10  1  0  0  0  0
  3  9  1  0  0  0  0
  3  4  1  0  0  0  0
  4 12  1  0  0  0  0
  4 11  1  0  0  0  0
  5 13  1  0  0  0  0
  5  4  1  0  0  0  0
  6 15  1  1  0  0  0
  6  5  1  0  0  0  0
  7  2  1  0  0  0  0
  8  2  1  0  0  0  0
 14  5  1  0  0  0  0
 16 17  1  0  0  0  0
 17 18  2  0  0  0  0
 17 23  1  0  0  0  0
 18  1  1  0  0  0  0
 19 18  1  0  0  0  0
 20 19  2  0  0  0  0
 21 20  1  0  0  0  0
 21 16  2  0  0  0  0
 22 16  1  0  0  0  0
 24 20  1  0  0  0  0
 25  6  1  0  0  0  0
 26 25  1  0  0  0  0
 26 28  2  0  0  0  0
 27 26  1  0  0  0  0
M  END
>  <minimizedAffinity>
-3.87864661

$$$$

 OpenBabel03252502253D

 28 29  0  0  1  0  0  0  0  0999 V2000
   37.7090   29.3510   41.3360 N   0  0  0  0  0  0  0  0  0  0  0  0
   37.5000   29.2860   42.7790 C   0  0  0  0  0  0  0  0  0  0  0  0
   38.1480   27.9730   43.2030 C   0  0  0  0  0  0  0  0  0  0  0  0
   37.4350   26.8010   42.5730 C   0  0  0  0  0  0  0  0  0  0  0  0
   36.9680   27.0290   41.1790 C   0  0  0  0  0  0  0  0  0  0  0  0
   37.5830   28.2050   40.4910 C   0  0  1  0  0  0  0  0  0  0  0  0
   36.4490   29.3490   43.0680 H   0  0  0  0  0  0  0  0  0  0  0  0
   38.1100   30.1080   43.2220 H   0  0  0  0  0  0  0  0  0  0  0  0
   38.0260   27.9010   44.3070 H   0  0  0  0  0  0  0  0  0  0  0  0
   39.2230   28.0250   42.9720 H   0  0  0  0  0  0  0  0  0  0  0  0
   38.1180   25.9310   42.6550 H   0  0  0  0  0  0  0  0  0  0  0  0
   36.5590   26.5640   43.2140 H   0  0  0  0  0  0  0  0  0  0  0  0
   37.1370   26.1230   40.5590 H   0  0  0  0  0  0  0  0  0  0  0  0
   35.8580   27.1920   41.1440 H   0  0  0  0  0  0  0  0  0  0  0  0
   38.6020   27.9210   40.1260 H   0  0  0  0  0  0  0  0  0  0  0  0
   37.5810   32.8440   40.0050 C   0  0  0  0  0  0  0  0  0  0  0  0
   37.1370   31.6600   40.6290 C   0  0  0  0  0  0  0  0  0  0  0  0
   38.0560   30.6040   40.7200 C   0  0  0  0  0  0  0  0  0  0  0  0
   39.3120   30.7840   40.2070 N   0  0  0  0  0  0  0  0  0  0  0  0
   39.6820   31.9490   39.6180 C   0  0  0  0  0  0  0  0  0  0  0  0
   38.8050   32.9770   39.5220 N   0  0  0  0  0  0  0  0  0  0  0  0
   36.8920   33.6700   39.9220 H   0  0  0  0  0  0  0  0  0  0  0  0
   36.1430   31.5350   41.0270 H   0  0  0  0  0  0  0  0  0  0  0  0
   40.7030   32.0310   39.2250 H   0  0  0  0  0  0  0  0  0  0  0  0
   36.7990   28.5260   39.3780 O   0  0  0  0  0  0  0  0  0  0  0  0
   35.4020   28.3650   39.4130 C   0  0  0  0  0  0  0  0  0  0  0  0
   35.0460   27.3870   39.0780 H   0  0  0  0  0  0  0  0  0  0  0  0
   34.6380   29.2700   39.7940 O   0  0  0  0  0  0  0  0  0  0  0  0
  1  2  1  0  0  0  0
  2  7  1  0  0  0  0
  2  3  1  0  0  0  0
  2  8  1  0  0  0  0
  3  9  1  0  0  0  0
  4 11  1  0  0  0  0
  4  3  1  0  0  0  0
  4 12  1  0  0  0  0
  5  4  1  0  0  0  0
  6 15  1  6  0  0  0
  6  5  1  0  0  0  0
  6  1  1  0  0  0  0
 10  3  1  0  0  0  0
 13  5  1  0  0  0  0
 14  5  1  0  0  0  0
 16 17  1  0  0  0  0
 17 18  2  0  0  0  0
 17 23  1  0  0  0  0
 18  1  1  0  0  0  0
 19 18  1  0  0  0  0
 20 19  2  0  0  0  0
 21 20  1  0  0  0  0
 21 16  2  0  0  0  0
 22 16  1  0  0  0  0
 24 20  1  0  0  0  0
 25 26  1  0  0  0  0
 25  6  1  0  0  0  0
 26 28  2  0  0  0  0
 27 26  1  0  0  0  0
M  END
>  <minimizedAffinity>
-3.82058716

$$$$

 OpenBabel03252502253D

 28 29  0  0  1  0  0  0  0  0999 V2000
   37.2870   27.5130   40.4910 N   0  0  0  0  0  0  0  0  0  0  0  0
   37.9840   26.2670   40.1860 C   0  0  0  0  0  0  0  0  0  0  0  0
   37.1020   25.1760   40.7830 C   0  0  0  0  0  0  0  0  0  0  0  0
   37.0270   25.3160   42.2840 C   0  0  0  0  0  0  0  0  0  0  0  0
   36.9830   26.7180   42.7800 C   0  0  0  0  0  0  0  0  0  0  0  0
   36.6450   27.7430   41.7460 C   0  0  1  0  0  0  0  0  0  0  0  0
   39.0060   26.2380   40.5680 H   0  0  0  0  0  0  0  0  0  0  0  0
   37.9430   26.1480   39.0780 H   0  0  0  0  0  0  0  0  0  0  0  0
   37.5940   24.2070   40.5480 H   0  0  0  0  0  0  0  0  0  0  0  0
   36.1250   25.2030   40.2780 H   0  0  0  0  0  0  0  0  0  0  0  0
   36.1540   24.7200   42.6170 H   0  0  0  0  0  0  0  0  0  0  0  0
   37.9220   24.8100   42.7070 H   0  0  0  0  0  0  0  0  0  0  0  0
   36.2660   26.8090   43.6230 H   0  0  0  0  0  0  0  0  0  0  0  0
   37.9700   27.0270   43.2150 H   0  0  0  0  0  0  0  0  0  0  0  0
   35.5370   27.7430   41.5830 H   0  0  0  0  0  0  0  0  0  0  0  0
   36.1010   29.9180   37.8840 C   0  0  0  0  0  0  0  0  0  0  0  0
   36.0440   28.8740   38.8300 C   0  0  0  0  0  0  0  0  0  0  0  0
   37.2310   28.5600   39.5060 C   0  0  0  0  0  0  0  0  0  0  0  0
   38.3610   29.2770   39.2120 N   0  0  0  0  0  0  0  0  0  0  0  0
   38.3530   30.2720   38.2910 C   0  0  0  0  0  0  0  0  0  0  0  0
   37.2130   30.5860   37.6290 N   0  0  0  0  0  0  0  0  0  0  0  0
   35.2000   30.1770   37.3510 H   0  0  0  0  0  0  0  0  0  0  0  0
   35.1450   28.3190   39.0490 H   0  0  0  0  0  0  0  0  0  0  0  0
   39.2910   30.8100   38.0990 H   0  0  0  0  0  0  0  0  0  0  0  0
   37.0090   29.0020   42.2360 O   0  0  0  0  0  0  0  0  0  0  0  0
   38.0920   29.1420   43.1230 C   0  0  0  0  0  0  0  0  0  0  0  0
   38.0410   28.5060   44.0110 H   0  0  0  0  0  0  0  0  0  0  0  0
   39.0300   29.9300   42.9070 O   0  0  0  0  0  0  0  0  0  0  0  0
  1  6  1  0  0  0  0
  2  1  1  0  0  0  0
  2  7  1  0  0  0  0
  2  3  1  0  0  0  0
  3  4  1  0  0  0  0
  4 11  1  0  0  0  0
  4 12  1  0  0  0  0
  4  5  1  0  0  0  0
  5 14  1  0  0  0  0
  5 13  1  0  0  0  0
  6 15  1  6  0  0  0
  6 25  1  0  0  0  0
  6  5  1  0  0  0  0
  8  2  1  0  0  0  0
  9  3  1  0  0  0  0
 10  3  1  0  0  0  0
 16 17  1  0  0  0  0
 17 23  1  0  0  0  0
 17 18  2  0  0  0  0
 18  1  1  0  0  0  0
 19 18  1  0  0  0  0
 20 19  2  0  0  0  0
 21 16  2  0  0  0  0
 21 20  1  0  0  0  0
 22 16  1  0  0  0  0
 24 20  1  0  0  0  0
 25 26  1  0  0  0  0
 26 27  1  0  0  0  0
 28 26  2  0  0  0  0
M  END
>  <minimizedAffinity>
-3.78997064

$$$$

 OpenBabel03252502253D

 28 29  0  0  1  0  0  0  0  0999 V2000
   38.3780   30.2660   41.3970 N   0  0  0  0  0  0  0  0  0  0  0  0
   37.2890   29.6630   42.1590 C   0  0  0  0  0  0  0  0  0  0  0  0
   37.9770   28.9510   43.3180 C   0  0  0  0  0  0  0  0  0  0  0  0
   38.8630   27.8400   42.8070 C   0  0  0  0  0  0  0  0  0  0  0  0
   39.5780   28.1430   41.5380 C   0  0  0  0  0  0  0  0  0  0  0  0
   39.6150   29.5900   41.1640 C   0  0  1  0  0  0  0  0  0  0  0  0
   36.6630   28.9940   41.5660 H   0  0  0  0  0  0  0  0  0  0  0  0
   36.7060   30.5080   42.5960 H   0  0  0  0  0  0  0  0  0  0  0  0
   37.1710   28.4970   43.9350 H   0  0  0  0  0  0  0  0  0  0  0  0
   38.5020   29.7030   43.9260 H   0  0  0  0  0  0  0  0  0  0  0  0
   39.5550   27.5790   43.6320 H   0  0  0  0  0  0  0  0  0  0  0  0
   38.2180   26.9480   42.6550 H   0  0  0  0  0  0  0  0  0  0  0  0
   40.6180   27.7560   41.5760 H   0  0  0  0  0  0  0  0  0  0  0  0
   39.1090   27.6080   40.6700 H   0  0  0  0  0  0  0  0  0  0  0  0
   40.4140   30.0990   41.7620 H   0  0  0  0  0  0  0  0  0  0  0  0
   37.1500   33.2160   39.4530 C   0  0  0  0  0  0  0  0  0  0  0  0
   37.2130   31.8880   39.9250 C   0  0  0  0  0  0  0  0  0  0  0  0
   38.2220   31.5880   40.8510 C   0  0  0  0  0  0  0  0  0  0  0  0
   39.0750   32.5870   41.2370 N   0  0  0  0  0  0  0  0  0  0  0  0
   38.9630   33.8480   40.7480 C   0  0  0  0  0  0  0  0  0  0  0  0
   37.9940   34.1530   39.8530 N   0  0  0  0  0  0  0  0  0  0  0  0
   36.3820   33.4720   38.7400 H   0  0  0  0  0  0  0  0  0  0  0  0
   36.5330   31.1130   39.6100 H   0  0  0  0  0  0  0  0  0  0  0  0
   39.6780   34.6050   41.0960 H   0  0  0  0  0  0  0  0  0  0  0  0
   39.9580   29.6890   39.8120 O   0  0  0  0  0  0  0  0  0  0  0  0
   39.4780   28.7520   38.8790 C   0  0  0  0  0  0  0  0  0  0  0  0
   39.9750   27.7780   38.9120 H   0  0  0  0  0  0  0  0  0  0  0  0
   38.5620   29.0180   38.0820 O   0  0  0  0  0  0  0  0  0  0  0  0
  1  2  1  0  0  0  0
  2  8  1  0  0  0  0
  2  3  1  0  0  0  0
  3 10  1  0  0  0  0
  3  9  1  0  0  0  0
  4  3  1  0  0  0  0
  4 11  1  0  0  0  0
  5 13  1  0  0  0  0
  5  4  1  0  0  0  0
  6  1  1  0  0  0  0
  6  5  1  0  0  0  0
  6 15  1  1  0  0  0
  7  2  1  0  0  0  0
 12  4  1  0  0  0  0
 14  5  1  0  0  0  0
 16 21  2  0  0  0  0
 16 17  1  0  0  0  0
 17 18  2  0  0  0  0
 18 19  1  0  0  0  0
 18  1  1  0  0  0  0
 20 24  1  0  0  0  0
 20 19  2  0  0  0  0
 21 20  1  0  0  0  0
 22 16  1  0  0  0  0
 23 17  1  0  0  0  0
 25  6  1  0  0  0  0
 26 27  1  0  0  0  0
 26 25  1  0  0  0  0
 28 26  2  0  0  0  0
M  END
>  <minimizedAffinity>
-3.75609255

$$$$

 OpenBabel03252502253D

 28 29  0  0  1  0  0  0  0  0999 V2000
   38.0440   30.4520   40.7240 N   0  0  0  0  0  0  0  0  0  0  0  0
   38.8740   31.6530   40.6910 C   0  0  0  0  0  0  0  0  0  0  0  0
   37.8960   32.7890   40.4120 C   0  0  0  0  0  0  0  0  0  0  0  0
   37.2600   32.6210   39.0530 C   0  0  0  0  0  0  0  0  0  0  0  0
   36.9550   31.2150   38.6750 C   0  0  0  0  0  0  0  0  0  0  0  0
   36.9690   30.2390   39.8070 C   0  0  1  0  0  0  0  0  0  0  0  0
   39.6800   31.6030   39.9570 H   0  0  0  0  0  0  0  0  0  0  0  0
   39.2550   31.8000   41.7280 H   0  0  0  0  0  0  0  0  0  0  0  0
   38.4940   33.7270   40.4020 H   0  0  0  0  0  0  0  0  0  0  0  0
   37.1770   32.8410   41.2430 H   0  0  0  0  0  0  0  0  0  0  0  0
   36.3610   33.2680   39.0390 H   0  0  0  0  0  0  0  0  0  0  0  0
   37.9600   33.0540   38.3060 H   0  0  0  0  0  0  0  0  0  0  0  0
   35.9720   31.1540   38.1620 H   0  0  0  0  0  0  0  0  0  0  0  0
   37.6910   30.8280   37.9200 H   0  0  0  0  0  0  0  0  0  0  0  0
   36.0040   30.3200   40.3690 H   0  0  0  0  0  0  0  0  0  0  0  0
   37.7250   28.1170   43.6270 C   0  0  0  0  0  0  0  0  0  0  0  0
   37.3730   29.1320   42.7140 C   0  0  0  0  0  0  0  0  0  0  0  0
   38.3010   29.4340   41.7070 C   0  0  0  0  0  0  0  0  0  0  0  0
   39.4770   28.7350   41.6700 N   0  0  0  0  0  0  0  0  0  0  0  0
   39.7590   27.7660   42.5770 C   0  0  0  0  0  0  0  0  0  0  0  0
   38.8730   27.4640   43.5560 N   0  0  0  0  0  0  0  0  0  0  0  0
   37.0280   27.8660   44.4100 H   0  0  0  0  0  0  0  0  0  0  0  0
   36.4420   29.6730   42.7580 H   0  0  0  0  0  0  0  0  0  0  0  0
   40.7200   27.2410   42.4950 H   0  0  0  0  0  0  0  0  0  0  0  0
   37.0530   28.9470   39.2770 O   0  0  0  0  0  0  0  0  0  0  0  0
   35.9270   28.1060   39.2520 C   0  0  0  0  0  0  0  0  0  0  0  0
   36.1060   27.0920   39.6210 H   0  0  0  0  0  0  0  0  0  0  0  0
   34.8180   28.4910   38.8420 O   0  0  0  0  0  0  0  0  0  0  0  0
  1 18  1  0  0  0  0
  2  1  1  0  0  0  0
  2  8  1  0  0  0  0
  3  2  1  0  0  0  0
  3 10  1  0  0  0  0
  4  3  1  0  0  0  0
  5  4  1  0  0  0  0
  5  6  1  0  0  0  0
  6 15  1  1  0  0  0
  6  1  1  0  0  0  0
  7  2  1  0  0  0  0
  9  3  1  0  0  0  0
 11  4  1  0  0  0  0
 12  4  1  0  0  0  0
 13  5  1  0  0  0  0
 14  5  1  0  0  0  0
 16 22  1  0  0  0  0
 17 23  1  0  0  0  0
 17 16  2  0  0  0  0
 18 17  1  0  0  0  0
 19 18  2  0  0  0  0
 19 20  1  0  0  0  0
 20 21  2  0  0  0  0
 21 16  1  0  0  0  0
 24 20  1  0  0  0  0
 25  6  1  0  0  0  0
 26 25  1  0  0  0  0
 26 27  1  0  0  0  0
 28 26  2  0  0  0  0
M  END
>  <minimizedAffinity>
-3.75302315

$$$$

 OpenBabel03252502253D

 28 29  0  0  1  0  0  0  0  0999 V2000
   36.3060   28.7800   40.0240 N   0  0  0  0  0  0  0  0  0  0  0  0
   34.9390   29.2900   39.9950 C   0  0  0  0  0  0  0  0  0  0  0  0
   34.3510   28.7440   38.6990 C   0  0  0  0  0  0  0  0  0  0  0  0
   35.0860   29.3040   37.5050 C   0  0  0  0  0  0  0  0  0  0  0  0
   36.5520   29.4650   37.6920 C   0  0  0  0  0  0  0  0  0  0  0  0
   37.1260   28.7210   38.8550 C   0  0  1  0  0  0  0  0  0  0  0  0
   34.8810   30.3790   40.0570 H   0  0  0  0  0  0  0  0  0  0  0  0
   34.3990   28.7900   40.8330 H   0  0  0  0  0  0  0  0  0  0  0  0
   33.2970   29.0970   38.6550 H   0  0  0  0  0  0  0  0  0  0  0  0
   34.3500   27.6450   38.7540 H   0  0  0  0  0  0  0  0  0  0  0  0
   34.8370   28.6530   36.6430 H   0  0  0  0  0  0  0  0  0  0  0  0
   34.6380   30.2960   37.2780 H   0  0  0  0  0  0  0  0  0  0  0  0
   37.0970   29.1660   36.7720 H   0  0  0  0  0  0  0  0  0  0  0  0
   36.8260   30.5430   37.8450 H   0  0  0  0  0  0  0  0  0  0  0  0
   37.2590   27.6470   38.5690 H   0  0  0  0  0  0  0  0  0  0  0  0
   37.6530   26.6020   42.7490 C   0  0  0  0  0  0  0  0  0  0  0  0
   37.0990   26.9500   41.5000 C   0  0  0  0  0  0  0  0  0  0  0  0
   36.8690   28.3130   41.2630 C   0  0  0  0  0  0  0  0  0  0  0  0
   37.1920   29.2120   42.2430 N   0  0  0  0  0  0  0  0  0  0  0  0
   37.7240   28.8160   43.4270 C   0  0  0  0  0  0  0  0  0  0  0  0
   37.9520   27.5030   43.6710 N   0  0  0  0  0  0  0  0  0  0  0  0
   37.8390   25.5600   42.9560 H   0  0  0  0  0  0  0  0  0  0  0  0
   36.8500   26.2290   40.7390 H   0  0  0  0  0  0  0  0  0  0  0  0
   37.9610   29.5840   44.1740 H   0  0  0  0  0  0  0  0  0  0  0  0
   38.3890   29.2520   39.1400 O   0  0  0  0  0  0  0  0  0  0  0  0
   38.6450   30.6250   38.9770 C   0  0  0  0  0  0  0  0  0  0  0  0
   38.9080   30.9240   37.9580 H   0  0  0  0  0  0  0  0  0  0  0  0
   38.5760   31.4310   39.9220 O   0  0  0  0  0  0  0  0  0  0  0  0
  1 18  1  0  0  0  0
  2  1  1  0  0  0  0
  2  7  1  0  0  0  0
  2  8  1  0  0  0  0
  3 10  1  0  0  0  0
  3  2  1  0  0  0  0
  4  5  1  0  0  0  0
  4  3  1  0  0  0  0
  5 14  1  0  0  0  0
  5  6  1  0  0  0  0
  6 15  1  6  0  0  0
  6 25  1  0  0  0  0
  6  1  1  0  0  0  0
  9  3  1  0  0  0  0
 11  4  1  0  0  0  0
 12  4  1  0  0  0  0
 13  5  1  0  0  0  0
 16 22  1  0  0  0  0
 16 21  1  0  0  0  0
 17 16  2  0  0  0  0
 18 17  1  0  0  0  0
 18 19  2  0  0  0  0
 19 20  1  0  0  0  0
 20 21  2  0  0  0  0
 20 24  1  0  0  0  0
 23 17  1  0  0  0  0
 26 25  1  0  0  0  0
 26 28  2  0  0  0  0
 27 26  1  0  0  0  0
M  END
>  <minimizedAffinity>
-3.74014282

$$$$
