
 OpenBabel03252506453D

 36 38  0  0  1  0  0  0  0  0999 V2000
   49.5740   33.4480   41.4960 N   0  0  1  0  0  0  0  0  0  0  0  0
   50.7320   33.0800   42.2650 C   0  0  0  0  0  0  0  0  0  0  0  0
   51.3090   31.7370   41.9260 C   0  0  0  0  0  0  0  0  0  0  0  0
   50.3230   30.6570   42.2930 C   0  0  0  0  0  0  0  0  0  0  0  0
   48.9050   31.1210   42.0680 C   0  0  0  0  0  0  0  0  0  0  0  0
   48.9030   32.2430   41.0640 C   0  0  2  0  0  0  0  0  0  0  0  0
   51.5090   33.8480   42.0590 H   0  0  0  0  0  0  0  0  0  0  0  0
   50.5690   33.1030   43.3490 H   0  0  0  0  0  0  0  0  0  0  0  0
   52.1760   31.6200   42.6520 H   0  0  0  0  0  0  0  0  0  0  0  0
   51.7780   31.6450   40.9510 H   0  0  0  0  0  0  0  0  0  0  0  0
   50.5300   29.7890   41.6070 H   0  0  0  0  0  0  0  0  0  0  0  0
   50.5010   30.2880   43.3020 H   0  0  0  0  0  0  0  0  0  0  0  0
   48.2810   30.3240   41.6640 H   0  0  0  0  0  0  0  0  0  0  0  0
   48.5410   31.5150   43.0300 H   0  0  0  0  0  0  0  0  0  0  0  0
   47.8370   32.5370   40.9500 H   0  0  0  0  0  0  0  0  0  0  0  0
   47.3480   34.6550   41.9980 C   0  0  1  0  0  0  0  0  0  0  0  0
   48.4120   35.6120   41.7210 C   0  0  0  0  0  0  0  0  0  0  0  0
   48.7800   34.3020   42.3280 C   0  0  2  0  0  0  0  0  0  0  0  0
   46.9380   33.9650   41.2140 H   0  0  0  0  0  0  0  0  0  0  0  0
   48.6750   35.7990   40.6500 H   0  0  0  0  0  0  0  0  0  0  0  0
   48.4300   36.5460   42.3370 H   0  0  0  0  0  0  0  0  0  0  0  0
   49.0050   34.2980   43.4100 H   0  0  0  0  0  0  0  0  0  0  0  0
   45.5770   36.0280   43.1270 C   0  0  0  0  0  0  0  0  0  0  0  0
   46.4000   34.8680   43.1110 C   0  0  0  0  0  0  0  0  0  0  0  0
   46.2800   33.9640   44.1630 C   0  0  0  0  0  0  0  0  0  0  0  0
   45.3840   34.2450   45.1380 N   0  0  0  0  0  0  0  0  0  0  0  0
   44.6090   35.3440   45.1470 C   0  0  0  0  0  0  0  0  0  0  0  0
   44.6980   36.2500   44.1360 N   0  0  0  0  0  0  0  0  0  0  0  0
   45.7070   36.7010   42.2880 H   0  0  0  0  0  0  0  0  0  0  0  0
   46.8930   33.0730   44.1770 H   0  0  0  0  0  0  0  0  0  0  0  0
   43.9310   35.4610   45.9800 H   0  0  0  0  0  0  0  0  0  0  0  0
   49.3650   31.7500   39.7970 N   0  0  0  0  0  0  0  0  0  0  0  0
   49.9330   31.0080   39.3800 H   0  0  0  0  0  0  0  0  0  0  0  0
   48.9370   32.4840   38.6550 C   0  0  0  0  0  0  0  0  0  0  0  0
   49.1300   32.3450   37.5750 H   0  0  0  0  0  0  0  0  0  0  0  0
   48.1950   33.5260   38.5870 O   0  0  0  0  0  0  0  0  0  0  0  0
  1  2  1  1  0  0  0
  1 18  1  0  0  0  0
  2  8  1  0  0  0  0
  3  2  1  0  0  0  0
  3  4  1  0  0  0  0
  3  9  1  0  0  0  0
  4 12  1  0  0  0  0
  5  4  1  0  0  0  0
  5 14  1  0  0  0  0
  6 15  1  6  0  0  0
  6  1  1  0  0  0  0
  6  5  1  0  0  0  0
  7  2  1  0  0  0  0
 10  3  1  0  0  0  0
 11  4  1  0  0  0  0
 13  5  1  0  0  0  0
 16 19  1  6  0  0  0
 16 18  1  0  0  0  0
 16 24  1  0  0  0  0
 17 16  1  0  0  0  0
 17 18  1  0  0  0  0
 17 21  1  0  0  0  0
 18 22  1  1  0  0  0
 20 17  1  0  0  0  0
 23 28  1  0  0  0  0
 24 23  2  0  0  0  0
 24 25  1  0  0  0  0
 25 30  1  0  0  0  0
 25 26  2  0  0  0  0
 26 27  1  0  0  0  0
 27 31  1  0  0  0  0
 28 27  2  0  0  0  0
 29 23  1  0  0  0  0
 32  6  1  0  0  0  0
 33 32  1  0  0  0  0
 34 32  1  0  0  0  0
 35 34  1  0  0  0  0
 36 34  2  0  0  0  0
M  END
>  <minimizedAffinity>
-4.74045563

>  <minimizedRMSD>
0.867134809

$$$$
