
 OpenBabel03242521593D

 27 28  0  0  0  0  0  0  0  0999 V2000
   37.2910   26.9120   41.5480 C   0  0  0  0  0  0  0  0  0  0  0  0
   37.3850   26.9340   42.9260 C   0  0  0  0  0  0  0  0  0  0  0  0
   37.7580   28.0410   43.6770 C   0  0  0  0  0  0  0  0  0  0  0  0
   38.0550   29.2020   43.0130 C   0  0  0  0  0  0  0  0  0  0  0  0
   37.9580   29.1720   41.6650 C   0  0  0  0  0  0  0  0  0  0  0  0
   37.5970   28.0920   40.9660 N   0  0  0  0  0  0  0  0  0  0  0  0
   37.1300   25.9610   43.3790 H   0  0  0  0  0  0  0  0  0  0  0  0
   37.7640   27.8290   44.7440 H   0  0  0  0  0  0  0  0  0  0  0  0
   38.3360   29.9320   43.7480 H   0  0  0  0  0  0  0  0  0  0  0  0
   36.5880   23.4160   40.3550 C   0  0  0  0  0  0  0  0  0  0  0  0
   36.9950   24.4280   41.2240 C   0  0  0  0  0  0  0  0  0  0  0  0
   36.9150   25.7260   40.7890 C   0  0  0  0  0  0  0  0  0  0  0  0
   36.4400   25.9610   39.5220 N   0  0  0  0  0  0  0  0  0  0  0  0
   36.0510   24.9600   38.6970 C   0  0  0  0  0  0  0  0  0  0  0  0
   36.1310   23.6940   39.1290 N   0  0  0  0  0  0  0  0  0  0  0  0
   36.6850   22.4240   40.7820 H   0  0  0  0  0  0  0  0  0  0  0  0
   37.3730   24.2720   42.2240 H   0  0  0  0  0  0  0  0  0  0  0  0
   35.6890   25.2320   37.7150 H   0  0  0  0  0  0  0  0  0  0  0  0
   38.2460   30.3280   40.9630 O   0  0  0  0  0  0  0  0  0  0  0  0
   36.7260   31.0410   38.9140 O   0  0  0  0  0  0  0  0  0  0  0  0
   37.0240   31.3700   40.3680 P   0  0  1  0  0  0  0  0  0  0  0  0
   35.6250   31.1390   41.2800 O   0  0  0  0  0  0  0  0  0  0  0  0
   34.8730   31.6830   40.9910 H   0  0  0  0  0  0  0  0  0  0  0  0
   37.5940   32.9610   40.4740 O   0  0  0  0  0  0  0  0  0  0  0  0
   38.8690   33.3670   40.7370 C   0  0  0  0  0  0  0  0  0  0  0  0
   38.9390   33.6380   41.7990 H   0  0  0  0  0  0  0  0  0  0  0  0
   39.4670   33.2680   39.6470 O   0  0  0  0  0  0  0  0  0  0  0  0
  1  2  1  0  0  0  0
  2  7  1  0  0  0  0
  2  3  2  0  0  0  0
  3  8  1  0  0  0  0
  4  3  1  0  0  0  0
  4  9  1  0  0  0  0
  5  4  2  0  0  0  0
  6  1  2  0  0  0  0
  6  5  1  0  0  0  0
 10 16  1  0  0  0  0
 10 11  1  0  0  0  0
 11 17  1  0  0  0  0
 12 11  2  0  0  0  0
 12  1  1  0  0  0  0
 13 12  1  0  0  0  0
 14 15  1  0  0  0  0
 14 13  2  0  0  0  0
 15 10  2  0  0  0  0
 18 14  1  0  0  0  0
 19  5  1  0  0  0  0
 21 20  2  6  0  0  0
 21 24  1  0  0  0  0
 21 19  1  0  0  0  0
 21 22  1  0  0  0  0
 23 22  1  0  0  0  0
 24 25  1  0  0  0  0
 25 26  1  0  0  0  0
 27 25  2  0  0  0  0
M  END
>  <minimizedAffinity>
-5.12297773

$$$$

 OpenBabel03242521593D

 27 28  0  0  0  0  0  0  0  0999 V2000
   37.9140   25.3670   41.8420 C   0  0  0  0  0  0  0  0  0  0  0  0
   39.0110   25.4090   42.6810 C   0  0  0  0  0  0  0  0  0  0  0  0
   39.3720   26.5010   43.4590 C   0  0  0  0  0  0  0  0  0  0  0  0
   38.5910   27.6250   43.3970 C   0  0  0  0  0  0  0  0  0  0  0  0
   37.5190   27.5740   42.5760 C   0  0  0  0  0  0  0  0  0  0  0  0
   37.1930   26.5090   41.8370 N   0  0  0  0  0  0  0  0  0  0  0  0
   39.5830   24.4660   42.6700 H   0  0  0  0  0  0  0  0  0  0  0  0
   40.2710   26.3100   44.0410 H   0  0  0  0  0  0  0  0  0  0  0  0
   39.0310   28.3610   44.0430 H   0  0  0  0  0  0  0  0  0  0  0  0
   37.8690   22.0900   39.9980 C   0  0  0  0  0  0  0  0  0  0  0  0
   38.3620   23.1070   40.8150 C   0  0  0  0  0  0  0  0  0  0  0  0
   37.5750   24.2100   41.0250 C   0  0  0  0  0  0  0  0  0  0  0  0
   36.3430   24.2550   40.4170 N   0  0  0  0  0  0  0  0  0  0  0  0
   35.8870   23.2550   39.6280 C   0  0  0  0  0  0  0  0  0  0  0  0
   36.6620   22.1800   39.4280 N   0  0  0  0  0  0  0  0  0  0  0  0
   38.5570   21.2600   39.8900 H   0  0  0  0  0  0  0  0  0  0  0  0
   39.3250   23.0980   41.3040 H   0  0  0  0  0  0  0  0  0  0  0  0
   34.9060   23.3710   39.1880 H   0  0  0  0  0  0  0  0  0  0  0  0
   36.7040   28.6890   42.4930 O   0  0  0  0  0  0  0  0  0  0  0  0
   37.0290   29.3170   39.9400 O   0  0  0  0  0  0  0  0  0  0  0  0
   36.9510   29.9230   41.3320 P   0  0  1  0  0  0  0  0  0  0  0  0
   35.6480   30.9910   41.3930 O   0  0  0  0  0  0  0  0  0  0  0  0
   35.7020   31.7150   40.7460 H   0  0  0  0  0  0  0  0  0  0  0  0
   38.4170   30.6930   41.6870 O   0  0  0  0  0  0  0  0  0  0  0  0
   39.0220   31.6860   40.9740 C   0  0  0  0  0  0  0  0  0  0  0  0
   40.0690   31.4050   40.7980 H   0  0  0  0  0  0  0  0  0  0  0  0
   38.1310   32.5420   40.7990 O   0  0  0  0  0  0  0  0  0  0  0  0
  1  2  1  0  0  0  0
  2  3  2  0  0  0  0
  3  8  1  0  0  0  0
  4  3  1  0  0  0  0
  4  9  1  0  0  0  0
  5  4  2  0  0  0  0
  6  1  2  0  0  0  0
  6  5  1  0  0  0  0
  7  2  1  0  0  0  0
 10 11  1  0  0  0  0
 11 12  2  0  0  0  0
 11 17  1  0  0  0  0
 12  1  1  0  0  0  0
 13 12  1  0  0  0  0
 14 13  2  0  0  0  0
 15 14  1  0  0  0  0
 15 10  2  0  0  0  0
 16 10  1  0  0  0  0
 18 14  1  0  0  0  0
 19  5  1  0  0  0  0
 21 20  2  6  0  0  0
 21 22  1  0  0  0  0
 21 24  1  0  0  0  0
 21 19  1  0  0  0  0
 23 22  1  0  0  0  0
 25 24  1  0  0  0  0
 26 25  1  0  0  0  0
 27 25  2  0  0  0  0
M  END
>  <minimizedAffinity>
-4.84120607

$$$$

 OpenBabel03242521593D

 27 28  0  0  0  0  0  0  0  0999 V2000
   39.3390   29.2290   42.3560 C   0  0  0  0  0  0  0  0  0  0  0  0
   39.6160   28.1760   43.2060 C   0  0  0  0  0  0  0  0  0  0  0  0
   38.7480   27.1270   43.4770 C   0  0  0  0  0  0  0  0  0  0  0  0
   37.5240   27.1260   42.8620 C   0  0  0  0  0  0  0  0  0  0  0  0
   37.2620   28.1590   42.0300 C   0  0  0  0  0  0  0  0  0  0  0  0
   38.1170   29.1570   41.7870 N   0  0  0  0  0  0  0  0  0  0  0  0
   40.6200   28.2550   43.6580 H   0  0  0  0  0  0  0  0  0  0  0  0
   39.1760   26.4110   44.1760 H   0  0  0  0  0  0  0  0  0  0  0  0
   36.9900   26.2590   43.2040 H   0  0  0  0  0  0  0  0  0  0  0  0
   42.2370   31.6250   42.3550 C   0  0  0  0  0  0  0  0  0  0  0  0
   41.4790   30.5130   42.7210 C   0  0  0  0  0  0  0  0  0  0  0  0
   40.2670   30.3240   42.1090 C   0  0  0  0  0  0  0  0  0  0  0  0
   39.8630   31.2410   41.1680 N   0  0  0  0  0  0  0  0  0  0  0  0
   40.6180   32.3130   40.8300 C   0  0  0  0  0  0  0  0  0  0  0  0
   41.8020   32.4900   41.4330 N   0  0  0  0  0  0  0  0  0  0  0  0
   43.1780   31.6930   42.8890 H   0  0  0  0  0  0  0  0  0  0  0  0
   41.7720   29.7780   43.4570 H   0  0  0  0  0  0  0  0  0  0  0  0
   40.2250   32.9860   40.0800 H   0  0  0  0  0  0  0  0  0  0  0  0
   36.0380   28.1870   41.3870 O   0  0  0  0  0  0  0  0  0  0  0  0
   34.1510   29.2450   39.8580 O   0  0  0  0  0  0  0  0  0  0  0  0
   35.5590   29.4860   40.3810 P   0  0  1  0  0  0  0  0  0  0  0  0
   35.5700   30.9070   41.2890 O   0  0  0  0  0  0  0  0  0  0  0  0
   35.2880   31.6940   40.7920 H   0  0  0  0  0  0  0  0  0  0  0  0
   36.6330   29.5620   39.0740 O   0  0  0  0  0  0  0  0  0  0  0  0
   36.7840   30.5890   38.1880 C   0  0  0  0  0  0  0  0  0  0  0  0
   36.6360   30.2010   37.1710 H   0  0  0  0  0  0  0  0  0  0  0  0
   37.0380   31.5850   38.8950 O   0  0  0  0  0  0  0  0  0  0  0  0
  1  2  1  0  0  0  0
  2  3  2  0  0  0  0
  2  7  1  0  0  0  0
  3  8  1  0  0  0  0
  4  9  1  0  0  0  0
  4  3  1  0  0  0  0
  5  4  2  0  0  0  0
  6  5  1  0  0  0  0
  6  1  2  0  0  0  0
 10 11  1  0  0  0  0
 10 16  1  0  0  0  0
 11 17  1  0  0  0  0
 12  1  1  0  0  0  0
 12 11  2  0  0  0  0
 13 12  1  0  0  0  0
 14 13  2  0  0  0  0
 14 15  1  0  0  0  0
 15 10  2  0  0  0  0
 18 14  1  0  0  0  0
 19  5  1  0  0  0  0
 21 20  2  6  0  0  0
 21 22  1  0  0  0  0
 21 19  1  0  0  0  0
 23 22  1  0  0  0  0
 24 21  1  0  0  0  0
 25 27  2  0  0  0  0
 25 24  1  0  0  0  0
 26 25  1  0  0  0  0
M  END
>  <minimizedAffinity>
-4.80902386

$$$$

 OpenBabel03242521593D

 27 28  0  0  0  0  0  0  0  0999 V2000
   37.6790   28.5930   41.7060 C   0  0  0  0  0  0  0  0  0  0  0  0
   36.5070   28.0390   41.2290 C   0  0  0  0  0  0  0  0  0  0  0  0
   35.5010   28.7450   40.5840 C   0  0  0  0  0  0  0  0  0  0  0  0
   35.6720   30.0920   40.4020 C   0  0  0  0  0  0  0  0  0  0  0  0
   36.8220   30.6260   40.8700 C   0  0  0  0  0  0  0  0  0  0  0  0
   37.7760   29.9220   41.4880 N   0  0  0  0  0  0  0  0  0  0  0  0
   36.4500   26.9530   41.4170 H   0  0  0  0  0  0  0  0  0  0  0  0
   34.6700   28.1040   40.2960 H   0  0  0  0  0  0  0  0  0  0  0  0
   34.7950   30.4670   39.9100 H   0  0  0  0  0  0  0  0  0  0  0  0
   40.7530   27.4260   43.5300 C   0  0  0  0  0  0  0  0  0  0  0  0
   39.8850   28.3140   42.8960 C   0  0  0  0  0  0  0  0  0  0  0  0
   38.7060   27.8250   42.3960 C   0  0  0  0  0  0  0  0  0  0  0  0
   38.4430   26.4840   42.5440 N   0  0  0  0  0  0  0  0  0  0  0  0
   39.3030   25.6410   43.1630 C   0  0  0  0  0  0  0  0  0  0  0  0
   40.4520   26.1270   43.6500 N   0  0  0  0  0  0  0  0  0  0  0  0
   41.6570   27.8990   43.8930 H   0  0  0  0  0  0  0  0  0  0  0  0
   40.0670   29.3710   42.7650 H   0  0  0  0  0  0  0  0  0  0  0  0
   39.0180   24.6010   43.2370 H   0  0  0  0  0  0  0  0  0  0  0  0
   37.0320   31.9830   40.6990 O   0  0  0  0  0  0  0  0  0  0  0  0
   38.4880   34.1560   40.2820 O   0  0  0  0  0  0  0  0  0  0  0  0
   38.5880   32.6470   40.4390 P   0  0  1  0  0  0  0  0  0  0  0  0
   39.5550   32.2970   41.7750 O   0  0  0  0  0  0  0  0  0  0  0  0
   40.4550   32.6600   41.7150 H   0  0  0  0  0  0  0  0  0  0  0  0
   39.2130   31.9790   39.0130 O   0  0  0  0  0  0  0  0  0  0  0  0
   40.3150   32.3910   38.3230 C   0  0  0  0  0  0  0  0  0  0  0  0
   40.0540   32.4690   37.2590 H   0  0  0  0  0  0  0  0  0  0  0  0
   41.2050   32.5180   39.1880 O   0  0  0  0  0  0  0  0  0  0  0  0
  1 12  1  0  0  0  0
  2  7  1  0  0  0  0
  2  1  2  0  0  0  0
  3  2  1  0  0  0  0
  4  3  2  0  0  0  0
  4  5  1  0  0  0  0
  5  6  2  0  0  0  0
  6  1  1  0  0  0  0
  8  3  1  0  0  0  0
  9  4  1  0  0  0  0
 10 15  1  0  0  0  0
 10 16  1  0  0  0  0
 11 10  2  0  0  0  0
 12 13  2  0  0  0  0
 12 11  1  0  0  0  0
 13 14  1  0  0  0  0
 14 18  1  0  0  0  0
 14 15  2  0  0  0  0
 17 11  1  0  0  0  0
 19  5  1  0  0  0  0
 21 20  2  6  0  0  0
 21 19  1  0  0  0  0
 21 22  1  0  0  0  0
 23 22  1  0  0  0  0
 24 21  1  0  0  0  0
 25 24  1  0  0  0  0
 25 27  2  0  0  0  0
 26 25  1  0  0  0  0
M  END
>  <minimizedAffinity>
-4.62466431

$$$$

 OpenBabel03242521593D

 27 28  0  0  0  0  0  0  0  0999 V2000
   37.5200   28.1680   41.0520 C   0  0  0  0  0  0  0  0  0  0  0  0
   36.1800   28.4180   41.2750 C   0  0  0  0  0  0  0  0  0  0  0  0
   35.3700   29.1900   40.4530 C   0  0  0  0  0  0  0  0  0  0  0  0
   35.9310   29.7500   39.3360 C   0  0  0  0  0  0  0  0  0  0  0  0
   37.2420   29.4990   39.1240 C   0  0  0  0  0  0  0  0  0  0  0  0
   37.9990   28.7520   39.9320 N   0  0  0  0  0  0  0  0  0  0  0  0
   35.8100   27.9300   42.1930 H   0  0  0  0  0  0  0  0  0  0  0  0
   34.3480   29.2500   40.8240 H   0  0  0  0  0  0  0  0  0  0  0  0
   35.1670   30.3200   38.8410 H   0  0  0  0  0  0  0  0  0  0  0  0
   39.9070   26.9270   43.6790 C   0  0  0  0  0  0  0  0  0  0  0  0
   39.1920   27.8470   42.9130 C   0  0  0  0  0  0  0  0  0  0  0  0
   38.3460   27.3680   41.9460 C   0  0  0  0  0  0  0  0  0  0  0  0
   38.2480   26.0070   41.7830 N   0  0  0  0  0  0  0  0  0  0  0  0
   38.9540   25.1340   42.5400 C   0  0  0  0  0  0  0  0  0  0  0  0
   39.7780   25.6100   43.4830 N   0  0  0  0  0  0  0  0  0  0  0  0
   40.5480   27.3940   44.4170 H   0  0  0  0  0  0  0  0  0  0  0  0
   39.2500   28.9200   43.0200 H   0  0  0  0  0  0  0  0  0  0  0  0
   38.8180   24.0790   42.3450 H   0  0  0  0  0  0  0  0  0  0  0  0
   37.8400   30.0450   38.0020 O   0  0  0  0  0  0  0  0  0  0  0  0
   40.4280   30.5990   38.1050 O   0  0  0  0  0  0  0  0  0  0  0  0
   39.0530   31.2480   38.1010 P   0  0  1  0  0  0  0  0  0  0  0  0
   38.9260   32.2560   36.7550 O   0  0  0  0  0  0  0  0  0  0  0  0
   39.5980   32.9590   36.7250 H   0  0  0  0  0  0  0  0  0  0  0  0
   38.8340   32.0980   39.5500 O   0  0  0  0  0  0  0  0  0  0  0  0
   37.9220   33.0810   39.8010 C   0  0  0  0  0  0  0  0  0  0  0  0
   38.1710   33.5550   40.7600 H   0  0  0  0  0  0  0  0  0  0  0  0
   37.1470   33.0550   38.8240 O   0  0  0  0  0  0  0  0  0  0  0  0
  1  2  1  0  0  0  0
  1 12  1  0  0  0  0
  2  7  1  0  0  0  0
  3  8  1  0  0  0  0
  3  2  2  0  0  0  0
  4  3  1  0  0  0  0
  5  4  2  0  0  0  0
  5  6  1  0  0  0  0
  6  1  2  0  0  0  0
  9  4  1  0  0  0  0
 10 16  1  0  0  0  0
 11 17  1  0  0  0  0
 11 10  2  0  0  0  0
 12 11  1  0  0  0  0
 13 12  2  0  0  0  0
 13 14  1  0  0  0  0
 14 15  2  0  0  0  0
 15 10  1  0  0  0  0
 18 14  1  0  0  0  0
 19 21  1  0  0  0  0
 19  5  1  0  0  0  0
 21 20  2  1  0  0  0
 21 24  1  0  0  0  0
 22 21  1  0  0  0  0
 23 22  1  0  0  0  0
 24 25  1  0  0  0  0
 25 26  1  0  0  0  0
 27 25  2  0  0  0  0
M  END
>  <minimizedAffinity>
-4.57531595

$$$$

 OpenBabel03242521593D

 27 28  0  0  0  0  0  0  0  0999 V2000
   38.3090   29.4040   41.9940 C   0  0  0  0  0  0  0  0  0  0  0  0
   36.9960   28.9890   41.8740 C   0  0  0  0  0  0  0  0  0  0  0  0
   36.5050   27.7730   42.3280 C   0  0  0  0  0  0  0  0  0  0  0  0
   37.3760   26.9130   42.9430 C   0  0  0  0  0  0  0  0  0  0  0  0
   38.6580   27.3280   43.0590 C   0  0  0  0  0  0  0  0  0  0  0  0
   39.1050   28.5060   42.6120 N   0  0  0  0  0  0  0  0  0  0  0  0
   36.3650   29.7400   41.3680 H   0  0  0  0  0  0  0  0  0  0  0  0
   35.4420   27.6590   42.1250 H   0  0  0  0  0  0  0  0  0  0  0  0
   36.8280   26.0290   43.2060 H   0  0  0  0  0  0  0  0  0  0  0  0
   40.3630   32.4050   41.0380 C   0  0  0  0  0  0  0  0  0  0  0  0
   40.0780   31.1540   41.5830 C   0  0  0  0  0  0  0  0  0  0  0  0
   38.7950   30.6810   41.4890 C   0  0  0  0  0  0  0  0  0  0  0  0
   37.8570   31.4660   40.8620 N   0  0  0  0  0  0  0  0  0  0  0  0
   38.1580   32.6780   40.3400 C   0  0  0  0  0  0  0  0  0  0  0  0
   39.4150   33.1330   40.4370 N   0  0  0  0  0  0  0  0  0  0  0  0
   41.3990   32.6970   41.1590 H   0  0  0  0  0  0  0  0  0  0  0  0
   40.7960   30.5180   42.0810 H   0  0  0  0  0  0  0  0  0  0  0  0
   37.3600   33.2310   39.8650 H   0  0  0  0  0  0  0  0  0  0  0  0
   39.5640   26.4880   43.6800 O   0  0  0  0  0  0  0  0  0  0  0  0
   41.8210   25.1840   43.2090 O   0  0  0  0  0  0  0  0  0  0  0  0
   40.3420   25.2060   42.8550 P   0  0  1  0  0  0  0  0  0  0  0  0
   39.6420   23.7490   43.3350 O   0  0  0  0  0  0  0  0  0  0  0  0
   40.0440   22.9650   42.9250 H   0  0  0  0  0  0  0  0  0  0  0  0
   40.1720   25.4710   41.1910 O   0  0  0  0  0  0  0  0  0  0  0  0
   39.5400   24.6690   40.2870 C   0  0  0  0  0  0  0  0  0  0  0  0
   40.1560   24.6070   39.3800 H   0  0  0  0  0  0  0  0  0  0  0  0
   38.4890   24.3120   40.8570 O   0  0  0  0  0  0  0  0  0  0  0  0
  1  6  1  0  0  0  0
  2  1  2  0  0  0  0
  2  3  1  0  0  0  0
  3  4  2  0  0  0  0
  4  5  1  0  0  0  0
  4  9  1  0  0  0  0
  5 19  1  0  0  0  0
  6  5  2  0  0  0  0
  7  2  1  0  0  0  0
  8  3  1  0  0  0  0
 10 16  1  0  0  0  0
 10 11  1  0  0  0  0
 11 17  1  0  0  0  0
 12 11  2  0  0  0  0
 12  1  1  0  0  0  0
 13 12  1  0  0  0  0
 14 15  1  0  0  0  0
 14 13  2  0  0  0  0
 15 10  2  0  0  0  0
 18 14  1  0  0  0  0
 21 20  2  1  0  0  0
 21 22  1  0  0  0  0
 21 19  1  0  0  0  0
 23 22  1  0  0  0  0
 24 21  1  0  0  0  0
 25 27  2  0  0  0  0
 25 24  1  0  0  0  0
 26 25  1  0  0  0  0
M  END
>  <minimizedAffinity>
-4.55424929

$$$$

 OpenBabel03242521593D

 27 28  0  0  0  0  0  0  0  0999 V2000
   37.8840   31.3090   40.9640 C   0  0  0  0  0  0  0  0  0  0  0  0
   36.9890   31.9310   40.1150 C   0  0  0  0  0  0  0  0  0  0  0  0
   37.2060   33.1530   39.4910 C   0  0  0  0  0  0  0  0  0  0  0  0
   38.3910   33.7970   39.7290 C   0  0  0  0  0  0  0  0  0  0  0  0
   39.2620   33.1810   40.5590 C   0  0  0  0  0  0  0  0  0  0  0  0
   39.0280   32.0040   41.1470 N   0  0  0  0  0  0  0  0  0  0  0  0
   36.0640   31.3450   39.9790 H   0  0  0  0  0  0  0  0  0  0  0  0
   36.3660   33.4490   38.8670 H   0  0  0  0  0  0  0  0  0  0  0  0
   38.3720   34.7220   39.1840 H   0  0  0  0  0  0  0  0  0  0  0  0
   36.5010   27.9830   42.0430 C   0  0  0  0  0  0  0  0  0  0  0  0
   36.6040   29.1630   41.3070 C   0  0  0  0  0  0  0  0  0  0  0  0
   37.6160   30.0350   41.6170 C   0  0  0  0  0  0  0  0  0  0  0  0
   38.4730   29.7010   42.6380 N   0  0  0  0  0  0  0  0  0  0  0  0
   38.3510   28.5490   43.3380 C   0  0  0  0  0  0  0  0  0  0  0  0
   37.3600   27.7010   43.0280 N   0  0  0  0  0  0  0  0  0  0  0  0
   35.6750   27.3560   41.7290 H   0  0  0  0  0  0  0  0  0  0  0  0
   35.9450   29.4500   40.5000 H   0  0  0  0  0  0  0  0  0  0  0  0
   39.0680   28.3640   44.1260 H   0  0  0  0  0  0  0  0  0  0  0  0
   40.4710   33.8010   40.8180 O   0  0  0  0  0  0  0  0  0  0  0  0
   42.9630   33.1420   41.4270 O   0  0  0  0  0  0  0  0  0  0  0  0
   41.9650   33.1610   40.2800 P   0  0  1  0  0  0  0  0  0  0  0  0
   41.7160   31.5810   39.7460 O   0  0  0  0  0  0  0  0  0  0  0  0
   42.5250   31.1360   39.4410 H   0  0  0  0  0  0  0  0  0  0  0  0
   42.5520   34.1610   39.0460 O   0  0  0  0  0  0  0  0  0  0  0  0
   42.3260   34.0400   37.7070 C   0  0  0  0  0  0  0  0  0  0  0  0
   43.0920   34.6120   37.1670 H   0  0  0  0  0  0  0  0  0  0  0  0
   41.3160   33.3120   37.6180 O   0  0  0  0  0  0  0  0  0  0  0  0
  1  6  1  0  0  0  0
  1 12  1  0  0  0  0
  2  1  2  0  0  0  0
  3  4  2  0  0  0  0
  3  2  1  0  0  0  0
  4  5  1  0  0  0  0
  5 19  1  0  0  0  0
  5  6  2  0  0  0  0
  7  2  1  0  0  0  0
  8  3  1  0  0  0  0
  9  4  1  0  0  0  0
 10 15  1  0  0  0  0
 11 12  1  0  0  0  0
 11 10  2  0  0  0  0
 12 13  2  0  0  0  0
 13 14  1  0  0  0  0
 14 18  1  0  0  0  0
 15 14  2  0  0  0  0
 16 10  1  0  0  0  0
 17 11  1  0  0  0  0
 21 19  1  0  0  0  0
 21 20  2  1  0  0  0
 22 21  1  0  0  0  0
 23 22  1  0  0  0  0
 24 21  1  0  0  0  0
 25 24  1  0  0  0  0
 26 25  1  0  0  0  0
 27 25  2  0  0  0  0
M  END
>  <minimizedAffinity>
-4.50307655

$$$$

 OpenBabel03242521593D

 27 28  0  0  0  0  0  0  0  0999 V2000
   38.2650   31.4120   38.9380 C   0  0  0  0  0  0  0  0  0  0  0  0
   37.4600   30.9560   37.9120 C   0  0  0  0  0  0  0  0  0  0  0  0
   36.3420   30.1510   38.0810 C   0  0  0  0  0  0  0  0  0  0  0  0
   36.0030   29.7750   39.3540 C   0  0  0  0  0  0  0  0  0  0  0  0
   36.7940   30.2280   40.3520 C   0  0  0  0  0  0  0  0  0  0  0  0
   37.8660   31.0030   40.1610 N   0  0  0  0  0  0  0  0  0  0  0  0
   37.8040   31.3050   36.9230 H   0  0  0  0  0  0  0  0  0  0  0  0
   35.8610   29.9140   37.1340 H   0  0  0  0  0  0  0  0  0  0  0  0
   35.1340   29.1480   39.2860 H   0  0  0  0  0  0  0  0  0  0  0  0
   40.9980   33.9880   39.1330 C   0  0  0  0  0  0  0  0  0  0  0  0
   39.8340   33.3080   39.4910 C   0  0  0  0  0  0  0  0  0  0  0  0
   39.4440   32.2410   38.7230 C   0  0  0  0  0  0  0  0  0  0  0  0
   40.2190   31.8990   37.6420 N   0  0  0  0  0  0  0  0  0  0  0  0
   41.3450   32.5760   37.3140 C   0  0  0  0  0  0  0  0  0  0  0  0
   41.7210   33.6170   38.0690 N   0  0  0  0  0  0  0  0  0  0  0  0
   41.2290   34.8150   39.7940 H   0  0  0  0  0  0  0  0  0  0  0  0
   39.2070   33.5560   40.3350 H   0  0  0  0  0  0  0  0  0  0  0  0
   41.8960   32.2410   36.4460 H   0  0  0  0  0  0  0  0  0  0  0  0
   36.4780   29.8720   41.6500 O   0  0  0  0  0  0  0  0  0  0  0  0
   38.4730   29.3270   43.3060 O   0  0  0  0  0  0  0  0  0  0  0  0
   37.3490   28.6780   42.5140 P   0  0  1  0  0  0  0  0  0  0  0  0
   36.2970   27.9100   43.5840 O   0  0  0  0  0  0  0  0  0  0  0  0
   36.7210   27.2270   44.1310 H   0  0  0  0  0  0  0  0  0  0  0  0
   38.0110   27.5960   41.3920 O   0  0  0  0  0  0  0  0  0  0  0  0
   37.5980   26.3220   41.1300 C   0  0  0  0  0  0  0  0  0  0  0  0
   38.2240   25.6250   41.7030 H   0  0  0  0  0  0  0  0  0  0  0  0
   36.6530   26.4520   40.3260 O   0  0  0  0  0  0  0  0  0  0  0  0
  1  6  1  0  0  0  0
  2  3  1  0  0  0  0
  2  1  2  0  0  0  0
  3  4  2  0  0  0  0
  4  5  1  0  0  0  0
  5 19  1  0  0  0  0
  6  5  2  0  0  0  0
  7  2  1  0  0  0  0
  8  3  1  0  0  0  0
  9  4  1  0  0  0  0
 10 11  1  0  0  0  0
 10 16  1  0  0  0  0
 11 17  1  0  0  0  0
 12  1  1  0  0  0  0
 12 11  2  0  0  0  0
 13 12  1  0  0  0  0
 14 13  2  0  0  0  0
 14 15  1  0  0  0  0
 15 10  2  0  0  0  0
 18 14  1  0  0  0  0
 19 21  1  0  0  0  0
 21 20  2  1  0  0  0
 21 22  1  0  0  0  0
 22 23  1  0  0  0  0
 24 21  1  0  0  0  0
 25 24  1  0  0  0  0
 25 26  1  0  0  0  0
 27 25  2  0  0  0  0
M  END
>  <minimizedAffinity>
-4.40001392

$$$$

 OpenBabel03242521593D

 27 28  0  0  0  0  0  0  0  0999 V2000
   36.5690   28.5100   41.2650 C   0  0  0  0  0  0  0  0  0  0  0  0
   36.3570   27.6550   42.3300 C   0  0  0  0  0  0  0  0  0  0  0  0
   37.0550   27.6940   43.5290 C   0  0  0  0  0  0  0  0  0  0  0  0
   38.0270   28.6470   43.6800 C   0  0  0  0  0  0  0  0  0  0  0  0
   38.2270   29.4810   42.6350 C   0  0  0  0  0  0  0  0  0  0  0  0
   37.5400   29.4210   41.4900 N   0  0  0  0  0  0  0  0  0  0  0  0
   35.5590   26.9210   42.1250 H   0  0  0  0  0  0  0  0  0  0  0  0
   36.7200   26.9260   44.2240 H   0  0  0  0  0  0  0  0  0  0  0  0
   38.4650   28.5130   44.6510 H   0  0  0  0  0  0  0  0  0  0  0  0
   34.1180   28.9140   38.4420 C   0  0  0  0  0  0  0  0  0  0  0  0
   34.6910   29.1200   39.6970 C   0  0  0  0  0  0  0  0  0  0  0  0
   35.8310   28.4280   40.0120 C   0  0  0  0  0  0  0  0  0  0  0  0
   36.3490   27.5670   39.0750 N   0  0  0  0  0  0  0  0  0  0  0  0
   35.7750   27.3830   37.8630 C   0  0  0  0  0  0  0  0  0  0  0  0
   34.6600   28.0640   37.5620 N   0  0  0  0  0  0  0  0  0  0  0  0
   33.2230   29.5020   38.2810 H   0  0  0  0  0  0  0  0  0  0  0  0
   34.3040   29.7900   40.4520 H   0  0  0  0  0  0  0  0  0  0  0  0
   36.2470   26.6860   37.1850 H   0  0  0  0  0  0  0  0  0  0  0  0
   39.1970   30.4590   42.7530 O   0  0  0  0  0  0  0  0  0  0  0  0
   41.2160   31.8160   41.7030 O   0  0  0  0  0  0  0  0  0  0  0  0
   39.8130   31.3120   41.4030 P   0  0  1  0  0  0  0  0  0  0  0  0
   39.8780   30.2630   40.0850 O   0  0  0  0  0  0  0  0  0  0  0  0
   40.2380   30.6670   39.2770 H   0  0  0  0  0  0  0  0  0  0  0  0
   38.7970   32.6350   41.1090 O   0  0  0  0  0  0  0  0  0  0  0  0
   38.9830   33.6330   40.1980 C   0  0  0  0  0  0  0  0  0  0  0  0
   38.7220   34.5910   40.6670 H   0  0  0  0  0  0  0  0  0  0  0  0
   39.3850   33.0550   39.1680 O   0  0  0  0  0  0  0  0  0  0  0  0
  1  6  2  0  0  0  0
  1  2  1  0  0  0  0
  2  3  2  0  0  0  0
  3  4  1  0  0  0  0
  3  8  1  0  0  0  0
  4  9  1  0  0  0  0
  5 19  1  0  0  0  0
  5  4  2  0  0  0  0
  6  5  1  0  0  0  0
  7  2  1  0  0  0  0
 10 11  1  0  0  0  0
 11 12  2  0  0  0  0
 11 17  1  0  0  0  0
 12  1  1  0  0  0  0
 13 12  1  0  0  0  0
 14 13  2  0  0  0  0
 15 14  1  0  0  0  0
 15 10  2  0  0  0  0
 16 10  1  0  0  0  0
 18 14  1  0  0  0  0
 21 20  2  1  0  0  0
 21 19  1  0  0  0  0
 22 21  1  0  0  0  0
 23 22  1  0  0  0  0
 24 21  1  0  0  0  0
 25 26  1  0  0  0  0
 25 24  1  0  0  0  0
 27 25  2  0  0  0  0
M  END
>  <minimizedAffinity>
-4.38444662

$$$$
