
 OpenBabel03252507293D

 39 41  0  0  1  0  0  0  0  0999 V2000
   47.4030   32.0410   46.5330 C   0  0  2  0  0  0  0  0  0  0  0  0
   46.9600   30.6130   46.2670 C   0  0  0  0  0  0  0  0  0  0  0  0
   47.7960   29.6860   47.1010 C   0  0  0  0  0  0  0  0  0  0  0  0
   47.8850   30.0610   48.5400 C   0  0  0  0  0  0  0  0  0  0  0  0
   48.1710   31.4950   48.7420 C   0  0  0  0  0  0  0  0  0  0  0  0
   47.2050   32.3640   47.9600 C   0  0  2  0  0  0  0  0  0  0  0  0
   48.4890   32.0490   46.2920 H   0  0  0  0  0  0  0  0  0  0  0  0
   47.3090   30.4290   45.1940 H   0  0  0  0  0  0  0  0  0  0  0  0
   45.8920   30.4440   46.2700 H   0  0  0  0  0  0  0  0  0  0  0  0
   48.8410   29.7170   46.6910 H   0  0  0  0  0  0  0  0  0  0  0  0
   47.4770   28.6360   47.0030 H   0  0  0  0  0  0  0  0  0  0  0  0
   46.9540   29.7780   49.0890 H   0  0  0  0  0  0  0  0  0  0  0  0
   48.7010   29.4460   48.9850 H   0  0  0  0  0  0  0  0  0  0  0  0
   49.1910   31.7700   48.4020 H   0  0  0  0  0  0  0  0  0  0  0  0
   48.1150   31.7260   49.8360 H   0  0  0  0  0  0  0  0  0  0  0  0
   47.5610   33.3920   48.2380 H   0  0  0  0  0  0  0  0  0  0  0  0
   46.7640   33.0060   45.6450 C   0  0  0  0  0  0  0  0  0  0  0  0
   45.6330   33.6810   46.1070 C   0  0  0  0  0  0  0  0  0  0  0  0
   44.9990   34.6050   45.2410 C   0  0  0  0  0  0  0  0  0  0  0  0
   45.5550   34.7770   43.9810 N   0  0  0  0  0  0  0  0  0  0  0  0
   46.6530   34.0860   43.6080 C   0  0  0  0  0  0  0  0  0  0  0  0
   47.2550   33.2130   44.4190 N   0  0  0  0  0  0  0  0  0  0  0  0
   45.1260   33.6660   47.0100 H   0  0  0  0  0  0  0  0  0  0  0  0
   44.1240   35.1940   45.4580 H   0  0  0  0  0  0  0  0  0  0  0  0
   47.1840   34.3190   42.2610 C   0  0  0  0  0  0  0  0  0  0  0  0
   48.2030   35.1790   42.0200 C   0  0  0  0  0  0  0  0  0  0  0  0
   48.7290   35.4270   40.7730 C   0  0  0  0  0  0  0  0  0  0  0  0
   48.1570   34.7420   39.7370 C   0  0  0  0  0  0  0  0  0  0  0  0
   47.1130   33.8550   39.9480 C   0  0  0  0  0  0  0  0  0  0  0  0
   46.6190   33.6370   41.2080 N   0  0  0  0  0  0  0  0  0  0  0  0
   48.6020   35.6810   42.8850 H   0  0  0  0  0  0  0  0  0  0  0  0
   49.5370   36.1230   40.6660 H   0  0  0  0  0  0  0  0  0  0  0  0
   48.5520   34.9190   38.7380 H   0  0  0  0  0  0  0  0  0  0  0  0
   46.7250   33.3620   39.0840 H   0  0  0  0  0  0  0  0  0  0  0  0
   45.8760   32.1450   48.3940 N   0  0  0  0  0  0  0  0  0  0  0  0
   45.1490   32.5950   47.7760 H   0  0  0  0  0  0  0  0  0  0  0  0
   45.1830   31.4600   49.4640 C   0  0  0  0  0  0  0  0  0  0  0  0
   44.9310   31.8960   50.4090 H   0  0  0  0  0  0  0  0  0  0  0  0
   44.8850   30.2500   49.1800 O   0  0  0  0  0  0  0  0  0  0  0  0
  1  7  1  6  0  0  0
  1  6  1  0  0  0  0
  2  9  1  0  0  0  0
  2  1  1  0  0  0  0
  2  3  1  0  0  0  0
  3  4  1  0  0  0  0
  4  5  1  0  0  0  0
  4 13  1  0  0  0  0
  4 12  1  0  0  0  0
  5 15  1  0  0  0  0
  6 16  1  1  0  0  0
  6 35  1  0  0  0  0
  6  5  1  0  0  0  0
  8  2  1  0  0  0  0
 10  3  1  0  0  0  0
 11  3  1  0  0  0  0
 14  5  1  0  0  0  0
 17 18  1  0  0  0  0
 17  1  1  0  0  0  0
 18 23  1  0  0  0  0
 19 24  1  0  0  0  0
 19 18  2  0  0  0  0
 20 19  1  0  0  0  0
 21 20  2  0  0  0  0
 21 22  1  0  0  0  0
 22 17  2  0  0  0  0
 25 21  1  0  0  0  0
 26 25  1  0  0  0  0
 26 31  1  0  0  0  0
 27 26  2  0  0  0  0
 28 29  2  0  0  0  0
 28 27  1  0  0  0  0
 29 30  1  0  0  0  0
 30 25  2  0  0  0  0
 32 27  1  0  0  0  0
 33 28  1  0  0  0  0
 34 29  1  0  0  0  0
 35 37  1  0  0  0  0
 36 35  1  0  0  0  0
 37 38  1  0  0  0  0
 39 37  2  0  0  0  0
M  END
>  <minimizedAffinity>
-6.02109003

>  <minimizedRMSD>
1.22284067

$$$$
