
 OpenBabel03252500543D

 24 24  0  0  0  0  0  0  0  0999 V2000
   46.4010   34.1530   41.9160 C   0  0  0  0  0  0  0  0  0  0  0  0
   45.2230   34.6760   42.4020 C   0  0  0  0  0  0  0  0  0  0  0  0
   45.0180   34.6360   43.7950 C   0  0  0  0  0  0  0  0  0  0  0  0
   45.9850   34.0900   44.5590 N   0  0  0  0  0  0  0  0  0  0  0  0
   47.1210   33.5880   44.0570 C   0  0  0  0  0  0  0  0  0  0  0  0
   47.3170   33.6250   42.7400 N   0  0  0  0  0  0  0  0  0  0  0  0
   44.0870   35.0530   44.1550 H   0  0  0  0  0  0  0  0  0  0  0  0
   47.8650   33.1610   44.7170 H   0  0  0  0  0  0  0  0  0  0  0  0
   46.6800   34.1610   40.4780 C   0  0  0  0  0  0  0  0  0  0  0  0
   46.4750   33.1730   40.0200 H   0  0  0  0  0  0  0  0  0  0  0  0
   45.9980   34.8830   39.9610 H   0  0  0  0  0  0  0  0  0  0  0  0
   48.0920   34.6100   40.2510 C   0  0  0  0  0  0  0  0  0  0  0  0
   48.5700   34.9220   41.2100 H   0  0  0  0  0  0  0  0  0  0  0  0
   48.1420   35.4130   39.4880 H   0  0  0  0  0  0  0  0  0  0  0  0
   48.6770   33.7450   39.8810 H   0  0  0  0  0  0  0  0  0  0  0  0
   44.3310   35.2020   41.4820 O   0  0  0  0  0  0  0  0  0  0  0  0
   42.4490   33.3630   41.4670 O   0  0  0  0  0  0  0  0  0  0  0  0
   42.6920   34.8670   41.3480 P   0  0  1  0  0  0  0  0  0  0  0  0
   41.8970   35.6270   42.6520 O   0  0  0  0  0  0  0  0  0  0  0  0
   41.8480   36.6070   42.4690 H   0  0  0  0  0  0  0  0  0  0  0  0
   41.9960   35.4640   39.9300 O   0  0  0  0  0  0  0  0  0  0  0  0
   40.6610   35.7070   39.7090 C   0  0  0  0  0  0  0  0  0  0  0  0
   40.2940   35.2000   38.8100 H   0  0  0  0  0  0  0  0  0  0  0  0
   40.1050   36.4620   40.5730 O   0  0  0  0  0  0  0  0  0  0  0  0
  1  2  2  0  0  0  0
  1  6  1  0  0  0  0
  2  3  1  0  0  0  0
  3  7  1  0  0  0  0
  3  4  2  0  0  0  0
  5  4  1  0  0  0  0
  5  8  1  0  0  0  0
  6  5  2  0  0  0  0
  9  1  1  0  0  0  0
 10  9  1  0  0  0  0
 11  9  1  0  0  0  0
 12  9  1  0  0  0  0
 12 13  1  0  0  0  0
 14 12  1  0  0  0  0
 15 12  1  0  0  0  0
 16  2  1  0  0  0  0
 18 17  2  1  0  0  0
 18 16  1  0  0  0  0
 18 19  1  0  0  0  0
 20 19  1  0  0  0  0
 21 18  1  0  0  0  0
 22 21  1  0  0  0  0
 22 24  2  0  0  0  0
 23 22  1  0  0  0  0
M  END
>  <minimizedAffinity>
-4.12168646

>  <minimizedRMSD>
1.74256063

$$$$
