
 OpenBabel03252508483D

 20 21  0  0  0  0  0  0  0  0999 V2000
   46.0800   34.1470   41.0050 C   0  0  0  0  0  0  0  0  0  0  0  0
   46.6210   34.8320   42.1030 C   0  0  0  0  0  0  0  0  0  0  0  0
   47.9380   35.2820   41.9870 C   0  0  0  0  0  0  0  0  0  0  0  0
   48.6100   35.0330   40.8290 N   0  0  0  0  0  0  0  0  0  0  0  0
   48.0550   34.3750   39.8050 C   0  0  0  0  0  0  0  0  0  0  0  0
   46.7750   33.9210   39.8800 N   0  0  0  0  0  0  0  0  0  0  0  0
   48.3610   35.8130   42.8370 H   0  0  0  0  0  0  0  0  0  0  0  0
   48.6810   34.2370   38.9420 H   0  0  0  0  0  0  0  0  0  0  0  0
   45.8120   35.0420   43.2940 C   0  0  0  0  0  0  0  0  0  0  0  0
   45.0500   36.1810   43.4950 C   0  0  0  0  0  0  0  0  0  0  0  0
   44.4620   35.9620   44.7240 C   0  0  0  0  0  0  0  0  0  0  0  0
   44.8400   34.7720   45.2380 N   0  0  0  0  0  0  0  0  0  0  0  0
   45.6520   34.2440   44.3530 N   0  0  0  0  0  0  0  0  0  0  0  0
   44.9550   37.0280   42.8290 H   0  0  0  0  0  0  0  0  0  0  0  0
   43.7840   36.7130   45.1600 H   0  0  0  0  0  0  0  0  0  0  0  0
   44.4890   34.4590   46.1520 H   0  0  0  0  0  0  0  0  0  0  0  0
   44.7760   33.6960   41.1130 O   0  0  0  0  0  0  0  0  0  0  0  0
   43.7130   34.2210   40.4040 C   0  0  0  0  0  0  0  0  0  0  0  0
   43.3130   33.4250   39.7540 H   0  0  0  0  0  0  0  0  0  0  0  0
   43.2260   35.3810   40.4330 O   0  0  0  0  0  0  0  0  0  0  0  0
  1 17  1  0  0  0  0
  1  2  1  0  0  0  0
  2  9  1  0  0  0  0
  3  2  2  0  0  0  0
  3  7  1  0  0  0  0
  4  3  1  0  0  0  0
  5  6  1  0  0  0  0
  5  4  2  0  0  0  0
  6  1  2  0  0  0  0
  8  5  1  0  0  0  0
  9 10  1  0  0  0  0
  9 13  2  0  0  0  0
 10 11  2  0  0  0  0
 11 15  1  0  0  0  0
 11 12  1  0  0  0  0
 12 16  1  0  0  0  0
 13 12  1  0  0  0  0
 14 10  1  0  0  0  0
 18 20  2  0  0  0  0
 18 17  1  0  0  0  0
 19 18  1  0  0  0  0
M  END
>  <minimizedAffinity>
-4.3197546

>  <minimizedRMSD>
5.75274563

$$$$
