
 OpenBabel03242512543D

 23 23  0  0  0  0  0  0  0  0999 V2000
   45.2870   40.2650   44.3850 C   0  0  0  0  0  0  0  0  0  0  0  0
   46.2480   40.7830   44.2050 H   0  0  0  0  0  0  0  0  0  0  0  0
   44.5550   40.7850   43.6990 H   0  0  0  0  0  0  0  0  0  0  0  0
   44.9040   37.8440   44.6530 C   0  0  0  0  0  0  0  0  0  0  0  0
   45.3210   38.8630   43.9060 C   0  0  0  0  0  0  0  0  0  0  0  0
   44.9740   36.5010   44.1020 C   0  0  0  0  0  0  0  0  0  0  0  0
   45.0260   36.3910   42.6920 C   0  0  0  0  0  0  0  0  0  0  0  0
   45.0930   35.1070   42.1150 C   0  0  0  0  0  0  0  0  0  0  0  0
   45.1060   34.0330   42.9630 N   0  0  0  0  0  0  0  0  0  0  0  0
   45.0550   34.1840   44.3120 C   0  0  0  0  0  0  0  0  0  0  0  0
   44.9900   35.4000   44.8530 N   0  0  0  0  0  0  0  0  0  0  0  0
   45.0170   37.2120   42.0010 H   0  0  0  0  0  0  0  0  0  0  0  0
   45.1340   34.9900   41.0410 H   0  0  0  0  0  0  0  0  0  0  0  0
   45.0660   33.3120   44.9580 H   0  0  0  0  0  0  0  0  0  0  0  0
   44.7890   40.3900   45.6460 O   0  0  0  0  0  0  0  0  0  0  0  0
   42.8220   42.0660   45.7080 O   0  0  0  0  0  0  0  0  0  0  0  0
   44.3050   41.9680   45.9960 P   0  0  1  0  0  0  0  0  0  0  0  0
   44.6020   42.3420   47.6020 O   0  0  0  0  0  0  0  0  0  0  0  0
   44.4070   43.2890   47.7710 H   0  0  0  0  0  0  0  0  0  0  0  0
   45.0920   43.1100   45.0430 O   0  0  0  0  0  0  0  0  0  0  0  0
   45.0330   44.4600   45.4200 C   0  0  0  0  0  0  0  0  0  0  0  0
   44.1020   44.9950   45.2930 H   0  0  0  0  0  0  0  0  0  0  0  0
   46.0400   45.0460   45.8960 O   0  0  0  0  0  0  0  0  0  0  0  0
  1 15  1  0  0  0  0
  2  1  1  0  0  0  0
  3  1  1  0  0  0  0
  5  1  1  0  0  0  0
  5  4  2  0  0  0  0
  6  4  1  0  0  0  0
  6 11  1  0  0  0  0
  7  6  2  0  0  0  0
  8  7  1  0  0  0  0
  8  9  2  0  0  0  0
  9 10  1  0  0  0  0
 10 11  2  0  0  0  0
 10 14  1  0  0  0  0
 12  7  1  0  0  0  0
 13  8  1  0  0  0  0
 15 17  1  0  0  0  0
 17 16  2  6  0  0  0
 17 18  1  0  0  0  0
 18 19  1  0  0  0  0
 20 21  1  0  0  0  0
 20 17  1  0  0  0  0
 21 23  2  0  0  0  0
 22 21  1  0  0  0  0
M  END
>  <minimizedAffinity>
-2.32287383

>  <minimizedRMSD>
0.660947919

$$$$
