
 OpenBabel03252506473D

 36 38  0  0  1  0  0  0  0  0999 V2000
   37.1320   30.8300   41.0710 N   0  0  1  0  0  0  0  0  0  0  0  0
   36.0480   30.5540   40.1690 C   0  0  0  0  0  0  0  0  0  0  0  0
   35.2970   29.2870   40.4590 C   0  0  0  0  0  0  0  0  0  0  0  0
   36.2050   28.1030   40.2440 C   0  0  0  0  0  0  0  0  0  0  0  0
   37.6240   28.4300   40.6390 C   0  0  0  0  0  0  0  0  0  0  0  0
   37.6160   29.5800   41.6100 C   0  0  2  0  0  0  0  0  0  0  0  0
   35.3350   31.4020   40.2580 H   0  0  0  0  0  0  0  0  0  0  0  0
   36.3470   30.5240   39.1140 H   0  0  0  0  0  0  0  0  0  0  0  0
   34.5200   29.2330   39.6310 H   0  0  0  0  0  0  0  0  0  0  0  0
   34.7030   29.2760   41.3680 H   0  0  0  0  0  0  0  0  0  0  0  0
   35.8250   27.2830   40.9160 H   0  0  0  0  0  0  0  0  0  0  0  0
   36.1160   27.7190   39.2290 H   0  0  0  0  0  0  0  0  0  0  0  0
   38.1060   27.5890   41.1360 H   0  0  0  0  0  0  0  0  0  0  0  0
   38.1440   28.7530   39.7230 H   0  0  0  0  0  0  0  0  0  0  0  0
   38.6840   29.7700   41.8540 H   0  0  0  0  0  0  0  0  0  0  0  0
   38.8090   32.7850   40.8970 C   0  0  1  0  0  0  0  0  0  0  0  0
   37.7040   32.9580   39.9630 C   0  0  0  0  0  0  0  0  0  0  0  0
   38.1080   31.5720   40.3300 C   0  0  2  0  0  0  0  0  0  0  0  0
   38.6730   32.8400   42.0090 H   0  0  0  0  0  0  0  0  0  0  0  0
   36.7420   33.3610   40.3680 H   0  0  0  0  0  0  0  0  0  0  0  0
   37.9500   33.3710   38.9520 H   0  0  0  0  0  0  0  0  0  0  0  0
   38.7060   31.0120   39.5880 H   0  0  0  0  0  0  0  0  0  0  0  0
   41.2690   32.3350   41.1010 C   0  0  0  0  0  0  0  0  0  0  0  0
   40.2040   33.0490   40.4870 C   0  0  0  0  0  0  0  0  0  0  0  0
   40.5210   33.9860   39.5060 C   0  0  0  0  0  0  0  0  0  0  0  0
   41.8280   34.1590   39.1980 N   0  0  0  0  0  0  0  0  0  0  0  0
   42.8300   33.4800   39.7830 C   0  0  0  0  0  0  0  0  0  0  0  0
   42.5590   32.5570   40.7450 N   0  0  0  0  0  0  0  0  0  0  0  0
   40.9720   31.6180   41.8580 H   0  0  0  0  0  0  0  0  0  0  0  0
   39.7310   34.5440   39.0220 H   0  0  0  0  0  0  0  0  0  0  0  0
   43.8350   33.7050   39.4540 H   0  0  0  0  0  0  0  0  0  0  0  0
   36.9500   29.1790   42.8180 N   0  0  0  0  0  0  0  0  0  0  0  0
   36.0700   29.2890   43.3280 H   0  0  0  0  0  0  0  0  0  0  0  0
   37.6950   28.3240   43.6800 C   0  0  0  0  0  0  0  0  0  0  0  0
   37.4480   27.8650   44.6550 H   0  0  0  0  0  0  0  0  0  0  0  0
   38.8780   27.8550   43.5370 O   0  0  0  0  0  0  0  0  0  0  0  0
  1  2  1  6  0  0  0
  1  6  1  0  0  0  0
  2  7  1  0  0  0  0
  2  3  1  0  0  0  0
  3 10  1  0  0  0  0
  4  3  1  0  0  0  0
  4  5  1  0  0  0  0
  4 11  1  0  0  0  0
  5 13  1  0  0  0  0
  5  6  1  0  0  0  0
  6 15  1  1  0  0  0
  6 32  1  0  0  0  0
  8  2  1  0  0  0  0
  9  3  1  0  0  0  0
 12  4  1  0  0  0  0
 14  5  1  0  0  0  0
 16 19  1  1  0  0  0
 17 18  1  0  0  0  0
 17 20  1  0  0  0  0
 17 16  1  0  0  0  0
 18 22  1  6  0  0  0
 18 16  1  0  0  0  0
 18  1  1  0  0  0  0
 21 17  1  0  0  0  0
 23 29  1  0  0  0  0
 24 16  1  0  0  0  0
 24 23  2  0  0  0  0
 25 24  1  0  0  0  0
 26 25  2  0  0  0  0
 26 27  1  0  0  0  0
 27 28  2  0  0  0  0
 28 23  1  0  0  0  0
 30 25  1  0  0  0  0
 31 27  1  0  0  0  0
 32 33  1  0  0  0  0
 32 34  1  0  0  0  0
 34 35  1  0  0  0  0
 36 34  2  0  0  0  0
M  END
>  <minimizedAffinity>
-4.89958668

$$$$

 OpenBabel03252506473D

 36 38  0  0  1  0  0  0  0  0999 V2000
   36.8840   29.7600   40.9040 N   0  0  1  0  0  0  0  0  0  0  0  0
   37.3680   31.1140   40.9290 C   0  0  0  0  0  0  0  0  0  0  0  0
   36.9500   31.9510   39.7550 C   0  0  0  0  0  0  0  0  0  0  0  0
   37.5810   31.4070   38.4980 C   0  0  0  0  0  0  0  0  0  0  0  0
   37.6830   29.9030   38.5510 C   0  0  0  0  0  0  0  0  0  0  0  0
   36.6680   29.3710   39.5290 C   0  0  2  0  0  0  0  0  0  0  0  0
   36.9540   31.5840   41.8480 H   0  0  0  0  0  0  0  0  0  0  0  0
   38.4580   31.1930   41.0160 H   0  0  0  0  0  0  0  0  0  0  0  0
   37.4520   32.9540   39.9410 H   0  0  0  0  0  0  0  0  0  0  0  0
   35.8950   32.2020   39.6920 H   0  0  0  0  0  0  0  0  0  0  0  0
   36.8970   31.6910   37.6490 H   0  0  0  0  0  0  0  0  0  0  0  0
   38.5300   31.8970   38.2910 H   0  0  0  0  0  0  0  0  0  0  0  0
   37.4680   29.4510   37.5840 H   0  0  0  0  0  0  0  0  0  0  0  0
   38.6890   29.6640   38.9310 H   0  0  0  0  0  0  0  0  0  0  0  0
   36.8010   28.2670   39.5230 H   0  0  0  0  0  0  0  0  0  0  0  0
   37.4630   27.9800   42.6810 C   0  0  1  0  0  0  0  0  0  0  0  0
   38.0070   29.2820   43.0470 C   0  0  0  0  0  0  0  0  0  0  0  0
   37.8490   28.9640   41.6000 C   0  0  2  0  0  0  0  0  0  0  0  0
   36.3610   27.7720   42.6550 H   0  0  0  0  0  0  0  0  0  0  0  0
   37.3090   30.0220   43.5120 H   0  0  0  0  0  0  0  0  0  0  0  0
   39.0220   29.2970   43.5160 H   0  0  0  0  0  0  0  0  0  0  0  0
   38.7650   28.6870   41.0460 H   0  0  0  0  0  0  0  0  0  0  0  0
   37.8540   25.5520   42.1830 C   0  0  0  0  0  0  0  0  0  0  0  0
   38.2650   26.7490   42.8320 C   0  0  0  0  0  0  0  0  0  0  0  0
   39.4260   26.7120   43.6000 C   0  0  0  0  0  0  0  0  0  0  0  0
   40.0940   25.5370   43.6800 N   0  0  0  0  0  0  0  0  0  0  0  0
   39.6990   24.4100   43.0630 C   0  0  0  0  0  0  0  0  0  0  0  0
   38.5690   24.4060   42.3040 N   0  0  0  0  0  0  0  0  0  0  0  0
   36.9440   25.6310   41.5980 H   0  0  0  0  0  0  0  0  0  0  0  0
   39.7630   27.6070   44.1050 H   0  0  0  0  0  0  0  0  0  0  0  0
   40.3130   23.5310   43.2000 H   0  0  0  0  0  0  0  0  0  0  0  0
   35.3460   29.6620   39.0490 N   0  0  0  0  0  0  0  0  0  0  0  0
   34.6420   30.4040   39.0280 H   0  0  0  0  0  0  0  0  0  0  0  0
   34.7010   28.6100   38.3380 C   0  0  0  0  0  0  0  0  0  0  0  0
   33.7050   28.5450   37.8640 H   0  0  0  0  0  0  0  0  0  0  0  0
   35.1260   27.4350   38.0600 O   0  0  0  0  0  0  0  0  0  0  0  0
  1  2  1  6  0  0  0
  1 18  1  0  0  0  0
  2  8  1  0  0  0  0
  2  7  1  0  0  0  0
  3  9  1  0  0  0  0
  3  2  1  0  0  0  0
  4  5  1  0  0  0  0
  4  3  1  0  0  0  0
  5 14  1  0  0  0  0
  5  6  1  0  0  0  0
  6 15  1  6  0  0  0
  6  1  1  0  0  0  0
 10  3  1  0  0  0  0
 11  4  1  0  0  0  0
 12  4  1  0  0  0  0
 13  5  1  0  0  0  0
 16 19  1  1  0  0  0
 16 24  1  0  0  0  0
 16 17  1  0  0  0  0
 17 20  1  0  0  0  0
 17 21  1  0  0  0  0
 18 22  1  6  0  0  0
 18 16  1  0  0  0  0
 18 17  1  0  0  0  0
 23 28  2  0  0  0  0
 23 24  1  0  0  0  0
 24 25  2  0  0  0  0
 25 26  1  0  0  0  0
 25 30  1  0  0  0  0
 27 31  1  0  0  0  0
 27 26  2  0  0  0  0
 28 27  1  0  0  0  0
 29 23  1  0  0  0  0
 32  6  1  0  0  0  0
 33 32  1  0  0  0  0
 34 32  1  0  0  0  0
 35 34  1  0  0  0  0
 36 34  2  0  0  0  0
M  END
>  <minimizedAffinity>
-4.67261696

$$$$

 OpenBabel03252506473D

 36 38  0  0  1  0  0  0  0  0999 V2000
   37.7710   31.4830   39.4950 N   0  0  1  0  0  0  0  0  0  0  0  0
   37.0050   32.6060   39.9610 C   0  0  0  0  0  0  0  0  0  0  0  0
   37.5590   33.9470   39.5770 C   0  0  0  0  0  0  0  0  0  0  0  0
   38.8870   34.1590   40.2600 C   0  0  0  0  0  0  0  0  0  0  0  0
   39.6460   32.8600   40.3780 C   0  0  0  0  0  0  0  0  0  0  0  0
   39.1470   31.8960   39.3340 C   0  0  2  0  0  0  0  0  0  0  0  0
   35.9930   32.5130   39.5080 H   0  0  0  0  0  0  0  0  0  0  0  0
   36.8480   32.6150   41.0460 H   0  0  0  0  0  0  0  0  0  0  0  0
   36.8440   34.6880   40.0590 H   0  0  0  0  0  0  0  0  0  0  0  0
   37.5170   34.2030   38.5220 H   0  0  0  0  0  0  0  0  0  0  0  0
   39.4750   34.8600   39.6040 H   0  0  0  0  0  0  0  0  0  0  0  0
   38.7620   34.6740   41.2100 H   0  0  0  0  0  0  0  0  0  0  0  0
   40.7120   33.0020   40.2040 H   0  0  0  0  0  0  0  0  0  0  0  0
   39.4170   32.4450   41.3720 H   0  0  0  0  0  0  0  0  0  0  0  0
   39.7410   30.9680   39.4800 H   0  0  0  0  0  0  0  0  0  0  0  0
   36.4780   29.3990   40.2990 C   0  0  1  0  0  0  0  0  0  0  0  0
   36.3150   30.5090   41.2300 C   0  0  0  0  0  0  0  0  0  0  0  0
   37.5770   30.4280   40.4420 C   0  0  2  0  0  0  0  0  0  0  0  0
   36.0520   29.4140   39.2620 H   0  0  0  0  0  0  0  0  0  0  0  0
   35.5680   31.3000   40.9660 H   0  0  0  0  0  0  0  0  0  0  0  0
   36.3110   30.2630   42.3210 H   0  0  0  0  0  0  0  0  0  0  0  0
   38.4740   30.0580   40.9720 H   0  0  0  0  0  0  0  0  0  0  0  0
   36.7550   27.7640   42.1820 C   0  0  0  0  0  0  0  0  0  0  0  0
   36.7300   28.0270   40.7850 C   0  0  0  0  0  0  0  0  0  0  0  0
   36.9490   26.9630   39.9140 C   0  0  0  0  0  0  0  0  0  0  0  0
   37.1720   25.7410   40.4530 N   0  0  0  0  0  0  0  0  0  0  0  0
   37.1940   25.5000   41.7750 C   0  0  0  0  0  0  0  0  0  0  0  0
   36.9840   26.5150   42.6570 N   0  0  0  0  0  0  0  0  0  0  0  0
   36.5800   28.6240   42.8200 H   0  0  0  0  0  0  0  0  0  0  0  0
   36.9360   27.1330   38.8460 H   0  0  0  0  0  0  0  0  0  0  0  0
   37.3830   24.4830   42.0870 H   0  0  0  0  0  0  0  0  0  0  0  0
   39.4440   32.4120   38.0270 N   0  0  0  0  0  0  0  0  0  0  0  0
   39.0710   33.0270   37.3000 H   0  0  0  0  0  0  0  0  0  0  0  0
   40.6710   31.9730   37.4540 C   0  0  0  0  0  0  0  0  0  0  0  0
   41.1520   32.1960   36.4840 H   0  0  0  0  0  0  0  0  0  0  0  0
   41.5560   31.1810   37.9320 O   0  0  0  0  0  0  0  0  0  0  0  0
  1  2  1  1  0  0  0
  1 18  1  0  0  0  0
  2  8  1  0  0  0  0
  3  2  1  0  0  0  0
  3  9  1  0  0  0  0
  3  4  1  0  0  0  0
  4  5  1  0  0  0  0
  4 12  1  0  0  0  0
  5 14  1  0  0  0  0
  6 15  1  1  0  0  0
  6  1  1  0  0  0  0
  6  5  1  0  0  0  0
  7  2  1  0  0  0  0
 10  3  1  0  0  0  0
 11  4  1  0  0  0  0
 13  5  1  0  0  0  0
 16 19  1  6  0  0  0
 16 18  1  0  0  0  0
 16 24  1  0  0  0  0
 16 17  1  0  0  0  0
 17 21  1  0  0  0  0
 18 22  1  1  0  0  0
 18 17  1  0  0  0  0
 20 17  1  0  0  0  0
 23 28  1  0  0  0  0
 23 29  1  0  0  0  0
 24 23  2  0  0  0  0
 25 26  2  0  0  0  0
 25 24  1  0  0  0  0
 26 27  1  0  0  0  0
 27 31  1  0  0  0  0
 27 28  2  0  0  0  0
 30 25  1  0  0  0  0
 32  6  1  0  0  0  0
 33 32  1  0  0  0  0
 34 36  2  0  0  0  0
 34 32  1  0  0  0  0
 35 34  1  0  0  0  0
M  END
>  <minimizedAffinity>
-4.61583233

$$$$

 OpenBabel03252506473D

 36 38  0  0  1  0  0  0  0  0999 V2000
   38.2780   26.4290   42.3160 N   0  0  1  0  0  0  0  0  0  0  0  0
   37.2700   25.4330   42.0730 C   0  0  0  0  0  0  0  0  0  0  0  0
   37.7800   24.0220   42.0290 C   0  0  0  0  0  0  0  0  0  0  0  0
   38.6920   23.8520   40.8410 C   0  0  0  0  0  0  0  0  0  0  0  0
   39.4790   25.1130   40.5790 C   0  0  0  0  0  0  0  0  0  0  0  0
   39.5480   25.9260   41.8450 C   0  0  2  0  0  0  0  0  0  0  0  0
   36.5400   25.5070   42.9090 H   0  0  0  0  0  0  0  0  0  0  0  0
   36.6920   25.6020   41.1560 H   0  0  0  0  0  0  0  0  0  0  0  0
   36.8540   23.4030   41.7970 H   0  0  0  0  0  0  0  0  0  0  0  0
   38.1340   23.6070   42.9680 H   0  0  0  0  0  0  0  0  0  0  0  0
   39.4110   23.0280   41.1050 H   0  0  0  0  0  0  0  0  0  0  0  0
   38.1420   23.4990   39.9700 H   0  0  0  0  0  0  0  0  0  0  0  0
   40.5030   24.8910   40.2810 H   0  0  0  0  0  0  0  0  0  0  0  0
   38.9190   25.6890   39.8260 H   0  0  0  0  0  0  0  0  0  0  0  0
   40.1330   26.8340   41.5820 H   0  0  0  0  0  0  0  0  0  0  0  0
   37.5660   28.9080   42.4250 C   0  0  1  0  0  0  0  0  0  0  0  0
   36.4550   28.0610   42.0090 C   0  0  0  0  0  0  0  0  0  0  0  0
   37.8380   27.6280   41.6680 C   0  0  2  0  0  0  0  0  0  0  0  0
   38.0070   28.8620   43.4560 H   0  0  0  0  0  0  0  0  0  0  0  0
   35.9010   27.5060   42.8070 H   0  0  0  0  0  0  0  0  0  0  0  0
   35.7760   28.4640   41.2170 H   0  0  0  0  0  0  0  0  0  0  0  0
   38.1680   27.7840   40.6240 H   0  0  0  0  0  0  0  0  0  0  0  0
   36.8110   30.8340   41.0050 C   0  0  0  0  0  0  0  0  0  0  0  0
   37.8380   30.1950   41.7530 C   0  0  0  0  0  0  0  0  0  0  0  0
   39.0810   30.8180   41.8240 C   0  0  0  0  0  0  0  0  0  0  0  0
   39.2350   31.9960   41.1740 N   0  0  0  0  0  0  0  0  0  0  0  0
   38.2590   32.5940   40.4690 C   0  0  0  0  0  0  0  0  0  0  0  0
   37.0310   32.0160   40.3780 N   0  0  0  0  0  0  0  0  0  0  0  0
   35.8610   30.3110   40.9800 H   0  0  0  0  0  0  0  0  0  0  0  0
   39.8810   30.3550   42.3850 H   0  0  0  0  0  0  0  0  0  0  0  0
   38.5010   33.5330   39.9930 H   0  0  0  0  0  0  0  0  0  0  0  0
   40.2830   25.1980   42.8400 N   0  0  0  0  0  0  0  0  0  0  0  0
   40.4360   24.2510   43.1970 H   0  0  0  0  0  0  0  0  0  0  0  0
   41.1290   25.9780   43.6790 C   0  0  0  0  0  0  0  0  0  0  0  0
   41.7980   25.7000   44.5130 H   0  0  0  0  0  0  0  0  0  0  0  0
   41.3340   27.2430   43.6780 O   0  0  0  0  0  0  0  0  0  0  0  0
  1  2  1  6  0  0  0
  2  7  1  0  0  0  0
  3  2  1  0  0  0  0
  3 10  1  0  0  0  0
  4 11  1  0  0  0  0
  4  3  1  0  0  0  0
  5  4  1  0  0  0  0
  5  6  1  0  0  0  0
  6 15  1  6  0  0  0
  6  1  1  0  0  0  0
  6 32  1  0  0  0  0
  8  2  1  0  0  0  0
  9  3  1  0  0  0  0
 12  4  1  0  0  0  0
 13  5  1  0  0  0  0
 14  5  1  0  0  0  0
 16 19  1  1  0  0  0
 17 16  1  0  0  0  0
 17 20  1  0  0  0  0
 18 22  1  6  0  0  0
 18 17  1  0  0  0  0
 18  1  1  0  0  0  0
 18 16  1  0  0  0  0
 21 17  1  0  0  0  0
 23 24  1  0  0  0  0
 24 25  2  0  0  0  0
 24 16  1  0  0  0  0
 25 30  1  0  0  0  0
 26 25  1  0  0  0  0
 27 26  2  0  0  0  0
 28 27  1  0  0  0  0
 28 23  2  0  0  0  0
 29 23  1  0  0  0  0
 31 27  1  0  0  0  0
 32 33  1  0  0  0  0
 32 34  1  0  0  0  0
 34 35  1  0  0  0  0
 36 34  2  0  0  0  0
M  END
>  <minimizedAffinity>
-4.55672455

$$$$

 OpenBabel03252506473D

 36 38  0  0  1  0  0  0  0  0999 V2000
   38.2570   26.5370   42.2230 N   0  0  1  0  0  0  0  0  0  0  0  0
   37.2740   25.5080   42.0180 C   0  0  0  0  0  0  0  0  0  0  0  0
   37.8250   24.1130   41.9790 C   0  0  0  0  0  0  0  0  0  0  0  0
   38.7120   23.9540   40.7700 C   0  0  0  0  0  0  0  0  0  0  0  0
   39.4550   25.2340   40.4740 C   0  0  0  0  0  0  0  0  0  0  0  0
   39.5300   26.0660   41.7270 C   0  0  2  0  0  0  0  0  0  0  0  0
   36.5630   25.5710   42.8710 H   0  0  0  0  0  0  0  0  0  0  0  0
   36.6690   25.6470   41.1140 H   0  0  0  0  0  0  0  0  0  0  0  0
   36.9130   23.4630   41.7780 H   0  0  0  0  0  0  0  0  0  0  0  0
   38.2150   23.7210   42.9140 H   0  0  0  0  0  0  0  0  0  0  0  0
   39.4620   23.1550   41.0270 H   0  0  0  0  0  0  0  0  0  0  0  0
   38.1520   23.5730   39.9180 H   0  0  0  0  0  0  0  0  0  0  0  0
   40.4770   25.0390   40.1520 H   0  0  0  0  0  0  0  0  0  0  0  0
   38.8590   25.7830   39.7280 H   0  0  0  0  0  0  0  0  0  0  0  0
   40.0800   26.9880   41.4380 H   0  0  0  0  0  0  0  0  0  0  0  0
   37.4990   29.0030   42.3140 C   0  0  1  0  0  0  0  0  0  0  0  0
   36.3890   28.1260   41.9630 C   0  0  0  0  0  0  0  0  0  0  0  0
   37.7660   27.7130   41.5710 C   0  0  2  0  0  0  0  0  0  0  0  0
   37.9830   28.9860   43.3260 H   0  0  0  0  0  0  0  0  0  0  0  0
   35.8810   27.5760   42.7940 H   0  0  0  0  0  0  0  0  0  0  0  0
   35.6690   28.4990   41.1920 H   0  0  0  0  0  0  0  0  0  0  0  0
   38.0480   27.8550   40.5120 H   0  0  0  0  0  0  0  0  0  0  0  0
   38.9870   30.9150   41.6620 C   0  0  0  0  0  0  0  0  0  0  0  0
   37.7150   30.2810   41.6070 C   0  0  0  0  0  0  0  0  0  0  0  0
   36.7040   30.9020   40.8760 C   0  0  0  0  0  0  0  0  0  0  0  0
   36.9970   32.0730   40.2630 N   0  0  0  0  0  0  0  0  0  0  0  0
   38.2020   32.6660   40.3190 C   0  0  0  0  0  0  0  0  0  0  0  0
   39.2140   32.0890   41.0230 N   0  0  0  0  0  0  0  0  0  0  0  0
   39.7400   30.3940   42.2420 H   0  0  0  0  0  0  0  0  0  0  0  0
   35.7270   30.4440   40.8170 H   0  0  0  0  0  0  0  0  0  0  0  0
   38.3170   33.6000   39.7890 H   0  0  0  0  0  0  0  0  0  0  0  0
   40.3110   25.3730   42.7130 N   0  0  0  0  0  0  0  0  0  0  0  0
   40.5570   24.4320   43.0300 H   0  0  0  0  0  0  0  0  0  0  0  0
   41.0410   26.1980   43.6150 C   0  0  0  0  0  0  0  0  0  0  0  0
   41.7110   25.9540   44.4580 H   0  0  0  0  0  0  0  0  0  0  0  0
   41.1050   27.4760   43.6790 O   0  0  0  0  0  0  0  0  0  0  0  0
  1  2  1  6  0  0  0
  2  7  1  0  0  0  0
  3  2  1  0  0  0  0
  3 10  1  0  0  0  0
  4 11  1  0  0  0  0
  4  3  1  0  0  0  0
  5  4  1  0  0  0  0
  5  6  1  0  0  0  0
  6 15  1  6  0  0  0
  6  1  1  0  0  0  0
  6 32  1  0  0  0  0
  8  2  1  0  0  0  0
  9  3  1  0  0  0  0
 12  4  1  0  0  0  0
 13  5  1  0  0  0  0
 14  5  1  0  0  0  0
 16 19  1  1  0  0  0
 17 16  1  0  0  0  0
 17 20  1  0  0  0  0
 18 22  1  6  0  0  0
 18 17  1  0  0  0  0
 18  1  1  0  0  0  0
 18 16  1  0  0  0  0
 21 17  1  0  0  0  0
 23 29  1  0  0  0  0
 24 23  1  0  0  0  0
 24 16  1  0  0  0  0
 25 24  2  0  0  0  0
 26 27  2  0  0  0  0
 26 25  1  0  0  0  0
 27 28  1  0  0  0  0
 28 23  2  0  0  0  0
 30 25  1  0  0  0  0
 31 27  1  0  0  0  0
 32 33  1  0  0  0  0
 32 34  1  0  0  0  0
 34 36  2  0  0  0  0
 34 35  1  0  0  0  0
M  END
>  <minimizedAffinity>
-4.5179863

$$$$

 OpenBabel03252506473D

 36 38  0  0  1  0  0  0  0  0999 V2000
   37.3580   28.4110   40.7890 N   0  0  1  0  0  0  0  0  0  0  0  0
   37.0170   29.2880   41.8760 C   0  0  0  0  0  0  0  0  0  0  0  0
   37.6970   28.9690   43.1760 C   0  0  0  0  0  0  0  0  0  0  0  0
   37.2200   27.6300   43.6800 C   0  0  0  0  0  0  0  0  0  0  0  0
   36.9580   26.6840   42.5340 C   0  0  0  0  0  0  0  0  0  0  0  0
   37.7460   27.1300   41.3310 C   0  0  2  0  0  0  0  0  0  0  0  0
   37.3260   30.3110   41.5710 H   0  0  0  0  0  0  0  0  0  0  0  0
   35.9400   29.3470   42.0760 H   0  0  0  0  0  0  0  0  0  0  0  0
   37.2780   29.7370   43.9010 H   0  0  0  0  0  0  0  0  0  0  0  0
   38.7690   29.1410   43.2140 H   0  0  0  0  0  0  0  0  0  0  0  0
   38.0540   27.2100   44.3090 H   0  0  0  0  0  0  0  0  0  0  0  0
   36.3700   27.7430   44.3500 H   0  0  0  0  0  0  0  0  0  0  0  0
   37.2750   25.6690   42.7710 H   0  0  0  0  0  0  0  0  0  0  0  0
   35.8850   26.7620   42.2950 H   0  0  0  0  0  0  0  0  0  0  0  0
   37.5040   26.3970   40.5300 H   0  0  0  0  0  0  0  0  0  0  0  0
   35.8210   29.5300   39.0420 C   0  0  1  0  0  0  0  0  0  0  0  0
   35.1070   29.2880   40.2890 C   0  0  0  0  0  0  0  0  0  0  0  0
   36.2190   28.3670   39.9220 C   0  0  2  0  0  0  0  0  0  0  0  0
   36.6590   30.2720   38.9610 H   0  0  0  0  0  0  0  0  0  0  0  0
   35.2670   30.0130   41.1260 H   0  0  0  0  0  0  0  0  0  0  0  0
   34.0430   28.9510   40.2100 H   0  0  0  0  0  0  0  0  0  0  0  0
   35.9360   27.3780   39.5160 H   0  0  0  0  0  0  0  0  0  0  0  0
   33.8130   28.9110   37.6710 C   0  0  0  0  0  0  0  0  0  0  0  0
   35.1940   29.2440   37.7360 C   0  0  0  0  0  0  0  0  0  0  0  0
   35.9150   29.2860   36.5450 C   0  0  0  0  0  0  0  0  0  0  0  0
   35.2540   29.0080   35.3960 N   0  0  0  0  0  0  0  0  0  0  0  0
   33.9480   28.6940   35.3430 C   0  0  0  0  0  0  0  0  0  0  0  0
   33.2110   28.6430   36.4860 N   0  0  0  0  0  0  0  0  0  0  0  0
   33.2950   28.8910   38.6230 H   0  0  0  0  0  0  0  0  0  0  0  0
   36.9670   29.5360   36.5630 H   0  0  0  0  0  0  0  0  0  0  0  0
   33.5290   28.4910   34.3670 H   0  0  0  0  0  0  0  0  0  0  0  0
   39.1500   27.0270   41.6160 N   0  0  0  0  0  0  0  0  0  0  0  0
   39.9270   27.5460   42.0320 H   0  0  0  0  0  0  0  0  0  0  0  0
   39.7740   25.8100   41.2210 C   0  0  0  0  0  0  0  0  0  0  0  0
   40.8170   25.4550   41.3080 H   0  0  0  0  0  0  0  0  0  0  0  0
   39.2670   24.7840   40.6450 O   0  0  0  0  0  0  0  0  0  0  0  0
  1  6  1  0  0  0  0
  1  2  1  1  0  0  0
  2  8  1  0  0  0  0
  2  3  1  0  0  0  0
  3 10  1  0  0  0  0
  3  4  1  0  0  0  0
  3  9  1  0  0  0  0
  4 11  1  0  0  0  0
  4 12  1  0  0  0  0
  5 13  1  0  0  0  0
  5  4  1  0  0  0  0
  6 15  1  6  0  0  0
  6 32  1  0  0  0  0
  6  5  1  0  0  0  0
  7  2  1  0  0  0  0
 14  5  1  0  0  0  0
 16 19  1  1  0  0  0
 16 18  1  0  0  0  0
 16 17  1  0  0  0  0
 17 20  1  0  0  0  0
 18 22  1  6  0  0  0
 18 17  1  0  0  0  0
 18  1  1  0  0  0  0
 21 17  1  0  0  0  0
 23 24  1  0  0  0  0
 23 29  1  0  0  0  0
 24 16  1  0  0  0  0
 25 30  1  0  0  0  0
 25 24  2  0  0  0  0
 26 25  1  0  0  0  0
 27 26  2  0  0  0  0
 27 28  1  0  0  0  0
 28 23  2  0  0  0  0
 31 27  1  0  0  0  0
 32 33  1  0  0  0  0
 34 35  1  0  0  0  0
 34 32  1  0  0  0  0
 36 34  2  0  0  0  0
M  END
>  <minimizedAffinity>
-4.50000143

$$$$

 OpenBabel03252506473D

 36 38  0  0  1  0  0  0  0  0999 V2000
   37.2570   29.0330   41.6770 N   0  0  1  0  0  0  0  0  0  0  0  0
   36.7940   28.0470   42.6150 C   0  0  0  0  0  0  0  0  0  0  0  0
   37.7880   27.6740   43.6760 C   0  0  0  0  0  0  0  0  0  0  0  0
   38.9680   26.9840   43.0410 C   0  0  0  0  0  0  0  0  0  0  0  0
   39.2660   27.5640   41.6800 C   0  0  0  0  0  0  0  0  0  0  0  0
   38.6980   28.9560   41.5990 C   0  0  2  0  0  0  0  0  0  0  0  0
   35.9020   28.4790   43.1190 H   0  0  0  0  0  0  0  0  0  0  0  0
   36.4510   27.1160   42.1460 H   0  0  0  0  0  0  0  0  0  0  0  0
   37.2540   26.8740   44.2830 H   0  0  0  0  0  0  0  0  0  0  0  0
   38.0180   28.4390   44.4110 H   0  0  0  0  0  0  0  0  0  0  0  0
   39.8500   27.1770   43.7140 H   0  0  0  0  0  0  0  0  0  0  0  0
   38.8340   25.9040   43.0310 H   0  0  0  0  0  0  0  0  0  0  0  0
   40.3380   27.6400   41.5020 H   0  0  0  0  0  0  0  0  0  0  0  0
   38.7440   26.9330   40.9440 H   0  0  0  0  0  0  0  0  0  0  0  0
   38.9470   29.3190   40.5780 H   0  0  0  0  0  0  0  0  0  0  0  0
   35.9460   29.8730   39.6180 C   0  0  1  0  0  0  0  0  0  0  0  0
   35.1140   29.0210   40.4580 C   0  0  0  0  0  0  0  0  0  0  0  0
   36.5830   28.7760   40.4400 C   0  0  2  0  0  0  0  0  0  0  0  0
   36.3070   30.8820   39.9530 H   0  0  0  0  0  0  0  0  0  0  0  0
   34.6580   29.4800   41.3710 H   0  0  0  0  0  0  0  0  0  0  0  0
   34.4160   28.3180   39.9370 H   0  0  0  0  0  0  0  0  0  0  0  0
   36.9400   27.9160   39.8440 H   0  0  0  0  0  0  0  0  0  0  0  0
   34.8410   29.1060   37.5010 C   0  0  0  0  0  0  0  0  0  0  0  0
   35.9380   29.7380   38.1480 C   0  0  0  0  0  0  0  0  0  0  0  0
   36.9810   30.2130   37.3560 C   0  0  0  0  0  0  0  0  0  0  0  0
   36.8850   30.0420   36.0160 N   0  0  0  0  0  0  0  0  0  0  0  0
   35.8450   29.4430   35.4120 C   0  0  0  0  0  0  0  0  0  0  0  0
   34.8070   28.9670   36.1520 N   0  0  0  0  0  0  0  0  0  0  0  0
   34.0550   28.7530   38.1590 H   0  0  0  0  0  0  0  0  0  0  0  0
   37.8290   30.6980   37.8200 H   0  0  0  0  0  0  0  0  0  0  0  0
   35.8790   29.3640   34.3350 H   0  0  0  0  0  0  0  0  0  0  0  0
   39.3710   29.8010   42.5460 N   0  0  0  0  0  0  0  0  0  0  0  0
   39.7750   29.7960   43.4860 H   0  0  0  0  0  0  0  0  0  0  0  0
   39.6090   31.1390   42.1210 C   0  0  0  0  0  0  0  0  0  0  0  0
   40.0930   31.9960   42.6230 H   0  0  0  0  0  0  0  0  0  0  0  0
   39.3100   31.7070   41.0120 O   0  0  0  0  0  0  0  0  0  0  0  0
  1  2  1  1  0  0  0
  2  7  1  0  0  0  0
  2  3  1  0  0  0  0
  3  9  1  0  0  0  0
  3 10  1  0  0  0  0
  4  3  1  0  0  0  0
  4 11  1  0  0  0  0
  5  4  1  0  0  0  0
  6 15  1  6  0  0  0
  6  1  1  0  0  0  0
  6  5  1  0  0  0  0
  6 32  1  0  0  0  0
  8  2  1  0  0  0  0
 12  4  1  0  0  0  0
 13  5  1  0  0  0  0
 14  5  1  0  0  0  0
 16 19  1  1  0  0  0
 16 18  1  0  0  0  0
 16 17  1  0  0  0  0
 17 20  1  0  0  0  0
 18 22  1  6  0  0  0
 18 17  1  0  0  0  0
 18  1  1  0  0  0  0
 21 17  1  0  0  0  0
 23 24  1  0  0  0  0
 23 29  1  0  0  0  0
 24 16  1  0  0  0  0
 25 30  1  0  0  0  0
 25 24  2  0  0  0  0
 26 25  1  0  0  0  0
 27 26  2  0  0  0  0
 27 28  1  0  0  0  0
 28 23  2  0  0  0  0
 31 27  1  0  0  0  0
 32 33  1  0  0  0  0
 34 32  1  0  0  0  0
 34 35  1  0  0  0  0
 36 34  2  0  0  0  0
M  END
>  <minimizedAffinity>
-4.48865795

$$$$

 OpenBabel03252506473D

 36 38  0  0  1  0  0  0  0  0999 V2000
   38.8360   31.6520   40.3210 N   0  0  1  0  0  0  0  0  0  0  0  0
   39.1100   32.8450   41.0760 C   0  0  0  0  0  0  0  0  0  0  0  0
   39.2940   34.0830   40.2470 C   0  0  0  0  0  0  0  0  0  0  0  0
   40.5340   33.9450   39.4010 C   0  0  0  0  0  0  0  0  0  0  0  0
   40.7290   32.5160   38.9570 C   0  0  0  0  0  0  0  0  0  0  0  0
   39.4060   31.7980   39.0020 C   0  0  2  0  0  0  0  0  0  0  0  0
   38.2370   33.0070   41.7450 H   0  0  0  0  0  0  0  0  0  0  0  0
   39.9820   32.7600   41.7360 H   0  0  0  0  0  0  0  0  0  0  0  0
   39.5310   34.8910   41.0110 H   0  0  0  0  0  0  0  0  0  0  0  0
   38.4100   34.4610   39.7430 H   0  0  0  0  0  0  0  0  0  0  0  0
   40.3720   34.5850   38.4900 H   0  0  0  0  0  0  0  0  0  0  0  0
   41.4030   34.3620   39.9070 H   0  0  0  0  0  0  0  0  0  0  0  0
   41.0930   32.4610   37.9310 H   0  0  0  0  0  0  0  0  0  0  0  0
   41.4050   32.0440   39.6870 H   0  0  0  0  0  0  0  0  0  0  0  0
   39.6210   30.7590   38.6690 H   0  0  0  0  0  0  0  0  0  0  0  0
   38.5930   29.8990   42.2000 C   0  0  1  0  0  0  0  0  0  0  0  0
   39.6520   30.8520   42.5070 C   0  0  0  0  0  0  0  0  0  0  0  0
   39.3620   30.5550   41.0760 C   0  0  2  0  0  0  0  0  0  0  0  0
   37.5100   30.1910   42.1650 H   0  0  0  0  0  0  0  0  0  0  0  0
   39.3490   31.8470   42.9190 H   0  0  0  0  0  0  0  0  0  0  0  0
   40.5760   30.4500   42.9930 H   0  0  0  0  0  0  0  0  0  0  0  0
   40.0620   29.8770   40.5540 H   0  0  0  0  0  0  0  0  0  0  0  0
   37.8520   27.5230   41.8830 C   0  0  0  0  0  0  0  0  0  0  0  0
   38.7790   28.4520   42.4300 C   0  0  0  0  0  0  0  0  0  0  0  0
   39.8450   27.9530   43.1760 C   0  0  0  0  0  0  0  0  0  0  0  0
   39.9320   26.6110   43.3340 N   0  0  0  0  0  0  0  0  0  0  0  0
   39.0510   25.7390   42.8130 C   0  0  0  0  0  0  0  0  0  0  0  0
   37.9970   26.1890   42.0790 N   0  0  0  0  0  0  0  0  0  0  0  0
   37.0410   27.9590   41.3120 H   0  0  0  0  0  0  0  0  0  0  0  0
   40.5660   28.6360   43.6050 H   0  0  0  0  0  0  0  0  0  0  0  0
   39.2240   24.6900   43.0060 H   0  0  0  0  0  0  0  0  0  0  0  0
   38.5090   32.3910   38.0490 N   0  0  0  0  0  0  0  0  0  0  0  0
   38.1990   33.2970   37.6910 H   0  0  0  0  0  0  0  0  0  0  0  0
   37.7310   31.4790   37.2820 C   0  0  0  0  0  0  0  0  0  0  0  0
   36.9730   31.6390   36.4930 H   0  0  0  0  0  0  0  0  0  0  0  0
   37.7110   30.1980   37.3130 O   0  0  0  0  0  0  0  0  0  0  0  0
  1  2  1  1  0  0  0
  1 18  1  0  0  0  0
  2  8  1  0  0  0  0
  2  7  1  0  0  0  0
  3  9  1  0  0  0  0
  3  2  1  0  0  0  0
  4 12  1  0  0  0  0
  4  3  1  0  0  0  0
  5  6  1  0  0  0  0
  5  4  1  0  0  0  0
  5 14  1  0  0  0  0
  6 15  1  6  0  0  0
  6  1  1  0  0  0  0
 10  3  1  0  0  0  0
 11  4  1  0  0  0  0
 13  5  1  0  0  0  0
 16 19  1  1  0  0  0
 16 24  1  0  0  0  0
 16 17  1  0  0  0  0
 17 20  1  0  0  0  0
 17 21  1  0  0  0  0
 18 22  1  6  0  0  0
 18 16  1  0  0  0  0
 18 17  1  0  0  0  0
 23 28  2  0  0  0  0
 23 24  1  0  0  0  0
 24 25  2  0  0  0  0
 25 26  1  0  0  0  0
 25 30  1  0  0  0  0
 27 31  1  0  0  0  0
 27 26  2  0  0  0  0
 28 27  1  0  0  0  0
 29 23  1  0  0  0  0
 32  6  1  0  0  0  0
 33 32  1  0  0  0  0
 34 36  2  0  0  0  0
 34 32  1  0  0  0  0
 35 34  1  0  0  0  0
M  END
>  <minimizedAffinity>
-4.43503809

$$$$

 OpenBabel03252506473D

 36 38  0  0  1  0  0  0  0  0999 V2000
   38.3900   28.6180   40.9210 N   0  0  1  0  0  0  0  0  0  0  0  0
   39.0010   27.4330   41.4600 C   0  0  0  0  0  0  0  0  0  0  0  0
   38.1550   26.6840   42.4470 C   0  0  0  0  0  0  0  0  0  0  0  0
   37.9500   27.5290   43.6790 C   0  0  0  0  0  0  0  0  0  0  0  0
   37.8510   28.9920   43.3210 C   0  0  0  0  0  0  0  0  0  0  0  0
   37.4350   29.1230   41.8800 C   0  0  2  0  0  0  0  0  0  0  0  0
   39.2020   26.7580   40.6000 H   0  0  0  0  0  0  0  0  0  0  0  0
   39.9740   27.6130   41.9320 H   0  0  0  0  0  0  0  0  0  0  0  0
   38.8160   25.8190   42.7750 H   0  0  0  0  0  0  0  0  0  0  0  0
   37.2710   26.1940   42.0510 H   0  0  0  0  0  0  0  0  0  0  0  0
   36.9720   27.2030   44.1310 H   0  0  0  0  0  0  0  0  0  0  0  0
   38.7090   27.3190   44.4310 H   0  0  0  0  0  0  0  0  0  0  0  0
   37.1000   29.5020   43.9230 H   0  0  0  0  0  0  0  0  0  0  0  0
   38.8610   29.4170   43.4310 H   0  0  0  0  0  0  0  0  0  0  0  0
   37.3860   30.2160   41.6840 H   0  0  0  0  0  0  0  0  0  0  0  0
   39.4710   30.3530   39.3440 C   0  0  1  0  0  0  0  0  0  0  0  0
   40.2850   29.1470   39.4340 C   0  0  0  0  0  0  0  0  0  0  0  0
   39.4520   29.5260   40.6100 C   0  0  2  0  0  0  0  0  0  0  0  0
   38.4580   30.3620   38.8610 H   0  0  0  0  0  0  0  0  0  0  0  0
   39.9730   28.2660   38.8190 H   0  0  0  0  0  0  0  0  0  0  0  0
   41.3950   29.2820   39.4580 H   0  0  0  0  0  0  0  0  0  0  0  0
   39.9760   29.9960   41.4620 H   0  0  0  0  0  0  0  0  0  0  0  0
   41.4830   31.8400   39.1640 C   0  0  0  0  0  0  0  0  0  0  0  0
   40.0870   31.6940   39.3880 C   0  0  0  0  0  0  0  0  0  0  0  0
   39.3410   32.8420   39.6450 C   0  0  0  0  0  0  0  0  0  0  0  0
   39.9940   34.0280   39.6650 N   0  0  0  0  0  0  0  0  0  0  0  0
   41.3150   34.1580   39.4530 C   0  0  0  0  0  0  0  0  0  0  0  0
   42.0760   33.0590   39.1980 N   0  0  0  0  0  0  0  0  0  0  0  0
   42.0200   30.9180   38.9680 H   0  0  0  0  0  0  0  0  0  0  0  0
   38.2770   32.7620   39.8190 H   0  0  0  0  0  0  0  0  0  0  0  0
   41.7250   35.1570   39.4940 H   0  0  0  0  0  0  0  0  0  0  0  0
   36.1140   28.5840   41.7150 N   0  0  0  0  0  0  0  0  0  0  0  0
   35.4630   27.9080   42.1220 H   0  0  0  0  0  0  0  0  0  0  0  0
   35.3620   29.1120   40.6270 C   0  0  0  0  0  0  0  0  0  0  0  0
   34.3420   28.8940   40.2630 H   0  0  0  0  0  0  0  0  0  0  0  0
   35.6890   30.0030   39.7680 O   0  0  0  0  0  0  0  0  0  0  0  0
  1  2  1  1  0  0  0
  1  6  1  0  0  0  0
  2  8  1  0  0  0  0
  2  3  1  0  0  0  0
  3  9  1  0  0  0  0
  3  4  1  0  0  0  0
  4 11  1  0  0  0  0
  4 12  1  0  0  0  0
  5 14  1  0  0  0  0
  5  4  1  0  0  0  0
  5 13  1  0  0  0  0
  6 15  1  6  0  0  0
  6  5  1  0  0  0  0
  7  2  1  0  0  0  0
 10  3  1  0  0  0  0
 16 19  1  6  0  0  0
 16 24  1  0  0  0  0
 16 17  1  0  0  0  0
 16 18  1  0  0  0  0
 17 21  1  0  0  0  0
 17 18  1  0  0  0  0
 18  1  1  0  0  0  0
 18 22  1  1  0  0  0
 20 17  1  0  0  0  0
 23 28  2  0  0  0  0
 23 24  1  0  0  0  0
 24 25  2  0  0  0  0
 25 26  1  0  0  0  0
 25 30  1  0  0  0  0
 27 31  1  0  0  0  0
 27 26  2  0  0  0  0
 28 27  1  0  0  0  0
 29 23  1  0  0  0  0
 32  6  1  0  0  0  0
 32 33  1  0  0  0  0
 34 32  1  0  0  0  0
 35 34  1  0  0  0  0
 36 34  2  0  0  0  0
M  END
>  <minimizedAffinity>
-4.38329172

$$$$
