
 OpenBabel03252504573D

 31 32  0  0  1  0  0  0  0  0999 V2000
   47.8980   33.9840   42.0530 N   0  0  0  0  0  0  0  0  0  0  0  0
   47.8820   34.9580   41.0280 C   0  0  0  0  0  0  0  0  0  0  0  0
   49.0500   35.7980   41.3660 C   0  0  0  0  0  0  0  0  0  0  0  0
   49.7350   35.2110   42.5890 C   0  0  0  0  0  0  0  0  0  0  0  0
   49.1810   33.7770   42.5870 C   0  0  2  0  0  0  0  0  0  0  0  0
   47.3340   35.2430   40.1650 H   0  0  0  0  0  0  0  0  0  0  0  0
   49.4570   36.6710   40.8870 H   0  0  0  0  0  0  0  0  0  0  0  0
   49.4430   35.7440   43.5030 H   0  0  0  0  0  0  0  0  0  0  0  0
   50.8070   35.1930   42.3810 H   0  0  0  0  0  0  0  0  0  0  0  0
   49.1680   33.3010   43.5650 H   0  0  0  0  0  0  0  0  0  0  0  0
   46.7260   33.3850   42.4420 C   0  0  0  0  0  0  0  0  0  0  0  0
   45.9730   33.2510   41.6330 H   0  0  0  0  0  0  0  0  0  0  0  0
   46.9620   32.3210   42.7090 H   0  0  0  0  0  0  0  0  0  0  0  0
   44.6060   35.7320   44.5260 C   0  0  0  0  0  0  0  0  0  0  0  0
   45.2740   35.2080   43.3780 C   0  0  0  0  0  0  0  0  0  0  0  0
   46.0220   34.0400   43.5250 C   0  0  0  0  0  0  0  0  0  0  0  0
   46.0640   33.4800   44.7540 N   0  0  0  0  0  0  0  0  0  0  0  0
   45.4110   33.9990   45.8520 C   0  0  0  0  0  0  0  0  0  0  0  0
   44.6910   35.1150   45.7330 N   0  0  0  0  0  0  0  0  0  0  0  0
   44.0550   36.6360   44.3090 H   0  0  0  0  0  0  0  0  0  0  0  0
   45.2180   35.6800   42.4250 H   0  0  0  0  0  0  0  0  0  0  0  0
   45.4720   33.5220   46.8040 H   0  0  0  0  0  0  0  0  0  0  0  0
   49.9120   33.0820   41.6120 O   0  0  0  0  0  0  0  0  0  0  0  0
   49.2860   30.8470   42.9060 O   0  0  0  0  0  0  0  0  0  0  0  0
   50.3120   31.5300   42.0380 P   0  0  2  0  0  0  0  0  0  0  0  0
   51.7600   31.5790   42.9240 O   0  0  0  0  0  0  0  0  0  0  0  0
   51.7060   32.3380   43.5850 H   0  0  0  0  0  0  0  0  0  0  0  0
   50.6510   30.5790   40.6530 O   0  0  0  0  0  0  0  0  0  0  0  0
   51.6850   30.8160   39.7850 C   0  0  0  0  0  0  0  0  0  0  0  0
   51.5680   30.3170   38.8270 H   0  0  0  0  0  0  0  0  0  0  0  0
   52.6460   31.5460   40.1150 O   0  0  0  0  0  0  0  0  0  0  0  0
  1 11  1  0  0  0  0
  1  5  1  0  0  0  0
  2  3  2  0  0  0  0
  2  1  1  0  0  0  0
  3  4  1  0  0  0  0
  4  8  1  0  0  0  0
  5  4  1  0  0  0  0
  5 10  1  1  0  0  0
  6  2  1  0  0  0  0
  7  3  1  0  0  0  0
  9  4  1  0  0  0  0
 11 13  1  0  0  0  0
 11 16  1  0  0  0  0
 12 11  1  0  0  0  0
 14 19  1  0  0  0  0
 15 16  1  0  0  0  0
 15 14  2  0  0  0  0
 16 17  2  0  0  0  0
 17 18  1  0  0  0  0
 18 22  1  0  0  0  0
 19 18  2  0  0  0  0
 20 14  1  0  0  0  0
 21 15  1  0  0  0  0
 23 25  1  0  0  0  0
 23  5  1  0  0  0  0
 25 24  2  1  0  0  0
 25 26  1  0  0  0  0
 26 27  1  0  0  0  0
 28 25  1  0  0  0  0
 29 31  2  0  0  0  0
 29 28  1  0  0  0  0
 30 29  1  0  0  0  0
M  END
>  <minimizedAffinity>
-4.61627579

>  <minimizedRMSD>
1.30996251

$$$$
