
 OpenBabel03242523093D

 40 43  0  0  1  0  0  0  0  0999 V2000
   45.1070   36.0210   43.5050 C   0  0  0  0  0  0  0  0  0  0  0  0
   45.9070   34.8990   43.2850 C   0  0  0  0  0  0  0  0  0  0  0  0
   46.0450   33.9690   44.2710 C   0  0  0  0  0  0  0  0  0  0  0  0
   45.3740   34.2060   45.4400 N   0  0  0  0  0  0  0  0  0  0  0  0
   44.6100   35.2750   45.6560 C   0  0  0  0  0  0  0  0  0  0  0  0
   44.4790   36.1670   44.7040 N   0  0  0  0  0  0  0  0  0  0  0  0
   44.9940   36.7670   42.7170 H   0  0  0  0  0  0  0  0  0  0  0  0
   44.0600   35.5080   46.5580 H   0  0  0  0  0  0  0  0  0  0  0  0
   46.5430   34.8050   42.0490 N   0  0  0  0  0  0  0  0  0  0  0  0
   47.8720   35.2810   41.8460 C   0  0  0  0  0  0  0  0  0  0  0  0
   48.4610   34.9390   40.5010 C   0  0  0  0  0  0  0  0  0  0  0  0
   48.1740   33.6670   40.0310 N   0  0  0  0  0  0  0  0  0  0  0  0
   46.8720   33.2310   40.1900 C   0  0  0  0  0  0  0  0  0  0  0  0
   45.9980   34.2590   40.8710 C   0  0  0  0  0  0  0  0  0  0  0  0
   47.8380   36.3910   41.9110 H   0  0  0  0  0  0  0  0  0  0  0  0
   48.5790   34.9650   42.6560 H   0  0  0  0  0  0  0  0  0  0  0  0
   49.5700   35.1350   40.5870 H   0  0  0  0  0  0  0  0  0  0  0  0
   48.1090   35.6990   39.7590 H   0  0  0  0  0  0  0  0  0  0  0  0
   48.9340   32.9630   40.2560 H   0  0  0  0  0  0  0  0  0  0  0  0
   46.4100   33.0710   39.1710 H   0  0  0  0  0  0  0  0  0  0  0  0
   46.8190   32.2240   40.6560 H   0  0  0  0  0  0  0  0  0  0  0  0
   45.0380   33.7200   41.1120 H   0  0  0  0  0  0  0  0  0  0  0  0
   45.8050   35.0710   40.1340 H   0  0  0  0  0  0  0  0  0  0  0  0
   46.5260   32.0880   45.5990 C   0  0  0  0  0  0  0  0  0  0  0  0
   46.7430   32.7640   44.3760 C   0  0  0  0  0  0  0  0  0  0  0  0
   47.6370   32.0810   43.5880 C   0  0  0  0  0  0  0  0  0  0  0  0
   48.2580   30.9130   43.8930 C   0  0  0  0  0  0  0  0  0  0  0  0
   47.9940   30.3130   45.1160 C   0  0  0  0  0  0  0  0  0  0  0  0
   47.1100   30.9150   45.9830 C   0  0  0  0  0  0  0  0  0  0  0  0
   48.7700   29.1640   45.1240 O   0  0  0  0  0  0  0  0  0  0  0  0
   49.4660   29.0360   43.9110 C   0  0  2  0  0  0  0  0  0  0  0  0
   49.1580   30.1880   43.1410 O   0  0  0  0  0  0  0  0  0  0  0  0
   45.8660   32.3550   46.4490 H   0  0  0  0  0  0  0  0  0  0  0  0
   47.8110   32.5670   42.6810 H   0  0  0  0  0  0  0  0  0  0  0  0
   46.9890   30.3650   46.8780 H   0  0  0  0  0  0  0  0  0  0  0  0
   50.5470   28.8720   44.0060 H   0  0  0  0  0  0  0  0  0  0  0  0
   48.9230   27.9060   43.2440 O   0  0  0  0  0  0  0  0  0  0  0  0
   49.6780   27.0240   42.5170 C   0  0  0  0  0  0  0  0  0  0  0  0
   49.3240   26.1230   42.0330 H   0  0  0  0  0  0  0  0  0  0  0  0
   50.9100   27.3230   42.4260 O   0  0  0  0  0  0  0  0  0  0  0  0
  1  6  1  0  0  0  0
  2  1  2  0  0  0  0
  2  3  1  0  0  0  0
  3 25  1  0  0  0  0
  3  4  2  0  0  0  0
  4  5  1  0  0  0  0
  5  8  1  0  0  0  0
  6  5  2  0  0  0  0
  7  1  1  0  0  0  0
  9  2  1  0  0  0  0
 10 15  1  0  0  0  0
 10  9  1  0  0  0  0
 10 16  1  0  0  0  0
 11 17  1  0  0  0  0
 11 10  1  0  0  0  0
 12 13  1  0  0  0  0
 12 19  1  0  0  0  0
 12 11  1  0  0  0  0
 13 21  1  0  0  0  0
 13 14  1  0  0  0  0
 14 22  1  0  0  0  0
 14  9  1  0  0  0  0
 18 11  1  0  0  0  0
 20 13  1  0  0  0  0
 23 14  1  0  0  0  0
 24 29  1  0  0  0  0
 24 33  1  0  0  0  0
 25 24  2  0  0  0  0
 26 27  2  0  0  0  0
 26 25  1  0  0  0  0
 27 28  1  0  0  0  0
 28 30  1  0  0  0  0
 28 29  2  0  0  0  0
 29 35  1  0  0  0  0
 31 36  1  1  0  0  0
 31 30  1  0  0  0  0
 32 27  1  0  0  0  0
 32 31  1  0  0  0  0
 34 26  1  0  0  0  0
 37 31  1  0  0  0  0
 38 37  1  0  0  0  0
 39 38  1  0  0  0  0
 40 38  2  0  0  0  0
M  END
>  <minimizedAffinity>
-4.65908003

>  <minimizedRMSD>
0.228079915

$$$$
