
 OpenBabel03252509313D

 21 21  0  0  0  0  0  0  0  0999 V2000
   47.1300   33.7770   42.8020 C   0  0  0  0  0  0  0  0  0  0  0  0
   46.5720   33.0670   42.1810 H   0  0  0  0  0  0  0  0  0  0  0  0
   47.3830   34.6380   42.1350 H   0  0  0  0  0  0  0  0  0  0  0  0
   45.2340   34.1860   45.9850 C   0  0  0  0  0  0  0  0  0  0  0  0
   46.1130   33.6470   45.0420 C   0  0  0  0  0  0  0  0  0  0  0  0
   46.2240   34.2950   43.8320 C   0  0  0  0  0  0  0  0  0  0  0  0
   45.4760   35.4360   43.6010 N   0  0  0  0  0  0  0  0  0  0  0  0
   44.6400   35.9130   44.5510 C   0  0  0  0  0  0  0  0  0  0  0  0
   44.5170   35.2940   45.7380 N   0  0  0  0  0  0  0  0  0  0  0  0
   45.1910   33.6280   46.9190 H   0  0  0  0  0  0  0  0  0  0  0  0
   46.7070   32.7510   45.2140 H   0  0  0  0  0  0  0  0  0  0  0  0
   44.0680   36.8040   44.3450 H   0  0  0  0  0  0  0  0  0  0  0  0
   48.2600   33.2000   43.3850 O   0  0  0  0  0  0  0  0  0  0  0  0
   50.6410   32.5920   42.5070 O   0  0  0  0  0  0  0  0  0  0  0  0
   49.5870   33.6600   42.4450 P   0  0  2  0  0  0  0  0  0  0  0  0
   50.1150   35.1510   43.0080 O   0  0  0  0  0  0  0  0  0  0  0  0
   50.8590   35.0390   43.6520 H   0  0  0  0  0  0  0  0  0  0  0  0
   49.0500   33.7950   40.8420 O   0  0  0  0  0  0  0  0  0  0  0  0
   48.9790   32.6470   40.0630 C   0  0  0  0  0  0  0  0  0  0  0  0
   48.0130   32.1450   40.0940 H   0  0  0  0  0  0  0  0  0  0  0  0
   49.8140   32.0850   39.3360 O   0  0  0  0  0  0  0  0  0  0  0  0
  1 13  1  0  0  0  0
  1  6  1  0  0  0  0
  2  1  1  0  0  0  0
  3  1  1  0  0  0  0
  4 10  1  0  0  0  0
  5 11  1  0  0  0  0
  5  4  2  0  0  0  0
  6  5  1  0  0  0  0
  7  6  2  0  0  0  0
  7  8  1  0  0  0  0
  8  9  2  0  0  0  0
  9  4  1  0  0  0  0
 12  8  1  0  0  0  0
 15 14  2  1  0  0  0
 15 16  1  0  0  0  0
 15 13  1  0  0  0  0
 16 17  1  0  0  0  0
 18 15  1  0  0  0  0
 19 20  1  0  0  0  0
 19 18  1  0  0  0  0
 21 19  2  0  0  0  0
M  END
>  <minimizedAffinity>
-4.01836777

>  <minimizedRMSD>
0.742170691

$$$$
