
 OpenBabel03252509303D

 21 21  0  0  0  0  0  0  0  0999 V2000
   47.1310   33.7780   42.8020 C   0  0  0  0  0  0  0  0  0  0  0  0
   46.5720   33.0680   42.1810 H   0  0  0  0  0  0  0  0  0  0  0  0
   47.3830   34.6380   42.1350 H   0  0  0  0  0  0  0  0  0  0  0  0
   45.2340   34.1860   45.9840 C   0  0  0  0  0  0  0  0  0  0  0  0
   46.1130   33.6480   45.0420 C   0  0  0  0  0  0  0  0  0  0  0  0
   46.2240   34.2960   43.8310 C   0  0  0  0  0  0  0  0  0  0  0  0
   45.4760   35.4360   43.6010 N   0  0  0  0  0  0  0  0  0  0  0  0
   44.6400   35.9130   44.5510 C   0  0  0  0  0  0  0  0  0  0  0  0
   44.5180   35.2940   45.7370 N   0  0  0  0  0  0  0  0  0  0  0  0
   45.1920   33.6270   46.9190 H   0  0  0  0  0  0  0  0  0  0  0  0
   46.7070   32.7510   45.2130 H   0  0  0  0  0  0  0  0  0  0  0  0
   44.0670   36.8040   44.3450 H   0  0  0  0  0  0  0  0  0  0  0  0
   48.2600   33.2000   43.3850 O   0  0  0  0  0  0  0  0  0  0  0  0
   50.6410   32.5930   42.5080 O   0  0  0  0  0  0  0  0  0  0  0  0
   49.5870   33.6610   42.4450 P   0  0  2  0  0  0  0  0  0  0  0  0
   50.1140   35.1510   43.0090 O   0  0  0  0  0  0  0  0  0  0  0  0
   50.8580   35.0400   43.6530 H   0  0  0  0  0  0  0  0  0  0  0  0
   49.0510   33.7960   40.8420 O   0  0  0  0  0  0  0  0  0  0  0  0
   48.9790   32.6470   40.0630 C   0  0  0  0  0  0  0  0  0  0  0  0
   48.0120   32.1470   40.0950 H   0  0  0  0  0  0  0  0  0  0  0  0
   49.8130   32.0850   39.3360 O   0  0  0  0  0  0  0  0  0  0  0  0
  1 13  1  0  0  0  0
  1  6  1  0  0  0  0
  2  1  1  0  0  0  0
  3  1  1  0  0  0  0
  4 10  1  0  0  0  0
  5 11  1  0  0  0  0
  5  4  2  0  0  0  0
  6  5  1  0  0  0  0
  7  6  2  0  0  0  0
  7  8  1  0  0  0  0
  8  9  2  0  0  0  0
  9  4  1  0  0  0  0
 12  8  1  0  0  0  0
 15 14  2  1  0  0  0
 15 16  1  0  0  0  0
 15 13  1  0  0  0  0
 16 17  1  0  0  0  0
 18 15  1  0  0  0  0
 19 20  1  0  0  0  0
 19 18  1  0  0  0  0
 21 19  2  0  0  0  0
M  END
>  <minimizedAffinity>
-4.01606083

>  <minimizedRMSD>
0.777480006

$$$$
