
 OpenBabel03252501053D

 34 36  0  0  1  0  0  0  0  0999 V2000
   47.7120   34.1700   39.7960 O   0  0  0  0  0  0  0  0  0  0  0  0
   48.0930   35.4510   41.8120 C   0  0  1  0  0  0  0  0  0  0  0  0
   49.3110   34.6430   41.6600 C   0  0  0  0  0  0  0  0  0  0  0  0
   48.4650   35.0720   40.4480 C   0  0  1  0  0  0  0  0  0  0  0  0
   48.2100   36.4980   42.1700 H   0  0  0  0  0  0  0  0  0  0  0  0
   49.2850   33.5230   41.7810 H   0  0  0  0  0  0  0  0  0  0  0  0
   50.3190   35.0340   41.7900 H   0  0  0  0  0  0  0  0  0  0  0  0
   49.0570   35.7500   39.8030 H   0  0  0  0  0  0  0  0  0  0  0  0
   46.0380   32.9420   43.7720 C   0  0  0  0  0  0  0  0  0  0  0  0
   47.1370   33.6110   43.2420 C   0  0  0  0  0  0  0  0  0  0  0  0
   46.9200   34.7240   42.4070 C   0  0  0  0  0  0  0  0  0  0  0  0
   45.6470   35.1190   42.1400 N   0  0  0  0  0  0  0  0  0  0  0  0
   44.5910   34.4450   42.6720 C   0  0  0  0  0  0  0  0  0  0  0  0
   44.7870   33.3620   43.4840 N   0  0  0  0  0  0  0  0  0  0  0  0
   46.2000   32.0950   44.4060 H   0  0  0  0  0  0  0  0  0  0  0  0
   48.1260   33.2660   43.4780 H   0  0  0  0  0  0  0  0  0  0  0  0
   43.5860   34.7770   42.4460 H   0  0  0  0  0  0  0  0  0  0  0  0
   48.5510   32.3650   38.0760 O   0  0  0  0  0  0  0  0  0  0  0  0
   48.0870   33.8110   38.2440 P   0  0  2  0  0  0  0  0  0  0  0  0
   49.3190   34.7570   37.5720 O   0  0  0  0  0  0  0  0  0  0  0  0
   49.1060   35.1400   36.7010 H   0  0  0  0  0  0  0  0  0  0  0  0
   46.7420   33.9440   37.2490 O   0  0  0  0  0  0  0  0  0  0  0  0
   45.7000   33.0390   37.2160 C   0  0  0  0  0  0  0  0  0  0  0  0
   45.5130   31.9720   36.3670 C   0  0  0  0  0  0  0  0  0  0  0  0
   44.4280   31.1600   36.4540 C   0  0  0  0  0  0  0  0  0  0  0  0
   43.4720   31.3950   37.4180 C   0  0  0  0  0  0  0  0  0  0  0  0
   43.6800   32.4790   38.2670 C   0  0  0  0  0  0  0  0  0  0  0  0
   44.7810   33.2720   38.1480 N   0  0  0  0  0  0  0  0  0  0  0  0
   46.3100   31.8450   35.6270 H   0  0  0  0  0  0  0  0  0  0  0  0
   44.3310   30.3340   35.7600 H   0  0  0  0  0  0  0  0  0  0  0  0
   42.6010   30.7740   37.5150 H   0  0  0  0  0  0  0  0  0  0  0  0
   42.6790   32.7640   39.3120 C   0  0  0  0  0  0  0  0  0  0  0  0
   41.8150   33.3590   39.0520 H   0  0  0  0  0  0  0  0  0  0  0  0
   42.8440   32.3160   40.4750 O   0  0  0  0  0  0  0  0  0  0  0  0
  1  4  1  0  0  0  0
  2  5  1  1  0  0  0
  2 11  1  0  0  0  0
  3  6  1  0  0  0  0
  3  7  1  0  0  0  0
  3  2  1  0  0  0  0
  4  8  1  6  0  0  0
  4  3  1  0  0  0  0
  4  2  1  0  0  0  0
  9 15  1  0  0  0  0
 10 16  1  0  0  0  0
 10  9  2  0  0  0  0
 11 10  1  0  0  0  0
 12 11  2  0  0  0  0
 12 13  1  0  0  0  0
 13 14  2  0  0  0  0
 14  9  1  0  0  0  0
 17 13  1  0  0  0  0
 19 18  2  6  0  0  0
 19  1  1  0  0  0  0
 20 19  1  0  0  0  0
 21 20  1  0  0  0  0
 22 19  1  0  0  0  0
 23 22  1  0  0  0  0
 23 28  1  0  0  0  0
 24 25  1  0  0  0  0
 24 23  2  0  0  0  0
 25 26  2  0  0  0  0
 26 31  1  0  0  0  0
 26 27  1  0  0  0  0
 27 32  1  0  0  0  0
 28 27  2  0  0  0  0
 29 24  1  0  0  0  0
 30 25  1  0  0  0  0
 32 34  2  0  0  0  0
 33 32  1  0  0  0  0
M  END
>  <minimizedAffinity>
-4.31392765

>  <minimizedRMSD>
0.437601447

$$$$
