
 OpenBabel03252501053D

 34 36  0  0  1  0  0  0  0  0999 V2000
   47.7770   34.0650   39.8010 O   0  0  0  0  0  0  0  0  0  0  0  0
   48.0290   35.4380   41.7760 C   0  0  1  0  0  0  0  0  0  0  0  0
   49.2920   34.6920   41.6900 C   0  0  0  0  0  0  0  0  0  0  0  0
   48.4610   35.0290   40.4390 C   0  0  1  0  0  0  0  0  0  0  0  0
   48.0790   36.5020   42.0970 H   0  0  0  0  0  0  0  0  0  0  0  0
   49.3210   33.5770   41.8540 H   0  0  0  0  0  0  0  0  0  0  0  0
   50.2740   35.1410   41.8330 H   0  0  0  0  0  0  0  0  0  0  0  0
   49.0370   35.7140   39.7860 H   0  0  0  0  0  0  0  0  0  0  0  0
   46.0500   32.9300   43.8140 C   0  0  0  0  0  0  0  0  0  0  0  0
   47.1260   33.6380   43.2910 C   0  0  0  0  0  0  0  0  0  0  0  0
   46.8780   34.6720   42.3660 C   0  0  0  0  0  0  0  0  0  0  0  0
   45.5980   34.9530   42.0080 N   0  0  0  0  0  0  0  0  0  0  0  0
   44.5630   34.2430   42.5370 C   0  0  0  0  0  0  0  0  0  0  0  0
   44.7890   33.2370   43.4350 N   0  0  0  0  0  0  0  0  0  0  0  0
   46.2350   32.1450   44.5170 H   0  0  0  0  0  0  0  0  0  0  0  0
   48.1230   33.3840   43.5990 H   0  0  0  0  0  0  0  0  0  0  0  0
   43.5520   34.4840   42.2370 H   0  0  0  0  0  0  0  0  0  0  0  0
   48.5960   32.3440   37.9870 O   0  0  0  0  0  0  0  0  0  0  0  0
   48.1150   33.7750   38.2270 P   0  0  2  0  0  0  0  0  0  0  0  0
   49.3130   34.7680   37.5600 O   0  0  0  0  0  0  0  0  0  0  0  0
   49.0700   35.1810   36.7110 H   0  0  0  0  0  0  0  0  0  0  0  0
   46.7400   33.9250   37.2750 O   0  0  0  0  0  0  0  0  0  0  0  0
   45.6840   33.0350   37.2780 C   0  0  0  0  0  0  0  0  0  0  0  0
   45.4260   32.0010   36.4070 C   0  0  0  0  0  0  0  0  0  0  0  0
   44.3370   31.2020   36.5370 C   0  0  0  0  0  0  0  0  0  0  0  0
   43.4470   31.4160   37.5680 C   0  0  0  0  0  0  0  0  0  0  0  0
   43.7270   32.4680   38.4380 C   0  0  0  0  0  0  0  0  0  0  0  0
   44.8300   33.2490   38.2750 N   0  0  0  0  0  0  0  0  0  0  0  0
   46.1730   31.8890   35.6140 H   0  0  0  0  0  0  0  0  0  0  0  0
   44.1820   30.4020   35.8230 H   0  0  0  0  0  0  0  0  0  0  0  0
   42.5760   30.8040   37.7000 H   0  0  0  0  0  0  0  0  0  0  0  0
   42.7990   32.7300   39.5540 C   0  0  0  0  0  0  0  0  0  0  0  0
   42.5170   31.9060   40.1950 H   0  0  0  0  0  0  0  0  0  0  0  0
   42.3570   33.8920   39.7410 O   0  0  0  0  0  0  0  0  0  0  0  0
  1  4  1  0  0  0  0
  2  5  1  1  0  0  0
  2 11  1  0  0  0  0
  3  2  1  0  0  0  0
  3  7  1  0  0  0  0
  3  6  1  0  0  0  0
  4  8  1  6  0  0  0
  4  3  1  0  0  0  0
  4  2  1  0  0  0  0
  9 15  1  0  0  0  0
 10 16  1  0  0  0  0
 10  9  2  0  0  0  0
 11 10  1  0  0  0  0
 12 11  2  0  0  0  0
 12 13  1  0  0  0  0
 13 14  2  0  0  0  0
 14  9  1  0  0  0  0
 17 13  1  0  0  0  0
 19 18  2  6  0  0  0
 19  1  1  0  0  0  0
 20 19  1  0  0  0  0
 21 20  1  0  0  0  0
 22 23  1  0  0  0  0
 22 19  1  0  0  0  0
 23 28  1  0  0  0  0
 24 25  1  0  0  0  0
 24 23  2  0  0  0  0
 25 26  2  0  0  0  0
 26 31  1  0  0  0  0
 26 27  1  0  0  0  0
 27 32  1  0  0  0  0
 28 27  2  0  0  0  0
 29 24  1  0  0  0  0
 30 25  1  0  0  0  0
 32 34  2  0  0  0  0
 32 33  1  0  0  0  0
M  END
>  <minimizedAffinity>
-4.36555243

>  <minimizedRMSD>
0.485791236

$$$$
