
 OpenBabel03252501053D

 34 36  0  0  1  0  0  0  0  0999 V2000
   47.7550   34.0380   39.7770 O   0  0  0  0  0  0  0  0  0  0  0  0
   47.9620   35.4070   41.7600 C   0  0  1  0  0  0  0  0  0  0  0  0
   49.2280   34.6630   41.6990 C   0  0  0  0  0  0  0  0  0  0  0  0
   48.4240   35.0020   40.4320 C   0  0  1  0  0  0  0  0  0  0  0  0
   48.0040   36.4700   42.0850 H   0  0  0  0  0  0  0  0  0  0  0  0
   49.2550   33.5480   41.8610 H   0  0  0  0  0  0  0  0  0  0  0  0
   50.2050   35.1130   41.8640 H   0  0  0  0  0  0  0  0  0  0  0  0
   49.0120   35.6890   39.7930 H   0  0  0  0  0  0  0  0  0  0  0  0
   45.9370   32.9440   43.8080 C   0  0  0  0  0  0  0  0  0  0  0  0
   47.0220   33.6570   43.3100 C   0  0  0  0  0  0  0  0  0  0  0  0
   46.8000   34.6370   42.3230 C   0  0  0  0  0  0  0  0  0  0  0  0
   45.5350   34.8640   41.8820 N   0  0  0  0  0  0  0  0  0  0  0  0
   44.4910   34.1520   42.3880 C   0  0  0  0  0  0  0  0  0  0  0  0
   44.6920   33.1960   43.3460 N   0  0  0  0  0  0  0  0  0  0  0  0
   46.1020   32.1990   44.5580 H   0  0  0  0  0  0  0  0  0  0  0  0
   48.0060   33.4460   43.6850 H   0  0  0  0  0  0  0  0  0  0  0  0
   43.4920   34.3490   42.0220 H   0  0  0  0  0  0  0  0  0  0  0  0
   48.5910   32.3410   37.9490 O   0  0  0  0  0  0  0  0  0  0  0  0
   48.1100   33.7690   38.2020 P   0  0  2  0  0  0  0  0  0  0  0  0
   49.3170   34.7690   37.5630 O   0  0  0  0  0  0  0  0  0  0  0  0
   49.0840   35.1950   36.7170 H   0  0  0  0  0  0  0  0  0  0  0  0
   46.7460   33.9350   37.2370 O   0  0  0  0  0  0  0  0  0  0  0  0
   45.6950   33.0390   37.2070 C   0  0  0  0  0  0  0  0  0  0  0  0
   45.4860   31.9850   36.3470 C   0  0  0  0  0  0  0  0  0  0  0  0
   44.3950   31.1830   36.4380 C   0  0  0  0  0  0  0  0  0  0  0  0
   43.4540   31.4140   37.4180 C   0  0  0  0  0  0  0  0  0  0  0  0
   43.6840   32.4860   38.2770 C   0  0  0  0  0  0  0  0  0  0  0  0
   44.7910   33.2700   38.1540 N   0  0  0  0  0  0  0  0  0  0  0  0
   46.2730   31.8600   35.5950 H   0  0  0  0  0  0  0  0  0  0  0  0
   44.2810   30.3670   35.7350 H   0  0  0  0  0  0  0  0  0  0  0  0
   42.5790   30.8000   37.5190 H   0  0  0  0  0  0  0  0  0  0  0  0
   42.7000   32.7670   39.3390 C   0  0  0  0  0  0  0  0  0  0  0  0
   42.3120   31.9400   39.9180 H   0  0  0  0  0  0  0  0  0  0  0  0
   42.3320   33.9510   39.5540 O   0  0  0  0  0  0  0  0  0  0  0  0
  1  4  1  0  0  0  0
  2  5  1  1  0  0  0
  2 11  1  0  0  0  0
  3  2  1  0  0  0  0
  3  6  1  0  0  0  0
  3  7  1  0  0  0  0
  4  8  1  6  0  0  0
  4  3  1  0  0  0  0
  4  2  1  0  0  0  0
  9 15  1  0  0  0  0
 10 16  1  0  0  0  0
 10  9  2  0  0  0  0
 11 10  1  0  0  0  0
 12 11  2  0  0  0  0
 12 13  1  0  0  0  0
 13 14  2  0  0  0  0
 14  9  1  0  0  0  0
 17 13  1  0  0  0  0
 19 18  2  6  0  0  0
 19  1  1  0  0  0  0
 20 19  1  0  0  0  0
 21 20  1  0  0  0  0
 22 19  1  0  0  0  0
 23 22  1  0  0  0  0
 23 28  1  0  0  0  0
 24 25  1  0  0  0  0
 24 23  2  0  0  0  0
 25 26  2  0  0  0  0
 26 31  1  0  0  0  0
 26 27  1  0  0  0  0
 27 32  1  0  0  0  0
 28 27  2  0  0  0  0
 29 24  1  0  0  0  0
 30 25  1  0  0  0  0
 32 34  2  0  0  0  0
 32 33  1  0  0  0  0
M  END
>  <minimizedAffinity>
-4.38815069

>  <minimizedRMSD>
0.446221054

$$$$
