
 OpenBabel03252501053D

 34 36  0  0  1  0  0  0  0  0999 V2000
   47.7470   34.1310   39.8240 O   0  0  0  0  0  0  0  0  0  0  0  0
   48.0800   35.4640   41.8140 C   0  0  1  0  0  0  0  0  0  0  0  0
   49.3140   34.6760   41.6950 C   0  0  0  0  0  0  0  0  0  0  0  0
   48.4750   35.0610   40.4640 C   0  0  1  0  0  0  0  0  0  0  0  0
   48.1740   36.5210   42.1500 H   0  0  0  0  0  0  0  0  0  0  0  0
   49.3070   33.5580   41.8410 H   0  0  0  0  0  0  0  0  0  0  0  0
   50.3140   35.0880   41.8270 H   0  0  0  0  0  0  0  0  0  0  0  0
   49.0630   35.7360   39.8110 H   0  0  0  0  0  0  0  0  0  0  0  0
   46.0480   32.9620   43.8070 C   0  0  0  0  0  0  0  0  0  0  0  0
   47.1400   33.6390   43.2750 C   0  0  0  0  0  0  0  0  0  0  0  0
   46.9130   34.7290   42.4130 C   0  0  0  0  0  0  0  0  0  0  0  0
   45.6370   35.0940   42.1210 N   0  0  0  0  0  0  0  0  0  0  0  0
   44.5870   34.4130   42.6560 C   0  0  0  0  0  0  0  0  0  0  0  0
   44.7930   33.3520   43.4950 N   0  0  0  0  0  0  0  0  0  0  0  0
   46.2180   32.1340   44.4630 H   0  0  0  0  0  0  0  0  0  0  0  0
   48.1330   33.3190   43.5300 H   0  0  0  0  0  0  0  0  0  0  0  0
   43.5790   34.7210   42.4110 H   0  0  0  0  0  0  0  0  0  0  0  0
   48.5840   32.3670   38.0610 O   0  0  0  0  0  0  0  0  0  0  0  0
   48.0960   33.8020   38.2600 P   0  0  2  0  0  0  0  0  0  0  0  0
   49.2960   34.7810   37.5760 O   0  0  0  0  0  0  0  0  0  0  0  0
   49.0570   35.1720   36.7150 H   0  0  0  0  0  0  0  0  0  0  0  0
   46.7280   33.9230   37.2950 O   0  0  0  0  0  0  0  0  0  0  0  0
   45.6650   33.0420   37.3290 C   0  0  0  0  0  0  0  0  0  0  0  0
   45.3720   32.0110   36.4650 C   0  0  0  0  0  0  0  0  0  0  0  0
   44.2800   31.2210   36.6270 C   0  0  0  0  0  0  0  0  0  0  0  0
   43.4250   31.4400   37.6850 C   0  0  0  0  0  0  0  0  0  0  0  0
   43.7400   32.4890   38.5470 C   0  0  0  0  0  0  0  0  0  0  0  0
   44.8440   33.2610   38.3520 N   0  0  0  0  0  0  0  0  0  0  0  0
   46.0930   31.8940   35.6490 H   0  0  0  0  0  0  0  0  0  0  0  0
   44.0970   30.4230   35.9170 H   0  0  0  0  0  0  0  0  0  0  0  0
   42.5520   30.8350   37.8440 H   0  0  0  0  0  0  0  0  0  0  0  0
   42.8490   32.7570   39.6920 C   0  0  0  0  0  0  0  0  0  0  0  0
   42.6040   31.9420   40.3590 H   0  0  0  0  0  0  0  0  0  0  0  0
   42.3930   33.9150   39.8720 O   0  0  0  0  0  0  0  0  0  0  0  0
  1  4  1  0  0  0  0
  2  5  1  1  0  0  0
  2 11  1  0  0  0  0
  3  2  1  0  0  0  0
  3  7  1  0  0  0  0
  3  6  1  0  0  0  0
  4  8  1  6  0  0  0
  4  3  1  0  0  0  0
  4  2  1  0  0  0  0
  9 15  1  0  0  0  0
 10 16  1  0  0  0  0
 10  9  2  0  0  0  0
 11 10  1  0  0  0  0
 12 11  2  0  0  0  0
 12 13  1  0  0  0  0
 13 14  2  0  0  0  0
 14  9  1  0  0  0  0
 17 13  1  0  0  0  0
 19 18  2  6  0  0  0
 19  1  1  0  0  0  0
 20 19  1  0  0  0  0
 21 20  1  0  0  0  0
 22 23  1  0  0  0  0
 22 19  1  0  0  0  0
 23 28  1  0  0  0  0
 24 25  1  0  0  0  0
 24 23  2  0  0  0  0
 25 26  2  0  0  0  0
 26 31  1  0  0  0  0
 26 27  1  0  0  0  0
 27 32  1  0  0  0  0
 28 27  2  0  0  0  0
 29 24  1  0  0  0  0
 30 25  1  0  0  0  0
 32 34  2  0  0  0  0
 32 33  1  0  0  0  0
M  END
>  <minimizedAffinity>
-4.37291288

>  <minimizedRMSD>
0.583619058

$$$$
