
 OpenBabel03252501053D

 34 36  0  0  1  0  0  0  0  0999 V2000
   47.7210   34.1590   39.7940 O   0  0  0  0  0  0  0  0  0  0  0  0
   48.0820   35.4520   41.8060 C   0  0  1  0  0  0  0  0  0  0  0  0
   49.3070   34.6530   41.6640 C   0  0  0  0  0  0  0  0  0  0  0  0
   48.4640   35.0700   40.4460 C   0  0  1  0  0  0  0  0  0  0  0  0
   48.1890   36.5010   42.1610 H   0  0  0  0  0  0  0  0  0  0  0  0
   49.2880   33.5330   41.7900 H   0  0  0  0  0  0  0  0  0  0  0  0
   50.3110   35.0510   41.7970 H   0  0  0  0  0  0  0  0  0  0  0  0
   49.0540   35.7500   39.8020 H   0  0  0  0  0  0  0  0  0  0  0  0
   46.0370   32.9390   43.7730 C   0  0  0  0  0  0  0  0  0  0  0  0
   47.1330   33.6150   43.2460 C   0  0  0  0  0  0  0  0  0  0  0  0
   46.9110   34.7180   42.3990 C   0  0  0  0  0  0  0  0  0  0  0  0
   45.6370   35.0970   42.1170 N   0  0  0  0  0  0  0  0  0  0  0  0
   44.5830   34.4180   42.6470 C   0  0  0  0  0  0  0  0  0  0  0  0
   44.7840   33.3440   43.4710 N   0  0  0  0  0  0  0  0  0  0  0  0
   46.2020   32.1010   44.4160 H   0  0  0  0  0  0  0  0  0  0  0  0
   48.1230   33.2830   43.4930 H   0  0  0  0  0  0  0  0  0  0  0  0
   43.5770   34.7370   42.4090 H   0  0  0  0  0  0  0  0  0  0  0  0
   48.5410   32.3700   38.0490 O   0  0  0  0  0  0  0  0  0  0  0  0
   48.0890   33.8180   38.2370 P   0  0  2  0  0  0  0  0  0  0  0  0
   49.3270   34.7630   37.5730 O   0  0  0  0  0  0  0  0  0  0  0  0
   49.1140   35.1590   36.7080 H   0  0  0  0  0  0  0  0  0  0  0  0
   46.7420   33.9740   37.2470 O   0  0  0  0  0  0  0  0  0  0  0  0
   45.7000   33.0700   37.1950 C   0  0  0  0  0  0  0  0  0  0  0  0
   45.4960   32.0410   36.3030 C   0  0  0  0  0  0  0  0  0  0  0  0
   44.4140   31.2250   36.3760 C   0  0  0  0  0  0  0  0  0  0  0  0
   43.4760   31.4160   37.3680 C   0  0  0  0  0  0  0  0  0  0  0  0
   43.7010   32.4630   38.2590 C   0  0  0  0  0  0  0  0  0  0  0  0
   44.7990   33.2610   38.1540 N   0  0  0  0  0  0  0  0  0  0  0  0
   46.2790   31.9470   35.5430 H   0  0  0  0  0  0  0  0  0  0  0  0
   44.3030   30.4300   35.6480 H   0  0  0  0  0  0  0  0  0  0  0  0
   42.6080   30.7910   37.4550 H   0  0  0  0  0  0  0  0  0  0  0  0
   42.7200   32.7010   39.3350 C   0  0  0  0  0  0  0  0  0  0  0  0
   41.8730   33.3390   39.1290 H   0  0  0  0  0  0  0  0  0  0  0  0
   42.8840   32.1650   40.4610 O   0  0  0  0  0  0  0  0  0  0  0  0
  1  4  1  0  0  0  0
  2  5  1  1  0  0  0
  2 11  1  0  0  0  0
  3  6  1  0  0  0  0
  3  7  1  0  0  0  0
  3  2  1  0  0  0  0
  4  8  1  6  0  0  0
  4  3  1  0  0  0  0
  4  2  1  0  0  0  0
  9 15  1  0  0  0  0
 10 16  1  0  0  0  0
 10  9  2  0  0  0  0
 11 10  1  0  0  0  0
 12 11  2  0  0  0  0
 12 13  1  0  0  0  0
 13 14  2  0  0  0  0
 14  9  1  0  0  0  0
 17 13  1  0  0  0  0
 19 18  2  6  0  0  0
 19  1  1  0  0  0  0
 20 19  1  0  0  0  0
 21 20  1  0  0  0  0
 22 19  1  0  0  0  0
 23 22  1  0  0  0  0
 23 28  1  0  0  0  0
 24 25  1  0  0  0  0
 24 23  2  0  0  0  0
 25 26  2  0  0  0  0
 26 31  1  0  0  0  0
 26 27  1  0  0  0  0
 27 32  1  0  0  0  0
 28 27  2  0  0  0  0
 29 24  1  0  0  0  0
 30 25  1  0  0  0  0
 32 34  2  0  0  0  0
 33 32  1  0  0  0  0
M  END
>  <minimizedAffinity>
-4.31219482

>  <minimizedRMSD>
0.421128809

$$$$
