
 OpenBabel03252501053D

 34 36  0  0  1  0  0  0  0  0999 V2000
   47.7600   34.0380   39.7760 O   0  0  0  0  0  0  0  0  0  0  0  0
   47.9670   35.4080   41.7590 C   0  0  1  0  0  0  0  0  0  0  0  0
   49.2320   34.6620   41.6990 C   0  0  0  0  0  0  0  0  0  0  0  0
   48.4300   35.0020   40.4310 C   0  0  1  0  0  0  0  0  0  0  0  0
   48.0110   36.4710   42.0830 H   0  0  0  0  0  0  0  0  0  0  0  0
   49.2580   33.5470   41.8610 H   0  0  0  0  0  0  0  0  0  0  0  0
   50.2110   35.1110   41.8650 H   0  0  0  0  0  0  0  0  0  0  0  0
   49.0190   35.6880   39.7920 H   0  0  0  0  0  0  0  0  0  0  0  0
   45.9360   32.9540   43.8110 C   0  0  0  0  0  0  0  0  0  0  0  0
   47.0230   33.6650   43.3140 C   0  0  0  0  0  0  0  0  0  0  0  0
   46.8040   34.6400   42.3220 C   0  0  0  0  0  0  0  0  0  0  0  0
   45.5400   34.8650   41.8750 N   0  0  0  0  0  0  0  0  0  0  0  0
   44.4950   34.1540   42.3810 C   0  0  0  0  0  0  0  0  0  0  0  0
   44.6940   33.2030   43.3440 N   0  0  0  0  0  0  0  0  0  0  0  0
   46.1000   32.2120   44.5650 H   0  0  0  0  0  0  0  0  0  0  0  0
   48.0060   33.4560   43.6930 H   0  0  0  0  0  0  0  0  0  0  0  0
   43.4980   34.3500   42.0110 H   0  0  0  0  0  0  0  0  0  0  0  0
   48.5750   32.3430   37.9370 O   0  0  0  0  0  0  0  0  0  0  0  0
   48.1080   33.7750   38.1990 P   0  0  2  0  0  0  0  0  0  0  0  0
   49.3240   34.7660   37.5620 O   0  0  0  0  0  0  0  0  0  0  0  0
   49.0930   35.1980   36.7200 H   0  0  0  0  0  0  0  0  0  0  0  0
   46.7440   33.9600   37.2390 O   0  0  0  0  0  0  0  0  0  0  0  0
   45.6940   33.0640   37.1890 C   0  0  0  0  0  0  0  0  0  0  0  0
   45.4720   32.0450   36.2900 C   0  0  0  0  0  0  0  0  0  0  0  0
   44.3840   31.2380   36.3670 C   0  0  0  0  0  0  0  0  0  0  0  0
   43.4590   31.4270   37.3710 C   0  0  0  0  0  0  0  0  0  0  0  0
   43.7020   32.4630   38.2690 C   0  0  0  0  0  0  0  0  0  0  0  0
   44.8050   33.2540   38.1600 N   0  0  0  0  0  0  0  0  0  0  0  0
   46.2460   31.9530   35.5210 H   0  0  0  0  0  0  0  0  0  0  0  0
   44.2590   30.4500   35.6330 H   0  0  0  0  0  0  0  0  0  0  0  0
   42.5870   30.8070   37.4610 H   0  0  0  0  0  0  0  0  0  0  0  0
   42.7350   32.6990   39.3580 C   0  0  0  0  0  0  0  0  0  0  0  0
   43.0840   33.1710   40.2660 H   0  0  0  0  0  0  0  0  0  0  0  0
   41.5350   32.3510   39.2150 O   0  0  0  0  0  0  0  0  0  0  0  0
  1  4  1  0  0  0  0
  2  5  1  1  0  0  0
  2 11  1  0  0  0  0
  3  2  1  0  0  0  0
  3  6  1  0  0  0  0
  3  7  1  0  0  0  0
  4  8  1  6  0  0  0
  4  3  1  0  0  0  0
  4  2  1  0  0  0  0
  9 15  1  0  0  0  0
 10 16  1  0  0  0  0
 10  9  2  0  0  0  0
 11 10  1  0  0  0  0
 12 11  2  0  0  0  0
 12 13  1  0  0  0  0
 13 14  2  0  0  0  0
 14  9  1  0  0  0  0
 17 13  1  0  0  0  0
 19 18  2  6  0  0  0
 19  1  1  0  0  0  0
 20 19  1  0  0  0  0
 21 20  1  0  0  0  0
 22 19  1  0  0  0  0
 23 22  1  0  0  0  0
 23 28  1  0  0  0  0
 24 25  1  0  0  0  0
 24 23  2  0  0  0  0
 25 26  2  0  0  0  0
 26 31  1  0  0  0  0
 26 27  1  0  0  0  0
 27 32  1  0  0  0  0
 28 27  2  0  0  0  0
 29 24  1  0  0  0  0
 30 25  1  0  0  0  0
 32 33  1  0  0  0  0
 34 32  2  0  0  0  0
M  END
>  <minimizedAffinity>
-4.34578085

>  <minimizedRMSD>
0.502894044

$$$$
