
 OpenBabel03252501053D

 34 36  0  0  1  0  0  0  0  0999 V2000
   47.7410   34.1670   39.8050 O   0  0  0  0  0  0  0  0  0  0  0  0
   48.0980   35.4640   41.8140 C   0  0  1  0  0  0  0  0  0  0  0  0
   49.3240   34.6670   41.6750 C   0  0  0  0  0  0  0  0  0  0  0  0
   48.4820   35.0800   40.4560 C   0  0  1  0  0  0  0  0  0  0  0  0
   48.2030   36.5140   42.1670 H   0  0  0  0  0  0  0  0  0  0  0  0
   49.3080   33.5470   41.8040 H   0  0  0  0  0  0  0  0  0  0  0  0
   50.3280   35.0680   41.8080 H   0  0  0  0  0  0  0  0  0  0  0  0
   49.0720   35.7590   39.8100 H   0  0  0  0  0  0  0  0  0  0  0  0
   46.0550   32.9440   43.7720 C   0  0  0  0  0  0  0  0  0  0  0  0
   47.1500   33.6200   43.2450 C   0  0  0  0  0  0  0  0  0  0  0  0
   46.9280   34.7310   42.4080 C   0  0  0  0  0  0  0  0  0  0  0  0
   45.6540   35.1170   42.1360 N   0  0  0  0  0  0  0  0  0  0  0  0
   44.6000   34.4370   42.6670 C   0  0  0  0  0  0  0  0  0  0  0  0
   44.8010   33.3560   43.4800 N   0  0  0  0  0  0  0  0  0  0  0  0
   46.2200   32.1000   44.4080 H   0  0  0  0  0  0  0  0  0  0  0  0
   48.1410   33.2820   43.4830 H   0  0  0  0  0  0  0  0  0  0  0  0
   43.5950   34.7620   42.4370 H   0  0  0  0  0  0  0  0  0  0  0  0
   48.5190   32.3980   38.0200 O   0  0  0  0  0  0  0  0  0  0  0  0
   48.0890   33.8480   38.2380 P   0  0  2  0  0  0  0  0  0  0  0  0
   49.3320   34.7880   37.5780 O   0  0  0  0  0  0  0  0  0  0  0  0
   49.1160   35.2020   36.7220 H   0  0  0  0  0  0  0  0  0  0  0  0
   46.7340   34.0390   37.2660 O   0  0  0  0  0  0  0  0  0  0  0  0
   45.7720   33.0690   37.0630 C   0  0  0  0  0  0  0  0  0  0  0  0
   45.6300   32.2060   36.0000 C   0  0  0  0  0  0  0  0  0  0  0  0
   44.6250   31.2960   35.9370 C   0  0  0  0  0  0  0  0  0  0  0  0
   43.7060   31.2170   36.9610 C   0  0  0  0  0  0  0  0  0  0  0  0
   43.8680   32.1000   38.0270 C   0  0  0  0  0  0  0  0  0  0  0  0
   44.8890   33.0000   38.0550 N   0  0  0  0  0  0  0  0  0  0  0  0
   46.3940   32.3230   35.2240 H   0  0  0  0  0  0  0  0  0  0  0  0
   44.5610   30.6400   35.0770 H   0  0  0  0  0  0  0  0  0  0  0  0
   42.8980   30.5110   36.9450 H   0  0  0  0  0  0  0  0  0  0  0  0
   42.9040   32.0490   39.1430 C   0  0  0  0  0  0  0  0  0  0  0  0
   41.8500   31.9800   38.9120 H   0  0  0  0  0  0  0  0  0  0  0  0
   43.3190   32.0860   40.3290 O   0  0  0  0  0  0  0  0  0  0  0  0
  1  4  1  0  0  0  0
  2  5  1  1  0  0  0
  2 11  1  0  0  0  0
  3  6  1  0  0  0  0
  3  7  1  0  0  0  0
  3  2  1  0  0  0  0
  4  8  1  6  0  0  0
  4  3  1  0  0  0  0
  4  2  1  0  0  0  0
  9 15  1  0  0  0  0
 10 16  1  0  0  0  0
 10  9  2  0  0  0  0
 11 10  1  0  0  0  0
 12 11  2  0  0  0  0
 12 13  1  0  0  0  0
 13 14  2  0  0  0  0
 14  9  1  0  0  0  0
 17 13  1  0  0  0  0
 19 18  2  6  0  0  0
 19  1  1  0  0  0  0
 20 19  1  0  0  0  0
 21 20  1  0  0  0  0
 22 19  1  0  0  0  0
 23 22  1  0  0  0  0
 23 28  1  0  0  0  0
 24 23  2  0  0  0  0
 25 24  1  0  0  0  0
 25 26  2  0  0  0  0
 26 27  1  0  0  0  0
 27 28  2  0  0  0  0
 27 32  1  0  0  0  0
 29 24  1  0  0  0  0
 30 25  1  0  0  0  0
 31 26  1  0  0  0  0
 32 34  2  0  0  0  0
 33 32  1  0  0  0  0
M  END
>  <minimizedAffinity>
-4.26134348

>  <minimizedRMSD>
0.0936136544

$$$$
