
 OpenBabel03252501053D

 34 36  0  0  1  0  0  0  0  0999 V2000
   47.7760   34.0660   39.8020 O   0  0  0  0  0  0  0  0  0  0  0  0
   48.0290   35.4380   41.7770 C   0  0  1  0  0  0  0  0  0  0  0  0
   49.2910   34.6910   41.6910 C   0  0  0  0  0  0  0  0  0  0  0  0
   48.4610   35.0300   40.4400 C   0  0  1  0  0  0  0  0  0  0  0  0
   48.0800   36.5020   42.0990 H   0  0  0  0  0  0  0  0  0  0  0  0
   49.3190   33.5760   41.8540 H   0  0  0  0  0  0  0  0  0  0  0  0
   50.2740   35.1390   41.8340 H   0  0  0  0  0  0  0  0  0  0  0  0
   49.0370   35.7140   39.7870 H   0  0  0  0  0  0  0  0  0  0  0  0
   46.0470   32.9340   43.8180 C   0  0  0  0  0  0  0  0  0  0  0  0
   47.1250   33.6420   43.2950 C   0  0  0  0  0  0  0  0  0  0  0  0
   46.8780   34.6730   42.3670 C   0  0  0  0  0  0  0  0  0  0  0  0
   45.5980   34.9510   42.0060 N   0  0  0  0  0  0  0  0  0  0  0  0
   44.5630   34.2430   42.5340 C   0  0  0  0  0  0  0  0  0  0  0  0
   44.7880   33.2390   43.4360 N   0  0  0  0  0  0  0  0  0  0  0  0
   46.2320   32.1510   44.5230 H   0  0  0  0  0  0  0  0  0  0  0  0
   48.1210   33.3890   43.6060 H   0  0  0  0  0  0  0  0  0  0  0  0
   43.5520   34.4820   42.2320 H   0  0  0  0  0  0  0  0  0  0  0  0
   48.5960   32.3450   37.9890 O   0  0  0  0  0  0  0  0  0  0  0  0
   48.1140   33.7750   38.2270 P   0  0  2  0  0  0  0  0  0  0  0  0
   49.3120   34.7680   37.5610 O   0  0  0  0  0  0  0  0  0  0  0  0
   49.0690   35.1820   36.7120 H   0  0  0  0  0  0  0  0  0  0  0  0
   46.7400   33.9250   37.2750 O   0  0  0  0  0  0  0  0  0  0  0  0
   45.6840   33.0350   37.2780 C   0  0  0  0  0  0  0  0  0  0  0  0
   45.4270   32.0000   36.4080 C   0  0  0  0  0  0  0  0  0  0  0  0
   44.3380   31.2000   36.5380 C   0  0  0  0  0  0  0  0  0  0  0  0
   43.4480   31.4150   37.5670 C   0  0  0  0  0  0  0  0  0  0  0  0
   43.7260   32.4680   38.4360 C   0  0  0  0  0  0  0  0  0  0  0  0
   44.8290   33.2500   38.2740 N   0  0  0  0  0  0  0  0  0  0  0  0
   46.1750   31.8870   35.6160 H   0  0  0  0  0  0  0  0  0  0  0  0
   44.1850   30.3990   35.8250 H   0  0  0  0  0  0  0  0  0  0  0  0
   42.5760   30.8030   37.7000 H   0  0  0  0  0  0  0  0  0  0  0  0
   42.7970   32.7310   39.5510 C   0  0  0  0  0  0  0  0  0  0  0  0
   42.5110   31.9080   40.1910 H   0  0  0  0  0  0  0  0  0  0  0  0
   42.3570   33.8950   39.7380 O   0  0  0  0  0  0  0  0  0  0  0  0
  1  4  1  0  0  0  0
  2  5  1  1  0  0  0
  2 11  1  0  0  0  0
  3  2  1  0  0  0  0
  3  7  1  0  0  0  0
  3  6  1  0  0  0  0
  4  8  1  6  0  0  0
  4  3  1  0  0  0  0
  4  2  1  0  0  0  0
  9 15  1  0  0  0  0
 10 16  1  0  0  0  0
 10  9  2  0  0  0  0
 11 10  1  0  0  0  0
 12 11  2  0  0  0  0
 12 13  1  0  0  0  0
 13 14  2  0  0  0  0
 14  9  1  0  0  0  0
 17 13  1  0  0  0  0
 19 18  2  6  0  0  0
 19  1  1  0  0  0  0
 20 19  1  0  0  0  0
 21 20  1  0  0  0  0
 22 23  1  0  0  0  0
 22 19  1  0  0  0  0
 23 28  1  0  0  0  0
 24 25  1  0  0  0  0
 24 23  2  0  0  0  0
 25 26  2  0  0  0  0
 26 31  1  0  0  0  0
 26 27  1  0  0  0  0
 27 32  1  0  0  0  0
 28 27  2  0  0  0  0
 29 24  1  0  0  0  0
 30 25  1  0  0  0  0
 32 34  2  0  0  0  0
 32 33  1  0  0  0  0
M  END
>  <minimizedAffinity>
-4.36933327

>  <minimizedRMSD>
0.463990211

$$$$
