
 OpenBabel03252509143D

 39 42  0  0  1  0  0  0  0  0999 V2000
   47.4760   32.5820   44.2550 C   0  0  0  0  0  0  0  0  0  0  0  0
   46.7850   33.5490   43.5310 C   0  0  0  0  0  0  0  0  0  0  0  0
   45.7530   34.2910   44.0770 C   0  0  0  0  0  0  0  0  0  0  0  0
   45.3740   34.0770   45.4070 C   0  0  0  0  0  0  0  0  0  0  0  0
   44.4590   34.5870   46.2380 N   0  0  0  0  0  0  0  0  0  0  0  0
   44.5300   34.0020   47.4370 C   0  0  0  0  0  0  0  0  0  0  0  0
   45.5310   33.1000   47.3320 N   0  0  0  0  0  0  0  0  0  0  0  0
   46.0700   33.1220   46.0950 C   0  0  0  0  0  0  0  0  0  0  0  0
   47.1080   32.3580   45.5840 C   0  0  0  0  0  0  0  0  0  0  0  0
   48.2850   32.0050   43.8110 H   0  0  0  0  0  0  0  0  0  0  0  0
   43.7790   35.3420   45.9820 H   0  0  0  0  0  0  0  0  0  0  0  0
   43.9200   34.1980   48.3230 H   0  0  0  0  0  0  0  0  0  0  0  0
   47.6150   31.6190   46.1860 H   0  0  0  0  0  0  0  0  0  0  0  0
   47.0090   33.1670   39.8950 C   0  0  0  0  0  0  0  0  0  0  0  0
   47.8510   34.2180   39.5250 C   0  0  0  0  0  0  0  0  0  0  0  0
   48.3380   35.0550   40.5330 C   0  0  0  0  0  0  0  0  0  0  0  0
   47.9730   34.8140   41.8350 N   0  0  0  0  0  0  0  0  0  0  0  0
   47.1610   33.7890   42.1380 C   0  0  0  0  0  0  0  0  0  0  0  0
   46.6650   32.9520   41.1940 N   0  0  0  0  0  0  0  0  0  0  0  0
   46.5850   32.4680   39.1790 H   0  0  0  0  0  0  0  0  0  0  0  0
   48.0730   34.3190   38.4890 H   0  0  0  0  0  0  0  0  0  0  0  0
   48.9830   35.8630   40.2610 H   0  0  0  0  0  0  0  0  0  0  0  0
   44.8850   35.5210   43.1290 S   0  0  0  0  0  0  0  0  0  0  0  0
   42.3560   35.4690   42.4300 N   0  0  0  0  0  0  0  0  0  0  0  0
   43.6090   34.8380   42.0480 C   0  0  1  0  0  0  0  0  0  0  0  0
   44.0090   35.2390   40.6270 C   0  0  0  0  0  0  0  0  0  0  0  0
   42.9520   35.2190   39.7410 O   0  0  0  0  0  0  0  0  0  0  0  0
   41.7980   34.6310   40.1930 C   0  0  0  0  0  0  0  0  0  0  0  0
   41.3380   35.3560   41.4360 C   0  0  1  0  0  0  0  0  0  0  0  0
   42.1100   35.1270   43.3630 H   0  0  0  0  0  0  0  0  0  0  0  0
   43.5720   33.7390   42.1800 H   0  0  0  0  0  0  0  0  0  0  0  0
   44.7040   34.4970   40.2430 H   0  0  0  0  0  0  0  0  0  0  0  0
   44.5080   36.2150   40.6160 H   0  0  0  0  0  0  0  0  0  0  0  0
   41.9280   33.5720   40.4790 H   0  0  0  0  0  0  0  0  0  0  0  0
   41.0380   34.7270   39.4200 H   0  0  0  0  0  0  0  0  0  0  0  0
   40.9710   36.3610   41.1110 H   0  0  0  0  0  0  0  0  0  0  0  0
   40.2000   34.5940   42.0230 C   0  0  0  0  0  0  0  0  0  0  0  0
   39.5710   34.8980   42.8410 H   0  0  0  0  0  0  0  0  0  0  0  0
   39.9700   33.5200   41.5150 O   0  0  0  0  0  0  0  0  0  0  0  0
  1  9  1  0  0  0  0
  2  3  1  0  0  0  0
  2  1  2  0  0  0  0
  3  4  2  0  0  0  0
  4  8  1  0  0  0  0
  4  5  1  0  0  0  0
  5  6  1  0  0  0  0
  6 12  1  0  0  0  0
  7  6  2  0  0  0  0
  8  7  1  0  0  0  0
  9  8  2  0  0  0  0
  9 13  1  0  0  0  0
 10  1  1  0  0  0  0
 11  5  1  0  0  0  0
 14 19  1  0  0  0  0
 15 14  2  0  0  0  0
 15 16  1  0  0  0  0
 16 17  2  0  0  0  0
 17 18  1  0  0  0  0
 18  2  1  0  0  0  0
 19 18  2  0  0  0  0
 20 14  1  0  0  0  0
 21 15  1  0  0  0  0
 22 16  1  0  0  0  0
 23  3  1  0  0  0  0
 24 30  1  0  0  0  0
 25 31  1  1  0  0  0
 25 24  1  0  0  0  0
 25 23  1  0  0  0  0
 26 25  1  0  0  0  0
 27 28  1  0  0  0  0
 27 26  1  0  0  0  0
 28 34  1  0  0  0  0
 28 29  1  0  0  0  0
 29 36  1  6  0  0  0
 29 37  1  0  0  0  0
 29 24  1  0  0  0  0
 32 26  1  0  0  0  0
 33 26  1  0  0  0  0
 35 28  1  0  0  0  0
 37 38  1  0  0  0  0
 39 37  2  0  0  0  0
M  END
>  <minimizedAffinity>
-5.7121067

>  <minimizedRMSD>
0.54298985

$$$$
