
 OpenBabel03252501153D

 22 23  0  0  1  0  0  0  0  0999 V2000
   37.5820   28.4350   42.3910 C   0  0  0  0  0  0  0  0  0  0  0  0
   36.8290   29.2210   41.5190 C   0  0  0  0  0  0  0  0  0  0  0  0
   37.3490   30.4630   41.2070 C   0  0  0  0  0  0  0  0  0  0  0  0
   38.5370   30.8430   41.7530 N   0  0  0  0  0  0  0  0  0  0  0  0
   39.2330   30.0500   42.5930 C   0  0  0  0  0  0  0  0  0  0  0  0
   38.7460   28.8250   42.9180 N   0  0  0  0  0  0  0  0  0  0  0  0
   35.8890   28.8850   41.1060 H   0  0  0  0  0  0  0  0  0  0  0  0
   40.1750   30.3780   43.0130 H   0  0  0  0  0  0  0  0  0  0  0  0
   36.6220   31.3950   40.2860 C   0  0  1  0  0  0  0  0  0  0  0  0
   37.4250   32.5860   39.8650 C   0  0  0  0  0  0  0  0  0  0  0  0
   37.0350   31.4440   38.8740 C   0  0  1  0  0  0  0  0  0  0  0  0
   35.5840   31.5860   40.5920 H   0  0  0  0  0  0  0  0  0  0  0  0
   38.5220   32.6150   40.0820 H   0  0  0  0  0  0  0  0  0  0  0  0
   36.9220   33.5680   39.6570 H   0  0  0  0  0  0  0  0  0  0  0  0
   36.3530   31.7260   38.0700 H   0  0  0  0  0  0  0  0  0  0  0  0
   38.1270   30.5190   38.4630 C   0  0  0  0  0  0  0  0  0  0  0  0
   39.0510   30.3950   39.0400 H   0  0  0  0  0  0  0  0  0  0  0  0
   38.0050   29.8650   37.4440 O   0  0  0  0  0  0  0  0  0  0  0  0
   37.0490   27.0810   42.7390 C   0  0  0  0  0  0  0  0  0  0  0  0
   38.0960   26.3560   43.2900 F   0  0  0  0  0  0  0  0  0  0  0  0
   36.6650   26.4610   41.5800 F   0  0  0  0  0  0  0  0  0  0  0  0
   36.0530   27.1590   43.6780 F   0  0  0  0  0  0  0  0  0  0  0  0
  1 19  1  0  0  0  0
  1  6  1  0  0  0  0
  2  1  2  0  0  0  0
  3  2  1  0  0  0  0
  3  4  2  0  0  0  0
  4  5  1  0  0  0  0
  5  6  2  0  0  0  0
  5  8  1  0  0  0  0
  7  2  1  0  0  0  0
  9 12  1  1  0  0  0
  9  3  1  0  0  0  0
 10 13  1  0  0  0  0
 10  9  1  0  0  0  0
 11 15  1  6  0  0  0
 11 10  1  0  0  0  0
 11  9  1  0  0  0  0
 14 10  1  0  0  0  0
 16 11  1  0  0  0  0
 16 17  1  0  0  0  0
 18 16  2  0  0  0  0
 19 20  1  0  0  0  0
 19 22  1  0  0  0  0
 21 19  1  0  0  0  0
M  END
>  <minimizedAffinity>
-4.44607925

$$$$

 OpenBabel03252501153D

 22 23  0  0  1  0  0  0  0  0999 V2000
   36.7370   28.8160   41.6480 C   0  0  0  0  0  0  0  0  0  0  0  0
   36.5500   27.4440   41.4840 C   0  0  0  0  0  0  0  0  0  0  0  0
   37.2340   26.6220   42.3590 C   0  0  0  0  0  0  0  0  0  0  0  0
   38.0340   27.1800   43.3090 N   0  0  0  0  0  0  0  0  0  0  0  0
   38.1880   28.5150   43.4310 C   0  0  0  0  0  0  0  0  0  0  0  0
   37.5270   29.3470   42.5850 N   0  0  0  0  0  0  0  0  0  0  0  0
   35.9050   27.0380   40.7180 H   0  0  0  0  0  0  0  0  0  0  0  0
   38.8320   28.9310   44.1950 H   0  0  0  0  0  0  0  0  0  0  0  0
   37.1130   25.1310   42.2720 C   0  0  1  0  0  0  0  0  0  0  0  0
   36.7510   24.6270   40.9100 C   0  0  0  0  0  0  0  0  0  0  0  0
   38.1560   24.3870   41.5480 C   0  0  1  0  0  0  0  0  0  0  0  0
   36.5690   24.6900   43.1200 H   0  0  0  0  0  0  0  0  0  0  0  0
   36.7850   25.3260   40.0370 H   0  0  0  0  0  0  0  0  0  0  0  0
   36.1340   23.6970   40.7910 H   0  0  0  0  0  0  0  0  0  0  0  0
   38.4040   23.3480   41.7740 H   0  0  0  0  0  0  0  0  0  0  0  0
   39.2830   25.1850   40.9920 C   0  0  0  0  0  0  0  0  0  0  0  0
   39.1740   25.8430   40.1210 H   0  0  0  0  0  0  0  0  0  0  0  0
   40.3800   25.1160   41.5140 O   0  0  0  0  0  0  0  0  0  0  0  0
   36.0000   29.7320   40.7220 C   0  0  0  0  0  0  0  0  0  0  0  0
   34.7200   29.2190   40.5690 F   0  0  0  0  0  0  0  0  0  0  0  0
   36.6210   29.6970   39.5020 F   0  0  0  0  0  0  0  0  0  0  0  0
   35.8870   30.9930   41.2470 F   0  0  0  0  0  0  0  0  0  0  0  0
  1  6  1  0  0  0  0
  2  1  2  0  0  0  0
  2  3  1  0  0  0  0
  3  4  2  0  0  0  0
  4  5  1  0  0  0  0
  5  8  1  0  0  0  0
  6  5  2  0  0  0  0
  7  2  1  0  0  0  0
  9  3  1  0  0  0  0
  9 12  1  1  0  0  0
 10 11  1  0  0  0  0
 10  9  1  0  0  0  0
 11 15  1  1  0  0  0
 11  9  1  0  0  0  0
 13 10  1  0  0  0  0
 14 10  1  0  0  0  0
 16 18  2  0  0  0  0
 16 11  1  0  0  0  0
 17 16  1  0  0  0  0
 19 22  1  0  0  0  0
 19  1  1  0  0  0  0
 20 19  1  0  0  0  0
 21 19  1  0  0  0  0
M  END
>  <minimizedAffinity>
-4.3367362

$$$$

 OpenBabel03252501153D

 22 23  0  0  1  0  0  0  0  0999 V2000
   36.1560   29.4400   39.9850 C   0  0  0  0  0  0  0  0  0  0  0  0
   36.2210   28.8400   41.2420 C   0  0  0  0  0  0  0  0  0  0  0  0
   37.2330   29.2730   42.0780 C   0  0  0  0  0  0  0  0  0  0  0  0
   38.0900   30.2370   41.6400 N   0  0  0  0  0  0  0  0  0  0  0  0
   37.9910   30.7910   40.4150 C   0  0  0  0  0  0  0  0  0  0  0  0
   37.0060   30.3840   39.5720 N   0  0  0  0  0  0  0  0  0  0  0  0
   35.5220   28.0770   41.5540 H   0  0  0  0  0  0  0  0  0  0  0  0
   38.6860   31.5550   40.0930 H   0  0  0  0  0  0  0  0  0  0  0  0
   37.4030   28.6940   43.4490 C   0  0  1  0  0  0  0  0  0  0  0  0
   36.6480   27.4200   43.6710 C   0  0  0  0  0  0  0  0  0  0  0  0
   38.2070   27.4690   43.5950 C   0  0  1  0  0  0  0  0  0  0  0  0
   37.3440   29.4460   44.2480 H   0  0  0  0  0  0  0  0  0  0  0  0
   36.1890   26.8930   42.7980 H   0  0  0  0  0  0  0  0  0  0  0  0
   36.2450   27.1660   44.6870 H   0  0  0  0  0  0  0  0  0  0  0  0
   38.7360   27.2170   44.5160 H   0  0  0  0  0  0  0  0  0  0  0  0
   38.8290   26.9250   42.3560 C   0  0  0  0  0  0  0  0  0  0  0  0
   38.2650   26.3580   41.6060 H   0  0  0  0  0  0  0  0  0  0  0  0
   40.0140   27.1100   42.1510 O   0  0  0  0  0  0  0  0  0  0  0  0
   35.0640   28.9990   39.0620 C   0  0  0  0  0  0  0  0  0  0  0  0
   33.8590   29.2070   39.7200 F   0  0  0  0  0  0  0  0  0  0  0  0
   35.2030   27.6540   38.8460 F   0  0  0  0  0  0  0  0  0  0  0  0
   35.0470   29.7430   37.9120 F   0  0  0  0  0  0  0  0  0  0  0  0
  1  2  1  0  0  0  0
  2  7  1  0  0  0  0
  2  3  2  0  0  0  0
  3  9  1  0  0  0  0
  4  3  1  0  0  0  0
  5  4  2  0  0  0  0
  6  1  2  0  0  0  0
  6  5  1  0  0  0  0
  8  5  1  0  0  0  0
  9 11  1  0  0  0  0
  9 10  1  0  0  0  0
  9 12  1  1  0  0  0
 10 14  1  0  0  0  0
 11 10  1  0  0  0  0
 11 15  1  1  0  0  0
 13 10  1  0  0  0  0
 16 11  1  0  0  0  0
 17 16  1  0  0  0  0
 18 16  2  0  0  0  0
 19 20  1  0  0  0  0
 19  1  1  0  0  0  0
 21 19  1  0  0  0  0
 22 19  1  0  0  0  0
M  END
>  <minimizedAffinity>
-4.31813669

$$$$

 OpenBabel03252501153D

 22 23  0  0  1  0  0  0  0  0999 V2000
   37.8050   30.9770   40.9080 C   0  0  0  0  0  0  0  0  0  0  0  0
   37.3340   29.9280   41.6960 C   0  0  0  0  0  0  0  0  0  0  0  0
   38.1570   29.5160   42.7280 C   0  0  0  0  0  0  0  0  0  0  0  0
   39.3530   30.1400   42.9130 N   0  0  0  0  0  0  0  0  0  0  0  0
   39.7710   31.1520   42.1250 C   0  0  0  0  0  0  0  0  0  0  0  0
   38.9820   31.5770   41.1040 N   0  0  0  0  0  0  0  0  0  0  0  0
   36.3780   29.4560   41.5180 H   0  0  0  0  0  0  0  0  0  0  0  0
   40.7270   31.6300   42.2950 H   0  0  0  0  0  0  0  0  0  0  0  0
   37.7560   28.3930   43.6340 C   0  0  1  0  0  0  0  0  0  0  0  0
   36.6860   27.5090   43.0730 C   0  0  0  0  0  0  0  0  0  0  0  0
   38.1570   27.0250   43.2710 C   0  0  1  0  0  0  0  0  0  0  0  0
   37.6380   28.7030   44.6820 H   0  0  0  0  0  0  0  0  0  0  0  0
   36.4020   27.6040   41.9960 H   0  0  0  0  0  0  0  0  0  0  0  0
   35.9430   27.0120   43.7530 H   0  0  0  0  0  0  0  0  0  0  0  0
   38.3030   26.2360   44.0120 H   0  0  0  0  0  0  0  0  0  0  0  0
   38.9780   26.8730   42.0380 C   0  0  0  0  0  0  0  0  0  0  0  0
   38.5580   26.9610   41.0280 H   0  0  0  0  0  0  0  0  0  0  0  0
   40.1680   26.6420   42.1360 O   0  0  0  0  0  0  0  0  0  0  0  0
   36.9310   31.4510   39.7900 C   0  0  0  0  0  0  0  0  0  0  0  0
   36.8700   32.8350   39.8730 F   0  0  0  0  0  0  0  0  0  0  0  0
   35.6700   30.9570   39.9940 F   0  0  0  0  0  0  0  0  0  0  0  0
   37.4590   31.1270   38.5670 F   0  0  0  0  0  0  0  0  0  0  0  0
  1  6  2  0  0  0  0
  1  2  1  0  0  0  0
  2  3  2  0  0  0  0
  3  4  1  0  0  0  0
  3  9  1  0  0  0  0
  5  8  1  0  0  0  0
  5  4  2  0  0  0  0
  6  5  1  0  0  0  0
  7  2  1  0  0  0  0
  9 12  1  1  0  0  0
 10 11  1  0  0  0  0
 10  9  1  0  0  0  0
 10 14  1  0  0  0  0
 11  9  1  0  0  0  0
 11 15  1  1  0  0  0
 13 10  1  0  0  0  0
 16 18  2  0  0  0  0
 16 11  1  0  0  0  0
 17 16  1  0  0  0  0
 19 20  1  0  0  0  0
 19 21  1  0  0  0  0
 19  1  1  0  0  0  0
 22 19  1  0  0  0  0
M  END
>  <minimizedAffinity>
-4.30361605

$$$$

 OpenBabel03252501153D

 22 23  0  0  1  0  0  0  0  0999 V2000
   37.4590   26.6790   42.2150 C   0  0  0  0  0  0  0  0  0  0  0  0
   36.6870   27.4450   41.3420 C   0  0  0  0  0  0  0  0  0  0  0  0
   36.6810   28.8100   41.5620 C   0  0  0  0  0  0  0  0  0  0  0  0
   37.4090   29.3200   42.5940 N   0  0  0  0  0  0  0  0  0  0  0  0
   38.1420   28.5410   43.4160 C   0  0  0  0  0  0  0  0  0  0  0  0
   38.1660   27.1970   43.2220 N   0  0  0  0  0  0  0  0  0  0  0  0
   36.1210   27.0040   40.5330 H   0  0  0  0  0  0  0  0  0  0  0  0
   38.7110   28.9740   44.2290 H   0  0  0  0  0  0  0  0  0  0  0  0
   35.8810   29.7290   40.6910 C   0  0  1  0  0  0  0  0  0  0  0  0
   36.3070   31.1630   40.7640 C   0  0  0  0  0  0  0  0  0  0  0  0
   36.5230   30.2860   39.4890 C   0  0  1  0  0  0  0  0  0  0  0  0
   34.8000   29.5350   40.7320 H   0  0  0  0  0  0  0  0  0  0  0  0
   37.2650   31.4270   41.2750 H   0  0  0  0  0  0  0  0  0  0  0  0
   35.5560   31.9870   40.6330 H   0  0  0  0  0  0  0  0  0  0  0  0
   35.9590   30.5870   38.6040 H   0  0  0  0  0  0  0  0  0  0  0  0
   37.9190   29.8500   39.2120 C   0  0  0  0  0  0  0  0  0  0  0  0
   38.7800   30.2040   39.7920 H   0  0  0  0  0  0  0  0  0  0  0  0
   38.1330   29.0650   38.3080 O   0  0  0  0  0  0  0  0  0  0  0  0
   37.4930   25.2000   41.9930 C   0  0  0  0  0  0  0  0  0  0  0  0
   37.4000   24.9860   40.6250 F   0  0  0  0  0  0  0  0  0  0  0  0
   36.3870   24.6530   42.5860 F   0  0  0  0  0  0  0  0  0  0  0  0
   38.6750   24.6550   42.4230 F   0  0  0  0  0  0  0  0  0  0  0  0
  1  6  1  0  0  0  0
  2  3  1  0  0  0  0
  2  1  2  0  0  0  0
  3  4  2  0  0  0  0
  4  5  1  0  0  0  0
  5  8  1  0  0  0  0
  6  5  2  0  0  0  0
  7  2  1  0  0  0  0
  9 12  1  6  0  0  0
  9 10  1  0  0  0  0
  9  3  1  0  0  0  0
 10 13  1  0  0  0  0
 11 15  1  6  0  0  0
 11  9  1  0  0  0  0
 11 10  1  0  0  0  0
 14 10  1  0  0  0  0
 16 11  1  0  0  0  0
 16 17  1  0  0  0  0
 18 16  2  0  0  0  0
 19  1  1  0  0  0  0
 19 22  1  0  0  0  0
 19 21  1  0  0  0  0
 20 19  1  0  0  0  0
M  END
>  <minimizedAffinity>
-4.28549814

$$$$

 OpenBabel03252501153D

 22 23  0  0  1  0  0  0  0  0999 V2000
   37.7710   30.9390   40.7940 C   0  0  0  0  0  0  0  0  0  0  0  0
   37.2980   29.9270   41.6290 C   0  0  0  0  0  0  0  0  0  0  0  0
   38.1100   29.5750   42.6900 C   0  0  0  0  0  0  0  0  0  0  0  0
   39.2980   30.2180   42.8590 N   0  0  0  0  0  0  0  0  0  0  0  0
   39.7190   31.1920   42.0260 C   0  0  0  0  0  0  0  0  0  0  0  0
   38.9400   31.5580   40.9750 N   0  0  0  0  0  0  0  0  0  0  0  0
   36.3470   29.4390   41.4630 H   0  0  0  0  0  0  0  0  0  0  0  0
   40.6690   31.6850   42.1840 H   0  0  0  0  0  0  0  0  0  0  0  0
   37.7060   28.4960   43.6470 C   0  0  1  0  0  0  0  0  0  0  0  0
   36.6800   27.5510   43.1030 C   0  0  0  0  0  0  0  0  0  0  0  0
   38.1560   27.1210   43.3800 C   0  0  1  0  0  0  0  0  0  0  0  0
   37.5410   28.8630   44.6700 H   0  0  0  0  0  0  0  0  0  0  0  0
   36.4340   27.5740   42.0130 H   0  0  0  0  0  0  0  0  0  0  0  0
   35.9270   27.0730   43.7840 H   0  0  0  0  0  0  0  0  0  0  0  0
   38.2950   26.3810   44.1720 H   0  0  0  0  0  0  0  0  0  0  0  0
   39.0250   26.9200   42.1880 C   0  0  0  0  0  0  0  0  0  0  0  0
   38.6440   26.9610   41.1600 H   0  0  0  0  0  0  0  0  0  0  0  0
   40.2120   26.7020   42.3420 O   0  0  0  0  0  0  0  0  0  0  0  0
   36.9070   31.3480   39.6430 C   0  0  0  0  0  0  0  0  0  0  0  0
   35.6650   30.7590   39.8310 F   0  0  0  0  0  0  0  0  0  0  0  0
   37.4520   30.8360   38.4960 F   0  0  0  0  0  0  0  0  0  0  0  0
   36.7270   32.7070   39.6090 F   0  0  0  0  0  0  0  0  0  0  0  0
  1  6  2  0  0  0  0
  1  2  1  0  0  0  0
  2  3  2  0  0  0  0
  3  4  1  0  0  0  0
  3  9  1  0  0  0  0
  5  8  1  0  0  0  0
  5  4  2  0  0  0  0
  6  5  1  0  0  0  0
  7  2  1  0  0  0  0
  9 12  1  1  0  0  0
 10 11  1  0  0  0  0
 10  9  1  0  0  0  0
 10 14  1  0  0  0  0
 11  9  1  0  0  0  0
 11 15  1  1  0  0  0
 13 10  1  0  0  0  0
 16 18  2  0  0  0  0
 16 11  1  0  0  0  0
 17 16  1  0  0  0  0
 19 20  1  0  0  0  0
 19  1  1  0  0  0  0
 21 19  1  0  0  0  0
 22 19  1  0  0  0  0
M  END
>  <minimizedAffinity>
-4.28282166

$$$$

 OpenBabel03252501153D

 22 23  0  0  1  0  0  0  0  0999 V2000
   36.9850   30.8040   40.1200 C   0  0  0  0  0  0  0  0  0  0  0  0
   37.5400   30.4300   41.3430 C   0  0  0  0  0  0  0  0  0  0  0  0
   37.0090   29.3030   41.9410 C   0  0  0  0  0  0  0  0  0  0  0  0
   35.9980   28.6350   41.3190 N   0  0  0  0  0  0  0  0  0  0  0  0
   35.4900   29.0320   40.1350 C   0  0  0  0  0  0  0  0  0  0  0  0
   35.9930   30.1370   39.5250 N   0  0  0  0  0  0  0  0  0  0  0  0
   38.3430   30.9860   41.8060 H   0  0  0  0  0  0  0  0  0  0  0  0
   34.6850   28.4820   39.6640 H   0  0  0  0  0  0  0  0  0  0  0  0
   37.5230   28.8130   43.2600 C   0  0  1  0  0  0  0  0  0  0  0  0
   36.9680   27.4870   43.6760 C   0  0  0  0  0  0  0  0  0  0  0  0
   38.4630   27.6800   43.2660 C   0  0  1  0  0  0  0  0  0  0  0  0
   37.5560   29.5960   44.0300 H   0  0  0  0  0  0  0  0  0  0  0  0
   36.3930   26.8750   42.9390 H   0  0  0  0  0  0  0  0  0  0  0  0
   36.8170   27.2480   44.7630 H   0  0  0  0  0  0  0  0  0  0  0  0
   39.1970   27.5270   44.0600 H   0  0  0  0  0  0  0  0  0  0  0  0
   38.8640   27.1350   41.9400 C   0  0  0  0  0  0  0  0  0  0  0  0
   38.1920   26.5320   41.3160 H   0  0  0  0  0  0  0  0  0  0  0  0
   39.9810   27.3590   41.5140 O   0  0  0  0  0  0  0  0  0  0  0  0
   37.5480   32.0150   39.4440 C   0  0  0  0  0  0  0  0  0  0  0  0
   37.2220   33.1120   40.2290 F   0  0  0  0  0  0  0  0  0  0  0  0
   36.9250   32.1580   38.2340 F   0  0  0  0  0  0  0  0  0  0  0  0
   38.9140   31.9520   39.3580 F   0  0  0  0  0  0  0  0  0  0  0  0
  1  2  1  0  0  0  0
  2  7  1  0  0  0  0
  2  3  2  0  0  0  0
  3  9  1  0  0  0  0
  4  3  1  0  0  0  0
  5  4  2  0  0  0  0
  6  1  2  0  0  0  0
  6  5  1  0  0  0  0
  8  5  1  0  0  0  0
  9 11  1  0  0  0  0
  9 10  1  0  0  0  0
  9 12  1  1  0  0  0
 10 14  1  0  0  0  0
 11 10  1  0  0  0  0
 11 15  1  1  0  0  0
 13 10  1  0  0  0  0
 16 11  1  0  0  0  0
 17 16  1  0  0  0  0
 18 16  2  0  0  0  0
 19  1  1  0  0  0  0
 19 20  1  0  0  0  0
 21 19  1  0  0  0  0
 22 19  1  0  0  0  0
M  END
>  <minimizedAffinity>
-4.22429848

$$$$

 OpenBabel03252501153D

 22 23  0  0  1  0  0  0  0  0999 V2000
   36.8390   28.8080   41.9110 C   0  0  0  0  0  0  0  0  0  0  0  0
   37.5750   29.9850   41.7770 C   0  0  0  0  0  0  0  0  0  0  0  0
   37.1240   30.8880   40.8330 C   0  0  0  0  0  0  0  0  0  0  0  0
   36.0140   30.5890   40.1030 N   0  0  0  0  0  0  0  0  0  0  0  0
   35.3320   29.4370   40.2650 C   0  0  0  0  0  0  0  0  0  0  0  0
   35.7520   28.5310   41.1850 N   0  0  0  0  0  0  0  0  0  0  0  0
   38.4520   30.1880   42.3750 H   0  0  0  0  0  0  0  0  0  0  0  0
   34.4530   29.2250   39.6700 H   0  0  0  0  0  0  0  0  0  0  0  0
   37.8410   32.1820   40.5990 C   0  0  1  0  0  0  0  0  0  0  0  0
   39.2750   32.1720   41.0290 C   0  0  0  0  0  0  0  0  0  0  0  0
   38.8490   32.2390   39.5280 C   0  0  1  0  0  0  0  0  0  0  0  0
   37.2500   33.0640   40.8840 H   0  0  0  0  0  0  0  0  0  0  0  0
   39.7620   31.2020   41.2980 H   0  0  0  0  0  0  0  0  0  0  0  0
   39.7630   33.1080   41.4110 H   0  0  0  0  0  0  0  0  0  0  0  0
   39.1010   33.1620   39.0030 H   0  0  0  0  0  0  0  0  0  0  0  0
   39.0440   30.9990   38.7270 C   0  0  0  0  0  0  0  0  0  0  0  0
   39.6020   30.1320   39.0980 H   0  0  0  0  0  0  0  0  0  0  0  0
   38.5690   30.9290   37.6090 O   0  0  0  0  0  0  0  0  0  0  0  0
   37.2970   27.8160   42.9320 C   0  0  0  0  0  0  0  0  0  0  0  0
   37.7580   26.7020   42.2460 F   0  0  0  0  0  0  0  0  0  0  0  0
   36.2130   27.4370   43.6780 F   0  0  0  0  0  0  0  0  0  0  0  0
   38.3360   28.3080   43.6800 F   0  0  0  0  0  0  0  0  0  0  0  0
  1 19  1  0  0  0  0
  2  1  1  0  0  0  0
  2  7  1  0  0  0  0
  3  2  2  0  0  0  0
  4  5  2  0  0  0  0
  4  3  1  0  0  0  0
  5  6  1  0  0  0  0
  6  1  2  0  0  0  0
  8  5  1  0  0  0  0
  9  3  1  0  0  0  0
  9 12  1  1  0  0  0
  9 10  1  0  0  0  0
 10 13  1  0  0  0  0
 10 14  1  0  0  0  0
 11 15  1  6  0  0  0
 11  9  1  0  0  0  0
 11 10  1  0  0  0  0
 16 17  1  0  0  0  0
 16 11  1  0  0  0  0
 18 16  2  0  0  0  0
 19 21  1  0  0  0  0
 19 22  1  0  0  0  0
 20 19  1  0  0  0  0
M  END
>  <minimizedAffinity>
-4.1497221

$$$$

 OpenBabel03252501153D

 22 23  0  0  1  0  0  0  0  0999 V2000
   38.6160   31.2990   41.2290 C   0  0  0  0  0  0  0  0  0  0  0  0
   38.7940   30.2850   42.1700 C   0  0  0  0  0  0  0  0  0  0  0  0
   37.6900   29.5000   42.4450 C   0  0  0  0  0  0  0  0  0  0  0  0
   36.5170   29.7540   41.8000 N   0  0  0  0  0  0  0  0  0  0  0  0
   36.3890   30.7470   40.8970 C   0  0  0  0  0  0  0  0  0  0  0  0
   37.4580   31.5330   40.6070 N   0  0  0  0  0  0  0  0  0  0  0  0
   39.7410   30.1140   42.6620 H   0  0  0  0  0  0  0  0  0  0  0  0
   35.4440   30.9260   40.3990 H   0  0  0  0  0  0  0  0  0  0  0  0
   37.7630   28.3860   43.4430 C   0  0  1  0  0  0  0  0  0  0  0  0
   36.5990   27.4460   43.3950 C   0  0  0  0  0  0  0  0  0  0  0  0
   38.0360   27.0260   42.9530 C   0  0  1  0  0  0  0  0  0  0  0  0
   38.0860   28.7180   44.4400 H   0  0  0  0  0  0  0  0  0  0  0  0
   35.8820   27.5020   42.5390 H   0  0  0  0  0  0  0  0  0  0  0  0
   36.2380   26.9380   44.3290 H   0  0  0  0  0  0  0  0  0  0  0  0
   38.5190   26.2630   43.5680 H   0  0  0  0  0  0  0  0  0  0  0  0
   38.2640   26.8740   41.4890 C   0  0  0  0  0  0  0  0  0  0  0  0
   37.6250   27.3500   40.7350 H   0  0  0  0  0  0  0  0  0  0  0  0
   39.1950   26.1980   41.0950 O   0  0  0  0  0  0  0  0  0  0  0  0
   39.7980   32.1570   40.9040 C   0  0  0  0  0  0  0  0  0  0  0  0
   40.7760   31.8870   41.8510 F   0  0  0  0  0  0  0  0  0  0  0  0
   39.4250   33.4670   41.0390 F   0  0  0  0  0  0  0  0  0  0  0  0
   40.3140   31.8540   39.6700 F   0  0  0  0  0  0  0  0  0  0  0  0
  1  2  1  0  0  0  0
  2  3  2  0  0  0  0
  2  7  1  0  0  0  0
  3  9  1  0  0  0  0
  4  3  1  0  0  0  0
  5  4  2  0  0  0  0
  6  5  1  0  0  0  0
  6  1  2  0  0  0  0
  8  5  1  0  0  0  0
  9 12  1  1  0  0  0
 10  9  1  0  0  0  0
 10 14  1  0  0  0  0
 11 10  1  0  0  0  0
 11  9  1  0  0  0  0
 11 15  1  1  0  0  0
 13 10  1  0  0  0  0
 16 11  1  0  0  0  0
 17 16  1  0  0  0  0
 18 16  2  0  0  0  0
 19 21  1  0  0  0  0
 19  1  1  0  0  0  0
 19 20  1  0  0  0  0
 22 19  1  0  0  0  0
M  END
>  <minimizedAffinity>
-4.12510252

$$$$
