
 OpenBabel03252509133D

 39 42  0  0  1  0  0  0  0  0999 V2000
   47.4190   32.5690   44.2210 C   0  0  0  0  0  0  0  0  0  0  0  0
   46.7160   33.5120   43.4770 C   0  0  0  0  0  0  0  0  0  0  0  0
   45.6910   34.2700   44.0140 C   0  0  0  0  0  0  0  0  0  0  0  0
   45.3320   34.0980   45.3550 C   0  0  0  0  0  0  0  0  0  0  0  0
   44.4280   34.6320   46.1830 N   0  0  0  0  0  0  0  0  0  0  0  0
   44.5180   34.0870   47.3990 C   0  0  0  0  0  0  0  0  0  0  0  0
   45.5190   33.1830   47.3090 N   0  0  0  0  0  0  0  0  0  0  0  0
   46.0390   33.1650   46.0630 C   0  0  0  0  0  0  0  0  0  0  0  0
   47.0710   32.3870   45.5620 C   0  0  0  0  0  0  0  0  0  0  0  0
   48.2230   31.9800   43.7840 H   0  0  0  0  0  0  0  0  0  0  0  0
   43.7430   35.3780   45.9130 H   0  0  0  0  0  0  0  0  0  0  0  0
   43.9200   34.3100   48.2870 H   0  0  0  0  0  0  0  0  0  0  0  0
   47.5890   31.6690   46.1800 H   0  0  0  0  0  0  0  0  0  0  0  0
   46.9210   32.9910   39.8570 C   0  0  0  0  0  0  0  0  0  0  0  0
   47.7240   34.0530   39.4370 C   0  0  0  0  0  0  0  0  0  0  0  0
   48.1920   34.9450   40.4060 C   0  0  0  0  0  0  0  0  0  0  0  0
   47.8470   34.7460   41.7200 N   0  0  0  0  0  0  0  0  0  0  0  0
   47.0720   33.7080   42.0710 C   0  0  0  0  0  0  0  0  0  0  0  0
   46.5960   32.8170   41.1660 N   0  0  0  0  0  0  0  0  0  0  0  0
   46.5130   32.2500   39.1740 H   0  0  0  0  0  0  0  0  0  0  0  0
   47.9330   34.1200   38.3950 H   0  0  0  0  0  0  0  0  0  0  0  0
   48.8080   35.7630   40.0950 H   0  0  0  0  0  0  0  0  0  0  0  0
   44.8080   35.4680   43.0390 S   0  0  0  0  0  0  0  0  0  0  0  0
   42.3130   35.3530   42.2350 N   0  0  0  0  0  0  0  0  0  0  0  0
   43.5920   34.7390   41.9200 C   0  0  1  0  0  0  0  0  0  0  0  0
   44.0450   35.1190   40.5090 C   0  0  0  0  0  0  0  0  0  0  0  0
   43.0270   35.0610   39.5800 O   0  0  0  0  0  0  0  0  0  0  0  0
   41.8660   34.4600   39.9940 C   0  0  0  0  0  0  0  0  0  0  0  0
   41.3400   35.2000   41.2020 C   0  0  1  0  0  0  0  0  0  0  0  0
   42.0330   35.0240   43.1640 H   0  0  0  0  0  0  0  0  0  0  0  0
   43.5700   33.6420   42.0720 H   0  0  0  0  0  0  0  0  0  0  0  0
   44.7690   34.3830   40.1710 H   0  0  0  0  0  0  0  0  0  0  0  0
   44.5250   36.1040   40.5000 H   0  0  0  0  0  0  0  0  0  0  0  0
   42.0040   33.4100   40.3070 H   0  0  0  0  0  0  0  0  0  0  0  0
   41.1390   34.5260   39.1880 H   0  0  0  0  0  0  0  0  0  0  0  0
   40.9690   36.1920   40.8410 H   0  0  0  0  0  0  0  0  0  0  0  0
   40.1920   34.4280   41.7550 C   0  0  0  0  0  0  0  0  0  0  0  0
   39.4410   33.8960   41.1990 H   0  0  0  0  0  0  0  0  0  0  0  0
   40.1070   34.4060   42.9630 O   0  0  0  0  0  0  0  0  0  0  0  0
  1  9  1  0  0  0  0
  2  3  1  0  0  0  0
  2  1  2  0  0  0  0
  3  4  2  0  0  0  0
  4  8  1  0  0  0  0
  4  5  1  0  0  0  0
  5  6  1  0  0  0  0
  6 12  1  0  0  0  0
  7  6  2  0  0  0  0
  8  7  1  0  0  0  0
  9  8  2  0  0  0  0
  9 13  1  0  0  0  0
 10  1  1  0  0  0  0
 11  5  1  0  0  0  0
 14 19  1  0  0  0  0
 15 14  2  0  0  0  0
 15 16  1  0  0  0  0
 16 17  2  0  0  0  0
 17 18  1  0  0  0  0
 18  2  1  0  0  0  0
 19 18  2  0  0  0  0
 20 14  1  0  0  0  0
 21 15  1  0  0  0  0
 22 16  1  0  0  0  0
 23  3  1  0  0  0  0
 24 30  1  0  0  0  0
 25 31  1  1  0  0  0
 25 24  1  0  0  0  0
 25 23  1  0  0  0  0
 26 25  1  0  0  0  0
 27 28  1  0  0  0  0
 27 26  1  0  0  0  0
 28 34  1  0  0  0  0
 28 29  1  0  0  0  0
 29 36  1  6  0  0  0
 29 37  1  0  0  0  0
 29 24  1  0  0  0  0
 32 26  1  0  0  0  0
 33 26  1  0  0  0  0
 35 28  1  0  0  0  0
 37 39  2  0  0  0  0
 38 37  1  0  0  0  0
M  END
>  <minimizedAffinity>
-5.07766676

>  <minimizedRMSD>
0.440001845

$$$$
