
 OpenBabel03252505423D

 30 32  0  0  1  0  0  0  0  0999 V2000
   37.7680   29.8700   39.2120 C   0  0  1  0  0  0  0  0  0  0  0  0
   36.5780   30.8710   39.2480 C   0  0  0  0  0  0  0  0  0  0  0  0
   37.7800   30.9690   40.1580 C   0  0  2  0  0  0  0  0  0  0  0  0
   38.2780   29.9410   38.2190 H   0  0  0  0  0  0  0  0  0  0  0  0
   35.6540   30.5130   39.7500 H   0  0  0  0  0  0  0  0  0  0  0  0
   36.5330   31.6620   38.5030 H   0  0  0  0  0  0  0  0  0  0  0  0
   37.6120   30.8710   41.2360 H   0  0  0  0  0  0  0  0  0  0  0  0
   37.3820   28.4890   39.5960 C   0  0  0  0  0  0  0  0  0  0  0  0
   36.9710   27.5930   38.5750 C   0  0  0  0  0  0  0  0  0  0  0  0
   36.6190   26.2980   38.9410 C   0  0  0  0  0  0  0  0  0  0  0  0
   36.6870   25.9600   40.2540 N   0  0  0  0  0  0  0  0  0  0  0  0
   37.0820   26.8380   41.1950 C   0  0  0  0  0  0  0  0  0  0  0  0
   37.4230   28.0920   40.8410 N   0  0  0  0  0  0  0  0  0  0  0  0
   36.9160   27.8540   37.5440 H   0  0  0  0  0  0  0  0  0  0  0  0
   36.2960   25.5680   38.2040 H   0  0  0  0  0  0  0  0  0  0  0  0
   37.0910   26.2660   42.5810 C   0  0  0  0  0  0  0  0  0  0  0  0
   38.3670   26.1900   43.0930 F   0  0  0  0  0  0  0  0  0  0  0  0
   36.5840   24.9560   42.5440 F   0  0  0  0  0  0  0  0  0  0  0  0
   36.2330   26.9900   43.3810 F   0  0  0  0  0  0  0  0  0  0  0  0
   38.8020   32.0370   39.8580 C   0  0  0  0  0  0  0  0  0  0  0  0
   38.9020   33.1740   40.6210 C   0  0  0  0  0  0  0  0  0  0  0  0
   39.8260   34.1610   40.3760 C   0  0  0  0  0  0  0  0  0  0  0  0
   40.6670   33.9880   39.3320 N   0  0  0  0  0  0  0  0  0  0  0  0
   40.5800   32.8690   38.5690 C   0  0  0  0  0  0  0  0  0  0  0  0
   39.6650   31.9100   38.8260 N   0  0  0  0  0  0  0  0  0  0  0  0
   38.2420   33.3340   41.4610 H   0  0  0  0  0  0  0  0  0  0  0  0
   39.8980   35.0640   40.9890 H   0  0  0  0  0  0  0  0  0  0  0  0
   41.4940   32.6950   37.4440 C   0  0  0  0  0  0  0  0  0  0  0  0
   41.4890   31.7740   36.8780 H   0  0  0  0  0  0  0  0  0  0  0  0
   42.3040   33.6320   37.1240 O   0  0  0  0  0  0  0  0  0  0  0  0
  1  4  1  6  0  0  0
  1  2  1  0  0  0  0
  1  8  1  0  0  0  0
  1  3  1  0  0  0  0
  2  5  1  0  0  0  0
  2  3  1  0  0  0  0
  3  7  1  1  0  0  0
  6  2  1  0  0  0  0
  8 13  1  0  0  0  0
  9 10  1  0  0  0  0
  9  8  2  0  0  0  0
 10 11  2  0  0  0  0
 11 12  1  0  0  0  0
 12 16  1  0  0  0  0
 13 12  2  0  0  0  0
 14  9  1  0  0  0  0
 15 10  1  0  0  0  0
 16 17  1  0  0  0  0
 16 19  1  0  0  0  0
 18 16  1  0  0  0  0
 20  3  1  0  0  0  0
 20 21  1  0  0  0  0
 21 26  1  0  0  0  0
 22 21  2  0  0  0  0
 22 27  1  0  0  0  0
 23 22  1  0  0  0  0
 24 25  1  0  0  0  0
 24 23  2  0  0  0  0
 25 20  2  0  0  0  0
 28 24  1  0  0  0  0
 29 28  1  0  0  0  0
 30 28  2  0  0  0  0
M  END
>  <minimizedAffinity>
-5.02214479

$$$$

 OpenBabel03252505423D

 30 32  0  0  1  0  0  0  0  0999 V2000
   38.8190   28.8810   41.6580 C   0  0  1  0  0  0  0  0  0  0  0  0
   37.7700   29.6720   42.4910 C   0  0  0  0  0  0  0  0  0  0  0  0
   39.2570   29.9260   42.5630 C   0  0  2  0  0  0  0  0  0  0  0  0
   38.6480   29.0770   40.5700 H   0  0  0  0  0  0  0  0  0  0  0  0
   37.3530   29.1470   43.3760 H   0  0  0  0  0  0  0  0  0  0  0  0
   37.2160   30.4760   42.0120 H   0  0  0  0  0  0  0  0  0  0  0  0
   39.7570   29.7560   43.5230 H   0  0  0  0  0  0  0  0  0  0  0  0
   38.8810   27.4410   42.0110 C   0  0  0  0  0  0  0  0  0  0  0  0
   39.7660   27.0350   43.0440 C   0  0  0  0  0  0  0  0  0  0  0  0
   39.8120   25.6840   43.3750 C   0  0  0  0  0  0  0  0  0  0  0  0
   39.0120   24.8270   42.6930 N   0  0  0  0  0  0  0  0  0  0  0  0
   38.1860   25.2490   41.7180 C   0  0  0  0  0  0  0  0  0  0  0  0
   38.1390   26.5570   41.3960 N   0  0  0  0  0  0  0  0  0  0  0  0
   40.3950   27.7040   43.5820 H   0  0  0  0  0  0  0  0  0  0  0  0
   40.4700   25.3150   44.1570 H   0  0  0  0  0  0  0  0  0  0  0  0
   37.3850   24.1470   41.0920 C   0  0  0  0  0  0  0  0  0  0  0  0
   37.1450   24.3840   39.7570 F   0  0  0  0  0  0  0  0  0  0  0  0
   36.1330   24.0680   41.7270 F   0  0  0  0  0  0  0  0  0  0  0  0
   38.0090   22.9400   41.3200 F   0  0  0  0  0  0  0  0  0  0  0  0
   39.7930   31.1580   41.8770 C   0  0  0  0  0  0  0  0  0  0  0  0
   41.1420   31.3860   41.7530 C   0  0  0  0  0  0  0  0  0  0  0  0
   41.6590   32.4950   41.1290 C   0  0  0  0  0  0  0  0  0  0  0  0
   40.7860   33.3930   40.6210 N   0  0  0  0  0  0  0  0  0  0  0  0
   39.4520   33.1820   40.7360 C   0  0  0  0  0  0  0  0  0  0  0  0
   38.9610   32.0850   41.3520 N   0  0  0  0  0  0  0  0  0  0  0  0
   41.8580   30.6820   42.1510 H   0  0  0  0  0  0  0  0  0  0  0  0
   42.7350   32.6680   41.0350 H   0  0  0  0  0  0  0  0  0  0  0  0
   38.5200   34.1610   40.1820 C   0  0  0  0  0  0  0  0  0  0  0  0
   38.7650   35.2140   40.2000 H   0  0  0  0  0  0  0  0  0  0  0  0
   37.4110   33.7760   39.6750 O   0  0  0  0  0  0  0  0  0  0  0  0
  1  4  1  6  0  0  0
  1  8  1  0  0  0  0
  1  2  1  0  0  0  0
  1  3  1  0  0  0  0
  2  3  1  0  0  0  0
  2  5  1  0  0  0  0
  3  7  1  1  0  0  0
  6  2  1  0  0  0  0
  8  9  1  0  0  0  0
  9 10  2  0  0  0  0
  9 14  1  0  0  0  0
 10 15  1  0  0  0  0
 11 10  1  0  0  0  0
 12 11  2  0  0  0  0
 13 12  1  0  0  0  0
 13  8  2  0  0  0  0
 16 19  1  0  0  0  0
 16 12  1  0  0  0  0
 16 18  1  0  0  0  0
 17 16  1  0  0  0  0
 20  3  1  0  0  0  0
 21 20  1  0  0  0  0
 21 26  1  0  0  0  0
 22 21  2  0  0  0  0
 23 24  2  0  0  0  0
 23 22  1  0  0  0  0
 24 25  1  0  0  0  0
 25 20  2  0  0  0  0
 27 22  1  0  0  0  0
 28 29  1  0  0  0  0
 28 24  1  0  0  0  0
 30 28  2  0  0  0  0
M  END
>  <minimizedAffinity>
-4.98234892

$$$$

 OpenBabel03252505423D

 30 32  0  0  1  0  0  0  0  0999 V2000
   38.0960   29.6600   40.3890 C   0  0  1  0  0  0  0  0  0  0  0  0
   36.8850   30.3500   39.7000 C   0  0  0  0  0  0  0  0  0  0  0  0
   37.7800   31.0400   40.7010 C   0  0  2  0  0  0  0  0  0  0  0  0
   38.8560   29.3900   39.6130 H   0  0  0  0  0  0  0  0  0  0  0  0
   35.8810   30.0810   40.0920 H   0  0  0  0  0  0  0  0  0  0  0  0
   36.9990   30.7250   38.6850 H   0  0  0  0  0  0  0  0  0  0  0  0
   37.3260   31.3830   41.6380 H   0  0  0  0  0  0  0  0  0  0  0  0
   37.7040   28.5310   41.2690 C   0  0  0  0  0  0  0  0  0  0  0  0
   37.3140   28.8180   42.6040 C   0  0  0  0  0  0  0  0  0  0  0  0
   36.9410   27.7550   43.4200 C   0  0  0  0  0  0  0  0  0  0  0  0
   36.9690   26.5020   42.8990 N   0  0  0  0  0  0  0  0  0  0  0  0
   37.3440   26.2700   41.6280 C   0  0  0  0  0  0  0  0  0  0  0  0
   37.7060   27.2970   40.8360 N   0  0  0  0  0  0  0  0  0  0  0  0
   37.2920   29.7980   43.0170 H   0  0  0  0  0  0  0  0  0  0  0  0
   36.6340   27.9130   44.4500 H   0  0  0  0  0  0  0  0  0  0  0  0
   37.3020   24.8200   41.2460 C   0  0  0  0  0  0  0  0  0  0  0  0
   36.1660   24.5120   40.5320 F   0  0  0  0  0  0  0  0  0  0  0  0
   37.2800   24.0360   42.4120 F   0  0  0  0  0  0  0  0  0  0  0  0
   38.4620   24.4870   40.5800 F   0  0  0  0  0  0  0  0  0  0  0  0
   38.7780   32.0420   40.1770 C   0  0  0  0  0  0  0  0  0  0  0  0
   39.0130   33.2320   40.8220 C   0  0  0  0  0  0  0  0  0  0  0  0
   39.9200   34.1600   40.3730 C   0  0  0  0  0  0  0  0  0  0  0  0
   40.6030   33.8740   39.2420 N   0  0  0  0  0  0  0  0  0  0  0  0
   40.3820   32.7030   38.5950 C   0  0  0  0  0  0  0  0  0  0  0  0
   39.4860   31.8010   39.0520 N   0  0  0  0  0  0  0  0  0  0  0  0
   38.4790   33.4820   41.7270 H   0  0  0  0  0  0  0  0  0  0  0  0
   40.1000   35.1050   40.8930 H   0  0  0  0  0  0  0  0  0  0  0  0
   41.1280   32.4060   37.3740 C   0  0  0  0  0  0  0  0  0  0  0  0
   40.7730   31.6440   36.6930 H   0  0  0  0  0  0  0  0  0  0  0  0
   42.2020   33.0450   37.1070 O   0  0  0  0  0  0  0  0  0  0  0  0
  1  4  1  6  0  0  0
  1  3  1  0  0  0  0
  1  8  1  0  0  0  0
  2  5  1  0  0  0  0
  2  1  1  0  0  0  0
  2  3  1  0  0  0  0
  3  7  1  1  0  0  0
  6  2  1  0  0  0  0
  8  9  1  0  0  0  0
  9 14  1  0  0  0  0
  9 10  2  0  0  0  0
 10 15  1  0  0  0  0
 11 10  1  0  0  0  0
 12 11  2  0  0  0  0
 13  8  2  0  0  0  0
 13 12  1  0  0  0  0
 16 12  1  0  0  0  0
 16 18  1  0  0  0  0
 17 16  1  0  0  0  0
 19 16  1  0  0  0  0
 20  3  1  0  0  0  0
 20 21  1  0  0  0  0
 21 26  1  0  0  0  0
 22 21  2  0  0  0  0
 22 27  1  0  0  0  0
 23 22  1  0  0  0  0
 24 25  1  0  0  0  0
 24 23  2  0  0  0  0
 25 20  2  0  0  0  0
 28 24  1  0  0  0  0
 29 28  1  0  0  0  0
 30 28  2  0  0  0  0
M  END
>  <minimizedAffinity>
-4.94642639

$$$$

 OpenBabel03252505423D

 30 32  0  0  1  0  0  0  0  0999 V2000
   35.2020   29.4300   38.6480 C   0  0  1  0  0  0  0  0  0  0  0  0
   36.0110   28.9020   37.4290 C   0  0  0  0  0  0  0  0  0  0  0  0
   34.8080   28.1920   38.0030 C   0  0  2  0  0  0  0  0  0  0  0  0
   34.7310   30.4090   38.3800 H   0  0  0  0  0  0  0  0  0  0  0  0
   36.9820   28.4160   37.6610 H   0  0  0  0  0  0  0  0  0  0  0  0
   35.8300   29.3370   36.4490 H   0  0  0  0  0  0  0  0  0  0  0  0
   34.9590   27.1910   38.4220 H   0  0  0  0  0  0  0  0  0  0  0  0
   35.9900   29.4610   39.9050 C   0  0  0  0  0  0  0  0  0  0  0  0
   36.6860   30.6530   40.2370 C   0  0  0  0  0  0  0  0  0  0  0  0
   37.4170   30.6780   41.4210 C   0  0  0  0  0  0  0  0  0  0  0  0
   37.4260   29.5630   42.1940 N   0  0  0  0  0  0  0  0  0  0  0  0
   36.7540   28.4500   41.8460 C   0  0  0  0  0  0  0  0  0  0  0  0
   36.0460   28.4240   40.7000 N   0  0  0  0  0  0  0  0  0  0  0  0
   36.6810   31.5300   39.6330 H   0  0  0  0  0  0  0  0  0  0  0  0
   37.9690   31.5620   41.7270 H   0  0  0  0  0  0  0  0  0  0  0  0
   36.8900   27.3330   42.8360 C   0  0  0  0  0  0  0  0  0  0  0  0
   38.0880   27.3910   43.5110 F   0  0  0  0  0  0  0  0  0  0  0  0
   36.8610   26.1040   42.1540 F   0  0  0  0  0  0  0  0  0  0  0  0
   35.7980   27.3320   43.6790 F   0  0  0  0  0  0  0  0  0  0  0  0
   33.5120   28.2740   37.2360 C   0  0  0  0  0  0  0  0  0  0  0  0
   33.1390   27.3000   36.3430 C   0  0  0  0  0  0  0  0  0  0  0  0
   31.9630   27.3440   35.6340 C   0  0  0  0  0  0  0  0  0  0  0  0
   31.1480   28.4030   35.8380 N   0  0  0  0  0  0  0  0  0  0  0  0
   31.5020   29.3730   36.7180 C   0  0  0  0  0  0  0  0  0  0  0  0
   32.6630   29.3120   37.4060 N   0  0  0  0  0  0  0  0  0  0  0  0
   33.7740   26.4450   36.1640 H   0  0  0  0  0  0  0  0  0  0  0  0
   31.6750   26.5640   34.9250 H   0  0  0  0  0  0  0  0  0  0  0  0
   30.6120   30.5110   36.9280 C   0  0  0  0  0  0  0  0  0  0  0  0
   30.1730   31.0210   36.0810 H   0  0  0  0  0  0  0  0  0  0  0  0
   30.3490   30.9100   38.1140 O   0  0  0  0  0  0  0  0  0  0  0  0
  1  4  1  6  0  0  0
  1  8  1  0  0  0  0
  2  5  1  0  0  0  0
  2  3  1  0  0  0  0
  2  1  1  0  0  0  0
  3  7  1  1  0  0  0
  3  1  1  0  0  0  0
  6  2  1  0  0  0  0
  8  9  2  0  0  0  0
  8 13  1  0  0  0  0
  9 10  1  0  0  0  0
 10 15  1  0  0  0  0
 10 11  2  0  0  0  0
 12 11  1  0  0  0  0
 12 16  1  0  0  0  0
 13 12  2  0  0  0  0
 14  9  1  0  0  0  0
 16 17  1  0  0  0  0
 16 19  1  0  0  0  0
 18 16  1  0  0  0  0
 20 25  1  0  0  0  0
 20  3  1  0  0  0  0
 21 20  2  0  0  0  0
 22 23  2  0  0  0  0
 22 21  1  0  0  0  0
 23 24  1  0  0  0  0
 24 28  1  0  0  0  0
 24 25  2  0  0  0  0
 26 21  1  0  0  0  0
 27 22  1  0  0  0  0
 28 30  2  0  0  0  0
 29 28  1  0  0  0  0
M  END
>  <minimizedAffinity>
-4.93133879

$$$$

 OpenBabel03252505423D

 30 32  0  0  1  0  0  0  0  0999 V2000
   38.2520   30.6150   39.8750 C   0  0  1  0  0  0  0  0  0  0  0  0
   37.3150   31.7930   40.2640 C   0  0  0  0  0  0  0  0  0  0  0  0
   38.6250   31.5040   40.9580 C   0  0  2  0  0  0  0  0  0  0  0  0
   38.6230   30.7710   38.8300 H   0  0  0  0  0  0  0  0  0  0  0  0
   36.4150   31.5260   40.8580 H   0  0  0  0  0  0  0  0  0  0  0  0
   37.3330   32.7010   39.6650 H   0  0  0  0  0  0  0  0  0  0  0  0
   38.5920   31.2440   42.0220 H   0  0  0  0  0  0  0  0  0  0  0  0
   37.6440   29.2820   40.1080 C   0  0  0  0  0  0  0  0  0  0  0  0
   37.1250   28.5710   38.9930 C   0  0  0  0  0  0  0  0  0  0  0  0
   36.5630   27.3180   39.2190 C   0  0  0  0  0  0  0  0  0  0  0  0
   36.5400   26.8420   40.4890 N   0  0  0  0  0  0  0  0  0  0  0  0
   37.0420   27.5460   41.5210 C   0  0  0  0  0  0  0  0  0  0  0  0
   37.5870   28.7590   41.3050 N   0  0  0  0  0  0  0  0  0  0  0  0
   37.1400   28.9410   37.9960 H   0  0  0  0  0  0  0  0  0  0  0  0
   36.1500   26.7290   38.4050 H   0  0  0  0  0  0  0  0  0  0  0  0
   36.9230   26.8430   42.8400 C   0  0  0  0  0  0  0  0  0  0  0  0
   35.9520   27.4080   43.6340 F   0  0  0  0  0  0  0  0  0  0  0  0
   38.1400   26.9560   43.5350 F   0  0  0  0  0  0  0  0  0  0  0  0
   36.7260   25.4960   42.6250 F   0  0  0  0  0  0  0  0  0  0  0  0
   39.7960   32.4030   40.6500 C   0  0  0  0  0  0  0  0  0  0  0  0
   39.7500   33.3250   39.6330 C   0  0  0  0  0  0  0  0  0  0  0  0
   40.7980   34.1610   39.3320 C   0  0  0  0  0  0  0  0  0  0  0  0
   41.9180   34.0570   40.0820 N   0  0  0  0  0  0  0  0  0  0  0  0
   41.9780   33.1510   41.0900 C   0  0  0  0  0  0  0  0  0  0  0  0
   40.9370   32.3370   41.3710 N   0  0  0  0  0  0  0  0  0  0  0  0
   38.8660   33.4270   39.0220 H   0  0  0  0  0  0  0  0  0  0  0  0
   40.7530   34.8920   38.5210 H   0  0  0  0  0  0  0  0  0  0  0  0
   43.1950   33.0490   41.8910 C   0  0  0  0  0  0  0  0  0  0  0  0
   43.6250   32.0800   42.1050 H   0  0  0  0  0  0  0  0  0  0  0  0
   43.7570   34.1050   42.3430 O   0  0  0  0  0  0  0  0  0  0  0  0
  1  4  1  6  0  0  0
  1  8  1  0  0  0  0
  1  2  1  0  0  0  0
  1  3  1  0  0  0  0
  2  5  1  0  0  0  0
  2  3  1  0  0  0  0
  3  7  1  1  0  0  0
  6  2  1  0  0  0  0
  8 13  1  0  0  0  0
  9 10  1  0  0  0  0
  9  8  2  0  0  0  0
 10 11  2  0  0  0  0
 11 12  1  0  0  0  0
 12 16  1  0  0  0  0
 13 12  2  0  0  0  0
 14  9  1  0  0  0  0
 15 10  1  0  0  0  0
 16 18  1  0  0  0  0
 16 17  1  0  0  0  0
 19 16  1  0  0  0  0
 20  3  1  0  0  0  0
 20 25  1  0  0  0  0
 21 20  2  0  0  0  0
 22 21  1  0  0  0  0
 22 23  2  0  0  0  0
 23 24  1  0  0  0  0
 24 25  2  0  0  0  0
 24 28  1  0  0  0  0
 26 21  1  0  0  0  0
 27 22  1  0  0  0  0
 28 29  1  0  0  0  0
 28 30  2  0  0  0  0
M  END
>  <minimizedAffinity>
-4.92766857

$$$$

 OpenBabel03252505423D

 30 32  0  0  1  0  0  0  0  0999 V2000
   36.7460   28.7690   38.0310 C   0  0  1  0  0  0  0  0  0  0  0  0
   36.0900   29.9350   38.8230 C   0  0  0  0  0  0  0  0  0  0  0  0
   35.7350   28.4820   39.0300 C   0  0  2  0  0  0  0  0  0  0  0  0
   37.8390   28.7310   38.2700 H   0  0  0  0  0  0  0  0  0  0  0  0
   35.3180   30.5210   38.2810 H   0  0  0  0  0  0  0  0  0  0  0  0
   36.6300   30.3730   39.6600 H   0  0  0  0  0  0  0  0  0  0  0  0
   34.7070   28.1720   38.8110 H   0  0  0  0  0  0  0  0  0  0  0  0
   36.4470   28.8070   36.5780 C   0  0  0  0  0  0  0  0  0  0  0  0
   36.0200   27.6110   35.9440 C   0  0  0  0  0  0  0  0  0  0  0  0
   35.7330   27.6560   34.5830 C   0  0  0  0  0  0  0  0  0  0  0  0
   35.8770   28.8390   33.9340 N   0  0  0  0  0  0  0  0  0  0  0  0
   36.2850   29.9530   34.5700 C   0  0  0  0  0  0  0  0  0  0  0  0
   36.5630   29.9110   35.8880 N   0  0  0  0  0  0  0  0  0  0  0  0
   35.9060   26.6810   36.4490 H   0  0  0  0  0  0  0  0  0  0  0  0
   35.4030   26.7720   34.0440 H   0  0  0  0  0  0  0  0  0  0  0  0
   36.3760   31.1530   33.6760 C   0  0  0  0  0  0  0  0  0  0  0  0
   37.0880   30.8850   32.5300 F   0  0  0  0  0  0  0  0  0  0  0  0
   37.0560   32.1820   34.3510 F   0  0  0  0  0  0  0  0  0  0  0  0
   35.1080   31.6320   33.4220 F   0  0  0  0  0  0  0  0  0  0  0  0
   36.2600   27.8000   40.2690 C   0  0  0  0  0  0  0  0  0  0  0  0
   36.3300   28.4520   41.4760 C   0  0  0  0  0  0  0  0  0  0  0  0
   36.7970   27.8560   42.6220 C   0  0  0  0  0  0  0  0  0  0  0  0
   37.2040   26.5690   42.5390 N   0  0  0  0  0  0  0  0  0  0  0  0
   37.1420   25.9130   41.3530 C   0  0  0  0  0  0  0  0  0  0  0  0
   36.6780   26.5160   40.2370 N   0  0  0  0  0  0  0  0  0  0  0  0
   36.0090   29.4790   41.5670 H   0  0  0  0  0  0  0  0  0  0  0  0
   36.8490   28.3820   43.5790 H   0  0  0  0  0  0  0  0  0  0  0  0
   37.5850   24.5240   41.2780 C   0  0  0  0  0  0  0  0  0  0  0  0
   37.1610   23.8580   40.5380 H   0  0  0  0  0  0  0  0  0  0  0  0
   38.4760   24.0890   42.0860 O   0  0  0  0  0  0  0  0  0  0  0  0
  1  4  1  1  0  0  0
  1  2  1  0  0  0  0
  1  3  1  0  0  0  0
  2  3  1  0  0  0  0
  2  6  1  0  0  0  0
  3  7  1  6  0  0  0
  3 20  1  0  0  0  0
  5  2  1  0  0  0  0
  8  1  1  0  0  0  0
  9 14  1  0  0  0  0
  9  8  1  0  0  0  0
 10  9  2  0  0  0  0
 11 12  2  0  0  0  0
 11 10  1  0  0  0  0
 12 13  1  0  0  0  0
 13  8  2  0  0  0  0
 15 10  1  0  0  0  0
 16 18  1  0  0  0  0
 16 12  1  0  0  0  0
 17 16  1  0  0  0  0
 19 16  1  0  0  0  0
 20 21  1  0  0  0  0
 21 26  1  0  0  0  0
 21 22  2  0  0  0  0
 22 27  1  0  0  0  0
 23 22  1  0  0  0  0
 24 23  2  0  0  0  0
 25 20  2  0  0  0  0
 25 24  1  0  0  0  0
 28 24  1  0  0  0  0
 28 30  2  0  0  0  0
 29 28  1  0  0  0  0
M  END
>  <minimizedAffinity>
-4.87295914

$$$$

 OpenBabel03252505423D

 30 32  0  0  1  0  0  0  0  0999 V2000
   38.0060   29.1780   40.8830 C   0  0  1  0  0  0  0  0  0  0  0  0
   36.5650   29.7310   41.0730 C   0  0  0  0  0  0  0  0  0  0  0  0
   37.7920   30.3790   41.6670 C   0  0  2  0  0  0  0  0  0  0  0  0
   38.2760   29.2230   39.7970 H   0  0  0  0  0  0  0  0  0  0  0  0
   35.9280   29.1950   41.8090 H   0  0  0  0  0  0  0  0  0  0  0  0
   36.1130   30.3110   40.2710 H   0  0  0  0  0  0  0  0  0  0  0  0
   37.8610   30.4350   42.7590 H   0  0  0  0  0  0  0  0  0  0  0  0
   38.2070   27.8440   41.5010 C   0  0  0  0  0  0  0  0  0  0  0  0
   38.9940   27.7570   42.6790 C   0  0  0  0  0  0  0  0  0  0  0  0
   39.1730   26.5040   43.2570 C   0  0  0  0  0  0  0  0  0  0  0  0
   38.5860   25.4330   42.6660 N   0  0  0  0  0  0  0  0  0  0  0  0
   37.8470   25.5550   41.5480 C   0  0  0  0  0  0  0  0  0  0  0  0
   37.6730   26.7680   40.9860 N   0  0  0  0  0  0  0  0  0  0  0  0
   39.4560   28.5950   43.1460 H   0  0  0  0  0  0  0  0  0  0  0  0
   39.7640   26.3760   44.1590 H   0  0  0  0  0  0  0  0  0  0  0  0
   37.2850   24.2550   41.0560 C   0  0  0  0  0  0  0  0  0  0  0  0
   38.1590   23.2110   41.2580 F   0  0  0  0  0  0  0  0  0  0  0  0
   37.0610   24.3420   39.6710 F   0  0  0  0  0  0  0  0  0  0  0  0
   36.0510   24.0420   41.6330 F   0  0  0  0  0  0  0  0  0  0  0  0
   38.3010   31.6430   41.0210 C   0  0  0  0  0  0  0  0  0  0  0  0
   37.4590   32.5070   40.3640 C   0  0  0  0  0  0  0  0  0  0  0  0
   37.8930   33.6680   39.7720 C   0  0  0  0  0  0  0  0  0  0  0  0
   39.2110   33.9570   39.8470 N   0  0  0  0  0  0  0  0  0  0  0  0
   40.0540   33.1130   40.4920 C   0  0  0  0  0  0  0  0  0  0  0  0
   39.6100   31.9760   41.0700 N   0  0  0  0  0  0  0  0  0  0  0  0
   36.4020   32.2980   40.2920 H   0  0  0  0  0  0  0  0  0  0  0  0
   37.2150   34.3500   39.2510 H   0  0  0  0  0  0  0  0  0  0  0  0
   41.4760   33.4380   40.5660 C   0  0  0  0  0  0  0  0  0  0  0  0
   41.9130   34.1310   39.8600 H   0  0  0  0  0  0  0  0  0  0  0  0
   42.2110   32.9020   41.4660 O   0  0  0  0  0  0  0  0  0  0  0  0
  1  4  1  6  0  0  0
  1  2  1  0  0  0  0
  1  8  1  0  0  0  0
  1  3  1  0  0  0  0
  2  3  1  0  0  0  0
  2  5  1  0  0  0  0
  3  7  1  1  0  0  0
  6  2  1  0  0  0  0
  8  9  1  0  0  0  0
  9 14  1  0  0  0  0
  9 10  2  0  0  0  0
 10 15  1  0  0  0  0
 11 10  1  0  0  0  0
 12 11  2  0  0  0  0
 13  8  2  0  0  0  0
 13 12  1  0  0  0  0
 16 17  1  0  0  0  0
 16 12  1  0  0  0  0
 16 19  1  0  0  0  0
 18 16  1  0  0  0  0
 20 25  1  0  0  0  0
 20  3  1  0  0  0  0
 21 20  2  0  0  0  0
 22 23  2  0  0  0  0
 22 21  1  0  0  0  0
 23 24  1  0  0  0  0
 24 28  1  0  0  0  0
 24 25  2  0  0  0  0
 26 21  1  0  0  0  0
 27 22  1  0  0  0  0
 28 30  2  0  0  0  0
 29 28  1  0  0  0  0
M  END
>  <minimizedAffinity>
-4.81103802

$$$$

 OpenBabel03252505423D

 30 32  0  0  1  0  0  0  0  0999 V2000
   36.2860   29.0080   39.4460 C   0  0  1  0  0  0  0  0  0  0  0  0
   35.9070   30.1730   40.4040 C   0  0  0  0  0  0  0  0  0  0  0  0
   35.7480   28.7140   40.7600 C   0  0  2  0  0  0  0  0  0  0  0  0
   37.3890   29.0350   39.2530 H   0  0  0  0  0  0  0  0  0  0  0  0
   34.9530   30.6960   40.1830 H   0  0  0  0  0  0  0  0  0  0  0  0
   36.6950   30.6720   40.9640 H   0  0  0  0  0  0  0  0  0  0  0  0
   34.7350   28.3450   40.9540 H   0  0  0  0  0  0  0  0  0  0  0  0
   35.4580   28.9690   38.2150 C   0  0  0  0  0  0  0  0  0  0  0  0
   34.0530   28.8160   38.3500 C   0  0  0  0  0  0  0  0  0  0  0  0
   33.2830   28.7890   37.1920 C   0  0  0  0  0  0  0  0  0  0  0  0
   33.9130   28.9080   35.9970 N   0  0  0  0  0  0  0  0  0  0  0  0
   35.2490   29.0510   35.9080 C   0  0  0  0  0  0  0  0  0  0  0  0
   35.9970   29.0780   37.0290 N   0  0  0  0  0  0  0  0  0  0  0  0
   33.5550   28.7220   39.2860 H   0  0  0  0  0  0  0  0  0  0  0  0
   32.2030   28.6740   37.2330 H   0  0  0  0  0  0  0  0  0  0  0  0
   35.7470   29.1710   34.5000 C   0  0  0  0  0  0  0  0  0  0  0  0
   37.1210   29.1190   34.4370 F   0  0  0  0  0  0  0  0  0  0  0  0
   35.3580   30.4160   33.9760 F   0  0  0  0  0  0  0  0  0  0  0  0
   35.1370   28.2160   33.7150 F   0  0  0  0  0  0  0  0  0  0  0  0
   36.7430   28.1130   41.7200 C   0  0  0  0  0  0  0  0  0  0  0  0
   37.2510   28.8300   42.7760 C   0  0  0  0  0  0  0  0  0  0  0  0
   38.1540   28.3080   43.6700 C   0  0  0  0  0  0  0  0  0  0  0  0
   38.5500   27.0280   43.4870 N   0  0  0  0  0  0  0  0  0  0  0  0
   38.0580   26.3080   42.4490 C   0  0  0  0  0  0  0  0  0  0  0  0
   37.1700   26.8380   41.5800 N   0  0  0  0  0  0  0  0  0  0  0  0
   36.9480   29.8530   42.9430 H   0  0  0  0  0  0  0  0  0  0  0  0
   38.5530   28.8860   44.5080 H   0  0  0  0  0  0  0  0  0  0  0  0
   38.4950   24.9270   42.2620 C   0  0  0  0  0  0  0  0  0  0  0  0
   38.1520   24.3590   41.4080 H   0  0  0  0  0  0  0  0  0  0  0  0
   39.2850   24.3840   43.1080 O   0  0  0  0  0  0  0  0  0  0  0  0
  1  4  1  6  0  0  0
  1  2  1  0  0  0  0
  1  3  1  0  0  0  0
  2  3  1  0  0  0  0
  2  6  1  0  0  0  0
  3  7  1  1  0  0  0
  3 20  1  0  0  0  0
  5  2  1  0  0  0  0
  8  9  1  0  0  0  0
  8  1  1  0  0  0  0
  9 14  1  0  0  0  0
 10 15  1  0  0  0  0
 10  9  2  0  0  0  0
 11 10  1  0  0  0  0
 12 11  2  0  0  0  0
 12 13  1  0  0  0  0
 13  8  2  0  0  0  0
 16 12  1  0  0  0  0
 17 16  1  0  0  0  0
 18 16  1  0  0  0  0
 19 16  1  0  0  0  0
 20 21  1  0  0  0  0
 21 26  1  0  0  0  0
 21 22  2  0  0  0  0
 22 27  1  0  0  0  0
 23 22  1  0  0  0  0
 24 23  2  0  0  0  0
 25 20  2  0  0  0  0
 25 24  1  0  0  0  0
 28 24  1  0  0  0  0
 28 30  2  0  0  0  0
 29 28  1  0  0  0  0
M  END
>  <minimizedAffinity>
-4.80136538

$$$$

 OpenBabel03252505423D

 30 32  0  0  1  0  0  0  0  0999 V2000
   39.1960   29.7520   40.9050 C   0  0  1  0  0  0  0  0  0  0  0  0
   38.4970   30.1080   39.5620 C   0  0  0  0  0  0  0  0  0  0  0  0
   38.7000   31.0970   40.6840 C   0  0  2  0  0  0  0  0  0  0  0  0
   40.2610   29.4760   40.7020 H   0  0  0  0  0  0  0  0  0  0  0  0
   37.4500   29.7550   39.4470 H   0  0  0  0  0  0  0  0  0  0  0  0
   39.1100   30.3130   38.6870 H   0  0  0  0  0  0  0  0  0  0  0  0
   37.8080   31.5220   41.1570 H   0  0  0  0  0  0  0  0  0  0  0  0
   38.4520   28.7470   41.7040 C   0  0  0  0  0  0  0  0  0  0  0  0
   37.8790   29.1530   42.9370 C   0  0  0  0  0  0  0  0  0  0  0  0
   37.1760   28.2060   43.6770 C   0  0  0  0  0  0  0  0  0  0  0  0
   37.0760   26.9470   43.1810 N   0  0  0  0  0  0  0  0  0  0  0  0
   37.6340   26.5990   42.0060 C   0  0  0  0  0  0  0  0  0  0  0  0
   38.3150   27.5140   41.2890 N   0  0  0  0  0  0  0  0  0  0  0  0
   37.9550   30.1390   43.3300 H   0  0  0  0  0  0  0  0  0  0  0  0
   36.7160   28.4580   44.6280 H   0  0  0  0  0  0  0  0  0  0  0  0
   37.4050   25.1650   41.6360 C   0  0  0  0  0  0  0  0  0  0  0  0
   36.3780   24.6070   42.3620 F   0  0  0  0  0  0  0  0  0  0  0  0
   38.5630   24.4220   41.9250 F   0  0  0  0  0  0  0  0  0  0  0  0
   37.2150   25.0670   40.2740 F   0  0  0  0  0  0  0  0  0  0  0  0
   39.7790   32.1380   40.5170 C   0  0  0  0  0  0  0  0  0  0  0  0
   39.6330   33.1940   39.6510 C   0  0  0  0  0  0  0  0  0  0  0  0
   40.5950   34.1600   39.4800 C   0  0  0  0  0  0  0  0  0  0  0  0
   41.7300   34.0500   40.2060 N   0  0  0  0  0  0  0  0  0  0  0  0
   41.8880   33.0130   41.0650 C   0  0  0  0  0  0  0  0  0  0  0  0
   40.9310   32.0720   41.2200 N   0  0  0  0  0  0  0  0  0  0  0  0
   38.7350   33.3030   39.0610 H   0  0  0  0  0  0  0  0  0  0  0  0
   40.4710   34.9980   38.7890 H   0  0  0  0  0  0  0  0  0  0  0  0
   43.1200   32.9060   41.8430 C   0  0  0  0  0  0  0  0  0  0  0  0
   43.6560   31.9670   41.8850 H   0  0  0  0  0  0  0  0  0  0  0  0
   43.5680   33.9210   42.4780 O   0  0  0  0  0  0  0  0  0  0  0  0
  1  4  1  6  0  0  0
  1  8  1  0  0  0  0
  2  3  1  0  0  0  0
  2  1  1  0  0  0  0
  3  1  1  0  0  0  0
  3  7  1  1  0  0  0
  5  2  1  0  0  0  0
  6  2  1  0  0  0  0
  8  9  1  0  0  0  0
  9 14  1  0  0  0  0
  9 10  2  0  0  0  0
 10 15  1  0  0  0  0
 11 10  1  0  0  0  0
 12 11  2  0  0  0  0
 13  8  2  0  0  0  0
 13 12  1  0  0  0  0
 16 18  1  0  0  0  0
 16 12  1  0  0  0  0
 16 17  1  0  0  0  0
 19 16  1  0  0  0  0
 20  3  1  0  0  0  0
 20 25  1  0  0  0  0
 21 20  2  0  0  0  0
 22 21  1  0  0  0  0
 22 23  2  0  0  0  0
 23 24  1  0  0  0  0
 24 25  2  0  0  0  0
 24 28  1  0  0  0  0
 26 21  1  0  0  0  0
 27 22  1  0  0  0  0
 28 29  1  0  0  0  0
 28 30  2  0  0  0  0
M  END
>  <minimizedAffinity>
-4.78990412

$$$$
