
 OpenBabel03252507373D

 32 35  0  0  0  0  0  0  0  0999 V2000
   45.2280   34.9150   43.4740 C   0  0  0  0  0  0  0  0  0  0  0  0
   45.9620   33.8140   43.9780 C   0  0  0  0  0  0  0  0  0  0  0  0
   45.8960   33.5890   45.3450 C   0  0  0  0  0  0  0  0  0  0  0  0
   45.1530   34.4120   46.1130 N   0  0  0  0  0  0  0  0  0  0  0  0
   44.4610   35.4600   45.6020 C   0  0  0  0  0  0  0  0  0  0  0  0
   44.5020   35.7010   44.3090 N   0  0  0  0  0  0  0  0  0  0  0  0
   46.5450   33.1670   43.3800 H   0  0  0  0  0  0  0  0  0  0  0  0
   43.8640   36.1220   46.2170 H   0  0  0  0  0  0  0  0  0  0  0  0
   46.8250   32.6210   47.3750 C   0  0  0  0  0  0  0  0  0  0  0  0
   46.5960   32.4950   46.0120 C   0  0  0  0  0  0  0  0  0  0  0  0
   47.0360   31.3550   45.3820 C   0  0  0  0  0  0  0  0  0  0  0  0
   47.6900   30.3470   46.0500 C   0  0  0  0  0  0  0  0  0  0  0  0
   48.2040   29.1590   45.6430 N   0  0  0  0  0  0  0  0  0  0  0  0
   48.7540   28.5470   46.7590 C   0  0  0  0  0  0  0  0  0  0  0  0
   48.5630   29.3720   47.8090 N   0  0  0  0  0  0  0  0  0  0  0  0
   47.9180   30.4720   47.3960 C   0  0  0  0  0  0  0  0  0  0  0  0
   47.4880   31.6020   48.0580 C   0  0  0  0  0  0  0  0  0  0  0  0
   46.4830   33.5190   47.8900 H   0  0  0  0  0  0  0  0  0  0  0  0
   46.8420   31.2910   44.3260 H   0  0  0  0  0  0  0  0  0  0  0  0
   48.1850   28.7860   44.6780 H   0  0  0  0  0  0  0  0  0  0  0  0
   49.2370   27.5780   46.7180 H   0  0  0  0  0  0  0  0  0  0  0  0
   47.6490   31.7370   49.1200 H   0  0  0  0  0  0  0  0  0  0  0  0
   45.2880   35.1510   42.0960 O   0  0  0  0  0  0  0  0  0  0  0  0
   44.1440   35.0440   41.3220 C   0  0  0  0  0  0  0  0  0  0  0  0
   44.5120   34.0510   40.4880 C   0  0  0  0  0  0  0  0  0  0  0  0
   42.9520   33.8670   39.3980 S   0  0  0  0  0  0  0  0  0  0  0  0
   42.1360   35.2540   40.3870 C   0  0  0  0  0  0  0  0  0  0  0  0
   42.9400   35.4900   41.0970 N   0  0  0  0  0  0  0  0  0  0  0  0
   45.1890   33.1770   39.9590 H   0  0  0  0  0  0  0  0  0  0  0  0
   40.7430   35.6400   39.9910 C   0  0  0  0  0  0  0  0  0  0  0  0
   40.4170   35.0930   39.1450 H   0  0  0  0  0  0  0  0  0  0  0  0
   40.1010   36.4980   40.6150 O   0  0  0  0  0  0  0  0  0  0  0  0
  1  2  2  0  0  0  0
  1  6  1  0  0  0  0
  2  3  1  0  0  0  0
  3 10  1  0  0  0  0
  3  4  2  0  0  0  0
  5  4  1  0  0  0  0
  5  8  1  0  0  0  0
  6  5  2  0  0  0  0
  7  2  1  0  0  0  0
  9 18  1  0  0  0  0
  9 17  1  0  0  0  0
 10  9  2  0  0  0  0
 11 10  1  0  0  0  0
 11 12  2  0  0  0  0
 12 16  1  0  0  0  0
 13 12  1  0  0  0  0
 13 14  1  0  0  0  0
 14 15  2  0  0  0  0
 16 15  1  0  0  0  0
 16 17  2  0  0  0  0
 17 22  1  0  0  0  0
 19 11  1  0  0  0  0
 20 13  1  0  0  0  0
 21 14  1  0  0  0  0
 23  1  1  0  0  0  0
 24 23  1  0  0  0  0
 25 24  2  0  0  0  0
 26 27  1  0  0  0  0
 26 25  1  0  0  0  0
 27 28  2  0  0  0  0
 28 24  1  0  0  0  0
 29 25  1  0  0  0  0
 30 27  1  0  0  0  0
 30 32  2  0  0  0  0
 31 30  1  0  0  0  0
M  END
>  <minimizedAffinity>
-5.6251049

>  <minimizedRMSD>
0.471188903

$$$$
