
 OpenBabel03242510293D

 28 29  0  0  1  0  0  0  0  0999 V2000
   46.7330   34.0580   41.9370 C   0  0  1  0  0  0  0  0  0  0  0  0
   45.8410   33.9540   40.7330 C   0  0  0  0  0  0  0  0  0  0  0  0
   46.6640   33.2980   39.6390 C   0  0  0  0  0  0  0  0  0  0  0  0
   47.7350   34.2820   39.2330 C   0  0  0  0  0  0  0  0  0  0  0  0
   48.5930   34.7240   40.3790 C   0  0  0  0  0  0  0  0  0  0  0  0
   47.8900   34.9870   41.6550 C   0  0  2  0  0  0  0  0  0  0  0  0
   47.1740   33.0660   42.1270 H   0  0  0  0  0  0  0  0  0  0  0  0
   45.5270   34.9510   40.3640 H   0  0  0  0  0  0  0  0  0  0  0  0
   44.9750   33.3070   40.9910 H   0  0  0  0  0  0  0  0  0  0  0  0
   47.0710   32.3250   39.9590 H   0  0  0  0  0  0  0  0  0  0  0  0
   45.9860   33.1980   38.7530 H   0  0  0  0  0  0  0  0  0  0  0  0
   48.3650   33.7830   38.4910 H   0  0  0  0  0  0  0  0  0  0  0  0
   47.1970   35.1840   38.8310 H   0  0  0  0  0  0  0  0  0  0  0  0
   49.0980   35.6650   40.0710 H   0  0  0  0  0  0  0  0  0  0  0  0
   49.4020   33.9720   40.5520 H   0  0  0  0  0  0  0  0  0  0  0  0
   47.4770   36.0170   41.7030 H   0  0  0  0  0  0  0  0  0  0  0  0
   44.6550   36.1340   44.3580 C   0  0  0  0  0  0  0  0  0  0  0  0
   45.3130   35.7530   43.1940 C   0  0  0  0  0  0  0  0  0  0  0  0
   46.0090   34.5300   43.1380 C   0  0  0  0  0  0  0  0  0  0  0  0
   46.0030   33.7600   44.2590 N   0  0  0  0  0  0  0  0  0  0  0  0
   45.3550   34.1510   45.3830 C   0  0  0  0  0  0  0  0  0  0  0  0
   44.6870   35.3180   45.4450 N   0  0  0  0  0  0  0  0  0  0  0  0
   44.1570   37.0770   44.2980 H   0  0  0  0  0  0  0  0  0  0  0  0
   45.3360   36.3530   42.2750 H   0  0  0  0  0  0  0  0  0  0  0  0
   45.3410   33.5530   46.2760 H   0  0  0  0  0  0  0  0  0  0  0  0
   48.9030   34.8800   42.7510 C   0  0  0  0  0  0  0  0  0  0  0  0
   48.7690   34.7820   43.8300 H   0  0  0  0  0  0  0  0  0  0  0  0
   50.1240   34.8900   42.5520 O   0  0  0  0  0  0  0  0  0  0  0  0
  1  7  1  1  0  0  0
  1 19  1  0  0  0  0
  2  9  1  0  0  0  0
  2  1  1  0  0  0  0
  3 10  1  0  0  0  0
  3  2  1  0  0  0  0
  4  3  1  0  0  0  0
  4  5  1  0  0  0  0
  5 15  1  0  0  0  0
  5  6  1  0  0  0  0
  6 16  1  6  0  0  0
  6  1  1  0  0  0  0
  6 26  1  0  0  0  0
  8  2  1  0  0  0  0
 11  3  1  0  0  0  0
 12  4  1  0  0  0  0
 13  4  1  0  0  0  0
 14  5  1  0  0  0  0
 17 22  1  0  0  0  0
 18 17  2  0  0  0  0
 19 18  1  0  0  0  0
 19 20  2  0  0  0  0
 20 21  1  0  0  0  0
 21 22  2  0  0  0  0
 21 25  1  0  0  0  0
 23 17  1  0  0  0  0
 24 18  1  0  0  0  0
 26 27  1  0  0  0  0
 28 26  2  0  0  0  0
M  END
>  <minimizedAffinity>
-4.72183704

>  <minimizedRMSD>
0.565795958

$$$$
