
 OpenBabel03242516373D

 14 14  0  0  0  0  0  0  0  0999 V2000
   44.9130   35.1350   44.0460 C   0  0  0  0  0  0  0  0  0  0  0  0
   45.7380   35.3860   42.9360 C   0  0  0  0  0  0  0  0  0  0  0  0
   46.9430   34.6760   42.8270 C   0  0  0  0  0  0  0  0  0  0  0  0
   47.2480   33.7860   43.7970 N   0  0  0  0  0  0  0  0  0  0  0  0
   46.4310   33.5690   44.8540 C   0  0  0  0  0  0  0  0  0  0  0  0
   45.2830   34.2420   44.9630 N   0  0  0  0  0  0  0  0  0  0  0  0
   43.6920   35.8450   44.1690 N   0  0  0  0  0  0  0  0  0  0  0  0
   45.4000   36.1100   42.2270 H   0  0  0  0  0  0  0  0  0  0  0  0
   46.7840   32.8310   45.5660 H   0  0  0  0  0  0  0  0  0  0  0  0
   43.2510   36.2350   43.2950 H   0  0  0  0  0  0  0  0  0  0  0  0
   43.2370   35.9800   45.1090 H   0  0  0  0  0  0  0  0  0  0  0  0
   47.7390   34.9800   41.6670 C   0  0  0  0  0  0  0  0  0  0  0  0
   47.6340   34.5360   40.6860 H   0  0  0  0  0  0  0  0  0  0  0  0
   48.6800   35.8160   41.6320 O   0  0  0  0  0  0  0  0  0  0  0  0
  1  7  1  0  0  0  0
  1  6  1  0  0  0  0
  2  1  2  0  0  0  0
  3  2  1  0  0  0  0
  3  4  2  0  0  0  0
  4  5  1  0  0  0  0
  5  6  2  0  0  0  0
  5  9  1  0  0  0  0
  7 11  1  0  0  0  0
  8  2  1  0  0  0  0
 10  7  1  0  0  0  0
 12  3  1  0  0  0  0
 13 12  1  0  0  0  0
 14 12  2  0  0  0  0
M  END
>  <minimizedAffinity>
-3.7119627

>  <minimizedRMSD>
1.76430202

$$$$
