
 OpenBabel03242510193D

 30 32  0  0  1  0  0  0  0  0999 V2000
   46.3100   32.1450   44.5580 C   0  0  1  0  0  0  0  0  0  0  0  0
   46.4570   31.3530   43.3960 C   0  0  0  0  0  0  0  0  0  0  0  0
   47.6740   32.1090   43.9540 C   0  0  1  0  0  0  0  0  0  0  0  0
   46.1570   31.7100   45.5620 H   0  0  0  0  0  0  0  0  0  0  0  0
   46.2290   31.6210   42.3560 H   0  0  0  0  0  0  0  0  0  0  0  0
   46.4420   30.2390   43.5210 H   0  0  0  0  0  0  0  0  0  0  0  0
   48.4630   31.3840   44.1920 H   0  0  0  0  0  0  0  0  0  0  0  0
   45.0690   33.9660   43.1980 C   0  0  0  0  0  0  0  0  0  0  0  0
   45.5500   33.4670   44.4420 C   0  0  0  0  0  0  0  0  0  0  0  0
   45.3350   34.2260   45.5710 C   0  0  0  0  0  0  0  0  0  0  0  0
   44.6800   35.4050   45.4520 N   0  0  0  0  0  0  0  0  0  0  0  0
   44.2250   35.8770   44.2660 C   0  0  0  0  0  0  0  0  0  0  0  0
   44.4290   35.1280   43.1070 N   0  0  0  0  0  0  0  0  0  0  0  0
   45.2500   33.3610   42.3480 H   0  0  0  0  0  0  0  0  0  0  0  0
   45.6950   33.8560   46.5180 H   0  0  0  0  0  0  0  0  0  0  0  0
   43.7030   36.8210   44.1810 H   0  0  0  0  0  0  0  0  0  0  0  0
   48.0570   33.2580   43.1960 N   0  0  0  0  0  0  0  0  0  0  0  0
   49.1820   33.2960   42.3910 C   0  0  0  0  0  0  0  0  0  0  0  0
   50.3590   32.9030   42.6080 O   0  0  0  0  0  0  0  0  0  0  0  0
   47.4760   34.1250   43.2350 H   0  0  0  0  0  0  0  0  0  0  0  0
   49.0870   33.8840   40.9900 C   0  0  2  0  0  0  0  0  0  0  0  0
   48.6330   35.3760   40.8930 C   0  0  0  0  0  0  0  0  0  0  0  0
   47.8100   34.2080   40.3770 C   0  0  1  0  0  0  0  0  0  0  0  0
   50.0040   33.7760   40.3580 H   0  0  0  0  0  0  0  0  0  0  0  0
   49.0700   36.0020   40.1220 H   0  0  0  0  0  0  0  0  0  0  0  0
   48.4010   35.8700   41.8320 H   0  0  0  0  0  0  0  0  0  0  0  0
   46.8280   34.2530   40.8060 H   0  0  0  0  0  0  0  0  0  0  0  0
   47.7270   34.0540   38.8710 C   0  0  0  0  0  0  0  0  0  0  0  0
   47.0830   33.4190   38.2900 H   0  0  0  0  0  0  0  0  0  0  0  0
   48.4690   34.7100   38.1270 O   0  0  0  0  0  0  0  0  0  0  0  0
  1  4  1  1  0  0  0
  2  6  1  0  0  0  0
  2  3  1  0  0  0  0
  2  1  1  0  0  0  0
  3  7  1  1  0  0  0
  3  1  1  0  0  0  0
  5  2  1  0  0  0  0
  8  9  1  0  0  0  0
  9  1  1  0  0  0  0
  9 10  2  0  0  0  0
 10 15  1  0  0  0  0
 11 10  1  0  0  0  0
 12 11  2  0  0  0  0
 13  8  2  0  0  0  0
 13 12  1  0  0  0  0
 14  8  1  0  0  0  0
 16 12  1  0  0  0  0
 17 20  1  0  0  0  0
 17  3  1  0  0  0  0
 18 19  2  0  0  0  0
 18 17  1  0  0  0  0
 21 24  1  6  0  0  0
 21 18  1  0  0  0  0
 22 21  1  0  0  0  0
 22 26  1  0  0  0  0
 23 27  1  1  0  0  0
 23 22  1  0  0  0  0
 23 21  1  0  0  0  0
 25 22  1  0  0  0  0
 28 23  1  0  0  0  0
 29 28  1  0  0  0  0
 30 28  2  0  0  0  0
M  END
>  <minimizedAffinity>
-4.30636835

>  <minimizedRMSD>
0.825204313

$$$$
