
 OpenBabel03252507133D

 36 37  0  0  1  0  0  0  0  0999 V2000
   50.2810   34.8200   42.6960 O   0  0  0  0  0  0  0  0  0  0  0  0
   49.0610   34.5920   41.8880 P   0  0  1  0  0  0  0  0  0  0  0  0
   49.0230   35.8000   40.6890 O   0  0  0  0  0  0  0  0  0  0  0  0
   49.4270   35.4550   39.8380 H   0  0  0  0  0  0  0  0  0  0  0  0
   49.1620   33.0800   41.0640 O   0  0  0  0  0  0  0  0  0  0  0  0
   49.6630   31.3070   42.5370 C   0  0  0  0  0  0  0  0  0  0  0  0
   50.0360   32.0930   41.4720 C   0  0  0  0  0  0  0  0  0  0  0  0
   51.2890   31.8490   40.8540 C   0  0  0  0  0  0  0  0  0  0  0  0
   52.0430   30.8480   41.3570 N   0  0  0  0  0  0  0  0  0  0  0  0
   51.6510   30.1130   42.3850 C   0  0  0  0  0  0  0  0  0  0  0  0
   50.4500   30.3550   42.9690 N   0  0  0  0  0  0  0  0  0  0  0  0
   47.2950   30.6530   42.9530 C   0  0  0  0  0  0  0  0  0  0  0  0
   47.0640   30.3710   41.7170 O   0  0  0  0  0  0  0  0  0  0  0  0
   48.5880   31.1460   43.4500 N   0  0  0  0  0  0  0  0  0  0  0  0
   51.5650   32.4640   40.0330 H   0  0  0  0  0  0  0  0  0  0  0  0
   52.2300   29.3100   42.8050 H   0  0  0  0  0  0  0  0  0  0  0  0
   46.4440   30.5000   43.6320 H   0  0  0  0  0  0  0  0  0  0  0  0
   48.5780   31.3390   44.4650 H   0  0  0  0  0  0  0  0  0  0  0  0
   47.6640   34.6800   42.7600 O   0  0  0  0  0  0  0  0  0  0  0  0
   46.5130   34.9460   42.1420 C   0  0  2  0  0  0  0  0  0  0  0  0
   45.5000   35.7500   42.8520 C   0  0  0  0  0  0  0  0  0  0  0  0
   44.1520   35.5420   42.2030 C   0  0  0  0  0  0  0  0  0  0  0  0
   43.6580   34.2730   42.4990 O   0  0  0  0  0  0  0  0  0  0  0  0
   44.6870   33.3440   42.5810 C   0  0  0  0  0  0  0  0  0  0  0  0
   45.8110   33.6740   41.6390 C   0  0  1  0  0  0  0  0  0  0  0  0
   46.7620   35.4520   41.1720 H   0  0  0  0  0  0  0  0  0  0  0  0
   45.3790   35.3700   43.9040 H   0  0  0  0  0  0  0  0  0  0  0  0
   45.7490   36.8230   42.9630 H   0  0  0  0  0  0  0  0  0  0  0  0
   43.4640   36.2960   42.6790 H   0  0  0  0  0  0  0  0  0  0  0  0
   44.1690   35.7960   41.1440 H   0  0  0  0  0  0  0  0  0  0  0  0
   45.0970   33.3500   43.6160 H   0  0  0  0  0  0  0  0  0  0  0  0
   44.2630   32.3570   42.3240 H   0  0  0  0  0  0  0  0  0  0  0  0
   46.5650   32.8550   41.7560 H   0  0  0  0  0  0  0  0  0  0  0  0
   45.4210   33.7230   40.2370 C   0  0  0  0  0  0  0  0  0  0  0  0
   44.6380   34.3990   39.9490 H   0  0  0  0  0  0  0  0  0  0  0  0
   45.6050   33.2940   39.1200 O   0  0  0  0  0  0  0  0  0  0  0  0
  2  1  2  1  0  0  0
  2 19  1  0  0  0  0
  3  2  1  0  0  0  0
  4  3  1  0  0  0  0
  5  7  1  0  0  0  0
  5  2  1  0  0  0  0
  6 11  1  0  0  0  0
  6 14  1  0  0  0  0
  7  6  2  0  0  0  0
  8  9  2  0  0  0  0
  8  7  1  0  0  0  0
  9 10  1  0  0  0  0
 10 16  1  0  0  0  0
 10 11  2  0  0  0  0
 12 14  1  0  0  0  0
 12 17  1  0  0  0  0
 13 12  2  0  0  0  0
 14 18  1  0  0  0  0
 15  8  1  0  0  0  0
 20 26  1  6  0  0  0
 20 19  1  0  0  0  0
 20 21  1  0  0  0  0
 21 28  1  0  0  0  0
 21 27  1  0  0  0  0
 22 23  1  0  0  0  0
 22 29  1  0  0  0  0
 22 21  1  0  0  0  0
 23 24  1  0  0  0  0
 24 31  1  0  0  0  0
 25 33  1  1  0  0  0
 25 20  1  0  0  0  0
 25 24  1  0  0  0  0
 30 22  1  0  0  0  0
 32 24  1  0  0  0  0
 34 25  1  0  0  0  0
 35 34  1  0  0  0  0
 36 34  2  0  0  0  0
M  END
>  <minimizedAffinity>
-4.24644804

>  <minimizedRMSD>
0.588437855

$$$$
