
 OpenBabel03252501393D

 29 30  0  0  0  0  0  0  0  0999 V2000
   39.6070   32.0360   38.0640 C   0  0  0  0  0  0  0  0  0  0  0  0
   40.3660   31.6950   39.0390 O   0  0  0  0  0  0  0  0  0  0  0  0
   40.3040   32.1580   36.8220 N   0  0  0  0  0  0  0  0  0  0  0  0
   39.8060   32.4110   35.9550 H   0  0  0  0  0  0  0  0  0  0  0  0
   41.7050   31.8720   37.0540 C   0  0  0  0  0  0  0  0  0  0  0  0
   42.7020   32.8100   37.1270 C   0  0  0  0  0  0  0  0  0  0  0  0
   43.9810   32.3350   37.3550 C   0  0  0  0  0  0  0  0  0  0  0  0
   44.1560   30.9990   37.4890 N   0  0  0  0  0  0  0  0  0  0  0  0
   43.1520   30.1070   37.4120 C   0  0  0  0  0  0  0  0  0  0  0  0
   41.8820   30.5410   37.1880 N   0  0  0  0  0  0  0  0  0  0  0  0
   44.7710   33.0630   37.4150 H   0  0  0  0  0  0  0  0  0  0  0  0
   43.3720   29.0550   37.5300 H   0  0  0  0  0  0  0  0  0  0  0  0
   42.3400   34.1540   36.9650 N   0  0  0  0  0  0  0  0  0  0  0  0
   42.4030   34.6550   36.0510 H   0  0  0  0  0  0  0  0  0  0  0  0
   41.9840   34.6840   37.8130 H   0  0  0  0  0  0  0  0  0  0  0  0
   38.2250   32.2790   38.1560 O   0  0  0  0  0  0  0  0  0  0  0  0
   36.9160   31.6070   40.7050 Cl  0  0  0  0  0  0  0  0  0  0  0  0
   36.6790   30.8060   39.1750 C   0  0  0  0  0  0  0  0  0  0  0  0
   37.3470   31.1970   38.0160 C   0  0  0  0  0  0  0  0  0  0  0  0
   37.1350   30.5410   36.8280 C   0  0  0  0  0  0  0  0  0  0  0  0
   36.2620   29.4740   36.7130 C   0  0  0  0  0  0  0  0  0  0  0  0
   35.5750   29.0560   37.8610 C   0  0  0  0  0  0  0  0  0  0  0  0
   34.4520   27.7130   37.8020 Cl  0  0  0  0  0  0  0  0  0  0  0  0
   35.8240   29.7440   39.0210 C   0  0  0  0  0  0  0  0  0  0  0  0
   37.6850   30.8950   35.9640 H   0  0  0  0  0  0  0  0  0  0  0  0
   36.1080   28.9710   35.7710 H   0  0  0  0  0  0  0  0  0  0  0  0
   35.1000   29.2980   40.2080 C   0  0  0  0  0  0  0  0  0  0  0  0
   34.1110   29.5940   40.5040 H   0  0  0  0  0  0  0  0  0  0  0  0
   35.6710   28.4770   40.9870 O   0  0  0  0  0  0  0  0  0  0  0  0
  1 16  1  0  0  0  0
  1  2  2  0  0  0  0
  3  5  1  0  0  0  0
  3  1  1  0  0  0  0
  4  3  1  0  0  0  0
  5  6  2  0  0  0  0
  5 10  1  0  0  0  0
  6  7  1  0  0  0  0
  7 11  1  0  0  0  0
  7  8  2  0  0  0  0
  9  8  1  0  0  0  0
  9 12  1  0  0  0  0
 10  9  2  0  0  0  0
 13  6  1  0  0  0  0
 13 15  1  0  0  0  0
 14 13  1  0  0  0  0
 18 17  1  0  0  0  0
 19 16  1  0  0  0  0
 19 18  2  0  0  0  0
 20 19  1  0  0  0  0
 21 20  2  0  0  0  0
 21 22  1  0  0  0  0
 22 24  2  0  0  0  0
 23 22  1  0  0  0  0
 24 18  1  0  0  0  0
 24 27  1  0  0  0  0
 25 20  1  0  0  0  0
 26 21  1  0  0  0  0
 27 28  1  0  0  0  0
 27 29  2  0  0  0  0
M  END
>  <minimizedAffinity>
-5.55663443

$$$$

 OpenBabel03252501393D

 29 30  0  0  0  0  0  0  0  0999 V2000
   37.8460   31.0250   41.0440 C   0  0  0  0  0  0  0  0  0  0  0  0
   39.0930   30.9160   41.3220 O   0  0  0  0  0  0  0  0  0  0  0  0
   37.5770   31.9920   40.0270 N   0  0  0  0  0  0  0  0  0  0  0  0
   36.6150   32.1660   39.6980 H   0  0  0  0  0  0  0  0  0  0  0  0
   38.8330   32.5910   39.6220 C   0  0  0  0  0  0  0  0  0  0  0  0
   39.4550   33.6310   40.2620 C   0  0  0  0  0  0  0  0  0  0  0  0
   40.6510   34.0640   39.7170 C   0  0  0  0  0  0  0  0  0  0  0  0
   41.1160   33.4380   38.6100 N   0  0  0  0  0  0  0  0  0  0  0  0
   40.4770   32.4190   38.0090 C   0  0  0  0  0  0  0  0  0  0  0  0
   39.2980   31.9690   38.5180 N   0  0  0  0  0  0  0  0  0  0  0  0
   41.1490   34.8790   40.2110 H   0  0  0  0  0  0  0  0  0  0  0  0
   40.9140   31.9700   37.1270 H   0  0  0  0  0  0  0  0  0  0  0  0
   38.8300   34.1600   41.3980 N   0  0  0  0  0  0  0  0  0  0  0  0
   38.2080   34.9990   41.3690 H   0  0  0  0  0  0  0  0  0  0  0  0
   38.9970   33.6830   42.3320 H   0  0  0  0  0  0  0  0  0  0  0  0
   36.8110   30.2920   41.6510 O   0  0  0  0  0  0  0  0  0  0  0  0
   36.1440   28.7670   39.2240 Cl  0  0  0  0  0  0  0  0  0  0  0  0
   36.6980   28.1110   40.7420 C   0  0  0  0  0  0  0  0  0  0  0  0
   36.9900   28.9160   41.8410 C   0  0  0  0  0  0  0  0  0  0  0  0
   37.4250   28.3640   43.0210 C   0  0  0  0  0  0  0  0  0  0  0  0
   37.5950   27.0010   43.1860 C   0  0  0  0  0  0  0  0  0  0  0  0
   37.3090   26.1630   42.0980 C   0  0  0  0  0  0  0  0  0  0  0  0
   37.4970   24.4260   42.2230 Cl  0  0  0  0  0  0  0  0  0  0  0  0
   36.8780   26.7660   40.9440 C   0  0  0  0  0  0  0  0  0  0  0  0
   37.6350   29.0450   43.8370 H   0  0  0  0  0  0  0  0  0  0  0  0
   37.9370   26.5840   44.1200 H   0  0  0  0  0  0  0  0  0  0  0  0
   36.5850   25.8810   39.8210 C   0  0  0  0  0  0  0  0  0  0  0  0
   35.6420   25.4150   39.6020 H   0  0  0  0  0  0  0  0  0  0  0  0
   37.5170   25.6170   39.0030 O   0  0  0  0  0  0  0  0  0  0  0  0
  1  2  2  0  0  0  0
  1 16  1  0  0  0  0
  3  1  1  0  0  0  0
  4  3  1  0  0  0  0
  5  3  1  0  0  0  0
  5  6  1  0  0  0  0
  6 13  1  0  0  0  0
  7 11  1  0  0  0  0
  7  6  2  0  0  0  0
  8  7  1  0  0  0  0
  9 10  1  0  0  0  0
  9  8  2  0  0  0  0
 10  5  2  0  0  0  0
 12  9  1  0  0  0  0
 13 15  1  0  0  0  0
 14 13  1  0  0  0  0
 16 19  1  0  0  0  0
 17 18  1  0  0  0  0
 18 24  2  0  0  0  0
 18 19  1  0  0  0  0
 19 20  2  0  0  0  0
 20 21  1  0  0  0  0
 20 25  1  0  0  0  0
 21 26  1  0  0  0  0
 22 23  1  0  0  0  0
 22 21  2  0  0  0  0
 24 22  1  0  0  0  0
 27 24  1  0  0  0  0
 28 27  1  0  0  0  0
 29 27  2  0  0  0  0
M  END
>  <minimizedAffinity>
-5.41220236

$$$$

 OpenBabel03252501393D

 29 30  0  0  0  0  0  0  0  0999 V2000
   39.0700   30.6900   41.9210 C   0  0  0  0  0  0  0  0  0  0  0  0
   38.7890   30.6960   40.6700 O   0  0  0  0  0  0  0  0  0  0  0  0
   40.0850   31.6310   42.2760 N   0  0  0  0  0  0  0  0  0  0  0  0
   40.3930   31.7390   43.2550 H   0  0  0  0  0  0  0  0  0  0  0  0
   40.5190   32.3110   41.0730 C   0  0  0  0  0  0  0  0  0  0  0  0
   39.9460   33.4430   40.5540 C   0  0  0  0  0  0  0  0  0  0  0  0
   40.5060   33.9420   39.3920 C   0  0  0  0  0  0  0  0  0  0  0  0
   41.5660   33.2890   38.8580 N   0  0  0  0  0  0  0  0  0  0  0  0
   42.1020   32.1800   39.3960 C   0  0  0  0  0  0  0  0  0  0  0  0
   41.5750   31.6620   40.5390 N   0  0  0  0  0  0  0  0  0  0  0  0
   40.0650   34.8300   38.9760 H   0  0  0  0  0  0  0  0  0  0  0  0
   42.9490   31.7150   38.9100 H   0  0  0  0  0  0  0  0  0  0  0  0
   38.8520   33.9880   41.2400 N   0  0  0  0  0  0  0  0  0  0  0  0
   37.8600   33.7820   40.9870 H   0  0  0  0  0  0  0  0  0  0  0  0
   39.0450   34.6400   42.0550 H   0  0  0  0  0  0  0  0  0  0  0  0
   38.4690   29.8610   42.8850 O   0  0  0  0  0  0  0  0  0  0  0  0
   36.2490   28.1320   42.0220 Cl  0  0  0  0  0  0  0  0  0  0  0  0
   37.8360   27.6100   42.5230 C   0  0  0  0  0  0  0  0  0  0  0  0
   38.8270   28.5070   42.9160 C   0  0  0  0  0  0  0  0  0  0  0  0
   40.0660   28.0590   43.3040 C   0  0  0  0  0  0  0  0  0  0  0  0
   40.3970   26.7160   43.3270 C   0  0  0  0  0  0  0  0  0  0  0  0
   39.4210   25.7880   42.9370 C   0  0  0  0  0  0  0  0  0  0  0  0
   39.7580   24.0690   42.9390 Cl  0  0  0  0  0  0  0  0  0  0  0  0
   38.2010   26.2890   42.5600 C   0  0  0  0  0  0  0  0  0  0  0  0
   40.7920   28.8080   43.5980 H   0  0  0  0  0  0  0  0  0  0  0  0
   41.3750   26.3820   43.6350 H   0  0  0  0  0  0  0  0  0  0  0  0
   37.1960   25.3100   42.1570 C   0  0  0  0  0  0  0  0  0  0  0  0
   36.5000   24.8040   42.8000 H   0  0  0  0  0  0  0  0  0  0  0  0
   37.1100   25.0060   40.9290 O   0  0  0  0  0  0  0  0  0  0  0  0
  1  3  1  0  0  0  0
  1 16  1  0  0  0  0
  2  1  2  0  0  0  0
  3  4  1  0  0  0  0
  5  3  1  0  0  0  0
  6  5  1  0  0  0  0
  6 13  1  0  0  0  0
  7  6  2  0  0  0  0
  8  7  1  0  0  0  0
  8  9  2  0  0  0  0
  9 10  1  0  0  0  0
 10  5  2  0  0  0  0
 11  7  1  0  0  0  0
 12  9  1  0  0  0  0
 13 15  1  0  0  0  0
 14 13  1  0  0  0  0
 16 19  1  0  0  0  0
 17 18  1  0  0  0  0
 18 24  2  0  0  0  0
 18 19  1  0  0  0  0
 19 20  2  0  0  0  0
 20 21  1  0  0  0  0
 20 25  1  0  0  0  0
 21 26  1  0  0  0  0
 22 23  1  0  0  0  0
 22 21  2  0  0  0  0
 24 22  1  0  0  0  0
 27 24  1  0  0  0  0
 27 28  1  0  0  0  0
 29 27  2  0  0  0  0
M  END
>  <minimizedAffinity>
-5.37154913

$$$$

 OpenBabel03252501393D

 29 30  0  0  0  0  0  0  0  0999 V2000
   39.8750   30.6540   42.1540 C   0  0  0  0  0  0  0  0  0  0  0  0
   40.5950   30.1200   41.2390 O   0  0  0  0  0  0  0  0  0  0  0  0
   39.7820   32.0760   42.0430 N   0  0  0  0  0  0  0  0  0  0  0  0
   39.2190   32.6270   42.7080 H   0  0  0  0  0  0  0  0  0  0  0  0
   40.5770   32.4980   40.9070 C   0  0  0  0  0  0  0  0  0  0  0  0
   41.8730   32.9400   40.9700 C   0  0  0  0  0  0  0  0  0  0  0  0
   42.4610   33.2990   39.7700 C   0  0  0  0  0  0  0  0  0  0  0  0
   41.7280   33.1900   38.6370 N   0  0  0  0  0  0  0  0  0  0  0  0
   40.4570   32.7510   38.6140 C   0  0  0  0  0  0  0  0  0  0  0  0
   39.8480   32.3900   39.7770 N   0  0  0  0  0  0  0  0  0  0  0  0
   43.4780   33.6470   39.8060 H   0  0  0  0  0  0  0  0  0  0  0  0
   39.9370   32.6920   37.6680 H   0  0  0  0  0  0  0  0  0  0  0  0
   42.4810   32.9890   42.2310 N   0  0  0  0  0  0  0  0  0  0  0  0
   42.5180   33.8550   42.8130 H   0  0  0  0  0  0  0  0  0  0  0  0
   42.9230   32.1010   42.6100 H   0  0  0  0  0  0  0  0  0  0  0  0
   39.2200   29.9560   43.1850 O   0  0  0  0  0  0  0  0  0  0  0  0
   41.0290   27.6870   43.6770 Cl  0  0  0  0  0  0  0  0  0  0  0  0
   39.3930   27.5990   43.0810 C   0  0  0  0  0  0  0  0  0  0  0  0
   38.6090   28.7330   42.8790 C   0  0  0  0  0  0  0  0  0  0  0  0
   37.3240   28.6240   42.4080 C   0  0  0  0  0  0  0  0  0  0  0  0
   36.7410   27.4050   42.1130 C   0  0  0  0  0  0  0  0  0  0  0  0
   37.5030   26.2440   42.3060 C   0  0  0  0  0  0  0  0  0  0  0  0
   36.8410   24.6610   41.9550 Cl  0  0  0  0  0  0  0  0  0  0  0  0
   38.7810   26.4090   42.7760 C   0  0  0  0  0  0  0  0  0  0  0  0
   36.7680   29.5450   42.2730 H   0  0  0  0  0  0  0  0  0  0  0  0
   35.7300   27.3390   41.7440 H   0  0  0  0  0  0  0  0  0  0  0  0
   39.5620   25.1920   42.9720 C   0  0  0  0  0  0  0  0  0  0  0  0
   39.6010   24.5930   43.8640 H   0  0  0  0  0  0  0  0  0  0  0  0
   40.2750   24.7730   42.0120 O   0  0  0  0  0  0  0  0  0  0  0  0
  1 16  1  0  0  0  0
  2  1  2  0  0  0  0
  3  1  1  0  0  0  0
  3  4  1  0  0  0  0
  5  6  1  0  0  0  0
  5  3  1  0  0  0  0
  6 13  1  0  0  0  0
  7 11  1  0  0  0  0
  7  6  2  0  0  0  0
  8  7  1  0  0  0  0
  9  8  2  0  0  0  0
  9 10  1  0  0  0  0
 10  5  2  0  0  0  0
 12  9  1  0  0  0  0
 13 15  1  0  0  0  0
 13 14  1  0  0  0  0
 18 17  1  0  0  0  0
 19 18  1  0  0  0  0
 19 16  1  0  0  0  0
 20 19  2  0  0  0  0
 21 22  2  0  0  0  0
 21 20  1  0  0  0  0
 22 24  1  0  0  0  0
 23 22  1  0  0  0  0
 24 27  1  0  0  0  0
 24 18  2  0  0  0  0
 25 20  1  0  0  0  0
 26 21  1  0  0  0  0
 27 28  1  0  0  0  0
 29 27  2  0  0  0  0
M  END
>  <minimizedAffinity>
-5.18793631

$$$$

 OpenBabel03252501393D

 29 30  0  0  0  0  0  0  0  0999 V2000
   38.1070   30.5570   40.8920 C   0  0  0  0  0  0  0  0  0  0  0  0
   39.3830   30.4630   40.9770 O   0  0  0  0  0  0  0  0  0  0  0  0
   37.6740   31.6520   40.0830 N   0  0  0  0  0  0  0  0  0  0  0  0
   36.6720   31.8300   39.9190 H   0  0  0  0  0  0  0  0  0  0  0  0
   38.8450   32.3610   39.6090 C   0  0  0  0  0  0  0  0  0  0  0  0
   39.3780   33.4840   40.1880 C   0  0  0  0  0  0  0  0  0  0  0  0
   40.5030   34.0160   39.5820 C   0  0  0  0  0  0  0  0  0  0  0  0
   40.9910   33.3990   38.4800 N   0  0  0  0  0  0  0  0  0  0  0  0
   40.4410   32.2980   37.9400 C   0  0  0  0  0  0  0  0  0  0  0  0
   39.3340   31.7490   38.5100 N   0  0  0  0  0  0  0  0  0  0  0  0
   40.9300   34.8970   40.0280 H   0  0  0  0  0  0  0  0  0  0  0  0
   40.8900   31.8630   37.0570 H   0  0  0  0  0  0  0  0  0  0  0  0
   38.7420   33.9880   41.3290 N   0  0  0  0  0  0  0  0  0  0  0  0
   38.0350   34.7570   41.2960 H   0  0  0  0  0  0  0  0  0  0  0  0
   38.9910   33.5670   42.2710 H   0  0  0  0  0  0  0  0  0  0  0  0
   37.1860   29.6950   41.5140 O   0  0  0  0  0  0  0  0  0  0  0  0
   37.5070   27.6120   43.5680 Cl  0  0  0  0  0  0  0  0  0  0  0  0
   37.1410   27.3580   41.8810 C   0  0  0  0  0  0  0  0  0  0  0  0
   37.0080   28.4120   40.9800 C   0  0  0  0  0  0  0  0  0  0  0  0
   36.7190   28.1740   39.6580 C   0  0  0  0  0  0  0  0  0  0  0  0
   36.5470   26.8980   39.1530 C   0  0  0  0  0  0  0  0  0  0  0  0
   36.6750   25.8150   40.0350 C   0  0  0  0  0  0  0  0  0  0  0  0
   36.4740   24.1670   39.4770 Cl  0  0  0  0  0  0  0  0  0  0  0  0
   36.9650   26.1090   41.3430 C   0  0  0  0  0  0  0  0  0  0  0  0
   36.6280   29.0380   39.0100 H   0  0  0  0  0  0  0  0  0  0  0  0
   36.3210   26.7290   38.1120 H   0  0  0  0  0  0  0  0  0  0  0  0
   37.0950   24.9710   42.2490 C   0  0  0  0  0  0  0  0  0  0  0  0
   36.3060   24.5110   42.8160 H   0  0  0  0  0  0  0  0  0  0  0  0
   38.2410   24.4520   42.4030 O   0  0  0  0  0  0  0  0  0  0  0  0
  1  2  2  0  0  0  0
  1 16  1  0  0  0  0
  3  1  1  0  0  0  0
  4  3  1  0  0  0  0
  5  3  1  0  0  0  0
  5  6  1  0  0  0  0
  6 13  1  0  0  0  0
  7 11  1  0  0  0  0
  7  6  2  0  0  0  0
  8  7  1  0  0  0  0
  9  8  2  0  0  0  0
  9 10  1  0  0  0  0
 10  5  2  0  0  0  0
 12  9  1  0  0  0  0
 13 15  1  0  0  0  0
 14 13  1  0  0  0  0
 18 17  1  0  0  0  0
 19 16  1  0  0  0  0
 19 18  2  0  0  0  0
 20 19  1  0  0  0  0
 21 20  2  0  0  0  0
 21 22  1  0  0  0  0
 22 24  2  0  0  0  0
 23 22  1  0  0  0  0
 24 18  1  0  0  0  0
 24 27  1  0  0  0  0
 25 20  1  0  0  0  0
 26 21  1  0  0  0  0
 27 29  2  0  0  0  0
 27 28  1  0  0  0  0
M  END
>  <minimizedAffinity>
-5.13790321

$$$$

 OpenBabel03252501393D

 29 30  0  0  0  0  0  0  0  0999 V2000
   39.5540   31.9190   38.1320 C   0  0  0  0  0  0  0  0  0  0  0  0
   40.4170   31.7130   39.0560 O   0  0  0  0  0  0  0  0  0  0  0  0
   40.1330   32.3870   36.9120 N   0  0  0  0  0  0  0  0  0  0  0  0
   39.5490   32.5760   36.0830 H   0  0  0  0  0  0  0  0  0  0  0  0
   41.5630   32.5130   37.1040 C   0  0  0  0  0  0  0  0  0  0  0  0
   42.4800   31.5140   36.8970 C   0  0  0  0  0  0  0  0  0  0  0  0
   43.8040   31.8320   37.1380 C   0  0  0  0  0  0  0  0  0  0  0  0
   44.0980   33.0870   37.5540 N   0  0  0  0  0  0  0  0  0  0  0  0
   43.1710   34.0420   37.7460 C   0  0  0  0  0  0  0  0  0  0  0  0
   41.8590   33.7630   37.5190 N   0  0  0  0  0  0  0  0  0  0  0  0
   44.5320   31.0570   36.9780 H   0  0  0  0  0  0  0  0  0  0  0  0
   43.4850   35.0220   38.0790 H   0  0  0  0  0  0  0  0  0  0  0  0
   41.9970   30.2720   36.4650 N   0  0  0  0  0  0  0  0  0  0  0  0
   41.7930   29.4810   37.1170 H   0  0  0  0  0  0  0  0  0  0  0  0
   41.8320   30.1310   35.4260 H   0  0  0  0  0  0  0  0  0  0  0  0
   38.1670   31.7210   38.2560 O   0  0  0  0  0  0  0  0  0  0  0  0
   38.3080   28.9160   37.3770 Cl  0  0  0  0  0  0  0  0  0  0  0  0
   37.7340   29.4920   38.9200 C   0  0  0  0  0  0  0  0  0  0  0  0
   37.7040   30.8460   39.2470 C   0  0  0  0  0  0  0  0  0  0  0  0
   37.2450   31.2630   40.4730 C   0  0  0  0  0  0  0  0  0  0  0  0
   36.7930   30.3800   41.4360 C   0  0  0  0  0  0  0  0  0  0  0  0
   36.8090   29.0100   41.1380 C   0  0  0  0  0  0  0  0  0  0  0  0
   36.2540   27.8250   42.3020 Cl  0  0  0  0  0  0  0  0  0  0  0  0
   37.2770   28.6480   39.9000 C   0  0  0  0  0  0  0  0  0  0  0  0
   37.2490   32.3300   40.6640 H   0  0  0  0  0  0  0  0  0  0  0  0
   36.4350   30.7250   42.3940 H   0  0  0  0  0  0  0  0  0  0  0  0
   37.2890   27.2190   39.6040 C   0  0  0  0  0  0  0  0  0  0  0  0
   36.4920   26.6510   39.1600 H   0  0  0  0  0  0  0  0  0  0  0  0
   38.3300   26.5530   39.8880 O   0  0  0  0  0  0  0  0  0  0  0  0
  1 16  1  0  0  0  0
  1  2  2  0  0  0  0
  3  5  1  0  0  0  0
  3  1  1  0  0  0  0
  4  3  1  0  0  0  0
  5 10  1  0  0  0  0
  6  5  2  0  0  0  0
  6  7  1  0  0  0  0
  7  8  2  0  0  0  0
  8  9  1  0  0  0  0
  9 12  1  0  0  0  0
 10  9  2  0  0  0  0
 11  7  1  0  0  0  0
 13  6  1  0  0  0  0
 13 14  1  0  0  0  0
 15 13  1  0  0  0  0
 16 19  1  0  0  0  0
 17 18  1  0  0  0  0
 18 19  2  0  0  0  0
 18 24  1  0  0  0  0
 19 20  1  0  0  0  0
 20 25  1  0  0  0  0
 20 21  2  0  0  0  0
 21 26  1  0  0  0  0
 22 21  1  0  0  0  0
 22 23  1  0  0  0  0
 24 22  2  0  0  0  0
 27 29  2  0  0  0  0
 27 24  1  0  0  0  0
 28 27  1  0  0  0  0
M  END
>  <minimizedAffinity>
-5.11459732

$$$$

 OpenBabel03252501393D

 29 30  0  0  0  0  0  0  0  0999 V2000
   37.1120   26.5060   41.9360 C   0  0  0  0  0  0  0  0  0  0  0  0
   37.7620   26.4490   40.8330 O   0  0  0  0  0  0  0  0  0  0  0  0
   36.6580   25.2300   42.3910 N   0  0  0  0  0  0  0  0  0  0  0  0
   36.1360   25.1330   43.2760 H   0  0  0  0  0  0  0  0  0  0  0  0
   37.0620   24.2300   41.4240 C   0  0  0  0  0  0  0  0  0  0  0  0
   38.2680   23.5760   41.4190 C   0  0  0  0  0  0  0  0  0  0  0  0
   38.4660   22.6540   40.4070 C   0  0  0  0  0  0  0  0  0  0  0  0
   37.4710   22.4630   39.5080 N   0  0  0  0  0  0  0  0  0  0  0  0
   36.3000   23.1230   39.5450 C   0  0  0  0  0  0  0  0  0  0  0  0
   36.0730   24.0380   40.5270 N   0  0  0  0  0  0  0  0  0  0  0  0
   39.4080   22.1350   40.3940 H   0  0  0  0  0  0  0  0  0  0  0  0
   35.5540   22.9140   38.7900 H   0  0  0  0  0  0  0  0  0  0  0  0
   39.1840   23.8990   42.4290 N   0  0  0  0  0  0  0  0  0  0  0  0
   39.9500   24.5980   42.3020 H   0  0  0  0  0  0  0  0  0  0  0  0
   39.0920   23.4090   43.3660 H   0  0  0  0  0  0  0  0  0  0  0  0
   36.8460   27.6800   42.6630 O   0  0  0  0  0  0  0  0  0  0  0  0
   35.3010   29.2310   40.6960 Cl  0  0  0  0  0  0  0  0  0  0  0  0
   36.8530   29.6580   41.3660 C   0  0  0  0  0  0  0  0  0  0  0  0
   37.5110   28.8570   42.2970 C   0  0  0  0  0  0  0  0  0  0  0  0
   38.7330   29.2260   42.8030 C   0  0  0  0  0  0  0  0  0  0  0  0
   39.3720   30.3940   42.4260 C   0  0  0  0  0  0  0  0  0  0  0  0
   38.7360   31.2230   41.4900 C   0  0  0  0  0  0  0  0  0  0  0  0
   39.4760   32.7180   40.9590 Cl  0  0  0  0  0  0  0  0  0  0  0  0
   37.5180   30.8060   41.0170 C   0  0  0  0  0  0  0  0  0  0  0  0
   39.1910   28.5590   43.5230 H   0  0  0  0  0  0  0  0  0  0  0  0
   40.3320   30.6690   42.8330 H   0  0  0  0  0  0  0  0  0  0  0  0
   36.8680   31.6800   40.0440 C   0  0  0  0  0  0  0  0  0  0  0  0
   36.2150   32.5050   40.2600 H   0  0  0  0  0  0  0  0  0  0  0  0
   37.0750   31.4680   38.8110 O   0  0  0  0  0  0  0  0  0  0  0  0
  1  3  1  0  0  0  0
  1 16  1  0  0  0  0
  2  1  2  0  0  0  0
  3  4  1  0  0  0  0
  5  3  1  0  0  0  0
  6  5  1  0  0  0  0
  6 13  1  0  0  0  0
  7  6  2  0  0  0  0
  8  9  2  0  0  0  0
  8  7  1  0  0  0  0
  9 10  1  0  0  0  0
 10  5  2  0  0  0  0
 11  7  1  0  0  0  0
 12  9  1  0  0  0  0
 13 15  1  0  0  0  0
 14 13  1  0  0  0  0
 17 18  1  0  0  0  0
 18 19  1  0  0  0  0
 19 16  1  0  0  0  0
 19 20  2  0  0  0  0
 20 25  1  0  0  0  0
 21 20  1  0  0  0  0
 21 26  1  0  0  0  0
 22 21  2  0  0  0  0
 23 22  1  0  0  0  0
 24 18  2  0  0  0  0
 24 22  1  0  0  0  0
 27 28  1  0  0  0  0
 27 24  1  0  0  0  0
 29 27  2  0  0  0  0
M  END
>  <minimizedAffinity>
-5.03321362

$$$$

 OpenBabel03252501393D

 29 30  0  0  0  0  0  0  0  0999 V2000
   38.0840   27.1560   41.9780 C   0  0  0  0  0  0  0  0  0  0  0  0
   38.9170   26.8310   41.0590 O   0  0  0  0  0  0  0  0  0  0  0  0
   37.1250   26.1350   42.2590 N   0  0  0  0  0  0  0  0  0  0  0  0
   36.4090   26.2630   42.9890 H   0  0  0  0  0  0  0  0  0  0  0  0
   37.3790   25.0150   41.3760 C   0  0  0  0  0  0  0  0  0  0  0  0
   38.2600   23.9940   41.6260 C   0  0  0  0  0  0  0  0  0  0  0  0
   38.3610   23.0140   40.6540 C   0  0  0  0  0  0  0  0  0  0  0  0
   37.5950   23.1290   39.5430 N   0  0  0  0  0  0  0  0  0  0  0  0
   36.7410   24.1460   39.3320 C   0  0  0  0  0  0  0  0  0  0  0  0
   36.6170   25.1270   40.2680 N   0  0  0  0  0  0  0  0  0  0  0  0
   39.0480   22.2080   40.8400 H   0  0  0  0  0  0  0  0  0  0  0  0
   36.1620   24.1670   38.4190 H   0  0  0  0  0  0  0  0  0  0  0  0
   38.9730   24.0340   42.8310 N   0  0  0  0  0  0  0  0  0  0  0  0
   39.9370   24.4280   42.9100 H   0  0  0  0  0  0  0  0  0  0  0  0
   38.5080   23.6460   43.7030 H   0  0  0  0  0  0  0  0  0  0  0  0
   38.0730   28.3810   42.6680 O   0  0  0  0  0  0  0  0  0  0  0  0
   40.4830   30.0630   42.4890 Cl  0  0  0  0  0  0  0  0  0  0  0  0
   38.9180   30.4150   41.8040 C   0  0  0  0  0  0  0  0  0  0  0  0
   37.8310   29.5540   41.9420 C   0  0  0  0  0  0  0  0  0  0  0  0
   36.6140   29.8650   41.3880 C   0  0  0  0  0  0  0  0  0  0  0  0
   36.3980   31.0300   40.6740 C   0  0  0  0  0  0  0  0  0  0  0  0
   37.4720   31.9180   40.5180 C   0  0  0  0  0  0  0  0  0  0  0  0
   37.2830   33.4160   39.6280 Cl  0  0  0  0  0  0  0  0  0  0  0  0
   38.6650   31.5590   41.0910 C   0  0  0  0  0  0  0  0  0  0  0  0
   35.8100   29.1530   41.5310 H   0  0  0  0  0  0  0  0  0  0  0  0
   35.4350   31.2590   40.2460 H   0  0  0  0  0  0  0  0  0  0  0  0
   39.7730   32.4940   40.9190 C   0  0  0  0  0  0  0  0  0  0  0  0
   40.0250   33.3150   41.5650 H   0  0  0  0  0  0  0  0  0  0  0  0
   40.5340   32.3470   39.9160 O   0  0  0  0  0  0  0  0  0  0  0  0
  1  3  1  0  0  0  0
  1 16  1  0  0  0  0
  2  1  2  0  0  0  0
  3  4  1  0  0  0  0
  5  6  1  0  0  0  0
  5  3  1  0  0  0  0
  6 13  1  0  0  0  0
  7 11  1  0  0  0  0
  7  6  2  0  0  0  0
  8  7  1  0  0  0  0
  9  8  2  0  0  0  0
  9 10  1  0  0  0  0
 10  5  2  0  0  0  0
 12  9  1  0  0  0  0
 13 14  1  0  0  0  0
 13 15  1  0  0  0  0
 18 19  1  0  0  0  0
 18 17  1  0  0  0  0
 19 16  1  0  0  0  0
 20 25  1  0  0  0  0
 20 19  2  0  0  0  0
 21 20  1  0  0  0  0
 22 21  2  0  0  0  0
 22 24  1  0  0  0  0
 23 22  1  0  0  0  0
 24 18  2  0  0  0  0
 26 21  1  0  0  0  0
 27 24  1  0  0  0  0
 27 28  1  0  0  0  0
 29 27  2  0  0  0  0
M  END
>  <minimizedAffinity>
-5.01626968

$$$$

 OpenBabel03252501393D

 29 30  0  0  0  0  0  0  0  0999 V2000
   37.0100   30.2930   40.1720 C   0  0  0  0  0  0  0  0  0  0  0  0
   37.7540   30.4920   39.1470 O   0  0  0  0  0  0  0  0  0  0  0  0
   37.2800   31.1930   41.2480 N   0  0  0  0  0  0  0  0  0  0  0  0
   36.7400   31.1520   42.1260 H   0  0  0  0  0  0  0  0  0  0  0  0
   38.3630   32.0700   40.8500 C   0  0  0  0  0  0  0  0  0  0  0  0
   38.2170   33.2370   40.1470 C   0  0  0  0  0  0  0  0  0  0  0  0
   39.3780   33.9340   39.8610 C   0  0  0  0  0  0  0  0  0  0  0  0
   40.5560   33.4240   40.2910 N   0  0  0  0  0  0  0  0  0  0  0  0
   40.6600   32.2740   40.9800 C   0  0  0  0  0  0  0  0  0  0  0  0
   39.5390   31.5630   41.2770 N   0  0  0  0  0  0  0  0  0  0  0  0
   39.2760   34.8530   39.3100 H   0  0  0  0  0  0  0  0  0  0  0  0
   41.6390   31.9310   41.2890 H   0  0  0  0  0  0  0  0  0  0  0  0
   36.9190   33.6160   39.7820 N   0  0  0  0  0  0  0  0  0  0  0  0
   36.5040   33.4020   38.8470 H   0  0  0  0  0  0  0  0  0  0  0  0
   36.3320   34.1460   40.4900 H   0  0  0  0  0  0  0  0  0  0  0  0
   36.0160   29.3040   40.2750 O   0  0  0  0  0  0  0  0  0  0  0  0
   36.0170   27.4320   38.0040 Cl  0  0  0  0  0  0  0  0  0  0  0  0
   36.4270   27.0570   39.6570 C   0  0  0  0  0  0  0  0  0  0  0  0
   36.3970   28.0140   40.6690 C   0  0  0  0  0  0  0  0  0  0  0  0
   36.7260   27.6820   41.9600 C   0  0  0  0  0  0  0  0  0  0  0  0
   37.0990   26.4010   42.3260 C   0  0  0  0  0  0  0  0  0  0  0  0
   37.1390   25.4150   41.3300 C   0  0  0  0  0  0  0  0  0  0  0  0
   37.6010   23.7680   41.7090 Cl  0  0  0  0  0  0  0  0  0  0  0  0
   36.8010   25.8000   40.0580 C   0  0  0  0  0  0  0  0  0  0  0  0
   36.6830   28.4730   42.7000 H   0  0  0  0  0  0  0  0  0  0  0  0
   37.3550   26.1580   43.3450 H   0  0  0  0  0  0  0  0  0  0  0  0
   36.8470   24.7620   39.0330 C   0  0  0  0  0  0  0  0  0  0  0  0
   37.6980   24.4890   38.4370 H   0  0  0  0  0  0  0  0  0  0  0  0
   35.7920   24.0990   38.7990 O   0  0  0  0  0  0  0  0  0  0  0  0
  1 16  1  0  0  0  0
  1  3  1  0  0  0  0
  2  1  2  0  0  0  0
  3  4  1  0  0  0  0
  5  3  1  0  0  0  0
  5 10  1  0  0  0  0
  6  5  2  0  0  0  0
  7  6  1  0  0  0  0
  7  8  2  0  0  0  0
  8  9  1  0  0  0  0
  9 10  2  0  0  0  0
  9 12  1  0  0  0  0
 11  7  1  0  0  0  0
 13  6  1  0  0  0  0
 13 15  1  0  0  0  0
 14 13  1  0  0  0  0
 16 19  1  0  0  0  0
 17 18  1  0  0  0  0
 18 24  2  0  0  0  0
 18 19  1  0  0  0  0
 19 20  2  0  0  0  0
 20 21  1  0  0  0  0
 20 25  1  0  0  0  0
 21 26  1  0  0  0  0
 22 23  1  0  0  0  0
 22 21  2  0  0  0  0
 24 22  1  0  0  0  0
 27 24  1  0  0  0  0
 28 27  1  0  0  0  0
 29 27  2  0  0  0  0
M  END
>  <minimizedAffinity>
-5.01534891

$$$$
