
 OpenBabel03252509333D

 34 35  0  0  1  0  0  0  0  0999 V2000
   34.8250   29.1260   39.6350 O   0  0  0  0  0  0  0  0  0  0  0  0
   35.8750   29.4790   40.6330 P   0  0  2  0  0  0  0  0  0  0  0  0
   35.5450   30.9100   41.4460 O   0  0  0  0  0  0  0  0  0  0  0  0
   35.7620   30.8680   42.3930 H   0  0  0  0  0  0  0  0  0  0  0  0
   37.3540   29.7300   39.8370 O   0  0  0  0  0  0  0  0  0  0  0  0
   37.2170   30.8040   39.0130 C   0  0  0  0  0  0  0  0  0  0  0  0
   37.2770   30.6610   37.9440 H   0  0  0  0  0  0  0  0  0  0  0  0
   36.1740   31.1980   39.1970 H   0  0  0  0  0  0  0  0  0  0  0  0
   38.4070   34.1610   40.0900 C   0  0  0  0  0  0  0  0  0  0  0  0
   37.5440   33.1120   39.7490 C   0  0  0  0  0  0  0  0  0  0  0  0
   38.1110   31.9080   39.3720 C   0  0  0  0  0  0  0  0  0  0  0  0
   39.4780   31.8080   39.3520 N   0  0  0  0  0  0  0  0  0  0  0  0
   40.2810   32.8390   39.6870 C   0  0  0  0  0  0  0  0  0  0  0  0
   39.7340   34.0050   40.0530 N   0  0  0  0  0  0  0  0  0  0  0  0
   37.9250   35.0790   40.3770 H   0  0  0  0  0  0  0  0  0  0  0  0
   36.4710   33.2220   39.7740 H   0  0  0  0  0  0  0  0  0  0  0  0
   41.3530   32.7490   39.6690 H   0  0  0  0  0  0  0  0  0  0  0  0
   36.0810   28.1910   41.6950 O   0  0  0  0  0  0  0  0  0  0  0  0
   37.4340   28.0610   42.0080 C   0  0  1  0  0  0  0  0  0  0  0  0
   37.7070   28.0260   43.4870 C   0  0  0  0  0  0  0  0  0  0  0  0
   39.1420   27.5340   43.5070 C   0  0  0  0  0  0  0  0  0  0  0  0
   39.3220   26.7050   42.2540 C   0  0  0  0  0  0  0  0  0  0  0  0
   37.9380   26.6780   41.5860 C   0  0  1  0  0  0  0  0  0  0  0  0
   38.0860   28.7940   41.5220 H   0  0  0  0  0  0  0  0  0  0  0  0
   37.0200   27.3900   44.0420 H   0  0  0  0  0  0  0  0  0  0  0  0
   37.7350   29.0690   43.8750 H   0  0  0  0  0  0  0  0  0  0  0  0
   39.8590   28.3720   43.5680 H   0  0  0  0  0  0  0  0  0  0  0  0
   39.2650   26.8450   44.3720 H   0  0  0  0  0  0  0  0  0  0  0  0
   39.9780   27.2890   41.5740 H   0  0  0  0  0  0  0  0  0  0  0  0
   39.7020   25.6930   42.4690 H   0  0  0  0  0  0  0  0  0  0  0  0
   38.0170   26.6650   40.4970 H   0  0  0  0  0  0  0  0  0  0  0  0
   37.0960   25.5870   42.0920 C   0  0  0  0  0  0  0  0  0  0  0  0
   36.0410   25.7170   42.2730 H   0  0  0  0  0  0  0  0  0  0  0  0
   37.6260   24.4890   42.3120 O   0  0  0  0  0  0  0  0  0  0  0  0
  2  1  2  6  0  0  0
  2  3  1  0  0  0  0
  2 18  1  0  0  0  0
  3  4  1  0  0  0  0
  5  2  1  0  0  0  0
  6  8  1  0  0  0  0
  6 11  1  0  0  0  0
  6  5  1  0  0  0  0
  7  6  1  0  0  0  0
  9 15  1  0  0  0  0
 10 16  1  0  0  0  0
 10  9  2  0  0  0  0
 11 10  1  0  0  0  0
 12 11  2  0  0  0  0
 12 13  1  0  0  0  0
 13 14  2  0  0  0  0
 14  9  1  0  0  0  0
 17 13  1  0  0  0  0
 18 19  1  0  0  0  0
 19 24  1  6  0  0  0
 19 20  1  0  0  0  0
 20 21  1  0  0  0  0
 20 26  1  0  0  0  0
 20 25  1  0  0  0  0
 21 27  1  0  0  0  0
 21 28  1  0  0  0  0
 22 30  1  0  0  0  0
 22 21  1  0  0  0  0
 23 31  1  6  0  0  0
 23 19  1  0  0  0  0
 23 32  1  0  0  0  0
 23 22  1  0  0  0  0
 29 22  1  0  0  0  0
 32 33  1  0  0  0  0
 32 34  2  0  0  0  0
M  END
>  <minimizedAffinity>
-5.08073902

$$$$

 OpenBabel03252509333D

 34 35  0  0  1  0  0  0  0  0999 V2000
   35.9780   30.0500   39.0370 O   0  0  0  0  0  0  0  0  0  0  0  0
   36.6380   30.7100   40.2010 P   0  0  2  0  0  0  0  0  0  0  0  0
   35.5640   31.0720   41.4380 O   0  0  0  0  0  0  0  0  0  0  0  0
   35.9310   30.9010   42.3220 H   0  0  0  0  0  0  0  0  0  0  0  0
   37.2970   32.1960   39.7110 O   0  0  0  0  0  0  0  0  0  0  0  0
   38.5060   32.3470   40.3190 C   0  0  0  0  0  0  0  0  0  0  0  0
   38.5930   33.0160   41.1620 H   0  0  0  0  0  0  0  0  0  0  0  0
   38.7710   31.3270   40.7260 H   0  0  0  0  0  0  0  0  0  0  0  0
   41.4010   34.0640   38.7320 C   0  0  0  0  0  0  0  0  0  0  0  0
   40.3810   33.7620   39.6430 C   0  0  0  0  0  0  0  0  0  0  0  0
   39.5760   32.6700   39.3720 C   0  0  0  0  0  0  0  0  0  0  0  0
   39.8200   31.9480   38.2330 N   0  0  0  0  0  0  0  0  0  0  0  0
   40.8120   32.2650   37.3760 C   0  0  0  0  0  0  0  0  0  0  0  0
   41.5920   33.3230   37.6370 N   0  0  0  0  0  0  0  0  0  0  0  0
   42.0020   34.9210   38.9810 H   0  0  0  0  0  0  0  0  0  0  0  0
   40.2140   34.3520   40.5320 H   0  0  0  0  0  0  0  0  0  0  0  0
   40.9940   31.6910   36.4850 H   0  0  0  0  0  0  0  0  0  0  0  0
   37.9050   29.7420   40.7360 O   0  0  0  0  0  0  0  0  0  0  0  0
   37.5190   29.0780   41.9000 C   0  0  1  0  0  0  0  0  0  0  0  0
   36.7440   27.8150   41.6410 C   0  0  0  0  0  0  0  0  0  0  0  0
   36.7840   27.1620   43.0100 C   0  0  0  0  0  0  0  0  0  0  0  0
   38.0510   27.6540   43.6760 C   0  0  0  0  0  0  0  0  0  0  0  0
   38.7510   28.5210   42.6190 C   0  0  1  0  0  0  0  0  0  0  0  0
   36.9880   29.7030   42.6270 H   0  0  0  0  0  0  0  0  0  0  0  0
   37.1690   27.1980   40.8510 H   0  0  0  0  0  0  0  0  0  0  0  0
   35.6780   28.0750   41.4560 H   0  0  0  0  0  0  0  0  0  0  0  0
   35.8780   27.3930   43.5970 H   0  0  0  0  0  0  0  0  0  0  0  0
   36.8960   26.0640   42.8720 H   0  0  0  0  0  0  0  0  0  0  0  0
   37.7390   28.3490   44.4840 H   0  0  0  0  0  0  0  0  0  0  0  0
   38.6900   26.8280   44.0290 H   0  0  0  0  0  0  0  0  0  0  0  0
   39.2840   29.3590   43.0740 H   0  0  0  0  0  0  0  0  0  0  0  0
   39.6170   27.7320   41.7340 C   0  0  0  0  0  0  0  0  0  0  0  0
   39.7850   28.0070   40.7050 H   0  0  0  0  0  0  0  0  0  0  0  0
   40.1670   26.7220   42.1970 O   0  0  0  0  0  0  0  0  0  0  0  0
  2  1  2  6  0  0  0
  2 18  1  0  0  0  0
  2  3  1  0  0  0  0
  3  4  1  0  0  0  0
  5  2  1  0  0  0  0
  5  6  1  0  0  0  0
  6  8  1  0  0  0  0
  6  7  1  0  0  0  0
  9 15  1  0  0  0  0
  9 10  1  0  0  0  0
 10 16  1  0  0  0  0
 11 10  2  0  0  0  0
 11  6  1  0  0  0  0
 12 11  1  0  0  0  0
 13 14  1  0  0  0  0
 13 12  2  0  0  0  0
 14  9  2  0  0  0  0
 17 13  1  0  0  0  0
 18 19  1  0  0  0  0
 19 23  1  0  0  0  0
 19 24  1  1  0  0  0
 20 19  1  0  0  0  0
 20 21  1  0  0  0  0
 21 27  1  0  0  0  0
 21 22  1  0  0  0  0
 22 30  1  0  0  0  0
 22 29  1  0  0  0  0
 23 31  1  1  0  0  0
 23 22  1  0  0  0  0
 25 20  1  0  0  0  0
 26 20  1  0  0  0  0
 28 21  1  0  0  0  0
 32 34  2  0  0  0  0
 32 23  1  0  0  0  0
 33 32  1  0  0  0  0
M  END
>  <minimizedAffinity>
-4.98388052

$$$$

 OpenBabel03252509333D

 34 35  0  0  1  0  0  0  0  0999 V2000
   34.7820   29.2870   39.8600 O   0  0  0  0  0  0  0  0  0  0  0  0
   36.0320   30.0430   40.1650 P   0  0  2  0  0  0  0  0  0  0  0  0
   35.8240   31.1780   41.3840 O   0  0  0  0  0  0  0  0  0  0  0  0
   36.5780   31.2170   41.9980 H   0  0  0  0  0  0  0  0  0  0  0  0
   36.5130   30.9210   38.7940 O   0  0  0  0  0  0  0  0  0  0  0  0
   37.8630   30.8060   38.6670 C   0  0  0  0  0  0  0  0  0  0  0  0
   38.3570   29.9250   39.0500 H   0  0  0  0  0  0  0  0  0  0  0  0
   38.0630   30.7940   37.5550 H   0  0  0  0  0  0  0  0  0  0  0  0
   40.6250   33.1610   39.4860 C   0  0  0  0  0  0  0  0  0  0  0  0
   39.9500   32.0340   39.0010 C   0  0  0  0  0  0  0  0  0  0  0  0
   38.5780   31.9810   39.1710 C   0  0  0  0  0  0  0  0  0  0  0  0
   37.9590   33.0280   39.8030 N   0  0  0  0  0  0  0  0  0  0  0  0
   38.6390   34.1000   40.2590 C   0  0  0  0  0  0  0  0  0  0  0  0
   39.9670   34.1530   40.0940 N   0  0  0  0  0  0  0  0  0  0  0  0
   41.6900   33.1620   39.3340 H   0  0  0  0  0  0  0  0  0  0  0  0
   40.4680   31.2250   38.5070 H   0  0  0  0  0  0  0  0  0  0  0  0
   38.1420   34.9160   40.7530 H   0  0  0  0  0  0  0  0  0  0  0  0
   37.2600   28.9530   40.5290 O   0  0  0  0  0  0  0  0  0  0  0  0
   36.7660   27.9690   41.3850 C   0  0  1  0  0  0  0  0  0  0  0  0
   37.4820   26.6520   41.2630 C   0  0  0  0  0  0  0  0  0  0  0  0
   36.9930   25.9360   42.5080 C   0  0  0  0  0  0  0  0  0  0  0  0
   36.6750   27.0170   43.5180 C   0  0  0  0  0  0  0  0  0  0  0  0
   37.0770   28.3350   42.8390 C   0  0  1  0  0  0  0  0  0  0  0  0
   35.6820   27.8150   41.3260 H   0  0  0  0  0  0  0  0  0  0  0  0
   38.5650   26.7480   41.2120 H   0  0  0  0  0  0  0  0  0  0  0  0
   37.0600   26.0890   40.4000 H   0  0  0  0  0  0  0  0  0  0  0  0
   36.1250   25.2890   42.2910 H   0  0  0  0  0  0  0  0  0  0  0  0
   37.8360   25.3410   42.9240 H   0  0  0  0  0  0  0  0  0  0  0  0
   35.5690   27.0490   43.6160 H   0  0  0  0  0  0  0  0  0  0  0  0
   37.1970   26.8650   44.4770 H   0  0  0  0  0  0  0  0  0  0  0  0
   36.4170   29.1560   43.1290 H   0  0  0  0  0  0  0  0  0  0  0  0
   38.4920   28.6630   43.0520 C   0  0  0  0  0  0  0  0  0  0  0  0
   39.2550   27.9020   43.0860 H   0  0  0  0  0  0  0  0  0  0  0  0
   38.8050   29.8540   43.1950 O   0  0  0  0  0  0  0  0  0  0  0  0
  2  1  2  6  0  0  0
  2 18  1  0  0  0  0
  2  3  1  0  0  0  0
  3  4  1  0  0  0  0
  5  2  1  0  0  0  0
  6  5  1  0  0  0  0
  6  7  1  0  0  0  0
  6 11  1  0  0  0  0
  8  6  1  0  0  0  0
  9 14  1  0  0  0  0
 10 11  1  0  0  0  0
 10  9  2  0  0  0  0
 11 12  2  0  0  0  0
 12 13  1  0  0  0  0
 13 17  1  0  0  0  0
 14 13  2  0  0  0  0
 15  9  1  0  0  0  0
 16 10  1  0  0  0  0
 18 19  1  0  0  0  0
 19 24  1  6  0  0  0
 19 23  1  0  0  0  0
 20 19  1  0  0  0  0
 20 21  1  0  0  0  0
 21 28  1  0  0  0  0
 21 22  1  0  0  0  0
 22 29  1  0  0  0  0
 22 30  1  0  0  0  0
 23 32  1  0  0  0  0
 23 31  1  1  0  0  0
 23 22  1  0  0  0  0
 25 20  1  0  0  0  0
 26 20  1  0  0  0  0
 27 21  1  0  0  0  0
 32 33  1  0  0  0  0
 32 34  2  0  0  0  0
M  END
>  <minimizedAffinity>
-4.96530533

$$$$

 OpenBabel03252509333D

 34 35  0  0  1  0  0  0  0  0999 V2000
   39.9140   29.5260   40.9770 O   0  0  0  0  0  0  0  0  0  0  0  0
   39.0830   30.3410   41.9110 P   0  0  2  0  0  0  0  0  0  0  0  0
   39.9090   31.6660   42.5270 O   0  0  0  0  0  0  0  0  0  0  0  0
   39.3570   32.4650   42.5800 H   0  0  0  0  0  0  0  0  0  0  0  0
   38.6520   29.3980   43.2550 O   0  0  0  0  0  0  0  0  0  0  0  0
   37.7740   28.4430   42.8430 C   0  0  0  0  0  0  0  0  0  0  0  0
   36.7900   28.4040   43.2850 H   0  0  0  0  0  0  0  0  0  0  0  0
   37.5940   28.6490   41.7460 H   0  0  0  0  0  0  0  0  0  0  0  0
   40.0300   25.6040   43.6770 C   0  0  0  0  0  0  0  0  0  0  0  0
   39.4910   26.8970   43.6380 C   0  0  0  0  0  0  0  0  0  0  0  0
   38.3450   27.0950   42.8890 C   0  0  0  0  0  0  0  0  0  0  0  0
   37.8030   26.0220   42.2300 N   0  0  0  0  0  0  0  0  0  0  0  0
   38.3480   24.7900   42.2890 C   0  0  0  0  0  0  0  0  0  0  0  0
   39.4570   24.5960   43.0140 N   0  0  0  0  0  0  0  0  0  0  0  0
   40.9210   25.4940   44.2700 H   0  0  0  0  0  0  0  0  0  0  0  0
   39.9430   27.7210   44.1690 H   0  0  0  0  0  0  0  0  0  0  0  0
   37.9140   23.9550   41.7670 H   0  0  0  0  0  0  0  0  0  0  0  0
   37.6640   30.7960   41.1320 O   0  0  0  0  0  0  0  0  0  0  0  0
   37.8160   30.6240   39.7560 C   0  0  1  0  0  0  0  0  0  0  0  0
   36.5380   30.2630   39.0510 C   0  0  0  0  0  0  0  0  0  0  0  0
   36.9280   30.4930   37.6030 C   0  0  0  0  0  0  0  0  0  0  0  0
   38.0070   31.5540   37.6200 C   0  0  0  0  0  0  0  0  0  0  0  0
   38.1460   31.9650   39.0940 C   0  0  1  0  0  0  0  0  0  0  0  0
   38.6130   29.9290   39.4690 H   0  0  0  0  0  0  0  0  0  0  0  0
   35.6820   30.8550   39.3710 H   0  0  0  0  0  0  0  0  0  0  0  0
   36.3650   29.1680   39.1510 H   0  0  0  0  0  0  0  0  0  0  0  0
   37.2580   29.5590   37.1170 H   0  0  0  0  0  0  0  0  0  0  0  0
   36.0540   30.9290   37.0690 H   0  0  0  0  0  0  0  0  0  0  0  0
   38.9590   31.0470   37.3530 H   0  0  0  0  0  0  0  0  0  0  0  0
   37.7680   32.4100   36.9680 H   0  0  0  0  0  0  0  0  0  0  0  0
   39.1770   32.2210   39.3450 H   0  0  0  0  0  0  0  0  0  0  0  0
   37.2060   33.0290   39.4670 C   0  0  0  0  0  0  0  0  0  0  0  0
   36.1380   32.8750   39.4600 H   0  0  0  0  0  0  0  0  0  0  0  0
   37.6650   34.1310   39.7970 O   0  0  0  0  0  0  0  0  0  0  0  0
  2  1  2  6  0  0  0
  2  3  1  0  0  0  0
  2  5  1  0  0  0  0
  3  4  1  0  0  0  0
  6 11  1  0  0  0  0
  6  5  1  0  0  0  0
  6  7  1  0  0  0  0
  8  6  1  0  0  0  0
  9 15  1  0  0  0  0
 10  9  1  0  0  0  0
 10 16  1  0  0  0  0
 11 10  2  0  0  0  0
 12 13  2  0  0  0  0
 12 11  1  0  0  0  0
 13 14  1  0  0  0  0
 14  9  2  0  0  0  0
 17 13  1  0  0  0  0
 18  2  1  0  0  0  0
 19 24  1  6  0  0  0
 19 18  1  0  0  0  0
 20 26  1  0  0  0  0
 20 25  1  0  0  0  0
 20 19  1  0  0  0  0
 21 22  1  0  0  0  0
 21 20  1  0  0  0  0
 22 23  1  0  0  0  0
 23 31  1  1  0  0  0
 23 32  1  0  0  0  0
 23 19  1  0  0  0  0
 27 21  1  0  0  0  0
 28 21  1  0  0  0  0
 29 22  1  0  0  0  0
 30 22  1  0  0  0  0
 32 34  2  0  0  0  0
 33 32  1  0  0  0  0
M  END
>  <minimizedAffinity>
-4.60643864

$$$$

 OpenBabel03252509333D

 34 35  0  0  1  0  0  0  0  0999 V2000
   37.9620   29.9940   42.2780 O   0  0  0  0  0  0  0  0  0  0  0  0
   36.8390   29.5960   41.3800 P   0  0  2  0  0  0  0  0  0  0  0  0
   35.6190   30.7470   41.3160 O   0  0  0  0  0  0  0  0  0  0  0  0
   35.2600   30.8690   40.4200 H   0  0  0  0  0  0  0  0  0  0  0  0
   36.1100   28.1830   41.9760 O   0  0  0  0  0  0  0  0  0  0  0  0
   36.8920   27.6890   42.9750 C   0  0  0  0  0  0  0  0  0  0  0  0
   37.5800   28.3490   43.4830 H   0  0  0  0  0  0  0  0  0  0  0  0
   36.1760   27.3390   43.7760 H   0  0  0  0  0  0  0  0  0  0  0  0
   37.6220   24.2180   41.8510 C   0  0  0  0  0  0  0  0  0  0  0  0
   36.9070   25.3600   42.2360 C   0  0  0  0  0  0  0  0  0  0  0  0
   37.6310   26.4900   42.5720 C   0  0  0  0  0  0  0  0  0  0  0  0
   38.9990   26.4300   42.5110 N   0  0  0  0  0  0  0  0  0  0  0  0
   39.6560   25.3140   42.1360 C   0  0  0  0  0  0  0  0  0  0  0  0
   38.9570   24.2190   41.8100 N   0  0  0  0  0  0  0  0  0  0  0  0
   37.0210   23.3620   41.5990 H   0  0  0  0  0  0  0  0  0  0  0  0
   35.8280   25.3740   42.2740 H   0  0  0  0  0  0  0  0  0  0  0  0
   40.7300   25.2780   42.0910 H   0  0  0  0  0  0  0  0  0  0  0  0
   37.4510   29.2480   39.8530 O   0  0  0  0  0  0  0  0  0  0  0  0
   37.8020   30.4360   39.2130 C   0  0  1  0  0  0  0  0  0  0  0  0
   39.2120   30.4430   38.6900 C   0  0  0  0  0  0  0  0  0  0  0  0
   39.1790   31.6540   37.7760 C   0  0  0  0  0  0  0  0  0  0  0  0
   37.7460   31.7910   37.3090 C   0  0  0  0  0  0  0  0  0  0  0  0
   37.0080   30.5860   37.9130 C   0  0  1  0  0  0  0  0  0  0  0  0
   37.6150   31.3420   39.8010 H   0  0  0  0  0  0  0  0  0  0  0  0
   39.4930   29.5220   38.1830 H   0  0  0  0  0  0  0  0  0  0  0  0
   39.9060   30.7050   39.5200 H   0  0  0  0  0  0  0  0  0  0  0  0
   39.5480   32.5600   38.2880 H   0  0  0  0  0  0  0  0  0  0  0  0
   39.7930   31.4300   36.8760 H   0  0  0  0  0  0  0  0  0  0  0  0
   37.3290   32.6880   37.8130 H   0  0  0  0  0  0  0  0  0  0  0  0
   37.6610   31.8240   36.2110 H   0  0  0  0  0  0  0  0  0  0  0  0
   35.9770   30.8350   38.1740 H   0  0  0  0  0  0  0  0  0  0  0  0
   37.0890   29.3960   37.0570 C   0  0  0  0  0  0  0  0  0  0  0  0
   38.0280   29.0360   36.6680 H   0  0  0  0  0  0  0  0  0  0  0  0
   36.0410   28.7960   36.7830 O   0  0  0  0  0  0  0  0  0  0  0  0
  2  5  1  0  0  0  0
  2  1  2  1  0  0  0
  3  2  1  0  0  0  0
  4  3  1  0  0  0  0
  5  6  1  0  0  0  0
  6  7  1  0  0  0  0
  6  8  1  0  0  0  0
  9 10  1  0  0  0  0
 10 16  1  0  0  0  0
 10 11  2  0  0  0  0
 11  6  1  0  0  0  0
 12 11  1  0  0  0  0
 13 12  2  0  0  0  0
 14  9  2  0  0  0  0
 14 13  1  0  0  0  0
 15  9  1  0  0  0  0
 17 13  1  0  0  0  0
 18  2  1  0  0  0  0
 19 24  1  1  0  0  0
 19 18  1  0  0  0  0
 20 19  1  0  0  0  0
 20 26  1  0  0  0  0
 21 27  1  0  0  0  0
 21 20  1  0  0  0  0
 22 21  1  0  0  0  0
 22 29  1  0  0  0  0
 22 23  1  0  0  0  0
 23 31  1  1  0  0  0
 23 19  1  0  0  0  0
 25 20  1  0  0  0  0
 28 21  1  0  0  0  0
 30 22  1  0  0  0  0
 32 23  1  0  0  0  0
 33 32  1  0  0  0  0
 34 32  2  0  0  0  0
M  END
>  <minimizedAffinity>
-4.57477713

$$$$

 OpenBabel03252509333D

 34 35  0  0  1  0  0  0  0  0999 V2000
   35.1610   27.9240   38.2960 O   0  0  0  0  0  0  0  0  0  0  0  0
   35.6550   28.9250   39.2860 P   0  0  2  0  0  0  0  0  0  0  0  0
   34.4570   29.4370   40.3450 O   0  0  0  0  0  0  0  0  0  0  0  0
   34.7750   29.5330   41.2590 H   0  0  0  0  0  0  0  0  0  0  0  0
   36.1780   30.3180   38.4710 O   0  0  0  0  0  0  0  0  0  0  0  0
   37.5380   30.3570   38.5230 C   0  0  0  0  0  0  0  0  0  0  0  0
   38.0760   29.5030   38.9060 H   0  0  0  0  0  0  0  0  0  0  0  0
   37.8800   30.4610   37.4500 H   0  0  0  0  0  0  0  0  0  0  0  0
   37.7210   33.8100   39.8960 C   0  0  0  0  0  0  0  0  0  0  0  0
   37.2300   32.6720   39.2440 C   0  0  0  0  0  0  0  0  0  0  0  0
   38.0420   31.5530   39.2020 C   0  0  0  0  0  0  0  0  0  0  0  0
   39.2750   31.6190   39.7970 N   0  0  0  0  0  0  0  0  0  0  0  0
   39.7180   32.7320   40.4180 C   0  0  0  0  0  0  0  0  0  0  0  0
   38.9320   33.8170   40.4590 N   0  0  0  0  0  0  0  0  0  0  0  0
   37.0580   34.6570   39.9040 H   0  0  0  0  0  0  0  0  0  0  0  0
   36.2530   32.6520   38.7840 H   0  0  0  0  0  0  0  0  0  0  0  0
   40.6870   32.7730   40.8820 H   0  0  0  0  0  0  0  0  0  0  0  0
   36.9780   28.2850   40.1030 O   0  0  0  0  0  0  0  0  0  0  0  0
   36.7570   28.3650   41.4770 C   0  0  1  0  0  0  0  0  0  0  0  0
   36.8260   27.0350   42.1760 C   0  0  0  0  0  0  0  0  0  0  0  0
   36.9070   27.4700   43.6270 C   0  0  0  0  0  0  0  0  0  0  0  0
   37.5590   28.8360   43.6220 C   0  0  0  0  0  0  0  0  0  0  0  0
   37.9130   29.1080   42.1520 C   0  0  1  0  0  0  0  0  0  0  0  0
   35.8380   28.8920   41.7610 H   0  0  0  0  0  0  0  0  0  0  0  0
   37.6660   26.4190   41.8580 H   0  0  0  0  0  0  0  0  0  0  0  0
   35.8470   26.5160   42.0650 H   0  0  0  0  0  0  0  0  0  0  0  0
   35.9120   27.4760   44.1060 H   0  0  0  0  0  0  0  0  0  0  0  0
   37.5990   26.7820   44.1610 H   0  0  0  0  0  0  0  0  0  0  0  0
   36.7690   29.5690   43.8870 H   0  0  0  0  0  0  0  0  0  0  0  0
   38.4420   28.8830   44.2800 H   0  0  0  0  0  0  0  0  0  0  0  0
   37.8230   30.1680   41.9060 H   0  0  0  0  0  0  0  0  0  0  0  0
   39.2280   28.5670   41.7850 C   0  0  0  0  0  0  0  0  0  0  0  0
   39.4140   28.1280   40.8180 H   0  0  0  0  0  0  0  0  0  0  0  0
   40.1410   28.6230   42.6200 O   0  0  0  0  0  0  0  0  0  0  0  0
  2  1  2  6  0  0  0
  2 18  1  0  0  0  0
  2  3  1  0  0  0  0
  3  4  1  0  0  0  0
  5  6  1  0  0  0  0
  5  2  1  0  0  0  0
  6  7  1  0  0  0  0
  6 11  1  0  0  0  0
  8  6  1  0  0  0  0
  9 15  1  0  0  0  0
  9 14  1  0  0  0  0
 10  9  2  0  0  0  0
 11 10  1  0  0  0  0
 11 12  2  0  0  0  0
 12 13  1  0  0  0  0
 13 14  2  0  0  0  0
 13 17  1  0  0  0  0
 16 10  1  0  0  0  0
 18 19  1  0  0  0  0
 19 24  1  1  0  0  0
 19 23  1  0  0  0  0
 19 20  1  0  0  0  0
 20 21  1  0  0  0  0
 21 27  1  0  0  0  0
 21 28  1  0  0  0  0
 22 21  1  0  0  0  0
 22 29  1  0  0  0  0
 22 30  1  0  0  0  0
 23 31  1  6  0  0  0
 23 22  1  0  0  0  0
 25 20  1  0  0  0  0
 26 20  1  0  0  0  0
 32 23  1  0  0  0  0
 32 34  2  0  0  0  0
 33 32  1  0  0  0  0
M  END
>  <minimizedAffinity>
-4.56968355

$$$$

 OpenBabel03252509333D

 34 35  0  0  1  0  0  0  0  0999 V2000
   37.1400   29.2110   42.5120 O   0  0  0  0  0  0  0  0  0  0  0  0
   36.6800   29.4220   41.1090 P   0  0  2  0  0  0  0  0  0  0  0  0
   35.2050   30.2180   41.0220 O   0  0  0  0  0  0  0  0  0  0  0  0
   35.1710   30.8760   40.3060 H   0  0  0  0  0  0  0  0  0  0  0  0
   36.4400   27.9190   40.3590 O   0  0  0  0  0  0  0  0  0  0  0  0
   37.6590   27.3960   40.0510 C   0  0  0  0  0  0  0  0  0  0  0  0
   38.0650   27.5510   39.0630 H   0  0  0  0  0  0  0  0  0  0  0  0
   38.3900   27.8990   40.7500 H   0  0  0  0  0  0  0  0  0  0  0  0
   37.3250   24.1560   41.8500 C   0  0  0  0  0  0  0  0  0  0  0  0
   37.2300   25.5240   41.5620 C   0  0  0  0  0  0  0  0  0  0  0  0
   37.7540   25.9670   40.3610 C   0  0  0  0  0  0  0  0  0  0  0  0
   38.3350   25.0500   39.5250 N   0  0  0  0  0  0  0  0  0  0  0  0
   38.4110   23.7390   39.8330 C   0  0  0  0  0  0  0  0  0  0  0  0
   37.9030   23.3080   40.9950 N   0  0  0  0  0  0  0  0  0  0  0  0
   36.9060   23.8540   42.7940 H   0  0  0  0  0  0  0  0  0  0  0  0
   36.7660   26.2210   42.2430 H   0  0  0  0  0  0  0  0  0  0  0  0
   38.8700   23.0280   39.1690 H   0  0  0  0  0  0  0  0  0  0  0  0
   37.8790   30.2330   40.2530 O   0  0  0  0  0  0  0  0  0  0  0  0
   37.7270   31.6080   40.4330 C   0  0  1  0  0  0  0  0  0  0  0  0
   39.0290   32.3360   40.6220 C   0  0  0  0  0  0  0  0  0  0  0  0
   38.5890   33.7760   40.4340 C   0  0  0  0  0  0  0  0  0  0  0  0
   37.3830   33.7320   39.5200 C   0  0  0  0  0  0  0  0  0  0  0  0
   37.2180   32.2520   39.1410 C   0  0  1  0  0  0  0  0  0  0  0  0
   37.0210   31.8880   41.2230 H   0  0  0  0  0  0  0  0  0  0  0  0
   39.8080   32.0240   39.9280 H   0  0  0  0  0  0  0  0  0  0  0  0
   39.3420   32.2480   41.6870 H   0  0  0  0  0  0  0  0  0  0  0  0
   38.3730   34.2650   41.3990 H   0  0  0  0  0  0  0  0  0  0  0  0
   39.3910   34.3190   39.8860 H   0  0  0  0  0  0  0  0  0  0  0  0
   36.5000   33.9880   40.1430 H   0  0  0  0  0  0  0  0  0  0  0  0
   37.5000   34.3790   38.6360 H   0  0  0  0  0  0  0  0  0  0  0  0
   36.1670   31.9820   39.0200 H   0  0  0  0  0  0  0  0  0  0  0  0
   38.0200   31.8850   37.9680 C   0  0  0  0  0  0  0  0  0  0  0  0
   39.0610   32.1530   37.8820 H   0  0  0  0  0  0  0  0  0  0  0  0
   37.4730   31.2470   37.0570 O   0  0  0  0  0  0  0  0  0  0  0  0
  2  1  2  1  0  0  0
  3  2  1  0  0  0  0
  4  3  1  0  0  0  0
  5  2  1  0  0  0  0
  6  5  1  0  0  0  0
  6 11  1  0  0  0  0
  6  8  1  0  0  0  0
  7  6  1  0  0  0  0
  9 15  1  0  0  0  0
 10  9  1  0  0  0  0
 10 16  1  0  0  0  0
 11 10  2  0  0  0  0
 12 13  2  0  0  0  0
 12 11  1  0  0  0  0
 13 14  1  0  0  0  0
 14  9  2  0  0  0  0
 17 13  1  0  0  0  0
 18 19  1  0  0  0  0
 18  2  1  0  0  0  0
 19 20  1  0  0  0  0
 19 24  1  1  0  0  0
 20 26  1  0  0  0  0
 21 20  1  0  0  0  0
 21 27  1  0  0  0  0
 22 29  1  0  0  0  0
 22 21  1  0  0  0  0
 23 31  1  6  0  0  0
 23 22  1  0  0  0  0
 23 19  1  0  0  0  0
 25 20  1  0  0  0  0
 28 21  1  0  0  0  0
 30 22  1  0  0  0  0
 32 23  1  0  0  0  0
 33 32  1  0  0  0  0
 34 32  2  0  0  0  0
M  END
>  <minimizedAffinity>
-4.45337582

$$$$

 OpenBabel03252509333D

 34 35  0  0  1  0  0  0  0  0999 V2000
   37.4040   28.3980   43.6760 O   0  0  0  0  0  0  0  0  0  0  0  0
   38.2570   28.6650   42.4810 P   0  0  2  0  0  0  0  0  0  0  0  0
   39.5090   29.7360   42.8020 O   0  0  0  0  0  0  0  0  0  0  0  0
   40.3430   29.4830   42.3710 H   0  0  0  0  0  0  0  0  0  0  0  0
   37.3210   29.3990   41.2700 O   0  0  0  0  0  0  0  0  0  0  0  0
   38.1610   29.8650   40.3050 C   0  0  0  0  0  0  0  0  0  0  0  0
   39.1880   29.5310   40.2930 H   0  0  0  0  0  0  0  0  0  0  0  0
   37.7260   29.5080   39.3250 H   0  0  0  0  0  0  0  0  0  0  0  0
   37.2190   33.3280   39.3240 C   0  0  0  0  0  0  0  0  0  0  0  0
   37.2130   31.9300   39.4050 C   0  0  0  0  0  0  0  0  0  0  0  0
   38.1590   31.3270   40.2150 C   0  0  0  0  0  0  0  0  0  0  0  0
   39.0440   32.1270   40.8900 N   0  0  0  0  0  0  0  0  0  0  0  0
   39.0220   33.4720   40.7910 C   0  0  0  0  0  0  0  0  0  0  0  0
   38.1070   34.0570   40.0070 N   0  0  0  0  0  0  0  0  0  0  0  0
   36.4690   33.7560   38.6830 H   0  0  0  0  0  0  0  0  0  0  0  0
   36.5020   31.3280   38.8590 H   0  0  0  0  0  0  0  0  0  0  0  0
   39.7210   34.0890   41.3260 H   0  0  0  0  0  0  0  0  0  0  0  0
   38.8240   27.2040   41.8720 O   0  0  0  0  0  0  0  0  0  0  0  0
   37.7420   26.3770   41.5700 C   0  0  1  0  0  0  0  0  0  0  0  0
   37.7240   25.9090   40.1410 C   0  0  0  0  0  0  0  0  0  0  0  0
   36.6960   24.7960   40.2110 C   0  0  0  0  0  0  0  0  0  0  0  0
   36.7470   24.2630   41.6270 C   0  0  0  0  0  0  0  0  0  0  0  0
   37.8780   25.0450   42.3120 C   0  0  1  0  0  0  0  0  0  0  0  0
   36.7640   26.7890   41.8430 H   0  0  0  0  0  0  0  0  0  0  0  0
   38.6970   25.5820   39.7780 H   0  0  0  0  0  0  0  0  0  0  0  0
   37.2730   26.7030   39.5050 H   0  0  0  0  0  0  0  0  0  0  0  0
   35.6910   25.1520   39.9260 H   0  0  0  0  0  0  0  0  0  0  0  0
   37.0270   23.9700   39.5420 H   0  0  0  0  0  0  0  0  0  0  0  0
   35.8080   24.5870   42.1240 H   0  0  0  0  0  0  0  0  0  0  0  0
   36.9100   23.1740   41.6620 H   0  0  0  0  0  0  0  0  0  0  0  0
   37.6640   25.2220   43.3670 H   0  0  0  0  0  0  0  0  0  0  0  0
   39.1900   24.4150   42.1130 C   0  0  0  0  0  0  0  0  0  0  0  0
   39.5870   24.2210   41.1290 H   0  0  0  0  0  0  0  0  0  0  0  0
   39.8510   24.1040   43.1140 O   0  0  0  0  0  0  0  0  0  0  0  0
  2  3  1  0  0  0  0
  2  1  2  1  0  0  0
  4  3  1  0  0  0  0
  5  2  1  0  0  0  0
  6  5  1  0  0  0  0
  7  6  1  0  0  0  0
  8  6  1  0  0  0  0
  9 10  2  0  0  0  0
  9 14  1  0  0  0  0
 10 11  1  0  0  0  0
 11  6  1  0  0  0  0
 11 12  2  0  0  0  0
 13 12  1  0  0  0  0
 13 17  1  0  0  0  0
 14 13  2  0  0  0  0
 15  9  1  0  0  0  0
 16 10  1  0  0  0  0
 18  2  1  0  0  0  0
 19 24  1  1  0  0  0
 19 18  1  0  0  0  0
 19 23  1  0  0  0  0
 20 21  1  0  0  0  0
 20 19  1  0  0  0  0
 21 22  1  0  0  0  0
 22 30  1  0  0  0  0
 22 29  1  0  0  0  0
 22 23  1  0  0  0  0
 23 31  1  1  0  0  0
 25 20  1  0  0  0  0
 26 20  1  0  0  0  0
 27 21  1  0  0  0  0
 28 21  1  0  0  0  0
 32 23  1  0  0  0  0
 32 34  2  0  0  0  0
 33 32  1  0  0  0  0
M  END
>  <minimizedAffinity>
-4.40847683

$$$$

 OpenBabel03252509333D

 34 35  0  0  1  0  0  0  0  0999 V2000
   37.2680   31.5650   38.4250 O   0  0  0  0  0  0  0  0  0  0  0  0
   37.3750   32.0160   39.8430 P   0  0  2  0  0  0  0  0  0  0  0  0
   36.9820   33.6350   40.0420 O   0  0  0  0  0  0  0  0  0  0  0  0
   36.4600   33.8020   40.8450 H   0  0  0  0  0  0  0  0  0  0  0  0
   38.9830   31.8630   40.3660 O   0  0  0  0  0  0  0  0  0  0  0  0
   39.6870   31.2170   39.3960 C   0  0  0  0  0  0  0  0  0  0  0  0
   40.2000   30.2980   39.6390 H   0  0  0  0  0  0  0  0  0  0  0  0
   38.9290   30.9290   38.6100 H   0  0  0  0  0  0  0  0  0  0  0  0
   42.1770   32.4630   36.9280 C   0  0  0  0  0  0  0  0  0  0  0  0
   41.2720   31.6150   37.5780 C   0  0  0  0  0  0  0  0  0  0  0  0
   40.6360   32.0970   38.7080 C   0  0  0  0  0  0  0  0  0  0  0  0
   40.9250   33.3690   39.1270 N   0  0  0  0  0  0  0  0  0  0  0  0
   41.8030   34.1610   38.4760 C   0  0  0  0  0  0  0  0  0  0  0  0
   42.4190   33.6960   37.3820 N   0  0  0  0  0  0  0  0  0  0  0  0
   42.6500   32.0490   36.0540 H   0  0  0  0  0  0  0  0  0  0  0  0
   41.0660   30.6160   37.2230 H   0  0  0  0  0  0  0  0  0  0  0  0
   42.0220   35.1580   38.8140 H   0  0  0  0  0  0  0  0  0  0  0  0
   36.4280   31.0180   40.8100 O   0  0  0  0  0  0  0  0  0  0  0  0
   36.8590   29.6990   40.6760 C   0  0  1  0  0  0  0  0  0  0  0  0
   36.6130   28.8600   41.9000 C   0  0  0  0  0  0  0  0  0  0  0  0
   36.8380   27.4640   41.3480 C   0  0  0  0  0  0  0  0  0  0  0  0
   36.4960   27.5330   39.8750 C   0  0  0  0  0  0  0  0  0  0  0  0
   35.9970   28.9680   39.6430 C   0  0  1  0  0  0  0  0  0  0  0  0
   37.8990   29.5910   40.3490 H   0  0  0  0  0  0  0  0  0  0  0  0
   35.6250   29.0020   42.3340 H   0  0  0  0  0  0  0  0  0  0  0  0
   37.4330   29.0360   42.6310 H   0  0  0  0  0  0  0  0  0  0  0  0
   37.8700   27.1170   41.5280 H   0  0  0  0  0  0  0  0  0  0  0  0
   36.1010   26.7770   41.8200 H   0  0  0  0  0  0  0  0  0  0  0  0
   37.4530   27.4490   39.3190 H   0  0  0  0  0  0  0  0  0  0  0  0
   35.7480   26.7790   39.5800 H   0  0  0  0  0  0  0  0  0  0  0  0
   36.2730   29.3350   38.6530 H   0  0  0  0  0  0  0  0  0  0  0  0
   34.5590   29.1070   39.9030 C   0  0  0  0  0  0  0  0  0  0  0  0
   34.1700   29.2490   40.8990 H   0  0  0  0  0  0  0  0  0  0  0  0
   33.7800   29.0590   38.9410 O   0  0  0  0  0  0  0  0  0  0  0  0
  2  1  2  6  0  0  0
  2  3  1  0  0  0  0
  2  5  1  0  0  0  0
  2 18  1  0  0  0  0
  3  4  1  0  0  0  0
  6  7  1  0  0  0  0
  6  5  1  0  0  0  0
  8  6  1  0  0  0  0
  9 14  2  0  0  0  0
  9 10  1  0  0  0  0
 10 11  2  0  0  0  0
 11 12  1  0  0  0  0
 11  6  1  0  0  0  0
 13 17  1  0  0  0  0
 13 12  2  0  0  0  0
 14 13  1  0  0  0  0
 15  9  1  0  0  0  0
 16 10  1  0  0  0  0
 19 24  1  6  0  0  0
 19 18  1  0  0  0  0
 19 20  1  0  0  0  0
 20 25  1  0  0  0  0
 20 26  1  0  0  0  0
 21 27  1  0  0  0  0
 21 28  1  0  0  0  0
 21 20  1  0  0  0  0
 22 21  1  0  0  0  0
 23 31  1  6  0  0  0
 23 22  1  0  0  0  0
 23 32  1  0  0  0  0
 23 19  1  0  0  0  0
 29 22  1  0  0  0  0
 30 22  1  0  0  0  0
 32 33  1  0  0  0  0
 34 32  2  0  0  0  0
M  END
>  <minimizedAffinity>
-4.35760164

$$$$
