
 OpenBabel03252509333D

 34 35  0  0  1  0  0  0  0  0999 V2000
   44.6400   35.2590   45.0760 O   0  0  0  0  0  0  0  0  0  0  0  0
   45.4690   34.2100   44.4160 P   0  0  2  0  0  0  0  0  0  0  0  0
   44.5490   32.9570   43.7830 O   0  0  0  0  0  0  0  0  0  0  0  0
   44.8700   32.6510   42.9170 H   0  0  0  0  0  0  0  0  0  0  0  0
   46.4970   33.4950   45.5630 O   0  0  0  0  0  0  0  0  0  0  0  0
   46.2900   32.1500   45.5410 C   0  0  0  0  0  0  0  0  0  0  0  0
   45.6120   31.7310   44.8120 H   0  0  0  0  0  0  0  0  0  0  0  0
   47.2950   31.6920   45.3040 H   0  0  0  0  0  0  0  0  0  0  0  0
   45.6830   31.9290   49.2060 C   0  0  0  0  0  0  0  0  0  0  0  0
   46.0320   32.4500   47.9530 C   0  0  0  0  0  0  0  0  0  0  0  0
   45.9260   31.6140   46.8560 C   0  0  0  0  0  0  0  0  0  0  0  0
   45.4890   30.3300   47.0530 N   0  0  0  0  0  0  0  0  0  0  0  0
   45.1600   29.8600   48.2740 C   0  0  0  0  0  0  0  0  0  0  0  0
   45.2620   30.6680   49.3380 N   0  0  0  0  0  0  0  0  0  0  0  0
   45.7800   32.6120   50.0310 H   0  0  0  0  0  0  0  0  0  0  0  0
   46.3740   33.4670   47.8310 H   0  0  0  0  0  0  0  0  0  0  0  0
   44.8180   28.8510   48.4180 H   0  0  0  0  0  0  0  0  0  0  0  0
   46.4370   34.9290   43.2430 O   0  0  0  0  0  0  0  0  0  0  0  0
   46.6740   34.0160   42.2160 C   0  0  1  0  0  0  0  0  0  0  0  0
   45.9590   34.3530   40.9370 C   0  0  0  0  0  0  0  0  0  0  0  0
   46.6660   33.4360   39.9560 C   0  0  0  0  0  0  0  0  0  0  0  0
   48.0590   33.2210   40.5090 C   0  0  0  0  0  0  0  0  0  0  0  0
   48.1350   34.1030   41.7650 C   0  0  1  0  0  0  0  0  0  0  0  0
   46.4910   32.9700   42.4850 H   0  0  0  0  0  0  0  0  0  0  0  0
   46.0190   35.4060   40.6690 H   0  0  0  0  0  0  0  0  0  0  0  0
   44.9110   33.9840   40.9990 H   0  0  0  0  0  0  0  0  0  0  0  0
   46.1150   32.4900   39.8140 H   0  0  0  0  0  0  0  0  0  0  0  0
   46.7810   33.9770   38.9900 H   0  0  0  0  0  0  0  0  0  0  0  0
   48.1030   32.1720   40.8690 H   0  0  0  0  0  0  0  0  0  0  0  0
   48.8460   33.4680   39.7780 H   0  0  0  0  0  0  0  0  0  0  0  0
   48.7550   33.6480   42.5400 H   0  0  0  0  0  0  0  0  0  0  0  0
   48.5540   35.4760   41.4580 C   0  0  0  0  0  0  0  0  0  0  0  0
   48.0130   36.0960   40.7610 H   0  0  0  0  0  0  0  0  0  0  0  0
   49.5630   35.9230   42.0230 O   0  0  0  0  0  0  0  0  0  0  0  0
  2  1  2  1  0  0  0
  2  5  1  0  0  0  0
  3  2  1  0  0  0  0
  4  3  1  0  0  0  0
  6  5  1  0  0  0  0
  6 11  1  0  0  0  0
  7  6  1  0  0  0  0
  8  6  1  0  0  0  0
  9 14  1  0  0  0  0
  9 15  1  0  0  0  0
 10  9  2  0  0  0  0
 11 12  2  0  0  0  0
 11 10  1  0  0  0  0
 12 13  1  0  0  0  0
 13 17  1  0  0  0  0
 13 14  2  0  0  0  0
 16 10  1  0  0  0  0
 18  2  1  0  0  0  0
 19 24  1  1  0  0  0
 19 18  1  0  0  0  0
 20 26  1  0  0  0  0
 20 19  1  0  0  0  0
 21 22  1  0  0  0  0
 21 20  1  0  0  0  0
 22 29  1  0  0  0  0
 22 23  1  0  0  0  0
 23 19  1  0  0  0  0
 23 31  1  1  0  0  0
 25 20  1  0  0  0  0
 27 21  1  0  0  0  0
 28 21  1  0  0  0  0
 30 22  1  0  0  0  0
 32 23  1  0  0  0  0
 32 34  2  0  0  0  0
 33 32  1  0  0  0  0
M  END
>  <minimizedAffinity>
-4.9341507

>  <minimizedRMSD>
0.828941941

$$$$
