
 OpenBabel03252502463D

 39 41  0  0  1  0  0  0  0  0999 V2000
   48.9950   34.7860   41.5080 C   0  0  1  0  0  0  0  0  0  0  0  0
   50.0790   34.7800   42.5250 C   0  0  0  0  0  0  0  0  0  0  0  0
   49.3430   33.5420   42.1870 C   0  0  2  0  0  0  0  0  0  0  0  0
   49.2730   34.9810   40.4770 H   0  0  0  0  0  0  0  0  0  0  0  0
   51.1310   34.9580   42.1870 H   0  0  0  0  0  0  0  0  0  0  0  0
   49.8770   35.3470   43.4690 H   0  0  0  0  0  0  0  0  0  0  0  0
   48.7840   33.1010   43.0120 H   0  0  0  0  0  0  0  0  0  0  0  0
   50.1320   32.6350   41.3600 N   0  0  0  0  0  0  0  0  0  0  0  0
   49.4730   32.1780   40.1910 C   0  0  0  0  0  0  0  0  0  0  0  0
   50.4630   31.2650   39.4910 C   0  0  0  0  0  0  0  0  0  0  0  0
   50.7520   30.1140   40.2890 N   0  0  0  0  0  0  0  0  0  0  0  0
   50.6530   30.3350   41.7090 C   0  0  0  0  0  0  0  0  0  0  0  0
   51.0100   31.7810   42.0370 C   0  0  0  0  0  0  0  0  0  0  0  0
   48.5480   31.5790   40.3950 H   0  0  0  0  0  0  0  0  0  0  0  0
   49.2260   33.0240   39.5280 H   0  0  0  0  0  0  0  0  0  0  0  0
   51.4070   31.8450   39.3700 H   0  0  0  0  0  0  0  0  0  0  0  0
   50.1180   30.9890   38.4880 H   0  0  0  0  0  0  0  0  0  0  0  0
   51.5910   29.6120   39.9780 H   0  0  0  0  0  0  0  0  0  0  0  0
   51.3900   29.6700   42.2230 H   0  0  0  0  0  0  0  0  0  0  0  0
   49.6120   30.1470   42.0650 H   0  0  0  0  0  0  0  0  0  0  0  0
   52.0600   31.9520   41.7100 H   0  0  0  0  0  0  0  0  0  0  0  0
   50.9530   31.8990   43.1540 H   0  0  0  0  0  0  0  0  0  0  0  0
   47.6960   35.4250   41.8980 C   0  0  0  0  0  0  0  0  0  0  0  0
   47.3410   36.1830   41.1460 H   0  0  0  0  0  0  0  0  0  0  0  0
   47.8370   35.9920   42.8380 H   0  0  0  0  0  0  0  0  0  0  0  0
   46.7090   34.3130   42.1000 C   0  0  0  0  0  0  0  0  0  0  0  0
   45.8890   34.4720   41.3400 H   0  0  0  0  0  0  0  0  0  0  0  0
   47.0540   33.3040   41.9400 H   0  0  0  0  0  0  0  0  0  0  0  0
   44.5230   35.8550   44.7210 C   0  0  0  0  0  0  0  0  0  0  0  0
   45.1850   35.6360   43.4900 C   0  0  0  0  0  0  0  0  0  0  0  0
   46.0080   34.5420   43.4080 C   0  0  0  0  0  0  0  0  0  0  0  0
   46.1590   33.7260   44.4800 N   0  0  0  0  0  0  0  0  0  0  0  0
   45.5370   33.9400   45.6210 C   0  0  0  0  0  0  0  0  0  0  0  0
   44.7240   34.9880   45.7560 N   0  0  0  0  0  0  0  0  0  0  0  0
   43.8590   36.7000   44.8520 H   0  0  0  0  0  0  0  0  0  0  0  0
   45.0030   36.3410   42.6920 H   0  0  0  0  0  0  0  0  0  0  0  0
   45.7810   32.9900   46.6990 C   0  0  0  0  0  0  0  0  0  0  0  0
   46.5510   32.2450   46.7440 H   0  0  0  0  0  0  0  0  0  0  0  0
   45.0470   33.0000   47.7010 O   0  0  0  0  0  0  0  0  0  0  0  0
  1  4  1  6  0  0  0
  1 23  1  0  0  0  0
  1  3  1  0  0  0  0
  1  2  1  0  0  0  0
  2  6  1  0  0  0  0
  3  2  1  0  0  0  0
  3  7  1  1  0  0  0
  5  2  1  0  0  0  0
  8 13  1  0  0  0  0
  8  3  1  0  0  0  0
  9 14  1  0  0  0  0
  9  8  1  0  0  0  0
 10  9  1  0  0  0  0
 10 11  1  0  0  0  0
 11 12  1  0  0  0  0
 12 13  1  0  0  0  0
 12 20  1  0  0  0  0
 12 19  1  0  0  0  0
 13 22  1  0  0  0  0
 15  9  1  0  0  0  0
 16 10  1  0  0  0  0
 17 10  1  0  0  0  0
 18 11  1  0  0  0  0
 21 13  1  0  0  0  0
 23 26  1  0  0  0  0
 23 25  1  0  0  0  0
 24 23  1  0  0  0  0
 26 31  1  0  0  0  0
 27 26  1  0  0  0  0
 28 26  1  0  0  0  0
 29 35  1  0  0  0  0
 29 34  1  0  0  0  0
 30 29  2  0  0  0  0
 31 30  1  0  0  0  0
 31 32  2  0  0  0  0
 32 33  1  0  0  0  0
 33 34  2  0  0  0  0
 33 37  1  0  0  0  0
 36 30  1  0  0  0  0
 37 38  1  0  0  0  0
 37 39  2  0  0  0  0
M  END
>  <minimizedAffinity>
-4.9860158

>  <minimizedRMSD>
0.0558198392

$$$$
