
 OpenBabel03252501363D

 29 30  0  0  0  0  0  0  0  0999 V2000
   44.3290   34.9290   42.0160 C   0  0  0  0  0  0  0  0  0  0  0  0
   44.1130   33.7110   42.3510 O   0  0  0  0  0  0  0  0  0  0  0  0
   45.2900   35.5830   42.8470 N   0  0  0  0  0  0  0  0  0  0  0  0
   45.5660   36.5610   42.6740 H   0  0  0  0  0  0  0  0  0  0  0  0
   45.7250   34.6470   43.8640 C   0  0  0  0  0  0  0  0  0  0  0  0
   45.2180   34.5690   45.1350 C   0  0  0  0  0  0  0  0  0  0  0  0
   45.7700   33.6060   45.9620 C   0  0  0  0  0  0  0  0  0  0  0  0
   46.7550   32.8210   45.4650 N   0  0  0  0  0  0  0  0  0  0  0  0
   47.2270   32.9260   44.2100 C   0  0  0  0  0  0  0  0  0  0  0  0
   46.7070   33.8630   43.3710 N   0  0  0  0  0  0  0  0  0  0  0  0
   45.3790   33.5350   46.9620 H   0  0  0  0  0  0  0  0  0  0  0  0
   48.0160   32.2610   43.8860 H   0  0  0  0  0  0  0  0  0  0  0  0
   44.1970   35.4640   45.4820 N   0  0  0  0  0  0  0  0  0  0  0  0
   44.3740   36.3680   45.9750 H   0  0  0  0  0  0  0  0  0  0  0  0
   43.1990   35.2090   45.2290 H   0  0  0  0  0  0  0  0  0  0  0  0
   43.7070   35.5990   40.9470 O   0  0  0  0  0  0  0  0  0  0  0  0
   43.6970   33.6900   38.7070 Cl  0  0  0  0  0  0  0  0  0  0  0  0
   42.3000   34.3230   39.5380 C   0  0  0  0  0  0  0  0  0  0  0  0
   42.4040   35.2270   40.5930 C   0  0  0  0  0  0  0  0  0  0  0  0
   41.2810   35.7030   41.2240 C   0  0  0  0  0  0  0  0  0  0  0  0
   40.0040   35.3210   40.8570 C   0  0  0  0  0  0  0  0  0  0  0  0
   39.8650   34.4120   39.7980 C   0  0  0  0  0  0  0  0  0  0  0  0
   38.2820   33.8770   39.2700 Cl  0  0  0  0  0  0  0  0  0  0  0  0
   41.0180   33.9680   39.2030 C   0  0  0  0  0  0  0  0  0  0  0  0
   41.4320   36.4040   42.0370 H   0  0  0  0  0  0  0  0  0  0  0  0
   39.1330   35.7050   41.3630 H   0  0  0  0  0  0  0  0  0  0  0  0
   40.8560   33.0220   38.1030 C   0  0  0  0  0  0  0  0  0  0  0  0
   40.7180   33.2640   37.0650 H   0  0  0  0  0  0  0  0  0  0  0  0
   40.8780   31.7820   38.3670 O   0  0  0  0  0  0  0  0  0  0  0  0
  1  2  2  0  0  0  0
  1  3  1  0  0  0  0
  3  5  1  0  0  0  0
  4  3  1  0  0  0  0
  5  6  1  0  0  0  0
  6 13  1  0  0  0  0
  6  7  2  0  0  0  0
  7 11  1  0  0  0  0
  8  7  1  0  0  0  0
  9  8  2  0  0  0  0
 10  5  2  0  0  0  0
 10  9  1  0  0  0  0
 12  9  1  0  0  0  0
 13 14  1  0  0  0  0
 15 13  1  0  0  0  0
 16  1  1  0  0  0  0
 17 18  1  0  0  0  0
 18 19  1  0  0  0  0
 19 16  1  0  0  0  0
 19 20  2  0  0  0  0
 20 25  1  0  0  0  0
 21 20  1  0  0  0  0
 21 26  1  0  0  0  0
 22 21  2  0  0  0  0
 23 22  1  0  0  0  0
 24 18  2  0  0  0  0
 24 22  1  0  0  0  0
 27 29  2  0  0  0  0
 27 24  1  0  0  0  0
 28 27  1  0  0  0  0
M  END
>  <minimizedAffinity>
-5.88142347

>  <minimizedRMSD>
0.357773453

$$$$
