
 OpenBabel03252507143D

 36 37  0  0  1  0  0  0  0  0999 V2000
   38.7830   29.1440   41.7800 O   0  0  0  0  0  0  0  0  0  0  0  0
   37.3200   29.0870   42.0000 P   0  0  1  0  0  0  0  0  0  0  0  0
   37.0570   29.3090   43.6680 O   0  0  0  0  0  0  0  0  0  0  0  0
   36.8610   30.2730   43.8610 H   0  0  0  0  0  0  0  0  0  0  0  0
   36.5410   30.3990   41.1970 O   0  0  0  0  0  0  0  0  0  0  0  0
   37.1570   31.9490   39.5280 C   0  0  0  0  0  0  0  0  0  0  0  0
   36.7750   30.6710   39.8640 C   0  0  0  0  0  0  0  0  0  0  0  0
   36.6450   29.7060   38.8320 C   0  0  0  0  0  0  0  0  0  0  0  0
   36.9070   30.1120   37.5700 N   0  0  0  0  0  0  0  0  0  0  0  0
   37.2710   31.3510   37.2850 C   0  0  0  0  0  0  0  0  0  0  0  0
   37.3930   32.2660   38.2800 N   0  0  0  0  0  0  0  0  0  0  0  0
   38.5910   33.3500   41.0070 C   0  0  0  0  0  0  0  0  0  0  0  0
   39.4060   32.3880   41.2750 O   0  0  0  0  0  0  0  0  0  0  0  0
   37.4150   33.2050   40.1360 N   0  0  0  0  0  0  0  0  0  0  0  0
   36.3500   28.7240   39.1060 H   0  0  0  0  0  0  0  0  0  0  0  0
   37.4870   31.7000   36.2910 H   0  0  0  0  0  0  0  0  0  0  0  0
   38.8340   34.3110   41.4820 H   0  0  0  0  0  0  0  0  0  0  0  0
   36.8680   34.0770   40.0560 H   0  0  0  0  0  0  0  0  0  0  0  0
   36.6390   27.6530   41.5520 O   0  0  0  0  0  0  0  0  0  0  0  0
   37.4190   26.6440   41.1600 C   0  0  2  0  0  0  0  0  0  0  0  0
   37.0060   25.8470   39.9890 C   0  0  0  0  0  0  0  0  0  0  0  0
   37.7350   24.5250   40.0010 C   0  0  0  0  0  0  0  0  0  0  0  0
   37.2330   23.6990   41.0040 O   0  0  0  0  0  0  0  0  0  0  0  0
   36.8480   24.4400   42.1140 C   0  0  0  0  0  0  0  0  0  0  0  0
   37.7140   25.6550   42.2990 C   0  0  1  0  0  0  0  0  0  0  0  0
   38.4410   27.0640   40.9700 H   0  0  0  0  0  0  0  0  0  0  0  0
   35.9160   25.5800   40.0740 H   0  0  0  0  0  0  0  0  0  0  0  0
   37.0970   26.3670   39.0160 H   0  0  0  0  0  0  0  0  0  0  0  0
   37.5050   24.0400   39.0110 H   0  0  0  0  0  0  0  0  0  0  0  0
   38.8160   24.6600   40.0100 H   0  0  0  0  0  0  0  0  0  0  0  0
   35.8000   24.7870   41.9710 H   0  0  0  0  0  0  0  0  0  0  0  0
   36.9350   23.7830   42.9970 H   0  0  0  0  0  0  0  0  0  0  0  0
   37.3470   26.1580   43.2300 H   0  0  0  0  0  0  0  0  0  0  0  0
   39.1280   25.3590   42.4800 C   0  0  0  0  0  0  0  0  0  0  0  0
   39.8470   26.0950   42.1700 H   0  0  0  0  0  0  0  0  0  0  0  0
   39.9540   24.5640   42.8690 O   0  0  0  0  0  0  0  0  0  0  0  0
  2  1  2  6  0  0  0
  2  3  1  0  0  0  0
  3  4  1  0  0  0  0
  5  2  1  0  0  0  0
  6  7  1  0  0  0  0
  6 14  1  0  0  0  0
  7  5  1  0  0  0  0
  8 15  1  0  0  0  0
  8  7  2  0  0  0  0
  9  8  1  0  0  0  0
 10  9  2  0  0  0  0
 10 11  1  0  0  0  0
 11  6  2  0  0  0  0
 12 13  2  0  0  0  0
 12 17  1  0  0  0  0
 14 12  1  0  0  0  0
 16 10  1  0  0  0  0
 18 14  1  0  0  0  0
 19  2  1  0  0  0  0
 20 26  1  6  0  0  0
 20 19  1  0  0  0  0
 20 25  1  0  0  0  0
 21 22  1  0  0  0  0
 21 27  1  0  0  0  0
 21 20  1  0  0  0  0
 22 30  1  0  0  0  0
 22 23  1  0  0  0  0
 23 24  1  0  0  0  0
 24 25  1  0  0  0  0
 24 32  1  0  0  0  0
 25 34  1  0  0  0  0
 25 33  1  1  0  0  0
 28 21  1  0  0  0  0
 29 22  1  0  0  0  0
 31 24  1  0  0  0  0
 34 36  2  0  0  0  0
 35 34  1  0  0  0  0
M  END
>  <minimizedAffinity>
-5.39225674

$$$$

 OpenBabel03252507143D

 36 37  0  0  1  0  0  0  0  0999 V2000
   35.8750   28.4400   41.3680 O   0  0  0  0  0  0  0  0  0  0  0  0
   36.9990   29.2890   41.8210 P   0  0  1  0  0  0  0  0  0  0  0  0
   36.9690   29.2930   43.5240 O   0  0  0  0  0  0  0  0  0  0  0  0
   37.5940   28.5950   43.8810 H   0  0  0  0  0  0  0  0  0  0  0  0
   38.5040   28.5900   41.3540 O   0  0  0  0  0  0  0  0  0  0  0  0
   38.6110   26.4030   42.2340 C   0  0  0  0  0  0  0  0  0  0  0  0
   39.1490   27.6660   42.1520 C   0  0  0  0  0  0  0  0  0  0  0  0
   40.3300   27.9510   42.8840 C   0  0  0  0  0  0  0  0  0  0  0  0
   40.8560   26.9490   43.6240 N   0  0  0  0  0  0  0  0  0  0  0  0
   40.3090   25.7460   43.6790 C   0  0  0  0  0  0  0  0  0  0  0  0
   39.1790   25.4850   42.9750 N   0  0  0  0  0  0  0  0  0  0  0  0
   37.4750   25.3050   40.3080 C   0  0  0  0  0  0  0  0  0  0  0  0
   38.3760   25.6640   39.4590 O   0  0  0  0  0  0  0  0  0  0  0  0
   37.5150   25.6500   41.7360 N   0  0  0  0  0  0  0  0  0  0  0  0
   40.7350   28.9290   42.8120 H   0  0  0  0  0  0  0  0  0  0  0  0
   40.7050   24.9320   44.2580 H   0  0  0  0  0  0  0  0  0  0  0  0
   36.6520   24.7090   39.8880 H   0  0  0  0  0  0  0  0  0  0  0  0
   36.6970   25.2950   42.2560 H   0  0  0  0  0  0  0  0  0  0  0  0
   36.9020   30.8500   41.2960 O   0  0  0  0  0  0  0  0  0  0  0  0
   37.8400   31.3340   40.4810 C   0  0  2  0  0  0  0  0  0  0  0  0
   38.9980   32.0310   41.0720 C   0  0  0  0  0  0  0  0  0  0  0  0
   39.6650   32.8790   40.0160 C   0  0  0  0  0  0  0  0  0  0  0  0
   38.8820   33.9910   39.7160 O   0  0  0  0  0  0  0  0  0  0  0  0
   37.5290   33.6860   39.7980 C   0  0  0  0  0  0  0  0  0  0  0  0
   37.2570   32.2610   39.4020 C   0  0  1  0  0  0  0  0  0  0  0  0
   38.2120   30.4820   39.8540 H   0  0  0  0  0  0  0  0  0  0  0  0
   38.6470   32.7610   41.8540 H   0  0  0  0  0  0  0  0  0  0  0  0
   39.7180   31.3750   41.5990 H   0  0  0  0  0  0  0  0  0  0  0  0
   40.6220   33.2490   40.4800 H   0  0  0  0  0  0  0  0  0  0  0  0
   39.9740   32.2850   39.1560 H   0  0  0  0  0  0  0  0  0  0  0  0
   37.1920   33.8180   40.8500 H   0  0  0  0  0  0  0  0  0  0  0  0
   36.9940   34.3700   39.1170 H   0  0  0  0  0  0  0  0  0  0  0  0
   36.1460   32.1280   39.4680 H   0  0  0  0  0  0  0  0  0  0  0  0
   37.6660   31.9280   38.0450 C   0  0  0  0  0  0  0  0  0  0  0  0
   37.9970   32.7230   37.4030 H   0  0  0  0  0  0  0  0  0  0  0  0
   37.8190   31.0560   37.2200 O   0  0  0  0  0  0  0  0  0  0  0  0
  2  1  2  6  0  0  0
  2  3  1  0  0  0  0
  3  4  1  0  0  0  0
  5  2  1  0  0  0  0
  5  7  1  0  0  0  0
  6 11  1  0  0  0  0
  7  6  2  0  0  0  0
  7  8  1  0  0  0  0
  8  9  2  0  0  0  0
  9 10  1  0  0  0  0
 10 16  1  0  0  0  0
 11 10  2  0  0  0  0
 12 14  1  0  0  0  0
 13 12  2  0  0  0  0
 14  6  1  0  0  0  0
 14 18  1  0  0  0  0
 15  8  1  0  0  0  0
 17 12  1  0  0  0  0
 19  2  1  0  0  0  0
 20 26  1  6  0  0  0
 20 21  1  0  0  0  0
 20 19  1  0  0  0  0
 21 28  1  0  0  0  0
 21 27  1  0  0  0  0
 22 29  1  0  0  0  0
 22 21  1  0  0  0  0
 23 24  1  0  0  0  0
 23 22  1  0  0  0  0
 24 31  1  0  0  0  0
 25 33  1  1  0  0  0
 25 24  1  0  0  0  0
 25 20  1  0  0  0  0
 30 22  1  0  0  0  0
 32 24  1  0  0  0  0
 34 25  1  0  0  0  0
 35 34  1  0  0  0  0
 36 34  2  0  0  0  0
M  END
>  <minimizedAffinity>
-5.13447952

$$$$

 OpenBabel03252507143D

 36 37  0  0  1  0  0  0  0  0999 V2000
   34.4370   29.1560   39.8810 O   0  0  0  0  0  0  0  0  0  0  0  0
   35.7290   29.3790   40.5700 P   0  0  1  0  0  0  0  0  0  0  0  0
   35.6540   30.9210   41.2860 O   0  0  0  0  0  0  0  0  0  0  0  0
   35.3690   30.8430   42.2450 H   0  0  0  0  0  0  0  0  0  0  0  0
   35.9280   28.2450   41.8530 O   0  0  0  0  0  0  0  0  0  0  0  0
   37.5410   26.5620   42.2190 C   0  0  0  0  0  0  0  0  0  0  0  0
   37.1790   27.8860   42.3120 C   0  0  0  0  0  0  0  0  0  0  0  0
   38.1050   28.8060   42.8690 C   0  0  0  0  0  0  0  0  0  0  0  0
   39.2950   28.3150   43.2770 N   0  0  0  0  0  0  0  0  0  0  0  0
   39.6080   27.0340   43.1720 C   0  0  0  0  0  0  0  0  0  0  0  0
   38.7150   26.1620   42.6370 N   0  0  0  0  0  0  0  0  0  0  0  0
   36.8110   25.1060   40.3340 C   0  0  0  0  0  0  0  0  0  0  0  0
   37.0540   25.9970   39.4350 O   0  0  0  0  0  0  0  0  0  0  0  0
   37.0210   25.3190   41.7730 N   0  0  0  0  0  0  0  0  0  0  0  0
   37.8130   29.8240   42.9350 H   0  0  0  0  0  0  0  0  0  0  0  0
   40.5470   26.6160   43.4870 H   0  0  0  0  0  0  0  0  0  0  0  0
   36.4260   24.1510   39.9490 H   0  0  0  0  0  0  0  0  0  0  0  0
   36.7500   24.5000   42.3410 H   0  0  0  0  0  0  0  0  0  0  0  0
   37.0320   29.3380   39.5590 O   0  0  0  0  0  0  0  0  0  0  0  0
   37.6250   30.4760   39.1960 C   0  0  2  0  0  0  0  0  0  0  0  0
   37.8310   30.7390   37.7590 C   0  0  0  0  0  0  0  0  0  0  0  0
   38.8930   31.7990   37.5910 C   0  0  0  0  0  0  0  0  0  0  0  0
   40.1510   31.2820   37.8910 O   0  0  0  0  0  0  0  0  0  0  0  0
   40.0740   30.3440   38.9140 C   0  0  0  0  0  0  0  0  0  0  0  0
   38.9820   30.6770   39.8920 C   0  0  1  0  0  0  0  0  0  0  0  0
   37.0310   31.3190   39.6370 H   0  0  0  0  0  0  0  0  0  0  0  0
   38.2510   29.8220   37.2590 H   0  0  0  0  0  0  0  0  0  0  0  0
   36.9100   30.9750   37.1920 H   0  0  0  0  0  0  0  0  0  0  0  0
   38.8860   32.0680   36.4980 H   0  0  0  0  0  0  0  0  0  0  0  0
   38.6330   32.7180   38.1150 H   0  0  0  0  0  0  0  0  0  0  0  0
   39.8460   29.3480   38.4740 H   0  0  0  0  0  0  0  0  0  0  0  0
   41.0490   30.3390   39.4320 H   0  0  0  0  0  0  0  0  0  0  0  0
   39.0260   29.8890   40.6860 H   0  0  0  0  0  0  0  0  0  0  0  0
   39.1330   31.9720   40.5400 C   0  0  0  0  0  0  0  0  0  0  0  0
   40.1220   32.2980   40.8020 H   0  0  0  0  0  0  0  0  0  0  0  0
   38.5800   32.9620   40.9650 O   0  0  0  0  0  0  0  0  0  0  0  0
  2  1  2  6  0  0  0
  2  3  1  0  0  0  0
  2  5  1  0  0  0  0
  3  4  1  0  0  0  0
  5  7  1  0  0  0  0
  6  7  2  0  0  0  0
  6 11  1  0  0  0  0
  7  8  1  0  0  0  0
  8 15  1  0  0  0  0
  8  9  2  0  0  0  0
 10  9  1  0  0  0  0
 10 16  1  0  0  0  0
 11 10  2  0  0  0  0
 12 14  1  0  0  0  0
 13 12  2  0  0  0  0
 14  6  1  0  0  0  0
 14 18  1  0  0  0  0
 17 12  1  0  0  0  0
 19  2  1  0  0  0  0
 20 19  1  0  0  0  0
 20 26  1  1  0  0  0
 20 25  1  0  0  0  0
 21 20  1  0  0  0  0
 22 21  1  0  0  0  0
 22 23  1  0  0  0  0
 22 30  1  0  0  0  0
 23 24  1  0  0  0  0
 24 32  1  0  0  0  0
 24 25  1  0  0  0  0
 25 34  1  0  0  0  0
 25 33  1  1  0  0  0
 27 21  1  0  0  0  0
 28 21  1  0  0  0  0
 29 22  1  0  0  0  0
 31 24  1  0  0  0  0
 34 35  1  0  0  0  0
 34 36  2  0  0  0  0
M  END
>  <minimizedAffinity>
-5.12824917

$$$$

 OpenBabel03252507143D

 36 37  0  0  1  0  0  0  0  0999 V2000
   37.4850   29.2530   43.2230 O   0  0  0  0  0  0  0  0  0  0  0  0
   37.1420   29.1310   41.7880 P   0  0  1  0  0  0  0  0  0  0  0  0
   35.9750   30.3240   41.4500 O   0  0  0  0  0  0  0  0  0  0  0  0
   36.4180   31.1460   41.0830 H   0  0  0  0  0  0  0  0  0  0  0  0
   38.5160   29.4900   40.8100 O   0  0  0  0  0  0  0  0  0  0  0  0
   38.7640   31.1260   39.1280 C   0  0  0  0  0  0  0  0  0  0  0  0
   38.8320   30.7870   40.4590 C   0  0  0  0  0  0  0  0  0  0  0  0
   39.2210   31.7800   41.3950 C   0  0  0  0  0  0  0  0  0  0  0  0
   39.5020   33.0100   40.9100 N   0  0  0  0  0  0  0  0  0  0  0  0
   39.4260   33.2990   39.6220 C   0  0  0  0  0  0  0  0  0  0  0  0
   39.0530   32.3410   38.7350 N   0  0  0  0  0  0  0  0  0  0  0  0
   37.0630   30.1570   37.5870 C   0  0  0  0  0  0  0  0  0  0  0  0
   36.0960   30.2920   38.4280 O   0  0  0  0  0  0  0  0  0  0  0  0
   38.4520   30.5470   37.8700 N   0  0  0  0  0  0  0  0  0  0  0  0
   39.2700   31.5050   42.4190 H   0  0  0  0  0  0  0  0  0  0  0  0
   39.6430   34.2670   39.2090 H   0  0  0  0  0  0  0  0  0  0  0  0
   36.7790   29.7220   36.6180 H   0  0  0  0  0  0  0  0  0  0  0  0
   39.0910   30.3440   37.0850 H   0  0  0  0  0  0  0  0  0  0  0  0
   36.5140   27.6600   41.3820 O   0  0  0  0  0  0  0  0  0  0  0  0
   37.3330   26.6560   41.0670 C   0  0  2  0  0  0  0  0  0  0  0  0
   36.9950   25.8070   39.9080 C   0  0  0  0  0  0  0  0  0  0  0  0
   37.7500   24.5030   40.0060 C   0  0  0  0  0  0  0  0  0  0  0  0
   37.2150   23.7040   41.0140 O   0  0  0  0  0  0  0  0  0  0  0  0
   36.7600   24.4760   42.0750 C   0  0  0  0  0  0  0  0  0  0  0  0
   37.5910   25.7160   42.2560 C   0  0  1  0  0  0  0  0  0  0  0  0
   38.3550   27.0910   40.9110 H   0  0  0  0  0  0  0  0  0  0  0  0
   35.9080   25.5190   39.9490 H   0  0  0  0  0  0  0  0  0  0  0  0
   37.1240   26.2920   38.9210 H   0  0  0  0  0  0  0  0  0  0  0  0
   37.5790   23.9770   39.0250 H   0  0  0  0  0  0  0  0  0  0  0  0
   38.8260   24.6620   40.0630 H   0  0  0  0  0  0  0  0  0  0  0  0
   35.7140   24.7940   41.8670 H   0  0  0  0  0  0  0  0  0  0  0  0
   36.8160   23.8540   42.9850 H   0  0  0  0  0  0  0  0  0  0  0  0
   37.1680   26.2450   43.1470 H   0  0  0  0  0  0  0  0  0  0  0  0
   39.0000   25.4590   42.5170 C   0  0  0  0  0  0  0  0  0  0  0  0
   39.7200   26.1890   42.1960 H   0  0  0  0  0  0  0  0  0  0  0  0
   39.8200   24.7040   42.9900 O   0  0  0  0  0  0  0  0  0  0  0  0
  2  1  2  1  0  0  0
  3  2  1  0  0  0  0
  4  3  1  0  0  0  0
  5  2  1  0  0  0  0
  6  7  1  0  0  0  0
  7  5  1  0  0  0  0
  7  8  2  0  0  0  0
  8 15  1  0  0  0  0
  9  8  1  0  0  0  0
 10  9  2  0  0  0  0
 11  6  2  0  0  0  0
 11 10  1  0  0  0  0
 12 14  1  0  0  0  0
 12 13  2  0  0  0  0
 14  6  1  0  0  0  0
 16 10  1  0  0  0  0
 17 12  1  0  0  0  0
 18 14  1  0  0  0  0
 19  2  1  0  0  0  0
 20 26  1  6  0  0  0
 20 19  1  0  0  0  0
 20 25  1  0  0  0  0
 21 27  1  0  0  0  0
 21 22  1  0  0  0  0
 21 20  1  0  0  0  0
 22 30  1  0  0  0  0
 22 23  1  0  0  0  0
 23 24  1  0  0  0  0
 24 25  1  0  0  0  0
 24 32  1  0  0  0  0
 25 34  1  0  0  0  0
 25 33  1  1  0  0  0
 28 21  1  0  0  0  0
 29 22  1  0  0  0  0
 31 24  1  0  0  0  0
 34 36  2  0  0  0  0
 35 34  1  0  0  0  0
M  END
>  <minimizedAffinity>
-4.9144125

$$$$

 OpenBabel03252507143D

 36 37  0  0  1  0  0  0  0  0999 V2000
   39.0030   30.7510   38.4650 O   0  0  0  0  0  0  0  0  0  0  0  0
   38.5990   32.0820   38.9710 P   0  0  1  0  0  0  0  0  0  0  0  0
   37.5440   32.7560   37.8180 O   0  0  0  0  0  0  0  0  0  0  0  0
   36.5910   32.5750   38.0740 H   0  0  0  0  0  0  0  0  0  0  0  0
   37.6980   31.9200   40.4320 O   0  0  0  0  0  0  0  0  0  0  0  0
   36.8980   30.0190   41.5780 C   0  0  0  0  0  0  0  0  0  0  0  0
   37.9340   30.8850   41.3140 C   0  0  0  0  0  0  0  0  0  0  0  0
   39.1800   30.6700   41.9570 C   0  0  0  0  0  0  0  0  0  0  0  0
   39.2690   29.6150   42.7970 N   0  0  0  0  0  0  0  0  0  0  0  0
   38.2510   28.8030   43.0260 C   0  0  0  0  0  0  0  0  0  0  0  0
   37.0630   29.0180   42.4060 N   0  0  0  0  0  0  0  0  0  0  0  0
   35.2180   29.3780   39.8540 C   0  0  0  0  0  0  0  0  0  0  0  0
   36.1000   29.2060   38.9310 O   0  0  0  0  0  0  0  0  0  0  0  0
   35.5410   29.8020   41.2240 N   0  0  0  0  0  0  0  0  0  0  0  0
   39.9700   31.3460   41.7440 H   0  0  0  0  0  0  0  0  0  0  0  0
   38.2930   27.9570   43.6880 H   0  0  0  0  0  0  0  0  0  0  0  0
   34.1800   29.1840   39.5470 H   0  0  0  0  0  0  0  0  0  0  0  0
   34.7020   29.9090   41.8170 H   0  0  0  0  0  0  0  0  0  0  0  0
   39.8640   33.1180   39.1870 O   0  0  0  0  0  0  0  0  0  0  0  0
   41.1100   32.6970   38.9690 C   0  0  2  0  0  0  0  0  0  0  0  0
   42.1830   33.1720   39.8630 C   0  0  0  0  0  0  0  0  0  0  0  0
   43.5200   32.9730   39.1900 C   0  0  0  0  0  0  0  0  0  0  0  0
   43.6880   33.8910   38.1560 O   0  0  0  0  0  0  0  0  0  0  0  0
   42.4780   34.1610   37.5270 C   0  0  0  0  0  0  0  0  0  0  0  0
   41.5730   32.9610   37.5260 C   0  0  1  0  0  0  0  0  0  0  0  0
   41.0930   31.5750   38.9860 H   0  0  0  0  0  0  0  0  0  0  0  0
   42.0930   34.2840   40.0110 H   0  0  0  0  0  0  0  0  0  0  0  0
   42.1610   32.7450   40.8850 H   0  0  0  0  0  0  0  0  0  0  0  0
   44.2940   33.1970   39.9760 H   0  0  0  0  0  0  0  0  0  0  0  0
   43.6840   31.9320   38.9150 H   0  0  0  0  0  0  0  0  0  0  0  0
   41.9610   34.9790   38.0770 H   0  0  0  0  0  0  0  0  0  0  0  0
   42.7050   34.4580   36.4890 H   0  0  0  0  0  0  0  0  0  0  0  0
   40.6500   33.2700   36.9720 H   0  0  0  0  0  0  0  0  0  0  0  0
   42.1270   31.7940   36.8550 C   0  0  0  0  0  0  0  0  0  0  0  0
   42.6650   31.9420   35.9370 H   0  0  0  0  0  0  0  0  0  0  0  0
   42.2700   30.5920   36.8680 O   0  0  0  0  0  0  0  0  0  0  0  0
  2  1  2  6  0  0  0
  2 19  1  0  0  0  0
  2  5  1  0  0  0  0
  3  4  1  0  0  0  0
  3  2  1  0  0  0  0
  5  7  1  0  0  0  0
  6 11  1  0  0  0  0
  7  6  2  0  0  0  0
  7  8  1  0  0  0  0
  8  9  2  0  0  0  0
  9 10  1  0  0  0  0
 10 16  1  0  0  0  0
 11 10  2  0  0  0  0
 12 14  1  0  0  0  0
 13 12  2  0  0  0  0
 14  6  1  0  0  0  0
 14 18  1  0  0  0  0
 15  8  1  0  0  0  0
 17 12  1  0  0  0  0
 20 26  1  1  0  0  0
 20 19  1  0  0  0  0
 20 21  1  0  0  0  0
 21 27  1  0  0  0  0
 21 28  1  0  0  0  0
 22 21  1  0  0  0  0
 22 29  1  0  0  0  0
 23 22  1  0  0  0  0
 24 31  1  0  0  0  0
 24 23  1  0  0  0  0
 25 33  1  6  0  0  0
 25 24  1  0  0  0  0
 25 20  1  0  0  0  0
 30 22  1  0  0  0  0
 32 24  1  0  0  0  0
 34 36  2  0  0  0  0
 34 25  1  0  0  0  0
 35 34  1  0  0  0  0
M  END
>  <minimizedAffinity>
-4.89021444

$$$$

 OpenBabel03252507143D

 36 37  0  0  1  0  0  0  0  0999 V2000
   39.2720   30.5020   43.2260 O   0  0  0  0  0  0  0  0  0  0  0  0
   38.5870   29.4760   42.4080 P   0  0  1  0  0  0  0  0  0  0  0  0
   36.9130   29.7160   42.6050 O   0  0  0  0  0  0  0  0  0  0  0  0
   36.5560   30.2830   41.8580 H   0  0  0  0  0  0  0  0  0  0  0  0
   38.9280   29.7170   40.7350 O   0  0  0  0  0  0  0  0  0  0  0  0
   37.0410   30.6200   39.6450 C   0  0  0  0  0  0  0  0  0  0  0  0
   37.9470   29.5930   39.7730 C   0  0  0  0  0  0  0  0  0  0  0  0
   37.8260   28.4690   38.9150 C   0  0  0  0  0  0  0  0  0  0  0  0
   36.8160   28.4820   38.0170 N   0  0  0  0  0  0  0  0  0  0  0  0
   35.9630   29.4880   37.9240 C   0  0  0  0  0  0  0  0  0  0  0  0
   36.0870   30.5580   38.7500 N   0  0  0  0  0  0  0  0  0  0  0  0
   37.6620   33.0050   40.0070 C   0  0  0  0  0  0  0  0  0  0  0  0
   38.7620   32.9110   39.3410 O   0  0  0  0  0  0  0  0  0  0  0  0
   36.7360   31.8830   40.2170 N   0  0  0  0  0  0  0  0  0  0  0  0
   38.5320   27.6840   39.0240 H   0  0  0  0  0  0  0  0  0  0  0  0
   35.1520   29.5250   37.2200 H   0  0  0  0  0  0  0  0  0  0  0  0
   37.4520   34.0020   40.4190 H   0  0  0  0  0  0  0  0  0  0  0  0
   35.9190   32.1420   40.7930 H   0  0  0  0  0  0  0  0  0  0  0  0
   38.9460   27.9290   42.8520 O   0  0  0  0  0  0  0  0  0  0  0  0
   38.5430   26.9110   42.0900 C   0  0  2  0  0  0  0  0  0  0  0  0
   37.2620   26.2530   42.4120 C   0  0  0  0  0  0  0  0  0  0  0  0
   37.2230   24.8900   41.7630 C   0  0  0  0  0  0  0  0  0  0  0  0
   38.0810   24.0110   42.4210 O   0  0  0  0  0  0  0  0  0  0  0  0
   39.2110   24.6720   42.8870 C   0  0  0  0  0  0  0  0  0  0  0  0
   39.6050   25.8050   41.9810 C   0  0  1  0  0  0  0  0  0  0  0  0
   38.5050   27.2780   41.0310 H   0  0  0  0  0  0  0  0  0  0  0  0
   37.2030   26.0510   43.5180 H   0  0  0  0  0  0  0  0  0  0  0  0
   36.3600   26.8520   42.1830 H   0  0  0  0  0  0  0  0  0  0  0  0
   36.1720   24.5130   41.9070 H   0  0  0  0  0  0  0  0  0  0  0  0
   37.3610   24.9520   40.6850 H   0  0  0  0  0  0  0  0  0  0  0  0
   38.9910   25.0980   43.8910 H   0  0  0  0  0  0  0  0  0  0  0  0
   40.0290   23.9320   42.9370 H   0  0  0  0  0  0  0  0  0  0  0  0
   40.5360   26.2450   42.4220 H   0  0  0  0  0  0  0  0  0  0  0  0
   39.9070   25.4010   40.6150 C   0  0  0  0  0  0  0  0  0  0  0  0
   40.4880   24.5100   40.4620 H   0  0  0  0  0  0  0  0  0  0  0  0
   39.7830   25.6470   39.4360 O   0  0  0  0  0  0  0  0  0  0  0  0
  2  3  1  0  0  0  0
  2 19  1  0  0  0  0
  2  1  2  1  0  0  0
  4  3  1  0  0  0  0
  5  2  1  0  0  0  0
  6  7  1  0  0  0  0
  6 14  1  0  0  0  0
  7  5  1  0  0  0  0
  8 15  1  0  0  0  0
  8  7  2  0  0  0  0
  9  8  1  0  0  0  0
 10  9  2  0  0  0  0
 10 11  1  0  0  0  0
 11  6  2  0  0  0  0
 12 14  1  0  0  0  0
 12 17  1  0  0  0  0
 13 12  2  0  0  0  0
 14 18  1  0  0  0  0
 16 10  1  0  0  0  0
 20 26  1  6  0  0  0
 20 21  1  0  0  0  0
 20 19  1  0  0  0  0
 21 27  1  0  0  0  0
 22 29  1  0  0  0  0
 22 21  1  0  0  0  0
 22 23  1  0  0  0  0
 23 24  1  0  0  0  0
 24 32  1  0  0  0  0
 24 31  1  0  0  0  0
 25 20  1  0  0  0  0
 25 33  1  1  0  0  0
 25 24  1  0  0  0  0
 28 21  1  0  0  0  0
 30 22  1  0  0  0  0
 34 25  1  0  0  0  0
 35 34  1  0  0  0  0
 36 34  2  0  0  0  0
M  END
>  <minimizedAffinity>
-4.77725315

$$$$

 OpenBabel03252507143D

 36 37  0  0  1  0  0  0  0  0999 V2000
   34.9850   28.9690   40.4110 O   0  0  0  0  0  0  0  0  0  0  0  0
   36.3150   29.0540   41.0550 P   0  0  1  0  0  0  0  0  0  0  0  0
   36.1820   28.3070   42.5790 O   0  0  0  0  0  0  0  0  0  0  0  0
   36.4770   27.3500   42.5200 H   0  0  0  0  0  0  0  0  0  0  0  0
   37.4740   28.1460   40.1570 O   0  0  0  0  0  0  0  0  0  0  0  0
   39.0930   26.7220   41.1160 C   0  0  0  0  0  0  0  0  0  0  0  0
   37.8520   26.8760   40.5430 C   0  0  0  0  0  0  0  0  0  0  0  0
   37.0310   25.7300   40.3820 C   0  0  0  0  0  0  0  0  0  0  0  0
   37.5290   24.5480   40.8070 N   0  0  0  0  0  0  0  0  0  0  0  0
   38.7280   24.4390   41.3530 C   0  0  0  0  0  0  0  0  0  0  0  0
   39.5050   25.5420   41.5030 N   0  0  0  0  0  0  0  0  0  0  0  0
   40.1140   28.4590   42.5810 C   0  0  0  0  0  0  0  0  0  0  0  0
   39.0260   28.6720   43.2370 O   0  0  0  0  0  0  0  0  0  0  0  0
   40.2290   27.4920   41.4800 N   0  0  0  0  0  0  0  0  0  0  0  0
   36.0750   25.8630   39.9390 H   0  0  0  0  0  0  0  0  0  0  0  0
   39.1490   23.5120   41.7000 H   0  0  0  0  0  0  0  0  0  0  0  0
   40.9760   29.0610   42.9030 H   0  0  0  0  0  0  0  0  0  0  0  0
   41.1720   27.4750   41.0590 H   0  0  0  0  0  0  0  0  0  0  0  0
   36.8440   30.6010   41.2780 O   0  0  0  0  0  0  0  0  0  0  0  0
   37.8300   31.0800   40.5190 C   0  0  2  0  0  0  0  0  0  0  0  0
   38.9360   31.8050   41.1730 C   0  0  0  0  0  0  0  0  0  0  0  0
   39.6640   32.6390   40.1460 C   0  0  0  0  0  0  0  0  0  0  0  0
   38.8900   33.7340   39.7680 O   0  0  0  0  0  0  0  0  0  0  0  0
   37.5390   33.4120   39.7630 C   0  0  0  0  0  0  0  0  0  0  0  0
   37.3120   31.9750   39.3820 C   0  0  1  0  0  0  0  0  0  0  0  0
   38.2550   30.2190   39.9380 H   0  0  0  0  0  0  0  0  0  0  0  0
   38.5230   32.5470   41.9110 H   0  0  0  0  0  0  0  0  0  0  0  0
   39.6260   31.1700   41.7620 H   0  0  0  0  0  0  0  0  0  0  0  0
   40.5820   33.0320   40.6660 H   0  0  0  0  0  0  0  0  0  0  0  0
   40.0390   32.0310   39.3230 H   0  0  0  0  0  0  0  0  0  0  0  0
   37.1280   33.5620   40.7860 H   0  0  0  0  0  0  0  0  0  0  0  0
   37.0440   34.0740   39.0320 H   0  0  0  0  0  0  0  0  0  0  0  0
   36.2010   31.8290   39.3740 H   0  0  0  0  0  0  0  0  0  0  0  0
   37.8170   31.6190   38.0640 C   0  0  0  0  0  0  0  0  0  0  0  0
   38.7710   31.1290   37.9990 H   0  0  0  0  0  0  0  0  0  0  0  0
   37.6230   31.6270   36.8690 O   0  0  0  0  0  0  0  0  0  0  0  0
  2  1  2  6  0  0  0
  2 19  1  0  0  0  0
  2  3  1  0  0  0  0
  4  3  1  0  0  0  0
  5  7  1  0  0  0  0
  5  2  1  0  0  0  0
  6 14  1  0  0  0  0
  6 11  1  0  0  0  0
  7  6  2  0  0  0  0
  8  7  1  0  0  0  0
  8  9  2  0  0  0  0
  9 10  1  0  0  0  0
 10 11  2  0  0  0  0
 10 16  1  0  0  0  0
 12 17  1  0  0  0  0
 12 13  2  0  0  0  0
 14 12  1  0  0  0  0
 15  8  1  0  0  0  0
 18 14  1  0  0  0  0
 20 26  1  6  0  0  0
 20 21  1  0  0  0  0
 20 19  1  0  0  0  0
 21 28  1  0  0  0  0
 21 27  1  0  0  0  0
 22 29  1  0  0  0  0
 22 21  1  0  0  0  0
 23 22  1  0  0  0  0
 24 23  1  0  0  0  0
 24 31  1  0  0  0  0
 25 33  1  6  0  0  0
 25 24  1  0  0  0  0
 25 20  1  0  0  0  0
 30 22  1  0  0  0  0
 32 24  1  0  0  0  0
 34 25  1  0  0  0  0
 35 34  1  0  0  0  0
 36 34  2  0  0  0  0
M  END
>  <minimizedAffinity>
-4.75767708

$$$$

 OpenBabel03252507143D

 36 37  0  0  1  0  0  0  0  0999 V2000
   39.2650   30.1660   43.1850 O   0  0  0  0  0  0  0  0  0  0  0  0
   38.1480   29.5400   42.4410 P   0  0  1  0  0  0  0  0  0  0  0  0
   36.9280   29.1870   43.5750 O   0  0  0  0  0  0  0  0  0  0  0  0
   36.2530   29.9290   43.5960 H   0  0  0  0  0  0  0  0  0  0  0  0
   37.4730   30.6600   41.3180 O   0  0  0  0  0  0  0  0  0  0  0  0
   38.8670   30.7730   39.4180 C   0  0  0  0  0  0  0  0  0  0  0  0
   38.2710   31.4130   40.4810 C   0  0  0  0  0  0  0  0  0  0  0  0
   38.5070   32.8000   40.6580 C   0  0  0  0  0  0  0  0  0  0  0  0
   39.3100   33.4110   39.7600 N   0  0  0  0  0  0  0  0  0  0  0  0
   39.8670   32.7630   38.7500 C   0  0  0  0  0  0  0  0  0  0  0  0
   39.6350   31.4350   38.5900 N   0  0  0  0  0  0  0  0  0  0  0  0
   37.7630   28.9090   38.1890 C   0  0  0  0  0  0  0  0  0  0  0  0
   36.6190   29.5010   38.1410 O   0  0  0  0  0  0  0  0  0  0  0  0
   38.9540   29.4840   38.8310 N   0  0  0  0  0  0  0  0  0  0  0  0
   38.0410   33.2810   41.4820 H   0  0  0  0  0  0  0  0  0  0  0  0
   40.5090   33.2230   38.0210 H   0  0  0  0  0  0  0  0  0  0  0  0
   37.7950   27.9210   37.7090 H   0  0  0  0  0  0  0  0  0  0  0  0
   39.7720   28.8560   38.7900 H   0  0  0  0  0  0  0  0  0  0  0  0
   38.5670   28.1390   41.6750 O   0  0  0  0  0  0  0  0  0  0  0  0
   38.6580   27.0060   42.3720 C   0  0  2  0  0  0  0  0  0  0  0  0
   39.7430   26.8700   43.3620 C   0  0  0  0  0  0  0  0  0  0  0  0
   39.9510   25.4090   43.6790 C   0  0  0  0  0  0  0  0  0  0  0  0
   40.5610   24.7580   42.6100 O   0  0  0  0  0  0  0  0  0  0  0  0
   40.1380   25.2870   41.3970 C   0  0  0  0  0  0  0  0  0  0  0  0
   38.7140   25.7650   41.4660 C   0  0  1  0  0  0  0  0  0  0  0  0
   37.6750   26.8500   42.8890 H   0  0  0  0  0  0  0  0  0  0  0  0
   40.7160   27.2120   42.9110 H   0  0  0  0  0  0  0  0  0  0  0  0
   39.6210   27.4840   44.2750 H   0  0  0  0  0  0  0  0  0  0  0  0
   40.6670   25.3840   44.5480 H   0  0  0  0  0  0  0  0  0  0  0  0
   39.0380   24.9410   44.0470 H   0  0  0  0  0  0  0  0  0  0  0  0
   40.7790   26.1600   41.1410 H   0  0  0  0  0  0  0  0  0  0  0  0
   40.2270   24.4900   40.6390 H   0  0  0  0  0  0  0  0  0  0  0  0
   38.4620   26.1370   40.4400 H   0  0  0  0  0  0  0  0  0  0  0  0
   37.7520   24.7290   41.8130 C   0  0  0  0  0  0  0  0  0  0  0  0
   37.4340   24.6500   42.8360 H   0  0  0  0  0  0  0  0  0  0  0  0
   37.0690   23.8090   41.4210 O   0  0  0  0  0  0  0  0  0  0  0  0
  2  1  2  1  0  0  0
  2  3  1  0  0  0  0
  3  4  1  0  0  0  0
  5  2  1  0  0  0  0
  6  7  1  0  0  0  0
  7  8  2  0  0  0  0
  7  5  1  0  0  0  0
  8 15  1  0  0  0  0
  9  8  1  0  0  0  0
 10  9  2  0  0  0  0
 11 10  1  0  0  0  0
 11  6  2  0  0  0  0
 12 14  1  0  0  0  0
 13 12  2  0  0  0  0
 14  6  1  0  0  0  0
 16 10  1  0  0  0  0
 17 12  1  0  0  0  0
 18 14  1  0  0  0  0
 19 20  1  0  0  0  0
 19  2  1  0  0  0  0
 20 26  1  1  0  0  0
 20 21  1  0  0  0  0
 21 22  1  0  0  0  0
 21 28  1  0  0  0  0
 22 30  1  0  0  0  0
 22 29  1  0  0  0  0
 23 22  1  0  0  0  0
 24 25  1  0  0  0  0
 24 23  1  0  0  0  0
 25 33  1  6  0  0  0
 25 34  1  0  0  0  0
 25 20  1  0  0  0  0
 27 21  1  0  0  0  0
 31 24  1  0  0  0  0
 32 24  1  0  0  0  0
 34 35  1  0  0  0  0
 36 34  2  0  0  0  0
M  END
>  <minimizedAffinity>
-4.75574732

$$$$

 OpenBabel03252507143D

 36 37  0  0  1  0  0  0  0  0999 V2000
   34.9320   29.6140   38.9310 O   0  0  0  0  0  0  0  0  0  0  0  0
   36.1260   29.6310   39.8050 P   0  0  1  0  0  0  0  0  0  0  0  0
   35.6340   30.2530   41.3110 O   0  0  0  0  0  0  0  0  0  0  0  0
   35.4140   29.5020   41.9390 H   0  0  0  0  0  0  0  0  0  0  0  0
   36.6830   28.0240   40.0900 O   0  0  0  0  0  0  0  0  0  0  0  0
   38.4800   28.1290   41.6140 C   0  0  0  0  0  0  0  0  0  0  0  0
   38.0060   27.7590   40.3770 C   0  0  0  0  0  0  0  0  0  0  0  0
   38.8950   27.1280   39.4700 C   0  0  0  0  0  0  0  0  0  0  0  0
   40.1660   26.9300   39.8850 N   0  0  0  0  0  0  0  0  0  0  0  0
   40.5860   27.3010   41.0830 C   0  0  0  0  0  0  0  0  0  0  0  0
   39.7270   27.9040   41.9430 N   0  0  0  0  0  0  0  0  0  0  0  0
   37.0710   28.0470   43.6670 C   0  0  0  0  0  0  0  0  0  0  0  0
   36.5770   26.8900   43.3880 O   0  0  0  0  0  0  0  0  0  0  0  0
   38.0370   28.7510   42.8110 N   0  0  0  0  0  0  0  0  0  0  0  0
   38.5160   26.8470   38.5190 H   0  0  0  0  0  0  0  0  0  0  0  0
   41.5900   27.1550   41.4390 H   0  0  0  0  0  0  0  0  0  0  0  0
   36.7170   28.4890   44.6090 H   0  0  0  0  0  0  0  0  0  0  0  0
   38.3030   29.6760   43.1860 H   0  0  0  0  0  0  0  0  0  0  0  0
   37.3530   30.5710   39.2300 O   0  0  0  0  0  0  0  0  0  0  0  0
   37.8120   31.5840   39.9660 C   0  0  2  0  0  0  0  0  0  0  0  0
   37.4270   32.9590   39.5950 C   0  0  0  0  0  0  0  0  0  0  0  0
   38.3880   33.9360   40.2270 C   0  0  0  0  0  0  0  0  0  0  0  0
   39.6250   33.8870   39.5890 O   0  0  0  0  0  0  0  0  0  0  0  0
   39.9180   32.5950   39.1680 C   0  0  0  0  0  0  0  0  0  0  0  0
   39.3440   31.5640   40.0990 C   0  0  1  0  0  0  0  0  0  0  0  0
   37.5020   31.3950   41.0270 H   0  0  0  0  0  0  0  0  0  0  0  0
   37.5500   33.1040   38.4850 H   0  0  0  0  0  0  0  0  0  0  0  0
   36.3700   33.2180   39.8000 H   0  0  0  0  0  0  0  0  0  0  0  0
   37.9500   34.9570   40.0440 H   0  0  0  0  0  0  0  0  0  0  0  0
   38.4210   33.8280   41.3100 H   0  0  0  0  0  0  0  0  0  0  0  0
   39.4710   32.4340   38.1620 H   0  0  0  0  0  0  0  0  0  0  0  0
   41.0170   32.4990   39.1380 H   0  0  0  0  0  0  0  0  0  0  0  0
   39.6620   30.5690   39.6940 H   0  0  0  0  0  0  0  0  0  0  0  0
   39.8240   31.6610   41.4700 C   0  0  0  0  0  0  0  0  0  0  0  0
   40.5960   32.3750   41.6900 H   0  0  0  0  0  0  0  0  0  0  0  0
   39.7340   31.2510   42.6060 O   0  0  0  0  0  0  0  0  0  0  0  0
  2  1  2  6  0  0  0
  2  5  1  0  0  0  0
  2  3  1  0  0  0  0
  3  4  1  0  0  0  0
  5  7  1  0  0  0  0
  6 11  1  0  0  0  0
  6 14  1  0  0  0  0
  7  6  2  0  0  0  0
  8  9  2  0  0  0  0
  8  7  1  0  0  0  0
  9 10  1  0  0  0  0
 10 16  1  0  0  0  0
 10 11  2  0  0  0  0
 12 17  1  0  0  0  0
 13 12  2  0  0  0  0
 14 18  1  0  0  0  0
 14 12  1  0  0  0  0
 15  8  1  0  0  0  0
 19  2  1  0  0  0  0
 19 20  1  0  0  0  0
 20 25  1  0  0  0  0
 20 26  1  1  0  0  0
 21 28  1  0  0  0  0
 21 20  1  0  0  0  0
 21 22  1  0  0  0  0
 22 30  1  0  0  0  0
 23 22  1  0  0  0  0
 24 23  1  0  0  0  0
 24 25  1  0  0  0  0
 25 33  1  6  0  0  0
 25 34  1  0  0  0  0
 27 21  1  0  0  0  0
 29 22  1  0  0  0  0
 31 24  1  0  0  0  0
 32 24  1  0  0  0  0
 34 35  1  0  0  0  0
 34 36  2  0  0  0  0
M  END
>  <minimizedAffinity>
-4.6771245

$$$$
