
 OpenBabel03252509333D

 34 35  0  0  1  0  0  0  0  0999 V2000
   44.7030   35.0770   45.3490 O   0  0  0  0  0  0  0  0  0  0  0  0
   45.5120   34.1100   44.5520 P   0  0  2  0  0  0  0  0  0  0  0  0
   44.5870   32.8730   43.8960 O   0  0  0  0  0  0  0  0  0  0  0  0
   44.8490   32.6430   42.9880 H   0  0  0  0  0  0  0  0  0  0  0  0
   46.6480   33.3540   45.5610 O   0  0  0  0  0  0  0  0  0  0  0  0
   46.3920   32.0160   45.5630 C   0  0  0  0  0  0  0  0  0  0  0  0
   45.7130   31.6070   44.8290 H   0  0  0  0  0  0  0  0  0  0  0  0
   47.3840   31.5170   45.3530 H   0  0  0  0  0  0  0  0  0  0  0  0
   45.7180   31.8910   49.2200 C   0  0  0  0  0  0  0  0  0  0  0  0
   46.1080   32.3730   47.9640 C   0  0  0  0  0  0  0  0  0  0  0  0
   45.9870   31.5210   46.8810 C   0  0  0  0  0  0  0  0  0  0  0  0
   45.4950   30.2600   47.0950 N   0  0  0  0  0  0  0  0  0  0  0  0
   45.1280   29.8270   48.3180 C   0  0  0  0  0  0  0  0  0  0  0  0
   45.2450   30.6510   49.3680 N   0  0  0  0  0  0  0  0  0  0  0  0
   45.8290   32.5850   50.0340 H   0  0  0  0  0  0  0  0  0  0  0  0
   46.4930   33.3730   47.8280 H   0  0  0  0  0  0  0  0  0  0  0  0
   44.7430   28.8350   48.4750 H   0  0  0  0  0  0  0  0  0  0  0  0
   46.3630   34.9500   43.3680 O   0  0  0  0  0  0  0  0  0  0  0  0
   46.6870   34.0800   42.3280 C   0  0  1  0  0  0  0  0  0  0  0  0
   45.9990   34.4100   41.0320 C   0  0  0  0  0  0  0  0  0  0  0  0
   46.7910   33.5610   40.0550 C   0  0  0  0  0  0  0  0  0  0  0  0
   48.1740   33.4100   40.6530 C   0  0  0  0  0  0  0  0  0  0  0  0
   48.1550   34.2600   41.9330 C   0  0  1  0  0  0  0  0  0  0  0  0
   46.5540   33.0180   42.5640 H   0  0  0  0  0  0  0  0  0  0  0  0
   46.0080   35.4720   40.7930 H   0  0  0  0  0  0  0  0  0  0  0  0
   44.9720   33.9820   41.0470 H   0  0  0  0  0  0  0  0  0  0  0  0
   46.3000   32.5900   39.8690 H   0  0  0  0  0  0  0  0  0  0  0  0
   46.9080   34.1330   39.1080 H   0  0  0  0  0  0  0  0  0  0  0  0
   48.2640   32.3550   40.9880 H   0  0  0  0  0  0  0  0  0  0  0  0
   48.9700   33.7200   39.9570 H   0  0  0  0  0  0  0  0  0  0  0  0
   48.7730   33.8190   42.7170 H   0  0  0  0  0  0  0  0  0  0  0  0
   48.5070   35.6620   41.6760 C   0  0  0  0  0  0  0  0  0  0  0  0
   48.2680   36.4470   42.3760 H   0  0  0  0  0  0  0  0  0  0  0  0
   49.0940   35.9380   40.6200 O   0  0  0  0  0  0  0  0  0  0  0  0
  2  1  2  1  0  0  0
  2  5  1  0  0  0  0
  3  2  1  0  0  0  0
  4  3  1  0  0  0  0
  5  6  1  0  0  0  0
  6 11  1  0  0  0  0
  7  6  1  0  0  0  0
  8  6  1  0  0  0  0
  9 14  1  0  0  0  0
  9 15  1  0  0  0  0
 10  9  2  0  0  0  0
 11 12  2  0  0  0  0
 11 10  1  0  0  0  0
 12 13  1  0  0  0  0
 13 17  1  0  0  0  0
 13 14  2  0  0  0  0
 16 10  1  0  0  0  0
 18  2  1  0  0  0  0
 19 24  1  1  0  0  0
 19 18  1  0  0  0  0
 20 26  1  0  0  0  0
 20 19  1  0  0  0  0
 21 22  1  0  0  0  0
 21 20  1  0  0  0  0
 22 29  1  0  0  0  0
 22 23  1  0  0  0  0
 23 19  1  0  0  0  0
 23 31  1  1  0  0  0
 25 20  1  0  0  0  0
 27 21  1  0  0  0  0
 28 21  1  0  0  0  0
 30 22  1  0  0  0  0
 32 23  1  0  0  0  0
 32 33  1  0  0  0  0
 34 32  2  0  0  0  0
M  END
>  <minimizedAffinity>
-4.88625622

>  <minimizedRMSD>
0.742688656

$$$$
