
 OpenBabel03242510203D

 30 32  0  0  1  0  0  0  0  0999 V2000
   35.8530   29.7750   39.7540 C   0  0  1  0  0  0  0  0  0  0  0  0
   36.0950   28.3840   39.6930 C   0  0  0  0  0  0  0  0  0  0  0  0
   35.5870   29.0070   41.0050 C   0  0  1  0  0  0  0  0  0  0  0  0
   35.0080   30.2590   39.2330 H   0  0  0  0  0  0  0  0  0  0  0  0
   37.0490   27.8520   39.8150 H   0  0  0  0  0  0  0  0  0  0  0  0
   35.3740   27.7570   39.1090 H   0  0  0  0  0  0  0  0  0  0  0  0
   34.6350   28.5320   41.2770 H   0  0  0  0  0  0  0  0  0  0  0  0
   36.9860   32.0330   40.3250 C   0  0  0  0  0  0  0  0  0  0  0  0
   37.0570   30.7200   39.7810 C   0  0  0  0  0  0  0  0  0  0  0  0
   38.2550   30.3040   39.2420 C   0  0  0  0  0  0  0  0  0  0  0  0
   39.3060   31.1570   39.2510 N   0  0  0  0  0  0  0  0  0  0  0  0
   39.2350   32.4080   39.7700 C   0  0  0  0  0  0  0  0  0  0  0  0
   38.0330   32.8530   40.3220 N   0  0  0  0  0  0  0  0  0  0  0  0
   36.0520   32.3240   40.7320 H   0  0  0  0  0  0  0  0  0  0  0  0
   38.3180   29.3110   38.8280 H   0  0  0  0  0  0  0  0  0  0  0  0
   40.0810   33.0820   39.7720 H   0  0  0  0  0  0  0  0  0  0  0  0
   36.5750   29.1130   42.0320 N   0  0  0  0  0  0  0  0  0  0  0  0
   36.8880   28.0780   42.8960 C   0  0  0  0  0  0  0  0  0  0  0  0
   36.1410   27.2890   43.5340 O   0  0  0  0  0  0  0  0  0  0  0  0
   37.1000   30.0070   42.1580 H   0  0  0  0  0  0  0  0  0  0  0  0
   38.3460   27.7510   43.1840 C   0  0  2  0  0  0  0  0  0  0  0  0
   39.3070   27.7190   41.9530 C   0  0  0  0  0  0  0  0  0  0  0  0
   38.9480   26.4930   42.7750 C   0  0  1  0  0  0  0  0  0  0  0  0
   38.8350   28.3800   43.9700 H   0  0  0  0  0  0  0  0  0  0  0  0
   40.3250   28.0720   42.0800 H   0  0  0  0  0  0  0  0  0  0  0  0
   38.8540   27.9130   40.9850 H   0  0  0  0  0  0  0  0  0  0  0  0
   38.5760   25.7280   42.1220 H   0  0  0  0  0  0  0  0  0  0  0  0
   40.0360   25.9420   43.6760 C   0  0  0  0  0  0  0  0  0  0  0  0
   40.3180   26.2560   44.6650 H   0  0  0  0  0  0  0  0  0  0  0  0
   40.7500   25.0030   43.3020 O   0  0  0  0  0  0  0  0  0  0  0  0
  1  4  1  6  0  0  0
  1  9  1  0  0  0  0
  1  3  1  0  0  0  0
  2  1  1  0  0  0  0
  2  5  1  0  0  0  0
  2  3  1  0  0  0  0
  3  7  1  1  0  0  0
  3 17  1  0  0  0  0
  6  2  1  0  0  0  0
  8 14  1  0  0  0  0
  9  8  2  0  0  0  0
 10 11  2  0  0  0  0
 10  9  1  0  0  0  0
 11 12  1  0  0  0  0
 12 16  1  0  0  0  0
 12 13  2  0  0  0  0
 13  8  1  0  0  0  0
 15 10  1  0  0  0  0
 17 20  1  0  0  0  0
 17 18  1  0  0  0  0
 18 21  1  0  0  0  0
 18 19  2  0  0  0  0
 21 24  1  1  0  0  0
 22 25  1  0  0  0  0
 22 23  1  0  0  0  0
 22 21  1  0  0  0  0
 23 27  1  6  0  0  0
 23 21  1  0  0  0  0
 23 28  1  0  0  0  0
 26 22  1  0  0  0  0
 28 29  1  0  0  0  0
 30 28  2  0  0  0  0
M  END
>  <minimizedAffinity>
-4.47229195

$$$$

 OpenBabel03242510203D

 30 32  0  0  1  0  0  0  0  0999 V2000
   37.2850   31.3270   37.8840 C   0  0  1  0  0  0  0  0  0  0  0  0
   37.9160   30.1680   37.3770 C   0  0  0  0  0  0  0  0  0  0  0  0
   36.9280   30.0410   38.5500 C   0  0  1  0  0  0  0  0  0  0  0  0
   36.5060   31.8760   37.3250 H   0  0  0  0  0  0  0  0  0  0  0  0
   38.9140   29.7760   37.6170 H   0  0  0  0  0  0  0  0  0  0  0  0
   37.5810   29.7880   36.3780 H   0  0  0  0  0  0  0  0  0  0  0  0
   36.1120   29.3690   38.2530 H   0  0  0  0  0  0  0  0  0  0  0  0
   37.5380   33.3000   39.5430 C   0  0  0  0  0  0  0  0  0  0  0  0
   38.1240   32.3080   38.7060 C   0  0  0  0  0  0  0  0  0  0  0  0
   39.4980   32.2550   38.6280 C   0  0  0  0  0  0  0  0  0  0  0  0
   40.2280   33.1430   39.3430 N   0  0  0  0  0  0  0  0  0  0  0  0
   39.6660   34.0860   40.1380 C   0  0  0  0  0  0  0  0  0  0  0  0
   38.2760   34.1610   40.2360 N   0  0  0  0  0  0  0  0  0  0  0  0
   36.4790   33.3160   39.5830 H   0  0  0  0  0  0  0  0  0  0  0  0
   39.9510   31.5070   37.9980 H   0  0  0  0  0  0  0  0  0  0  0  0
   40.2590   34.7910   40.7060 H   0  0  0  0  0  0  0  0  0  0  0  0
   37.5400   29.7960   39.8180 N   0  0  0  0  0  0  0  0  0  0  0  0
   36.8600   29.8820   41.0190 C   0  0  0  0  0  0  0  0  0  0  0  0
   36.0550   30.7540   41.4450 O   0  0  0  0  0  0  0  0  0  0  0  0
   38.5510   29.5390   39.8660 H   0  0  0  0  0  0  0  0  0  0  0  0
   37.0360   28.7910   42.0650 C   0  0  2  0  0  0  0  0  0  0  0  0
   38.1430   29.0330   43.1410 C   0  0  0  0  0  0  0  0  0  0  0  0
   38.2100   27.9350   42.0940 C   0  0  1  0  0  0  0  0  0  0  0  0
   36.1060   28.4900   42.6100 H   0  0  0  0  0  0  0  0  0  0  0  0
   37.9660   28.6880   44.1540 H   0  0  0  0  0  0  0  0  0  0  0  0
   38.7130   29.9530   43.0450 H   0  0  0  0  0  0  0  0  0  0  0  0
   39.1370   28.0140   41.5600 H   0  0  0  0  0  0  0  0  0  0  0  0
   37.9990   26.5170   42.5880 C   0  0  0  0  0  0  0  0  0  0  0  0
   38.7200   25.8240   42.9830 H   0  0  0  0  0  0  0  0  0  0  0  0
   36.8730   26.0040   42.5700 O   0  0  0  0  0  0  0  0  0  0  0  0
  1  4  1  6  0  0  0
  1  3  1  0  0  0  0
  1  9  1  0  0  0  0
  2  5  1  0  0  0  0
  2  1  1  0  0  0  0
  2  3  1  0  0  0  0
  3  7  1  6  0  0  0
  3 17  1  0  0  0  0
  6  2  1  0  0  0  0
  8 14  1  0  0  0  0
  8 13  1  0  0  0  0
  9  8  2  0  0  0  0
 10  9  1  0  0  0  0
 10 11  2  0  0  0  0
 11 12  1  0  0  0  0
 12 13  2  0  0  0  0
 12 16  1  0  0  0  0
 15 10  1  0  0  0  0
 17 20  1  0  0  0  0
 17 18  1  0  0  0  0
 18 19  2  0  0  0  0
 18 21  1  0  0  0  0
 21 23  1  0  0  0  0
 21 24  1  1  0  0  0
 21 22  1  0  0  0  0
 22 25  1  0  0  0  0
 23 27  1  6  0  0  0
 23 28  1  0  0  0  0
 23 22  1  0  0  0  0
 26 22  1  0  0  0  0
 28 29  1  0  0  0  0
 30 28  2  0  0  0  0
M  END
>  <minimizedAffinity>
-4.37103033

$$$$

 OpenBabel03242510203D

 30 32  0  0  1  0  0  0  0  0999 V2000
   36.9340   31.8830   40.1280 C   0  0  1  0  0  0  0  0  0  0  0  0
   36.5860   30.6460   39.5380 C   0  0  0  0  0  0  0  0  0  0  0  0
   36.8170   30.7220   41.0570 C   0  0  1  0  0  0  0  0  0  0  0  0
   36.2210   32.7210   40.2250 H   0  0  0  0  0  0  0  0  0  0  0  0
   37.2440   29.9190   39.0430 H   0  0  0  0  0  0  0  0  0  0  0  0
   35.5310   30.5180   39.1840 H   0  0  0  0  0  0  0  0  0  0  0  0
   35.9020   30.4000   41.5710 H   0  0  0  0  0  0  0  0  0  0  0  0
   39.1770   31.9610   38.8360 C   0  0  0  0  0  0  0  0  0  0  0  0
   38.3460   32.4260   39.8940 C   0  0  0  0  0  0  0  0  0  0  0  0
   38.8520   33.3840   40.7440 C   0  0  0  0  0  0  0  0  0  0  0  0
   40.1100   33.8400   40.5390 N   0  0  0  0  0  0  0  0  0  0  0  0
   40.9000   33.3940   39.5310 C   0  0  0  0  0  0  0  0  0  0  0  0
   40.4110   32.4240   38.6560 N   0  0  0  0  0  0  0  0  0  0  0  0
   38.7610   31.2240   38.1990 H   0  0  0  0  0  0  0  0  0  0  0  0
   38.2290   33.7420   41.5470 H   0  0  0  0  0  0  0  0  0  0  0  0
   41.9040   33.7650   39.3770 H   0  0  0  0  0  0  0  0  0  0  0  0
   38.0460   30.1420   41.5000 N   0  0  0  0  0  0  0  0  0  0  0  0
   38.1260   29.2330   42.5400 C   0  0  0  0  0  0  0  0  0  0  0  0
   37.5850   29.2390   43.6780 O   0  0  0  0  0  0  0  0  0  0  0  0
   38.9420   30.4020   41.0310 H   0  0  0  0  0  0  0  0  0  0  0  0
   38.9770   27.9810   42.3830 C   0  0  2  0  0  0  0  0  0  0  0  0
   38.3510   26.8160   41.5520 C   0  0  0  0  0  0  0  0  0  0  0  0
   38.6350   26.7310   43.0420 C   0  0  1  0  0  0  0  0  0  0  0  0
   40.0120   28.1460   41.9930 H   0  0  0  0  0  0  0  0  0  0  0  0
   39.0040   26.2150   40.9280 H   0  0  0  0  0  0  0  0  0  0  0  0
   37.3490   26.9840   41.1680 H   0  0  0  0  0  0  0  0  0  0  0  0
   37.7390   26.4420   43.5550 H   0  0  0  0  0  0  0  0  0  0  0  0
   39.7960   25.8490   43.4580 C   0  0  0  0  0  0  0  0  0  0  0  0
   40.7660   26.1360   43.8240 H   0  0  0  0  0  0  0  0  0  0  0  0
   39.7050   24.6160   43.4000 O   0  0  0  0  0  0  0  0  0  0  0  0
  1  4  1  1  0  0  0
  1  3  1  0  0  0  0
  2  1  1  0  0  0  0
  2  3  1  0  0  0  0
  3 17  1  0  0  0  0
  3  7  1  1  0  0  0
  5  2  1  0  0  0  0
  6  2  1  0  0  0  0
  8  9  1  0  0  0  0
  9  1  1  0  0  0  0
  9 10  2  0  0  0  0
 10 15  1  0  0  0  0
 11 10  1  0  0  0  0
 12 11  2  0  0  0  0
 13  8  2  0  0  0  0
 13 12  1  0  0  0  0
 14  8  1  0  0  0  0
 16 12  1  0  0  0  0
 17 18  1  0  0  0  0
 18 19  2  0  0  0  0
 20 17  1  0  0  0  0
 21 24  1  6  0  0  0
 21 18  1  0  0  0  0
 21 23  1  0  0  0  0
 22 21  1  0  0  0  0
 22 23  1  0  0  0  0
 23 28  1  0  0  0  0
 23 27  1  1  0  0  0
 25 22  1  0  0  0  0
 26 22  1  0  0  0  0
 28 29  1  0  0  0  0
 30 28  2  0  0  0  0
M  END
>  <minimizedAffinity>
-4.32125235

$$$$

 OpenBabel03242510203D

 30 32  0  0  1  0  0  0  0  0999 V2000
   37.3780   28.6830   43.3810 C   0  0  1  0  0  0  0  0  0  0  0  0
   36.6060   27.5370   43.6800 C   0  0  0  0  0  0  0  0  0  0  0  0
   38.1270   27.3990   43.4990 C   0  0  1  0  0  0  0  0  0  0  0  0
   37.5680   29.4840   44.1170 H   0  0  0  0  0  0  0  0  0  0  0  0
   36.0350   26.9010   42.9890 H   0  0  0  0  0  0  0  0  0  0  0  0
   36.2000   27.4410   44.7200 H   0  0  0  0  0  0  0  0  0  0  0  0
   38.5570   26.9890   44.4220 H   0  0  0  0  0  0  0  0  0  0  0  0
   38.2480   30.1750   41.4510 C   0  0  0  0  0  0  0  0  0  0  0  0
   37.2720   29.2810   41.9760 C   0  0  0  0  0  0  0  0  0  0  0  0
   36.1870   28.9700   41.1880 C   0  0  0  0  0  0  0  0  0  0  0  0
   36.0940   29.5230   39.9550 N   0  0  0  0  0  0  0  0  0  0  0  0
   37.0250   30.3740   39.4580 C   0  0  0  0  0  0  0  0  0  0  0  0
   38.1350   30.7050   40.2370 N   0  0  0  0  0  0  0  0  0  0  0  0
   39.0710   30.3950   42.0800 H   0  0  0  0  0  0  0  0  0  0  0  0
   35.4430   28.2940   41.5770 H   0  0  0  0  0  0  0  0  0  0  0  0
   36.9420   30.8110   38.4730 H   0  0  0  0  0  0  0  0  0  0  0  0
   38.5250   26.7860   42.2710 N   0  0  0  0  0  0  0  0  0  0  0  0
   38.7990   25.4350   42.1490 C   0  0  0  0  0  0  0  0  0  0  0  0
   39.4730   24.6660   42.8860 O   0  0  0  0  0  0  0  0  0  0  0  0
   38.6210   27.3660   41.4070 H   0  0  0  0  0  0  0  0  0  0  0  0
   38.2360   24.6540   40.9710 C   0  0  2  0  0  0  0  0  0  0  0  0
   36.7160   24.2980   41.0370 C   0  0  0  0  0  0  0  0  0  0  0  0
   37.8280   23.2640   41.0940 C   0  0  1  0  0  0  0  0  0  0  0  0
   38.4280   25.0970   39.9620 H   0  0  0  0  0  0  0  0  0  0  0  0
   36.1420   24.3010   40.1160 H   0  0  0  0  0  0  0  0  0  0  0  0
   36.1860   24.6190   41.9290 H   0  0  0  0  0  0  0  0  0  0  0  0
   37.6980   22.6560   41.9680 H   0  0  0  0  0  0  0  0  0  0  0  0
   38.0070   22.3980   39.8620 C   0  0  0  0  0  0  0  0  0  0  0  0
   37.3170   21.7020   39.4190 H   0  0  0  0  0  0  0  0  0  0  0  0
   39.0630   22.4290   39.2170 O   0  0  0  0  0  0  0  0  0  0  0  0
  1  3  1  0  0  0  0
  1  2  1  0  0  0  0
  1  4  1  1  0  0  0
  2  6  1  0  0  0  0
  3  2  1  0  0  0  0
  3  7  1  1  0  0  0
  5  2  1  0  0  0  0
  8  9  1  0  0  0  0
  8 14  1  0  0  0  0
  9  1  1  0  0  0  0
 10 15  1  0  0  0  0
 10  9  2  0  0  0  0
 11 10  1  0  0  0  0
 12 11  2  0  0  0  0
 12 13  1  0  0  0  0
 13  8  2  0  0  0  0
 16 12  1  0  0  0  0
 17  3  1  0  0  0  0
 18 17  1  0  0  0  0
 18 19  2  0  0  0  0
 20 17  1  0  0  0  0
 21 24  1  6  0  0  0
 21 22  1  0  0  0  0
 21 23  1  0  0  0  0
 21 18  1  0  0  0  0
 22 23  1  0  0  0  0
 22 26  1  0  0  0  0
 23 27  1  1  0  0  0
 25 22  1  0  0  0  0
 28 23  1  0  0  0  0
 29 28  1  0  0  0  0
 30 28  2  0  0  0  0
M  END
>  <minimizedAffinity>
-4.26063204

$$$$

 OpenBabel03242510203D

 30 32  0  0  1  0  0  0  0  0999 V2000
   37.1200   26.6550   42.8300 C   0  0  1  0  0  0  0  0  0  0  0  0
   37.8290   27.6330   43.5640 C   0  0  0  0  0  0  0  0  0  0  0  0
   36.5990   28.0490   42.7390 C   0  0  1  0  0  0  0  0  0  0  0  0
   36.4980   25.8800   43.3120 H   0  0  0  0  0  0  0  0  0  0  0  0
   38.7390   28.1750   43.2750 H   0  0  0  0  0  0  0  0  0  0  0  0
   37.7210   27.6250   44.6790 H   0  0  0  0  0  0  0  0  0  0  0  0
   35.8590   28.5040   43.4110 H   0  0  0  0  0  0  0  0  0  0  0  0
   39.1690   26.1680   41.3220 C   0  0  0  0  0  0  0  0  0  0  0  0
   37.7690   26.0880   41.5650 C   0  0  0  0  0  0  0  0  0  0  0  0
   36.9770   25.4960   40.6060 C   0  0  0  0  0  0  0  0  0  0  0  0
   37.5600   25.0180   39.4810 N   0  0  0  0  0  0  0  0  0  0  0  0
   38.8940   25.0960   39.2530 C   0  0  0  0  0  0  0  0  0  0  0  0
   39.7180   25.6920   40.2090 N   0  0  0  0  0  0  0  0  0  0  0  0
   39.7520   26.6290   42.0780 H   0  0  0  0  0  0  0  0  0  0  0  0
   35.9150   25.4300   40.7820 H   0  0  0  0  0  0  0  0  0  0  0  0
   39.3500   24.7120   38.3510 H   0  0  0  0  0  0  0  0  0  0  0  0
   36.9040   28.7590   41.5370 N   0  0  0  0  0  0  0  0  0  0  0  0
   35.9490   29.4110   40.7760 C   0  0  0  0  0  0  0  0  0  0  0  0
   34.8040   29.0390   40.4040 O   0  0  0  0  0  0  0  0  0  0  0  0
   37.8900   28.8020   41.1940 H   0  0  0  0  0  0  0  0  0  0  0  0
   36.2260   30.8160   40.2610 C   0  0  2  0  0  0  0  0  0  0  0  0
   36.8590   30.9210   38.8360 C   0  0  0  0  0  0  0  0  0  0  0  0
   37.5780   31.3280   40.1110 C   0  0  1  0  0  0  0  0  0  0  0  0
   35.3570   31.5200   40.2890 H   0  0  0  0  0  0  0  0  0  0  0  0
   36.5620   31.7440   38.1960 H   0  0  0  0  0  0  0  0  0  0  0  0
   37.0700   29.9800   38.3340 H   0  0  0  0  0  0  0  0  0  0  0  0
   38.5210   30.8180   40.1610 H   0  0  0  0  0  0  0  0  0  0  0  0
   37.7640   32.8160   40.3340 C   0  0  0  0  0  0  0  0  0  0  0  0
   37.1280   33.6290   40.0330 H   0  0  0  0  0  0  0  0  0  0  0  0
   38.7580   33.2450   40.9350 O   0  0  0  0  0  0  0  0  0  0  0  0
  1  4  1  1  0  0  0
  1  2  1  0  0  0  0
  2  6  1  0  0  0  0
  3  1  1  0  0  0  0
  3  7  1  1  0  0  0
  3  2  1  0  0  0  0
  5  2  1  0  0  0  0
  8  9  1  0  0  0  0
  8 14  1  0  0  0  0
  9  1  1  0  0  0  0
 10 15  1  0  0  0  0
 10  9  2  0  0  0  0
 11 10  1  0  0  0  0
 12 11  2  0  0  0  0
 12 13  1  0  0  0  0
 13  8  2  0  0  0  0
 16 12  1  0  0  0  0
 17  3  1  0  0  0  0
 18 17  1  0  0  0  0
 19 18  2  0  0  0  0
 20 17  1  0  0  0  0
 21 24  1  1  0  0  0
 21 18  1  0  0  0  0
 22 23  1  0  0  0  0
 22 21  1  0  0  0  0
 23 27  1  1  0  0  0
 23 21  1  0  0  0  0
 23 28  1  0  0  0  0
 25 22  1  0  0  0  0
 26 22  1  0  0  0  0
 28 30  2  0  0  0  0
 29 28  1  0  0  0  0
M  END
>  <minimizedAffinity>
-4.24222708

$$$$

 OpenBabel03242510203D

 30 32  0  0  1  0  0  0  0  0999 V2000
   38.1830   27.4200   43.1600 C   0  0  1  0  0  0  0  0  0  0  0  0
   38.6720   28.6840   42.7580 C   0  0  0  0  0  0  0  0  0  0  0  0
   37.1930   28.5360   43.1540 C   0  0  1  0  0  0  0  0  0  0  0  0
   38.4570   26.9520   44.1220 H   0  0  0  0  0  0  0  0  0  0  0  0
   38.8030   29.0700   41.7380 H   0  0  0  0  0  0  0  0  0  0  0  0
   39.3420   29.2320   43.4690 H   0  0  0  0  0  0  0  0  0  0  0  0
   36.9810   29.2110   43.9930 H   0  0  0  0  0  0  0  0  0  0  0  0
   38.7190   26.3490   40.8630 C   0  0  0  0  0  0  0  0  0  0  0  0
   37.9970   26.3410   42.0900 C   0  0  0  0  0  0  0  0  0  0  0  0
   37.0850   25.3310   42.3000 C   0  0  0  0  0  0  0  0  0  0  0  0
   36.9140   24.3950   41.3370 N   0  0  0  0  0  0  0  0  0  0  0  0
   37.6020   24.4060   40.1690 C   0  0  0  0  0  0  0  0  0  0  0  0
   38.5330   25.4190   39.9320 N   0  0  0  0  0  0  0  0  0  0  0  0
   39.4130   27.1390   40.7310 H   0  0  0  0  0  0  0  0  0  0  0  0
   36.5340   25.3160   43.2260 H   0  0  0  0  0  0  0  0  0  0  0  0
   37.4580   23.6540   39.4050 H   0  0  0  0  0  0  0  0  0  0  0  0
   36.2790   28.5610   42.0550 N   0  0  0  0  0  0  0  0  0  0  0  0
   36.2170   29.6000   41.1430 C   0  0  0  0  0  0  0  0  0  0  0  0
   36.2210   30.8480   41.3200 O   0  0  0  0  0  0  0  0  0  0  0  0
   35.6150   27.7680   41.9130 H   0  0  0  0  0  0  0  0  0  0  0  0
   36.1350   29.2930   39.6550 C   0  0  2  0  0  0  0  0  0  0  0  0
   34.7110   28.9970   39.0840 C   0  0  0  0  0  0  0  0  0  0  0  0
   35.8200   27.9620   39.1600 C   0  0  1  0  0  0  0  0  0  0  0  0
   36.6120   30.0460   38.9790 H   0  0  0  0  0  0  0  0  0  0  0  0
   34.4730   29.3390   38.0820 H   0  0  0  0  0  0  0  0  0  0  0  0
   33.8940   29.0160   39.7990 H   0  0  0  0  0  0  0  0  0  0  0  0
   35.4590   27.0980   39.6820 H   0  0  0  0  0  0  0  0  0  0  0  0
   36.4620   27.5630   37.8460 C   0  0  0  0  0  0  0  0  0  0  0  0
   37.0550   28.1590   37.1740 H   0  0  0  0  0  0  0  0  0  0  0  0
   36.3360   26.4130   37.4050 O   0  0  0  0  0  0  0  0  0  0  0  0
  1  4  1  1  0  0  0
  2  3  1  0  0  0  0
  2  1  1  0  0  0  0
  2  6  1  0  0  0  0
  3  1  1  0  0  0  0
  3  7  1  1  0  0  0
  5  2  1  0  0  0  0
  8  9  1  0  0  0  0
  9 10  2  0  0  0  0
  9  1  1  0  0  0  0
 10 15  1  0  0  0  0
 11 10  1  0  0  0  0
 12 11  2  0  0  0  0
 13 12  1  0  0  0  0
 13  8  2  0  0  0  0
 14  8  1  0  0  0  0
 16 12  1  0  0  0  0
 17  3  1  0  0  0  0
 18 19  2  0  0  0  0
 18 17  1  0  0  0  0
 20 17  1  0  0  0  0
 21 24  1  6  0  0  0
 21 18  1  0  0  0  0
 22 23  1  0  0  0  0
 22 21  1  0  0  0  0
 22 26  1  0  0  0  0
 23 21  1  0  0  0  0
 23 27  1  1  0  0  0
 25 22  1  0  0  0  0
 28 23  1  0  0  0  0
 29 28  1  0  0  0  0
 30 28  2  0  0  0  0
M  END
>  <minimizedAffinity>
-4.16575766

$$$$

 OpenBabel03242510203D

 30 32  0  0  1  0  0  0  0  0999 V2000
   36.2470   27.4150   39.3620 C   0  0  1  0  0  0  0  0  0  0  0  0
   35.4160   28.5010   39.0040 C   0  0  0  0  0  0  0  0  0  0  0  0
   36.7840   28.3380   38.3210 C   0  0  1  0  0  0  0  0  0  0  0  0
   36.0180   26.3700   39.0850 H   0  0  0  0  0  0  0  0  0  0  0  0
   35.3050   29.4700   39.5100 H   0  0  0  0  0  0  0  0  0  0  0  0
   34.5050   28.2780   38.3910 H   0  0  0  0  0  0  0  0  0  0  0  0
   36.6310   28.2440   37.2380 H   0  0  0  0  0  0  0  0  0  0  0  0
   36.5150   28.3140   41.7760 C   0  0  0  0  0  0  0  0  0  0  0  0
   36.9400   27.4520   40.7260 C   0  0  0  0  0  0  0  0  0  0  0  0
   38.0310   26.6420   40.9530 C   0  0  0  0  0  0  0  0  0  0  0  0
   38.6490   26.7000   42.1560 N   0  0  0  0  0  0  0  0  0  0  0  0
   38.2420   27.5240   43.1530 C   0  0  0  0  0  0  0  0  0  0  0  0
   37.1400   28.3540   42.9490 N   0  0  0  0  0  0  0  0  0  0  0  0
   35.6740   28.9250   41.5710 H   0  0  0  0  0  0  0  0  0  0  0  0
   38.3590   25.9850   40.1640 H   0  0  0  0  0  0  0  0  0  0  0  0
   38.7430   27.5630   44.1110 H   0  0  0  0  0  0  0  0  0  0  0  0
   37.7790   29.2680   38.7550 N   0  0  0  0  0  0  0  0  0  0  0  0
   37.7980   30.5960   38.3680 C   0  0  0  0  0  0  0  0  0  0  0  0
   37.6360   31.1220   37.2340 O   0  0  0  0  0  0  0  0  0  0  0  0
   38.5400   28.9530   39.3980 H   0  0  0  0  0  0  0  0  0  0  0  0
   38.0410   31.6810   39.4060 C   0  0  2  0  0  0  0  0  0  0  0  0
   36.9060   31.9040   40.4570 C   0  0  0  0  0  0  0  0  0  0  0  0
   37.2940   32.9290   39.4050 C   0  0  1  0  0  0  0  0  0  0  0  0
   39.0030   31.6030   39.9720 H   0  0  0  0  0  0  0  0  0  0  0  0
   37.1820   32.1640   41.4730 H   0  0  0  0  0  0  0  0  0  0  0  0
   36.0240   31.2780   40.3500 H   0  0  0  0  0  0  0  0  0  0  0  0
   36.4200   33.2110   38.8500 H   0  0  0  0  0  0  0  0  0  0  0  0
   38.0320   34.1570   39.9000 C   0  0  0  0  0  0  0  0  0  0  0  0
   37.8990   35.1860   39.6170 H   0  0  0  0  0  0  0  0  0  0  0  0
   38.9300   34.0550   40.7470 O   0  0  0  0  0  0  0  0  0  0  0  0
  1  4  1  6  0  0  0
  1  9  1  0  0  0  0
  2  1  1  0  0  0  0
  2  5  1  0  0  0  0
  3  7  1  6  0  0  0
  3 17  1  0  0  0  0
  3  2  1  0  0  0  0
  3  1  1  0  0  0  0
  6  2  1  0  0  0  0
  8 13  1  0  0  0  0
  9 10  1  0  0  0  0
  9  8  2  0  0  0  0
 10 11  2  0  0  0  0
 11 12  1  0  0  0  0
 12 16  1  0  0  0  0
 13 12  2  0  0  0  0
 14  8  1  0  0  0  0
 15 10  1  0  0  0  0
 17 20  1  0  0  0  0
 18 17  1  0  0  0  0
 18 21  1  0  0  0  0
 19 18  2  0  0  0  0
 21 24  1  1  0  0  0
 21 22  1  0  0  0  0
 22 25  1  0  0  0  0
 23 27  1  6  0  0  0
 23 21  1  0  0  0  0
 23 28  1  0  0  0  0
 23 22  1  0  0  0  0
 26 22  1  0  0  0  0
 28 30  2  0  0  0  0
 29 28  1  0  0  0  0
M  END
>  <minimizedAffinity>
-4.15786409

$$$$

 OpenBabel03242510203D

 30 32  0  0  1  0  0  0  0  0999 V2000
   38.0060   27.2310   43.4670 C   0  0  1  0  0  0  0  0  0  0  0  0
   36.6320   27.5110   43.2930 C   0  0  0  0  0  0  0  0  0  0  0  0
   37.3370   26.5520   42.3200 C   0  0  1  0  0  0  0  0  0  0  0  0
   38.3910   26.6190   44.3020 H   0  0  0  0  0  0  0  0  0  0  0  0
   36.1700   28.3700   42.7860 H   0  0  0  0  0  0  0  0  0  0  0  0
   35.9140   27.0630   44.0270 H   0  0  0  0  0  0  0  0  0  0  0  0
   36.8330   25.5770   42.3560 H   0  0  0  0  0  0  0  0  0  0  0  0
   40.4080   28.0560   42.9590 C   0  0  0  0  0  0  0  0  0  0  0  0
   39.0180   28.3230   43.1130 C   0  0  0  0  0  0  0  0  0  0  0  0
   38.5860   29.6210   42.9560 C   0  0  0  0  0  0  0  0  0  0  0  0
   39.4940   30.5820   42.6640 N   0  0  0  0  0  0  0  0  0  0  0  0
   40.8180   30.3240   42.5190 C   0  0  0  0  0  0  0  0  0  0  0  0
   41.2810   29.0170   42.6730 N   0  0  0  0  0  0  0  0  0  0  0  0
   40.7100   27.0490   43.0860 H   0  0  0  0  0  0  0  0  0  0  0  0
   37.5350   29.8330   43.0690 H   0  0  0  0  0  0  0  0  0  0  0  0
   41.5350   31.0990   42.2870 H   0  0  0  0  0  0  0  0  0  0  0  0
   37.5920   27.1020   41.0250 N   0  0  0  0  0  0  0  0  0  0  0  0
   36.7840   26.8660   39.9270 C   0  0  0  0  0  0  0  0  0  0  0  0
   36.2740   25.7960   39.5000 O   0  0  0  0  0  0  0  0  0  0  0  0
   38.4240   27.7160   40.8760 H   0  0  0  0  0  0  0  0  0  0  0  0
   36.3810   28.0230   39.0240 C   0  0  2  0  0  0  0  0  0  0  0  0
   35.2920   28.9930   39.5830 C   0  0  0  0  0  0  0  0  0  0  0  0
   35.0770   28.0830   38.3860 C   0  0  1  0  0  0  0  0  0  0  0  0
   37.2230   28.6550   38.6450 H   0  0  0  0  0  0  0  0  0  0  0  0
   35.3660   30.0490   39.3470 H   0  0  0  0  0  0  0  0  0  0  0  0
   34.8930   28.7530   40.5650 H   0  0  0  0  0  0  0  0  0  0  0  0
   34.1990   27.4890   38.5490 H   0  0  0  0  0  0  0  0  0  0  0  0
   35.0210   28.7560   37.0280 C   0  0  0  0  0  0  0  0  0  0  0  0
   34.3090   28.6190   36.2340 H   0  0  0  0  0  0  0  0  0  0  0  0
   35.8750   29.5910   36.7020 O   0  0  0  0  0  0  0  0  0  0  0  0
  1  4  1  1  0  0  0
  2  1  1  0  0  0  0
  2  6  1  0  0  0  0
  3  7  1  1  0  0  0
  3  2  1  0  0  0  0
  3  1  1  0  0  0  0
  5  2  1  0  0  0  0
  8 14  1  0  0  0  0
  8  9  1  0  0  0  0
  9  1  1  0  0  0  0
 10 15  1  0  0  0  0
 10  9  2  0  0  0  0
 11 10  1  0  0  0  0
 12 11  2  0  0  0  0
 12 13  1  0  0  0  0
 13  8  2  0  0  0  0
 16 12  1  0  0  0  0
 17  3  1  0  0  0  0
 18 17  1  0  0  0  0
 19 18  2  0  0  0  0
 20 17  1  0  0  0  0
 21 24  1  6  0  0  0
 21 22  1  0  0  0  0
 21 18  1  0  0  0  0
 22 26  1  0  0  0  0
 23 27  1  1  0  0  0
 23 21  1  0  0  0  0
 23 22  1  0  0  0  0
 25 22  1  0  0  0  0
 28 23  1  0  0  0  0
 29 28  1  0  0  0  0
 30 28  2  0  0  0  0
M  END
>  <minimizedAffinity>
-4.11458349

$$$$

 OpenBabel03242510203D

 30 32  0  0  1  0  0  0  0  0999 V2000
   37.2520   30.7890   37.5560 C   0  0  1  0  0  0  0  0  0  0  0  0
   37.7400   29.4790   37.3480 C   0  0  0  0  0  0  0  0  0  0  0  0
   36.3320   29.6770   37.9340 C   0  0  1  0  0  0  0  0  0  0  0  0
   36.9690   31.4600   36.7250 H   0  0  0  0  0  0  0  0  0  0  0  0
   38.3940   28.8830   38.0010 H   0  0  0  0  0  0  0  0  0  0  0  0
   37.8100   29.1120   36.2920 H   0  0  0  0  0  0  0  0  0  0  0  0
   35.6020   29.1940   37.2720 H   0  0  0  0  0  0  0  0  0  0  0  0
   39.0210   31.2150   39.3990 C   0  0  0  0  0  0  0  0  0  0  0  0
   37.8390   31.6070   38.7080 C   0  0  0  0  0  0  0  0  0  0  0  0
   37.1990   32.7550   39.1180 C   0  0  0  0  0  0  0  0  0  0  0  0
   37.7160   33.4580   40.1530 N   0  0  0  0  0  0  0  0  0  0  0  0
   38.8420   33.0810   40.8090 C   0  0  0  0  0  0  0  0  0  0  0  0
   39.5100   31.9220   40.4130 N   0  0  0  0  0  0  0  0  0  0  0  0
   39.4910   30.3270   39.0610 H   0  0  0  0  0  0  0  0  0  0  0  0
   36.3040   33.0600   38.6000 H   0  0  0  0  0  0  0  0  0  0  0  0
   39.2470   33.6500   41.6350 H   0  0  0  0  0  0  0  0  0  0  0  0
   36.2260   29.3950   39.3310 N   0  0  0  0  0  0  0  0  0  0  0  0
   36.5070   28.1560   39.8800 C   0  0  0  0  0  0  0  0  0  0  0  0
   36.1790   26.9990   39.5030 O   0  0  0  0  0  0  0  0  0  0  0  0
   35.9220   30.1450   39.9910 H   0  0  0  0  0  0  0  0  0  0  0  0
   37.3500   28.0650   41.1430 C   0  0  2  0  0  0  0  0  0  0  0  0
   36.5710   27.9100   42.4890 C   0  0  0  0  0  0  0  0  0  0  0  0
   37.3870   29.1380   42.1230 C   0  0  1  0  0  0  0  0  0  0  0  0
   38.1510   27.2830   41.1340 H   0  0  0  0  0  0  0  0  0  0  0  0
   37.0000   27.2920   43.2690 H   0  0  0  0  0  0  0  0  0  0  0  0
   35.4870   27.9000   42.4170 H   0  0  0  0  0  0  0  0  0  0  0  0
   36.7710   30.0110   42.2160 H   0  0  0  0  0  0  0  0  0  0  0  0
   38.6940   29.3260   42.8680 C   0  0  0  0  0  0  0  0  0  0  0  0
   39.1830   30.2390   43.1560 H   0  0  0  0  0  0  0  0  0  0  0  0
   39.3590   28.3470   43.2330 O   0  0  0  0  0  0  0  0  0  0  0  0
  1  4  1  6  0  0  0
  1  3  1  0  0  0  0
  1  9  1  0  0  0  0
  2  1  1  0  0  0  0
  2  3  1  0  0  0  0
  2  5  1  0  0  0  0
  3  7  1  6  0  0  0
  3 17  1  0  0  0  0
  6  2  1  0  0  0  0
  8 13  1  0  0  0  0
  9 10  1  0  0  0  0
  9  8  2  0  0  0  0
 10 11  2  0  0  0  0
 11 12  1  0  0  0  0
 12 16  1  0  0  0  0
 13 12  2  0  0  0  0
 14  8  1  0  0  0  0
 15 10  1  0  0  0  0
 17 18  1  0  0  0  0
 17 20  1  0  0  0  0
 18 21  1  0  0  0  0
 19 18  2  0  0  0  0
 21 24  1  6  0  0  0
 21 23  1  0  0  0  0
 21 22  1  0  0  0  0
 22 25  1  0  0  0  0
 23 27  1  6  0  0  0
 23 22  1  0  0  0  0
 23 28  1  0  0  0  0
 26 22  1  0  0  0  0
 28 29  1  0  0  0  0
 28 30  2  0  0  0  0
M  END
>  <minimizedAffinity>
-4.11184072

$$$$
