
 OpenBabel03252505473D

 22 23  0  0  1  0  0  0  0  0999 V2000
   37.0840   27.5030   42.6570 C   0  0  1  0  0  0  0  0  0  0  0  0
   37.9480   26.3990   41.9710 C   0  0  1  0  0  0  0  0  0  0  0  0
   38.2860   27.0520   43.2830 C   0  0  0  0  0  0  0  0  0  0  0  0
   36.0930   27.1380   43.0200 H   0  0  0  0  0  0  0  0  0  0  0  0
   38.5080   26.6630   41.0780 H   0  0  0  0  0  0  0  0  0  0  0  0
   39.2300   27.6580   43.2380 H   0  0  0  0  0  0  0  0  0  0  0  0
   38.2580   26.4310   44.1880 H   0  0  0  0  0  0  0  0  0  0  0  0
   36.9830   28.7120   41.8240 C   0  0  0  0  0  0  0  0  0  0  0  0
   35.8270   28.8820   41.0150 C   0  0  0  0  0  0  0  0  0  0  0  0
   35.6750   30.0170   40.2110 C   0  0  0  0  0  0  0  0  0  0  0  0
   36.7000   30.9200   40.2720 N   0  0  0  0  0  0  0  0  0  0  0  0
   37.7860   30.7270   41.0540 C   0  0  0  0  0  0  0  0  0  0  0  0
   37.9170   29.6480   41.8080 N   0  0  0  0  0  0  0  0  0  0  0  0
   35.0410   28.1410   41.0000 H   0  0  0  0  0  0  0  0  0  0  0  0
   34.7950   30.1440   39.5960 H   0  0  0  0  0  0  0  0  0  0  0  0
   38.8370   31.7450   41.0570 C   0  0  0  0  0  0  0  0  0  0  0  0
   39.8900   31.4930   41.0980 H   0  0  0  0  0  0  0  0  0  0  0  0
   38.5500   32.9690   41.0120 O   0  0  0  0  0  0  0  0  0  0  0  0
   37.3630   25.0130   42.0880 C   0  0  0  0  0  0  0  0  0  0  0  0
   36.2410   24.9850   42.8860 F   0  0  0  0  0  0  0  0  0  0  0  0
   36.9750   24.5930   40.8050 F   0  0  0  0  0  0  0  0  0  0  0  0
   38.3160   24.1150   42.5110 F   0  0  0  0  0  0  0  0  0  0  0  0
  1  4  1  1  0  0  0
  1  3  1  0  0  0  0
  2  5  1  6  0  0  0
  2 19  1  0  0  0  0
  2  1  1  0  0  0  0
  2  3  1  0  0  0  0
  3  7  1  0  0  0  0
  6  3  1  0  0  0  0
  8  1  1  0  0  0  0
  9  8  2  0  0  0  0
 10 11  2  0  0  0  0
 10  9  1  0  0  0  0
 11 12  1  0  0  0  0
 12 16  1  0  0  0  0
 12 13  2  0  0  0  0
 13  8  1  0  0  0  0
 14  9  1  0  0  0  0
 15 10  1  0  0  0  0
 16 17  1  0  0  0  0
 18 16  2  0  0  0  0
 19 22  1  0  0  0  0
 19 20  1  0  0  0  0
 21 19  1  0  0  0  0
M  END
>  <minimizedAffinity>
-4.40413284

$$$$

 OpenBabel03252505473D

 22 23  0  0  1  0  0  0  0  0999 V2000
   37.7130   28.1870   43.0320 C   0  0  1  0  0  0  0  0  0  0  0  0
   38.2560   26.9410   42.2660 C   0  0  1  0  0  0  0  0  0  0  0  0
   38.6230   27.2960   43.6800 C   0  0  0  0  0  0  0  0  0  0  0  0
   36.6210   28.1350   43.2590 H   0  0  0  0  0  0  0  0  0  0  0  0
   38.9750   27.0980   41.4660 H   0  0  0  0  0  0  0  0  0  0  0  0
   39.7080   27.5540   43.7960 H   0  0  0  0  0  0  0  0  0  0  0  0
   38.2870   26.6250   44.4820 H   0  0  0  0  0  0  0  0  0  0  0  0
   38.1070   29.4440   42.3750 C   0  0  0  0  0  0  0  0  0  0  0  0
   39.3530   30.0300   42.7260 C   0  0  0  0  0  0  0  0  0  0  0  0
   39.7800   31.2190   42.1250 C   0  0  0  0  0  0  0  0  0  0  0  0
   38.9250   31.7490   41.2000 N   0  0  0  0  0  0  0  0  0  0  0  0
   37.7470   31.1640   40.8890 C   0  0  0  0  0  0  0  0  0  0  0  0
   37.3540   30.0400   41.4660 N   0  0  0  0  0  0  0  0  0  0  0  0
   39.9970   29.5750   43.4640 H   0  0  0  0  0  0  0  0  0  0  0  0
   40.7280   31.6630   42.3950 H   0  0  0  0  0  0  0  0  0  0  0  0
   36.8920   31.8000   39.8860 C   0  0  0  0  0  0  0  0  0  0  0  0
   35.8260   31.9310   40.0310 H   0  0  0  0  0  0  0  0  0  0  0  0
   37.3720   32.2250   38.8040 O   0  0  0  0  0  0  0  0  0  0  0  0
   37.2490   25.8240   42.1360 C   0  0  0  0  0  0  0  0  0  0  0  0
   36.6650   25.7900   40.8890 F   0  0  0  0  0  0  0  0  0  0  0  0
   37.9220   24.6040   42.3150 F   0  0  0  0  0  0  0  0  0  0  0  0
   36.3100   25.8920   43.1400 F   0  0  0  0  0  0  0  0  0  0  0  0
  1  4  1  1  0  0  0
  1  3  1  0  0  0  0
  2  5  1  6  0  0  0
  2  1  1  0  0  0  0
  2  3  1  0  0  0  0
  3  6  1  0  0  0  0
  3  7  1  0  0  0  0
  8  9  1  0  0  0  0
  8  1  1  0  0  0  0
  9 14  1  0  0  0  0
 10 15  1  0  0  0  0
 10  9  2  0  0  0  0
 11 10  1  0  0  0  0
 12 11  2  0  0  0  0
 12 13  1  0  0  0  0
 13  8  2  0  0  0  0
 16 17  1  0  0  0  0
 16 12  1  0  0  0  0
 18 16  2  0  0  0  0
 19  2  1  0  0  0  0
 19 21  1  0  0  0  0
 19 22  1  0  0  0  0
 20 19  1  0  0  0  0
M  END
>  <minimizedAffinity>
-4.33713007

$$$$

 OpenBabel03252505473D

 22 23  0  0  1  0  0  0  0  0999 V2000
   38.3820   29.3470   42.9930 C   0  0  1  0  0  0  0  0  0  0  0  0
   38.1090   28.1020   42.0930 C   0  0  1  0  0  0  0  0  0  0  0  0
   38.9310   28.0780   43.3520 C   0  0  0  0  0  0  0  0  0  0  0  0
   37.4730   29.7320   43.5160 H   0  0  0  0  0  0  0  0  0  0  0  0
   38.6020   28.0450   41.1260 H   0  0  0  0  0  0  0  0  0  0  0  0
   40.0110   27.8360   43.1620 H   0  0  0  0  0  0  0  0  0  0  0  0
   38.5430   27.5120   44.2090 H   0  0  0  0  0  0  0  0  0  0  0  0
   39.1150   30.3950   42.2650 C   0  0  0  0  0  0  0  0  0  0  0  0
   40.5060   30.5480   42.5160 C   0  0  0  0  0  0  0  0  0  0  0  0
   41.2520   31.5220   41.8450 C   0  0  0  0  0  0  0  0  0  0  0  0
   40.5530   32.2860   40.9540 N   0  0  0  0  0  0  0  0  0  0  0  0
   39.2290   32.1130   40.7380 C   0  0  0  0  0  0  0  0  0  0  0  0
   38.5340   31.1890   41.3810 N   0  0  0  0  0  0  0  0  0  0  0  0
   41.0170   29.9190   43.2300 H   0  0  0  0  0  0  0  0  0  0  0  0
   42.3100   31.6360   42.0380 H   0  0  0  0  0  0  0  0  0  0  0  0
   38.5590   32.9770   39.7660 C   0  0  0  0  0  0  0  0  0  0  0  0
   39.0720   33.3890   38.9040 H   0  0  0  0  0  0  0  0  0  0  0  0
   37.3450   33.2770   39.8980 O   0  0  0  0  0  0  0  0  0  0  0  0
   36.7150   27.5420   42.2390 C   0  0  0  0  0  0  0  0  0  0  0  0
   35.7720   28.3190   41.6040 F   0  0  0  0  0  0  0  0  0  0  0  0
   36.6870   26.2740   41.6370 F   0  0  0  0  0  0  0  0  0  0  0  0
   36.4050   27.3420   43.5650 F   0  0  0  0  0  0  0  0  0  0  0  0
  1  3  1  0  0  0  0
  1  4  1  1  0  0  0
  2  5  1  6  0  0  0
  2 19  1  0  0  0  0
  2  1  1  0  0  0  0
  2  3  1  0  0  0  0
  3  7  1  0  0  0  0
  6  3  1  0  0  0  0
  8  9  1  0  0  0  0
  8  1  1  0  0  0  0
  9 14  1  0  0  0  0
 10 15  1  0  0  0  0
 10  9  2  0  0  0  0
 11 10  1  0  0  0  0
 12 11  2  0  0  0  0
 12 13  1  0  0  0  0
 13  8  2  0  0  0  0
 16 18  2  0  0  0  0
 16 12  1  0  0  0  0
 17 16  1  0  0  0  0
 19 22  1  0  0  0  0
 20 19  1  0  0  0  0
 21 19  1  0  0  0  0
M  END
>  <minimizedAffinity>
-4.28525162

$$$$

 OpenBabel03252505473D

 22 23  0  0  1  0  0  0  0  0999 V2000
   36.9150   25.6120   42.1360 C   0  0  1  0  0  0  0  0  0  0  0  0
   37.4120   24.9900   40.7950 C   0  0  1  0  0  0  0  0  0  0  0  0
   37.8810   24.5590   42.1570 C   0  0  0  0  0  0  0  0  0  0  0  0
   35.8440   25.3940   42.3640 H   0  0  0  0  0  0  0  0  0  0  0  0
   38.0680   25.5820   40.1610 H   0  0  0  0  0  0  0  0  0  0  0  0
   38.9690   24.7700   42.3300 H   0  0  0  0  0  0  0  0  0  0  0  0
   37.6140   23.5500   42.4970 H   0  0  0  0  0  0  0  0  0  0  0  0
   37.2440   27.0440   42.2280 C   0  0  0  0  0  0  0  0  0  0  0  0
   38.3400   27.4360   43.0440 C   0  0  0  0  0  0  0  0  0  0  0  0
   38.7010   28.7830   43.1590 C   0  0  0  0  0  0  0  0  0  0  0  0
   37.9380   29.6590   42.4390 N   0  0  0  0  0  0  0  0  0  0  0  0
   36.9030   29.2510   41.6710 C   0  0  0  0  0  0  0  0  0  0  0  0
   36.5700   27.9740   41.5720 N   0  0  0  0  0  0  0  0  0  0  0  0
   38.9160   26.7070   43.5950 H   0  0  0  0  0  0  0  0  0  0  0  0
   39.5350   29.0780   43.7810 H   0  0  0  0  0  0  0  0  0  0  0  0
   36.1380   30.2570   40.9350 C   0  0  0  0  0  0  0  0  0  0  0  0
   35.2130   30.0230   40.4210 H   0  0  0  0  0  0  0  0  0  0  0  0
   36.5330   31.4500   40.8710 O   0  0  0  0  0  0  0  0  0  0  0  0
   36.4110   24.0630   40.1490 C   0  0  0  0  0  0  0  0  0  0  0  0
   35.8210   24.6250   39.0380 F   0  0  0  0  0  0  0  0  0  0  0  0
   37.0920   22.9110   39.7230 F   0  0  0  0  0  0  0  0  0  0  0  0
   35.4770   23.6380   41.0650 F   0  0  0  0  0  0  0  0  0  0  0  0
  1  3  1  0  0  0  0
  1  8  1  0  0  0  0
  1  4  1  1  0  0  0
  2  5  1  6  0  0  0
  2  1  1  0  0  0  0
  2  3  1  0  0  0  0
  3  6  1  0  0  0  0
  3  7  1  0  0  0  0
  8  9  1  0  0  0  0
  9 10  2  0  0  0  0
  9 14  1  0  0  0  0
 10 15  1  0  0  0  0
 11 10  1  0  0  0  0
 12 11  2  0  0  0  0
 13 12  1  0  0  0  0
 13  8  2  0  0  0  0
 16 12  1  0  0  0  0
 17 16  1  0  0  0  0
 18 16  2  0  0  0  0
 19  2  1  0  0  0  0
 19 22  1  0  0  0  0
 20 19  1  0  0  0  0
 21 19  1  0  0  0  0
M  END
>  <minimizedAffinity>
-4.23039246

$$$$

 OpenBabel03252505473D

 22 23  0  0  1  0  0  0  0  0999 V2000
   37.7920   28.2260   40.5820 C   0  0  1  0  0  0  0  0  0  0  0  0
   36.5870   28.0230   41.5520 C   0  0  1  0  0  0  0  0  0  0  0  0
   36.9510   27.0800   40.4390 C   0  0  0  0  0  0  0  0  0  0  0  0
   38.7880   28.1320   41.0760 H   0  0  0  0  0  0  0  0  0  0  0  0
   35.7220   28.6740   41.4460 H   0  0  0  0  0  0  0  0  0  0  0  0
   36.1680   27.0280   39.6370 H   0  0  0  0  0  0  0  0  0  0  0  0
   37.3060   26.0770   40.7110 H   0  0  0  0  0  0  0  0  0  0  0  0
   37.6540   29.4620   39.7940 C   0  0  0  0  0  0  0  0  0  0  0  0
   37.0750   29.3770   38.4980 C   0  0  0  0  0  0  0  0  0  0  0  0
   36.9110   30.5220   37.7110 C   0  0  0  0  0  0  0  0  0  0  0  0
   37.3400   31.6900   38.2770 N   0  0  0  0  0  0  0  0  0  0  0  0
   37.8860   31.7340   39.5130 C   0  0  0  0  0  0  0  0  0  0  0  0
   38.0360   30.6440   40.2470 N   0  0  0  0  0  0  0  0  0  0  0  0
   36.7490   28.4320   38.0920 H   0  0  0  0  0  0  0  0  0  0  0  0
   36.4710   30.4550   36.7260 H   0  0  0  0  0  0  0  0  0  0  0  0
   38.3190   33.0280   40.0420 C   0  0  0  0  0  0  0  0  0  0  0  0
   39.2750   33.1640   40.5350 H   0  0  0  0  0  0  0  0  0  0  0  0
   37.5860   34.0450   39.9400 O   0  0  0  0  0  0  0  0  0  0  0  0
   36.9900   27.5590   42.9300 C   0  0  0  0  0  0  0  0  0  0  0  0
   37.7320   28.5050   43.6030 F   0  0  0  0  0  0  0  0  0  0  0  0
   35.8210   27.3370   43.6760 F   0  0  0  0  0  0  0  0  0  0  0  0
   37.6390   26.3480   42.8680 F   0  0  0  0  0  0  0  0  0  0  0  0
  1  4  1  1  0  0  0
  1  2  1  0  0  0  0
  2  5  1  6  0  0  0
  2 19  1  0  0  0  0
  3  1  1  0  0  0  0
  3  7  1  0  0  0  0
  3  2  1  0  0  0  0
  6  3  1  0  0  0  0
  8 13  1  0  0  0  0
  8  1  1  0  0  0  0
  9  8  2  0  0  0  0
 10 11  2  0  0  0  0
 10  9  1  0  0  0  0
 11 12  1  0  0  0  0
 12 16  1  0  0  0  0
 12 13  2  0  0  0  0
 14  9  1  0  0  0  0
 15 10  1  0  0  0  0
 16 17  1  0  0  0  0
 18 16  2  0  0  0  0
 19 20  1  0  0  0  0
 19 21  1  0  0  0  0
 22 19  1  0  0  0  0
M  END
>  <minimizedAffinity>
-4.17785025

$$$$

 OpenBabel03252505473D

 22 23  0  0  1  0  0  0  0  0999 V2000
   37.2040   29.5580   42.1930 C   0  0  1  0  0  0  0  0  0  0  0  0
   38.0260   28.2390   42.0570 C   0  0  1  0  0  0  0  0  0  0  0  0
   38.0750   29.1520   43.2500 C   0  0  0  0  0  0  0  0  0  0  0  0
   36.1030   29.3950   42.2820 H   0  0  0  0  0  0  0  0  0  0  0  0
   38.8590   28.2190   41.3580 H   0  0  0  0  0  0  0  0  0  0  0  0
   39.0810   29.6300   43.3920 H   0  0  0  0  0  0  0  0  0  0  0  0
   37.6780   28.7770   44.2020 H   0  0  0  0  0  0  0  0  0  0  0  0
   37.5600   30.5320   41.1490 C   0  0  0  0  0  0  0  0  0  0  0  0
   36.7090   30.6540   40.0170 C   0  0  0  0  0  0  0  0  0  0  0  0
   36.9950   31.5710   39.0000 C   0  0  0  0  0  0  0  0  0  0  0  0
   38.1250   32.3170   39.1840 N   0  0  0  0  0  0  0  0  0  0  0  0
   38.9130   32.1770   40.2740 C   0  0  0  0  0  0  0  0  0  0  0  0
   38.6310   31.3040   41.2290 N   0  0  0  0  0  0  0  0  0  0  0  0
   35.8240   30.0430   39.9150 H   0  0  0  0  0  0  0  0  0  0  0  0
   36.3460   31.6610   38.1400 H   0  0  0  0  0  0  0  0  0  0  0  0
   40.1050   33.0170   40.3900 C   0  0  0  0  0  0  0  0  0  0  0  0
   40.7780   32.9560   41.2370 H   0  0  0  0  0  0  0  0  0  0  0  0
   40.3960   33.8520   39.4960 O   0  0  0  0  0  0  0  0  0  0  0  0
   37.2030   26.9890   42.2520 C   0  0  0  0  0  0  0  0  0  0  0  0
   36.5490   26.6090   41.1010 F   0  0  0  0  0  0  0  0  0  0  0  0
   38.0710   25.9440   42.6040 F   0  0  0  0  0  0  0  0  0  0  0  0
   36.3340   27.1360   43.3090 F   0  0  0  0  0  0  0  0  0  0  0  0
  1  4  1  1  0  0  0
  1  3  1  0  0  0  0
  2  5  1  6  0  0  0
  2  1  1  0  0  0  0
  2 19  1  0  0  0  0
  2  3  1  0  0  0  0
  3  6  1  0  0  0  0
  3  7  1  0  0  0  0
  8 13  1  0  0  0  0
  8  1  1  0  0  0  0
  9  8  2  0  0  0  0
 10 11  2  0  0  0  0
 10  9  1  0  0  0  0
 11 12  1  0  0  0  0
 12 16  1  0  0  0  0
 12 13  2  0  0  0  0
 14  9  1  0  0  0  0
 15 10  1  0  0  0  0
 16 17  1  0  0  0  0
 18 16  2  0  0  0  0
 19 21  1  0  0  0  0
 19 22  1  0  0  0  0
 20 19  1  0  0  0  0
M  END
>  <minimizedAffinity>
-4.15987968

$$$$

 OpenBabel03252505473D

 22 23  0  0  1  0  0  0  0  0999 V2000
   37.2280   28.8830   40.4520 C   0  0  1  0  0  0  0  0  0  0  0  0
   36.4770   28.7400   41.8120 C   0  0  1  0  0  0  0  0  0  0  0  0
   35.8630   28.4630   40.4670 C   0  0  0  0  0  0  0  0  0  0  0  0
   38.0440   28.1340   40.3070 H   0  0  0  0  0  0  0  0  0  0  0  0
   36.2070   29.6440   42.3520 H   0  0  0  0  0  0  0  0  0  0  0  0
   35.0320   29.1720   40.2130 H   0  0  0  0  0  0  0  0  0  0  0  0
   35.5850   27.4270   40.2330 H   0  0  0  0  0  0  0  0  0  0  0  0
   37.6700   30.2680   40.2170 C   0  0  0  0  0  0  0  0  0  0  0  0
   36.7890   31.1530   39.5370 C   0  0  0  0  0  0  0  0  0  0  0  0
   37.1550   32.4820   39.2960 C   0  0  0  0  0  0  0  0  0  0  0  0
   38.3890   32.8440   39.7590 N   0  0  0  0  0  0  0  0  0  0  0  0
   39.2010   31.9760   40.4030 C   0  0  0  0  0  0  0  0  0  0  0  0
   38.8440   30.7210   40.6230 N   0  0  0  0  0  0  0  0  0  0  0  0
   35.8220   30.8220   39.1900 H   0  0  0  0  0  0  0  0  0  0  0  0
   36.4840   33.1530   38.7780 H   0  0  0  0  0  0  0  0  0  0  0  0
   40.5070   32.4490   40.8640 C   0  0  0  0  0  0  0  0  0  0  0  0
   41.1940   31.8140   41.4110 H   0  0  0  0  0  0  0  0  0  0  0  0
   40.8840   33.6270   40.6380 O   0  0  0  0  0  0  0  0  0  0  0  0
   36.8680   27.5090   42.5930 C   0  0  0  0  0  0  0  0  0  0  0  0
   38.1200   27.6230   43.1540 F   0  0  0  0  0  0  0  0  0  0  0  0
   35.9520   27.3490   43.6450 F   0  0  0  0  0  0  0  0  0  0  0  0
   36.7550   26.3800   41.8150 F   0  0  0  0  0  0  0  0  0  0  0  0
  1  4  1  6  0  0  0
  1  3  1  0  0  0  0
  1  2  1  0  0  0  0
  2  5  1  1  0  0  0
  2 19  1  0  0  0  0
  3  2  1  0  0  0  0
  6  3  1  0  0  0  0
  7  3  1  0  0  0  0
  8  1  1  0  0  0  0
  8 13  1  0  0  0  0
  9  8  2  0  0  0  0
 10  9  1  0  0  0  0
 10 11  2  0  0  0  0
 11 12  1  0  0  0  0
 12 13  2  0  0  0  0
 12 16  1  0  0  0  0
 14  9  1  0  0  0  0
 15 10  1  0  0  0  0
 16 17  1  0  0  0  0
 18 16  2  0  0  0  0
 19 20  1  0  0  0  0
 19 21  1  0  0  0  0
 22 19  1  0  0  0  0
M  END
>  <minimizedAffinity>
-4.15713835

$$$$

 OpenBabel03252505473D

 22 23  0  0  1  0  0  0  0  0999 V2000
   36.5430   29.0890   40.0870 C   0  0  1  0  0  0  0  0  0  0  0  0
   34.9830   29.0940   40.0350 C   0  0  1  0  0  0  0  0  0  0  0  0
   35.8310   30.3190   40.2360 C   0  0  0  0  0  0  0  0  0  0  0  0
   37.0250   28.8360   39.1120 H   0  0  0  0  0  0  0  0  0  0  0  0
   34.4360   28.6720   40.8740 H   0  0  0  0  0  0  0  0  0  0  0  0
   35.6850   30.7890   41.2450 H   0  0  0  0  0  0  0  0  0  0  0  0
   35.8350   31.0780   39.4430 H   0  0  0  0  0  0  0  0  0  0  0  0
   37.0480   28.2790   41.2070 C   0  0  0  0  0  0  0  0  0  0  0  0
   37.5470   28.9500   42.3560 C   0  0  0  0  0  0  0  0  0  0  0  0
   38.0300   28.2280   43.4530 C   0  0  0  0  0  0  0  0  0  0  0  0
   37.9790   26.8680   43.3300 N   0  0  0  0  0  0  0  0  0  0  0  0
   37.4960   26.2620   42.2210 C   0  0  0  0  0  0  0  0  0  0  0  0
   37.0430   26.9570   41.1900 N   0  0  0  0  0  0  0  0  0  0  0  0
   37.5670   30.0280   42.4100 H   0  0  0  0  0  0  0  0  0  0  0  0
   38.4100   28.7410   44.3260 H   0  0  0  0  0  0  0  0  0  0  0  0
   37.4790   24.8000   42.1730 C   0  0  0  0  0  0  0  0  0  0  0  0
   38.2210   24.1930   42.6800 H   0  0  0  0  0  0  0  0  0  0  0  0
   36.5880   24.1850   41.5320 O   0  0  0  0  0  0  0  0  0  0  0  0
   34.4230   28.9360   38.6420 C   0  0  0  0  0  0  0  0  0  0  0  0
   35.0670   29.7380   37.7260 F   0  0  0  0  0  0  0  0  0  0  0  0
   34.6180   27.6040   38.2410 F   0  0  0  0  0  0  0  0  0  0  0  0
   33.0630   29.1420   38.6360 F   0  0  0  0  0  0  0  0  0  0  0  0
  1  4  1  6  0  0  0
  1  3  1  0  0  0  0
  1  8  1  0  0  0  0
  2  1  1  0  0  0  0
  2  3  1  0  0  0  0
  2  5  1  1  0  0  0
  3  6  1  0  0  0  0
  7  3  1  0  0  0  0
  8  9  1  0  0  0  0
  9 14  1  0  0  0  0
  9 10  2  0  0  0  0
 10 15  1  0  0  0  0
 11 10  1  0  0  0  0
 12 11  2  0  0  0  0
 13  8  2  0  0  0  0
 13 12  1  0  0  0  0
 16 12  1  0  0  0  0
 16 17  1  0  0  0  0
 18 16  2  0  0  0  0
 19  2  1  0  0  0  0
 20 19  1  0  0  0  0
 21 19  1  0  0  0  0
 22 19  1  0  0  0  0
M  END
>  <minimizedAffinity>
-4.10847521

$$$$

 OpenBabel03252505473D

 22 23  0  0  1  0  0  0  0  0999 V2000
   36.4030   30.0470   40.4860 C   0  0  1  0  0  0  0  0  0  0  0  0
   37.5260   30.5220   39.5130 C   0  0  1  0  0  0  0  0  0  0  0  0
   36.2100   29.9430   39.0750 C   0  0  0  0  0  0  0  0  0  0  0  0
   35.9210   30.8780   41.0580 H   0  0  0  0  0  0  0  0  0  0  0  0
   38.4300   29.9250   39.4360 H   0  0  0  0  0  0  0  0  0  0  0  0
   36.3210   28.9610   38.5430 H   0  0  0  0  0  0  0  0  0  0  0  0
   35.5080   30.6020   38.5470 H   0  0  0  0  0  0  0  0  0  0  0  0
   36.8590   28.9450   41.3470 C   0  0  0  0  0  0  0  0  0  0  0  0
   37.4070   29.2610   42.6200 C   0  0  0  0  0  0  0  0  0  0  0  0
   37.8470   28.2510   43.4820 C   0  0  0  0  0  0  0  0  0  0  0  0
   37.7060   26.9760   43.0120 N   0  0  0  0  0  0  0  0  0  0  0  0
   37.1790   26.7100   41.7960 C   0  0  0  0  0  0  0  0  0  0  0  0
   36.7680   27.6750   40.9890 N   0  0  0  0  0  0  0  0  0  0  0  0
   37.4980   30.2850   42.9510 H   0  0  0  0  0  0  0  0  0  0  0  0
   38.2640   28.4950   44.4500 H   0  0  0  0  0  0  0  0  0  0  0  0
   37.0660   25.3140   41.3710 C   0  0  0  0  0  0  0  0  0  0  0  0
   36.7950   25.0350   40.3590 H   0  0  0  0  0  0  0  0  0  0  0  0
   37.2840   24.3740   42.1780 O   0  0  0  0  0  0  0  0  0  0  0  0
   37.6270   32.0230   39.3910 C   0  0  0  0  0  0  0  0  0  0  0  0
   37.1480   32.6710   40.5070 F   0  0  0  0  0  0  0  0  0  0  0  0
   38.9840   32.3610   39.2610 F   0  0  0  0  0  0  0  0  0  0  0  0
   37.0120   32.4630   38.2400 F   0  0  0  0  0  0  0  0  0  0  0  0
  1  4  1  1  0  0  0
  1  8  1  0  0  0  0
  2  5  1  6  0  0  0
  2  1  1  0  0  0  0
  3  2  1  0  0  0  0
  3  1  1  0  0  0  0
  6  3  1  0  0  0  0
  7  3  1  0  0  0  0
  8  9  1  0  0  0  0
  9 14  1  0  0  0  0
  9 10  2  0  0  0  0
 10 15  1  0  0  0  0
 11 10  1  0  0  0  0
 12 11  2  0  0  0  0
 13  8  2  0  0  0  0
 13 12  1  0  0  0  0
 16 12  1  0  0  0  0
 16 18  2  0  0  0  0
 17 16  1  0  0  0  0
 19  2  1  0  0  0  0
 19 20  1  0  0  0  0
 21 19  1  0  0  0  0
 22 19  1  0  0  0  0
M  END
>  <minimizedAffinity>
-4.05545855

$$$$
