
 OpenBabel03252505463D

 22 23  0  0  1  0  0  0  0  0999 V2000
   42.7240   34.3490   40.8060 C   0  0  1  0  0  0  0  0  0  0  0  0
   42.4860   35.1010   39.4600 C   0  0  1  0  0  0  0  0  0  0  0  0
   42.5610   33.6060   39.5970 C   0  0  0  0  0  0  0  0  0  0  0  0
   41.8760   34.4380   41.5280 H   0  0  0  0  0  0  0  0  0  0  0  0
   43.3170   35.6450   39.0170 H   0  0  0  0  0  0  0  0  0  0  0  0
   43.4420   33.1630   39.0620 H   0  0  0  0  0  0  0  0  0  0  0  0
   41.6490   33.0260   39.4050 H   0  0  0  0  0  0  0  0  0  0  0  0
   44.0250   34.6960   41.4000 C   0  0  0  0  0  0  0  0  0  0  0  0
   44.0400   35.4550   42.6020 C   0  0  0  0  0  0  0  0  0  0  0  0
   45.2490   35.8030   43.2140 C   0  0  0  0  0  0  0  0  0  0  0  0
   46.3760   35.3620   42.5800 N   0  0  0  0  0  0  0  0  0  0  0  0
   46.3260   34.6400   41.4380 C   0  0  0  0  0  0  0  0  0  0  0  0
   45.1760   34.3180   40.8680 N   0  0  0  0  0  0  0  0  0  0  0  0
   43.1230   35.7820   43.0680 H   0  0  0  0  0  0  0  0  0  0  0  0
   45.2580   36.3820   44.1280 H   0  0  0  0  0  0  0  0  0  0  0  0
   47.5830   34.2080   40.8260 C   0  0  0  0  0  0  0  0  0  0  0  0
   47.9250   33.1810   40.8640 H   0  0  0  0  0  0  0  0  0  0  0  0
   48.3220   35.0280   40.2230 O   0  0  0  0  0  0  0  0  0  0  0  0
   41.0880   35.6530   39.3130 C   0  0  0  0  0  0  0  0  0  0  0  0
   40.9380   36.3940   38.1620 F   0  0  0  0  0  0  0  0  0  0  0  0
   40.1970   34.5700   39.2330 F   0  0  0  0  0  0  0  0  0  0  0  0
   40.7240   36.3650   40.4330 F   0  0  0  0  0  0  0  0  0  0  0  0
  1  8  1  0  0  0  0
  1  4  1  1  0  0  0
  2  5  1  6  0  0  0
  2  3  1  0  0  0  0
  2  1  1  0  0  0  0
  3  1  1  0  0  0  0
  6  3  1  0  0  0  0
  7  3  1  0  0  0  0
  8  9  1  0  0  0  0
  9 14  1  0  0  0  0
  9 10  2  0  0  0  0
 10 15  1  0  0  0  0
 11 10  1  0  0  0  0
 12 11  2  0  0  0  0
 13  8  2  0  0  0  0
 13 12  1  0  0  0  0
 16 17  1  0  0  0  0
 16 12  1  0  0  0  0
 18 16  2  0  0  0  0
 19  2  1  0  0  0  0
 19 22  1  0  0  0  0
 20 19  1  0  0  0  0
 21 19  1  0  0  0  0
M  END
>  <minimizedAffinity>
-4.411376

>  <minimizedRMSD>
5.7478075

$$$$
