
 OpenBabel03252509333D

 34 35  0  0  1  0  0  0  0  0999 V2000
   44.6900   35.1790   45.1640 O   0  0  0  0  0  0  0  0  0  0  0  0
   45.5050   34.1530   44.4510 P   0  0  2  0  0  0  0  0  0  0  0  0
   44.5740   32.9060   43.8210 O   0  0  0  0  0  0  0  0  0  0  0  0
   44.8670   32.6230   42.9380 H   0  0  0  0  0  0  0  0  0  0  0  0
   46.5780   33.4220   45.5440 O   0  0  0  0  0  0  0  0  0  0  0  0
   46.3440   32.0810   45.5390 C   0  0  0  0  0  0  0  0  0  0  0  0
   45.6630   31.6660   44.8110 H   0  0  0  0  0  0  0  0  0  0  0  0
   47.3410   31.5990   45.3160 H   0  0  0  0  0  0  0  0  0  0  0  0
   45.7090   31.9240   49.2020 C   0  0  0  0  0  0  0  0  0  0  0  0
   46.0780   32.4200   47.9450 C   0  0  0  0  0  0  0  0  0  0  0  0
   45.9600   31.5720   46.8580 C   0  0  0  0  0  0  0  0  0  0  0  0
   45.4930   30.3010   47.0700 N   0  0  0  0  0  0  0  0  0  0  0  0
   45.1460   29.8550   48.2950 C   0  0  0  0  0  0  0  0  0  0  0  0
   45.2580   30.6750   49.3480 N   0  0  0  0  0  0  0  0  0  0  0  0
   45.8160   32.6160   50.0190 H   0  0  0  0  0  0  0  0  0  0  0  0
   46.4430   33.4270   47.8110 H   0  0  0  0  0  0  0  0  0  0  0  0
   44.7800   28.8550   48.4500 H   0  0  0  0  0  0  0  0  0  0  0  0
   46.4240   34.9090   43.2620 O   0  0  0  0  0  0  0  0  0  0  0  0
   46.6700   34.0090   42.2260 C   0  0  1  0  0  0  0  0  0  0  0  0
   45.9560   34.3550   40.9480 C   0  0  0  0  0  0  0  0  0  0  0  0
   46.6720   33.4530   39.9600 C   0  0  0  0  0  0  0  0  0  0  0  0
   48.0640   33.2410   40.5140 C   0  0  0  0  0  0  0  0  0  0  0  0
   48.1310   34.1100   41.7800 C   0  0  1  0  0  0  0  0  0  0  0  0
   46.4930   32.9580   42.4830 H   0  0  0  0  0  0  0  0  0  0  0  0
   46.0090   35.4110   40.6920 H   0  0  0  0  0  0  0  0  0  0  0  0
   44.9100   33.9790   41.0030 H   0  0  0  0  0  0  0  0  0  0  0  0
   46.1270   32.5050   39.8050 H   0  0  0  0  0  0  0  0  0  0  0  0
   46.7850   34.0050   39.0000 H   0  0  0  0  0  0  0  0  0  0  0  0
   48.1140   32.1880   40.8620 H   0  0  0  0  0  0  0  0  0  0  0  0
   48.8510   33.5010   39.7870 H   0  0  0  0  0  0  0  0  0  0  0  0
   48.7520   33.6500   42.5510 H   0  0  0  0  0  0  0  0  0  0  0  0
   48.5430   35.4880   41.4890 C   0  0  0  0  0  0  0  0  0  0  0  0
   47.9760   36.1260   40.8290 H   0  0  0  0  0  0  0  0  0  0  0  0
   49.5740   35.9210   42.0250 O   0  0  0  0  0  0  0  0  0  0  0  0
  2  1  2  1  0  0  0
  2  5  1  0  0  0  0
  3  2  1  0  0  0  0
  4  3  1  0  0  0  0
  6  5  1  0  0  0  0
  6 11  1  0  0  0  0
  7  6  1  0  0  0  0
  8  6  1  0  0  0  0
  9 14  1  0  0  0  0
  9 15  1  0  0  0  0
 10  9  2  0  0  0  0
 11 12  2  0  0  0  0
 11 10  1  0  0  0  0
 12 13  1  0  0  0  0
 13 17  1  0  0  0  0
 13 14  2  0  0  0  0
 16 10  1  0  0  0  0
 18  2  1  0  0  0  0
 19 24  1  1  0  0  0
 19 18  1  0  0  0  0
 20 26  1  0  0  0  0
 20 19  1  0  0  0  0
 21 22  1  0  0  0  0
 21 20  1  0  0  0  0
 22 29  1  0  0  0  0
 22 23  1  0  0  0  0
 23 19  1  0  0  0  0
 23 31  1  1  0  0  0
 25 20  1  0  0  0  0
 27 21  1  0  0  0  0
 28 21  1  0  0  0  0
 30 22  1  0  0  0  0
 32 23  1  0  0  0  0
 32 34  2  0  0  0  0
 33 32  1  0  0  0  0
M  END
>  <minimizedAffinity>
-4.916677

>  <minimizedRMSD>
0.788261175

$$$$
