
 OpenBabel03242511153D

 38 41  0  0  1  0  0  0  0  0999 V2000
   36.6980   29.0690   39.5680 N   0  0  0  0  0  0  0  0  0  0  0  0
   36.0590   29.0270   38.7590 H   0  0  0  0  0  0  0  0  0  0  0  0
   36.8420   28.4290   40.8100 C   0  0  0  0  0  0  0  0  0  0  0  0
   37.0960   29.1450   41.9350 C   0  0  0  0  0  0  0  0  0  0  0  0
   37.3420   28.5550   43.1640 C   0  0  0  0  0  0  0  0  0  0  0  0
   37.3400   27.1820   43.2990 C   0  0  0  0  0  0  0  0  0  0  0  0
   37.0820   26.4210   42.1730 C   0  0  0  0  0  0  0  0  0  0  0  0
   37.0790   25.0390   42.2700 C   0  0  0  0  0  0  0  0  0  0  0  0
   36.8320   24.2360   41.1950 C   0  0  0  0  0  0  0  0  0  0  0  0
   36.5790   24.8630   39.9940 C   0  0  0  0  0  0  0  0  0  0  0  0
   36.5870   26.2410   39.9120 C   0  0  0  0  0  0  0  0  0  0  0  0
   36.8400   27.0540   40.9730 C   0  0  0  0  0  0  0  0  0  0  0  0
   37.1100   30.2260   41.8820 H   0  0  0  0  0  0  0  0  0  0  0  0
   37.5370   29.1810   44.0240 H   0  0  0  0  0  0  0  0  0  0  0  0
   37.5260   26.6690   44.2300 H   0  0  0  0  0  0  0  0  0  0  0  0
   37.2790   24.5700   43.2300 H   0  0  0  0  0  0  0  0  0  0  0  0
   36.8440   23.1690   41.3190 H   0  0  0  0  0  0  0  0  0  0  0  0
   36.3770   24.2580   39.1210 H   0  0  0  0  0  0  0  0  0  0  0  0
   36.3120   26.8310   38.7000 O   0  0  0  0  0  0  0  0  0  0  0  0
   36.6350   26.3630   37.8650 H   0  0  0  0  0  0  0  0  0  0  0  0
   37.3000   31.4950   39.0960 C   0  0  1  0  0  0  0  0  0  0  0  0
   37.3150   30.7660   37.7820 C   0  0  0  0  0  0  0  0  0  0  0  0
   37.6200   30.0910   39.1470 C   0  0  2  0  0  0  0  0  0  0  0  0
   36.3280   31.8190   39.4500 H   0  0  0  0  0  0  0  0  0  0  0  0
   38.1830   30.9610   37.1110 H   0  0  0  0  0  0  0  0  0  0  0  0
   36.3700   30.4700   37.3020 H   0  0  0  0  0  0  0  0  0  0  0  0
   38.6840   29.8070   39.2790 H   0  0  0  0  0  0  0  0  0  0  0  0
   39.2380   34.3490   40.4950 C   0  0  0  0  0  0  0  0  0  0  0  0
   40.4660   34.2430   39.7540 C   0  0  0  0  0  0  0  0  0  0  0  0
   40.5830   33.1960   38.8050 C   0  0  0  0  0  0  0  0  0  0  0  0
   39.5610   32.3660   38.6450 N   0  0  0  0  0  0  0  0  0  0  0  0
   38.4160   32.4860   39.3560 C   0  0  0  0  0  0  0  0  0  0  0  0
   38.2380   33.4850   40.2960 N   0  0  0  0  0  0  0  0  0  0  0  0
   39.1480   35.1420   41.2160 H   0  0  0  0  0  0  0  0  0  0  0  0
   41.2750   34.9370   39.9110 H   0  0  0  0  0  0  0  0  0  0  0  0
   41.8150   33.0730   38.0450 C   0  0  0  0  0  0  0  0  0  0  0  0
   42.4000   32.1810   38.1660 H   0  0  0  0  0  0  0  0  0  0  0  0
   42.1790   33.9920   37.2690 O   0  0  0  0  0  0  0  0  0  0  0  0
  1  3  1  0  0  0  0
  2  1  1  0  0  0  0
  3 12  2  0  0  0  0
  3  4  1  0  0  0  0
  4  5  2  0  0  0  0
  5  6  1  0  0  0  0
  5 14  1  0  0  0  0
  6 15  1  0  0  0  0
  7  8  1  0  0  0  0
  7  6  2  0  0  0  0
  8 16  1  0  0  0  0
  9 17  1  0  0  0  0
  9  8  2  0  0  0  0
 10  9  1  0  0  0  0
 11 10  2  0  0  0  0
 11 12  1  0  0  0  0
 12  7  1  0  0  0  0
 13  4  1  0  0  0  0
 18 10  1  0  0  0  0
 19 11  1  0  0  0  0
 20 19  1  0  0  0  0
 21 23  1  0  0  0  0
 21 32  1  0  0  0  0
 21 24  1  1  0  0  0
 22 21  1  0  0  0  0
 22 23  1  0  0  0  0
 23 27  1  1  0  0  0
 23  1  1  0  0  0  0
 25 22  1  0  0  0  0
 26 22  1  0  0  0  0
 28 34  1  0  0  0  0
 29 35  1  0  0  0  0
 29 28  2  0  0  0  0
 30 29  1  0  0  0  0
 31 30  2  0  0  0  0
 31 32  1  0  0  0  0
 32 33  2  0  0  0  0
 33 28  1  0  0  0  0
 36 37  1  0  0  0  0
 36 30  1  0  0  0  0
 38 36  2  0  0  0  0
M  END
>  <minimizedAffinity>
-6.0746398

$$$$

 OpenBabel03242511153D

 38 41  0  0  1  0  0  0  0  0999 V2000
   36.5870   29.8120   42.1860 N   0  0  0  0  0  0  0  0  0  0  0  0
   36.4980   30.4600   42.9830 H   0  0  0  0  0  0  0  0  0  0  0  0
   36.1850   29.7610   40.8420 C   0  0  0  0  0  0  0  0  0  0  0  0
   35.1250   29.0040   40.4610 C   0  0  0  0  0  0  0  0  0  0  0  0
   34.7480   28.8440   39.1370 C   0  0  0  0  0  0  0  0  0  0  0  0
   35.4560   29.4610   38.1250 C   0  0  0  0  0  0  0  0  0  0  0  0
   36.5420   30.2420   38.4770 C   0  0  0  0  0  0  0  0  0  0  0  0
   37.2790   30.8710   37.4870 C   0  0  0  0  0  0  0  0  0  0  0  0
   38.3600   31.6530   37.7710 C   0  0  0  0  0  0  0  0  0  0  0  0
   38.6910   31.7970   39.1030 C   0  0  0  0  0  0  0  0  0  0  0  0
   37.9490   31.1640   40.0780 C   0  0  0  0  0  0  0  0  0  0  0  0
   36.8740   30.3740   39.8080 C   0  0  0  0  0  0  0  0  0  0  0  0
   34.5370   28.4980   41.2160 H   0  0  0  0  0  0  0  0  0  0  0  0
   33.8920   28.2280   38.8980 H   0  0  0  0  0  0  0  0  0  0  0  0
   35.2100   29.3710   37.0780 H   0  0  0  0  0  0  0  0  0  0  0  0
   36.9940   30.7430   36.4460 H   0  0  0  0  0  0  0  0  0  0  0  0
   38.9020   32.1180   36.9700 H   0  0  0  0  0  0  0  0  0  0  0  0
   39.5410   32.4120   39.3660 H   0  0  0  0  0  0  0  0  0  0  0  0
   38.3000   31.3450   41.3950 O   0  0  0  0  0  0  0  0  0  0  0  0
   39.2820   31.4350   41.6130 H   0  0  0  0  0  0  0  0  0  0  0  0
   37.2230   27.3570   42.3960 C   0  0  1  0  0  0  0  0  0  0  0  0
   36.5540   27.7570   43.6790 C   0  0  0  0  0  0  0  0  0  0  0  0
   37.3470   28.7410   42.7760 C   0  0  2  0  0  0  0  0  0  0  0  0
   36.5630   27.1020   41.5740 H   0  0  0  0  0  0  0  0  0  0  0  0
   37.0480   27.4320   44.6240 H   0  0  0  0  0  0  0  0  0  0  0  0
   35.4650   27.9100   43.7140 H   0  0  0  0  0  0  0  0  0  0  0  0
   38.3110   29.0730   43.2130 H   0  0  0  0  0  0  0  0  0  0  0  0
   39.4290   24.3620   42.5380 C   0  0  0  0  0  0  0  0  0  0  0  0
   40.7210   24.9740   42.6970 C   0  0  0  0  0  0  0  0  0  0  0  0
   40.7860   26.3900   42.7460 C   0  0  0  0  0  0  0  0  0  0  0  0
   39.6590   27.0820   42.6440 N   0  0  0  0  0  0  0  0  0  0  0  0
   38.4550   26.4820   42.4940 C   0  0  0  0  0  0  0  0  0  0  0  0
   38.3240   25.1060   42.4390 N   0  0  0  0  0  0  0  0  0  0  0  0
   39.3780   23.2890   42.5000 H   0  0  0  0  0  0  0  0  0  0  0  0
   41.6150   24.3780   42.7770 H   0  0  0  0  0  0  0  0  0  0  0  0
   42.0820   27.0270   42.9080 C   0  0  0  0  0  0  0  0  0  0  0  0
   42.7900   26.5760   43.5760 H   0  0  0  0  0  0  0  0  0  0  0  0
   42.3560   28.0780   42.2770 O   0  0  0  0  0  0  0  0  0  0  0  0
  1 23  1  0  0  0  0
  1  2  1  0  0  0  0
  3  1  1  0  0  0  0
  4  3  1  0  0  0  0
  4 13  1  0  0  0  0
  5  4  2  0  0  0  0
  6  7  2  0  0  0  0
  6  5  1  0  0  0  0
  7 12  1  0  0  0  0
  8  9  2  0  0  0  0
  8  7  1  0  0  0  0
  9 10  1  0  0  0  0
 10 18  1  0  0  0  0
 10 11  2  0  0  0  0
 11 19  1  0  0  0  0
 12 11  1  0  0  0  0
 12  3  2  0  0  0  0
 14  5  1  0  0  0  0
 15  6  1  0  0  0  0
 16  8  1  0  0  0  0
 17  9  1  0  0  0  0
 19 20  1  0  0  0  0
 21 24  1  6  0  0  0
 21 32  1  0  0  0  0
 21 23  1  0  0  0  0
 21 22  1  0  0  0  0
 22 26  1  0  0  0  0
 22 25  1  0  0  0  0
 23 27  1  1  0  0  0
 23 22  1  0  0  0  0
 28 29  1  0  0  0  0
 29 30  2  0  0  0  0
 29 35  1  0  0  0  0
 30 36  1  0  0  0  0
 31 30  1  0  0  0  0
 32 31  2  0  0  0  0
 33 32  1  0  0  0  0
 33 28  2  0  0  0  0
 34 28  1  0  0  0  0
 36 37  1  0  0  0  0
 38 36  2  0  0  0  0
M  END
>  <minimizedAffinity>
-5.93756819

$$$$

 OpenBabel03242511153D

 38 41  0  0  1  0  0  0  0  0999 V2000
   37.6970   29.4770   43.0060 N   0  0  0  0  0  0  0  0  0  0  0  0
   36.8730   29.7000   43.5840 H   0  0  0  0  0  0  0  0  0  0  0  0
   38.6700   30.1760   42.2740 C   0  0  0  0  0  0  0  0  0  0  0  0
   39.9890   30.0420   42.5660 C   0  0  0  0  0  0  0  0  0  0  0  0
   40.9790   30.7820   41.9390 C   0  0  0  0  0  0  0  0  0  0  0  0
   40.6570   31.7110   40.9710 C   0  0  0  0  0  0  0  0  0  0  0  0
   39.3220   31.8730   40.6480 C   0  0  0  0  0  0  0  0  0  0  0  0
   38.9620   32.8010   39.6840 C   0  0  0  0  0  0  0  0  0  0  0  0
   37.6620   33.0060   39.3230 C   0  0  0  0  0  0  0  0  0  0  0  0
   36.7100   32.2390   39.9610 C   0  0  0  0  0  0  0  0  0  0  0  0
   37.0840   31.3190   40.9180 C   0  0  0  0  0  0  0  0  0  0  0  0
   38.3740   31.1100   41.2950 C   0  0  0  0  0  0  0  0  0  0  0  0
   40.2940   29.3270   43.3190 H   0  0  0  0  0  0  0  0  0  0  0  0
   42.0130   30.6270   42.2160 H   0  0  0  0  0  0  0  0  0  0  0  0
   41.3850   32.3150   40.4520 H   0  0  0  0  0  0  0  0  0  0  0  0
   39.7330   33.3900   39.1950 H   0  0  0  0  0  0  0  0  0  0  0  0
   37.4320   33.7390   38.5730 H   0  0  0  0  0  0  0  0  0  0  0  0
   35.6700   32.3730   39.6970 H   0  0  0  0  0  0  0  0  0  0  0  0
   36.1070   30.5600   41.5200 O   0  0  0  0  0  0  0  0  0  0  0  0
   35.2100   30.9940   41.6870 H   0  0  0  0  0  0  0  0  0  0  0  0
   36.8930   27.1830   42.2580 C   0  0  1  0  0  0  0  0  0  0  0  0
   36.4440   27.3730   43.6780 C   0  0  0  0  0  0  0  0  0  0  0  0
   37.7110   28.0390   43.0770 C   0  0  2  0  0  0  0  0  0  0  0  0
   36.2680   27.6350   41.4960 H   0  0  0  0  0  0  0  0  0  0  0  0
   36.6060   26.5170   44.3740 H   0  0  0  0  0  0  0  0  0  0  0  0
   35.6090   28.0520   43.9100 H   0  0  0  0  0  0  0  0  0  0  0  0
   38.6630   27.6260   43.4680 H   0  0  0  0  0  0  0  0  0  0  0  0
   39.1180   24.2060   42.0470 C   0  0  0  0  0  0  0  0  0  0  0  0
   38.3880   23.3750   41.1280 C   0  0  0  0  0  0  0  0  0  0  0  0
   37.1590   23.8660   40.6180 C   0  0  0  0  0  0  0  0  0  0  0  0
   36.7420   25.0630   41.0100 N   0  0  0  0  0  0  0  0  0  0  0  0
   37.4470   25.8250   41.8770 C   0  0  0  0  0  0  0  0  0  0  0  0
   38.6520   25.4040   42.4100 N   0  0  0  0  0  0  0  0  0  0  0  0
   40.0500   23.8350   42.4360 H   0  0  0  0  0  0  0  0  0  0  0  0
   38.7600   22.4080   40.8330 H   0  0  0  0  0  0  0  0  0  0  0  0
   36.4070   23.0430   39.6880 C   0  0  0  0  0  0  0  0  0  0  0  0
   36.9060   22.2110   39.2270 H   0  0  0  0  0  0  0  0  0  0  0  0
   35.2040   23.3050   39.4350 O   0  0  0  0  0  0  0  0  0  0  0  0
  1 23  1  0  0  0  0
  1  2  1  0  0  0  0
  3  4  1  0  0  0  0
  3  1  1  0  0  0  0
  4 13  1  0  0  0  0
  5 14  1  0  0  0  0
  5  4  2  0  0  0  0
  6  5  1  0  0  0  0
  7  6  2  0  0  0  0
  7 12  1  0  0  0  0
  8  7  1  0  0  0  0
  9  8  2  0  0  0  0
  9 10  1  0  0  0  0
 10 11  2  0  0  0  0
 11 12  1  0  0  0  0
 11 19  1  0  0  0  0
 12  3  2  0  0  0  0
 15  6  1  0  0  0  0
 16  8  1  0  0  0  0
 17  9  1  0  0  0  0
 18 10  1  0  0  0  0
 19 20  1  0  0  0  0
 21 24  1  6  0  0  0
 21 23  1  0  0  0  0
 21 22  1  0  0  0  0
 22 26  1  0  0  0  0
 22 25  1  0  0  0  0
 23 27  1  1  0  0  0
 23 22  1  0  0  0  0
 28 33  1  0  0  0  0
 28 34  1  0  0  0  0
 29 28  2  0  0  0  0
 30 31  2  0  0  0  0
 30 29  1  0  0  0  0
 31 32  1  0  0  0  0
 32 21  1  0  0  0  0
 32 33  2  0  0  0  0
 35 29  1  0  0  0  0
 36 30  1  0  0  0  0
 37 36  1  0  0  0  0
 38 36  2  0  0  0  0
M  END
>  <minimizedAffinity>
-5.9138999

$$$$

 OpenBabel03242511153D

 38 41  0  0  1  0  0  0  0  0999 V2000
   36.4050   29.7510   41.5550 N   0  0  0  0  0  0  0  0  0  0  0  0
   36.1770   30.3400   42.3700 H   0  0  0  0  0  0  0  0  0  0  0  0
   36.0650   29.6860   40.1950 C   0  0  0  0  0  0  0  0  0  0  0  0
   35.0720   28.8670   39.7640 C   0  0  0  0  0  0  0  0  0  0  0  0
   34.7640   28.6950   38.4240 C   0  0  0  0  0  0  0  0  0  0  0  0
   35.4720   29.3650   37.4480 C   0  0  0  0  0  0  0  0  0  0  0  0
   36.4910   30.2100   37.8510 C   0  0  0  0  0  0  0  0  0  0  0  0
   37.2270   30.8930   36.8970 C   0  0  0  0  0  0  0  0  0  0  0  0
   38.2430   31.7390   37.2320 C   0  0  0  0  0  0  0  0  0  0  0  0
   38.5080   31.8920   38.5770 C   0  0  0  0  0  0  0  0  0  0  0  0
   37.7660   31.2050   39.5150 C   0  0  0  0  0  0  0  0  0  0  0  0
   36.7570   30.3510   39.1950 C   0  0  0  0  0  0  0  0  0  0  0  0
   34.4870   28.3180   40.4910 H   0  0  0  0  0  0  0  0  0  0  0  0
   33.9590   28.0280   38.1460 H   0  0  0  0  0  0  0  0  0  0  0  0
   35.2780   29.2680   36.3910 H   0  0  0  0  0  0  0  0  0  0  0  0
   36.9950   30.7570   35.8430 H   0  0  0  0  0  0  0  0  0  0  0  0
   38.7880   32.2450   36.4570 H   0  0  0  0  0  0  0  0  0  0  0  0
   39.3050   32.5580   38.8800 H   0  0  0  0  0  0  0  0  0  0  0  0
   38.0490   31.3970   40.8480 O   0  0  0  0  0  0  0  0  0  0  0  0
   39.0130   31.5460   41.1080 H   0  0  0  0  0  0  0  0  0  0  0  0
   36.9270   27.5410   42.7020 C   0  0  1  0  0  0  0  0  0  0  0  0
   37.2400   28.6360   43.6800 C   0  0  0  0  0  0  0  0  0  0  0  0
   37.3210   28.8060   42.1380 C   0  0  2  0  0  0  0  0  0  0  0  0
   35.8860   27.2440   42.6350 H   0  0  0  0  0  0  0  0  0  0  0  0
   38.2060   28.5570   44.2300 H   0  0  0  0  0  0  0  0  0  0  0  0
   36.4260   29.1840   44.1790 H   0  0  0  0  0  0  0  0  0  0  0  0
   38.3570   28.9000   41.7520 H   0  0  0  0  0  0  0  0  0  0  0  0
   39.9030   25.3760   43.2660 C   0  0  0  0  0  0  0  0  0  0  0  0
   39.6260   24.2820   42.3730 C   0  0  0  0  0  0  0  0  0  0  0  0
   38.4290   24.3280   41.6150 C   0  0  0  0  0  0  0  0  0  0  0  0
   37.6230   25.3710   41.7630 N   0  0  0  0  0  0  0  0  0  0  0  0
   37.9050   26.3880   42.6100 C   0  0  0  0  0  0  0  0  0  0  0  0
   39.0560   26.4040   43.3770 N   0  0  0  0  0  0  0  0  0  0  0  0
   40.8100   25.3430   43.8420 H   0  0  0  0  0  0  0  0  0  0  0  0
   40.3060   23.4520   42.2810 H   0  0  0  0  0  0  0  0  0  0  0  0
   38.1320   23.2340   40.7070 C   0  0  0  0  0  0  0  0  0  0  0  0
   38.9490   22.6450   40.3360 H   0  0  0  0  0  0  0  0  0  0  0  0
   36.9460   22.9900   40.3700 O   0  0  0  0  0  0  0  0  0  0  0  0
  1 23  1  0  0  0  0
  1  2  1  0  0  0  0
  3  1  1  0  0  0  0
  4  3  1  0  0  0  0
  4 13  1  0  0  0  0
  5  4  2  0  0  0  0
  6  7  2  0  0  0  0
  6  5  1  0  0  0  0
  7 12  1  0  0  0  0
  8  9  2  0  0  0  0
  8  7  1  0  0  0  0
  9 10  1  0  0  0  0
 10 18  1  0  0  0  0
 10 11  2  0  0  0  0
 11 19  1  0  0  0  0
 12 11  1  0  0  0  0
 12  3  2  0  0  0  0
 14  5  1  0  0  0  0
 15  6  1  0  0  0  0
 16  8  1  0  0  0  0
 17  9  1  0  0  0  0
 19 20  1  0  0  0  0
 21 24  1  6  0  0  0
 21 22  1  0  0  0  0
 22 26  1  0  0  0  0
 22 25  1  0  0  0  0
 23 27  1  6  0  0  0
 23 21  1  0  0  0  0
 23 22  1  0  0  0  0
 28 33  1  0  0  0  0
 28 34  1  0  0  0  0
 29 28  2  0  0  0  0
 30 31  2  0  0  0  0
 30 29  1  0  0  0  0
 31 32  1  0  0  0  0
 32 21  1  0  0  0  0
 32 33  2  0  0  0  0
 35 29  1  0  0  0  0
 36 30  1  0  0  0  0
 37 36  1  0  0  0  0
 38 36  2  0  0  0  0
M  END
>  <minimizedAffinity>
-5.89304733

$$$$

 OpenBabel03242511153D

 38 41  0  0  1  0  0  0  0  0999 V2000
   35.6540   30.5870   41.0490 N   0  0  0  0  0  0  0  0  0  0  0  0
   34.8440   30.7900   41.6530 H   0  0  0  0  0  0  0  0  0  0  0  0
   36.8550   31.2140   40.6790 C   0  0  0  0  0  0  0  0  0  0  0  0
   36.8910   32.0900   39.6420 C   0  0  0  0  0  0  0  0  0  0  0  0
   38.0650   32.6600   39.1770 C   0  0  0  0  0  0  0  0  0  0  0  0
   39.2770   32.3510   39.7610 C   0  0  0  0  0  0  0  0  0  0  0  0
   39.2770   31.4630   40.8210 C   0  0  0  0  0  0  0  0  0  0  0  0
   40.4760   31.1250   41.4280 C   0  0  0  0  0  0  0  0  0  0  0  0
   40.5400   30.2550   42.4770 C   0  0  0  0  0  0  0  0  0  0  0  0
   39.3470   29.7220   42.9170 C   0  0  0  0  0  0  0  0  0  0  0  0
   38.1610   30.0670   42.3030 C   0  0  0  0  0  0  0  0  0  0  0  0
   38.0830   30.9260   41.2510 C   0  0  0  0  0  0  0  0  0  0  0  0
   35.9670   32.3640   39.1490 H   0  0  0  0  0  0  0  0  0  0  0  0
   38.0270   33.3520   38.3470 H   0  0  0  0  0  0  0  0  0  0  0  0
   40.2210   32.7620   39.4400 H   0  0  0  0  0  0  0  0  0  0  0  0
   41.4020   31.5630   41.0620 H   0  0  0  0  0  0  0  0  0  0  0  0
   41.4940   30.0220   42.9120 H   0  0  0  0  0  0  0  0  0  0  0  0
   39.3600   29.0300   43.7490 H   0  0  0  0  0  0  0  0  0  0  0  0
   36.9900   29.5270   42.7830 O   0  0  0  0  0  0  0  0  0  0  0  0
   37.0170   28.5810   43.1340 H   0  0  0  0  0  0  0  0  0  0  0  0
   35.6280   28.8320   39.2070 C   0  0  1  0  0  0  0  0  0  0  0  0
   34.2080   29.2650   39.4330 C   0  0  0  0  0  0  0  0  0  0  0  0
   35.3030   29.2900   40.5340 C   0  0  2  0  0  0  0  0  0  0  0  0
   36.2260   29.4730   38.5690 H   0  0  0  0  0  0  0  0  0  0  0  0
   33.4430   28.4570   39.5020 H   0  0  0  0  0  0  0  0  0  0  0  0
   33.8640   30.2480   39.0780 H   0  0  0  0  0  0  0  0  0  0  0  0
   35.1610   28.5250   41.3250 H   0  0  0  0  0  0  0  0  0  0  0  0
   35.5750   25.3950   37.7780 C   0  0  0  0  0  0  0  0  0  0  0  0
   36.3750   24.6810   38.7370 C   0  0  0  0  0  0  0  0  0  0  0  0
   36.9050   25.4070   39.8350 C   0  0  0  0  0  0  0  0  0  0  0  0
   36.6390   26.7030   39.9270 N   0  0  0  0  0  0  0  0  0  0  0  0
   35.8840   27.3520   39.0110 C   0  0  0  0  0  0  0  0  0  0  0  0
   35.3380   26.7030   37.9180 N   0  0  0  0  0  0  0  0  0  0  0  0
   35.1730   24.8470   36.9450 H   0  0  0  0  0  0  0  0  0  0  0  0
   36.5690   23.6270   38.6280 H   0  0  0  0  0  0  0  0  0  0  0  0
   37.7150   24.7040   40.8140 C   0  0  0  0  0  0  0  0  0  0  0  0
   38.7610   24.9370   40.8700 H   0  0  0  0  0  0  0  0  0  0  0  0
   37.1950   23.8460   41.5720 O   0  0  0  0  0  0  0  0  0  0  0  0
  1  2  1  0  0  0  0
  3  1  1  0  0  0  0
  3 12  1  0  0  0  0
  4  3  2  0  0  0  0
  5  4  1  0  0  0  0
  5  6  2  0  0  0  0
  6  7  1  0  0  0  0
  7 12  2  0  0  0  0
  7  8  1  0  0  0  0
  8  9  2  0  0  0  0
  9 17  1  0  0  0  0
  9 10  1  0  0  0  0
 10 18  1  0  0  0  0
 11 19  1  0  0  0  0
 11 10  2  0  0  0  0
 12 11  1  0  0  0  0
 13  4  1  0  0  0  0
 14  5  1  0  0  0  0
 15  6  1  0  0  0  0
 16  8  1  0  0  0  0
 19 20  1  0  0  0  0
 21 24  1  6  0  0  0
 21 22  1  0  0  0  0
 21 23  1  0  0  0  0
 22 25  1  0  0  0  0
 22 23  1  0  0  0  0
 23  1  1  0  0  0  0
 23 27  1  1  0  0  0
 26 22  1  0  0  0  0
 28 33  2  0  0  0  0
 28 29  1  0  0  0  0
 29 30  2  0  0  0  0
 30 31  1  0  0  0  0
 30 36  1  0  0  0  0
 32 21  1  0  0  0  0
 32 31  2  0  0  0  0
 33 32  1  0  0  0  0
 34 28  1  0  0  0  0
 35 29  1  0  0  0  0
 36 37  1  0  0  0  0
 36 38  2  0  0  0  0
M  END
>  <minimizedAffinity>
-5.77506828

$$$$

 OpenBabel03242511153D

 38 41  0  0  1  0  0  0  0  0999 V2000
   38.1490   31.7960   41.1340 N   0  0  0  0  0  0  0  0  0  0  0  0
   38.4010   32.3700   41.9530 H   0  0  0  0  0  0  0  0  0  0  0  0
   37.3570   30.6690   40.8620 C   0  0  0  0  0  0  0  0  0  0  0  0
   36.4540   30.6830   39.8490 C   0  0  0  0  0  0  0  0  0  0  0  0
   35.5820   29.6340   39.6010 C   0  0  0  0  0  0  0  0  0  0  0  0
   35.5950   28.5060   40.3960 C   0  0  0  0  0  0  0  0  0  0  0  0
   36.5050   28.4580   41.4370 C   0  0  0  0  0  0  0  0  0  0  0  0
   36.5410   27.3430   42.2590 C   0  0  0  0  0  0  0  0  0  0  0  0
   37.4150   27.2370   43.3020 C   0  0  0  0  0  0  0  0  0  0  0  0
   38.2730   28.2970   43.5040 C   0  0  0  0  0  0  0  0  0  0  0  0
   38.2250   29.4010   42.6780 C   0  0  0  0  0  0  0  0  0  0  0  0
   37.3540   29.5230   41.6410 C   0  0  0  0  0  0  0  0  0  0  0  0
   36.4030   31.5450   39.1970 H   0  0  0  0  0  0  0  0  0  0  0  0
   34.8860   29.7050   38.7760 H   0  0  0  0  0  0  0  0  0  0  0  0
   34.9400   27.6610   40.2510 H   0  0  0  0  0  0  0  0  0  0  0  0
   35.8550   26.5200   42.0750 H   0  0  0  0  0  0  0  0  0  0  0  0
   37.4030   26.3550   43.9130 H   0  0  0  0  0  0  0  0  0  0  0  0
   38.9820   28.2460   44.3200 H   0  0  0  0  0  0  0  0  0  0  0  0
   39.1100   30.4300   42.9010 O   0  0  0  0  0  0  0  0  0  0  0  0
   39.3600   30.6370   43.8570 H   0  0  0  0  0  0  0  0  0  0  0  0
   40.1390   33.1320   40.2820 C   0  0  1  0  0  0  0  0  0  0  0  0
   38.9270   34.0130   40.1680 C   0  0  0  0  0  0  0  0  0  0  0  0
   38.8790   32.4620   40.0870 C   0  0  2  0  0  0  0  0  0  0  0  0
   40.6050   33.0880   41.2590 H   0  0  0  0  0  0  0  0  0  0  0  0
   38.8020   34.5710   39.2120 H   0  0  0  0  0  0  0  0  0  0  0  0
   38.4800   34.4590   41.0690 H   0  0  0  0  0  0  0  0  0  0  0  0
   38.6500   32.0730   39.0740 H   0  0  0  0  0  0  0  0  0  0  0  0
   42.4860   34.3250   37.6500 C   0  0  0  0  0  0  0  0  0  0  0  0
   42.8690   33.0840   37.0330 C   0  0  0  0  0  0  0  0  0  0  0  0
   42.3110   31.8850   37.5460 C   0  0  0  0  0  0  0  0  0  0  0  0
   41.4650   31.9630   38.5650 N   0  0  0  0  0  0  0  0  0  0  0  0
   41.1210   33.1440   39.1280 C   0  0  0  0  0  0  0  0  0  0  0  0
   41.6290   34.3480   38.6750 N   0  0  0  0  0  0  0  0  0  0  0  0
   42.9080   35.2350   37.2620 H   0  0  0  0  0  0  0  0  0  0  0  0
   43.5600   33.0610   36.2060 H   0  0  0  0  0  0  0  0  0  0  0  0
   42.6850   30.6210   36.9370 C   0  0  0  0  0  0  0  0  0  0  0  0
   42.5830   29.7260   37.5200 H   0  0  0  0  0  0  0  0  0  0  0  0
   43.1170   30.5860   35.7570 O   0  0  0  0  0  0  0  0  0  0  0  0
  1  2  1  0  0  0  0
  3  1  1  0  0  0  0
  3 12  1  0  0  0  0
  4  3  2  0  0  0  0
  5  4  1  0  0  0  0
  5  6  2  0  0  0  0
  6  7  1  0  0  0  0
  7 12  2  0  0  0  0
  7  8  1  0  0  0  0
  8  9  2  0  0  0  0
  9 10  1  0  0  0  0
  9 17  1  0  0  0  0
 10 18  1  0  0  0  0
 11 19  1  0  0  0  0
 11 10  2  0  0  0  0
 12 11  1  0  0  0  0
 13  4  1  0  0  0  0
 14  5  1  0  0  0  0
 15  6  1  0  0  0  0
 16  8  1  0  0  0  0
 19 20  1  0  0  0  0
 21 24  1  1  0  0  0
 22 21  1  0  0  0  0
 22 26  1  0  0  0  0
 23 27  1  6  0  0  0
 23 22  1  0  0  0  0
 23 21  1  0  0  0  0
 23  1  1  0  0  0  0
 25 22  1  0  0  0  0
 28 33  1  0  0  0  0
 29 30  1  0  0  0  0
 29 28  2  0  0  0  0
 30 31  2  0  0  0  0
 31 32  1  0  0  0  0
 32 21  1  0  0  0  0
 33 32  2  0  0  0  0
 34 28  1  0  0  0  0
 35 29  1  0  0  0  0
 36 37  1  0  0  0  0
 36 30  1  0  0  0  0
 38 36  2  0  0  0  0
M  END
>  <minimizedAffinity>
-5.68553162

$$$$

 OpenBabel03242511153D

 38 41  0  0  1  0  0  0  0  0999 V2000
   37.0030   30.1800   42.0570 N   0  0  0  0  0  0  0  0  0  0  0  0
   36.1180   30.6260   42.3410 H   0  0  0  0  0  0  0  0  0  0  0  0
   38.3540   30.5450   41.9310 C   0  0  0  0  0  0  0  0  0  0  0  0
   39.3270   29.8280   42.5460 C   0  0  0  0  0  0  0  0  0  0  0  0
   40.6620   30.2010   42.5330 C   0  0  0  0  0  0  0  0  0  0  0  0
   41.0650   31.3470   41.8790 C   0  0  0  0  0  0  0  0  0  0  0  0
   40.0990   32.1020   41.2400 C   0  0  0  0  0  0  0  0  0  0  0  0
   40.4670   33.2630   40.5780 C   0  0  0  0  0  0  0  0  0  0  0  0
   39.5600   34.0490   39.9300 C   0  0  0  0  0  0  0  0  0  0  0  0
   38.2450   33.6330   39.9560 C   0  0  0  0  0  0  0  0  0  0  0  0
   37.8930   32.4760   40.6190 C   0  0  0  0  0  0  0  0  0  0  0  0
   38.7850   31.6870   41.2770 C   0  0  0  0  0  0  0  0  0  0  0  0
   39.0630   28.9200   43.0740 H   0  0  0  0  0  0  0  0  0  0  0  0
   41.3910   29.5850   43.0420 H   0  0  0  0  0  0  0  0  0  0  0  0
   42.0890   31.6870   41.8380 H   0  0  0  0  0  0  0  0  0  0  0  0
   41.5110   33.5650   40.5710 H   0  0  0  0  0  0  0  0  0  0  0  0
   39.8930   34.9410   39.4340 H   0  0  0  0  0  0  0  0  0  0  0  0
   37.4990   34.2310   39.4500 H   0  0  0  0  0  0  0  0  0  0  0  0
   36.5740   32.0850   40.6080 O   0  0  0  0  0  0  0  0  0  0  0  0
   35.8690   32.8070   40.6290 H   0  0  0  0  0  0  0  0  0  0  0  0
   36.8340   28.1750   40.5010 C   0  0  1  0  0  0  0  0  0  0  0  0
   35.4480   28.7290   40.6690 C   0  0  0  0  0  0  0  0  0  0  0  0
   36.5610   28.8460   41.7450 C   0  0  2  0  0  0  0  0  0  0  0  0
   37.4610   28.6720   39.7690 H   0  0  0  0  0  0  0  0  0  0  0  0
   34.6340   27.9930   40.8630 H   0  0  0  0  0  0  0  0  0  0  0  0
   35.1620   29.6680   40.1710 H   0  0  0  0  0  0  0  0  0  0  0  0
   36.3830   28.2200   42.6440 H   0  0  0  0  0  0  0  0  0  0  0  0
   36.5260   24.5720   39.6140 C   0  0  0  0  0  0  0  0  0  0  0  0
   37.3050   23.9600   40.6570 C   0  0  0  0  0  0  0  0  0  0  0  0
   37.9080   24.8060   41.6220 C   0  0  0  0  0  0  0  0  0  0  0  0
   37.7280   26.1170   41.5190 N   0  0  0  0  0  0  0  0  0  0  0  0
   36.9910   26.6680   40.5280 C   0  0  0  0  0  0  0  0  0  0  0  0
   36.3760   25.8990   39.5560 N   0  0  0  0  0  0  0  0  0  0  0  0
   36.0690   23.9320   38.8810 H   0  0  0  0  0  0  0  0  0  0  0  0
   37.4290   22.8910   40.7060 H   0  0  0  0  0  0  0  0  0  0  0  0
   38.6980   24.2070   42.6830 C   0  0  0  0  0  0  0  0  0  0  0  0
   38.1840   23.6820   43.4650 H   0  0  0  0  0  0  0  0  0  0  0  0
   39.9510   24.3070   42.6780 O   0  0  0  0  0  0  0  0  0  0  0  0
  1  2  1  0  0  0  0
  3  1  1  0  0  0  0
  3  4  1  0  0  0  0
  4 13  1  0  0  0  0
  5  4  2  0  0  0  0
  5 14  1  0  0  0  0
  6  5  1  0  0  0  0
  7 12  1  0  0  0  0
  7  6  2  0  0  0  0
  8  7  1  0  0  0  0
  9 10  1  0  0  0  0
  9  8  2  0  0  0  0
 10 11  2  0  0  0  0
 11 12  1  0  0  0  0
 12  3  2  0  0  0  0
 15  6  1  0  0  0  0
 16  8  1  0  0  0  0
 17  9  1  0  0  0  0
 18 10  1  0  0  0  0
 19 11  1  0  0  0  0
 19 20  1  0  0  0  0
 21 24  1  6  0  0  0
 21 32  1  0  0  0  0
 21 22  1  0  0  0  0
 21 23  1  0  0  0  0
 22 25  1  0  0  0  0
 22 23  1  0  0  0  0
 23  1  1  0  0  0  0
 23 27  1  1  0  0  0
 26 22  1  0  0  0  0
 28 29  1  0  0  0  0
 29 35  1  0  0  0  0
 29 30  2  0  0  0  0
 30 36  1  0  0  0  0
 31 30  1  0  0  0  0
 32 31  2  0  0  0  0
 33 28  2  0  0  0  0
 33 32  1  0  0  0  0
 34 28  1  0  0  0  0
 36 37  1  0  0  0  0
 38 36  2  0  0  0  0
M  END
>  <minimizedAffinity>
-5.668221

$$$$

 OpenBabel03242511153D

 38 41  0  0  1  0  0  0  0  0999 V2000
   36.5390   29.2960   39.8930 N   0  0  0  0  0  0  0  0  0  0  0  0
   36.0180   29.8750   40.5680 H   0  0  0  0  0  0  0  0  0  0  0  0
   36.5530   27.9580   39.4670 C   0  0  0  0  0  0  0  0  0  0  0  0
   36.3030   27.6370   38.1720 C   0  0  0  0  0  0  0  0  0  0  0  0
   36.2090   26.3300   37.7230 C   0  0  0  0  0  0  0  0  0  0  0  0
   36.3680   25.2730   38.5970 C   0  0  0  0  0  0  0  0  0  0  0  0
   36.6260   25.5630   39.9240 C   0  0  0  0  0  0  0  0  0  0  0  0
   36.7840   24.5270   40.8300 C   0  0  0  0  0  0  0  0  0  0  0  0
   37.0400   24.7490   42.1520 C   0  0  0  0  0  0  0  0  0  0  0  0
   37.1390   26.0650   42.5540 C   0  0  0  0  0  0  0  0  0  0  0  0
   36.9780   27.0860   41.6400 C   0  0  0  0  0  0  0  0  0  0  0  0
   36.7140   26.8790   40.3220 C   0  0  0  0  0  0  0  0  0  0  0  0
   36.1690   28.4300   37.4480 H   0  0  0  0  0  0  0  0  0  0  0  0
   36.0080   26.1400   36.6780 H   0  0  0  0  0  0  0  0  0  0  0  0
   36.3040   24.2360   38.3040 H   0  0  0  0  0  0  0  0  0  0  0  0
   36.7040   23.4990   40.4860 H   0  0  0  0  0  0  0  0  0  0  0  0
   37.1520   23.9140   42.8160 H   0  0  0  0  0  0  0  0  0  0  0  0
   37.3440   26.2790   43.5940 H   0  0  0  0  0  0  0  0  0  0  0  0
   37.1010   28.3860   42.0760 O   0  0  0  0  0  0  0  0  0  0  0  0
   36.7740   28.6030   43.0060 H   0  0  0  0  0  0  0  0  0  0  0  0
   37.2960   31.6900   39.4830 C   0  0  1  0  0  0  0  0  0  0  0  0
   36.8770   31.1200   38.1580 C   0  0  0  0  0  0  0  0  0  0  0  0
   37.4400   30.2650   39.3260 C   0  0  2  0  0  0  0  0  0  0  0  0
   36.4970   32.0650   40.1140 H   0  0  0  0  0  0  0  0  0  0  0  0
   37.5580   31.3050   37.2950 H   0  0  0  0  0  0  0  0  0  0  0  0
   35.8100   30.9740   37.9280 H   0  0  0  0  0  0  0  0  0  0  0  0
   38.4570   29.8650   39.1390 H   0  0  0  0  0  0  0  0  0  0  0  0
   39.8220   34.2360   40.4770 C   0  0  0  0  0  0  0  0  0  0  0  0
   40.8450   34.0150   39.4910 C   0  0  0  0  0  0  0  0  0  0  0  0
   40.6310   33.0000   38.5240 C   0  0  0  0  0  0  0  0  0  0  0  0
   39.5020   32.3040   38.5740 N   0  0  0  0  0  0  0  0  0  0  0  0
   38.5550   32.5310   39.5140 C   0  0  0  0  0  0  0  0  0  0  0  0
   38.7030   33.5060   40.4830 N   0  0  0  0  0  0  0  0  0  0  0  0
   39.9840   35.0060   41.2110 H   0  0  0  0  0  0  0  0  0  0  0  0
   41.7490   34.6020   39.4820 H   0  0  0  0  0  0  0  0  0  0  0  0
   41.6520   32.7620   37.5190 C   0  0  0  0  0  0  0  0  0  0  0  0
   41.7690   31.7640   37.1410 H   0  0  0  0  0  0  0  0  0  0  0  0
   42.3740   33.7050   37.1100 O   0  0  0  0  0  0  0  0  0  0  0  0
  1  2  1  0  0  0  0
  3  1  1  0  0  0  0
  3 12  1  0  0  0  0
  4  3  2  0  0  0  0
  5  4  1  0  0  0  0
  5  6  2  0  0  0  0
  6  7  1  0  0  0  0
  7 12  2  0  0  0  0
  7  8  1  0  0  0  0
  8  9  2  0  0  0  0
  9 10  1  0  0  0  0
  9 17  1  0  0  0  0
 10 18  1  0  0  0  0
 11 19  1  0  0  0  0
 11 10  2  0  0  0  0
 12 11  1  0  0  0  0
 13  4  1  0  0  0  0
 14  5  1  0  0  0  0
 15  6  1  0  0  0  0
 16  8  1  0  0  0  0
 19 20  1  0  0  0  0
 21 32  1  0  0  0  0
 21 24  1  1  0  0  0
 22 23  1  0  0  0  0
 22 21  1  0  0  0  0
 23 27  1  6  0  0  0
 23 21  1  0  0  0  0
 23  1  1  0  0  0  0
 25 22  1  0  0  0  0
 26 22  1  0  0  0  0
 28 33  1  0  0  0  0
 28 34  1  0  0  0  0
 29 28  2  0  0  0  0
 30 31  2  0  0  0  0
 30 29  1  0  0  0  0
 31 32  1  0  0  0  0
 32 33  2  0  0  0  0
 35 29  1  0  0  0  0
 36 30  1  0  0  0  0
 37 36  1  0  0  0  0
 38 36  2  0  0  0  0
M  END
>  <minimizedAffinity>
-5.51488781

$$$$

 OpenBabel03242511153D

 38 41  0  0  1  0  0  0  0  0999 V2000
   37.8550   30.2690   39.3660 N   0  0  0  0  0  0  0  0  0  0  0  0
   38.4610   31.0840   39.1860 H   0  0  0  0  0  0  0  0  0  0  0  0
   36.5510   29.8560   39.0480 C   0  0  0  0  0  0  0  0  0  0  0  0
   35.6500   29.5830   40.0260 C   0  0  0  0  0  0  0  0  0  0  0  0
   34.3850   29.0800   39.7660 C   0  0  0  0  0  0  0  0  0  0  0  0
   33.9800   28.8270   38.4720 C   0  0  0  0  0  0  0  0  0  0  0  0
   34.8730   29.0960   37.4500 C   0  0  0  0  0  0  0  0  0  0  0  0
   34.5020   28.8480   36.1380 C   0  0  0  0  0  0  0  0  0  0  0  0
   35.3380   29.0920   35.0880 C   0  0  0  0  0  0  0  0  0  0  0  0
   36.5830   29.6050   35.3890 C   0  0  0  0  0  0  0  0  0  0  0  0
   36.9380   29.8460   36.7000 C   0  0  0  0  0  0  0  0  0  0  0  0
   36.1180   29.6000   37.7570 C   0  0  0  0  0  0  0  0  0  0  0  0
   35.9200   29.7630   41.0580 H   0  0  0  0  0  0  0  0  0  0  0  0
   33.7120   28.8840   40.5900 H   0  0  0  0  0  0  0  0  0  0  0  0
   33.0090   28.4350   38.2110 H   0  0  0  0  0  0  0  0  0  0  0  0
   33.5140   28.4460   35.9280 H   0  0  0  0  0  0  0  0  0  0  0  0
   35.0070   28.8810   34.0890 H   0  0  0  0  0  0  0  0  0  0  0  0
   37.2710   29.8140   34.5810 H   0  0  0  0  0  0  0  0  0  0  0  0
   38.1810   30.3750   36.9590 O   0  0  0  0  0  0  0  0  0  0  0  0
   38.9470   30.0890   36.3660 H   0  0  0  0  0  0  0  0  0  0  0  0
   38.6750   29.3520   41.5930 C   0  0  1  0  0  0  0  0  0  0  0  0
   39.7850   30.1830   41.0150 C   0  0  0  0  0  0  0  0  0  0  0  0
   38.7260   29.4390   40.1560 C   0  0  2  0  0  0  0  0  0  0  0  0
   37.8980   29.8950   42.1190 H   0  0  0  0  0  0  0  0  0  0  0  0
   40.8080   29.7430   41.0460 H   0  0  0  0  0  0  0  0  0  0  0  0
   39.7140   31.2810   41.0170 H   0  0  0  0  0  0  0  0  0  0  0  0
   39.1320   28.5700   39.5990 H   0  0  0  0  0  0  0  0  0  0  0  0
   40.4170   26.8090   43.6800 C   0  0  0  0  0  0  0  0  0  0  0  0
   39.6840   25.6180   43.3400 C   0  0  0  0  0  0  0  0  0  0  0  0
   38.6190   25.7350   42.4110 C   0  0  0  0  0  0  0  0  0  0  0  0
   38.3490   26.9290   41.9000 N   0  0  0  0  0  0  0  0  0  0  0  0
   39.0530   28.0340   42.2370 C   0  0  0  0  0  0  0  0  0  0  0  0
   40.1030   27.9880   43.1360 N   0  0  0  0  0  0  0  0  0  0  0  0
   41.2250   26.7230   44.3840 H   0  0  0  0  0  0  0  0  0  0  0  0
   39.9340   24.6660   43.7760 H   0  0  0  0  0  0  0  0  0  0  0  0
   37.8670   24.5440   42.0540 C   0  0  0  0  0  0  0  0  0  0  0  0
   38.4090   23.6350   41.8770 H   0  0  0  0  0  0  0  0  0  0  0  0
   36.6150   24.5880   41.9580 O   0  0  0  0  0  0  0  0  0  0  0  0
  1 23  1  0  0  0  0
  2  1  1  0  0  0  0
  3  1  1  0  0  0  0
  3  4  1  0  0  0  0
  4 13  1  0  0  0  0
  5  4  2  0  0  0  0
  5 14  1  0  0  0  0
  6  5  1  0  0  0  0
  7 12  1  0  0  0  0
  7  6  2  0  0  0  0
  8  7  1  0  0  0  0
  9 10  1  0  0  0  0
  9  8  2  0  0  0  0
 10 11  2  0  0  0  0
 11 19  1  0  0  0  0
 11 12  1  0  0  0  0
 12  3  2  0  0  0  0
 15  6  1  0  0  0  0
 16  8  1  0  0  0  0
 17  9  1  0  0  0  0
 18 10  1  0  0  0  0
 20 19  1  0  0  0  0
 21 24  1  1  0  0  0
 21 32  1  0  0  0  0
 22 26  1  0  0  0  0
 22 25  1  0  0  0  0
 22 21  1  0  0  0  0
 23 27  1  6  0  0  0
 23 22  1  0  0  0  0
 23 21  1  0  0  0  0
 28 34  1  0  0  0  0
 29 28  1  0  0  0  0
 29 35  1  0  0  0  0
 30 29  2  0  0  0  0
 31 32  2  0  0  0  0
 31 30  1  0  0  0  0
 32 33  1  0  0  0  0
 33 28  2  0  0  0  0
 36 30  1  0  0  0  0
 37 36  1  0  0  0  0
 38 36  2  0  0  0  0
M  END
>  <minimizedAffinity>
-5.42607546

$$$$
