
 OpenBabel03252507583D

 21 22  0  0  1  0  0  0  0  0999 V2000
   38.2210   31.4570   41.0810 C   0  0  0  0  0  0  0  0  0  0  0  0
   36.9900   31.6350   40.4050 C   0  0  0  0  0  0  0  0  0  0  0  0
   36.0480   30.6040   40.5050 C   0  0  0  0  0  0  0  0  0  0  0  0
   36.3870   29.5040   41.2470 N   0  0  0  0  0  0  0  0  0  0  0  0
   37.5730   29.3950   41.8640 C   0  0  0  0  0  0  0  0  0  0  0  0
   38.4960   30.3420   41.8000 N   0  0  0  0  0  0  0  0  0  0  0  0
   36.7850   32.5250   39.8370 H   0  0  0  0  0  0  0  0  0  0  0  0
   35.0930   30.6960   40.0050 H   0  0  0  0  0  0  0  0  0  0  0  0
   37.8470   28.1620   42.6650 C   0  0  1  0  0  0  0  0  0  0  0  0
   36.8260   27.6320   43.6190 C   0  0  0  0  0  0  0  0  0  0  0  0
   37.0100   26.9850   42.2860 C   0  0  2  0  0  0  0  0  0  0  0  0
   38.9040   28.0050   42.8760 H   0  0  0  0  0  0  0  0  0  0  0  0
   35.9530   28.2760   43.8210 H   0  0  0  0  0  0  0  0  0  0  0  0
   37.2550   27.1700   44.5330 H   0  0  0  0  0  0  0  0  0  0  0  0
   36.1300   27.1390   41.5970 H   0  0  0  0  0  0  0  0  0  0  0  0
   37.5710   25.6210   42.2870 C   0  0  0  0  0  0  0  0  0  0  0  0
   38.6410   25.4500   42.2390 H   0  0  0  0  0  0  0  0  0  0  0  0
   36.7110   24.7450   42.3480 O   0  0  0  0  0  0  0  0  0  0  0  0
   39.1430   32.5490   40.9540 C   0  0  0  0  0  0  0  0  0  0  0  0
   38.8240   33.7780   40.9940 O   0  0  0  0  0  0  0  0  0  0  0  0
   40.1560   32.1560   40.8190 H   0  0  0  0  0  0  0  0  0  0  0  0
  1  6  1  0  0  0  0
  2  3  1  0  0  0  0
  2  1  2  0  0  0  0
  3  4  2  0  0  0  0
  4  5  1  0  0  0  0
  5  9  1  0  0  0  0
  6  5  2  0  0  0  0
  7  2  1  0  0  0  0
  8  3  1  0  0  0  0
  9 12  1  1  0  0  0
  9 10  1  0  0  0  0
 10 13  1  0  0  0  0
 10 14  1  0  0  0  0
 11 15  1  6  0  0  0
 11 16  1  0  0  0  0
 11  9  1  0  0  0  0
 11 10  1  0  0  0  0
 16 18  2  0  0  0  0
 17 16  1  0  0  0  0
 19 20  2  0  0  0  0
 19  1  1  0  0  0  0
 21 19  1  0  0  0  0
M  END
>  <minimizedAffinity>
-4.03611755

$$$$

 OpenBabel03252507583D

 21 22  0  0  1  0  0  0  0  0999 V2000
   37.2890   26.9700   41.7540 C   0  0  0  0  0  0  0  0  0  0  0  0
   37.2680   27.2770   43.1360 C   0  0  0  0  0  0  0  0  0  0  0  0
   37.4160   28.6220   43.4970 C   0  0  0  0  0  0  0  0  0  0  0  0
   37.5690   29.5360   42.4890 N   0  0  0  0  0  0  0  0  0  0  0  0
   37.5800   29.1800   41.1960 C   0  0  0  0  0  0  0  0  0  0  0  0
   37.4450   27.9240   40.8040 N   0  0  0  0  0  0  0  0  0  0  0  0
   37.1440   26.5100   43.8800 H   0  0  0  0  0  0  0  0  0  0  0  0
   37.4060   28.9040   44.5410 H   0  0  0  0  0  0  0  0  0  0  0  0
   37.7380   30.2520   40.1650 C   0  0  1  0  0  0  0  0  0  0  0  0
   36.5470   30.7950   39.4430 C   0  0  0  0  0  0  0  0  0  0  0  0
   37.1630   31.5730   40.5590 C   0  0  2  0  0  0  0  0  0  0  0  0
   38.7030   30.2330   39.6600 H   0  0  0  0  0  0  0  0  0  0  0  0
   35.5930   30.2590   39.5860 H   0  0  0  0  0  0  0  0  0  0  0  0
   36.7440   31.0730   38.3870 H   0  0  0  0  0  0  0  0  0  0  0  0
   36.5020   31.6310   41.4720 H   0  0  0  0  0  0  0  0  0  0  0  0
   37.8330   32.8340   40.1910 C   0  0  0  0  0  0  0  0  0  0  0  0
   38.8360   33.0630   40.5360 H   0  0  0  0  0  0  0  0  0  0  0  0
   37.1420   33.5580   39.4780 O   0  0  0  0  0  0  0  0  0  0  0  0
   37.1220   25.5790   41.4420 C   0  0  0  0  0  0  0  0  0  0  0  0
   36.8020   24.6790   42.2800 O   0  0  0  0  0  0  0  0  0  0  0  0
   37.3130   25.4200   40.3750 H   0  0  0  0  0  0  0  0  0  0  0  0
  1  2  1  0  0  0  0
  2  3  2  0  0  0  0
  2  7  1  0  0  0  0
  3  8  1  0  0  0  0
  4  3  1  0  0  0  0
  5  4  2  0  0  0  0
  6  5  1  0  0  0  0
  6  1  2  0  0  0  0
  9 12  1  6  0  0  0
  9 11  1  0  0  0  0
  9  5  1  0  0  0  0
 10 13  1  0  0  0  0
 10  9  1  0  0  0  0
 10 11  1  0  0  0  0
 11 15  1  1  0  0  0
 14 10  1  0  0  0  0
 16 17  1  0  0  0  0
 16 11  1  0  0  0  0
 18 16  2  0  0  0  0
 19  1  1  0  0  0  0
 19 20  2  0  0  0  0
 21 19  1  0  0  0  0
M  END
>  <minimizedAffinity>
-3.7535398

$$$$

 OpenBabel03252507583D

 21 22  0  0  1  0  0  0  0  0999 V2000
   37.4520   26.8480   42.1900 C   0  0  0  0  0  0  0  0  0  0  0  0
   38.1040   27.5330   43.2440 C   0  0  0  0  0  0  0  0  0  0  0  0
   37.9260   28.9200   43.3140 C   0  0  0  0  0  0  0  0  0  0  0  0
   37.1370   29.5080   42.3610 N   0  0  0  0  0  0  0  0  0  0  0  0
   36.5460   28.8010   41.3870 C   0  0  0  0  0  0  0  0  0  0  0  0
   36.6830   27.4890   41.2770 N   0  0  0  0  0  0  0  0  0  0  0  0
   38.7120   27.0110   43.9610 H   0  0  0  0  0  0  0  0  0  0  0  0
   38.4050   29.4850   44.1020 H   0  0  0  0  0  0  0  0  0  0  0  0
   35.6900   29.5290   40.4000 C   0  0  1  0  0  0  0  0  0  0  0  0
   36.2830   30.0950   39.1500 C   0  0  0  0  0  0  0  0  0  0  0  0
   35.5110   28.8180   39.0990 C   0  0  2  0  0  0  0  0  0  0  0  0
   34.8280   30.0210   40.8500 H   0  0  0  0  0  0  0  0  0  0  0  0
   37.3840   30.0950   39.0780 H   0  0  0  0  0  0  0  0  0  0  0  0
   35.8190   31.0480   38.8180 H   0  0  0  0  0  0  0  0  0  0  0  0
   36.1570   27.9220   38.8720 H   0  0  0  0  0  0  0  0  0  0  0  0
   34.2220   28.8560   38.3840 C   0  0  0  0  0  0  0  0  0  0  0  0
   34.1480   28.5800   37.3370 H   0  0  0  0  0  0  0  0  0  0  0  0
   33.2870   29.2240   39.0920 O   0  0  0  0  0  0  0  0  0  0  0  0
   37.6600   25.4280   42.1740 C   0  0  0  0  0  0  0  0  0  0  0  0
   36.7370   24.5570   42.2310 O   0  0  0  0  0  0  0  0  0  0  0  0
   38.7330   25.2180   42.1050 H   0  0  0  0  0  0  0  0  0  0  0  0
  1  2  1  0  0  0  0
  2  3  2  0  0  0  0
  2  7  1  0  0  0  0
  3  8  1  0  0  0  0
  4  3  1  0  0  0  0
  5  4  2  0  0  0  0
  6  5  1  0  0  0  0
  6  1  2  0  0  0  0
  9 12  1  1  0  0  0
  9  5  1  0  0  0  0
 10  9  1  0  0  0  0
 11 15  1  6  0  0  0
 11 10  1  0  0  0  0
 11  9  1  0  0  0  0
 13 10  1  0  0  0  0
 14 10  1  0  0  0  0
 16 18  2  0  0  0  0
 16 11  1  0  0  0  0
 17 16  1  0  0  0  0
 19  1  1  0  0  0  0
 19 20  2  0  0  0  0
 21 19  1  0  0  0  0
M  END
>  <minimizedAffinity>
-3.73417068

$$$$

 OpenBabel03252507583D

 21 22  0  0  1  0  0  0  0  0999 V2000
   37.6770   30.7760   40.7110 C   0  0  0  0  0  0  0  0  0  0  0  0
   38.7450   31.6250   41.0870 C   0  0  0  0  0  0  0  0  0  0  0  0
   39.5810   31.1840   42.1200 C   0  0  0  0  0  0  0  0  0  0  0  0
   39.3040   29.9690   42.6870 N   0  0  0  0  0  0  0  0  0  0  0  0
   38.2740   29.2110   42.2840 C   0  0  0  0  0  0  0  0  0  0  0  0
   37.4550   29.5820   41.3130 N   0  0  0  0  0  0  0  0  0  0  0  0
   38.9090   32.5710   40.6020 H   0  0  0  0  0  0  0  0  0  0  0  0
   40.4110   31.8000   42.4420 H   0  0  0  0  0  0  0  0  0  0  0  0
   38.0590   27.8910   42.9530 C   0  0  1  0  0  0  0  0  0  0  0  0
   36.7850   27.6040   43.6800 C   0  0  0  0  0  0  0  0  0  0  0  0
   37.0090   27.0420   42.3150 C   0  0  2  0  0  0  0  0  0  0  0  0
   38.9800   27.4170   43.2890 H   0  0  0  0  0  0  0  0  0  0  0  0
   36.1000   28.4560   43.8360 H   0  0  0  0  0  0  0  0  0  0  0  0
   36.9070   26.9660   44.5800 H   0  0  0  0  0  0  0  0  0  0  0  0
   36.3350   27.5000   41.5340 H   0  0  0  0  0  0  0  0  0  0  0  0
   37.1660   25.5780   42.2240 C   0  0  0  0  0  0  0  0  0  0  0  0
   36.3310   24.9340   41.9690 H   0  0  0  0  0  0  0  0  0  0  0  0
   38.3110   25.2000   42.4630 O   0  0  0  0  0  0  0  0  0  0  0  0
   36.8600   31.2720   39.6400 C   0  0  0  0  0  0  0  0  0  0  0  0
   37.1260   32.2960   38.9370 O   0  0  0  0  0  0  0  0  0  0  0  0
   35.9780   30.6320   39.5290 H   0  0  0  0  0  0  0  0  0  0  0  0
  1  2  2  0  0  0  0
  1  6  1  0  0  0  0
  2  3  1  0  0  0  0
  3  8  1  0  0  0  0
  3  4  2  0  0  0  0
  5  4  1  0  0  0  0
  5  9  1  0  0  0  0
  6  5  2  0  0  0  0
  7  2  1  0  0  0  0
  9 12  1  1  0  0  0
  9 10  1  0  0  0  0
 10 13  1  0  0  0  0
 10 14  1  0  0  0  0
 11 15  1  6  0  0  0
 11  9  1  0  0  0  0
 11 10  1  0  0  0  0
 16 11  1  0  0  0  0
 16 18  2  0  0  0  0
 17 16  1  0  0  0  0
 19  1  1  0  0  0  0
 20 19  2  0  0  0  0
 21 19  1  0  0  0  0
M  END
>  <minimizedAffinity>
-3.69719791

$$$$

 OpenBabel03252507583D

 21 22  0  0  1  0  0  0  0  0999 V2000
   37.2960   29.4520   41.9990 C   0  0  0  0  0  0  0  0  0  0  0  0
   36.1670   28.7620   41.4940 C   0  0  0  0  0  0  0  0  0  0  0  0
   35.6160   29.2260   40.2940 C   0  0  0  0  0  0  0  0  0  0  0  0
   36.2070   30.3090   39.7000 N   0  0  0  0  0  0  0  0  0  0  0  0
   37.2770   30.9200   40.2300 C   0  0  0  0  0  0  0  0  0  0  0  0
   37.8350   30.5200   41.3610 N   0  0  0  0  0  0  0  0  0  0  0  0
   35.7490   27.9160   42.0110 H   0  0  0  0  0  0  0  0  0  0  0  0
   34.7520   28.7290   39.8710 H   0  0  0  0  0  0  0  0  0  0  0  0
   37.8630   32.0860   39.5000 C   0  0  1  0  0  0  0  0  0  0  0  0
   37.1790   33.4150   39.5160 C   0  0  0  0  0  0  0  0  0  0  0  0
   38.3680   33.1760   40.3880 C   0  0  2  0  0  0  0  0  0  0  0  0
   38.4550   31.8040   38.6310 H   0  0  0  0  0  0  0  0  0  0  0  0
   36.1610   33.4450   39.9420 H   0  0  0  0  0  0  0  0  0  0  0  0
   37.2790   33.9900   38.5720 H   0  0  0  0  0  0  0  0  0  0  0  0
   38.1100   33.1500   41.4860 H   0  0  0  0  0  0  0  0  0  0  0  0
   39.5920   33.9240   40.0510 C   0  0  0  0  0  0  0  0  0  0  0  0
   39.5500   34.8620   39.5050 H   0  0  0  0  0  0  0  0  0  0  0  0
   40.6180   33.3760   40.4480 O   0  0  0  0  0  0  0  0  0  0  0  0
   37.8270   28.9280   43.2250 C   0  0  0  0  0  0  0  0  0  0  0  0
   37.7070   27.7240   43.6120 O   0  0  0  0  0  0  0  0  0  0  0  0
   38.3460   29.7250   43.7670 H   0  0  0  0  0  0  0  0  0  0  0  0
  1 19  1  0  0  0  0
  2  1  1  0  0  0  0
  2  7  1  0  0  0  0
  3  2  2  0  0  0  0
  4  5  2  0  0  0  0
  4  3  1  0  0  0  0
  5  6  1  0  0  0  0
  6  1  2  0  0  0  0
  8  3  1  0  0  0  0
  9 12  1  6  0  0  0
  9 10  1  0  0  0  0
  9  5  1  0  0  0  0
  9 11  1  0  0  0  0
 10 13  1  0  0  0  0
 10 11  1  0  0  0  0
 11 15  1  1  0  0  0
 14 10  1  0  0  0  0
 16 11  1  0  0  0  0
 16 18  2  0  0  0  0
 17 16  1  0  0  0  0
 19 20  2  0  0  0  0
 19 21  1  0  0  0  0
M  END
>  <minimizedAffinity>
-3.68073106

$$$$

 OpenBabel03252507583D

 21 22  0  0  1  0  0  0  0  0999 V2000
   36.8520   29.4500   39.1310 C   0  0  0  0  0  0  0  0  0  0  0  0
   36.5590   30.7980   39.4520 C   0  0  0  0  0  0  0  0  0  0  0  0
   36.6250   31.1640   40.8020 C   0  0  0  0  0  0  0  0  0  0  0  0
   36.9670   30.1960   41.7070 N   0  0  0  0  0  0  0  0  0  0  0  0
   37.2340   28.9340   41.3380 C   0  0  0  0  0  0  0  0  0  0  0  0
   37.1850   28.5380   40.0760 N   0  0  0  0  0  0  0  0  0  0  0  0
   36.2960   31.5110   38.6920 H   0  0  0  0  0  0  0  0  0  0  0  0
   36.4090   32.1840   41.0940 H   0  0  0  0  0  0  0  0  0  0  0  0
   37.6130   27.9490   42.3980 C   0  0  1  0  0  0  0  0  0  0  0  0
   36.5750   27.3630   43.2980 C   0  0  0  0  0  0  0  0  0  0  0  0
   37.1110   26.5630   42.1570 C   0  0  2  0  0  0  0  0  0  0  0  0
   38.6280   28.0790   42.7710 H   0  0  0  0  0  0  0  0  0  0  0  0
   35.5670   27.8100   43.2530 H   0  0  0  0  0  0  0  0  0  0  0  0
   36.9260   27.1720   44.3340 H   0  0  0  0  0  0  0  0  0  0  0  0
   36.3490   26.3920   41.3440 H   0  0  0  0  0  0  0  0  0  0  0  0
   37.9300   25.3870   42.5040 C   0  0  0  0  0  0  0  0  0  0  0  0
   38.8910   25.4930   42.9970 H   0  0  0  0  0  0  0  0  0  0  0  0
   37.4080   24.3230   42.1800 O   0  0  0  0  0  0  0  0  0  0  0  0
   36.7810   29.1330   37.7330 C   0  0  0  0  0  0  0  0  0  0  0  0
   37.0130   29.9510   36.7890 O   0  0  0  0  0  0  0  0  0  0  0  0
   36.4960   28.0820   37.6130 H   0  0  0  0  0  0  0  0  0  0  0  0
  1  2  2  0  0  0  0
  1  6  1  0  0  0  0
  2  3  1  0  0  0  0
  3  8  1  0  0  0  0
  3  4  2  0  0  0  0
  5  4  1  0  0  0  0
  5  9  1  0  0  0  0
  6  5  2  0  0  0  0
  7  2  1  0  0  0  0
  9 12  1  1  0  0  0
  9 10  1  0  0  0  0
 10 14  1  0  0  0  0
 11 15  1  6  0  0  0
 11  9  1  0  0  0  0
 11 16  1  0  0  0  0
 11 10  1  0  0  0  0
 13 10  1  0  0  0  0
 16 17  1  0  0  0  0
 18 16  2  0  0  0  0
 19  1  1  0  0  0  0
 20 19  2  0  0  0  0
 21 19  1  0  0  0  0
M  END
>  <minimizedAffinity>
-3.60769033

$$$$

 OpenBabel03252507583D

 21 22  0  0  1  0  0  0  0  0999 V2000
   38.5290   27.2660   43.0840 C   0  0  0  0  0  0  0  0  0  0  0  0
   39.7680   26.9260   43.6790 C   0  0  0  0  0  0  0  0  0  0  0  0
   40.1790   25.5910   43.5830 C   0  0  0  0  0  0  0  0  0  0  0  0
   39.3560   24.7180   42.9240 N   0  0  0  0  0  0  0  0  0  0  0  0
   38.1920   25.1040   42.3810 C   0  0  0  0  0  0  0  0  0  0  0  0
   37.7590   26.3530   42.4440 N   0  0  0  0  0  0  0  0  0  0  0  0
   40.3690   27.6600   44.1840 H   0  0  0  0  0  0  0  0  0  0  0  0
   41.1190   25.2840   44.0240 H   0  0  0  0  0  0  0  0  0  0  0  0
   37.3670   24.0820   41.6670 C   0  0  1  0  0  0  0  0  0  0  0  0
   36.8880   24.3290   40.2730 C   0  0  0  0  0  0  0  0  0  0  0  0
   38.0570   23.4320   40.5120 C   0  0  2  0  0  0  0  0  0  0  0  0
   36.7680   23.4620   42.3320 H   0  0  0  0  0  0  0  0  0  0  0  0
   37.0280   25.3480   39.8730 H   0  0  0  0  0  0  0  0  0  0  0  0
   35.8860   23.9030   40.0540 H   0  0  0  0  0  0  0  0  0  0  0  0
   39.0290   23.8680   40.1410 H   0  0  0  0  0  0  0  0  0  0  0  0
   37.8610   22.0010   40.2170 C   0  0  0  0  0  0  0  0  0  0  0  0
   37.9740   21.2440   40.9860 H   0  0  0  0  0  0  0  0  0  0  0  0
   37.5660   21.7860   39.0430 O   0  0  0  0  0  0  0  0  0  0  0  0
   38.1620   28.6490   43.2020 C   0  0  0  0  0  0  0  0  0  0  0  0
   37.1730   29.1910   42.6180 O   0  0  0  0  0  0  0  0  0  0  0  0
   38.8660   29.1560   43.8700 H   0  0  0  0  0  0  0  0  0  0  0  0
  1 19  1  0  0  0  0
  1  2  1  0  0  0  0
  2  7  1  0  0  0  0
  3  2  2  0  0  0  0
  3  8  1  0  0  0  0
  4  3  1  0  0  0  0
  5  6  1  0  0  0  0
  5  4  2  0  0  0  0
  6  1  2  0  0  0  0
  9 12  1  1  0  0  0
  9  5  1  0  0  0  0
 10 11  1  0  0  0  0
 10  9  1  0  0  0  0
 11 15  1  6  0  0  0
 11  9  1  0  0  0  0
 13 10  1  0  0  0  0
 14 10  1  0  0  0  0
 16 11  1  0  0  0  0
 16 17  1  0  0  0  0
 18 16  2  0  0  0  0
 19 21  1  0  0  0  0
 20 19  2  0  0  0  0
M  END
>  <minimizedAffinity>
-3.53559518

$$$$

 OpenBabel03252507583D

 21 22  0  0  1  0  0  0  0  0999 V2000
   37.6600   31.5310   40.1890 C   0  0  0  0  0  0  0  0  0  0  0  0
   37.1700   30.7300   39.1290 C   0  0  0  0  0  0  0  0  0  0  0  0
   37.1480   29.3440   39.3300 C   0  0  0  0  0  0  0  0  0  0  0  0
   37.6010   28.8690   40.5310 N   0  0  0  0  0  0  0  0  0  0  0  0
   38.0540   29.6820   41.4970 C   0  0  0  0  0  0  0  0  0  0  0  0
   38.0950   30.9970   41.3560 N   0  0  0  0  0  0  0  0  0  0  0  0
   36.8280   31.1670   38.2080 H   0  0  0  0  0  0  0  0  0  0  0  0
   36.7810   28.6930   38.5470 H   0  0  0  0  0  0  0  0  0  0  0  0
   38.5150   29.0710   42.7810 C   0  0  1  0  0  0  0  0  0  0  0  0
   37.5480   28.3690   43.6800 C   0  0  0  0  0  0  0  0  0  0  0  0
   38.4640   27.5780   42.8050 C   0  0  2  0  0  0  0  0  0  0  0  0
   39.3780   29.5710   43.2180 H   0  0  0  0  0  0  0  0  0  0  0  0
   36.4770   28.4710   43.4330 H   0  0  0  0  0  0  0  0  0  0  0  0
   37.7650   28.4880   44.7620 H   0  0  0  0  0  0  0  0  0  0  0  0
   37.9230   27.0370   41.9770 H   0  0  0  0  0  0  0  0  0  0  0  0
   39.5100   26.7930   43.4870 C   0  0  0  0  0  0  0  0  0  0  0  0
   39.3450   25.7600   43.7730 H   0  0  0  0  0  0  0  0  0  0  0  0
   40.5430   27.4300   43.6800 O   0  0  0  0  0  0  0  0  0  0  0  0
   37.6490   32.9430   39.9340 C   0  0  0  0  0  0  0  0  0  0  0  0
   38.4580   33.7800   40.4430 O   0  0  0  0  0  0  0  0  0  0  0  0
   36.8390   33.1800   39.2370 H   0  0  0  0  0  0  0  0  0  0  0  0
  1  6  1  0  0  0  0
  2  3  1  0  0  0  0
  2  1  2  0  0  0  0
  3  4  2  0  0  0  0
  4  5  1  0  0  0  0
  5  9  1  0  0  0  0
  6  5  2  0  0  0  0
  7  2  1  0  0  0  0
  8  3  1  0  0  0  0
  9 11  1  0  0  0  0
  9 12  1  1  0  0  0
  9 10  1  0  0  0  0
 10 14  1  0  0  0  0
 11 15  1  6  0  0  0
 11 16  1  0  0  0  0
 11 10  1  0  0  0  0
 13 10  1  0  0  0  0
 16 18  2  0  0  0  0
 16 17  1  0  0  0  0
 19  1  1  0  0  0  0
 19 20  2  0  0  0  0
 21 19  1  0  0  0  0
M  END
>  <minimizedAffinity>
-3.50676656

$$$$

 OpenBabel03252507583D

 21 22  0  0  1  0  0  0  0  0999 V2000
   38.5680   25.4020   41.7450 C   0  0  0  0  0  0  0  0  0  0  0  0
   39.5190   24.9230   42.6780 C   0  0  0  0  0  0  0  0  0  0  0  0
   39.9370   25.8090   43.6790 C   0  0  0  0  0  0  0  0  0  0  0  0
   39.3970   27.0670   43.6790 N   0  0  0  0  0  0  0  0  0  0  0  0
   38.4990   27.4600   42.7650 C   0  0  0  0  0  0  0  0  0  0  0  0
   38.0720   26.6620   41.8000 N   0  0  0  0  0  0  0  0  0  0  0  0
   39.9050   23.9210   42.6230 H   0  0  0  0  0  0  0  0  0  0  0  0
   40.6620   25.4860   44.4140 H   0  0  0  0  0  0  0  0  0  0  0  0
   37.9540   28.8500   42.8560 C   0  0  1  0  0  0  0  0  0  0  0  0
   38.7550   30.0140   42.3700 C   0  0  0  0  0  0  0  0  0  0  0  0
   37.6410   29.4750   41.5360 C   0  0  2  0  0  0  0  0  0  0  0  0
   37.2560   28.9920   43.6790 H   0  0  0  0  0  0  0  0  0  0  0  0
   39.8080   29.8170   42.1050 H   0  0  0  0  0  0  0  0  0  0  0  0
   38.6170   30.9420   42.9650 H   0  0  0  0  0  0  0  0  0  0  0  0
   38.0010   28.9710   40.5930 H   0  0  0  0  0  0  0  0  0  0  0  0
   36.4630   30.3460   41.3680 C   0  0  0  0  0  0  0  0  0  0  0  0
   35.4740   30.0260   41.6780 H   0  0  0  0  0  0  0  0  0  0  0  0
   36.7330   31.4300   40.8550 O   0  0  0  0  0  0  0  0  0  0  0  0
   38.1670   24.4490   40.7490 C   0  0  0  0  0  0  0  0  0  0  0  0
   37.8210   23.2500   40.9870 O   0  0  0  0  0  0  0  0  0  0  0  0
   38.2070   24.9180   39.7600 H   0  0  0  0  0  0  0  0  0  0  0  0
  1  6  2  0  0  0  0
  1  2  1  0  0  0  0
  2  3  2  0  0  0  0
  3  8  1  0  0  0  0
  4  3  1  0  0  0  0
  5  9  1  0  0  0  0
  5  4  2  0  0  0  0
  6  5  1  0  0  0  0
  7  2  1  0  0  0  0
  9 12  1  1  0  0  0
 10  9  1  0  0  0  0
 10 14  1  0  0  0  0
 11 15  1  6  0  0  0
 11 10  1  0  0  0  0
 11  9  1  0  0  0  0
 13 10  1  0  0  0  0
 16 11  1  0  0  0  0
 16 17  1  0  0  0  0
 18 16  2  0  0  0  0
 19 20  2  0  0  0  0
 19  1  1  0  0  0  0
 21 19  1  0  0  0  0
M  END
>  <minimizedAffinity>
-3.49605894

$$$$
