
 OpenBabel03242522223D

 22 23  0  0  0  0  0  0  0  0999 V2000
   44.5710   33.1510   41.3420 Cl  0  0  0  0  0  0  0  0  0  0  0  0
   46.1190   33.9130   41.0140 C   0  0  0  0  0  0  0  0  0  0  0  0
   46.7340   34.6720   41.9950 C   0  0  0  0  0  0  0  0  0  0  0  0
   47.9520   35.2550   41.7010 C   0  0  0  0  0  0  0  0  0  0  0  0
   48.5400   35.0870   40.4570 C   0  0  0  0  0  0  0  0  0  0  0  0
   47.8790   34.3170   39.5100 C   0  0  0  0  0  0  0  0  0  0  0  0
   48.6270   34.1100   37.9460 Cl  0  0  0  0  0  0  0  0  0  0  0  0
   46.6720   33.7190   39.7580 C   0  0  0  0  0  0  0  0  0  0  0  0
   48.3980   35.8360   42.4860 H   0  0  0  0  0  0  0  0  0  0  0  0
   49.4970   35.5570   40.2490 H   0  0  0  0  0  0  0  0  0  0  0  0
   46.1720   33.1220   39.0070 H   0  0  0  0  0  0  0  0  0  0  0  0
   44.4840   35.9440   44.7610 C   0  0  0  0  0  0  0  0  0  0  0  0
   45.1470   35.8310   43.5290 C   0  0  0  0  0  0  0  0  0  0  0  0
   46.0450   34.7940   43.2710 C   0  0  0  0  0  0  0  0  0  0  0  0
   46.2270   33.9140   44.2870 N   0  0  0  0  0  0  0  0  0  0  0  0
   45.5950   34.0200   45.4670 C   0  0  0  0  0  0  0  0  0  0  0  0
   44.7420   35.0190   45.6920 N   0  0  0  0  0  0  0  0  0  0  0  0
   43.7930   36.7540   44.9440 H   0  0  0  0  0  0  0  0  0  0  0  0
   44.9810   36.5440   42.7440 H   0  0  0  0  0  0  0  0  0  0  0  0
   45.8520   33.0270   46.5040 C   0  0  0  0  0  0  0  0  0  0  0  0
   46.6490   32.3020   46.4010 H   0  0  0  0  0  0  0  0  0  0  0  0
   45.1340   33.0060   47.5500 O   0  0  0  0  0  0  0  0  0  0  0  0
  2  1  1  0  0  0  0
  2  3  1  0  0  0  0
  3 14  1  0  0  0  0
  4  3  2  0  0  0  0
  4  9  1  0  0  0  0
  5  4  1  0  0  0  0
  6  8  1  0  0  0  0
  6  5  2  0  0  0  0
  7  6  1  0  0  0  0
  8  2  2  0  0  0  0
 10  5  1  0  0  0  0
 11  8  1  0  0  0  0
 12 18  1  0  0  0  0
 12 17  1  0  0  0  0
 13 12  2  0  0  0  0
 14 13  1  0  0  0  0
 14 15  2  0  0  0  0
 15 16  1  0  0  0  0
 16 17  2  0  0  0  0
 16 20  1  0  0  0  0
 19 13  1  0  0  0  0
 20 22  2  0  0  0  0
 21 20  1  0  0  0  0
M  END
>  <minimizedAffinity>
-5.49238586

>  <minimizedRMSD>
0.0442084335

$$$$
