
 OpenBabel03252503033D

 27 27  0  0  0  0  0  0  0  0999 V2000
   40.4440   33.2560   40.0220 C   0  0  0  0  0  0  0  0  0  0  0  0
   40.8250   32.2280   39.9640 H   0  0  0  0  0  0  0  0  0  0  0  0
   40.8420   33.6950   40.9590 H   0  0  0  0  0  0  0  0  0  0  0  0
   40.8350   34.0530   38.8580 N   0  0  0  0  0  0  0  0  0  0  0  0
   41.4750   34.8240   39.0820 H   0  0  0  0  0  0  0  0  0  0  0  0
   41.4530   33.0890   37.5830 S   0  0  0  0  0  0  0  0  0  0  0  0
   40.3710   32.4710   36.7800 O   0  0  0  0  0  0  0  0  0  0  0  0
   40.0450   32.9180   35.9380 H   0  0  0  0  0  0  0  0  0  0  0  0
   42.2920   34.0110   36.7270 O   0  0  0  0  0  0  0  0  0  0  0  0
   43.2560   34.1290   36.9430 H   0  0  0  0  0  0  0  0  0  0  0  0
   42.4950   31.9370   38.1990 O   0  0  0  0  0  0  0  0  0  0  0  0
   42.1940   30.6670   37.7590 C   0  0  0  0  0  0  0  0  0  0  0  0
   42.8210   30.4150   36.8800 H   0  0  0  0  0  0  0  0  0  0  0  0
   42.3250   29.9440   38.5940 H   0  0  0  0  0  0  0  0  0  0  0  0
   41.1320   30.6300   37.4460 H   0  0  0  0  0  0  0  0  0  0  0  0
   38.6570   33.2670   40.1050 S   0  0  0  0  0  0  0  0  0  0  0  0
   36.7590   31.3320   40.6490 C   0  0  0  0  0  0  0  0  0  0  0  0
   38.0840   31.7110   40.8110 C   0  0  0  0  0  0  0  0  0  0  0  0
   38.9760   30.9040   41.5100 C   0  0  0  0  0  0  0  0  0  0  0  0
   38.4810   29.7320   42.0240 N   0  0  0  0  0  0  0  0  0  0  0  0
   37.2020   29.4100   41.8450 C   0  0  0  0  0  0  0  0  0  0  0  0
   36.3280   30.1600   41.1810 N   0  0  0  0  0  0  0  0  0  0  0  0
   36.0900   31.9920   40.0950 H   0  0  0  0  0  0  0  0  0  0  0  0
   40.0090   31.2000   41.6370 H   0  0  0  0  0  0  0  0  0  0  0  0
   36.7170   28.1420   42.4150 C   0  0  0  0  0  0  0  0  0  0  0  0
   36.0990   28.1040   43.3020 H   0  0  0  0  0  0  0  0  0  0  0  0
   37.0740   27.0840   41.7930 O   0  0  0  0  0  0  0  0  0  0  0  0
  1 16  1  0  0  0  0
  1  3  1  0  0  0  0
  2  1  1  0  0  0  0
  4  5  1  0  0  0  0
  4  1  1  0  0  0  0
  6 11  1  0  0  0  0
  6  4  1  0  0  0  0
  7  6  1  0  0  0  0
  8  7  1  0  0  0  0
  9 10  1  0  0  0  0
  9  6  1  0  0  0  0
 12 11  1  0  0  0  0
 12 14  1  0  0  0  0
 13 12  1  0  0  0  0
 15 12  1  0  0  0  0
 16 18  1  0  0  0  0
 17 18  2  0  0  0  0
 17 22  1  0  0  0  0
 18 19  1  0  0  0  0
 19 24  1  0  0  0  0
 19 20  2  0  0  0  0
 21 20  1  0  0  0  0
 21 25  1  0  0  0  0
 22 21  2  0  0  0  0
 23 17  1  0  0  0  0
 25 26  1  0  0  0  0
 27 25  2  0  0  0  0
M  END
>  <minimizedAffinity>
-4.43529367

$$$$

 OpenBabel03252503033D

 27 27  0  0  0  0  0  0  0  0999 V2000
   36.8410   31.1190   39.7850 C   0  0  0  0  0  0  0  0  0  0  0  0
   36.3500   31.2080   38.8070 H   0  0  0  0  0  0  0  0  0  0  0  0
   37.8340   30.6600   39.6070 H   0  0  0  0  0  0  0  0  0  0  0  0
   36.9720   32.4160   40.4520 N   0  0  0  0  0  0  0  0  0  0  0  0
   36.5530   32.4430   41.3890 H   0  0  0  0  0  0  0  0  0  0  0  0
   38.5910   32.9750   40.4850 S   0  0  0  0  0  0  0  0  0  0  0  0
   39.0710   33.3680   39.1380 O   0  0  0  0  0  0  0  0  0  0  0  0
   39.0170   34.3290   38.8410 H   0  0  0  0  0  0  0  0  0  0  0  0
   38.6080   34.1610   41.4230 O   0  0  0  0  0  0  0  0  0  0  0  0
   38.7690   34.0090   42.3940 H   0  0  0  0  0  0  0  0  0  0  0  0
   39.5770   31.8140   41.1730 O   0  0  0  0  0  0  0  0  0  0  0  0
   40.4460   31.2550   40.2630 C   0  0  0  0  0  0  0  0  0  0  0  0
   41.4260   31.7710   40.3140 H   0  0  0  0  0  0  0  0  0  0  0  0
   40.5310   30.1620   40.4530 H   0  0  0  0  0  0  0  0  0  0  0  0
   40.0400   31.3880   39.2400 H   0  0  0  0  0  0  0  0  0  0  0  0
   35.9070   30.0480   40.8710 S   0  0  0  0  0  0  0  0  0  0  0  0
   37.1570   27.6020   41.1890 C   0  0  0  0  0  0  0  0  0  0  0  0
   37.0310   28.8950   41.6810 C   0  0  0  0  0  0  0  0  0  0  0  0
   37.7620   29.3100   42.7890 C   0  0  0  0  0  0  0  0  0  0  0  0
   38.6000   28.3870   43.3620 N   0  0  0  0  0  0  0  0  0  0  0  0
   38.6880   27.1580   42.8560 C   0  0  0  0  0  0  0  0  0  0  0  0
   38.0040   26.7340   41.7990 N   0  0  0  0  0  0  0  0  0  0  0  0
   36.5670   27.3150   40.3180 H   0  0  0  0  0  0  0  0  0  0  0  0
   37.6630   30.3170   43.1720 H   0  0  0  0  0  0  0  0  0  0  0  0
   39.6010   26.2030   43.5050 C   0  0  0  0  0  0  0  0  0  0  0  0
   40.2630   26.4900   44.3110 H   0  0  0  0  0  0  0  0  0  0  0  0
   39.5620   25.0080   43.0550 O   0  0  0  0  0  0  0  0  0  0  0  0
  1  4  1  0  0  0  0
  1 16  1  0  0  0  0
  2  1  1  0  0  0  0
  3  1  1  0  0  0  0
  4  6  1  0  0  0  0
  4  5  1  0  0  0  0
  6 11  1  0  0  0  0
  6  9  1  0  0  0  0
  7  6  1  0  0  0  0
  8  7  1  0  0  0  0
  9 10  1  0  0  0  0
 12 13  1  0  0  0  0
 12 14  1  0  0  0  0
 12 11  1  0  0  0  0
 15 12  1  0  0  0  0
 16 18  1  0  0  0  0
 17 18  2  0  0  0  0
 17 22  1  0  0  0  0
 18 19  1  0  0  0  0
 19 24  1  0  0  0  0
 19 20  2  0  0  0  0
 21 20  1  0  0  0  0
 21 25  1  0  0  0  0
 22 21  2  0  0  0  0
 23 17  1  0  0  0  0
 25 26  1  0  0  0  0
 27 25  2  0  0  0  0
M  END
>  <minimizedAffinity>
-4.29652596

$$$$

 OpenBabel03252503033D

 27 27  0  0  0  0  0  0  0  0999 V2000
   39.9060   32.1970   38.8350 C   0  0  0  0  0  0  0  0  0  0  0  0
   39.3140   31.6250   38.1070 H   0  0  0  0  0  0  0  0  0  0  0  0
   40.6800   31.5110   39.2320 H   0  0  0  0  0  0  0  0  0  0  0  0
   40.5120   33.3860   38.2340 N   0  0  0  0  0  0  0  0  0  0  0  0
   40.5460   34.1960   38.8640 H   0  0  0  0  0  0  0  0  0  0  0  0
   42.0540   33.0650   37.5600 S   0  0  0  0  0  0  0  0  0  0  0  0
   42.5010   34.1500   36.6540 O   0  0  0  0  0  0  0  0  0  0  0  0
   43.0920   34.8880   37.0000 H   0  0  0  0  0  0  0  0  0  0  0  0
   43.0030   32.9220   38.7280 O   0  0  0  0  0  0  0  0  0  0  0  0
   43.1320   32.0260   39.1420 H   0  0  0  0  0  0  0  0  0  0  0  0
   42.0350   31.5860   36.7820 O   0  0  0  0  0  0  0  0  0  0  0  0
   43.3010   31.1180   36.5110 C   0  0  0  0  0  0  0  0  0  0  0  0
   43.6240   30.4210   37.3110 H   0  0  0  0  0  0  0  0  0  0  0  0
   43.3140   30.6430   35.5050 H   0  0  0  0  0  0  0  0  0  0  0  0
   44.0100   31.9690   36.4900 H   0  0  0  0  0  0  0  0  0  0  0  0
   38.8820   32.7460   40.1950 S   0  0  0  0  0  0  0  0  0  0  0  0
   39.3540   30.8370   42.1400 C   0  0  0  0  0  0  0  0  0  0  0  0
   38.4400   31.3280   41.2160 C   0  0  0  0  0  0  0  0  0  0  0  0
   37.1890   30.7380   41.0710 C   0  0  0  0  0  0  0  0  0  0  0  0
   36.9110   29.6630   41.8750 N   0  0  0  0  0  0  0  0  0  0  0  0
   37.8190   29.2260   42.7470 C   0  0  0  0  0  0  0  0  0  0  0  0
   39.0210   29.7700   42.9090 N   0  0  0  0  0  0  0  0  0  0  0  0
   40.3250   31.3270   42.2240 H   0  0  0  0  0  0  0  0  0  0  0  0
   36.4770   31.1200   40.3510 H   0  0  0  0  0  0  0  0  0  0  0  0
   37.4750   28.0690   43.5890 C   0  0  0  0  0  0  0  0  0  0  0  0
   38.0820   27.7630   44.4300 H   0  0  0  0  0  0  0  0  0  0  0  0
   36.4080   27.4460   43.2630 O   0  0  0  0  0  0  0  0  0  0  0  0
  1  3  1  0  0  0  0
  1 16  1  0  0  0  0
  2  1  1  0  0  0  0
  4  1  1  0  0  0  0
  4  5  1  0  0  0  0
  6  4  1  0  0  0  0
  6  9  1  0  0  0  0
  7  8  1  0  0  0  0
  7  6  1  0  0  0  0
  9 10  1  0  0  0  0
 11  6  1  0  0  0  0
 12 11  1  0  0  0  0
 12 13  1  0  0  0  0
 14 12  1  0  0  0  0
 15 12  1  0  0  0  0
 16 18  1  0  0  0  0
 17 23  1  0  0  0  0
 17 22  1  0  0  0  0
 18 17  2  0  0  0  0
 19 18  1  0  0  0  0
 19 20  2  0  0  0  0
 20 21  1  0  0  0  0
 21 22  2  0  0  0  0
 21 25  1  0  0  0  0
 24 19  1  0  0  0  0
 25 26  1  0  0  0  0
 27 25  2  0  0  0  0
M  END
>  <minimizedAffinity>
-4.29258251

$$$$

 OpenBabel03252503033D

 27 27  0  0  0  0  0  0  0  0999 V2000
   36.9410   30.6210   40.3620 C   0  0  0  0  0  0  0  0  0  0  0  0
   36.0820   30.0080   40.0550 H   0  0  0  0  0  0  0  0  0  0  0  0
   37.6830   30.5700   39.5400 H   0  0  0  0  0  0  0  0  0  0  0  0
   36.5540   32.0050   40.6390 N   0  0  0  0  0  0  0  0  0  0  0  0
   36.4460   32.2110   41.6380 H   0  0  0  0  0  0  0  0  0  0  0  0
   37.5960   33.1380   39.8860 S   0  0  0  0  0  0  0  0  0  0  0  0
   36.8440   34.1610   39.1200 O   0  0  0  0  0  0  0  0  0  0  0  0
   36.6130   35.0440   39.5450 H   0  0  0  0  0  0  0  0  0  0  0  0
   38.3900   33.7840   40.9990 O   0  0  0  0  0  0  0  0  0  0  0  0
   39.2480   33.3700   41.2860 H   0  0  0  0  0  0  0  0  0  0  0  0
   38.7000   32.3380   38.9200 O   0  0  0  0  0  0  0  0  0  0  0  0
   39.9950   32.4950   39.3590 C   0  0  0  0  0  0  0  0  0  0  0  0
   40.2850   31.6300   39.9900 H   0  0  0  0  0  0  0  0  0  0  0  0
   40.6710   32.6270   38.4860 H   0  0  0  0  0  0  0  0  0  0  0  0
   40.0630   33.4100   39.9790 H   0  0  0  0  0  0  0  0  0  0  0  0
   37.6920   29.9640   41.8470 S   0  0  0  0  0  0  0  0  0  0  0  0
   36.9310   27.5290   40.7810 C   0  0  0  0  0  0  0  0  0  0  0  0
   37.6290   28.1640   41.7990 C   0  0  0  0  0  0  0  0  0  0  0  0
   38.2810   27.4270   42.7820 C   0  0  0  0  0  0  0  0  0  0  0  0
   38.1970   26.0600   42.6930 N   0  0  0  0  0  0  0  0  0  0  0  0
   37.5160   25.4950   41.6980 C   0  0  0  0  0  0  0  0  0  0  0  0
   36.8840   26.1730   40.7450 N   0  0  0  0  0  0  0  0  0  0  0  0
   36.4330   28.1420   40.0280 H   0  0  0  0  0  0  0  0  0  0  0  0
   38.8250   27.9210   43.5760 H   0  0  0  0  0  0  0  0  0  0  0  0
   37.4540   24.0250   41.6440 C   0  0  0  0  0  0  0  0  0  0  0  0
   37.1760   23.4250   42.5000 H   0  0  0  0  0  0  0  0  0  0  0  0
   37.7500   23.5010   40.5170 O   0  0  0  0  0  0  0  0  0  0  0  0
  1  4  1  0  0  0  0
  1 16  1  0  0  0  0
  2  1  1  0  0  0  0
  3  1  1  0  0  0  0
  4  5  1  0  0  0  0
  6  4  1  0  0  0  0
  6  9  1  0  0  0  0
  7  8  1  0  0  0  0
  7  6  1  0  0  0  0
  9 10  1  0  0  0  0
 11 12  1  0  0  0  0
 11  6  1  0  0  0  0
 12 15  1  0  0  0  0
 12 13  1  0  0  0  0
 14 12  1  0  0  0  0
 17 18  1  0  0  0  0
 18 16  1  0  0  0  0
 18 19  2  0  0  0  0
 19 24  1  0  0  0  0
 20 19  1  0  0  0  0
 21 20  2  0  0  0  0
 22 17  2  0  0  0  0
 22 21  1  0  0  0  0
 23 17  1  0  0  0  0
 25 21  1  0  0  0  0
 25 26  1  0  0  0  0
 27 25  2  0  0  0  0
M  END
>  <minimizedAffinity>
-4.20365953

$$$$

 OpenBabel03252503033D

 27 27  0  0  0  0  0  0  0  0999 V2000
   36.6250   31.3190   40.9660 C   0  0  0  0  0  0  0  0  0  0  0  0
   37.3590   31.0560   41.7410 H   0  0  0  0  0  0  0  0  0  0  0  0
   35.6330   31.3540   41.4590 H   0  0  0  0  0  0  0  0  0  0  0  0
   36.9410   32.5950   40.3230 N   0  0  0  0  0  0  0  0  0  0  0  0
   36.3390   33.3700   40.6260 H   0  0  0  0  0  0  0  0  0  0  0  0
   38.5970   33.0090   40.4680 S   0  0  0  0  0  0  0  0  0  0  0  0
   39.1880   33.3980   39.1650 O   0  0  0  0  0  0  0  0  0  0  0  0
   39.2350   34.3680   38.8990 H   0  0  0  0  0  0  0  0  0  0  0  0
   38.6590   34.1610   41.4460 O   0  0  0  0  0  0  0  0  0  0  0  0
   38.7480   33.9670   42.4180 H   0  0  0  0  0  0  0  0  0  0  0  0
   39.4370   31.7470   41.1700 O   0  0  0  0  0  0  0  0  0  0  0  0
   40.2990   31.1340   40.2890 C   0  0  0  0  0  0  0  0  0  0  0  0
   41.3180   31.5560   40.4050 H   0  0  0  0  0  0  0  0  0  0  0  0
   40.2760   30.0330   40.4510 H   0  0  0  0  0  0  0  0  0  0  0  0
   39.9620   31.3280   39.2520 H   0  0  0  0  0  0  0  0  0  0  0  0
   36.5790   30.0690   39.6870 S   0  0  0  0  0  0  0  0  0  0  0  0
   36.8170   27.3150   39.6280 C   0  0  0  0  0  0  0  0  0  0  0  0
   36.7620   28.4410   40.4380 C   0  0  0  0  0  0  0  0  0  0  0  0
   36.8490   28.3280   41.8220 C   0  0  0  0  0  0  0  0  0  0  0  0
   36.9870   27.0630   42.3350 N   0  0  0  0  0  0  0  0  0  0  0  0
   37.0340   26.0120   41.5190 C   0  0  0  0  0  0  0  0  0  0  0  0
   36.9550   26.0890   40.1940 N   0  0  0  0  0  0  0  0  0  0  0  0
   36.7460   27.4450   38.5470 H   0  0  0  0  0  0  0  0  0  0  0  0
   36.8060   29.2060   42.4530 H   0  0  0  0  0  0  0  0  0  0  0  0
   37.1830   24.6740   42.1160 C   0  0  0  0  0  0  0  0  0  0  0  0
   36.9680   24.4770   43.1570 H   0  0  0  0  0  0  0  0  0  0  0  0
   37.5840   23.7570   41.3220 O   0  0  0  0  0  0  0  0  0  0  0  0
  1  3  1  0  0  0  0
  1  2  1  0  0  0  0
  4  6  1  0  0  0  0
  4  5  1  0  0  0  0
  4  1  1  0  0  0  0
  6 11  1  0  0  0  0
  6  9  1  0  0  0  0
  7  6  1  0  0  0  0
  8  7  1  0  0  0  0
  9 10  1  0  0  0  0
 12 13  1  0  0  0  0
 12 14  1  0  0  0  0
 12 11  1  0  0  0  0
 15 12  1  0  0  0  0
 16 18  1  0  0  0  0
 16  1  1  0  0  0  0
 17 22  2  0  0  0  0
 17 18  1  0  0  0  0
 18 19  2  0  0  0  0
 19 20  1  0  0  0  0
 19 24  1  0  0  0  0
 21 25  1  0  0  0  0
 21 20  2  0  0  0  0
 22 21  1  0  0  0  0
 23 17  1  0  0  0  0
 25 26  1  0  0  0  0
 27 25  2  0  0  0  0
M  END
>  <minimizedAffinity>
-4.18844032

$$$$

 OpenBabel03252503033D

 27 27  0  0  0  0  0  0  0  0999 V2000
   38.9390   29.9500   41.1480 C   0  0  0  0  0  0  0  0  0  0  0  0
   38.5230   29.4710   40.2500 H   0  0  0  0  0  0  0  0  0  0  0  0
   40.0340   30.0250   40.9950 H   0  0  0  0  0  0  0  0  0  0  0  0
   38.3480   31.2670   41.3910 N   0  0  0  0  0  0  0  0  0  0  0  0
   38.9910   32.0470   41.2130 H   0  0  0  0  0  0  0  0  0  0  0  0
   36.8690   31.4850   40.5530 S   0  0  0  0  0  0  0  0  0  0  0  0
   35.7050   31.0440   41.3580 O   0  0  0  0  0  0  0  0  0  0  0  0
   35.1910   31.7100   41.9130 H   0  0  0  0  0  0  0  0  0  0  0  0
   36.7750   32.9620   40.2440 O   0  0  0  0  0  0  0  0  0  0  0  0
   37.1650   33.3060   39.3960 H   0  0  0  0  0  0  0  0  0  0  0  0
   36.9300   30.6970   39.0810 O   0  0  0  0  0  0  0  0  0  0  0  0
   37.3510   31.5190   38.0600 C   0  0  0  0  0  0  0  0  0  0  0  0
   38.4410   31.3920   37.9000 H   0  0  0  0  0  0  0  0  0  0  0  0
   36.7600   31.3050   37.1420 H   0  0  0  0  0  0  0  0  0  0  0  0
   37.1650   32.5750   38.3410 H   0  0  0  0  0  0  0  0  0  0  0  0
   38.6360   28.9480   42.5990 S   0  0  0  0  0  0  0  0  0  0  0  0
   37.2170   26.5750   42.6140 C   0  0  0  0  0  0  0  0  0  0  0  0
   38.3130   27.2490   42.0920 C   0  0  0  0  0  0  0  0  0  0  0  0
   39.1640   26.6290   41.1830 C   0  0  0  0  0  0  0  0  0  0  0  0
   38.8670   25.3350   40.8360 N   0  0  0  0  0  0  0  0  0  0  0  0
   37.8050   24.7280   41.3630 C   0  0  0  0  0  0  0  0  0  0  0  0
   36.9740   25.2960   42.2320 N   0  0  0  0  0  0  0  0  0  0  0  0
   36.5730   27.0960   43.3240 H   0  0  0  0  0  0  0  0  0  0  0  0
   40.0190   27.1540   40.7770 H   0  0  0  0  0  0  0  0  0  0  0  0
   37.5260   23.3400   40.9600 C   0  0  0  0  0  0  0  0  0  0  0  0
   36.5320   22.9150   40.9960 H   0  0  0  0  0  0  0  0  0  0  0  0
   38.5360   22.6670   40.5630 O   0  0  0  0  0  0  0  0  0  0  0  0
  1  4  1  0  0  0  0
  1 16  1  0  0  0  0
  2  1  1  0  0  0  0
  3  1  1  0  0  0  0
  5  4  1  0  0  0  0
  6  7  1  0  0  0  0
  6  4  1  0  0  0  0
  7  8  1  0  0  0  0
  9  6  1  0  0  0  0
 10  9  1  0  0  0  0
 11  6  1  0  0  0  0
 12 15  1  0  0  0  0
 12 11  1  0  0  0  0
 13 12  1  0  0  0  0
 14 12  1  0  0  0  0
 17 23  1  0  0  0  0
 18 16  1  0  0  0  0
 18 17  2  0  0  0  0
 19 18  1  0  0  0  0
 20 19  2  0  0  0  0
 20 21  1  0  0  0  0
 21 22  2  0  0  0  0
 22 17  1  0  0  0  0
 24 19  1  0  0  0  0
 25 26  1  0  0  0  0
 25 21  1  0  0  0  0
 27 25  2  0  0  0  0
M  END
>  <minimizedAffinity>
-4.18064737

$$$$

 OpenBabel03252503033D

 27 27  0  0  0  0  0  0  0  0999 V2000
   37.1120   28.3110   43.4890 C   0  0  0  0  0  0  0  0  0  0  0  0
   36.8330   28.4070   44.5480 H   0  0  0  0  0  0  0  0  0  0  0  0
   36.3150   27.7190   42.9970 H   0  0  0  0  0  0  0  0  0  0  0  0
   37.2730   29.6160   42.8450 N   0  0  0  0  0  0  0  0  0  0  0  0
   38.2530   29.9000   42.7270 H   0  0  0  0  0  0  0  0  0  0  0  0
   36.4180   29.7250   41.3640 S   0  0  0  0  0  0  0  0  0  0  0  0
   35.4460   28.6170   41.2020 O   0  0  0  0  0  0  0  0  0  0  0  0
   34.4830   28.7440   41.4700 H   0  0  0  0  0  0  0  0  0  0  0  0
   35.7060   31.0590   41.3870 O   0  0  0  0  0  0  0  0  0  0  0  0
   36.1740   31.8640   41.0360 H   0  0  0  0  0  0  0  0  0  0  0  0
   37.4970   29.7860   40.0900 O   0  0  0  0  0  0  0  0  0  0  0  0
   38.7680   30.1320   40.4920 C   0  0  0  0  0  0  0  0  0  0  0  0
   39.3750   29.2170   40.6470 H   0  0  0  0  0  0  0  0  0  0  0  0
   39.2210   30.8200   39.7450 H   0  0  0  0  0  0  0  0  0  0  0  0
   38.7110   30.6740   41.4570 H   0  0  0  0  0  0  0  0  0  0  0  0
   38.6610   27.4320   43.3170 S   0  0  0  0  0  0  0  0  0  0  0  0
   39.4600   25.2040   41.8880 C   0  0  0  0  0  0  0  0  0  0  0  0
   38.3780   25.9030   42.4060 C   0  0  0  0  0  0  0  0  0  0  0  0
   37.0790   25.4370   42.2300 C   0  0  0  0  0  0  0  0  0  0  0  0
   36.9280   24.2680   41.5270 N   0  0  0  0  0  0  0  0  0  0  0  0
   37.9960   23.6320   41.0480 C   0  0  0  0  0  0  0  0  0  0  0  0
   39.2470   24.0530   41.2010 N   0  0  0  0  0  0  0  0  0  0  0  0
   40.4640   25.6020   42.0460 H   0  0  0  0  0  0  0  0  0  0  0  0
   36.2360   25.9820   42.6330 H   0  0  0  0  0  0  0  0  0  0  0  0
   37.7830   22.3820   40.3010 C   0  0  0  0  0  0  0  0  0  0  0  0
   36.9150   21.7550   40.4550 H   0  0  0  0  0  0  0  0  0  0  0  0
   38.6920   22.0830   39.4540 O   0  0  0  0  0  0  0  0  0  0  0  0
  1  2  1  0  0  0  0
  3  1  1  0  0  0  0
  4  1  1  0  0  0  0
  5  4  1  0  0  0  0
  6  9  1  0  0  0  0
  6  4  1  0  0  0  0
  7  6  1  0  0  0  0
  7  8  1  0  0  0  0
 10  9  1  0  0  0  0
 11 12  1  0  0  0  0
 11  6  1  0  0  0  0
 12 13  1  0  0  0  0
 12 15  1  0  0  0  0
 14 12  1  0  0  0  0
 16  1  1  0  0  0  0
 17 23  1  0  0  0  0
 17 18  1  0  0  0  0
 18 16  1  0  0  0  0
 19 18  2  0  0  0  0
 19 24  1  0  0  0  0
 20 19  1  0  0  0  0
 21 22  1  0  0  0  0
 21 20  2  0  0  0  0
 22 17  2  0  0  0  0
 25 26  1  0  0  0  0
 25 21  1  0  0  0  0
 27 25  2  0  0  0  0
M  END
>  <minimizedAffinity>
-4.13249445

$$$$

 OpenBabel03252503033D

 27 27  0  0  0  0  0  0  0  0999 V2000
   35.7790   29.5680   38.8630 C   0  0  0  0  0  0  0  0  0  0  0  0
   34.9900   29.7040   39.6170 H   0  0  0  0  0  0  0  0  0  0  0  0
   35.3350   29.8270   37.8810 H   0  0  0  0  0  0  0  0  0  0  0  0
   36.9540   30.3940   39.1460 N   0  0  0  0  0  0  0  0  0  0  0  0
   37.1810   31.0590   38.3970 H   0  0  0  0  0  0  0  0  0  0  0  0
   36.8490   31.1860   40.6620 S   0  0  0  0  0  0  0  0  0  0  0  0
   36.9700   32.6580   40.5290 O   0  0  0  0  0  0  0  0  0  0  0  0
   36.1440   33.2310   40.4630 H   0  0  0  0  0  0  0  0  0  0  0  0
   35.5020   30.8120   41.2390 O   0  0  0  0  0  0  0  0  0  0  0  0
   35.4250   29.9930   41.7980 H   0  0  0  0  0  0  0  0  0  0  0  0
   37.9990   30.5670   41.7050 O   0  0  0  0  0  0  0  0  0  0  0  0
   39.2440   31.1170   41.5010 C   0  0  0  0  0  0  0  0  0  0  0  0
   39.4040   31.9560   42.2090 H   0  0  0  0  0  0  0  0  0  0  0  0
   40.0210   30.3270   41.5990 H   0  0  0  0  0  0  0  0  0  0  0  0
   39.3020   31.5210   40.4710 H   0  0  0  0  0  0  0  0  0  0  0  0
   36.3200   27.8640   38.8100 S   0  0  0  0  0  0  0  0  0  0  0  0
   36.6920   27.3610   41.5030 C   0  0  0  0  0  0  0  0  0  0  0  0
   37.3140   27.5090   40.2700 C   0  0  0  0  0  0  0  0  0  0  0  0
   38.6940   27.3860   40.1500 C   0  0  0  0  0  0  0  0  0  0  0  0
   39.3970   27.1160   41.2970 N   0  0  0  0  0  0  0  0  0  0  0  0
   38.7570   26.9820   42.4580 C   0  0  0  0  0  0  0  0  0  0  0  0
   37.4410   27.0930   42.6030 N   0  0  0  0  0  0  0  0  0  0  0  0
   35.6070   27.4640   41.5570 H   0  0  0  0  0  0  0  0  0  0  0  0
   39.1790   27.5020   39.1890 H   0  0  0  0  0  0  0  0  0  0  0  0
   39.5540   26.6930   43.6610 C   0  0  0  0  0  0  0  0  0  0  0  0
   39.6430   27.3940   44.4800 H   0  0  0  0  0  0  0  0  0  0  0  0
   40.1350   25.5550   43.6790 O   0  0  0  0  0  0  0  0  0  0  0  0
  1  4  1  0  0  0  0
  1  2  1  0  0  0  0
  3  1  1  0  0  0  0
  4  6  1  0  0  0  0
  5  4  1  0  0  0  0
  6  9  1  0  0  0  0
  6 11  1  0  0  0  0
  7  6  1  0  0  0  0
  8  7  1  0  0  0  0
  9 10  1  0  0  0  0
 12 14  1  0  0  0  0
 12 11  1  0  0  0  0
 12 13  1  0  0  0  0
 15 12  1  0  0  0  0
 16  1  1  0  0  0  0
 16 18  1  0  0  0  0
 17 23  1  0  0  0  0
 17 22  1  0  0  0  0
 18 17  2  0  0  0  0
 19 18  1  0  0  0  0
 19 20  2  0  0  0  0
 20 21  1  0  0  0  0
 21 22  2  0  0  0  0
 21 25  1  0  0  0  0
 24 19  1  0  0  0  0
 25 27  2  0  0  0  0
 25 26  1  0  0  0  0
M  END
>  <minimizedAffinity>
-4.0611105

$$$$

 OpenBabel03252503033D

 27 27  0  0  0  0  0  0  0  0999 V2000
   39.9540   32.1090   39.3170 C   0  0  0  0  0  0  0  0  0  0  0  0
   39.4210   31.4840   38.5860 H   0  0  0  0  0  0  0  0  0  0  0  0
   40.7210   32.6790   38.7560 H   0  0  0  0  0  0  0  0  0  0  0  0
   39.0470   33.0070   40.0340 N   0  0  0  0  0  0  0  0  0  0  0  0
   39.3210   33.9950   39.9840 H   0  0  0  0  0  0  0  0  0  0  0  0
   37.4120   32.7960   39.5680 S   0  0  0  0  0  0  0  0  0  0  0  0
   36.5860   32.2530   40.6730 O   0  0  0  0  0  0  0  0  0  0  0  0
   36.0660   32.8750   41.2700 H   0  0  0  0  0  0  0  0  0  0  0  0
   36.9140   34.1610   39.1520 O   0  0  0  0  0  0  0  0  0  0  0  0
   37.0190   34.4480   38.2040 H   0  0  0  0  0  0  0  0  0  0  0  0
   37.3310   31.8280   38.2080 O   0  0  0  0  0  0  0  0  0  0  0  0
   36.6630   30.6470   38.4420 C   0  0  0  0  0  0  0  0  0  0  0  0
   35.6020   30.7490   38.1360 H   0  0  0  0  0  0  0  0  0  0  0  0
   37.1790   29.8160   37.9120 H   0  0  0  0  0  0  0  0  0  0  0  0
   36.6880   30.4210   39.5260 H   0  0  0  0  0  0  0  0  0  0  0  0
   40.7810   31.0940   40.5360 S   0  0  0  0  0  0  0  0  0  0  0  0
   39.0660   28.9260   40.5800 C   0  0  0  0  0  0  0  0  0  0  0  0
   39.5810   29.9910   41.3060 C   0  0  0  0  0  0  0  0  0  0  0  0
   39.1830   30.2170   42.6190 C   0  0  0  0  0  0  0  0  0  0  0  0
   38.2670   29.3440   43.1500 N   0  0  0  0  0  0  0  0  0  0  0  0
   37.8000   28.3360   42.4160 C   0  0  0  0  0  0  0  0  0  0  0  0
   38.1620   28.0960   41.1600 N   0  0  0  0  0  0  0  0  0  0  0  0
   39.4030   28.7820   39.5520 H   0  0  0  0  0  0  0  0  0  0  0  0
   39.5850   31.0470   43.1850 H   0  0  0  0  0  0  0  0  0  0  0  0
   36.8180   27.4260   43.0280 C   0  0  0  0  0  0  0  0  0  0  0  0
   36.0700   27.7680   43.7300 H   0  0  0  0  0  0  0  0  0  0  0  0
   36.9060   26.2010   42.6760 O   0  0  0  0  0  0  0  0  0  0  0  0
  1  4  1  0  0  0  0
  1 16  1  0  0  0  0
  2  1  1  0  0  0  0
  3  1  1  0  0  0  0
  5  4  1  0  0  0  0
  6  4  1  0  0  0  0
  6  7  1  0  0  0  0
  7  8  1  0  0  0  0
  9  6  1  0  0  0  0
 10  9  1  0  0  0  0
 11 12  1  0  0  0  0
 11  6  1  0  0  0  0
 12 15  1  0  0  0  0
 13 12  1  0  0  0  0
 14 12  1  0  0  0  0
 16 18  1  0  0  0  0
 17 22  2  0  0  0  0
 17 18  1  0  0  0  0
 18 19  2  0  0  0  0
 19 20  1  0  0  0  0
 19 24  1  0  0  0  0
 21 25  1  0  0  0  0
 21 20  2  0  0  0  0
 22 21  1  0  0  0  0
 23 17  1  0  0  0  0
 25 26  1  0  0  0  0
 27 25  2  0  0  0  0
M  END
>  <minimizedAffinity>
-4.05889416

$$$$
