
 OpenBabel03242522463D

 29 31  0  0  0  0  0  0  0  0999 V2000
   37.6820   28.8190   41.6580 C   0  0  0  0  0  0  0  0  0  0  0  0
   37.3760   28.3450   42.9060 C   0  0  0  0  0  0  0  0  0  0  0  0
   37.0450   27.0200   43.0840 C   0  0  0  0  0  0  0  0  0  0  0  0
   37.0070   26.1260   42.0320 C   0  0  0  0  0  0  0  0  0  0  0  0
   36.6750   24.8430   42.2810 N   0  0  0  0  0  0  0  0  0  0  0  0
   36.6330   23.9480   41.2600 C   0  0  0  0  0  0  0  0  0  0  0  0
   36.9380   24.4160   40.0050 C   0  0  0  0  0  0  0  0  0  0  0  0
   37.2830   25.7180   39.7120 C   0  0  0  0  0  0  0  0  0  0  0  0
   37.3200   26.6080   40.7590 C   0  0  0  0  0  0  0  0  0  0  0  0
   37.6530   27.9410   40.5810 C   0  0  0  0  0  0  0  0  0  0  0  0
   37.4210   29.0780   43.6790 H   0  0  0  0  0  0  0  0  0  0  0  0
   36.8070   26.6780   44.0930 H   0  0  0  0  0  0  0  0  0  0  0  0
   36.3640   22.9350   41.4910 H   0  0  0  0  0  0  0  0  0  0  0  0
   36.8930   23.6690   39.2160 H   0  0  0  0  0  0  0  0  0  0  0  0
   37.5170   26.0470   38.7120 H   0  0  0  0  0  0  0  0  0  0  0  0
   37.8800   28.2200   39.5470 H   0  0  0  0  0  0  0  0  0  0  0  0
   37.1260   31.1890   41.0170 C   0  0  0  0  0  0  0  0  0  0  0  0
   38.0560   30.1800   41.2650 C   0  0  0  0  0  0  0  0  0  0  0  0
   39.4510   30.4670   41.1320 C   0  0  0  0  0  0  0  0  0  0  0  0
   39.7650   31.7430   40.7650 N   0  0  0  0  0  0  0  0  0  0  0  0
   38.8540   32.6870   40.5350 C   0  0  0  0  0  0  0  0  0  0  0  0
   37.5520   32.4080   40.6610 N   0  0  0  0  0  0  0  0  0  0  0  0
   35.7580   30.8940   41.1500 N   0  0  0  0  0  0  0  0  0  0  0  0
   40.1820   29.7120   41.3160 H   0  0  0  0  0  0  0  0  0  0  0  0
   35.0260   31.5490   40.7960 H   0  0  0  0  0  0  0  0  0  0  0  0
   35.4340   30.0140   41.6050 H   0  0  0  0  0  0  0  0  0  0  0  0
   39.2600   34.0350   40.1440 C   0  0  0  0  0  0  0  0  0  0  0  0
   38.7320   34.9030   40.4850 H   0  0  0  0  0  0  0  0  0  0  0  0
   40.2720   34.1600   39.3760 O   0  0  0  0  0  0  0  0  0  0  0  0
  1  2  1  0  0  0  0
  2  3  2  0  0  0  0
  2 11  1  0  0  0  0
  3 12  1  0  0  0  0
  4  5  1  0  0  0  0
  4  3  1  0  0  0  0
  6 13  1  0  0  0  0
  6  5  2  0  0  0  0
  7  6  1  0  0  0  0
  8  7  2  0  0  0  0
  8  9  1  0  0  0  0
  9  4  2  0  0  0  0
 10  9  1  0  0  0  0
 10  1  2  0  0  0  0
 14  7  1  0  0  0  0
 15  8  1  0  0  0  0
 16 10  1  0  0  0  0
 17 23  1  0  0  0  0
 17 18  1  0  0  0  0
 18  1  1  0  0  0  0
 19 18  2  0  0  0  0
 19 24  1  0  0  0  0
 20 19  1  0  0  0  0
 21 22  1  0  0  0  0
 21 20  2  0  0  0  0
 22 17  2  0  0  0  0
 23 26  1  0  0  0  0
 25 23  1  0  0  0  0
 27 28  1  0  0  0  0
 27 21  1  0  0  0  0
 29 27  2  0  0  0  0
M  END
>  <minimizedAffinity>
-5.66924381

$$$$

 OpenBabel03242522463D

 29 31  0  0  0  0  0  0  0  0999 V2000
   37.5260   29.7650   40.9020 C   0  0  0  0  0  0  0  0  0  0  0  0
   36.5690   30.6730   40.5310 C   0  0  0  0  0  0  0  0  0  0  0  0
   36.9200   31.9740   40.2480 C   0  0  0  0  0  0  0  0  0  0  0  0
   38.2270   32.4150   40.3240 C   0  0  0  0  0  0  0  0  0  0  0  0
   38.4970   33.7030   40.0330 N   0  0  0  0  0  0  0  0  0  0  0  0
   39.7750   34.1560   40.1010 C   0  0  0  0  0  0  0  0  0  0  0  0
   40.7400   33.2510   40.4720 C   0  0  0  0  0  0  0  0  0  0  0  0
   40.5040   31.9280   40.7770 C   0  0  0  0  0  0  0  0  0  0  0  0
   39.2030   31.4900   40.7010 C   0  0  0  0  0  0  0  0  0  0  0  0
   38.8490   30.1810   40.9860 C   0  0  0  0  0  0  0  0  0  0  0  0
   35.5790   30.2780   40.4890 H   0  0  0  0  0  0  0  0  0  0  0  0
   36.1310   32.6700   39.9550 H   0  0  0  0  0  0  0  0  0  0  0  0
   39.9570   35.1870   39.8630 H   0  0  0  0  0  0  0  0  0  0  0  0
   41.7500   33.6530   40.5160 H   0  0  0  0  0  0  0  0  0  0  0  0
   41.2890   31.2480   41.0650 H   0  0  0  0  0  0  0  0  0  0  0  0
   39.6850   29.5340   41.2720 H   0  0  0  0  0  0  0  0  0  0  0  0
   37.0820   27.8960   42.5290 C   0  0  0  0  0  0  0  0  0  0  0  0
   37.3580   28.3490   41.2390 C   0  0  0  0  0  0  0  0  0  0  0  0
   37.4890   27.3990   40.1780 C   0  0  0  0  0  0  0  0  0  0  0  0
   37.3260   26.0890   40.5270 N   0  0  0  0  0  0  0  0  0  0  0  0
   37.0630   25.6870   41.7680 C   0  0  0  0  0  0  0  0  0  0  0  0
   36.9430   26.5830   42.7530 N   0  0  0  0  0  0  0  0  0  0  0  0
   36.9570   28.8400   43.5630 N   0  0  0  0  0  0  0  0  0  0  0  0
   37.6990   27.7200   39.1830 H   0  0  0  0  0  0  0  0  0  0  0  0
   36.9410   28.5460   44.5650 H   0  0  0  0  0  0  0  0  0  0  0  0
   36.8750   29.8590   43.3620 H   0  0  0  0  0  0  0  0  0  0  0  0
   36.9020   24.2660   42.0720 C   0  0  0  0  0  0  0  0  0  0  0  0
   36.1560   23.9190   42.7590 H   0  0  0  0  0  0  0  0  0  0  0  0
   37.6790   23.4350   41.4940 O   0  0  0  0  0  0  0  0  0  0  0  0
  1 10  1  0  0  0  0
  1 18  1  0  0  0  0
  2  1  2  0  0  0  0
  3  4  2  0  0  0  0
  3  2  1  0  0  0  0
  4  9  1  0  0  0  0
  5  6  2  0  0  0  0
  5  4  1  0  0  0  0
  6  7  1  0  0  0  0
  7 14  1  0  0  0  0
  7  8  2  0  0  0  0
  8 15  1  0  0  0  0
  9  8  1  0  0  0  0
  9 10  2  0  0  0  0
 10 16  1  0  0  0  0
 11  2  1  0  0  0  0
 12  3  1  0  0  0  0
 13  6  1  0  0  0  0
 17 22  1  0  0  0  0
 17 23  1  0  0  0  0
 18 17  2  0  0  0  0
 19 20  2  0  0  0  0
 19 18  1  0  0  0  0
 20 21  1  0  0  0  0
 21 27  1  0  0  0  0
 21 22  2  0  0  0  0
 23 25  1  0  0  0  0
 24 19  1  0  0  0  0
 26 23  1  0  0  0  0
 27 28  1  0  0  0  0
 29 27  2  0  0  0  0
M  END
>  <minimizedAffinity>
-5.23604918

$$$$

 OpenBabel03242522463D

 29 31  0  0  0  0  0  0  0  0999 V2000
   36.9570   28.4940   39.4870 C   0  0  0  0  0  0  0  0  0  0  0  0
   36.3450   27.9010   38.4140 C   0  0  0  0  0  0  0  0  0  0  0  0
   36.0460   26.5580   38.4410 C   0  0  0  0  0  0  0  0  0  0  0  0
   36.3430   25.7600   39.5290 C   0  0  0  0  0  0  0  0  0  0  0  0
   36.0200   24.4530   39.4850 N   0  0  0  0  0  0  0  0  0  0  0  0
   36.3040   23.6520   40.5450 C   0  0  0  0  0  0  0  0  0  0  0  0
   36.9180   24.2390   41.6250 C   0  0  0  0  0  0  0  0  0  0  0  0
   37.2630   25.5710   41.7070 C   0  0  0  0  0  0  0  0  0  0  0  0
   36.9670   26.3640   40.6240 C   0  0  0  0  0  0  0  0  0  0  0  0
   37.2680   27.7150   40.5970 C   0  0  0  0  0  0  0  0  0  0  0  0
   36.1390   28.5630   37.6040 H   0  0  0  0  0  0  0  0  0  0  0  0
   35.5580   26.1200   37.5670 H   0  0  0  0  0  0  0  0  0  0  0  0
   36.0350   22.6150   40.4780 H   0  0  0  0  0  0  0  0  0  0  0  0
   37.1290   23.5650   42.4520 H   0  0  0  0  0  0  0  0  0  0  0  0
   37.7440   25.9950   42.5740 H   0  0  0  0  0  0  0  0  0  0  0  0
   37.7560   28.0930   41.5010 H   0  0  0  0  0  0  0  0  0  0  0  0
   36.6080   30.8220   40.3780 C   0  0  0  0  0  0  0  0  0  0  0  0
   37.3540   29.8940   39.6530 C   0  0  0  0  0  0  0  0  0  0  0  0
   38.5720   30.3110   39.0290 C   0  0  0  0  0  0  0  0  0  0  0  0
   38.9130   31.6210   39.2020 N   0  0  0  0  0  0  0  0  0  0  0  0
   38.1800   32.4850   39.9020 C   0  0  0  0  0  0  0  0  0  0  0  0
   37.0420   32.0850   40.4800 N   0  0  0  0  0  0  0  0  0  0  0  0
   35.4130   30.4000   40.9850 N   0  0  0  0  0  0  0  0  0  0  0  0
   39.1620   29.6200   38.4680 H   0  0  0  0  0  0  0  0  0  0  0  0
   34.7310   31.0880   41.3730 H   0  0  0  0  0  0  0  0  0  0  0  0
   35.1730   29.3890   41.0680 H   0  0  0  0  0  0  0  0  0  0  0  0
   38.6030   33.8760   40.0470 C   0  0  0  0  0  0  0  0  0  0  0  0
   38.1960   34.6550   39.4350 H   0  0  0  0  0  0  0  0  0  0  0  0
   39.4820   34.1480   40.9330 O   0  0  0  0  0  0  0  0  0  0  0  0
  1 18  1  0  0  0  0
  1 10  1  0  0  0  0
  2  3  1  0  0  0  0
  2  1  2  0  0  0  0
  3  4  2  0  0  0  0
  4  9  1  0  0  0  0
  5  4  1  0  0  0  0
  5  6  2  0  0  0  0
  6  7  1  0  0  0  0
  7  8  2  0  0  0  0
  7 14  1  0  0  0  0
  8 15  1  0  0  0  0
  9  8  1  0  0  0  0
 10  9  2  0  0  0  0
 10 16  1  0  0  0  0
 11  2  1  0  0  0  0
 12  3  1  0  0  0  0
 13  6  1  0  0  0  0
 17 22  1  0  0  0  0
 17 23  1  0  0  0  0
 18 17  2  0  0  0  0
 19 20  2  0  0  0  0
 19 18  1  0  0  0  0
 20 21  1  0  0  0  0
 21 27  1  0  0  0  0
 21 22  2  0  0  0  0
 23 26  1  0  0  0  0
 23 25  1  0  0  0  0
 24 19  1  0  0  0  0
 27 29  2  0  0  0  0
 28 27  1  0  0  0  0
M  END
>  <minimizedAffinity>
-5.1790719

$$$$

 OpenBabel03242522463D

 29 31  0  0  0  0  0  0  0  0999 V2000
   37.0970   30.8740   39.5610 C   0  0  0  0  0  0  0  0  0  0  0  0
   36.1570   30.3980   40.4370 C   0  0  0  0  0  0  0  0  0  0  0  0
   35.1490   29.5740   39.9920 C   0  0  0  0  0  0  0  0  0  0  0  0
   35.0400   29.1950   38.6680 C   0  0  0  0  0  0  0  0  0  0  0  0
   34.0260   28.3840   38.3050 N   0  0  0  0  0  0  0  0  0  0  0  0
   33.9030   28.0000   37.0080 C   0  0  0  0  0  0  0  0  0  0  0  0
   34.8420   28.4730   36.1230 C   0  0  0  0  0  0  0  0  0  0  0  0
   35.8910   29.3010   36.4570 C   0  0  0  0  0  0  0  0  0  0  0  0
   35.9990   29.6780   37.7750 C   0  0  0  0  0  0  0  0  0  0  0  0
   37.0130   30.5080   38.2230 C   0  0  0  0  0  0  0  0  0  0  0  0
   36.2900   30.7220   41.4450 H   0  0  0  0  0  0  0  0  0  0  0  0
   34.4170   29.2140   40.7190 H   0  0  0  0  0  0  0  0  0  0  0  0
   33.0840   27.3550   36.7510 H   0  0  0  0  0  0  0  0  0  0  0  0
   34.7080   28.1430   35.0960 H   0  0  0  0  0  0  0  0  0  0  0  0
   36.6090   29.6510   35.7330 H   0  0  0  0  0  0  0  0  0  0  0  0
   37.7130   30.8330   37.4470 H   0  0  0  0  0  0  0  0  0  0  0  0
   38.1340   33.1410   39.9070 C   0  0  0  0  0  0  0  0  0  0  0  0
   38.2370   31.7530   39.8350 C   0  0  0  0  0  0  0  0  0  0  0  0
   39.5120   31.1350   40.0320 C   0  0  0  0  0  0  0  0  0  0  0  0
   40.5520   31.9820   40.2840 N   0  0  0  0  0  0  0  0  0  0  0  0
   40.4230   33.3050   40.3480 C   0  0  0  0  0  0  0  0  0  0  0  0
   39.2270   33.8730   40.1610 N   0  0  0  0  0  0  0  0  0  0  0  0
   36.8760   33.7360   39.7100 N   0  0  0  0  0  0  0  0  0  0  0  0
   39.6180   30.0750   39.9820 H   0  0  0  0  0  0  0  0  0  0  0  0
   36.7800   34.7650   39.5670 H   0  0  0  0  0  0  0  0  0  0  0  0
   36.0020   33.1680   39.7020 H   0  0  0  0  0  0  0  0  0  0  0  0
   41.5810   34.1550   40.6220 C   0  0  0  0  0  0  0  0  0  0  0  0
   41.4800   35.2100   40.7780 H   0  0  0  0  0  0  0  0  0  0  0  0
   42.7320   33.6050   40.6730 O   0  0  0  0  0  0  0  0  0  0  0  0
  1 18  1  0  0  0  0
  1  2  1  0  0  0  0
  2 11  1  0  0  0  0
  3  2  2  0  0  0  0
  3 12  1  0  0  0  0
  4  3  1  0  0  0  0
  5  4  1  0  0  0  0
  6  5  2  0  0  0  0
  7  8  2  0  0  0  0
  7  6  1  0  0  0  0
  8  9  1  0  0  0  0
  9 10  1  0  0  0  0
  9  4  2  0  0  0  0
 10  1  2  0  0  0  0
 13  6  1  0  0  0  0
 14  7  1  0  0  0  0
 15  8  1  0  0  0  0
 16 10  1  0  0  0  0
 17 22  1  0  0  0  0
 18 17  2  0  0  0  0
 18 19  1  0  0  0  0
 19 20  2  0  0  0  0
 20 21  1  0  0  0  0
 21 27  1  0  0  0  0
 22 21  2  0  0  0  0
 23 17  1  0  0  0  0
 24 19  1  0  0  0  0
 25 23  1  0  0  0  0
 26 23  1  0  0  0  0
 27 29  2  0  0  0  0
 27 28  1  0  0  0  0
M  END
>  <minimizedAffinity>
-5.15481234

$$$$

 OpenBabel03242522463D

 29 31  0  0  0  0  0  0  0  0999 V2000
   36.6030   29.4280   38.8170 C   0  0  0  0  0  0  0  0  0  0  0  0
   36.7990   28.1490   39.2660 C   0  0  0  0  0  0  0  0  0  0  0  0
   36.0410   27.1140   38.7660 C   0  0  0  0  0  0  0  0  0  0  0  0
   35.0670   27.3130   37.8070 C   0  0  0  0  0  0  0  0  0  0  0  0
   34.3630   26.2530   37.3640 N   0  0  0  0  0  0  0  0  0  0  0  0
   33.4010   26.4280   36.4220 C   0  0  0  0  0  0  0  0  0  0  0  0
   33.1980   27.7080   35.9660 C   0  0  0  0  0  0  0  0  0  0  0  0
   33.8970   28.8170   36.3940 C   0  0  0  0  0  0  0  0  0  0  0  0
   34.8670   28.6170   37.3480 C   0  0  0  0  0  0  0  0  0  0  0  0
   35.6290   29.6580   37.8520 C   0  0  0  0  0  0  0  0  0  0  0  0
   37.5630   28.0530   40.0040 H   0  0  0  0  0  0  0  0  0  0  0  0
   36.2250   26.1070   39.1470 H   0  0  0  0  0  0  0  0  0  0  0  0
   32.8590   25.5640   36.0900 H   0  0  0  0  0  0  0  0  0  0  0  0
   32.4200   27.8070   35.2130 H   0  0  0  0  0  0  0  0  0  0  0  0
   33.7080   29.8070   36.0120 H   0  0  0  0  0  0  0  0  0  0  0  0
   35.3960   30.6410   37.4290 H   0  0  0  0  0  0  0  0  0  0  0  0
   36.9370   31.4110   40.3310 C   0  0  0  0  0  0  0  0  0  0  0  0
   37.2990   30.6530   39.2180 C   0  0  0  0  0  0  0  0  0  0  0  0
   38.4040   31.0760   38.4130 C   0  0  0  0  0  0  0  0  0  0  0  0
   39.0300   32.2200   38.8150 N   0  0  0  0  0  0  0  0  0  0  0  0
   38.6610   32.9240   39.8830 C   0  0  0  0  0  0  0  0  0  0  0  0
   37.6260   32.5200   40.6280 N   0  0  0  0  0  0  0  0  0  0  0  0
   35.8490   30.9850   41.1130 N   0  0  0  0  0  0  0  0  0  0  0  0
   38.7010   30.5130   37.5570 H   0  0  0  0  0  0  0  0  0  0  0  0
   35.4230   31.6090   41.8330 H   0  0  0  0  0  0  0  0  0  0  0  0
   35.4370   30.0350   40.9970 H   0  0  0  0  0  0  0  0  0  0  0  0
   39.3760   34.1430   40.2560 C   0  0  0  0  0  0  0  0  0  0  0  0
   38.8570   35.0460   40.5050 H   0  0  0  0  0  0  0  0  0  0  0  0
   40.6520   34.1080   40.2810 O   0  0  0  0  0  0  0  0  0  0  0  0
  1 18  1  0  0  0  0
  1  2  1  0  0  0  0
  2 11  1  0  0  0  0
  3 12  1  0  0  0  0
  3  2  2  0  0  0  0
  4  3  1  0  0  0  0
  5  4  1  0  0  0  0
  6  5  2  0  0  0  0
  7  8  2  0  0  0  0
  7  6  1  0  0  0  0
  8  9  1  0  0  0  0
  9  4  2  0  0  0  0
  9 10  1  0  0  0  0
 10  1  2  0  0  0  0
 13  6  1  0  0  0  0
 14  7  1  0  0  0  0
 15  8  1  0  0  0  0
 16 10  1  0  0  0  0
 17 22  1  0  0  0  0
 17 23  1  0  0  0  0
 18 17  2  0  0  0  0
 19 20  2  0  0  0  0
 19 18  1  0  0  0  0
 20 21  1  0  0  0  0
 21 27  1  0  0  0  0
 21 22  2  0  0  0  0
 23 25  1  0  0  0  0
 24 19  1  0  0  0  0
 26 23  1  0  0  0  0
 27 29  2  0  0  0  0
 27 28  1  0  0  0  0
M  END
>  <minimizedAffinity>
-4.99426937

$$$$

 OpenBabel03242522463D

 29 31  0  0  0  0  0  0  0  0999 V2000
   37.6180   28.3850   41.3910 C   0  0  0  0  0  0  0  0  0  0  0  0
   37.6220   27.7070   42.5820 C   0  0  0  0  0  0  0  0  0  0  0  0
   37.2920   26.3710   42.6210 C   0  0  0  0  0  0  0  0  0  0  0  0
   36.9470   25.6660   41.4840 C   0  0  0  0  0  0  0  0  0  0  0  0
   36.6350   24.3600   41.5980 N   0  0  0  0  0  0  0  0  0  0  0  0
   36.2950   23.6490   40.4920 C   0  0  0  0  0  0  0  0  0  0  0  0
   36.2880   24.3220   39.2940 C   0  0  0  0  0  0  0  0  0  0  0  0
   36.6010   25.6550   39.1380 C   0  0  0  0  0  0  0  0  0  0  0  0
   36.9440   26.3560   40.2700 C   0  0  0  0  0  0  0  0  0  0  0  0
   37.2760   27.7000   40.2310 C   0  0  0  0  0  0  0  0  0  0  0  0
   37.8950   28.3000   43.4250 H   0  0  0  0  0  0  0  0  0  0  0  0
   37.3060   25.8630   43.5880 H   0  0  0  0  0  0  0  0  0  0  0  0
   36.0510   22.6110   40.6160 H   0  0  0  0  0  0  0  0  0  0  0  0
   36.0100   23.7190   38.4330 H   0  0  0  0  0  0  0  0  0  0  0  0
   36.5840   26.1480   38.1790 H   0  0  0  0  0  0  0  0  0  0  0  0
   37.2430   28.1500   39.2330 H   0  0  0  0  0  0  0  0  0  0  0  0
   39.2360   30.2970   41.1440 C   0  0  0  0  0  0  0  0  0  0  0  0
   37.9360   29.7930   41.1420 C   0  0  0  0  0  0  0  0  0  0  0  0
   36.8430   30.6800   40.8870 C   0  0  0  0  0  0  0  0  0  0  0  0
   37.1740   31.9840   40.6590 N   0  0  0  0  0  0  0  0  0  0  0  0
   38.4260   32.4370   40.6670 C   0  0  0  0  0  0  0  0  0  0  0  0
   39.4410   31.5990   40.9070 N   0  0  0  0  0  0  0  0  0  0  0  0
   40.3020   29.4160   41.3960 N   0  0  0  0  0  0  0  0  0  0  0  0
   35.8390   30.3190   40.8800 H   0  0  0  0  0  0  0  0  0  0  0  0
   41.2630   29.7710   41.5950 H   0  0  0  0  0  0  0  0  0  0  0  0
   40.1640   28.3820   41.3920 H   0  0  0  0  0  0  0  0  0  0  0  0
   38.7100   33.8480   40.4140 C   0  0  0  0  0  0  0  0  0  0  0  0
   37.9720   34.6080   40.5770 H   0  0  0  0  0  0  0  0  0  0  0  0
   39.8730   34.1610   39.9910 O   0  0  0  0  0  0  0  0  0  0  0  0
  1  2  1  0  0  0  0
  2  3  2  0  0  0  0
  2 11  1  0  0  0  0
  3 12  1  0  0  0  0
  4  5  1  0  0  0  0
  4  3  1  0  0  0  0
  6 13  1  0  0  0  0
  6  5  2  0  0  0  0
  7  6  1  0  0  0  0
  8  7  2  0  0  0  0
  8  9  1  0  0  0  0
  9  4  2  0  0  0  0
 10  9  1  0  0  0  0
 10  1  2  0  0  0  0
 14  7  1  0  0  0  0
 15  8  1  0  0  0  0
 16 10  1  0  0  0  0
 17 23  1  0  0  0  0
 18 17  1  0  0  0  0
 18  1  1  0  0  0  0
 19 18  2  0  0  0  0
 20 21  2  0  0  0  0
 20 19  1  0  0  0  0
 21 22  1  0  0  0  0
 22 17  2  0  0  0  0
 23 25  1  0  0  0  0
 24 19  1  0  0  0  0
 26 23  1  0  0  0  0
 27 28  1  0  0  0  0
 27 21  1  0  0  0  0
 29 27  2  0  0  0  0
M  END
>  <minimizedAffinity>
-4.87644482

$$$$

 OpenBabel03242522463D

 29 31  0  0  0  0  0  0  0  0999 V2000
   35.2990   28.9390   39.3570 C   0  0  0  0  0  0  0  0  0  0  0  0
   33.9420   29.0380   39.5230 C   0  0  0  0  0  0  0  0  0  0  0  0
   33.1170   29.1680   38.4290 C   0  0  0  0  0  0  0  0  0  0  0  0
   33.6080   29.2040   37.1380 C   0  0  0  0  0  0  0  0  0  0  0  0
   32.7410   29.3330   36.1150 N   0  0  0  0  0  0  0  0  0  0  0  0
   33.2040   29.3690   34.8390 C   0  0  0  0  0  0  0  0  0  0  0  0
   34.5630   29.2700   34.6640 C   0  0  0  0  0  0  0  0  0  0  0  0
   35.4810   29.1360   35.6840 C   0  0  0  0  0  0  0  0  0  0  0  0
   34.9910   29.1010   36.9680 C   0  0  0  0  0  0  0  0  0  0  0  0
   35.8210   28.9710   38.0690 C   0  0  0  0  0  0  0  0  0  0  0  0
   33.6190   29.0050   40.5390 H   0  0  0  0  0  0  0  0  0  0  0  0
   32.0410   29.2450   38.5990 H   0  0  0  0  0  0  0  0  0  0  0  0
   32.4880   29.4730   34.0460 H   0  0  0  0  0  0  0  0  0  0  0  0
   34.8940   29.3030   33.6280 H   0  0  0  0  0  0  0  0  0  0  0  0
   36.5420   29.0610   35.5060 H   0  0  0  0  0  0  0  0  0  0  0  0
   36.8870   28.8980   37.8310 H   0  0  0  0  0  0  0  0  0  0  0  0
   36.6050   29.7700   41.3410 C   0  0  0  0  0  0  0  0  0  0  0  0
   36.3350   28.7950   40.3820 C   0  0  0  0  0  0  0  0  0  0  0  0
   37.0990   27.5850   40.3800 C   0  0  0  0  0  0  0  0  0  0  0  0
   38.0570   27.4840   41.3480 N   0  0  0  0  0  0  0  0  0  0  0  0
   38.2920   28.4330   42.2520 C   0  0  0  0  0  0  0  0  0  0  0  0
   37.5720   29.5600   42.2440 N   0  0  0  0  0  0  0  0  0  0  0  0
   35.8480   30.9540   41.3320 N   0  0  0  0  0  0  0  0  0  0  0  0
   36.9130   26.8240   39.6570 H   0  0  0  0  0  0  0  0  0  0  0  0
   36.1330   31.7830   41.8980 H   0  0  0  0  0  0  0  0  0  0  0  0
   34.9810   31.0400   40.7600 H   0  0  0  0  0  0  0  0  0  0  0  0
   39.3340   28.2590   43.2610 C   0  0  0  0  0  0  0  0  0  0  0  0
   39.1090   28.2590   44.3090 H   0  0  0  0  0  0  0  0  0  0  0  0
   40.5370   28.1040   42.8630 O   0  0  0  0  0  0  0  0  0  0  0  0
  1  2  1  0  0  0  0
  1 18  1  0  0  0  0
  2 11  1  0  0  0  0
  3 12  1  0  0  0  0
  3  2  2  0  0  0  0
  4  3  1  0  0  0  0
  5  4  2  0  0  0  0
  6  5  1  0  0  0  0
  7  6  2  0  0  0  0
  7  8  1  0  0  0  0
  8  9  2  0  0  0  0
  9  4  1  0  0  0  0
  9 10  1  0  0  0  0
 10  1  2  0  0  0  0
 13  6  1  0  0  0  0
 14  7  1  0  0  0  0
 15  8  1  0  0  0  0
 16 10  1  0  0  0  0
 17 22  1  0  0  0  0
 18 17  2  0  0  0  0
 19 18  1  0  0  0  0
 19 20  2  0  0  0  0
 20 21  1  0  0  0  0
 21 27  1  0  0  0  0
 22 21  2  0  0  0  0
 23 17  1  0  0  0  0
 23 25  1  0  0  0  0
 24 19  1  0  0  0  0
 26 23  1  0  0  0  0
 27 28  1  0  0  0  0
 29 27  2  0  0  0  0
M  END
>  <minimizedAffinity>
-4.86134577

$$$$

 OpenBabel03242522463D

 29 31  0  0  0  0  0  0  0  0999 V2000
   35.7130   29.3100   39.4650 C   0  0  0  0  0  0  0  0  0  0  0  0
   36.0880   30.4610   40.1070 C   0  0  0  0  0  0  0  0  0  0  0  0
   36.7780   30.4000   41.2960 C   0  0  0  0  0  0  0  0  0  0  0  0
   37.1170   29.1990   41.8870 C   0  0  0  0  0  0  0  0  0  0  0  0
   37.7940   29.2160   43.0530 N   0  0  0  0  0  0  0  0  0  0  0  0
   38.1380   28.0450   43.6490 C   0  0  0  0  0  0  0  0  0  0  0  0
   37.7660   26.8860   43.0120 C   0  0  0  0  0  0  0  0  0  0  0  0
   37.0750   26.8280   41.8210 C   0  0  0  0  0  0  0  0  0  0  0  0
   36.7370   28.0250   41.2340 C   0  0  0  0  0  0  0  0  0  0  0  0
   36.0430   28.0870   40.0370 C   0  0  0  0  0  0  0  0  0  0  0  0
   35.7990   31.3580   39.6060 H   0  0  0  0  0  0  0  0  0  0  0  0
   37.0600   31.3390   41.7790 H   0  0  0  0  0  0  0  0  0  0  0  0
   38.6760   28.0920   44.5770 H   0  0  0  0  0  0  0  0  0  0  0  0
   38.0590   25.9700   43.5220 H   0  0  0  0  0  0  0  0  0  0  0  0
   36.8010   25.8970   41.3520 H   0  0  0  0  0  0  0  0  0  0  0  0
   35.7900   27.1130   39.6050 H   0  0  0  0  0  0  0  0  0  0  0  0
   35.5930   29.2270   36.9520 C   0  0  0  0  0  0  0  0  0  0  0  0
   34.9820   29.1650   38.2040 C   0  0  0  0  0  0  0  0  0  0  0  0
   33.5700   28.9500   38.2830 C   0  0  0  0  0  0  0  0  0  0  0  0
   32.9190   28.8180   37.0910 N   0  0  0  0  0  0  0  0  0  0  0  0
   33.5300   28.8820   35.9090 C   0  0  0  0  0  0  0  0  0  0  0  0
   34.8510   29.0840   35.8460 N   0  0  0  0  0  0  0  0  0  0  0  0
   36.9810   29.4390   36.8880 N   0  0  0  0  0  0  0  0  0  0  0  0
   33.0790   28.8980   39.2290 H   0  0  0  0  0  0  0  0  0  0  0  0
   37.4500   29.6810   35.9880 H   0  0  0  0  0  0  0  0  0  0  0  0
   37.5820   29.3620   37.7360 H   0  0  0  0  0  0  0  0  0  0  0  0
   32.7720   28.7330   34.6690 C   0  0  0  0  0  0  0  0  0  0  0  0
   33.1490   28.1650   33.8430 H   0  0  0  0  0  0  0  0  0  0  0  0
   31.6320   29.3030   34.5890 O   0  0  0  0  0  0  0  0  0  0  0  0
  1 10  2  0  0  0  0
  1  2  1  0  0  0  0
  2  3  2  0  0  0  0
  3 12  1  0  0  0  0
  3  4  1  0  0  0  0
  4  5  1  0  0  0  0
  5  6  2  0  0  0  0
  6 13  1  0  0  0  0
  7 14  1  0  0  0  0
  7  6  1  0  0  0  0
  8  7  2  0  0  0  0
  9  8  1  0  0  0  0
  9  4  2  0  0  0  0
 10  9  1  0  0  0  0
 11  2  1  0  0  0  0
 15  8  1  0  0  0  0
 16 10  1  0  0  0  0
 17 18  1  0  0  0  0
 18 19  2  0  0  0  0
 18  1  1  0  0  0  0
 19 24  1  0  0  0  0
 20 19  1  0  0  0  0
 21 20  2  0  0  0  0
 22 21  1  0  0  0  0
 22 17  2  0  0  0  0
 23 17  1  0  0  0  0
 23 26  1  0  0  0  0
 25 23  1  0  0  0  0
 27 21  1  0  0  0  0
 28 27  1  0  0  0  0
 29 27  2  0  0  0  0
M  END
>  <minimizedAffinity>
-4.83086205

$$$$

 OpenBabel03242522463D

 29 31  0  0  0  0  0  0  0  0999 V2000
   39.7490   29.4860   41.8210 C   0  0  0  0  0  0  0  0  0  0  0  0
   40.6830   29.9810   42.6920 C   0  0  0  0  0  0  0  0  0  0  0  0
   41.3110   31.1780   42.4300 C   0  0  0  0  0  0  0  0  0  0  0  0
   41.0340   31.9200   41.2980 C   0  0  0  0  0  0  0  0  0  0  0  0
   41.6880   33.0830   41.1070 N   0  0  0  0  0  0  0  0  0  0  0  0
   41.4290   33.8280   40.0010 C   0  0  0  0  0  0  0  0  0  0  0  0
   40.4940   33.3380   39.1220 C   0  0  0  0  0  0  0  0  0  0  0  0
   39.8050   32.1550   39.2830 C   0  0  0  0  0  0  0  0  0  0  0  0
   40.0820   31.4170   40.4100 C   0  0  0  0  0  0  0  0  0  0  0  0
   39.4500   30.2120   40.6740 C   0  0  0  0  0  0  0  0  0  0  0  0
   40.8570   29.3670   43.5470 H   0  0  0  0  0  0  0  0  0  0  0  0
   42.0510   31.5410   43.1470 H   0  0  0  0  0  0  0  0  0  0  0  0
   41.9670   34.7490   39.8780 H   0  0  0  0  0  0  0  0  0  0  0  0
   40.3150   33.9630   38.2500 H   0  0  0  0  0  0  0  0  0  0  0  0
   39.0760   31.8040   38.5700 H   0  0  0  0  0  0  0  0  0  0  0  0
   38.7210   29.9040   39.9180 H   0  0  0  0  0  0  0  0  0  0  0  0
   37.8070   28.1260   42.6680 C   0  0  0  0  0  0  0  0  0  0  0  0
   38.9770   28.2450   41.9190 C   0  0  0  0  0  0  0  0  0  0  0  0
   39.4670   27.1070   41.2030 C   0  0  0  0  0  0  0  0  0  0  0  0
   38.7250   25.9670   41.3160 N   0  0  0  0  0  0  0  0  0  0  0  0
   37.6100   25.8840   42.0390 C   0  0  0  0  0  0  0  0  0  0  0  0
   37.1610   26.9540   42.7050 N   0  0  0  0  0  0  0  0  0  0  0  0
   37.3370   29.2520   43.3670 N   0  0  0  0  0  0  0  0  0  0  0  0
   40.3600   27.1710   40.6230 H   0  0  0  0  0  0  0  0  0  0  0  0
   36.5840   29.1670   44.0840 H   0  0  0  0  0  0  0  0  0  0  0  0
   37.7250   30.2020   43.1900 H   0  0  0  0  0  0  0  0  0  0  0  0
   36.8630   24.6300   42.1160 C   0  0  0  0  0  0  0  0  0  0  0  0
   36.1160   24.4660   42.8660 H   0  0  0  0  0  0  0  0  0  0  0  0
   37.1230   23.7210   41.2590 O   0  0  0  0  0  0  0  0  0  0  0  0
  1 18  1  0  0  0  0
  1  2  1  0  0  0  0
  2 11  1  0  0  0  0
  3  2  2  0  0  0  0
  3 12  1  0  0  0  0
  4  3  1  0  0  0  0
  5  4  1  0  0  0  0
  6  5  2  0  0  0  0
  7  8  2  0  0  0  0
  7  6  1  0  0  0  0
  8  9  1  0  0  0  0
  9 10  1  0  0  0  0
  9  4  2  0  0  0  0
 10  1  2  0  0  0  0
 13  6  1  0  0  0  0
 14  7  1  0  0  0  0
 15  8  1  0  0  0  0
 16 10  1  0  0  0  0
 17 22  1  0  0  0  0
 17 23  1  0  0  0  0
 18 17  2  0  0  0  0
 19 20  2  0  0  0  0
 19 18  1  0  0  0  0
 20 21  1  0  0  0  0
 21 27  1  0  0  0  0
 21 22  2  0  0  0  0
 23 25  1  0  0  0  0
 24 19  1  0  0  0  0
 26 23  1  0  0  0  0
 27 28  1  0  0  0  0
 29 27  2  0  0  0  0
M  END
>  <minimizedAffinity>
-4.75116587

$$$$
