
 OpenBabel03252509223D

 21 22  0  0  1  0  0  0  0  0999 V2000
   44.6500   35.4010   45.1230 C   0  0  0  0  0  0  0  0  0  0  0  0
   45.1220   35.7010   43.8190 C   0  0  0  0  0  0  0  0  0  0  0  0
   46.0860   34.8470   43.3470 C   0  0  0  0  0  0  0  0  0  0  0  0
   46.5420   33.7860   44.1140 N   0  0  0  0  0  0  0  0  0  0  0  0
   46.0620   33.5460   45.3390 C   0  0  0  0  0  0  0  0  0  0  0  0
   45.1030   34.3650   45.8510 N   0  0  0  0  0  0  0  0  0  0  0  0
   43.8900   36.0440   45.5380 H   0  0  0  0  0  0  0  0  0  0  0  0
   46.5350   32.6830   45.7740 H   0  0  0  0  0  0  0  0  0  0  0  0
   46.6000   35.0530   41.9410 C   0  0  1  0  0  0  0  0  0  0  0  0
   48.1260   35.3460   41.9640 C   0  0  0  0  0  0  0  0  0  0  0  0
   47.4550   34.0680   41.3790 C   0  0  2  0  0  0  0  0  0  0  0  0
   46.0380   35.8080   41.3670 H   0  0  0  0  0  0  0  0  0  0  0  0
   48.5170   36.0160   41.1940 H   0  0  0  0  0  0  0  0  0  0  0  0
   48.6810   35.2350   42.8890 H   0  0  0  0  0  0  0  0  0  0  0  0
   47.7940   33.1410   41.8720 H   0  0  0  0  0  0  0  0  0  0  0  0
   47.4560   33.9490   39.8740 C   0  0  0  0  0  0  0  0  0  0  0  0
   46.8020   34.5510   39.2230 H   0  0  0  0  0  0  0  0  0  0  0  0
   48.2020   33.1570   39.2880 O   0  0  0  0  0  0  0  0  0  0  0  0
   44.6540   36.8120   43.0570 N   0  0  0  0  0  0  0  0  0  0  0  0
   43.6540   36.7810   42.7250 H   0  0  0  0  0  0  0  0  0  0  0  0
   45.1330   37.6890   42.7510 H   0  0  0  0  0  0  0  0  0  0  0  0
  1  7  1  0  0  0  0
  1  6  1  0  0  0  0
  2  1  2  0  0  0  0
  3  2  1  0  0  0  0
  3  4  2  0  0  0  0
  4  5  1  0  0  0  0
  5  8  1  0  0  0  0
  5  6  2  0  0  0  0
  9 12  1  6  0  0  0
  9 10  1  0  0  0  0
  9  3  1  0  0  0  0
 10 14  1  0  0  0  0
 11 15  1  1  0  0  0
 11  9  1  0  0  0  0
 11 10  1  0  0  0  0
 13 10  1  0  0  0  0
 16 11  1  0  0  0  0
 17 16  1  0  0  0  0
 18 16  2  0  0  0  0
 19  2  1  0  0  0  0
 20 19  1  0  0  0  0
 21 19  1  0  0  0  0
M  END
>  <minimizedAffinity>
-4.16189241

>  <minimizedRMSD>
0.0919955671

$$$$
