
 OpenBabel03252503023D

 27 27  0  0  0  0  0  0  0  0999 V2000
   43.4880   35.5130   41.6930 C   0  0  0  0  0  0  0  0  0  0  0  0
   42.8700   36.2190   41.1220 H   0  0  0  0  0  0  0  0  0  0  0  0
   44.5430   35.7080   41.4150 H   0  0  0  0  0  0  0  0  0  0  0  0
   43.2880   35.6540   43.1370 N   0  0  0  0  0  0  0  0  0  0  0  0
   42.7510   34.8860   43.5560 H   0  0  0  0  0  0  0  0  0  0  0  0
   44.7580   35.9090   43.9790 S   0  0  0  0  0  0  0  0  0  0  0  0
   45.9210   35.3540   43.2470 O   0  0  0  0  0  0  0  0  0  0  0  0
   46.4670   35.9430   42.6390 H   0  0  0  0  0  0  0  0  0  0  0  0
   44.8950   37.4060   44.1410 O   0  0  0  0  0  0  0  0  0  0  0  0
   44.5010   37.8460   44.9420 H   0  0  0  0  0  0  0  0  0  0  0  0
   44.6440   35.2750   45.5210 O   0  0  0  0  0  0  0  0  0  0  0  0
   45.3760   34.1190   45.6700 C   0  0  0  0  0  0  0  0  0  0  0  0
   46.3690   34.3560   46.1020 H   0  0  0  0  0  0  0  0  0  0  0  0
   44.8050   33.3950   46.2930 H   0  0  0  0  0  0  0  0  0  0  0  0
   45.5350   33.6560   44.6760 H   0  0  0  0  0  0  0  0  0  0  0  0
   43.0900   33.8240   41.2580 S   0  0  0  0  0  0  0  0  0  0  0  0
   40.5190   34.4700   40.4720 C   0  0  0  0  0  0  0  0  0  0  0  0
   41.6920   33.8170   40.1200 C   0  0  0  0  0  0  0  0  0  0  0  0
   41.8020   33.1580   38.8990 C   0  0  0  0  0  0  0  0  0  0  0  0
   40.7050   33.1880   38.0760 N   0  0  0  0  0  0  0  0  0  0  0  0
   39.6000   33.8260   38.4560 C   0  0  0  0  0  0  0  0  0  0  0  0
   39.4670   34.4650   39.6140 N   0  0  0  0  0  0  0  0  0  0  0  0
   40.4710   34.9750   41.4380 H   0  0  0  0  0  0  0  0  0  0  0  0
   42.7170   32.6490   38.6250 H   0  0  0  0  0  0  0  0  0  0  0  0
   38.4490   33.8300   37.5390 C   0  0  0  0  0  0  0  0  0  0  0  0
   37.9380   34.7400   37.2540 H   0  0  0  0  0  0  0  0  0  0  0  0
   38.0900   32.6870   37.0960 O   0  0  0  0  0  0  0  0  0  0  0  0
  1  4  1  0  0  0  0
  2  1  1  0  0  0  0
  3  1  1  0  0  0  0
  4  5  1  0  0  0  0
  4  6  1  0  0  0  0
  6  9  1  0  0  0  0
  6 11  1  0  0  0  0
  7  6  1  0  0  0  0
  8  7  1  0  0  0  0
  9 10  1  0  0  0  0
 11 12  1  0  0  0  0
 12 13  1  0  0  0  0
 12 14  1  0  0  0  0
 15 12  1  0  0  0  0
 16  1  1  0  0  0  0
 17 23  1  0  0  0  0
 18 17  1  0  0  0  0
 18 16  1  0  0  0  0
 19 18  2  0  0  0  0
 20 21  2  0  0  0  0
 20 19  1  0  0  0  0
 21 22  1  0  0  0  0
 22 17  2  0  0  0  0
 24 19  1  0  0  0  0
 25 21  1  0  0  0  0
 26 25  1  0  0  0  0
 27 25  2  0  0  0  0
M  END
>  <minimizedAffinity>
-4.53281975

>  <minimizedRMSD>
1.34926724

$$$$
