
 OpenBabel03252509253D

 21 22  0  0  1  0  0  0  0  0999 V2000
   37.3250   32.4330   40.2570 C   0  0  0  0  0  0  0  0  0  0  0  0
   37.0580   31.1740   40.8540 C   0  0  0  0  0  0  0  0  0  0  0  0
   38.1250   30.3130   40.8790 C   0  0  0  0  0  0  0  0  0  0  0  0
   39.3530   30.6770   40.3500 N   0  0  0  0  0  0  0  0  0  0  0  0
   39.5530   31.8790   39.7990 C   0  0  0  0  0  0  0  0  0  0  0  0
   38.5250   32.7690   39.7510 N   0  0  0  0  0  0  0  0  0  0  0  0
   36.5170   33.1460   40.2140 H   0  0  0  0  0  0  0  0  0  0  0  0
   40.5660   31.9750   39.4470 H   0  0  0  0  0  0  0  0  0  0  0  0
   37.9480   28.9720   41.5550 C   0  0  1  0  0  0  0  0  0  0  0  0
   39.3100   28.4610   42.1000 C   0  0  0  0  0  0  0  0  0  0  0  0
   38.0920   28.8990   42.9650 C   0  0  2  0  0  0  0  0  0  0  0  0
   37.4400   28.2200   40.9280 H   0  0  0  0  0  0  0  0  0  0  0  0
   39.4730   27.3800   42.1030 H   0  0  0  0  0  0  0  0  0  0  0  0
   40.1730   29.1180   42.0920 H   0  0  0  0  0  0  0  0  0  0  0  0
   38.3250   29.7380   43.6420 H   0  0  0  0  0  0  0  0  0  0  0  0
   37.3450   27.7900   43.6670 C   0  0  0  0  0  0  0  0  0  0  0  0
   37.7660   27.2220   44.5130 H   0  0  0  0  0  0  0  0  0  0  0  0
   36.2060   27.4570   43.3210 O   0  0  0  0  0  0  0  0  0  0  0  0
   35.7780   30.8130   41.3720 N   0  0  0  0  0  0  0  0  0  0  0  0
   35.4430   31.3290   42.2270 H   0  0  0  0  0  0  0  0  0  0  0  0
   35.0800   30.1040   41.0530 H   0  0  0  0  0  0  0  0  0  0  0  0
  1  2  1  0  0  0  0
  2  3  2  0  0  0  0
  2 19  1  0  0  0  0
  3  9  1  0  0  0  0
  4  3  1  0  0  0  0
  5  4  2  0  0  0  0
  6  5  1  0  0  0  0
  6  1  2  0  0  0  0
  7  1  1  0  0  0  0
  8  5  1  0  0  0  0
  9 12  1  6  0  0  0
  9 10  1  0  0  0  0
  9 11  1  0  0  0  0
 10 13  1  0  0  0  0
 10 11  1  0  0  0  0
 11 15  1  1  0  0  0
 11 16  1  0  0  0  0
 14 10  1  0  0  0  0
 16 17  1  0  0  0  0
 18 16  2  0  0  0  0
 19 20  1  0  0  0  0
 21 19  1  0  0  0  0
M  END
>  <minimizedAffinity>
-3.9870379

$$$$

 OpenBabel03252509253D

 21 22  0  0  1  0  0  0  0  0999 V2000
   35.2610   29.2810   39.3360 C   0  0  0  0  0  0  0  0  0  0  0  0
   35.8670   29.3370   40.6170 C   0  0  0  0  0  0  0  0  0  0  0  0
   36.5240   28.1930   40.9920 C   0  0  0  0  0  0  0  0  0  0  0  0
   36.5690   27.0860   40.1590 N   0  0  0  0  0  0  0  0  0  0  0  0
   35.9810   27.0860   38.9580 C   0  0  0  0  0  0  0  0  0  0  0  0
   35.3170   28.1980   38.5410 N   0  0  0  0  0  0  0  0  0  0  0  0
   34.7320   30.1570   38.9950 H   0  0  0  0  0  0  0  0  0  0  0  0
   36.1260   26.1420   38.4610 H   0  0  0  0  0  0  0  0  0  0  0  0
   37.2540   28.1870   42.3160 C   0  0  1  0  0  0  0  0  0  0  0  0
   36.4750   27.3340   43.3550 C   0  0  0  0  0  0  0  0  0  0  0  0
   37.8650   26.9810   42.7480 C   0  0  2  0  0  0  0  0  0  0  0  0
   37.4940   29.1930   42.6970 H   0  0  0  0  0  0  0  0  0  0  0  0
   36.5300   27.6470   44.4000 H   0  0  0  0  0  0  0  0  0  0  0  0
   35.6290   26.7360   43.0340 H   0  0  0  0  0  0  0  0  0  0  0  0
   37.8660   26.0190   42.2070 H   0  0  0  0  0  0  0  0  0  0  0  0
   39.0470   27.1150   43.6780 C   0  0  0  0  0  0  0  0  0  0  0  0
   39.0770   26.6600   44.6820 H   0  0  0  0  0  0  0  0  0  0  0  0
   40.0560   27.7510   43.3550 O   0  0  0  0  0  0  0  0  0  0  0  0
   35.7880   30.4800   41.4680 N   0  0  0  0  0  0  0  0  0  0  0  0
   36.2940   31.3500   41.1520 H   0  0  0  0  0  0  0  0  0  0  0  0
   35.3060   30.6270   42.3820 H   0  0  0  0  0  0  0  0  0  0  0  0
  1  2  1  0  0  0  0
  2  3  2  0  0  0  0
  2 19  1  0  0  0  0
  3  9  1  0  0  0  0
  4  3  1  0  0  0  0
  5  4  2  0  0  0  0
  6  5  1  0  0  0  0
  6  1  2  0  0  0  0
  7  1  1  0  0  0  0
  8  5  1  0  0  0  0
  9 12  1  1  0  0  0
  9 11  1  0  0  0  0
  9 10  1  0  0  0  0
 10 13  1  0  0  0  0
 11 15  1  6  0  0  0
 11 10  1  0  0  0  0
 11 16  1  0  0  0  0
 14 10  1  0  0  0  0
 16 17  1  0  0  0  0
 18 16  2  0  0  0  0
 19 21  1  0  0  0  0
 20 19  1  0  0  0  0
M  END
>  <minimizedAffinity>
-3.94100618

$$$$

 OpenBabel03252509253D

 21 22  0  0  1  0  0  0  0  0999 V2000
   36.8910   31.7020   39.3690 C   0  0  0  0  0  0  0  0  0  0  0  0
   36.4160   30.6700   40.2180 C   0  0  0  0  0  0  0  0  0  0  0  0
   36.6910   29.3970   39.7850 C   0  0  0  0  0  0  0  0  0  0  0  0
   37.3810   29.1750   38.6040 N   0  0  0  0  0  0  0  0  0  0  0  0
   37.8090   30.1860   37.8390 C   0  0  0  0  0  0  0  0  0  0  0  0
   37.5600   31.4660   38.2260 N   0  0  0  0  0  0  0  0  0  0  0  0
   36.7000   32.7200   39.6660 H   0  0  0  0  0  0  0  0  0  0  0  0
   38.3220   29.8160   36.9680 H   0  0  0  0  0  0  0  0  0  0  0  0
   36.2780   28.2370   40.6610 C   0  0  1  0  0  0  0  0  0  0  0  0
   36.7420   26.8950   40.0310 C   0  0  0  0  0  0  0  0  0  0  0  0
   37.2860   27.5150   41.3520 C   0  0  2  0  0  0  0  0  0  0  0  0
   35.2050   28.2300   40.9150 H   0  0  0  0  0  0  0  0  0  0  0  0
   36.1090   26.0200   40.1960 H   0  0  0  0  0  0  0  0  0  0  0  0
   37.4030   26.9050   39.1710 H   0  0  0  0  0  0  0  0  0  0  0  0
   38.3710   27.7140   41.3180 H   0  0  0  0  0  0  0  0  0  0  0  0
   36.8720   26.8220   42.6280 C   0  0  0  0  0  0  0  0  0  0  0  0
   37.0530   25.7520   42.8170 H   0  0  0  0  0  0  0  0  0  0  0  0
   36.2990   27.4310   43.5370 O   0  0  0  0  0  0  0  0  0  0  0  0
   35.6880   30.9220   41.4190 N   0  0  0  0  0  0  0  0  0  0  0  0
   36.2110   31.3800   42.2110 H   0  0  0  0  0  0  0  0  0  0  0  0
   34.6940   30.7310   41.6760 H   0  0  0  0  0  0  0  0  0  0  0  0
  1  7  1  0  0  0  0
  1  2  1  0  0  0  0
  2 19  1  0  0  0  0
  3  2  2  0  0  0  0
  3  9  1  0  0  0  0
  4  3  1  0  0  0  0
  5  6  1  0  0  0  0
  5  4  2  0  0  0  0
  6  1  2  0  0  0  0
  8  5  1  0  0  0  0
  9 12  1  1  0  0  0
  9 11  1  0  0  0  0
 10 13  1  0  0  0  0
 10  9  1  0  0  0  0
 10 11  1  0  0  0  0
 11 15  1  6  0  0  0
 11 16  1  0  0  0  0
 14 10  1  0  0  0  0
 16 17  1  0  0  0  0
 16 18  2  0  0  0  0
 19 21  1  0  0  0  0
 19 20  1  0  0  0  0
M  END
>  <minimizedAffinity>
-3.90563846

$$$$

 OpenBabel03252509253D

 21 22  0  0  1  0  0  0  0  0999 V2000
   34.5490   29.2030   39.8170 C   0  0  0  0  0  0  0  0  0  0  0  0
   35.5880   30.1170   40.1300 C   0  0  0  0  0  0  0  0  0  0  0  0
   36.4530   30.3780   39.0970 C   0  0  0  0  0  0  0  0  0  0  0  0
   36.2940   29.7770   37.8580 N   0  0  0  0  0  0  0  0  0  0  0  0
   35.2940   28.9230   37.6150 C   0  0  0  0  0  0  0  0  0  0  0  0
   34.4100   28.6310   38.6070 N   0  0  0  0  0  0  0  0  0  0  0  0
   33.8430   28.9650   40.5960 H   0  0  0  0  0  0  0  0  0  0  0  0
   35.3360   28.5640   36.6010 H   0  0  0  0  0  0  0  0  0  0  0  0
   37.5530   31.3890   39.3230 C   0  0  1  0  0  0  0  0  0  0  0  0
   37.9900   32.0190   37.9710 C   0  0  0  0  0  0  0  0  0  0  0  0
   37.2620   32.7650   39.1280 C   0  0  2  0  0  0  0  0  0  0  0  0
   38.4090   30.9970   39.8970 H   0  0  0  0  0  0  0  0  0  0  0  0
   39.0400   32.3050   37.8700 H   0  0  0  0  0  0  0  0  0  0  0  0
   37.4160   31.8170   37.0740 H   0  0  0  0  0  0  0  0  0  0  0  0
   36.2910   33.1890   38.8210 H   0  0  0  0  0  0  0  0  0  0  0  0
   38.0960   33.7530   39.9070 C   0  0  0  0  0  0  0  0  0  0  0  0
   38.2840   34.7830   39.5650 H   0  0  0  0  0  0  0  0  0  0  0  0
   38.6180   33.4490   40.9860 O   0  0  0  0  0  0  0  0  0  0  0  0
   35.7460   30.7060   41.4190 N   0  0  0  0  0  0  0  0  0  0  0  0
   35.0050   31.3890   41.7290 H   0  0  0  0  0  0  0  0  0  0  0  0
   36.4860   30.5860   42.1460 H   0  0  0  0  0  0  0  0  0  0  0  0
  1  2  1  0  0  0  0
  1  7  1  0  0  0  0
  2 19  1  0  0  0  0
  3  9  1  0  0  0  0
  3  2  2  0  0  0  0
  4  3  1  0  0  0  0
  5  4  2  0  0  0  0
  5  6  1  0  0  0  0
  6  1  2  0  0  0  0
  8  5  1  0  0  0  0
  9 12  1  1  0  0  0
 10 11  1  0  0  0  0
 10  9  1  0  0  0  0
 11 15  1  6  0  0  0
 11  9  1  0  0  0  0
 11 16  1  0  0  0  0
 13 10  1  0  0  0  0
 14 10  1  0  0  0  0
 16 18  2  0  0  0  0
 17 16  1  0  0  0  0
 19 20  1  0  0  0  0
 19 21  1  0  0  0  0
M  END
>  <minimizedAffinity>
-3.8753376

$$$$

 OpenBabel03252509253D

 21 22  0  0  1  0  0  0  0  0999 V2000
   36.5750   29.7970   41.3650 C   0  0  0  0  0  0  0  0  0  0  0  0
   37.0090   28.7830   42.2570 C   0  0  0  0  0  0  0  0  0  0  0  0
   37.0550   27.5240   41.7160 C   0  0  0  0  0  0  0  0  0  0  0  0
   36.6970   27.2960   40.3960 N   0  0  0  0  0  0  0  0  0  0  0  0
   36.2950   28.2900   39.5960 C   0  0  0  0  0  0  0  0  0  0  0  0
   36.2330   29.5570   40.0860 N   0  0  0  0  0  0  0  0  0  0  0  0
   36.5210   30.8050   41.7430 H   0  0  0  0  0  0  0  0  0  0  0  0
   36.0630   27.9180   38.6120 H   0  0  0  0  0  0  0  0  0  0  0  0
   37.5680   26.3920   42.5770 C   0  0  1  0  0  0  0  0  0  0  0  0
   36.9440   25.0440   42.1210 C   0  0  0  0  0  0  0  0  0  0  0  0
   38.4450   25.4400   41.9950 C   0  0  2  0  0  0  0  0  0  0  0  0
   37.4450   26.5650   43.6590 H   0  0  0  0  0  0  0  0  0  0  0  0
   36.7610   24.2930   42.8930 H   0  0  0  0  0  0  0  0  0  0  0  0
   36.3640   25.0030   41.2060 H   0  0  0  0  0  0  0  0  0  0  0  0
   38.8040   25.4350   40.9520 H   0  0  0  0  0  0  0  0  0  0  0  0
   39.3960   24.7330   42.9300 C   0  0  0  0  0  0  0  0  0  0  0  0
   39.4700   23.6350   42.9970 H   0  0  0  0  0  0  0  0  0  0  0  0
   40.1530   25.3610   43.6790 O   0  0  0  0  0  0  0  0  0  0  0  0
   37.3510   29.0370   43.6190 N   0  0  0  0  0  0  0  0  0  0  0  0
   38.2150   29.6130   43.7970 H   0  0  0  0  0  0  0  0  0  0  0  0
   36.8900   28.7500   44.5100 H   0  0  0  0  0  0  0  0  0  0  0  0
  1  7  1  0  0  0  0
  1  2  1  0  0  0  0
  2 19  1  0  0  0  0
  3  2  2  0  0  0  0
  3  9  1  0  0  0  0
  4  3  1  0  0  0  0
  5  6  1  0  0  0  0
  5  4  2  0  0  0  0
  6  1  2  0  0  0  0
  8  5  1  0  0  0  0
  9 12  1  1  0  0  0
 10  9  1  0  0  0  0
 10 13  1  0  0  0  0
 11 15  1  6  0  0  0
 11 10  1  0  0  0  0
 11  9  1  0  0  0  0
 11 16  1  0  0  0  0
 14 10  1  0  0  0  0
 16 17  1  0  0  0  0
 16 18  2  0  0  0  0
 19 20  1  0  0  0  0
 19 21  1  0  0  0  0
M  END
>  <minimizedAffinity>
-3.82140088

$$$$

 OpenBabel03252509253D

 21 22  0  0  1  0  0  0  0  0999 V2000
   38.1990   31.5870   40.7950 C   0  0  0  0  0  0  0  0  0  0  0  0
   38.7150   30.7570   41.8230 C   0  0  0  0  0  0  0  0  0  0  0  0
   37.8790   29.7440   42.2180 C   0  0  0  0  0  0  0  0  0  0  0  0
   36.6320   29.5760   41.6360 N   0  0  0  0  0  0  0  0  0  0  0  0
   36.1930   30.3870   40.6680 C   0  0  0  0  0  0  0  0  0  0  0  0
   36.9860   31.4070   40.2420 N   0  0  0  0  0  0  0  0  0  0  0  0
   38.8190   32.3990   40.4510 H   0  0  0  0  0  0  0  0  0  0  0  0
   35.2080   30.0980   40.3440 H   0  0  0  0  0  0  0  0  0  0  0  0
   38.3750   28.7710   43.2630 C   0  0  1  0  0  0  0  0  0  0  0  0
   37.2340   27.8010   43.6780 C   0  0  0  0  0  0  0  0  0  0  0  0
   38.5270   27.4070   42.9030 C   0  0  2  0  0  0  0  0  0  0  0  0
   38.8490   29.2550   44.1330 H   0  0  0  0  0  0  0  0  0  0  0  0
   37.2300   27.4490   44.7130 H   0  0  0  0  0  0  0  0  0  0  0  0
   36.3030   27.7960   43.1220 H   0  0  0  0  0  0  0  0  0  0  0  0
   38.3170   26.9660   41.9140 H   0  0  0  0  0  0  0  0  0  0  0  0
   39.5470   26.6100   43.6800 C   0  0  0  0  0  0  0  0  0  0  0  0
   40.1530   27.0390   44.4940 H   0  0  0  0  0  0  0  0  0  0  0  0
   39.7570   25.4160   43.4360 O   0  0  0  0  0  0  0  0  0  0  0  0
   39.9930   30.9630   42.4230 N   0  0  0  0  0  0  0  0  0  0  0  0
   40.8400   30.7990   41.8180 H   0  0  0  0  0  0  0  0  0  0  0  0
   40.2620   31.2570   43.3890 H   0  0  0  0  0  0  0  0  0  0  0  0
  1  2  1  0  0  0  0
  2  3  2  0  0  0  0
  2 19  1  0  0  0  0
  3  9  1  0  0  0  0
  4  3  1  0  0  0  0
  5  4  2  0  0  0  0
  6  5  1  0  0  0  0
  6  1  2  0  0  0  0
  7  1  1  0  0  0  0
  8  5  1  0  0  0  0
  9 10  1  0  0  0  0
  9 12  1  1  0  0  0
 10 13  1  0  0  0  0
 11 15  1  6  0  0  0
 11  9  1  0  0  0  0
 11 10  1  0  0  0  0
 11 16  1  0  0  0  0
 14 10  1  0  0  0  0
 16 17  1  0  0  0  0
 18 16  2  0  0  0  0
 19 21  1  0  0  0  0
 20 19  1  0  0  0  0
M  END
>  <minimizedAffinity>
-3.77844644

$$$$

 OpenBabel03252509253D

 21 22  0  0  1  0  0  0  0  0999 V2000
   37.1370   29.0930   42.2660 C   0  0  0  0  0  0  0  0  0  0  0  0
   36.2720   29.5980   41.2620 C   0  0  0  0  0  0  0  0  0  0  0  0
   35.9630   28.7040   40.2680 C   0  0  0  0  0  0  0  0  0  0  0  0
   36.4750   27.4160   40.2760 N   0  0  0  0  0  0  0  0  0  0  0  0
   37.2870   26.9890   41.2500 C   0  0  0  0  0  0  0  0  0  0  0  0
   37.6230   27.8390   42.2580 N   0  0  0  0  0  0  0  0  0  0  0  0
   37.4100   29.7570   43.0700 H   0  0  0  0  0  0  0  0  0  0  0  0
   37.5790   25.9660   41.0830 H   0  0  0  0  0  0  0  0  0  0  0  0
   34.9950   29.1370   39.1910 C   0  0  1  0  0  0  0  0  0  0  0  0
   35.7710   29.6070   37.9290 C   0  0  0  0  0  0  0  0  0  0  0  0
   34.8750   28.3370   38.0250 C   0  0  2  0  0  0  0  0  0  0  0  0
   34.2560   29.8830   39.5280 H   0  0  0  0  0  0  0  0  0  0  0  0
   35.3210   30.4060   37.3350 H   0  0  0  0  0  0  0  0  0  0  0  0
   36.8430   29.4530   37.8680 H   0  0  0  0  0  0  0  0  0  0  0  0
   35.4260   27.4050   37.8130 H   0  0  0  0  0  0  0  0  0  0  0  0
   33.5570   28.4000   37.2910 C   0  0  0  0  0  0  0  0  0  0  0  0
   32.9260   29.3040   37.2630 H   0  0  0  0  0  0  0  0  0  0  0  0
   33.1120   27.4250   36.6750 O   0  0  0  0  0  0  0  0  0  0  0  0
   35.7750   30.9350   41.2620 N   0  0  0  0  0  0  0  0  0  0  0  0
   35.0960   31.1950   42.0250 H   0  0  0  0  0  0  0  0  0  0  0  0
   35.9610   31.7400   40.6230 H   0  0  0  0  0  0  0  0  0  0  0  0
  1  7  1  0  0  0  0
  2 19  1  0  0  0  0
  2  1  2  0  0  0  0
  3  4  2  0  0  0  0
  3  2  1  0  0  0  0
  4  5  1  0  0  0  0
  5  6  2  0  0  0  0
  6  1  1  0  0  0  0
  8  5  1  0  0  0  0
  9 12  1  1  0  0  0
  9  3  1  0  0  0  0
 10 11  1  0  0  0  0
 10  9  1  0  0  0  0
 11 15  1  1  0  0  0
 11  9  1  0  0  0  0
 13 10  1  0  0  0  0
 14 10  1  0  0  0  0
 16 11  1  0  0  0  0
 17 16  1  0  0  0  0
 18 16  2  0  0  0  0
 19 20  1  0  0  0  0
 21 19  1  0  0  0  0
M  END
>  <minimizedAffinity>
-3.74539566

$$$$

 OpenBabel03252509253D

 21 22  0  0  1  0  0  0  0  0999 V2000
   37.7570   31.9430   40.5410 C   0  0  0  0  0  0  0  0  0  0  0  0
   36.9940   30.8170   40.9410 C   0  0  0  0  0  0  0  0  0  0  0  0
   37.6630   29.6210   40.8860 C   0  0  0  0  0  0  0  0  0  0  0  0
   38.9810   29.5550   40.4650 N   0  0  0  0  0  0  0  0  0  0  0  0
   39.6580   30.6490   40.0990 C   0  0  0  0  0  0  0  0  0  0  0  0
   39.0370   31.8600   40.1360 N   0  0  0  0  0  0  0  0  0  0  0  0
   37.2760   32.9070   40.5670 H   0  0  0  0  0  0  0  0  0  0  0  0
   40.6630   30.3970   39.8060 H   0  0  0  0  0  0  0  0  0  0  0  0
   36.9450   28.3760   41.3570 C   0  0  1  0  0  0  0  0  0  0  0  0
   36.4070   27.5740   40.1400 C   0  0  0  0  0  0  0  0  0  0  0  0
   37.5400   27.1130   41.1040 C   0  0  2  0  0  0  0  0  0  0  0  0
   36.1610   28.5700   42.1080 H   0  0  0  0  0  0  0  0  0  0  0  0
   35.4750   27.0210   40.2790 H   0  0  0  0  0  0  0  0  0  0  0  0
   36.6980   27.8600   39.1360 H   0  0  0  0  0  0  0  0  0  0  0  0
   38.4980   26.9350   40.5870 H   0  0  0  0  0  0  0  0  0  0  0  0
   37.1870   25.9940   42.0540 C   0  0  0  0  0  0  0  0  0  0  0  0
   36.1740   25.8500   42.4640 H   0  0  0  0  0  0  0  0  0  0  0  0
   38.0300   25.1710   42.4260 O   0  0  0  0  0  0  0  0  0  0  0  0
   35.6290   30.9060   41.3500 N   0  0  0  0  0  0  0  0  0  0  0  0
   35.4310   31.4060   42.2560 H   0  0  0  0  0  0  0  0  0  0  0  0
   34.7520   30.5550   40.9050 H   0  0  0  0  0  0  0  0  0  0  0  0
  1  7  1  0  0  0  0
  1  2  1  0  0  0  0
  2 19  1  0  0  0  0
  3  2  2  0  0  0  0
  3  9  1  0  0  0  0
  4  3  1  0  0  0  0
  5  6  1  0  0  0  0
  5  4  2  0  0  0  0
  6  1  2  0  0  0  0
  8  5  1  0  0  0  0
  9 12  1  1  0  0  0
 10 13  1  0  0  0  0
 10 11  1  0  0  0  0
 10  9  1  0  0  0  0
 11 15  1  6  0  0  0
 11  9  1  0  0  0  0
 11 16  1  0  0  0  0
 14 10  1  0  0  0  0
 16 18  2  0  0  0  0
 16 17  1  0  0  0  0
 19 20  1  0  0  0  0
 21 19  1  0  0  0  0
M  END
>  <minimizedAffinity>
-3.63394213

$$$$

 OpenBabel03252509253D

 21 22  0  0  1  0  0  0  0  0999 V2000
   37.0670   27.6210   42.6860 C   0  0  0  0  0  0  0  0  0  0  0  0
   37.4750   28.9740   42.5590 C   0  0  0  0  0  0  0  0  0  0  0  0
   38.8060   29.1970   42.8040 C   0  0  0  0  0  0  0  0  0  0  0  0
   39.6560   28.1580   43.1490 N   0  0  0  0  0  0  0  0  0  0  0  0
   39.2200   26.8980   43.2540 C   0  0  0  0  0  0  0  0  0  0  0  0
   37.9070   26.6260   43.0210 N   0  0  0  0  0  0  0  0  0  0  0  0
   36.0290   27.3940   42.5040 H   0  0  0  0  0  0  0  0  0  0  0  0
   40.0240   26.2370   43.5290 H   0  0  0  0  0  0  0  0  0  0  0  0
   39.3410   30.6000   42.6280 C   0  0  1  0  0  0  0  0  0  0  0  0
   40.8930   30.5770   42.5490 C   0  0  0  0  0  0  0  0  0  0  0  0
   39.9290   30.9510   41.3840 C   0  0  2  0  0  0  0  0  0  0  0  0
   38.9720   31.3160   43.3810 H   0  0  0  0  0  0  0  0  0  0  0  0
   41.4260   31.4380   42.9580 H   0  0  0  0  0  0  0  0  0  0  0  0
   41.4140   29.6290   42.4750 H   0  0  0  0  0  0  0  0  0  0  0  0
   40.0410   30.2930   40.5060 H   0  0  0  0  0  0  0  0  0  0  0  0
   39.8880   32.4110   41.0020 C   0  0  0  0  0  0  0  0  0  0  0  0
   40.7750   32.9690   40.6610 H   0  0  0  0  0  0  0  0  0  0  0  0
   38.8390   33.0640   41.0540 O   0  0  0  0  0  0  0  0  0  0  0  0
   36.5770   30.0310   42.2240 N   0  0  0  0  0  0  0  0  0  0  0  0
   36.1700   30.0260   41.2520 H   0  0  0  0  0  0  0  0  0  0  0  0
   36.2310   30.8440   42.7810 H   0  0  0  0  0  0  0  0  0  0  0  0
  1  6  1  0  0  0  0
  2  1  2  0  0  0  0
  2  3  1  0  0  0  0
  3  4  2  0  0  0  0
  4  5  1  0  0  0  0
  5  8  1  0  0  0  0
  6  5  2  0  0  0  0
  7  1  1  0  0  0  0
  9  3  1  0  0  0  0
  9 12  1  1  0  0  0
 10  9  1  0  0  0  0
 10 13  1  0  0  0  0
 11 15  1  6  0  0  0
 11 10  1  0  0  0  0
 11  9  1  0  0  0  0
 14 10  1  0  0  0  0
 16 18  2  0  0  0  0
 16 11  1  0  0  0  0
 17 16  1  0  0  0  0
 19  2  1  0  0  0  0
 19 21  1  0  0  0  0
 20 19  1  0  0  0  0
M  END
>  <minimizedAffinity>
-3.6076591

$$$$
