
 OpenBabel03252503233D

 41 45  0  0  1  0  0  0  0  0999 V2000
   46.7070   33.4200   43.0680 C   0  0  1  0  0  0  0  0  0  0  0  0
   46.9300   34.7900   42.6260 C   0  0  0  0  0  0  0  0  0  0  0  0
   48.0950   33.8660   42.6330 C   0  0  2  0  0  0  0  0  0  0  0  0
   46.2070   32.6960   42.4030 H   0  0  0  0  0  0  0  0  0  0  0  0
   46.8910   35.5690   43.4530 H   0  0  0  0  0  0  0  0  0  0  0  0
   46.3780   35.1240   41.7600 H   0  0  0  0  0  0  0  0  0  0  0  0
   48.8320   33.8660   43.4700 H   0  0  0  0  0  0  0  0  0  0  0  0
   48.5290   33.3080   41.3240 C   0  0  0  0  0  0  0  0  0  0  0  0
   49.3900   32.2410   41.1690 C   0  0  0  0  0  0  0  0  0  0  0  0
   49.7440   31.7930   39.9130 C   0  0  0  0  0  0  0  0  0  0  0  0
   49.2500   32.3960   38.7890 C   0  0  0  0  0  0  0  0  0  0  0  0
   49.5810   31.9750   37.5450 N   0  0  0  0  0  0  0  0  0  0  0  0
   49.0710   32.5970   36.4450 C   0  0  0  0  0  0  0  0  0  0  0  0
   48.1880   33.6940   36.5050 C   0  0  0  0  0  0  0  0  0  0  0  0
   47.8480   34.1270   37.7700 C   0  0  0  0  0  0  0  0  0  0  0  0
   48.3730   33.4840   38.8850 C   0  0  0  0  0  0  0  0  0  0  0  0
   48.0440   33.9020   40.1600 C   0  0  0  0  0  0  0  0  0  0  0  0
   49.7670   31.7820   42.0640 H   0  0  0  0  0  0  0  0  0  0  0  0
   50.4290   30.9440   39.8170 H   0  0  0  0  0  0  0  0  0  0  0  0
   49.3510   32.2440   35.4570 H   0  0  0  0  0  0  0  0  0  0  0  0
   47.8320   34.1270   35.5800 H   0  0  0  0  0  0  0  0  0  0  0  0
   47.1720   34.9650   37.8650 H   0  0  0  0  0  0  0  0  0  0  0  0
   47.3700   34.7490   40.1520 H   0  0  0  0  0  0  0  0  0  0  0  0
   45.5390   33.8290   45.2670 C   0  0  0  0  0  0  0  0  0  0  0  0
   46.5200   33.1160   44.5170 C   0  0  0  0  0  0  0  0  0  0  0  0
   47.2750   32.1830   45.1810 C   0  0  0  0  0  0  0  0  0  0  0  0
   47.0420   31.9990   46.5080 N   0  0  0  0  0  0  0  0  0  0  0  0
   46.1010   32.6900   47.2050 C   0  0  0  0  0  0  0  0  0  0  0  0
   45.3510   33.6070   46.5740 N   0  0  0  0  0  0  0  0  0  0  0  0
   44.9180   34.5840   44.7570 H   0  0  0  0  0  0  0  0  0  0  0  0
   48.0320   31.6140   44.6600 H   0  0  0  0  0  0  0  0  0  0  0  0
   45.9460   32.3920   48.6540 C   0  0  2  0  0  0  0  0  0  0  0  0
   46.5820   31.2370   49.2670 C   0  0  0  0  0  0  0  0  0  0  0  0
   45.1170   31.1000   48.9290 C   0  0  2  0  0  0  0  0  0  0  0  0
   45.5240   33.2640   49.2200 H   0  0  0  0  0  0  0  0  0  0  0  0
   46.8860   31.3710   50.3410 H   0  0  0  0  0  0  0  0  0  0  0  0
   47.3490   30.7040   48.6800 H   0  0  0  0  0  0  0  0  0  0  0  0
   44.4680   31.1090   49.8030 H   0  0  0  0  0  0  0  0  0  0  0  0
   44.8130   30.2350   47.7820 C   0  0  0  0  0  0  0  0  0  0  0  0
   44.2660   30.6360   46.9400 H   0  0  0  0  0  0  0  0  0  0  0  0
   45.0290   29.0600   47.4790 O   0  0  0  0  0  0  0  0  0  0  0  0
  1  4  1  6  0  0  0
  1 25  1  0  0  0  0
  2  3  1  0  0  0  0
  2  1  1  0  0  0  0
  2  5  1  0  0  0  0
  3  1  1  0  0  0  0
  3  7  1  1  0  0  0
  6  2  1  0  0  0  0
  8  3  1  0  0  0  0
  9  8  1  0  0  0  0
  9 18  1  0  0  0  0
 10  9  2  0  0  0  0
 11 16  1  0  0  0  0
 11 10  1  0  0  0  0
 12 11  2  0  0  0  0
 13 14  2  0  0  0  0
 13 12  1  0  0  0  0
 14 15  1  0  0  0  0
 15 22  1  0  0  0  0
 15 16  2  0  0  0  0
 16 17  1  0  0  0  0
 17  8  2  0  0  0  0
 19 10  1  0  0  0  0
 20 13  1  0  0  0  0
 21 14  1  0  0  0  0
 23 17  1  0  0  0  0
 24 29  1  0  0  0  0
 25 26  1  0  0  0  0
 25 24  2  0  0  0  0
 26 27  2  0  0  0  0
 27 28  1  0  0  0  0
 28 32  1  0  0  0  0
 29 28  2  0  0  0  0
 30 24  1  0  0  0  0
 31 26  1  0  0  0  0
 32 34  1  0  0  0  0
 32 35  1  1  0  0  0
 32 33  1  0  0  0  0
 33 36  1  0  0  0  0
 34 33  1  0  0  0  0
 34 38  1  1  0  0  0
 37 33  1  0  0  0  0
 39 34  1  0  0  0  0
 40 39  1  0  0  0  0
 41 39  2  0  0  0  0
M  END
>  <minimizedAffinity>
-5.66427565

>  <minimizedRMSD>
0.292550653

$$$$
