
 OpenBabel03252509233D

 21 22  0  0  1  0  0  0  0  0999 V2000
   44.6960   35.2970   45.1030 C   0  0  0  0  0  0  0  0  0  0  0  0
   45.1710   35.6380   43.8110 C   0  0  0  0  0  0  0  0  0  0  0  0
   46.1710   34.8290   43.3340 C   0  0  0  0  0  0  0  0  0  0  0  0
   46.6570   33.7700   44.0850 N   0  0  0  0  0  0  0  0  0  0  0  0
   46.1730   33.4900   45.3010 C   0  0  0  0  0  0  0  0  0  0  0  0
   45.1800   34.2640   45.8170 N   0  0  0  0  0  0  0  0  0  0  0  0
   43.9100   35.9030   45.5220 H   0  0  0  0  0  0  0  0  0  0  0  0
   46.6730   32.6360   45.7240 H   0  0  0  0  0  0  0  0  0  0  0  0
   46.6910   35.0800   41.9380 C   0  0  1  0  0  0  0  0  0  0  0  0
   48.2030   35.4340   41.9830 C   0  0  0  0  0  0  0  0  0  0  0  0
   47.5910   34.1410   41.3690 C   0  0  2  0  0  0  0  0  0  0  0  0
   46.1060   35.8230   41.3700 H   0  0  0  0  0  0  0  0  0  0  0  0
   48.5760   36.1330   41.2300 H   0  0  0  0  0  0  0  0  0  0  0  0
   48.7520   35.3290   42.9120 H   0  0  0  0  0  0  0  0  0  0  0  0
   47.9620   33.2200   41.8490 H   0  0  0  0  0  0  0  0  0  0  0  0
   47.6130   34.0490   39.8620 C   0  0  0  0  0  0  0  0  0  0  0  0
   46.9320   34.6240   39.2140 H   0  0  0  0  0  0  0  0  0  0  0  0
   48.4090   33.3130   39.2710 O   0  0  0  0  0  0  0  0  0  0  0  0
   44.6710   36.7460   43.0640 N   0  0  0  0  0  0  0  0  0  0  0  0
   43.6760   36.6850   42.7210 H   0  0  0  0  0  0  0  0  0  0  0  0
   45.1200   37.6450   42.7800 H   0  0  0  0  0  0  0  0  0  0  0  0
  1  7  1  0  0  0  0
  1  6  1  0  0  0  0
  2  1  2  0  0  0  0
  3  2  1  0  0  0  0
  3  4  2  0  0  0  0
  4  5  1  0  0  0  0
  5  8  1  0  0  0  0
  5  6  2  0  0  0  0
  9 12  1  6  0  0  0
  9 10  1  0  0  0  0
  9  3  1  0  0  0  0
 10 14  1  0  0  0  0
 11 15  1  1  0  0  0
 11  9  1  0  0  0  0
 11 10  1  0  0  0  0
 13 10  1  0  0  0  0
 16 11  1  0  0  0  0
 17 16  1  0  0  0  0
 18 16  2  0  0  0  0
 19  2  1  0  0  0  0
 20 19  1  0  0  0  0
 21 19  1  0  0  0  0
M  END
>  <minimizedAffinity>
-4.15399504

>  <minimizedRMSD>
0.197002381

$$$$
