
 OpenBabel03252501543D

 15 15  0  0  0  0  0  0  0  0999 V2000
   44.6340   35.3570   45.1460 C   0  0  0  0  0  0  0  0  0  0  0  0
   45.2490   35.4330   43.9010 C   0  0  0  0  0  0  0  0  0  0  0  0
   46.2450   34.5160   43.5980 C   0  0  0  0  0  0  0  0  0  0  0  0
   46.5760   33.5820   44.5400 N   0  0  0  0  0  0  0  0  0  0  0  0
   45.9540   33.5480   45.7320 C   0  0  0  0  0  0  0  0  0  0  0  0
   44.9820   34.4270   46.0510 N   0  0  0  0  0  0  0  0  0  0  0  0
   43.8540   36.0560   45.4150 H   0  0  0  0  0  0  0  0  0  0  0  0
   46.3460   32.7330   46.3620 H   0  0  0  0  0  0  0  0  0  0  0  0
   44.8220   36.4770   42.9530 C   0  0  0  0  0  0  0  0  0  0  0  0
   44.4900   36.0730   41.9790 H   0  0  0  0  0  0  0  0  0  0  0  0
   43.9990   37.0540   43.3590 H   0  0  0  0  0  0  0  0  0  0  0  0
   45.7350   37.0910   42.7340 H   0  0  0  0  0  0  0  0  0  0  0  0
   46.9040   34.5620   42.3230 C   0  0  0  0  0  0  0  0  0  0  0  0
   46.5160   34.0040   41.4800 H   0  0  0  0  0  0  0  0  0  0  0  0
   47.9510   35.2270   42.0670 O   0  0  0  0  0  0  0  0  0  0  0  0
  1  7  1  0  0  0  0
  1  6  1  0  0  0  0
  2  1  2  0  0  0  0
  3  2  1  0  0  0  0
  3  4  2  0  0  0  0
  4  5  1  0  0  0  0
  5  6  2  0  0  0  0
  5  8  1  0  0  0  0
  9 11  1  0  0  0  0
  9  2  1  0  0  0  0
 10  9  1  0  0  0  0
 12  9  1  0  0  0  0
 13  3  1  0  0  0  0
 14 13  1  0  0  0  0
 15 13  2  0  0  0  0
M  END
>  <minimizedAffinity>
-3.13664699

>  <minimizedRMSD>
1.47500992

$$$$
