
 OpenBabel03242515163D

 31 32  0  0  0  0  0  0  0  0999 V2000
   45.6280   32.1120   47.4180 C   0  0  0  0  0  0  0  0  0  0  0  0
   44.6390   32.6370   47.4090 H   0  0  0  0  0  0  0  0  0  0  0  0
   45.9950   32.2340   48.4580 H   0  0  0  0  0  0  0  0  0  0  0  0
   45.4840   30.6860   47.0990 C   0  0  0  0  0  0  0  0  0  0  0  0
   45.6510   30.0350   45.9140 C   0  0  0  0  0  0  0  0  0  0  0  0
   45.3990   28.7050   46.1440 C   0  0  0  0  0  0  0  0  0  0  0  0
   45.0890   28.5610   47.4310 N   0  0  0  0  0  0  0  0  0  0  0  0
   45.1440   29.7660   47.9920 N   0  0  0  0  0  0  0  0  0  0  0  0
   45.9290   30.4880   44.9770 H   0  0  0  0  0  0  0  0  0  0  0  0
   44.7410   27.3230   48.1470 C   0  0  0  0  0  0  0  0  0  0  0  0
   44.3360   27.6250   49.4560 F   0  0  0  0  0  0  0  0  0  0  0  0
   45.8000   26.4530   48.1000 F   0  0  0  0  0  0  0  0  0  0  0  0
   43.6600   26.7460   47.5140 F   0  0  0  0  0  0  0  0  0  0  0  0
   45.4620   27.6430   45.1450 C   0  0  0  0  0  0  0  0  0  0  0  0
   46.3930   27.1330   44.9320 H   0  0  0  0  0  0  0  0  0  0  0  0
   44.4690   27.2480   44.4740 O   0  0  0  0  0  0  0  0  0  0  0  0
   46.6290   32.7920   46.5150 C   0  0  0  0  0  0  0  0  0  0  0  0
   47.3950   33.3700   47.1050 H   0  0  0  0  0  0  0  0  0  0  0  0
   47.1680   32.0040   46.0080 H   0  0  0  0  0  0  0  0  0  0  0  0
   44.5530   35.4640   44.9610 C   0  0  0  0  0  0  0  0  0  0  0  0
   45.1070   35.5000   43.6510 C   0  0  0  0  0  0  0  0  0  0  0  0
   46.1400   34.6210   43.3860 C   0  0  0  0  0  0  0  0  0  0  0  0
   46.5250   33.8160   44.3860 N   0  0  0  0  0  0  0  0  0  0  0  0
   46.0060   33.7840   45.6100 C   0  0  0  0  0  0  0  0  0  0  0  0
   45.0190   34.6140   45.8860 N   0  0  0  0  0  0  0  0  0  0  0  0
   43.7400   36.1550   45.1700 H   0  0  0  0  0  0  0  0  0  0  0  0
   44.7460   36.1770   42.8900 H   0  0  0  0  0  0  0  0  0  0  0  0
   46.7120   34.6550   42.0420 C   0  0  0  0  0  0  0  0  0  0  0  0
   47.5040   33.5230   41.8390 F   0  0  0  0  0  0  0  0  0  0  0  0
   47.6220   35.7150   42.0330 F   0  0  0  0  0  0  0  0  0  0  0  0
   45.7690   34.7520   41.0640 F   0  0  0  0  0  0  0  0  0  0  0  0
  1  3  1  0  0  0  0
  2  1  1  0  0  0  0
  4  1  1  0  0  0  0
  4  8  2  0  0  0  0
  5  6  2  0  0  0  0
  5  4  1  0  0  0  0
  6  7  1  0  0  0  0
  7  8  1  0  0  0  0
  7 10  1  0  0  0  0
  9  5  1  0  0  0  0
 10 11  1  0  0  0  0
 12 10  1  0  0  0  0
 13 10  1  0  0  0  0
 14  6  1  0  0  0  0
 15 14  1  0  0  0  0
 16 14  2  0  0  0  0
 17 18  1  0  0  0  0
 17  1  1  0  0  0  0
 19 17  1  0  0  0  0
 20 26  1  0  0  0  0
 20 25  1  0  0  0  0
 21 20  2  0  0  0  0
 22 21  1  0  0  0  0
 22 23  2  0  0  0  0
 23 24  1  0  0  0  0
 24 25  2  0  0  0  0
 24 17  1  0  0  0  0
 27 21  1  0  0  0  0
 28 22  1  0  0  0  0
 29 28  1  0  0  0  0
 30 28  1  0  0  0  0
 31 28  1  0  0  0  0
M  END
>  <minimizedAffinity>
-5.05324984

>  <minimizedRMSD>
0.0376460552

$$$$
