
 OpenBabel03242514433D

 15 15  0  0  0  0  0  0  0  0999 V2000
   45.5740   35.0080   43.8910 C   0  0  0  0  0  0  0  0  0  0  0  0
   46.6720   34.4020   43.2420 C   0  0  0  0  0  0  0  0  0  0  0  0
   47.3080   33.3430   43.9150 C   0  0  0  0  0  0  0  0  0  0  0  0
   46.8290   32.9770   45.1300 N   0  0  0  0  0  0  0  0  0  0  0  0
   45.7720   33.5870   45.7140 C   0  0  0  0  0  0  0  0  0  0  0  0
   45.1510   34.6000   45.0890 N   0  0  0  0  0  0  0  0  0  0  0  0
   48.1410   32.8190   43.5170 H   0  0  0  0  0  0  0  0  0  0  0  0
   45.4680   33.2200   46.6840 H   0  0  0  0  0  0  0  0  0  0  0  0
   44.9020   36.1310   43.1740 C   0  0  0  0  0  0  0  0  0  0  0  0
   45.5830   36.8080   42.6490 H   0  0  0  0  0  0  0  0  0  0  0  0
   44.4420   36.7690   43.9840 H   0  0  0  0  0  0  0  0  0  0  0  0
   44.0450   35.7680   42.5730 H   0  0  0  0  0  0  0  0  0  0  0  0
   47.1760   34.8010   41.9410 C   0  0  0  0  0  0  0  0  0  0  0  0
   46.6570   34.4660   41.0540 H   0  0  0  0  0  0  0  0  0  0  0  0
   48.2120   35.5320   41.8410 O   0  0  0  0  0  0  0  0  0  0  0  0
  1  6  1  0  0  0  0
  2  1  2  0  0  0  0
  2  3  1  0  0  0  0
  3  4  2  0  0  0  0
  4  5  1  0  0  0  0
  5  8  1  0  0  0  0
  6  5  2  0  0  0  0
  7  3  1  0  0  0  0
  9  1  1  0  0  0  0
  9 11  1  0  0  0  0
 10  9  1  0  0  0  0
 12  9  1  0  0  0  0
 13  2  1  0  0  0  0
 14 13  1  0  0  0  0
 15 13  2  0  0  0  0
M  END
>  <minimizedAffinity>
-3.16334391

>  <minimizedRMSD>
0.592808425

$$$$
