
 OpenBabel03252506103D

 24 25  0  0  0  0  0  0  0  0999 V2000
   37.8790   28.3170   39.6440 F   0  0  0  0  0  0  0  0  0  0  0  0
   37.6180   28.0840   40.9440 C   0  0  0  0  0  0  0  0  0  0  0  0
   37.7900   29.0970   41.8660 C   0  0  0  0  0  0  0  0  0  0  0  0
   37.5420   28.9270   43.2150 C   0  0  0  0  0  0  0  0  0  0  0  0
   37.0980   27.6900   43.6790 C   0  0  0  0  0  0  0  0  0  0  0  0
   36.9400   26.7060   42.7140 C   0  0  0  0  0  0  0  0  0  0  0  0
   37.1810   26.8530   41.3720 C   0  0  0  0  0  0  0  0  0  0  0  0
   37.6850   29.7330   43.8960 H   0  0  0  0  0  0  0  0  0  0  0  0
   36.8880   27.5050   44.7240 H   0  0  0  0  0  0  0  0  0  0  0  0
   36.5960   25.7300   43.0390 H   0  0  0  0  0  0  0  0  0  0  0  0
   37.8030   32.5050   40.4650 C   0  0  0  0  0  0  0  0  0  0  0  0
   39.1660   32.8590   40.6200 C   0  0  0  0  0  0  0  0  0  0  0  0
   40.0630   31.9450   41.1940 C   0  0  0  0  0  0  0  0  0  0  0  0
   39.5540   30.7280   41.5840 N   0  0  0  0  0  0  0  0  0  0  0  0
   38.2560   30.4170   41.4250 C   0  0  0  0  0  0  0  0  0  0  0  0
   37.4020   31.2960   40.8750 N   0  0  0  0  0  0  0  0  0  0  0  0
   39.5290   33.8400   40.2960 H   0  0  0  0  0  0  0  0  0  0  0  0
   41.1060   32.1770   41.3290 H   0  0  0  0  0  0  0  0  0  0  0  0
   36.9180   33.4340   39.8880 N   0  0  0  0  0  0  0  0  0  0  0  0
   36.1390   33.1600   39.2550 H   0  0  0  0  0  0  0  0  0  0  0  0
   36.9340   34.4870   40.0210 H   0  0  0  0  0  0  0  0  0  0  0  0
   36.9780   25.7400   40.4510 C   0  0  0  0  0  0  0  0  0  0  0  0
   37.1530   25.8630   39.3960 H   0  0  0  0  0  0  0  0  0  0  0  0
   36.5940   24.6270   40.9030 O   0  0  0  0  0  0  0  0  0  0  0  0
  1  2  1  0  0  0  0
  2  7  2  0  0  0  0
  2  3  1  0  0  0  0
  3  4  2  0  0  0  0
  4  5  1  0  0  0  0
  4  8  1  0  0  0  0
  5  9  1  0  0  0  0
  6 10  1  0  0  0  0
  6  5  2  0  0  0  0
  7  6  1  0  0  0  0
 11 12  2  0  0  0  0
 11 16  1  0  0  0  0
 12 13  1  0  0  0  0
 13 18  1  0  0  0  0
 13 14  2  0  0  0  0
 15 14  1  0  0  0  0
 15  3  1  0  0  0  0
 16 15  2  0  0  0  0
 17 12  1  0  0  0  0
 19 21  1  0  0  0  0
 19 11  1  0  0  0  0
 20 19  1  0  0  0  0
 22 24  2  0  0  0  0
 22  7  1  0  0  0  0
 23 22  1  0  0  0  0
M  END
>  <minimizedAffinity>
-5.0793705

$$$$

 OpenBabel03252506103D

 24 25  0  0  0  0  0  0  0  0999 V2000
   40.0510   29.1900   41.4720 F   0  0  0  0  0  0  0  0  0  0  0  0
   38.9740   28.6140   42.0390 C   0  0  0  0  0  0  0  0  0  0  0  0
   37.7110   28.9290   41.5790 C   0  0  0  0  0  0  0  0  0  0  0  0
   36.5630   28.3760   42.1160 C   0  0  0  0  0  0  0  0  0  0  0  0
   36.6680   27.4620   43.1620 C   0  0  0  0  0  0  0  0  0  0  0  0
   37.9580   27.1790   43.5880 C   0  0  0  0  0  0  0  0  0  0  0  0
   39.1080   27.7160   43.0710 C   0  0  0  0  0  0  0  0  0  0  0  0
   35.6060   28.6430   41.7330 H   0  0  0  0  0  0  0  0  0  0  0  0
   35.8020   27.0000   43.6160 H   0  0  0  0  0  0  0  0  0  0  0  0
   38.0770   26.4710   44.4020 H   0  0  0  0  0  0  0  0  0  0  0  0
   37.1960   32.0820   39.7440 C   0  0  0  0  0  0  0  0  0  0  0  0
   37.2580   31.6310   38.4020 C   0  0  0  0  0  0  0  0  0  0  0  0
   37.4730   30.2700   38.1330 C   0  0  0  0  0  0  0  0  0  0  0  0
   37.6140   29.4320   39.2140 N   0  0  0  0  0  0  0  0  0  0  0  0
   37.5500   29.8870   40.4780 C   0  0  0  0  0  0  0  0  0  0  0  0
   37.3450   31.1900   40.7300 N   0  0  0  0  0  0  0  0  0  0  0  0
   37.1400   32.3330   37.5710 H   0  0  0  0  0  0  0  0  0  0  0  0
   37.5270   29.8890   37.1280 H   0  0  0  0  0  0  0  0  0  0  0  0
   36.9800   33.4490   39.9950 N   0  0  0  0  0  0  0  0  0  0  0  0
   36.4040   33.7980   40.7880 H   0  0  0  0  0  0  0  0  0  0  0  0
   37.3640   34.2620   39.4300 H   0  0  0  0  0  0  0  0  0  0  0  0
   40.4130   27.3390   43.6050 C   0  0  0  0  0  0  0  0  0  0  0  0
   41.0760   28.0850   44.0080 H   0  0  0  0  0  0  0  0  0  0  0  0
   40.7600   26.1270   43.5890 O   0  0  0  0  0  0  0  0  0  0  0  0
  1  2  1  0  0  0  0
  2  7  1  0  0  0  0
  3  2  2  0  0  0  0
  3  4  1  0  0  0  0
  4  5  2  0  0  0  0
  5  6  1  0  0  0  0
  5  9  1  0  0  0  0
  6 10  1  0  0  0  0
  7  6  2  0  0  0  0
  7 22  1  0  0  0  0
  8  4  1  0  0  0  0
 11 19  1  0  0  0  0
 11 16  1  0  0  0  0
 12 11  2  0  0  0  0
 13 12  1  0  0  0  0
 13 14  2  0  0  0  0
 14 15  1  0  0  0  0
 15 16  2  0  0  0  0
 15  3  1  0  0  0  0
 17 12  1  0  0  0  0
 18 13  1  0  0  0  0
 19 20  1  0  0  0  0
 21 19  1  0  0  0  0
 22 23  1  0  0  0  0
 24 22  2  0  0  0  0
M  END
>  <minimizedAffinity>
-4.96595764

$$$$

 OpenBabel03252506103D

 24 25  0  0  0  0  0  0  0  0999 V2000
   37.3610   30.9790   37.2910 F   0  0  0  0  0  0  0  0  0  0  0  0
   36.5490   30.3790   38.1820 C   0  0  0  0  0  0  0  0  0  0  0  0
   36.5870   30.7650   39.5060 C   0  0  0  0  0  0  0  0  0  0  0  0
   35.7830   30.1910   40.4730 C   0  0  0  0  0  0  0  0  0  0  0  0
   34.8920   29.1820   40.1120 C   0  0  0  0  0  0  0  0  0  0  0  0
   34.8910   28.8310   38.7700 C   0  0  0  0  0  0  0  0  0  0  0  0
   35.6800   29.3860   37.7960 C   0  0  0  0  0  0  0  0  0  0  0  0
   35.8410   30.5170   41.4860 H   0  0  0  0  0  0  0  0  0  0  0  0
   34.2410   28.7020   40.8300 H   0  0  0  0  0  0  0  0  0  0  0  0
   34.2100   28.0490   38.4530 H   0  0  0  0  0  0  0  0  0  0  0  0
   39.4660   32.4730   41.0460 C   0  0  0  0  0  0  0  0  0  0  0  0
   39.1970   33.8220   40.7080 C   0  0  0  0  0  0  0  0  0  0  0  0
   38.0490   34.1390   39.9650 C   0  0  0  0  0  0  0  0  0  0  0  0
   37.2310   33.0950   39.5990 N   0  0  0  0  0  0  0  0  0  0  0  0
   37.5100   31.8230   39.9340 C   0  0  0  0  0  0  0  0  0  0  0  0
   38.6110   31.5260   40.6450 N   0  0  0  0  0  0  0  0  0  0  0  0
   39.8760   34.6230   41.0190 H   0  0  0  0  0  0  0  0  0  0  0  0
   37.8100   35.1510   39.6880 H   0  0  0  0  0  0  0  0  0  0  0  0
   40.6220   32.1740   41.7910 N   0  0  0  0  0  0  0  0  0  0  0  0
   40.6530   31.4310   42.5190 H   0  0  0  0  0  0  0  0  0  0  0  0
   41.5670   32.6490   41.7050 H   0  0  0  0  0  0  0  0  0  0  0  0
   35.5900   28.9300   36.4130 C   0  0  0  0  0  0  0  0  0  0  0  0
   34.7110   29.1340   35.8250 H   0  0  0  0  0  0  0  0  0  0  0  0
   36.5530   28.2910   35.9090 O   0  0  0  0  0  0  0  0  0  0  0  0
  1  2  1  0  0  0  0
  2  3  1  0  0  0  0
  3 15  1  0  0  0  0
  3  4  2  0  0  0  0
  4  8  1  0  0  0  0
  5  4  1  0  0  0  0
  5  9  1  0  0  0  0
  6  5  2  0  0  0  0
  7  2  2  0  0  0  0
  7  6  1  0  0  0  0
 10  6  1  0  0  0  0
 11 19  1  0  0  0  0
 12 17  1  0  0  0  0
 12 11  1  0  0  0  0
 13 12  2  0  0  0  0
 14 15  2  0  0  0  0
 14 13  1  0  0  0  0
 15 16  1  0  0  0  0
 16 11  2  0  0  0  0
 18 13  1  0  0  0  0
 19 20  1  0  0  0  0
 21 19  1  0  0  0  0
 22  7  1  0  0  0  0
 23 22  1  0  0  0  0
 24 22  2  0  0  0  0
M  END
>  <minimizedAffinity>
-4.71853733

$$$$

 OpenBabel03252506103D

 24 25  0  0  0  0  0  0  0  0999 V2000
   39.5550   29.1670   41.4870 F   0  0  0  0  0  0  0  0  0  0  0  0
   38.2350   29.2250   41.2250 C   0  0  0  0  0  0  0  0  0  0  0  0
   37.7290   30.2890   40.5050 C   0  0  0  0  0  0  0  0  0  0  0  0
   36.3870   30.4130   40.2020 C   0  0  0  0  0  0  0  0  0  0  0  0
   35.4940   29.4320   40.6320 C   0  0  0  0  0  0  0  0  0  0  0  0
   36.0510   28.3840   41.3500 C   0  0  0  0  0  0  0  0  0  0  0  0
   37.3790   28.2420   41.6620 C   0  0  0  0  0  0  0  0  0  0  0  0
   36.0340   31.2480   39.6440 H   0  0  0  0  0  0  0  0  0  0  0  0
   34.4350   29.4810   40.4200 H   0  0  0  0  0  0  0  0  0  0  0  0
   35.3860   27.6020   41.7010 H   0  0  0  0  0  0  0  0  0  0  0  0
   39.8550   32.3340   38.2960 C   0  0  0  0  0  0  0  0  0  0  0  0
   40.3050   33.3310   39.1960 C   0  0  0  0  0  0  0  0  0  0  0  0
   39.8860   33.3020   40.5350 C   0  0  0  0  0  0  0  0  0  0  0  0
   39.0420   32.2810   40.9060 N   0  0  0  0  0  0  0  0  0  0  0  0
   38.6310   31.3470   40.0320 C   0  0  0  0  0  0  0  0  0  0  0  0
   39.0340   31.3800   38.7510 N   0  0  0  0  0  0  0  0  0  0  0  0
   40.9770   34.1270   38.8580 H   0  0  0  0  0  0  0  0  0  0  0  0
   40.2060   34.0410   41.2500 H   0  0  0  0  0  0  0  0  0  0  0  0
   40.2840   32.3790   36.9570 N   0  0  0  0  0  0  0  0  0  0  0  0
   40.4960   31.5270   36.3990 H   0  0  0  0  0  0  0  0  0  0  0  0
   40.4380   33.2520   36.3740 H   0  0  0  0  0  0  0  0  0  0  0  0
   37.8470   27.0920   42.4270 C   0  0  0  0  0  0  0  0  0  0  0  0
   37.8870   26.1140   41.9780 H   0  0  0  0  0  0  0  0  0  0  0  0
   38.2050   27.2520   43.6260 O   0  0  0  0  0  0  0  0  0  0  0  0
  2  1  1  0  0  0  0
  2  7  1  0  0  0  0
  3  2  2  0  0  0  0
  4  3  1  0  0  0  0
  4  5  2  0  0  0  0
  5  6  1  0  0  0  0
  6  7  2  0  0  0  0
  6 10  1  0  0  0  0
  7 22  1  0  0  0  0
  8  4  1  0  0  0  0
  9  5  1  0  0  0  0
 11 16  2  0  0  0  0
 11 12  1  0  0  0  0
 12 13  2  0  0  0  0
 13 14  1  0  0  0  0
 13 18  1  0  0  0  0
 15  3  1  0  0  0  0
 15 14  2  0  0  0  0
 16 15  1  0  0  0  0
 17 12  1  0  0  0  0
 19 11  1  0  0  0  0
 20 19  1  0  0  0  0
 21 19  1  0  0  0  0
 22 24  2  0  0  0  0
 23 22  1  0  0  0  0
M  END
>  <minimizedAffinity>
-4.65859127

$$$$

 OpenBabel03252506103D

 24 25  0  0  0  0  0  0  0  0999 V2000
   37.3740   26.7160   38.7130 F   0  0  0  0  0  0  0  0  0  0  0  0
   37.2030   25.9170   39.7830 C   0  0  0  0  0  0  0  0  0  0  0  0
   37.2800   26.4520   41.0530 C   0  0  0  0  0  0  0  0  0  0  0  0
   37.1170   25.6900   42.1940 C   0  0  0  0  0  0  0  0  0  0  0  0
   36.8610   24.3250   42.0750 C   0  0  0  0  0  0  0  0  0  0  0  0
   36.7930   23.8360   40.7790 C   0  0  0  0  0  0  0  0  0  0  0  0
   36.9530   24.5740   39.6340 C   0  0  0  0  0  0  0  0  0  0  0  0
   37.1820   26.1390   43.1580 H   0  0  0  0  0  0  0  0  0  0  0  0
   36.7240   23.6850   42.9360 H   0  0  0  0  0  0  0  0  0  0  0  0
   36.5950   22.7770   40.6480 H   0  0  0  0  0  0  0  0  0  0  0  0
   36.7660   30.0900   41.3310 C   0  0  0  0  0  0  0  0  0  0  0  0
   38.0910   30.5370   41.5620 C   0  0  0  0  0  0  0  0  0  0  0  0
   39.1400   29.6060   41.6210 C   0  0  0  0  0  0  0  0  0  0  0  0
   38.8140   28.2820   41.4470 N   0  0  0  0  0  0  0  0  0  0  0  0
   37.5480   27.8850   41.2290 C   0  0  0  0  0  0  0  0  0  0  0  0
   36.5470   28.7800   41.1740 N   0  0  0  0  0  0  0  0  0  0  0  0
   38.3070   31.6020   41.6940 H   0  0  0  0  0  0  0  0  0  0  0  0
   40.1600   29.9060   41.7940 H   0  0  0  0  0  0  0  0  0  0  0  0
   35.7270   31.0370   41.2750 N   0  0  0  0  0  0  0  0  0  0  0  0
   34.9190   30.9560   40.6250 H   0  0  0  0  0  0  0  0  0  0  0  0
   35.6420   31.9150   41.8650 H   0  0  0  0  0  0  0  0  0  0  0  0
   36.8590   23.9440   38.3220 C   0  0  0  0  0  0  0  0  0  0  0  0
   37.7470   23.6560   37.7870 H   0  0  0  0  0  0  0  0  0  0  0  0
   35.7220   23.7400   37.8150 O   0  0  0  0  0  0  0  0  0  0  0  0
  1  2  1  0  0  0  0
  2  3  1  0  0  0  0
  3 15  1  0  0  0  0
  3  4  2  0  0  0  0
  4  8  1  0  0  0  0
  5  4  1  0  0  0  0
  5  9  1  0  0  0  0
  6  5  2  0  0  0  0
  7  2  2  0  0  0  0
  7  6  1  0  0  0  0
 10  6  1  0  0  0  0
 11 12  1  0  0  0  0
 12 13  2  0  0  0  0
 12 17  1  0  0  0  0
 13 18  1  0  0  0  0
 14 13  1  0  0  0  0
 15 14  2  0  0  0  0
 16 15  1  0  0  0  0
 16 11  2  0  0  0  0
 19 11  1  0  0  0  0
 19 21  1  0  0  0  0
 20 19  1  0  0  0  0
 22  7  1  0  0  0  0
 23 22  1  0  0  0  0
 24 22  2  0  0  0  0
M  END
>  <minimizedAffinity>
-4.5456543

$$$$

 OpenBabel03252506103D

 24 25  0  0  0  0  0  0  0  0999 V2000
   38.4970   26.5930   39.7410 F   0  0  0  0  0  0  0  0  0  0  0  0
   38.8940   26.3840   41.0110 C   0  0  0  0  0  0  0  0  0  0  0  0
   38.9550   27.4470   41.8890 C   0  0  0  0  0  0  0  0  0  0  0  0
   39.3550   27.3050   43.2050 C   0  0  0  0  0  0  0  0  0  0  0  0
   39.7130   26.0450   43.6800 C   0  0  0  0  0  0  0  0  0  0  0  0
   39.6350   25.0100   42.7590 C   0  0  0  0  0  0  0  0  0  0  0  0
   39.2410   25.1290   41.4510 C   0  0  0  0  0  0  0  0  0  0  0  0
   39.3880   28.1500   43.8530 H   0  0  0  0  0  0  0  0  0  0  0  0
   40.0310   25.8800   44.6990 H   0  0  0  0  0  0  0  0  0  0  0  0
   39.9060   24.0150   43.0940 H   0  0  0  0  0  0  0  0  0  0  0  0
   36.9760   30.4740   41.1840 C   0  0  0  0  0  0  0  0  0  0  0  0
   37.9510   31.3040   40.5760 C   0  0  0  0  0  0  0  0  0  0  0  0
   39.2630   30.8320   40.4130 C   0  0  0  0  0  0  0  0  0  0  0  0
   39.5330   29.5610   40.8620 N   0  0  0  0  0  0  0  0  0  0  0  0
   38.5880   28.7940   41.4350 C   0  0  0  0  0  0  0  0  0  0  0  0
   37.3340   29.2510   41.5900 N   0  0  0  0  0  0  0  0  0  0  0  0
   37.6930   32.3100   40.2320 H   0  0  0  0  0  0  0  0  0  0  0  0
   40.0320   31.4310   39.9560 H   0  0  0  0  0  0  0  0  0  0  0  0
   35.6660   30.9630   41.3400 N   0  0  0  0  0  0  0  0  0  0  0  0
   34.8200   30.3670   41.2370 H   0  0  0  0  0  0  0  0  0  0  0  0
   35.3900   31.9610   41.5740 H   0  0  0  0  0  0  0  0  0  0  0  0
   39.2000   23.9630   40.5750 C   0  0  0  0  0  0  0  0  0  0  0  0
   40.1070   23.5490   40.1690 H   0  0  0  0  0  0  0  0  0  0  0  0
   38.0870   23.4400   40.2950 O   0  0  0  0  0  0  0  0  0  0  0  0
  1  2  1  0  0  0  0
  2  7  2  0  0  0  0
  2  3  1  0  0  0  0
  3  4  2  0  0  0  0
  4  5  1  0  0  0  0
  4  8  1  0  0  0  0
  5  9  1  0  0  0  0
  6 10  1  0  0  0  0
  6  5  2  0  0  0  0
  7  6  1  0  0  0  0
 11 19  1  0  0  0  0
 11 16  1  0  0  0  0
 12 11  2  0  0  0  0
 13 12  1  0  0  0  0
 13 14  2  0  0  0  0
 14 15  1  0  0  0  0
 15 16  2  0  0  0  0
 15  3  1  0  0  0  0
 17 12  1  0  0  0  0
 18 13  1  0  0  0  0
 19 21  1  0  0  0  0
 20 19  1  0  0  0  0
 22  7  1  0  0  0  0
 23 22  1  0  0  0  0
 24 22  2  0  0  0  0
M  END
>  <minimizedAffinity>
-4.46872091

$$$$

 OpenBabel03252506103D

 24 25  0  0  0  0  0  0  0  0999 V2000
   40.3440   30.4380   40.3920 F   0  0  0  0  0  0  0  0  0  0  0  0
   39.2260   31.1700   40.2260 C   0  0  0  0  0  0  0  0  0  0  0  0
   39.3240   32.4760   39.7900 C   0  0  0  0  0  0  0  0  0  0  0  0
   38.2180   33.2830   39.6000 C   0  0  0  0  0  0  0  0  0  0  0  0
   36.9460   32.7730   39.8520 C   0  0  0  0  0  0  0  0  0  0  0  0
   36.9010   31.4560   40.2870 C   0  0  0  0  0  0  0  0  0  0  0  0
   37.9840   30.6390   40.4830 C   0  0  0  0  0  0  0  0  0  0  0  0
   38.3340   34.2860   39.2620 H   0  0  0  0  0  0  0  0  0  0  0  0
   36.0500   33.3620   39.7180 H   0  0  0  0  0  0  0  0  0  0  0  0
   35.9270   31.0260   40.4930 H   0  0  0  0  0  0  0  0  0  0  0  0
   42.2160   33.8570   37.9720 C   0  0  0  0  0  0  0  0  0  0  0  0
   43.1020   34.1390   39.0420 C   0  0  0  0  0  0  0  0  0  0  0  0
   42.7130   33.8600   40.3610 C   0  0  0  0  0  0  0  0  0  0  0  0
   41.4640   33.3160   40.5450 N   0  0  0  0  0  0  0  0  0  0  0  0
   40.6430   33.0580   39.5120 C   0  0  0  0  0  0  0  0  0  0  0  0
   41.0200   33.3270   38.2510 N   0  0  0  0  0  0  0  0  0  0  0  0
   44.0890   34.5730   38.8500 H   0  0  0  0  0  0  0  0  0  0  0  0
   43.3570   34.0600   41.2010 H   0  0  0  0  0  0  0  0  0  0  0  0
   42.6220   34.1430   36.6560 N   0  0  0  0  0  0  0  0  0  0  0  0
   42.3770   33.5440   35.8420 H   0  0  0  0  0  0  0  0  0  0  0  0
   43.2060   34.9730   36.3430 H   0  0  0  0  0  0  0  0  0  0  0  0
   37.8100   29.2660   40.9450 C   0  0  0  0  0  0  0  0  0  0  0  0
   37.4620   28.5010   40.2730 H   0  0  0  0  0  0  0  0  0  0  0  0
   38.0700   28.9810   42.1460 O   0  0  0  0  0  0  0  0  0  0  0  0
  2  1  1  0  0  0  0
  2  7  1  0  0  0  0
  3  2  2  0  0  0  0
  4  3  1  0  0  0  0
  4  5  2  0  0  0  0
  5  6  1  0  0  0  0
  6  7  2  0  0  0  0
  6 10  1  0  0  0  0
  7 22  1  0  0  0  0
  8  4  1  0  0  0  0
  9  5  1  0  0  0  0
 11 16  2  0  0  0  0
 11 12  1  0  0  0  0
 12 13  2  0  0  0  0
 13 14  1  0  0  0  0
 13 18  1  0  0  0  0
 15  3  1  0  0  0  0
 15 14  2  0  0  0  0
 16 15  1  0  0  0  0
 17 12  1  0  0  0  0
 19 11  1  0  0  0  0
 20 19  1  0  0  0  0
 21 19  1  0  0  0  0
 22 24  2  0  0  0  0
 23 22  1  0  0  0  0
M  END
>  <minimizedAffinity>
-4.45854092

$$$$

 OpenBabel03252506103D

 24 25  0  0  0  0  0  0  0  0999 V2000
   39.8330   27.5240   41.0250 F   0  0  0  0  0  0  0  0  0  0  0  0
   39.0900   26.4600   41.3840 C   0  0  0  0  0  0  0  0  0  0  0  0
   37.7330   26.4590   41.1280 C   0  0  0  0  0  0  0  0  0  0  0  0
   36.9120   25.4010   41.4710 C   0  0  0  0  0  0  0  0  0  0  0  0
   37.4590   24.2830   42.0970 C   0  0  0  0  0  0  0  0  0  0  0  0
   38.8260   24.3330   42.3310 C   0  0  0  0  0  0  0  0  0  0  0  0
   39.6580   25.3710   42.0010 C   0  0  0  0  0  0  0  0  0  0  0  0
   35.8690   25.4370   41.2560 H   0  0  0  0  0  0  0  0  0  0  0  0
   36.8610   23.4300   42.3840 H   0  0  0  0  0  0  0  0  0  0  0  0
   39.2870   23.4800   42.8180 H   0  0  0  0  0  0  0  0  0  0  0  0
   36.1310   29.7360   40.6120 C   0  0  0  0  0  0  0  0  0  0  0  0
   35.9600   29.7390   39.2060 C   0  0  0  0  0  0  0  0  0  0  0  0
   36.3880   28.6370   38.4500 C   0  0  0  0  0  0  0  0  0  0  0  0
   36.9620   27.5910   39.1340 N   0  0  0  0  0  0  0  0  0  0  0  0
   37.1110   27.6140   40.4700 C   0  0  0  0  0  0  0  0  0  0  0  0
   36.7010   28.6720   41.1890 N   0  0  0  0  0  0  0  0  0  0  0  0
   35.4980   30.5930   38.7000 H   0  0  0  0  0  0  0  0  0  0  0  0
   36.2760   28.6010   37.3790 H   0  0  0  0  0  0  0  0  0  0  0  0
   35.6970   30.8500   41.3540 N   0  0  0  0  0  0  0  0  0  0  0  0
   35.2700   30.7720   42.3000 H   0  0  0  0  0  0  0  0  0  0  0  0
   35.7510   31.8670   41.0540 H   0  0  0  0  0  0  0  0  0  0  0  0
   41.0850   25.3080   42.3000 C   0  0  0  0  0  0  0  0  0  0  0  0
   41.4360   25.3790   43.3150 H   0  0  0  0  0  0  0  0  0  0  0  0
   41.9090   25.1700   41.3540 O   0  0  0  0  0  0  0  0  0  0  0  0
  1  2  1  0  0  0  0
  2  7  1  0  0  0  0
  3  2  2  0  0  0  0
  3  4  1  0  0  0  0
  4  5  2  0  0  0  0
  5  6  1  0  0  0  0
  5  9  1  0  0  0  0
  6 10  1  0  0  0  0
  7 22  1  0  0  0  0
  7  6  2  0  0  0  0
  8  4  1  0  0  0  0
 11 16  1  0  0  0  0
 11 19  1  0  0  0  0
 12 11  2  0  0  0  0
 13 14  2  0  0  0  0
 13 12  1  0  0  0  0
 14 15  1  0  0  0  0
 15  3  1  0  0  0  0
 15 16  2  0  0  0  0
 17 12  1  0  0  0  0
 18 13  1  0  0  0  0
 19 20  1  0  0  0  0
 21 19  1  0  0  0  0
 22 23  1  0  0  0  0
 24 22  2  0  0  0  0
M  END
>  <minimizedAffinity>
-4.45822001

$$$$

 OpenBabel03252506103D

 24 25  0  0  0  0  0  0  0  0999 V2000
   35.8810   27.3100   39.6250 F   0  0  0  0  0  0  0  0  0  0  0  0
   36.1820   28.5610   40.0210 C   0  0  0  0  0  0  0  0  0  0  0  0
   36.1050   29.6000   39.1140 C   0  0  0  0  0  0  0  0  0  0  0  0
   36.4020   30.9070   39.4520 C   0  0  0  0  0  0  0  0  0  0  0  0
   36.7930   31.2050   40.7560 C   0  0  0  0  0  0  0  0  0  0  0  0
   36.8550   30.1280   41.6280 C   0  0  0  0  0  0  0  0  0  0  0  0
   36.5660   28.8250   41.3140 C   0  0  0  0  0  0  0  0  0  0  0  0
   36.3300   31.6810   38.7250 H   0  0  0  0  0  0  0  0  0  0  0  0
   37.0350   32.2100   41.0720 H   0  0  0  0  0  0  0  0  0  0  0  0
   37.1560   30.3230   42.6520 H   0  0  0  0  0  0  0  0  0  0  0  0
   36.2670   28.9990   35.4830 C   0  0  0  0  0  0  0  0  0  0  0  0
   34.8940   28.8400   35.1700 C   0  0  0  0  0  0  0  0  0  0  0  0
   33.9320   28.9360   36.1880 C   0  0  0  0  0  0  0  0  0  0  0  0
   34.3880   29.1870   37.4600 N   0  0  0  0  0  0  0  0  0  0  0  0
   35.6970   29.3340   37.7290 C   0  0  0  0  0  0  0  0  0  0  0  0
   36.6140   29.2400   36.7520 N   0  0  0  0  0  0  0  0  0  0  0  0
   34.5740   28.6410   34.1420 H   0  0  0  0  0  0  0  0  0  0  0  0
   32.8800   28.8210   35.9910 H   0  0  0  0  0  0  0  0  0  0  0  0
   37.2180   28.8980   34.4510 N   0  0  0  0  0  0  0  0  0  0  0  0
   38.0750   29.4860   34.4070 H   0  0  0  0  0  0  0  0  0  0  0  0
   37.1800   28.2360   33.6220 H   0  0  0  0  0  0  0  0  0  0  0  0
   36.6680   27.7740   42.3210 C   0  0  0  0  0  0  0  0  0  0  0  0
   35.8360   27.1200   42.5170 H   0  0  0  0  0  0  0  0  0  0  0  0
   37.7440   27.6380   42.9650 O   0  0  0  0  0  0  0  0  0  0  0  0
  1  2  1  0  0  0  0
  2  7  1  0  0  0  0
  3  4  1  0  0  0  0
  3  2  2  0  0  0  0
  4  5  2  0  0  0  0
  5  9  1  0  0  0  0
  5  6  1  0  0  0  0
  6 10  1  0  0  0  0
  7  6  2  0  0  0  0
  7 22  1  0  0  0  0
  8  4  1  0  0  0  0
 11 16  1  0  0  0  0
 12 11  2  0  0  0  0
 12 13  1  0  0  0  0
 13 14  2  0  0  0  0
 14 15  1  0  0  0  0
 15  3  1  0  0  0  0
 16 15  2  0  0  0  0
 17 12  1  0  0  0  0
 18 13  1  0  0  0  0
 19 11  1  0  0  0  0
 20 19  1  0  0  0  0
 21 19  1  0  0  0  0
 22 23  1  0  0  0  0
 22 24  2  0  0  0  0
M  END
>  <minimizedAffinity>
-4.42360735

$$$$
