
 OpenBabel03252505383D

 15 15  0  0  0  0  0  0  0  0999 V2000
   37.4880   30.6870   41.0600 C   0  0  0  0  0  0  0  0  0  0  0  0
   36.4140   30.6760   40.1540 C   0  0  0  0  0  0  0  0  0  0  0  0
   35.5610   29.5710   40.1930 C   0  0  0  0  0  0  0  0  0  0  0  0
   35.8080   28.5840   41.0840 N   0  0  0  0  0  0  0  0  0  0  0  0
   36.8530   28.6320   41.9380 C   0  0  0  0  0  0  0  0  0  0  0  0
   37.6810   29.6860   41.9140 N   0  0  0  0  0  0  0  0  0  0  0  0
   36.2400   31.4760   39.4550 H   0  0  0  0  0  0  0  0  0  0  0  0
   34.7180   29.4960   39.5280 H   0  0  0  0  0  0  0  0  0  0  0  0
   36.9450   27.4490   42.8310 C   0  0  0  0  0  0  0  0  0  0  0  0
   36.9780   26.2710   42.1290 F   0  0  0  0  0  0  0  0  0  0  0  0
   35.8290   27.4110   43.6800 F   0  0  0  0  0  0  0  0  0  0  0  0
   38.0290   27.5750   43.6780 F   0  0  0  0  0  0  0  0  0  0  0  0
   38.3840   31.8380   41.0270 C   0  0  0  0  0  0  0  0  0  0  0  0
   38.0590   32.7430   40.5240 H   0  0  0  0  0  0  0  0  0  0  0  0
   39.5260   31.8200   41.5620 O   0  0  0  0  0  0  0  0  0  0  0  0
  1  6  1  0  0  0  0
  2  3  1  0  0  0  0
  2  1  2  0  0  0  0
  3  4  2  0  0  0  0
  4  5  1  0  0  0  0
  5  9  1  0  0  0  0
  6  5  2  0  0  0  0
  7  2  1  0  0  0  0
  8  3  1  0  0  0  0
  9 12  1  0  0  0  0
  9 11  1  0  0  0  0
 10  9  1  0  0  0  0
 13  1  1  0  0  0  0
 13 15  2  0  0  0  0
 14 13  1  0  0  0  0
M  END
>  <minimizedAffinity>
-3.8729105

$$$$

 OpenBabel03252505383D

 15 15  0  0  0  0  0  0  0  0999 V2000
   37.5460   26.8170   42.2510 C   0  0  0  0  0  0  0  0  0  0  0  0
   38.2470   27.4980   43.2600 C   0  0  0  0  0  0  0  0  0  0  0  0
   38.0800   28.8830   43.3260 C   0  0  0  0  0  0  0  0  0  0  0  0
   37.2650   29.4880   42.4310 N   0  0  0  0  0  0  0  0  0  0  0  0
   36.6090   28.7960   41.4750 C   0  0  0  0  0  0  0  0  0  0  0  0
   36.7590   27.4660   41.3980 N   0  0  0  0  0  0  0  0  0  0  0  0
   38.8900   26.9920   43.9600 H   0  0  0  0  0  0  0  0  0  0  0  0
   38.5860   29.4690   44.0740 H   0  0  0  0  0  0  0  0  0  0  0  0
   35.7680   29.6480   40.5960 C   0  0  0  0  0  0  0  0  0  0  0  0
   34.4950   29.1560   40.4620 F   0  0  0  0  0  0  0  0  0  0  0  0
   36.3400   29.7120   39.3160 F   0  0  0  0  0  0  0  0  0  0  0  0
   35.7720   30.9520   41.0510 F   0  0  0  0  0  0  0  0  0  0  0  0
   37.7150   25.3700   42.1740 C   0  0  0  0  0  0  0  0  0  0  0  0
   38.7100   24.9630   42.0270 H   0  0  0  0  0  0  0  0  0  0  0  0
   36.7440   24.5700   42.2730 O   0  0  0  0  0  0  0  0  0  0  0  0
  1  2  1  0  0  0  0
  2  3  2  0  0  0  0
  2  7  1  0  0  0  0
  3  8  1  0  0  0  0
  4  3  1  0  0  0  0
  5  4  2  0  0  0  0
  6  5  1  0  0  0  0
  6  1  2  0  0  0  0
  9 12  1  0  0  0  0
  9  5  1  0  0  0  0
 10  9  1  0  0  0  0
 11  9  1  0  0  0  0
 13  1  1  0  0  0  0
 13 15  2  0  0  0  0
 14 13  1  0  0  0  0
M  END
>  <minimizedAffinity>
-3.86906576

$$$$

 OpenBabel03252505383D

 15 15  0  0  0  0  0  0  0  0999 V2000
   36.7830   29.0190   41.6350 C   0  0  0  0  0  0  0  0  0  0  0  0
   37.6680   29.3730   42.6670 C   0  0  0  0  0  0  0  0  0  0  0  0
   38.3420   28.3320   43.3100 C   0  0  0  0  0  0  0  0  0  0  0  0
   38.1140   27.0600   42.9130 N   0  0  0  0  0  0  0  0  0  0  0  0
   37.2530   26.7620   41.9160 C   0  0  0  0  0  0  0  0  0  0  0  0
   36.5980   27.7490   41.2880 N   0  0  0  0  0  0  0  0  0  0  0  0
   37.8320   30.3950   42.9640 H   0  0  0  0  0  0  0  0  0  0  0  0
   39.0350   28.5300   44.1100 H   0  0  0  0  0  0  0  0  0  0  0  0
   37.1470   25.3070   41.6370 C   0  0  0  0  0  0  0  0  0  0  0  0
   36.4250   24.6480   42.5990 F   0  0  0  0  0  0  0  0  0  0  0  0
   38.4290   24.7390   41.6000 F   0  0  0  0  0  0  0  0  0  0  0  0
   36.6320   25.1000   40.3730 F   0  0  0  0  0  0  0  0  0  0  0  0
   36.0750   30.1000   40.9570 C   0  0  0  0  0  0  0  0  0  0  0  0
   35.1450   29.8790   40.4440 H   0  0  0  0  0  0  0  0  0  0  0  0
   36.5050   31.2860   40.9450 O   0  0  0  0  0  0  0  0  0  0  0  0
  1  2  1  0  0  0  0
  2  7  1  0  0  0  0
  2  3  2  0  0  0  0
  3  8  1  0  0  0  0
  4  3  1  0  0  0  0
  5  4  2  0  0  0  0
  6  1  2  0  0  0  0
  6  5  1  0  0  0  0
  9  5  1  0  0  0  0
  9 10  1  0  0  0  0
 11  9  1  0  0  0  0
 12  9  1  0  0  0  0
 13  1  1  0  0  0  0
 14 13  1  0  0  0  0
 15 13  2  0  0  0  0
M  END
>  <minimizedAffinity>
-3.71367955

$$$$

 OpenBabel03252505383D

 15 15  0  0  0  0  0  0  0  0999 V2000
   36.0230   28.6910   39.4340 C   0  0  0  0  0  0  0  0  0  0  0  0
   36.0880   30.0790   39.6410 C   0  0  0  0  0  0  0  0  0  0  0  0
   36.4360   30.5150   40.9220 C   0  0  0  0  0  0  0  0  0  0  0  0
   36.6870   29.5950   41.8810 N   0  0  0  0  0  0  0  0  0  0  0  0
   36.6130   28.2680   41.6410 C   0  0  0  0  0  0  0  0  0  0  0  0
   36.2810   27.8330   40.4170 N   0  0  0  0  0  0  0  0  0  0  0  0
   35.8830   30.7910   38.8590 H   0  0  0  0  0  0  0  0  0  0  0  0
   36.5050   31.5640   41.1520 H   0  0  0  0  0  0  0  0  0  0  0  0
   36.9250   27.4310   42.8270 C   0  0  0  0  0  0  0  0  0  0  0  0
   38.0640   27.8460   43.4680 F   0  0  0  0  0  0  0  0  0  0  0  0
   37.1190   26.1000   42.4270 F   0  0  0  0  0  0  0  0  0  0  0  0
   35.8400   27.3890   43.6800 F   0  0  0  0  0  0  0  0  0  0  0  0
   35.6610   28.2270   38.0990 C   0  0  0  0  0  0  0  0  0  0  0  0
   35.6660   28.9350   37.2770 H   0  0  0  0  0  0  0  0  0  0  0  0
   35.3410   27.0300   37.8640 O   0  0  0  0  0  0  0  0  0  0  0  0
  1  2  2  0  0  0  0
  1  6  1  0  0  0  0
  2  3  1  0  0  0  0
  3  8  1  0  0  0  0
  3  4  2  0  0  0  0
  5  4  1  0  0  0  0
  5  9  1  0  0  0  0
  6  5  2  0  0  0  0
  7  2  1  0  0  0  0
  9 10  1  0  0  0  0
  9 12  1  0  0  0  0
 11  9  1  0  0  0  0
 13  1  1  0  0  0  0
 14 13  1  0  0  0  0
 15 13  2  0  0  0  0
M  END
>  <minimizedAffinity>
-3.52793455

$$$$

 OpenBabel03252505383D

 15 15  0  0  0  0  0  0  0  0999 V2000
   38.9300   27.5940   42.9620 C   0  0  0  0  0  0  0  0  0  0  0  0
   40.0080   27.0480   43.6790 C   0  0  0  0  0  0  0  0  0  0  0  0
   40.1730   25.6620   43.6220 C   0  0  0  0  0  0  0  0  0  0  0  0
   39.3020   24.9290   42.8910 N   0  0  0  0  0  0  0  0  0  0  0  0
   38.2780   25.4940   42.2150 C   0  0  0  0  0  0  0  0  0  0  0  0
   38.1060   26.8230   42.2600 N   0  0  0  0  0  0  0  0  0  0  0  0
   40.6870   27.6550   44.2540 H   0  0  0  0  0  0  0  0  0  0  0  0
   40.9760   25.1760   44.1470 H   0  0  0  0  0  0  0  0  0  0  0  0
   37.4410   24.5130   41.4780 C   0  0  0  0  0  0  0  0  0  0  0  0
   36.2370   24.2910   42.0980 F   0  0  0  0  0  0  0  0  0  0  0  0
   38.1140   23.2850   41.3960 F   0  0  0  0  0  0  0  0  0  0  0  0
   37.2790   24.9150   40.1670 F   0  0  0  0  0  0  0  0  0  0  0  0
   38.7510   29.0410   43.0160 C   0  0  0  0  0  0  0  0  0  0  0  0
   39.5880   29.6640   43.3150 H   0  0  0  0  0  0  0  0  0  0  0  0
   37.6560   29.5970   42.7280 O   0  0  0  0  0  0  0  0  0  0  0  0
  1 13  1  0  0  0  0
  1  2  1  0  0  0  0
  2  7  1  0  0  0  0
  3  2  2  0  0  0  0
  3  8  1  0  0  0  0
  4  3  1  0  0  0  0
  5  6  1  0  0  0  0
  5  4  2  0  0  0  0
  6  1  2  0  0  0  0
  9 10  1  0  0  0  0
  9  5  1  0  0  0  0
 11  9  1  0  0  0  0
 12  9  1  0  0  0  0
 13 14  1  0  0  0  0
 15 13  2  0  0  0  0
M  END
>  <minimizedAffinity>
-3.51711774

$$$$

 OpenBabel03252505383D

 15 15  0  0  0  0  0  0  0  0999 V2000
   37.6610   29.7400   41.7790 C   0  0  0  0  0  0  0  0  0  0  0  0
   38.8050   29.6870   42.5940 C   0  0  0  0  0  0  0  0  0  0  0  0
   39.6900   30.7650   42.5170 C   0  0  0  0  0  0  0  0  0  0  0  0
   39.4060   31.7880   41.6770 N   0  0  0  0  0  0  0  0  0  0  0  0
   38.2940   31.7990   40.9100 C   0  0  0  0  0  0  0  0  0  0  0  0
   37.4340   30.7720   40.9730 N   0  0  0  0  0  0  0  0  0  0  0  0
   39.0070   28.8610   43.2540 H   0  0  0  0  0  0  0  0  0  0  0  0
   40.5860   30.7920   43.1120 H   0  0  0  0  0  0  0  0  0  0  0  0
   38.1710   33.0110   40.0600 C   0  0  0  0  0  0  0  0  0  0  0  0
   36.9270   33.1220   39.4940 F   0  0  0  0  0  0  0  0  0  0  0  0
   39.1120   32.9540   39.0210 F   0  0  0  0  0  0  0  0  0  0  0  0
   38.5110   34.1370   40.7840 F   0  0  0  0  0  0  0  0  0  0  0  0
   36.7310   28.6180   41.8540 C   0  0  0  0  0  0  0  0  0  0  0  0
   36.1020   28.3990   40.9970 H   0  0  0  0  0  0  0  0  0  0  0  0
   36.6300   27.8920   42.8800 O   0  0  0  0  0  0  0  0  0  0  0  0
  1 13  1  0  0  0  0
  1  2  1  0  0  0  0
  2  7  1  0  0  0  0
  3  2  2  0  0  0  0
  3  8  1  0  0  0  0
  4  3  1  0  0  0  0
  5  6  1  0  0  0  0
  5  4  2  0  0  0  0
  6  1  2  0  0  0  0
  9 12  1  0  0  0  0
  9  5  1  0  0  0  0
 10  9  1  0  0  0  0
 11  9  1  0  0  0  0
 13 15  2  0  0  0  0
 14 13  1  0  0  0  0
M  END
>  <minimizedAffinity>
-3.51689363

$$$$

 OpenBabel03252505383D

 15 15  0  0  0  0  0  0  0  0999 V2000
   38.3600   31.3610   40.9560 C   0  0  0  0  0  0  0  0  0  0  0  0
   39.3830   31.1360   41.8930 C   0  0  0  0  0  0  0  0  0  0  0  0
   39.3040   29.9660   42.6520 C   0  0  0  0  0  0  0  0  0  0  0  0
   38.2650   29.1230   42.4490 N   0  0  0  0  0  0  0  0  0  0  0  0
   37.3020   29.3770   41.5370 C   0  0  0  0  0  0  0  0  0  0  0  0
   37.3630   30.4960   40.8010 N   0  0  0  0  0  0  0  0  0  0  0  0
   40.1990   31.8240   42.0350 H   0  0  0  0  0  0  0  0  0  0  0  0
   40.0520   29.7290   43.3880 H   0  0  0  0  0  0  0  0  0  0  0  0
   36.2530   28.3260   41.4730 C   0  0  0  0  0  0  0  0  0  0  0  0
   35.0550   28.8190   41.0220 F   0  0  0  0  0  0  0  0  0  0  0  0
   36.0430   27.7920   42.7530 F   0  0  0  0  0  0  0  0  0  0  0  0
   36.6920   27.2610   40.7130 F   0  0  0  0  0  0  0  0  0  0  0  0
   38.4350   32.5810   40.1600 C   0  0  0  0  0  0  0  0  0  0  0  0
   39.3810   32.8550   39.7040 H   0  0  0  0  0  0  0  0  0  0  0  0
   37.4380   33.3330   39.9800 O   0  0  0  0  0  0  0  0  0  0  0  0
  1  2  1  0  0  0  0
  2  7  1  0  0  0  0
  2  3  2  0  0  0  0
  3  8  1  0  0  0  0
  4  3  1  0  0  0  0
  5  4  2  0  0  0  0
  6  1  2  0  0  0  0
  6  5  1  0  0  0  0
  9  5  1  0  0  0  0
  9 11  1  0  0  0  0
 10  9  1  0  0  0  0
 12  9  1  0  0  0  0
 13  1  1  0  0  0  0
 14 13  1  0  0  0  0
 15 13  2  0  0  0  0
M  END
>  <minimizedAffinity>
-3.50114679

$$$$

 OpenBabel03252505383D

 15 15  0  0  0  0  0  0  0  0999 V2000
   36.8140   30.5360   39.8960 C   0  0  0  0  0  0  0  0  0  0  0  0
   35.9830   29.7930   39.0400 C   0  0  0  0  0  0  0  0  0  0  0  0
   35.5950   28.5230   39.4740 C   0  0  0  0  0  0  0  0  0  0  0  0
   36.0310   28.0810   40.6760 N   0  0  0  0  0  0  0  0  0  0  0  0
   36.8300   28.8270   41.4690 C   0  0  0  0  0  0  0  0  0  0  0  0
   37.2110   30.0480   41.0670 N   0  0  0  0  0  0  0  0  0  0  0  0
   35.6490   30.1690   38.0870 H   0  0  0  0  0  0  0  0  0  0  0  0
   34.9590   27.9000   38.8700 H   0  0  0  0  0  0  0  0  0  0  0  0
   37.1950   28.1560   42.7430 C   0  0  0  0  0  0  0  0  0  0  0  0
   38.1380   27.1770   42.5610 F   0  0  0  0  0  0  0  0  0  0  0  0
   36.0570   27.5570   43.3030 F   0  0  0  0  0  0  0  0  0  0  0  0
   37.5970   29.0920   43.6760 F   0  0  0  0  0  0  0  0  0  0  0  0
   37.2230   31.8630   39.4500 C   0  0  0  0  0  0  0  0  0  0  0  0
   37.4290   32.0240   38.3960 H   0  0  0  0  0  0  0  0  0  0  0  0
   37.3480   32.8340   40.2450 O   0  0  0  0  0  0  0  0  0  0  0  0
  1  6  1  0  0  0  0
  2  3  1  0  0  0  0
  2  1  2  0  0  0  0
  3  4  2  0  0  0  0
  4  5  1  0  0  0  0
  5  9  1  0  0  0  0
  6  5  2  0  0  0  0
  7  2  1  0  0  0  0
  8  3  1  0  0  0  0
  9 11  1  0  0  0  0
  9 12  1  0  0  0  0
 10  9  1  0  0  0  0
 13  1  1  0  0  0  0
 13 15  2  0  0  0  0
 14 13  1  0  0  0  0
M  END
>  <minimizedAffinity>
-3.48865652

$$$$

 OpenBabel03252505383D

 15 15  0  0  0  0  0  0  0  0999 V2000
   36.2120   30.0010   38.3310 C   0  0  0  0  0  0  0  0  0  0  0  0
   35.6220   29.4530   39.4820 C   0  0  0  0  0  0  0  0  0  0  0  0
   35.8210   30.1360   40.6850 C   0  0  0  0  0  0  0  0  0  0  0  0
   36.5580   31.2700   40.6800 N   0  0  0  0  0  0  0  0  0  0  0  0
   37.1090   31.7630   39.5500 C   0  0  0  0  0  0  0  0  0  0  0  0
   36.9280   31.1200   38.3870 N   0  0  0  0  0  0  0  0  0  0  0  0
   35.0390   28.5480   39.4580 H   0  0  0  0  0  0  0  0  0  0  0  0
   35.3980   29.7740   41.6060 H   0  0  0  0  0  0  0  0  0  0  0  0
   37.8800   33.0150   39.7620 C   0  0  0  0  0  0  0  0  0  0  0  0
   39.0050   33.0680   38.9790 F   0  0  0  0  0  0  0  0  0  0  0  0
   38.2860   33.0960   41.1030 F   0  0  0  0  0  0  0  0  0  0  0  0
   37.0660   34.1140   39.5720 F   0  0  0  0  0  0  0  0  0  0  0  0
   36.0090   29.2940   37.0710 C   0  0  0  0  0  0  0  0  0  0  0  0
   35.5590   28.3070   37.0880 H   0  0  0  0  0  0  0  0  0  0  0  0
   36.3380   29.7900   35.9580 O   0  0  0  0  0  0  0  0  0  0  0  0
  1  6  2  0  0  0  0
  1  2  1  0  0  0  0
  2  3  2  0  0  0  0
  3  8  1  0  0  0  0
  4  3  1  0  0  0  0
  5  9  1  0  0  0  0
  5  4  2  0  0  0  0
  6  5  1  0  0  0  0
  7  2  1  0  0  0  0
  9 11  1  0  0  0  0
 10  9  1  0  0  0  0
 12  9  1  0  0  0  0
 13 14  1  0  0  0  0
 13  1  1  0  0  0  0
 15 13  2  0  0  0  0
M  END
>  <minimizedAffinity>
-3.45771527

$$$$
