
 OpenBabel03252507523D

 25 26  0  0  1  0  0  0  0  0999 V2000
   37.3890   29.2700   42.3770 C   0  0  2  0  0  0  0  0  0  0  0  0
   38.6370   28.7190   42.9960 C   0  0  0  0  0  0  0  0  0  0  0  0
   38.0540   27.4750   43.6790 C   0  0  0  0  0  0  0  0  0  0  0  0
   36.9550   27.0000   42.7440 C   0  0  1  0  0  0  0  0  0  0  0  0
   36.8830   28.0290   41.6330 C   0  0  0  0  0  0  0  0  0  0  0  0
   36.6200   29.4980   43.1410 H   0  0  0  0  0  0  0  0  0  0  0  0
   39.0050   29.4470   43.7520 H   0  0  0  0  0  0  0  0  0  0  0  0
   39.3680   28.4670   42.2240 H   0  0  0  0  0  0  0  0  0  0  0  0
   38.8910   26.7590   43.7200 H   0  0  0  0  0  0  0  0  0  0  0  0
   37.6950   27.7500   44.6700 H   0  0  0  0  0  0  0  0  0  0  0  0
   36.0210   26.9280   43.3060 H   0  0  0  0  0  0  0  0  0  0  0  0
   37.4990   27.7810   40.7700 H   0  0  0  0  0  0  0  0  0  0  0  0
   35.7940   28.1500   41.4010 H   0  0  0  0  0  0  0  0  0  0  0  0
   36.9240   32.0310   39.8580 C   0  0  0  0  0  0  0  0  0  0  0  0
   36.5850   30.9100   40.6440 C   0  0  0  0  0  0  0  0  0  0  0  0
   37.5720   30.4200   41.4870 C   0  0  0  0  0  0  0  0  0  0  0  0
   38.8020   31.0480   41.5020 N   0  0  0  0  0  0  0  0  0  0  0  0
   39.0750   32.1130   40.7340 C   0  0  0  0  0  0  0  0  0  0  0  0
   38.1510   32.6100   39.9140 N   0  0  0  0  0  0  0  0  0  0  0  0
   36.1770   32.4410   39.1880 H   0  0  0  0  0  0  0  0  0  0  0  0
   35.6310   30.4380   40.6180 H   0  0  0  0  0  0  0  0  0  0  0  0
   40.0670   32.5280   40.8230 H   0  0  0  0  0  0  0  0  0  0  0  0
   37.3470   25.7130   42.0860 C   0  0  0  0  0  0  0  0  0  0  0  0
   38.2070   25.4850   41.4650 H   0  0  0  0  0  0  0  0  0  0  0  0
   36.6830   24.6710   42.1760 O   0  0  0  0  0  0  0  0  0  0  0  0
  1  2  1  0  0  0  0
  1  6  1  1  0  0  0
  2  3  1  0  0  0  0
  2  7  1  0  0  0  0
  3  9  1  0  0  0  0
  3 10  1  0  0  0  0
  4 11  1  1  0  0  0
  4  3  1  0  0  0  0
  5  1  1  0  0  0  0
  5  4  1  0  0  0  0
  8  2  1  0  0  0  0
 12  5  1  0  0  0  0
 13  5  1  0  0  0  0
 14 19  2  0  0  0  0
 14 15  1  0  0  0  0
 15 16  2  0  0  0  0
 16 17  1  0  0  0  0
 16  1  1  0  0  0  0
 18 22  1  0  0  0  0
 18 17  2  0  0  0  0
 19 18  1  0  0  0  0
 20 14  1  0  0  0  0
 21 15  1  0  0  0  0
 23 25  2  0  0  0  0
 23  4  1  0  0  0  0
 24 23  1  0  0  0  0
M  END
>  <minimizedAffinity>
-4.26286125

$$$$

 OpenBabel03252507523D

 25 26  0  0  1  0  0  0  0  0999 V2000
   36.6430   28.3320   41.8570 C   0  0  2  0  0  0  0  0  0  0  0  0
   36.1520   28.1900   40.4490 C   0  0  0  0  0  0  0  0  0  0  0  0
   35.3710   29.5040   40.3180 C   0  0  0  0  0  0  0  0  0  0  0  0
   36.1620   30.5070   41.1410 C   0  0  1  0  0  0  0  0  0  0  0  0
   37.2880   29.7200   41.7830 C   0  0  0  0  0  0  0  0  0  0  0  0
   35.8040   28.4270   42.5730 H   0  0  0  0  0  0  0  0  0  0  0  0
   35.4650   27.3180   40.4020 H   0  0  0  0  0  0  0  0  0  0  0  0
   36.9940   28.1340   39.7530 H   0  0  0  0  0  0  0  0  0  0  0  0
   35.4040   29.7440   39.2430 H   0  0  0  0  0  0  0  0  0  0  0  0
   34.3540   29.3500   40.6780 H   0  0  0  0  0  0  0  0  0  0  0  0
   35.4960   30.9590   41.8800 H   0  0  0  0  0  0  0  0  0  0  0  0
   38.2070   29.7220   41.1980 H   0  0  0  0  0  0  0  0  0  0  0  0
   37.3990   30.1370   42.8170 H   0  0  0  0  0  0  0  0  0  0  0  0
   38.5280   25.1210   42.4190 C   0  0  0  0  0  0  0  0  0  0  0  0
   37.5440   25.9810   41.8900 C   0  0  0  0  0  0  0  0  0  0  0  0
   37.5830   27.3030   42.3110 C   0  0  0  0  0  0  0  0  0  0  0  0
   38.5630   27.6850   43.2050 N   0  0  0  0  0  0  0  0  0  0  0  0
   39.4780   26.8260   43.6790 C   0  0  0  0  0  0  0  0  0  0  0  0
   39.4710   25.5510   43.2960 N   0  0  0  0  0  0  0  0  0  0  0  0
   38.5290   24.0810   42.1120 H   0  0  0  0  0  0  0  0  0  0  0  0
   36.7950   25.6680   41.2010 H   0  0  0  0  0  0  0  0  0  0  0  0
   40.2000   27.2280   44.3730 H   0  0  0  0  0  0  0  0  0  0  0  0
   36.8210   31.5130   40.2490 C   0  0  0  0  0  0  0  0  0  0  0  0
   36.6790   31.7000   39.1900 H   0  0  0  0  0  0  0  0  0  0  0  0
   37.6790   32.3160   40.6430 O   0  0  0  0  0  0  0  0  0  0  0  0
  1 16  1  0  0  0  0
  1  6  1  1  0  0  0
  2  1  1  0  0  0  0
  3  2  1  0  0  0  0
  3 10  1  0  0  0  0
  3  4  1  0  0  0  0
  4  5  1  0  0  0  0
  4 11  1  1  0  0  0
  5  1  1  0  0  0  0
  5 13  1  0  0  0  0
  7  2  1  0  0  0  0
  8  2  1  0  0  0  0
  9  3  1  0  0  0  0
 12  5  1  0  0  0  0
 14 19  1  0  0  0  0
 15 16  1  0  0  0  0
 15 14  2  0  0  0  0
 16 17  2  0  0  0  0
 17 18  1  0  0  0  0
 18 22  1  0  0  0  0
 19 18  2  0  0  0  0
 20 14  1  0  0  0  0
 21 15  1  0  0  0  0
 23 25  2  0  0  0  0
 23  4  1  0  0  0  0
 24 23  1  0  0  0  0
M  END
>  <minimizedAffinity>
-4.13846397

$$$$

 OpenBabel03252507523D

 25 26  0  0  1  0  0  0  0  0999 V2000
   36.6510   29.0340   41.6720 C   0  0  2  0  0  0  0  0  0  0  0  0
   37.6400   29.1550   42.7910 C   0  0  0  0  0  0  0  0  0  0  0  0
   37.2770   27.8950   43.5880 C   0  0  0  0  0  0  0  0  0  0  0  0
   36.8840   26.8720   42.5360 C   0  0  1  0  0  0  0  0  0  0  0  0
   36.9370   27.6020   41.2080 C   0  0  0  0  0  0  0  0  0  0  0  0
   35.6090   29.0280   42.0480 H   0  0  0  0  0  0  0  0  0  0  0  0
   37.4030   30.0710   43.3740 H   0  0  0  0  0  0  0  0  0  0  0  0
   38.6620   29.1230   42.4040 H   0  0  0  0  0  0  0  0  0  0  0  0
   38.2090   27.6100   44.1030 H   0  0  0  0  0  0  0  0  0  0  0  0
   36.4750   28.1350   44.2850 H   0  0  0  0  0  0  0  0  0  0  0  0
   35.8830   26.4980   42.7650 H   0  0  0  0  0  0  0  0  0  0  0  0
   37.8970   27.5120   40.7000 H   0  0  0  0  0  0  0  0  0  0  0  0
   36.0660   27.2200   40.6150 H   0  0  0  0  0  0  0  0  0  0  0  0
   36.8040   30.7640   38.3300 C   0  0  0  0  0  0  0  0  0  0  0  0
   36.6440   29.7020   39.2450 C   0  0  0  0  0  0  0  0  0  0  0  0
   36.7920   30.0120   40.5890 C   0  0  0  0  0  0  0  0  0  0  0  0
   37.0790   31.3150   40.9410 N   0  0  0  0  0  0  0  0  0  0  0  0
   37.2210   32.2910   40.0310 C   0  0  0  0  0  0  0  0  0  0  0  0
   37.0860   32.0290   38.7320 N   0  0  0  0  0  0  0  0  0  0  0  0
   36.6950   30.5590   37.2720 H   0  0  0  0  0  0  0  0  0  0  0  0
   36.4230   28.7020   38.9540 H   0  0  0  0  0  0  0  0  0  0  0  0
   37.4450   33.2750   40.4130 H   0  0  0  0  0  0  0  0  0  0  0  0
   37.9130   25.7880   42.4480 C   0  0  0  0  0  0  0  0  0  0  0  0
   37.8080   24.7560   42.1300 H   0  0  0  0  0  0  0  0  0  0  0  0
   39.1020   25.9500   42.7540 O   0  0  0  0  0  0  0  0  0  0  0  0
  1  6  1  1  0  0  0
  1  2  1  0  0  0  0
  2  7  1  0  0  0  0
  2  3  1  0  0  0  0
  3  9  1  0  0  0  0
  3 10  1  0  0  0  0
  4 11  1  1  0  0  0
  4  3  1  0  0  0  0
  5  1  1  0  0  0  0
  5  4  1  0  0  0  0
  8  2  1  0  0  0  0
 12  5  1  0  0  0  0
 13  5  1  0  0  0  0
 14 19  2  0  0  0  0
 14 15  1  0  0  0  0
 15 16  2  0  0  0  0
 16 17  1  0  0  0  0
 16  1  1  0  0  0  0
 18 22  1  0  0  0  0
 18 17  2  0  0  0  0
 19 18  1  0  0  0  0
 20 14  1  0  0  0  0
 21 15  1  0  0  0  0
 23  4  1  0  0  0  0
 23 25  2  0  0  0  0
 24 23  1  0  0  0  0
M  END
>  <minimizedAffinity>
-4.05387402

$$$$

 OpenBabel03252507523D

 25 26  0  0  1  0  0  0  0  0999 V2000
   36.9680   30.2910   39.9610 C   0  0  2  0  0  0  0  0  0  0  0  0
   38.1250   30.4340   39.0210 C   0  0  0  0  0  0  0  0  0  0  0  0
   37.7450   31.7600   38.3490 C   0  0  0  0  0  0  0  0  0  0  0  0
   37.0760   32.5710   39.4460 C   0  0  1  0  0  0  0  0  0  0  0  0
   37.0080   31.6570   40.6540 C   0  0  0  0  0  0  0  0  0  0  0  0
   36.0030   30.2570   39.4180 H   0  0  0  0  0  0  0  0  0  0  0  0
   38.0900   29.5980   38.2890 H   0  0  0  0  0  0  0  0  0  0  0  0
   39.0640   30.5020   39.5770 H   0  0  0  0  0  0  0  0  0  0  0  0
   38.7060   32.2050   38.0430 H   0  0  0  0  0  0  0  0  0  0  0  0
   37.0940   31.5540   37.5010 H   0  0  0  0  0  0  0  0  0  0  0  0
   36.0870   32.8800   39.1020 H   0  0  0  0  0  0  0  0  0  0  0  0
   37.8610   31.7590   41.3250 H   0  0  0  0  0  0  0  0  0  0  0  0
   36.0180   31.8620   41.1360 H   0  0  0  0  0  0  0  0  0  0  0  0
   37.0340   26.8970   41.5920 C   0  0  0  0  0  0  0  0  0  0  0  0
   36.9180   27.8450   40.5540 C   0  0  0  0  0  0  0  0  0  0  0  0
   37.0520   29.1790   40.9120 C   0  0  0  0  0  0  0  0  0  0  0  0
   37.2870   29.4890   42.2360 N   0  0  0  0  0  0  0  0  0  0  0  0
   37.3910   28.5490   43.1880 C   0  0  0  0  0  0  0  0  0  0  0  0
   37.2670   27.2590   42.8800 N   0  0  0  0  0  0  0  0  0  0  0  0
   36.9350   25.8460   41.3500 H   0  0  0  0  0  0  0  0  0  0  0  0
   36.7350   27.5860   39.5370 H   0  0  0  0  0  0  0  0  0  0  0  0
   37.5750   28.8990   44.1910 H   0  0  0  0  0  0  0  0  0  0  0  0
   37.9450   33.7210   39.8510 C   0  0  0  0  0  0  0  0  0  0  0  0
   38.0360   34.7100   39.4140 H   0  0  0  0  0  0  0  0  0  0  0  0
   38.7290   33.6790   40.8100 O   0  0  0  0  0  0  0  0  0  0  0  0
  1  6  1  6  0  0  0
  1  5  1  0  0  0  0
  1 16  1  0  0  0  0
  2  8  1  0  0  0  0
  2  1  1  0  0  0  0
  3  2  1  0  0  0  0
  3  4  1  0  0  0  0
  4 11  1  6  0  0  0
  4 23  1  0  0  0  0
  4  5  1  0  0  0  0
  5 13  1  0  0  0  0
  5 12  1  0  0  0  0
  7  2  1  0  0  0  0
  9  3  1  0  0  0  0
 10  3  1  0  0  0  0
 14 19  1  0  0  0  0
 15 16  1  0  0  0  0
 15 14  2  0  0  0  0
 16 17  2  0  0  0  0
 17 18  1  0  0  0  0
 18 22  1  0  0  0  0
 19 18  2  0  0  0  0
 20 14  1  0  0  0  0
 21 15  1  0  0  0  0
 23 25  2  0  0  0  0
 24 23  1  0  0  0  0
M  END
>  <minimizedAffinity>
-3.88972449

$$$$

 OpenBabel03252507523D

 25 26  0  0  1  0  0  0  0  0999 V2000
   38.6710   28.5610   42.6840 C   0  0  2  0  0  0  0  0  0  0  0  0
   40.0100   28.4250   42.0260 C   0  0  0  0  0  0  0  0  0  0  0  0
   40.7380   27.6030   43.0990 C   0  0  0  0  0  0  0  0  0  0  0  0
   39.6680   26.6930   43.6800 C   0  0  1  0  0  0  0  0  0  0  0  0
   38.3720   27.0920   43.0020 C   0  0  0  0  0  0  0  0  0  0  0  0
   38.7480   29.0720   43.6640 H   0  0  0  0  0  0  0  0  0  0  0  0
   40.4610   29.4360   41.9330 H   0  0  0  0  0  0  0  0  0  0  0  0
   39.9190   27.8860   41.0800 H   0  0  0  0  0  0  0  0  0  0  0  0
   41.5010   27.0320   42.5450 H   0  0  0  0  0  0  0  0  0  0  0  0
   41.1760   28.2820   43.8290 H   0  0  0  0  0  0  0  0  0  0  0  0
   39.6330   26.8370   44.7620 H   0  0  0  0  0  0  0  0  0  0  0  0
   38.1510   26.5090   42.1090 H   0  0  0  0  0  0  0  0  0  0  0  0
   37.5830   27.0340   43.7960 H   0  0  0  0  0  0  0  0  0  0  0  0
   36.5650   30.9410   40.6630 C   0  0  0  0  0  0  0  0  0  0  0  0
   37.6520   30.5030   41.4480 C   0  0  0  0  0  0  0  0  0  0  0  0
   37.6220   29.1820   41.8710 C   0  0  0  0  0  0  0  0  0  0  0  0
   36.5500   28.3940   41.5040 N   0  0  0  0  0  0  0  0  0  0  0  0
   35.5390   28.8580   40.7540 C   0  0  0  0  0  0  0  0  0  0  0  0
   35.5350   30.1210   40.3310 N   0  0  0  0  0  0  0  0  0  0  0  0
   36.5550   31.9670   40.3150 H   0  0  0  0  0  0  0  0  0  0  0  0
   38.4710   31.1270   41.7220 H   0  0  0  0  0  0  0  0  0  0  0  0
   34.7500   28.1580   40.5240 H   0  0  0  0  0  0  0  0  0  0  0  0
   39.9180   25.2710   43.2820 C   0  0  0  0  0  0  0  0  0  0  0  0
   40.7210   24.6010   43.5690 H   0  0  0  0  0  0  0  0  0  0  0  0
   39.1790   24.6380   42.5150 O   0  0  0  0  0  0  0  0  0  0  0  0
  1  5  1  0  0  0  0
  1  6  1  1  0  0  0
  2  1  1  0  0  0  0
  2  3  1  0  0  0  0
  3  4  1  0  0  0  0
  3 10  1  0  0  0  0
  4 11  1  1  0  0  0
  5  4  1  0  0  0  0
  5 13  1  0  0  0  0
  7  2  1  0  0  0  0
  8  2  1  0  0  0  0
  9  3  1  0  0  0  0
 12  5  1  0  0  0  0
 14 15  1  0  0  0  0
 15 21  1  0  0  0  0
 15 16  2  0  0  0  0
 16  1  1  0  0  0  0
 17 16  1  0  0  0  0
 18 17  2  0  0  0  0
 19 14  2  0  0  0  0
 19 18  1  0  0  0  0
 20 14  1  0  0  0  0
 22 18  1  0  0  0  0
 23 24  1  0  0  0  0
 23  4  1  0  0  0  0
 25 23  2  0  0  0  0
M  END
>  <minimizedAffinity>
-3.8835187

$$$$

 OpenBabel03252507523D

 25 26  0  0  1  0  0  0  0  0999 V2000
   38.1740   26.3810   42.6710 C   0  0  2  0  0  0  0  0  0  0  0  0
   36.8930   27.1470   42.8030 C   0  0  0  0  0  0  0  0  0  0  0  0
   37.3810   28.3080   43.6800 C   0  0  0  0  0  0  0  0  0  0  0  0
   38.8070   28.5650   43.2230 C   0  0  1  0  0  0  0  0  0  0  0  0
   39.1110   27.4950   42.1920 C   0  0  0  0  0  0  0  0  0  0  0  0
   38.5630   26.0640   43.6590 H   0  0  0  0  0  0  0  0  0  0  0  0
   36.1620   26.5180   43.3550 H   0  0  0  0  0  0  0  0  0  0  0  0
   36.5450   27.4830   41.8230 H   0  0  0  0  0  0  0  0  0  0  0  0
   36.7150   29.1500   43.4270 H   0  0  0  0  0  0  0  0  0  0  0  0
   37.3040   28.0190   44.7270 H   0  0  0  0  0  0  0  0  0  0  0  0
   39.4700   28.5090   44.0890 H   0  0  0  0  0  0  0  0  0  0  0  0
   38.9010   27.8050   41.1690 H   0  0  0  0  0  0  0  0  0  0  0  0
   40.1750   27.1930   42.3720 H   0  0  0  0  0  0  0  0  0  0  0  0
   37.2100   23.3150   40.7090 C   0  0  0  0  0  0  0  0  0  0  0  0
   37.0820   24.3530   41.6550 C   0  0  0  0  0  0  0  0  0  0  0  0
   38.1430   25.2420   41.7500 C   0  0  0  0  0  0  0  0  0  0  0  0
   39.2370   25.0570   40.9280 N   0  0  0  0  0  0  0  0  0  0  0  0
   39.3100   24.0520   40.0430 C   0  0  0  0  0  0  0  0  0  0  0  0
   38.3090   23.1810   39.9250 N   0  0  0  0  0  0  0  0  0  0  0  0
   36.3990   22.6020   40.6080 H   0  0  0  0  0  0  0  0  0  0  0  0
   36.2300   24.4790   42.2810 H   0  0  0  0  0  0  0  0  0  0  0  0
   40.2100   23.9990   39.4490 H   0  0  0  0  0  0  0  0  0  0  0  0
   38.8970   29.8720   42.4960 C   0  0  0  0  0  0  0  0  0  0  0  0
   38.4070   30.1930   41.5830 H   0  0  0  0  0  0  0  0  0  0  0  0
   39.5990   30.8180   42.8790 O   0  0  0  0  0  0  0  0  0  0  0  0
  1  2  1  0  0  0  0
  1  6  1  1  0  0  0
  2  7  1  0  0  0  0
  2  3  1  0  0  0  0
  3 10  1  0  0  0  0
  4  3  1  0  0  0  0
  4 11  1  1  0  0  0
  5 13  1  0  0  0  0
  5  1  1  0  0  0  0
  5  4  1  0  0  0  0
  8  2  1  0  0  0  0
  9  3  1  0  0  0  0
 12  5  1  0  0  0  0
 14 15  1  0  0  0  0
 15 16  2  0  0  0  0
 15 21  1  0  0  0  0
 16  1  1  0  0  0  0
 17 16  1  0  0  0  0
 18 17  2  0  0  0  0
 19 18  1  0  0  0  0
 19 14  2  0  0  0  0
 20 14  1  0  0  0  0
 22 18  1  0  0  0  0
 23 25  2  0  0  0  0
 23  4  1  0  0  0  0
 24 23  1  0  0  0  0
M  END
>  <minimizedAffinity>
-3.8778398

$$$$

 OpenBabel03252507523D

 25 26  0  0  1  0  0  0  0  0999 V2000
   37.1790   31.1340   40.7820 C   0  0  2  0  0  0  0  0  0  0  0  0
   36.9820   31.3670   39.3160 C   0  0  0  0  0  0  0  0  0  0  0  0
   37.2710   32.8730   39.2570 C   0  0  0  0  0  0  0  0  0  0  0  0
   38.3520   33.1000   40.3000 C   0  0  1  0  0  0  0  0  0  0  0  0
   38.5650   31.7590   40.9760 C   0  0  0  0  0  0  0  0  0  0  0  0
   36.4840   31.7470   41.3900 H   0  0  0  0  0  0  0  0  0  0  0  0
   35.9190   31.1610   39.0660 H   0  0  0  0  0  0  0  0  0  0  0  0
   37.7000   30.7820   38.7350 H   0  0  0  0  0  0  0  0  0  0  0  0
   37.6480   33.0470   38.2360 H   0  0  0  0  0  0  0  0  0  0  0  0
   36.3500   33.4190   39.4580 H   0  0  0  0  0  0  0  0  0  0  0  0
   38.0120   33.8680   40.9990 H   0  0  0  0  0  0  0  0  0  0  0  0
   39.3570   31.1640   40.5210 H   0  0  0  0  0  0  0  0  0  0  0  0
   38.7250   31.9860   42.0600 H   0  0  0  0  0  0  0  0  0  0  0  0
   36.7860   27.3930   40.9650 C   0  0  0  0  0  0  0  0  0  0  0  0
   36.7720   28.6800   40.3900 C   0  0  0  0  0  0  0  0  0  0  0  0
   37.1310   29.7350   41.2170 C   0  0  0  0  0  0  0  0  0  0  0  0
   37.4720   29.4620   42.5270 N   0  0  0  0  0  0  0  0  0  0  0  0
   37.4690   28.2170   43.0270 C   0  0  0  0  0  0  0  0  0  0  0  0
   37.1310   27.1820   42.2610 N   0  0  0  0  0  0  0  0  0  0  0  0
   36.5120   26.5450   40.3480 H   0  0  0  0  0  0  0  0  0  0  0  0
   36.5060   28.8710   39.3770 H   0  0  0  0  0  0  0  0  0  0  0  0
   37.7530   28.1150   44.0630 H   0  0  0  0  0  0  0  0  0  0  0  0
   39.6540   33.4370   39.6410 C   0  0  0  0  0  0  0  0  0  0  0  0
   40.2920   34.3050   39.7690 H   0  0  0  0  0  0  0  0  0  0  0  0
   40.2030   32.7080   38.8020 O   0  0  0  0  0  0  0  0  0  0  0  0
  1  5  1  0  0  0  0
  1 16  1  0  0  0  0
  1  6  1  1  0  0  0
  2  1  1  0  0  0  0
  3  2  1  0  0  0  0
  3 10  1  0  0  0  0
  3  4  1  0  0  0  0
  4  5  1  0  0  0  0
  4 11  1  1  0  0  0
  5 13  1  0  0  0  0
  7  2  1  0  0  0  0
  8  2  1  0  0  0  0
  9  3  1  0  0  0  0
 12  5  1  0  0  0  0
 14 19  1  0  0  0  0
 15 14  2  0  0  0  0
 15 16  1  0  0  0  0
 16 17  2  0  0  0  0
 17 18  1  0  0  0  0
 18 22  1  0  0  0  0
 19 18  2  0  0  0  0
 20 14  1  0  0  0  0
 21 15  1  0  0  0  0
 23 24  1  0  0  0  0
 23  4  1  0  0  0  0
 25 23  2  0  0  0  0
M  END
>  <minimizedAffinity>
-3.84310842

$$$$

 OpenBabel03252507523D

 25 26  0  0  1  0  0  0  0  0999 V2000
   36.5320   28.3610   41.8260 C   0  0  2  0  0  0  0  0  0  0  0  0
   37.6380   29.3630   41.9550 C   0  0  0  0  0  0  0  0  0  0  0  0
   38.0710   29.0790   43.4000 C   0  0  0  0  0  0  0  0  0  0  0  0
   37.8790   27.5820   43.5730 C   0  0  1  0  0  0  0  0  0  0  0  0
   37.2590   27.0910   42.2790 C   0  0  0  0  0  0  0  0  0  0  0  0
   35.7340   28.5350   42.5740 H   0  0  0  0  0  0  0  0  0  0  0  0
   37.2020   30.3810   41.8690 H   0  0  0  0  0  0  0  0  0  0  0  0
   38.4320   29.1530   41.2330 H   0  0  0  0  0  0  0  0  0  0  0  0
   39.1360   29.3590   43.4340 H   0  0  0  0  0  0  0  0  0  0  0  0
   37.4620   29.6770   44.0770 H   0  0  0  0  0  0  0  0  0  0  0  0
   37.2330   27.4060   44.4360 H   0  0  0  0  0  0  0  0  0  0  0  0
   37.9920   26.7470   41.5490 H   0  0  0  0  0  0  0  0  0  0  0  0
   36.5080   26.3150   42.5770 H   0  0  0  0  0  0  0  0  0  0  0  0
   35.6930   27.2830   38.3160 C   0  0  0  0  0  0  0  0  0  0  0  0
   36.3670   27.2860   39.5550 C   0  0  0  0  0  0  0  0  0  0  0  0
   35.9490   28.2240   40.4880 C   0  0  0  0  0  0  0  0  0  0  0  0
   34.9190   29.0800   40.1510 N   0  0  0  0  0  0  0  0  0  0  0  0
   34.3090   29.0360   38.9570 C   0  0  0  0  0  0  0  0  0  0  0  0
   34.6850   28.1480   38.0390 N   0  0  0  0  0  0  0  0  0  0  0  0
   35.9930   26.5640   37.5630 H   0  0  0  0  0  0  0  0  0  0  0  0
   37.1610   26.6190   39.7960 H   0  0  0  0  0  0  0  0  0  0  0  0
   33.5150   29.7490   38.7970 H   0  0  0  0  0  0  0  0  0  0  0  0
   39.2050   26.8920   43.6800 C   0  0  0  0  0  0  0  0  0  0  0  0
   39.5140   26.0800   44.3280 H   0  0  0  0  0  0  0  0  0  0  0  0
   40.1860   27.1910   42.9850 O   0  0  0  0  0  0  0  0  0  0  0  0
  1  2  1  0  0  0  0
  1  5  1  0  0  0  0
  1  6  1  1  0  0  0
  2  3  1  0  0  0  0
  3  9  1  0  0  0  0
  3  4  1  0  0  0  0
  3 10  1  0  0  0  0
  4 23  1  0  0  0  0
  4 11  1  1  0  0  0
  5 13  1  0  0  0  0
  5  4  1  0  0  0  0
  7  2  1  0  0  0  0
  8  2  1  0  0  0  0
 12  5  1  0  0  0  0
 14 15  1  0  0  0  0
 15 21  1  0  0  0  0
 15 16  2  0  0  0  0
 16  1  1  0  0  0  0
 17 16  1  0  0  0  0
 18 17  2  0  0  0  0
 19 14  2  0  0  0  0
 19 18  1  0  0  0  0
 20 14  1  0  0  0  0
 22 18  1  0  0  0  0
 23 24  1  0  0  0  0
 25 23  2  0  0  0  0
M  END
>  <minimizedAffinity>
-3.81579661

$$$$

 OpenBabel03252507523D

 25 26  0  0  1  0  0  0  0  0999 V2000
   37.2350   32.0960   40.3120 C   0  0  2  0  0  0  0  0  0  0  0  0
   37.2970   33.2500   39.3590 C   0  0  0  0  0  0  0  0  0  0  0  0
   38.2650   34.1610   40.1260 C   0  0  0  0  0  0  0  0  0  0  0  0
   39.2320   33.2090   40.8090 C   0  0  1  0  0  0  0  0  0  0  0  0
   38.7290   31.8130   40.4970 C   0  0  0  0  0  0  0  0  0  0  0  0
   36.8610   32.4090   41.3070 H   0  0  0  0  0  0  0  0  0  0  0  0
   36.2880   33.7110   39.2980 H   0  0  0  0  0  0  0  0  0  0  0  0
   37.7020   32.9290   38.3950 H   0  0  0  0  0  0  0  0  0  0  0  0
   38.7650   34.7590   39.3470 H   0  0  0  0  0  0  0  0  0  0  0  0
   37.6960   34.7780   40.8210 H   0  0  0  0  0  0  0  0  0  0  0  0
   39.2350   33.4200   41.8820 H   0  0  0  0  0  0  0  0  0  0  0  0
   39.1840   31.3760   39.6090 H   0  0  0  0  0  0  0  0  0  0  0  0
   38.8850   31.2170   41.4330 H   0  0  0  0  0  0  0  0  0  0  0  0
   35.0870   29.0130   40.0530 C   0  0  0  0  0  0  0  0  0  0  0  0
   35.7430   30.0990   40.6680 C   0  0  0  0  0  0  0  0  0  0  0  0
   36.4970   30.9200   39.8420 C   0  0  0  0  0  0  0  0  0  0  0  0
   36.5580   30.6260   38.4940 N   0  0  0  0  0  0  0  0  0  0  0  0
   35.9140   29.5790   37.9560 C   0  0  0  0  0  0  0  0  0  0  0  0
   35.1810   28.7710   38.7200 N   0  0  0  0  0  0  0  0  0  0  0  0
   34.4890   28.3510   40.6680 H   0  0  0  0  0  0  0  0  0  0  0  0
   35.6840   30.3100   41.7110 H   0  0  0  0  0  0  0  0  0  0  0  0
   36.0290   29.4400   36.8920 H   0  0  0  0  0  0  0  0  0  0  0  0
   40.5900   33.3040   40.1860 C   0  0  0  0  0  0  0  0  0  0  0  0
   41.3220   34.1030   40.2380 H   0  0  0  0  0  0  0  0  0  0  0  0
   41.0800   32.4130   39.4790 O   0  0  0  0  0  0  0  0  0  0  0  0
  1  5  1  0  0  0  0
  1  6  1  1  0  0  0
  2  3  1  0  0  0  0
  2  1  1  0  0  0  0
  3  4  1  0  0  0  0
  3 10  1  0  0  0  0
  4 11  1  1  0  0  0
  5  4  1  0  0  0  0
  5 13  1  0  0  0  0
  7  2  1  0  0  0  0
  8  2  1  0  0  0  0
  9  3  1  0  0  0  0
 12  5  1  0  0  0  0
 14 15  1  0  0  0  0
 14 20  1  0  0  0  0
 15 21  1  0  0  0  0
 16  1  1  0  0  0  0
 16 15  2  0  0  0  0
 17 16  1  0  0  0  0
 18 17  2  0  0  0  0
 18 19  1  0  0  0  0
 19 14  2  0  0  0  0
 22 18  1  0  0  0  0
 23 24  1  0  0  0  0
 23  4  1  0  0  0  0
 25 23  2  0  0  0  0
M  END
>  <minimizedAffinity>
-3.81003952

$$$$
