
 OpenBabel03242522043D

 29 30  0  0  1  0  0  0  0  0999 V2000
   39.8610   31.2790   40.7000 N   0  0  0  0  0  0  0  0  0  0  0  0
   40.4920   31.2260   39.3940 C   0  0  0  0  0  0  0  0  0  0  0  0
   40.8150   32.5850   38.8700 C   0  0  0  0  0  0  0  0  0  0  0  0
   39.7350   33.4970   38.9090 N   0  0  0  0  0  0  0  0  0  0  0  0
   38.8520   33.4050   40.0100 C   0  0  2  0  0  0  0  0  0  0  0  0
   39.2090   32.4820   41.1080 C   0  0  0  0  0  0  0  0  0  0  0  0
   41.3820   30.5900   39.4110 H   0  0  0  0  0  0  0  0  0  0  0  0
   39.7460   30.7640   38.6820 H   0  0  0  0  0  0  0  0  0  0  0  0
   41.1490   32.4900   37.8190 H   0  0  0  0  0  0  0  0  0  0  0  0
   41.6660   32.9810   39.4670 H   0  0  0  0  0  0  0  0  0  0  0  0
   39.2270   33.4850   37.9880 H   0  0  0  0  0  0  0  0  0  0  0  0
   38.7440   34.4290   40.4650 H   0  0  0  0  0  0  0  0  0  0  0  0
   39.8240   32.9980   41.8960 H   0  0  0  0  0  0  0  0  0  0  0  0
   38.2800   32.1800   41.6380 H   0  0  0  0  0  0  0  0  0  0  0  0
   40.9380   28.2950   42.6920 C   0  0  0  0  0  0  0  0  0  0  0  0
   41.0250   29.3850   41.8210 C   0  0  0  0  0  0  0  0  0  0  0  0
   39.8870   30.1490   41.5700 C   0  0  0  0  0  0  0  0  0  0  0  0
   38.7450   29.7780   42.1990 N   0  0  0  0  0  0  0  0  0  0  0  0
   38.6870   28.7200   43.0380 C   0  0  0  0  0  0  0  0  0  0  0  0
   39.7770   27.9800   43.2850 N   0  0  0  0  0  0  0  0  0  0  0  0
   41.8390   27.7220   42.8680 H   0  0  0  0  0  0  0  0  0  0  0  0
   41.9230   29.6790   41.3240 H   0  0  0  0  0  0  0  0  0  0  0  0
   37.3910   28.4420   43.6410 C   0  0  0  0  0  0  0  0  0  0  0  0
   36.9350   29.0340   44.4230 H   0  0  0  0  0  0  0  0  0  0  0  0
   36.7340   27.4580   43.2520 O   0  0  0  0  0  0  0  0  0  0  0  0
   37.4810   33.0190   39.4960 C   0  0  0  0  0  0  0  0  0  0  0  0
   36.7030   34.1520   39.2850 F   0  0  0  0  0  0  0  0  0  0  0  0
   36.8700   32.3320   40.5320 F   0  0  0  0  0  0  0  0  0  0  0  0
   37.5270   32.2930   38.3400 F   0  0  0  0  0  0  0  0  0  0  0  0
  1  6  1  0  0  0  0
  1 17  1  0  0  0  0
  2  7  1  0  0  0  0
  2  1  1  0  0  0  0
  3  4  1  0  0  0  0
  3  2  1  0  0  0  0
  3 10  1  0  0  0  0
  4  5  1  0  0  0  0
  5 12  1  1  0  0  0
  5  6  1  0  0  0  0
  6 14  1  0  0  0  0
  6 13  1  0  0  0  0
  8  2  1  0  0  0  0
  9  3  1  0  0  0  0
 11  4  1  0  0  0  0
 15 21  1  0  0  0  0
 15 20  1  0  0  0  0
 16 15  2  0  0  0  0
 17 16  1  0  0  0  0
 17 18  2  0  0  0  0
 18 19  1  0  0  0  0
 19 20  2  0  0  0  0
 19 23  1  0  0  0  0
 22 16  1  0  0  0  0
 23 24  1  0  0  0  0
 25 23  2  0  0  0  0
 26  5  1  0  0  0  0
 26 28  1  0  0  0  0
 27 26  1  0  0  0  0
 29 26  1  0  0  0  0
M  END
>  <minimizedAffinity>
-4.80955696

$$$$

 OpenBabel03242522043D

 29 30  0  0  1  0  0  0  0  0999 V2000
   38.1780   27.6710   41.9150 N   0  0  0  0  0  0  0  0  0  0  0  0
   38.4420   27.4100   43.3180 C   0  0  0  0  0  0  0  0  0  0  0  0
   39.4230   26.3010   43.5090 C   0  0  0  0  0  0  0  0  0  0  0  0
   39.1170   25.1230   42.7900 N   0  0  0  0  0  0  0  0  0  0  0  0
   38.5360   25.2790   41.5100 C   0  0  2  0  0  0  0  0  0  0  0  0
   38.4410   26.6470   40.9560 C   0  0  0  0  0  0  0  0  0  0  0  0
   38.7710   28.3170   43.8340 H   0  0  0  0  0  0  0  0  0  0  0  0
   37.4690   27.0770   43.7840 H   0  0  0  0  0  0  0  0  0  0  0  0
   39.4670   26.0480   44.5850 H   0  0  0  0  0  0  0  0  0  0  0  0
   40.4220   26.6810   43.2030 H   0  0  0  0  0  0  0  0  0  0  0  0
   38.5650   24.4680   43.4010 H   0  0  0  0  0  0  0  0  0  0  0  0
   39.1280   24.6680   40.7740 H   0  0  0  0  0  0  0  0  0  0  0  0
   39.3550   26.9130   40.3570 H   0  0  0  0  0  0  0  0  0  0  0  0
   37.6090   26.6770   40.2190 H   0  0  0  0  0  0  0  0  0  0  0  0
   35.9430   30.4260   40.7100 C   0  0  0  0  0  0  0  0  0  0  0  0
   36.3410   29.1460   41.1080 C   0  0  0  0  0  0  0  0  0  0  0  0
   37.6640   28.9330   41.4920 C   0  0  0  0  0  0  0  0  0  0  0  0
   38.4970   30.0020   41.4530 N   0  0  0  0  0  0  0  0  0  0  0  0
   38.0870   31.2290   41.0650 C   0  0  0  0  0  0  0  0  0  0  0  0
   36.8170   31.4440   40.6940 N   0  0  0  0  0  0  0  0  0  0  0  0
   34.9100   30.5600   40.4180 H   0  0  0  0  0  0  0  0  0  0  0  0
   35.6880   28.3030   41.1400 H   0  0  0  0  0  0  0  0  0  0  0  0
   39.0950   32.2810   41.0740 C   0  0  0  0  0  0  0  0  0  0  0  0
   40.1510   32.1220   41.2430 H   0  0  0  0  0  0  0  0  0  0  0  0
   38.7470   33.4610   40.8760 O   0  0  0  0  0  0  0  0  0  0  0  0
   37.1440   24.6840   41.5380 C   0  0  0  0  0  0  0  0  0  0  0  0
   37.1900   23.3260   41.2400 F   0  0  0  0  0  0  0  0  0  0  0  0
   36.4600   25.2750   40.4880 F   0  0  0  0  0  0  0  0  0  0  0  0
   36.5120   24.8520   42.7360 F   0  0  0  0  0  0  0  0  0  0  0  0
  1  2  1  0  0  0  0
  2  3  1  0  0  0  0
  2  8  1  0  0  0  0
  2  7  1  0  0  0  0
  3  9  1  0  0  0  0
  4 11  1  0  0  0  0
  4  3  1  0  0  0  0
  5 12  1  6  0  0  0
  5 26  1  0  0  0  0
  5  4  1  0  0  0  0
  6  5  1  0  0  0  0
  6  1  1  0  0  0  0
 10  3  1  0  0  0  0
 13  6  1  0  0  0  0
 14  6  1  0  0  0  0
 15 16  1  0  0  0  0
 16 22  1  0  0  0  0
 16 17  2  0  0  0  0
 17  1  1  0  0  0  0
 18 17  1  0  0  0  0
 19 23  1  0  0  0  0
 19 18  2  0  0  0  0
 20 15  2  0  0  0  0
 20 19  1  0  0  0  0
 21 15  1  0  0  0  0
 23 24  1  0  0  0  0
 25 23  2  0  0  0  0
 26 29  1  0  0  0  0
 27 26  1  0  0  0  0
 28 26  1  0  0  0  0
M  END
>  <minimizedAffinity>
-4.75637865

$$$$

 OpenBabel03242522043D

 29 30  0  0  1  0  0  0  0  0999 V2000
   37.5700   30.1200   40.3460 N   0  0  0  0  0  0  0  0  0  0  0  0
   38.1680   29.0410   39.5820 C   0  0  0  0  0  0  0  0  0  0  0  0
   37.2010   27.9340   39.3200 C   0  0  0  0  0  0  0  0  0  0  0  0
   36.5220   27.4690   40.4690 N   0  0  0  0  0  0  0  0  0  0  0  0
   36.1790   28.4290   41.4500 C   0  0  2  0  0  0  0  0  0  0  0  0
   36.4090   29.8550   41.1320 C   0  0  0  0  0  0  0  0  0  0  0  0
   38.6040   29.4100   38.6500 H   0  0  0  0  0  0  0  0  0  0  0  0
   39.0020   28.6100   40.2110 H   0  0  0  0  0  0  0  0  0  0  0  0
   37.7490   27.0830   38.8730 H   0  0  0  0  0  0  0  0  0  0  0  0
   36.4670   28.3020   38.5700 H   0  0  0  0  0  0  0  0  0  0  0  0
   37.0380   26.6480   40.8780 H   0  0  0  0  0  0  0  0  0  0  0  0
   35.0850   28.3190   41.6880 H   0  0  0  0  0  0  0  0  0  0  0  0
   35.5060   30.3180   40.6450 H   0  0  0  0  0  0  0  0  0  0  0  0
   36.5290   30.4180   42.0830 H   0  0  0  0  0  0  0  0  0  0  0  0
   38.0510   33.8220   40.0270 C   0  0  0  0  0  0  0  0  0  0  0  0
   37.4010   32.5840   40.0310 C   0  0  0  0  0  0  0  0  0  0  0  0
   38.1300   31.4320   40.3160 C   0  0  0  0  0  0  0  0  0  0  0  0
   39.4510   31.5880   40.5780 N   0  0  0  0  0  0  0  0  0  0  0  0
   40.0560   32.7950   40.5690 C   0  0  0  0  0  0  0  0  0  0  0  0
   39.3630   33.9090   40.2960 N   0  0  0  0  0  0  0  0  0  0  0  0
   37.4580   34.6980   39.8030 H   0  0  0  0  0  0  0  0  0  0  0  0
   36.3610   32.4580   39.8250 H   0  0  0  0  0  0  0  0  0  0  0  0
   41.4820   32.8080   40.8700 C   0  0  0  0  0  0  0  0  0  0  0  0
   42.0960   31.9250   40.9820 H   0  0  0  0  0  0  0  0  0  0  0  0
   42.0660   33.8980   41.0140 O   0  0  0  0  0  0  0  0  0  0  0  0
   36.9280   28.1030   42.7240 C   0  0  0  0  0  0  0  0  0  0  0  0
   37.9710   27.2200   42.4630 F   0  0  0  0  0  0  0  0  0  0  0  0
   36.0350   27.4030   43.5180 F   0  0  0  0  0  0  0  0  0  0  0  0
   37.4310   29.2080   43.3490 F   0  0  0  0  0  0  0  0  0  0  0  0
  1  6  1  0  0  0  0
  2  8  1  0  0  0  0
  2  1  1  0  0  0  0
  3  2  1  0  0  0  0
  3  4  1  0  0  0  0
  4 11  1  0  0  0  0
  4  5  1  0  0  0  0
  5 12  1  1  0  0  0
  5 26  1  0  0  0  0
  6  5  1  0  0  0  0
  6 14  1  0  0  0  0
  7  2  1  0  0  0  0
  9  3  1  0  0  0  0
 10  3  1  0  0  0  0
 13  6  1  0  0  0  0
 15 16  2  0  0  0  0
 15 20  1  0  0  0  0
 16 17  1  0  0  0  0
 17  1  1  0  0  0  0
 17 18  2  0  0  0  0
 19 18  1  0  0  0  0
 19 23  1  0  0  0  0
 20 19  2  0  0  0  0
 21 15  1  0  0  0  0
 22 16  1  0  0  0  0
 23 24  1  0  0  0  0
 23 25  2  0  0  0  0
 26 29  1  0  0  0  0
 26 28  1  0  0  0  0
 27 26  1  0  0  0  0
M  END
>  <minimizedAffinity>
-4.73494339

$$$$

 OpenBabel03242522043D

 29 30  0  0  1  0  0  0  0  0999 V2000
   39.1270   30.8400   40.7980 N   0  0  0  0  0  0  0  0  0  0  0  0
   39.8240   30.5240   39.5650 C   0  0  0  0  0  0  0  0  0  0  0  0
   40.4990   31.7190   38.9770 C   0  0  0  0  0  0  0  0  0  0  0  0
   39.6670   32.8540   38.8490 N   0  0  0  0  0  0  0  0  0  0  0  0
   38.7060   33.0690   39.8650 C   0  0  2  0  0  0  0  0  0  0  0  0
   38.7500   32.1930   41.0550 C   0  0  0  0  0  0  0  0  0  0  0  0
   40.5350   29.7050   39.7110 H   0  0  0  0  0  0  0  0  0  0  0  0
   39.0460   30.1830   38.8200 H   0  0  0  0  0  0  0  0  0  0  0  0
   40.8790   31.4530   37.9720 H   0  0  0  0  0  0  0  0  0  0  0  0
   41.3720   31.9620   39.6230 H   0  0  0  0  0  0  0  0  0  0  0  0
   39.2410   32.8750   37.8870 H   0  0  0  0  0  0  0  0  0  0  0  0
   38.8090   34.1270   40.2330 H   0  0  0  0  0  0  0  0  0  0  0  0
   39.4090   32.6240   41.8590 H   0  0  0  0  0  0  0  0  0  0  0  0
   37.7390   32.1620   41.5150 H   0  0  0  0  0  0  0  0  0  0  0  0
   37.3470   28.5280   43.1470 C   0  0  0  0  0  0  0  0  0  0  0  0
   37.5360   29.5550   42.2170 C   0  0  0  0  0  0  0  0  0  0  0  0
   38.8190   29.8190   41.7440 C   0  0  0  0  0  0  0  0  0  0  0  0
   39.8240   29.0460   42.2260 N   0  0  0  0  0  0  0  0  0  0  0  0
   39.6160   28.0590   43.1240 C   0  0  0  0  0  0  0  0  0  0  0  0
   38.3840   27.7980   43.5850 N   0  0  0  0  0  0  0  0  0  0  0  0
   36.3390   28.3480   43.4950 H   0  0  0  0  0  0  0  0  0  0  0  0
   36.7470   30.1650   41.8360 H   0  0  0  0  0  0  0  0  0  0  0  0
   40.7920   27.3120   43.5510 C   0  0  0  0  0  0  0  0  0  0  0  0
   40.7880   26.2720   43.8460 H   0  0  0  0  0  0  0  0  0  0  0  0
   41.8970   27.8840   43.5900 O   0  0  0  0  0  0  0  0  0  0  0  0
   37.3260   32.9630   39.2520 C   0  0  0  0  0  0  0  0  0  0  0  0
   36.5420   32.0670   39.9730 F   0  0  0  0  0  0  0  0  0  0  0  0
   37.5100   32.3820   38.0080 F   0  0  0  0  0  0  0  0  0  0  0  0
   36.6760   34.1610   39.1820 F   0  0  0  0  0  0  0  0  0  0  0  0
  1  6  1  0  0  0  0
  1 17  1  0  0  0  0
  2  7  1  0  0  0  0
  2  1  1  0  0  0  0
  3  2  1  0  0  0  0
  3 10  1  0  0  0  0
  4  3  1  0  0  0  0
  4  5  1  0  0  0  0
  5 12  1  1  0  0  0
  5  6  1  0  0  0  0
  6 14  1  0  0  0  0
  6 13  1  0  0  0  0
  8  2  1  0  0  0  0
  9  3  1  0  0  0  0
 11  4  1  0  0  0  0
 15 21  1  0  0  0  0
 15 20  1  0  0  0  0
 16 15  2  0  0  0  0
 17 16  1  0  0  0  0
 17 18  2  0  0  0  0
 18 19  1  0  0  0  0
 19 23  1  0  0  0  0
 19 20  2  0  0  0  0
 22 16  1  0  0  0  0
 23 25  2  0  0  0  0
 23 24  1  0  0  0  0
 26  5  1  0  0  0  0
 26 27  1  0  0  0  0
 28 26  1  0  0  0  0
 29 26  1  0  0  0  0
M  END
>  <minimizedAffinity>
-4.71117592

$$$$

 OpenBabel03242522043D

 29 30  0  0  1  0  0  0  0  0999 V2000
   39.1110   26.8230   42.1560 N   0  0  0  0  0  0  0  0  0  0  0  0
   39.3240   26.1530   43.4260 C   0  0  0  0  0  0  0  0  0  0  0  0
   39.7830   24.7440   43.2490 C   0  0  0  0  0  0  0  0  0  0  0  0
   38.9920   23.9800   42.3620 N   0  0  0  0  0  0  0  0  0  0  0  0
   38.4540   24.6470   41.2360 C   0  0  2  0  0  0  0  0  0  0  0  0
   38.8870   26.0380   40.9860 C   0  0  0  0  0  0  0  0  0  0  0  0
   40.0170   26.7150   44.0590 H   0  0  0  0  0  0  0  0  0  0  0  0
   38.3250   26.1120   43.9520 H   0  0  0  0  0  0  0  0  0  0  0  0
   39.7810   24.2430   44.2350 H   0  0  0  0  0  0  0  0  0  0  0  0
   40.8340   24.7780   42.8830 H   0  0  0  0  0  0  0  0  0  0  0  0
   38.2570   23.4570   42.9040 H   0  0  0  0  0  0  0  0  0  0  0  0
   38.7100   24.0530   40.3160 H   0  0  0  0  0  0  0  0  0  0  0  0
   39.7980   26.0730   40.3250 H   0  0  0  0  0  0  0  0  0  0  0  0
   38.1000   26.5570   40.3970 H   0  0  0  0  0  0  0  0  0  0  0  0
   40.1180   30.4280   42.3120 C   0  0  0  0  0  0  0  0  0  0  0  0
   40.2130   29.0390   42.4350 C   0  0  0  0  0  0  0  0  0  0  0  0
   39.1260   28.2470   42.0720 C   0  0  0  0  0  0  0  0  0  0  0  0
   38.0230   28.8890   41.6130 N   0  0  0  0  0  0  0  0  0  0  0  0
   37.9560   30.2330   41.5030 C   0  0  0  0  0  0  0  0  0  0  0  0
   38.9980   31.0030   41.8500 N   0  0  0  0  0  0  0  0  0  0  0  0
   40.9800   31.0160   42.6020 H   0  0  0  0  0  0  0  0  0  0  0  0
   41.0800   28.5310   42.7960 H   0  0  0  0  0  0  0  0  0  0  0  0
   36.7060   30.7810   40.9940 C   0  0  0  0  0  0  0  0  0  0  0  0
   36.5360   31.8250   40.7710 H   0  0  0  0  0  0  0  0  0  0  0  0
   35.7430   30.0180   40.7900 O   0  0  0  0  0  0  0  0  0  0  0  0
   36.9440   24.6360   41.3470 C   0  0  0  0  0  0  0  0  0  0  0  0
   36.4180   23.5180   40.7070 F   0  0  0  0  0  0  0  0  0  0  0  0
   36.5050   25.7270   40.6160 F   0  0  0  0  0  0  0  0  0  0  0  0
   36.5000   24.6560   42.6380 F   0  0  0  0  0  0  0  0  0  0  0  0
  1  2  1  0  0  0  0
  2  8  1  0  0  0  0
  2  7  1  0  0  0  0
  3  2  1  0  0  0  0
  3  9  1  0  0  0  0
  4 11  1  0  0  0  0
  4  3  1  0  0  0  0
  5 12  1  6  0  0  0
  5 26  1  0  0  0  0
  5  4  1  0  0  0  0
  6  5  1  0  0  0  0
  6  1  1  0  0  0  0
 10  3  1  0  0  0  0
 13  6  1  0  0  0  0
 14  6  1  0  0  0  0
 15 16  1  0  0  0  0
 15 21  1  0  0  0  0
 16 22  1  0  0  0  0
 17  1  1  0  0  0  0
 17 16  2  0  0  0  0
 18 17  1  0  0  0  0
 19 18  2  0  0  0  0
 19 20  1  0  0  0  0
 20 15  2  0  0  0  0
 23 19  1  0  0  0  0
 24 23  1  0  0  0  0
 25 23  2  0  0  0  0
 26 29  1  0  0  0  0
 27 26  1  0  0  0  0
 28 26  1  0  0  0  0
M  END
>  <minimizedAffinity>
-4.65685463

$$$$

 OpenBabel03242522043D

 29 30  0  0  1  0  0  0  0  0999 V2000
   38.4370   29.9000   40.4830 N   0  0  0  0  0  0  0  0  0  0  0  0
   38.5250   29.5220   39.0850 C   0  0  0  0  0  0  0  0  0  0  0  0
   39.4630   30.4000   38.3240 C   0  0  0  0  0  0  0  0  0  0  0  0
   39.2350   31.7840   38.4950 N   0  0  0  0  0  0  0  0  0  0  0  0
   38.8150   32.2170   39.7750 C   0  0  2  0  0  0  0  0  0  0  0  0
   38.8030   31.2240   40.8700 C   0  0  0  0  0  0  0  0  0  0  0  0
   38.7980   28.4690   38.9750 H   0  0  0  0  0  0  0  0  0  0  0  0
   37.4990   29.6660   38.6350 H   0  0  0  0  0  0  0  0  0  0  0  0
   39.3730   30.1640   37.2460 H   0  0  0  0  0  0  0  0  0  0  0  0
   40.4960   30.1450   38.6470 H   0  0  0  0  0  0  0  0  0  0  0  0
   38.6060   32.1370   37.7280 H   0  0  0  0  0  0  0  0  0  0  0  0
   39.4870   33.0580   40.1030 H   0  0  0  0  0  0  0  0  0  0  0  0
   39.7870   31.2020   41.4160 H   0  0  0  0  0  0  0  0  0  0  0  0
   38.0680   31.5490   41.6390 H   0  0  0  0  0  0  0  0  0  0  0  0
   37.3300   28.2880   43.6790 C   0  0  0  0  0  0  0  0  0  0  0  0
   37.7670   29.2850   42.8020 C   0  0  0  0  0  0  0  0  0  0  0  0
   37.9910   28.9650   41.4640 C   0  0  0  0  0  0  0  0  0  0  0  0
   37.7660   27.6800   41.0920 N   0  0  0  0  0  0  0  0  0  0  0  0
   37.3430   26.7360   41.9600 C   0  0  0  0  0  0  0  0  0  0  0  0
   37.1250   27.0350   43.2480 N   0  0  0  0  0  0  0  0  0  0  0  0
   37.1650   28.5680   44.7110 H   0  0  0  0  0  0  0  0  0  0  0  0
   37.9450   30.2970   43.0910 H   0  0  0  0  0  0  0  0  0  0  0  0
   37.1440   25.3990   41.4160 C   0  0  0  0  0  0  0  0  0  0  0  0
   36.9510   25.1790   40.3750 H   0  0  0  0  0  0  0  0  0  0  0  0
   37.1940   24.4160   42.1790 O   0  0  0  0  0  0  0  0  0  0  0  0
   37.4250   32.8020   39.6520 C   0  0  0  0  0  0  0  0  0  0  0  0
   36.5750   32.2370   40.5980 F   0  0  0  0  0  0  0  0  0  0  0  0
   36.9470   32.3840   38.4220 F   0  0  0  0  0  0  0  0  0  0  0  0
   37.3990   34.1600   39.7920 F   0  0  0  0  0  0  0  0  0  0  0  0
  1  6  1  0  0  0  0
  1 17  1  0  0  0  0
  2  1  1  0  0  0  0
  3  4  1  0  0  0  0
  3 10  1  0  0  0  0
  3  2  1  0  0  0  0
  4  5  1  0  0  0  0
  5 12  1  1  0  0  0
  5  6  1  0  0  0  0
  6 13  1  0  0  0  0
  6 14  1  0  0  0  0
  7  2  1  0  0  0  0
  8  2  1  0  0  0  0
  9  3  1  0  0  0  0
 11  4  1  0  0  0  0
 15 21  1  0  0  0  0
 16 22  1  0  0  0  0
 16 15  2  0  0  0  0
 17 16  1  0  0  0  0
 18 17  2  0  0  0  0
 18 19  1  0  0  0  0
 19 20  2  0  0  0  0
 20 15  1  0  0  0  0
 23 19  1  0  0  0  0
 23 25  2  0  0  0  0
 24 23  1  0  0  0  0
 26  5  1  0  0  0  0
 26 29  1  0  0  0  0
 26 27  1  0  0  0  0
 28 26  1  0  0  0  0
M  END
>  <minimizedAffinity>
-4.63126802

$$$$

 OpenBabel03242522043D

 29 30  0  0  1  0  0  0  0  0999 V2000
   37.2790   28.7240   41.6750 N   0  0  0  0  0  0  0  0  0  0  0  0
   37.8300   30.0180   41.3160 C   0  0  0  0  0  0  0  0  0  0  0  0
   36.7760   31.0690   41.2140 C   0  0  0  0  0  0  0  0  0  0  0  0
   35.6720   30.7120   40.4080 N   0  0  0  0  0  0  0  0  0  0  0  0
   35.2570   29.3600   40.4420 C   0  0  2  0  0  0  0  0  0  0  0  0
   35.8970   28.4660   41.4310 C   0  0  0  0  0  0  0  0  0  0  0  0
   38.6180   30.3190   42.0120 H   0  0  0  0  0  0  0  0  0  0  0  0
   38.2920   29.9110   40.2910 H   0  0  0  0  0  0  0  0  0  0  0  0
   37.2300   31.9870   40.7930 H   0  0  0  0  0  0  0  0  0  0  0  0
   36.4310   31.2990   42.2470 H   0  0  0  0  0  0  0  0  0  0  0  0
   35.8240   31.0570   39.4250 H   0  0  0  0  0  0  0  0  0  0  0  0
   34.1500   29.3330   40.6450 H   0  0  0  0  0  0  0  0  0  0  0  0
   35.3340   28.4590   42.4050 H   0  0  0  0  0  0  0  0  0  0  0  0
   35.8260   27.4190   41.0640 H   0  0  0  0  0  0  0  0  0  0  0  0
   39.8800   26.9210   43.6800 C   0  0  0  0  0  0  0  0  0  0  0  0
   39.1340   27.9840   43.1620 C   0  0  0  0  0  0  0  0  0  0  0  0
   38.1020   27.7190   42.2650 C   0  0  0  0  0  0  0  0  0  0  0  0
   37.8830   26.4200   41.9450 N   0  0  0  0  0  0  0  0  0  0  0  0
   38.6170   25.4100   42.4590 C   0  0  0  0  0  0  0  0  0  0  0  0
   39.6120   25.6560   43.3230 N   0  0  0  0  0  0  0  0  0  0  0  0
   40.6750   27.1590   44.3740 H   0  0  0  0  0  0  0  0  0  0  0  0
   39.3050   29.0080   43.4120 H   0  0  0  0  0  0  0  0  0  0  0  0
   38.2650   24.0650   42.0240 C   0  0  0  0  0  0  0  0  0  0  0  0
   37.5120   23.4430   42.4880 H   0  0  0  0  0  0  0  0  0  0  0  0
   38.8560   23.5660   41.0480 O   0  0  0  0  0  0  0  0  0  0  0  0
   35.4540   28.7610   39.0660 C   0  0  0  0  0  0  0  0  0  0  0  0
   34.2540   28.7530   38.3620 F   0  0  0  0  0  0  0  0  0  0  0  0
   35.7740   27.4300   39.2770 F   0  0  0  0  0  0  0  0  0  0  0  0
   36.3960   29.4160   38.3260 F   0  0  0  0  0  0  0  0  0  0  0  0
  1 17  1  0  0  0  0
  2  1  1  0  0  0  0
  2  7  1  0  0  0  0
  3  2  1  0  0  0  0
  3 10  1  0  0  0  0
  4  5  1  0  0  0  0
  4  3  1  0  0  0  0
  5 12  1  1  0  0  0
  5  6  1  0  0  0  0
  6  1  1  0  0  0  0
  6 13  1  0  0  0  0
  8  2  1  0  0  0  0
  9  3  1  0  0  0  0
 11  4  1  0  0  0  0
 14  6  1  0  0  0  0
 15 21  1  0  0  0  0
 16 22  1  0  0  0  0
 16 15  2  0  0  0  0
 17 16  1  0  0  0  0
 18 17  2  0  0  0  0
 18 19  1  0  0  0  0
 19 20  2  0  0  0  0
 20 15  1  0  0  0  0
 23 19  1  0  0  0  0
 23 24  1  0  0  0  0
 25 23  2  0  0  0  0
 26 28  1  0  0  0  0
 26  5  1  0  0  0  0
 27 26  1  0  0  0  0
 29 26  1  0  0  0  0
M  END
>  <minimizedAffinity>
-4.53695917

$$$$

 OpenBabel03242522043D

 29 30  0  0  1  0  0  0  0  0999 V2000
   36.9840   30.9290   39.5410 N   0  0  0  0  0  0  0  0  0  0  0  0
   36.8360   30.1130   38.3500 C   0  0  0  0  0  0  0  0  0  0  0  0
   35.5020   29.4470   38.2870 C   0  0  0  0  0  0  0  0  0  0  0  0
   35.1410   28.7530   39.4640 N   0  0  0  0  0  0  0  0  0  0  0  0
   35.5400   29.3190   40.6970 C   0  0  2  0  0  0  0  0  0  0  0  0
   36.1560   30.6630   40.6730 C   0  0  0  0  0  0  0  0  0  0  0  0
   37.0260   30.6970   37.4440 H   0  0  0  0  0  0  0  0  0  0  0  0
   37.6130   29.2950   38.4080 H   0  0  0  0  0  0  0  0  0  0  0  0
   35.5050   28.7260   37.4470 H   0  0  0  0  0  0  0  0  0  0  0  0
   34.7460   30.2320   38.0650 H   0  0  0  0  0  0  0  0  0  0  0  0
   35.4230   27.7420   39.3800 H   0  0  0  0  0  0  0  0  0  0  0  0
   34.6380   29.3850   41.3660 H   0  0  0  0  0  0  0  0  0  0  0  0
   35.3810   31.4730   40.7750 H   0  0  0  0  0  0  0  0  0  0  0  0
   36.7970   30.7790   41.5740 H   0  0  0  0  0  0  0  0  0  0  0  0
   38.7580   34.1520   40.2520 C   0  0  0  0  0  0  0  0  0  0  0  0
   37.7510   33.1820   40.2750 C   0  0  0  0  0  0  0  0  0  0  0  0
   37.9420   31.9850   39.5870 C   0  0  0  0  0  0  0  0  0  0  0  0
   39.1170   31.8360   38.9270 N   0  0  0  0  0  0  0  0  0  0  0  0
   40.0750   32.7880   38.9210 C   0  0  0  0  0  0  0  0  0  0  0  0
   39.8990   33.9420   39.5800 N   0  0  0  0  0  0  0  0  0  0  0  0
   38.5800   35.0700   40.7960 H   0  0  0  0  0  0  0  0  0  0  0  0
   36.8250   33.2970   40.7930 H   0  0  0  0  0  0  0  0  0  0  0  0
   41.2850   32.4860   38.1680 C   0  0  0  0  0  0  0  0  0  0  0  0
   42.2900   32.5710   38.5570 H   0  0  0  0  0  0  0  0  0  0  0  0
   41.1890   32.0980   36.9890 O   0  0  0  0  0  0  0  0  0  0  0  0
   36.5060   28.3700   41.3730 C   0  0  0  0  0  0  0  0  0  0  0  0
   35.9190   27.7970   42.4960 F   0  0  0  0  0  0  0  0  0  0  0  0
   37.5380   29.1600   41.8520 F   0  0  0  0  0  0  0  0  0  0  0  0
   36.9460   27.3750   40.5490 F   0  0  0  0  0  0  0  0  0  0  0  0
  1 17  1  0  0  0  0
  1  6  1  0  0  0  0
  2  8  1  0  0  0  0
  2  1  1  0  0  0  0
  3  2  1  0  0  0  0
  3  4  1  0  0  0  0
  4  5  1  0  0  0  0
  5 12  1  1  0  0  0
  5 26  1  0  0  0  0
  6  5  1  0  0  0  0
  6 13  1  0  0  0  0
  6 14  1  0  0  0  0
  7  2  1  0  0  0  0
  9  3  1  0  0  0  0
 10  3  1  0  0  0  0
 11  4  1  0  0  0  0
 15 16  1  0  0  0  0
 15 21  1  0  0  0  0
 16 22  1  0  0  0  0
 17 16  2  0  0  0  0
 18 17  1  0  0  0  0
 19 18  2  0  0  0  0
 19 20  1  0  0  0  0
 20 15  2  0  0  0  0
 23 24  1  0  0  0  0
 23 19  1  0  0  0  0
 25 23  2  0  0  0  0
 26 28  1  0  0  0  0
 26 27  1  0  0  0  0
 29 26  1  0  0  0  0
M  END
>  <minimizedAffinity>
-4.52425957

$$$$

 OpenBabel03242522043D

 29 30  0  0  1  0  0  0  0  0999 V2000
   38.1770   29.2960   41.5360 N   0  0  0  0  0  0  0  0  0  0  0  0
   36.9030   29.8650   41.9350 C   0  0  0  0  0  0  0  0  0  0  0  0
   36.3090   30.7190   40.8640 C   0  0  0  0  0  0  0  0  0  0  0  0
   37.1910   31.6890   40.3350 N   0  0  0  0  0  0  0  0  0  0  0  0
   38.5530   31.3260   40.2130 C   0  0  2  0  0  0  0  0  0  0  0  0
   38.9210   29.9220   40.4920 C   0  0  0  0  0  0  0  0  0  0  0  0
   36.2020   29.0860   42.2490 H   0  0  0  0  0  0  0  0  0  0  0  0
   37.1000   30.5360   42.8220 H   0  0  0  0  0  0  0  0  0  0  0  0
   35.4260   31.2430   41.2770 H   0  0  0  0  0  0  0  0  0  0  0  0
   35.9600   30.0440   40.0520 H   0  0  0  0  0  0  0  0  0  0  0  0
   37.0650   32.5990   40.8490 H   0  0  0  0  0  0  0  0  0  0  0  0
   38.8870   31.5510   39.1630 H   0  0  0  0  0  0  0  0  0  0  0  0
   38.8730   29.2910   39.5610 H   0  0  0  0  0  0  0  0  0  0  0  0
   39.9910   29.8860   40.7940 H   0  0  0  0  0  0  0  0  0  0  0  0
   40.1390   26.9260   43.6740 C   0  0  0  0  0  0  0  0  0  0  0  0
   39.7190   28.1340   43.1090 C   0  0  0  0  0  0  0  0  0  0  0  0
   38.6840   28.1260   42.1750 C   0  0  0  0  0  0  0  0  0  0  0  0
   38.1410   26.9220   41.8680 N   0  0  0  0  0  0  0  0  0  0  0  0
   38.5650   25.7680   42.4290 C   0  0  0  0  0  0  0  0  0  0  0  0
   39.5590   25.7670   43.3280 N   0  0  0  0  0  0  0  0  0  0  0  0
   40.9440   26.9650   44.3960 H   0  0  0  0  0  0  0  0  0  0  0  0
   40.1440   29.0830   43.3490 H   0  0  0  0  0  0  0  0  0  0  0  0
   37.8860   24.5520   42.0020 C   0  0  0  0  0  0  0  0  0  0  0  0
   38.3790   23.6860   41.5820 H   0  0  0  0  0  0  0  0  0  0  0  0
   36.6480   24.4720   42.1140 O   0  0  0  0  0  0  0  0  0  0  0  0
   39.3710   32.2180   41.1230 C   0  0  0  0  0  0  0  0  0  0  0  0
   38.7060   33.4170   41.3560 F   0  0  0  0  0  0  0  0  0  0  0  0
   40.5050   32.5530   40.4010 F   0  0  0  0  0  0  0  0  0  0  0  0
   39.6660   31.6360   42.3220 F   0  0  0  0  0  0  0  0  0  0  0  0
  1  2  1  0  0  0  0
  1 17  1  0  0  0  0
  2  7  1  0  0  0  0
  2  8  1  0  0  0  0
  3  9  1  0  0  0  0
  3  2  1  0  0  0  0
  4 11  1  0  0  0  0
  4  3  1  0  0  0  0
  5 12  1  6  0  0  0
  5  4  1  0  0  0  0
  5  6  1  0  0  0  0
  5 26  1  0  0  0  0
  6 14  1  0  0  0  0
  6  1  1  0  0  0  0
 10  3  1  0  0  0  0
 13  6  1  0  0  0  0
 15 21  1  0  0  0  0
 16 22  1  0  0  0  0
 16 15  2  0  0  0  0
 17 16  1  0  0  0  0
 18 17  2  0  0  0  0
 18 19  1  0  0  0  0
 19 20  2  0  0  0  0
 20 15  1  0  0  0  0
 23 25  2  0  0  0  0
 23 19  1  0  0  0  0
 24 23  1  0  0  0  0
 26 27  1  0  0  0  0
 26 29  1  0  0  0  0
 28 26  1  0  0  0  0
M  END
>  <minimizedAffinity>
-4.50265694

$$$$
