
 OpenBabel03252507513D

 25 26  0  0  1  0  0  0  0  0999 V2000
   46.9050   34.9330   42.0800 C   0  0  2  0  0  0  0  0  0  0  0  0
   46.2770   34.2050   40.9310 C   0  0  0  0  0  0  0  0  0  0  0  0
   47.4730   34.1660   39.9700 C   0  0  0  0  0  0  0  0  0  0  0  0
   48.6870   34.0170   40.8710 C   0  0  1  0  0  0  0  0  0  0  0  0
   48.1600   34.0790   42.2920 C   0  0  0  0  0  0  0  0  0  0  0  0
   47.2700   35.9340   41.7780 H   0  0  0  0  0  0  0  0  0  0  0  0
   45.4620   34.8370   40.5180 H   0  0  0  0  0  0  0  0  0  0  0  0
   45.9570   33.2070   41.2400 H   0  0  0  0  0  0  0  0  0  0  0  0
   47.3100   33.2650   39.3560 H   0  0  0  0  0  0  0  0  0  0  0  0
   47.4800   35.0780   39.3760 H   0  0  0  0  0  0  0  0  0  0  0  0
   49.3890   34.8250   40.6530 H   0  0  0  0  0  0  0  0  0  0  0  0
   47.9320   33.1000   42.7130 H   0  0  0  0  0  0  0  0  0  0  0  0
   48.9180   34.6640   42.8730 H   0  0  0  0  0  0  0  0  0  0  0  0
   44.4520   35.9930   44.7330 C   0  0  0  0  0  0  0  0  0  0  0  0
   45.1620   36.0460   43.5160 C   0  0  0  0  0  0  0  0  0  0  0  0
   46.0880   35.0370   43.2920 C   0  0  0  0  0  0  0  0  0  0  0  0
   46.2540   34.0640   44.2580 N   0  0  0  0  0  0  0  0  0  0  0  0
   45.5520   34.0590   45.4010 C   0  0  0  0  0  0  0  0  0  0  0  0
   44.6550   35.0110   45.6480 N   0  0  0  0  0  0  0  0  0  0  0  0
   43.7200   36.7650   44.9420 H   0  0  0  0  0  0  0  0  0  0  0  0
   45.0210   36.8050   42.7830 H   0  0  0  0  0  0  0  0  0  0  0  0
   45.7590   33.2520   46.0880 H   0  0  0  0  0  0  0  0  0  0  0  0
   49.2900   32.6550   40.7170 C   0  0  0  0  0  0  0  0  0  0  0  0
   48.8790   31.7620   40.2590 H   0  0  0  0  0  0  0  0  0  0  0  0
   50.4220   32.3600   41.1280 O   0  0  0  0  0  0  0  0  0  0  0  0
  1  6  1  6  0  0  0
  1  5  1  0  0  0  0
  1 16  1  0  0  0  0
  2  8  1  0  0  0  0
  2  1  1  0  0  0  0
  3  4  1  0  0  0  0
  3  2  1  0  0  0  0
  4 11  1  6  0  0  0
  4  5  1  0  0  0  0
  5 12  1  0  0  0  0
  5 13  1  0  0  0  0
  7  2  1  0  0  0  0
  9  3  1  0  0  0  0
 10  3  1  0  0  0  0
 14 20  1  0  0  0  0
 14 19  1  0  0  0  0
 15 14  2  0  0  0  0
 16 15  1  0  0  0  0
 16 17  2  0  0  0  0
 17 18  1  0  0  0  0
 18 19  2  0  0  0  0
 18 22  1  0  0  0  0
 21 15  1  0  0  0  0
 23  4  1  0  0  0  0
 23 25  2  0  0  0  0
 24 23  1  0  0  0  0
M  END
>  <minimizedAffinity>
-4.3320365

>  <minimizedRMSD>
1.20366192

$$$$
