
 OpenBabel03252503403D

 15 15  0  0  0  0  0  0  0  0999 V2000
   44.5740   35.5540   44.9870 C   0  0  0  0  0  0  0  0  0  0  0  0
   45.2740   35.4150   43.7900 C   0  0  0  0  0  0  0  0  0  0  0  0
   46.1820   34.3780   43.6520 C   0  0  0  0  0  0  0  0  0  0  0  0
   46.3460   33.5390   44.7060 N   0  0  0  0  0  0  0  0  0  0  0  0
   45.6580   33.6990   45.8470 C   0  0  0  0  0  0  0  0  0  0  0  0
   44.7640   34.6930   46.0270 N   0  0  0  0  0  0  0  0  0  0  0  0
   43.8490   36.3310   45.1820 H   0  0  0  0  0  0  0  0  0  0  0  0
   46.6870   34.3130   42.7270 H   0  0  0  0  0  0  0  0  0  0  0  0
   44.9470   36.4340   42.7700 C   0  0  0  0  0  0  0  0  0  0  0  0
   43.8640   36.6610   42.7710 H   0  0  0  0  0  0  0  0  0  0  0  0
   45.5750   37.3300   42.9000 H   0  0  0  0  0  0  0  0  0  0  0  0
   45.1600   35.9510   41.7760 H   0  0  0  0  0  0  0  0  0  0  0  0
   45.9200   32.7310   46.9150 C   0  0  0  0  0  0  0  0  0  0  0  0
   46.7490   32.0340   46.9160 H   0  0  0  0  0  0  0  0  0  0  0  0
   45.1410   32.6980   47.8990 O   0  0  0  0  0  0  0  0  0  0  0  0
  1  7  1  0  0  0  0
  1  6  1  0  0  0  0
  2  1  2  0  0  0  0
  3  2  1  0  0  0  0
  3  4  2  0  0  0  0
  4  5  1  0  0  0  0
  5  6  2  0  0  0  0
  5 13  1  0  0  0  0
  8  3  1  0  0  0  0
  9 10  1  0  0  0  0
  9 11  1  0  0  0  0
  9  2  1  0  0  0  0
 12  9  1  0  0  0  0
 13 14  1  0  0  0  0
 13 15  2  0  0  0  0
M  END
>  <minimizedAffinity>
-3.30062437

>  <minimizedRMSD>
0.955313861

$$$$
