
 OpenBabel03252503423D

 15 15  0  0  0  0  0  0  0  0999 V2000
   38.9700   28.9840   42.8070 C   0  0  0  0  0  0  0  0  0  0  0  0
   38.3860   27.7320   42.9790 C   0  0  0  0  0  0  0  0  0  0  0  0
   37.1050   27.5090   42.5010 C   0  0  0  0  0  0  0  0  0  0  0  0
   36.4760   28.5390   41.8800 N   0  0  0  0  0  0  0  0  0  0  0  0
   37.0640   29.7360   41.7300 C   0  0  0  0  0  0  0  0  0  0  0  0
   38.3090   29.9980   42.1790 N   0  0  0  0  0  0  0  0  0  0  0  0
   39.9620   29.2470   43.1470 H   0  0  0  0  0  0  0  0  0  0  0  0
   36.7050   26.5440   42.6540 H   0  0  0  0  0  0  0  0  0  0  0  0
   39.2420   26.7500   43.6800 C   0  0  0  0  0  0  0  0  0  0  0  0
   40.2960   26.8450   43.3590 H   0  0  0  0  0  0  0  0  0  0  0  0
   39.1140   26.8330   44.7710 H   0  0  0  0  0  0  0  0  0  0  0  0
   38.9010   25.7390   43.3240 H   0  0  0  0  0  0  0  0  0  0  0  0
   36.2860   30.7700   41.0440 C   0  0  0  0  0  0  0  0  0  0  0  0
   35.2270   30.6960   40.8300 H   0  0  0  0  0  0  0  0  0  0  0  0
   36.8740   31.8170   40.6750 O   0  0  0  0  0  0  0  0  0  0  0  0
  1  2  1  0  0  0  0
  1  7  1  0  0  0  0
  2  9  1  0  0  0  0
  3  8  1  0  0  0  0
  3  2  2  0  0  0  0
  4  3  1  0  0  0  0
  5  4  2  0  0  0  0
  5  6  1  0  0  0  0
  6  1  2  0  0  0  0
  9 11  1  0  0  0  0
 10  9  1  0  0  0  0
 12  9  1  0  0  0  0
 13  5  1  0  0  0  0
 14 13  1  0  0  0  0
 15 13  2  0  0  0  0
M  END
>  <minimizedAffinity>
-3.18801308

$$$$

 OpenBabel03252503423D

 15 15  0  0  0  0  0  0  0  0999 V2000
   36.5660   31.1510   40.7280 C   0  0  0  0  0  0  0  0  0  0  0  0
   37.6100   31.9940   40.3560 C   0  0  0  0  0  0  0  0  0  0  0  0
   38.8660   31.8040   40.9100 C   0  0  0  0  0  0  0  0  0  0  0  0
   39.0150   30.7920   41.8010 N   0  0  0  0  0  0  0  0  0  0  0  0
   37.9900   29.9960   42.1420 C   0  0  0  0  0  0  0  0  0  0  0  0
   36.7510   30.1430   41.6280 N   0  0  0  0  0  0  0  0  0  0  0  0
   35.5570   31.2250   40.3480 H   0  0  0  0  0  0  0  0  0  0  0  0
   39.6260   32.4670   40.5960 H   0  0  0  0  0  0  0  0  0  0  0  0
   37.2360   33.0310   39.3710 C   0  0  0  0  0  0  0  0  0  0  0  0
   36.5380   32.6250   38.6150 H   0  0  0  0  0  0  0  0  0  0  0  0
   36.8460   33.9280   39.8810 H   0  0  0  0  0  0  0  0  0  0  0  0
   38.1820   33.2810   38.8150 H   0  0  0  0  0  0  0  0  0  0  0  0
   38.2720   28.9380   43.1140 C   0  0  0  0  0  0  0  0  0  0  0  0
   39.2670   28.6290   43.4080 H   0  0  0  0  0  0  0  0  0  0  0  0
   37.3050   28.3410   43.6490 O   0  0  0  0  0  0  0  0  0  0  0  0
  1  6  1  0  0  0  0
  2  1  2  0  0  0  0
  2  3  1  0  0  0  0
  3  4  2  0  0  0  0
  4  5  1  0  0  0  0
  5 13  1  0  0  0  0
  6  5  2  0  0  0  0
  7  1  1  0  0  0  0
  8  3  1  0  0  0  0
  9 11  1  0  0  0  0
  9  2  1  0  0  0  0
 10  9  1  0  0  0  0
 12  9  1  0  0  0  0
 13 14  1  0  0  0  0
 13 15  2  0  0  0  0
M  END
>  <minimizedAffinity>
-3.07905102

$$$$

 OpenBabel03252503423D

 15 15  0  0  0  0  0  0  0  0999 V2000
   37.2340   26.7050   40.7190 C   0  0  0  0  0  0  0  0  0  0  0  0
   37.0780   26.2090   42.0110 C   0  0  0  0  0  0  0  0  0  0  0  0
   36.9680   27.0970   43.0690 C   0  0  0  0  0  0  0  0  0  0  0  0
   37.0220   28.4240   42.7880 N   0  0  0  0  0  0  0  0  0  0  0  0
   37.1750   28.8720   41.5320 C   0  0  0  0  0  0  0  0  0  0  0  0
   37.2840   28.0450   40.4720 N   0  0  0  0  0  0  0  0  0  0  0  0
   37.3270   26.0880   39.8370 H   0  0  0  0  0  0  0  0  0  0  0  0
   36.8500   26.6740   44.0300 H   0  0  0  0  0  0  0  0  0  0  0  0
   37.0440   24.7340   42.0990 C   0  0  0  0  0  0  0  0  0  0  0  0
   36.4780   24.3000   41.2530 H   0  0  0  0  0  0  0  0  0  0  0  0
   38.0640   24.3270   42.1900 H   0  0  0  0  0  0  0  0  0  0  0  0
   36.4470   24.4970   43.0230 H   0  0  0  0  0  0  0  0  0  0  0  0
   37.2180   30.3240   41.3520 C   0  0  0  0  0  0  0  0  0  0  0  0
   38.1270   30.9140   41.3670 H   0  0  0  0  0  0  0  0  0  0  0  0
   36.1390   30.9390   41.1670 O   0  0  0  0  0  0  0  0  0  0  0  0
  1  2  1  0  0  0  0
  2  9  1  0  0  0  0
  2  3  2  0  0  0  0
  3  8  1  0  0  0  0
  4  3  1  0  0  0  0
  5  4  2  0  0  0  0
  6  1  2  0  0  0  0
  6  5  1  0  0  0  0
  7  1  1  0  0  0  0
  9 11  1  0  0  0  0
  9 12  1  0  0  0  0
 10  9  1  0  0  0  0
 13 14  1  0  0  0  0
 13  5  1  0  0  0  0
 15 13  2  0  0  0  0
M  END
>  <minimizedAffinity>
-3.03872204

$$$$

 OpenBabel03252503423D

 15 15  0  0  0  0  0  0  0  0999 V2000
   38.6460   31.3990   41.0540 C   0  0  0  0  0  0  0  0  0  0  0  0
   37.3880   31.6080   40.4940 C   0  0  0  0  0  0  0  0  0  0  0  0
   36.3340   30.7900   40.8700 C   0  0  0  0  0  0  0  0  0  0  0  0
   36.5880   29.8130   41.7780 N   0  0  0  0  0  0  0  0  0  0  0  0
   37.8120   29.6350   42.2990 C   0  0  0  0  0  0  0  0  0  0  0  0
   38.8660   30.4070   41.9630 N   0  0  0  0  0  0  0  0  0  0  0  0
   39.5220   31.9870   40.8200 H   0  0  0  0  0  0  0  0  0  0  0  0
   35.3990   30.9860   40.4200 H   0  0  0  0  0  0  0  0  0  0  0  0
   37.3260   32.7240   39.5280 C   0  0  0  0  0  0  0  0  0  0  0  0
   37.9430   33.5770   39.8690 H   0  0  0  0  0  0  0  0  0  0  0  0
   37.5920   32.3770   38.5160 H   0  0  0  0  0  0  0  0  0  0  0  0
   36.2610   33.0870   39.5470 H   0  0  0  0  0  0  0  0  0  0  0  0
   37.9640   28.5480   43.2680 C   0  0  0  0  0  0  0  0  0  0  0  0
   38.9140   28.2090   43.6610 H   0  0  0  0  0  0  0  0  0  0  0  0
   36.9320   27.9620   43.6800 O   0  0  0  0  0  0  0  0  0  0  0  0
  1  6  1  0  0  0  0
  2  3  1  0  0  0  0
  2  1  2  0  0  0  0
  3  4  2  0  0  0  0
  4  5  1  0  0  0  0
  5 13  1  0  0  0  0
  6  5  2  0  0  0  0
  7  1  1  0  0  0  0
  8  3  1  0  0  0  0
  9 12  1  0  0  0  0
  9 10  1  0  0  0  0
  9  2  1  0  0  0  0
 11  9  1  0  0  0  0
 13 14  1  0  0  0  0
 13 15  2  0  0  0  0
M  END
>  <minimizedAffinity>
-3.03818488

$$$$

 OpenBabel03252503423D

 15 15  0  0  0  0  0  0  0  0999 V2000
   38.4930   28.8860   43.2110 C   0  0  0  0  0  0  0  0  0  0  0  0
   37.2590   28.5610   42.6520 C   0  0  0  0  0  0  0  0  0  0  0  0
   36.7610   29.3310   41.6130 C   0  0  0  0  0  0  0  0  0  0  0  0
   37.5120   30.3790   41.1890 N   0  0  0  0  0  0  0  0  0  0  0  0
   38.6970   30.6690   41.7480 C   0  0  0  0  0  0  0  0  0  0  0  0
   39.2220   29.9470   42.7600 N   0  0  0  0  0  0  0  0  0  0  0  0
   38.9570   28.3430   44.0220 H   0  0  0  0  0  0  0  0  0  0  0  0
   35.8230   29.0460   41.2210 H   0  0  0  0  0  0  0  0  0  0  0  0
   36.6050   27.3830   43.2600 C   0  0  0  0  0  0  0  0  0  0  0  0
   37.3470   26.5960   43.4940 H   0  0  0  0  0  0  0  0  0  0  0  0
   36.0020   27.6810   44.1330 H   0  0  0  0  0  0  0  0  0  0  0  0
   35.9430   26.9540   42.4580 H   0  0  0  0  0  0  0  0  0  0  0  0
   39.4170   31.8240   41.2060 C   0  0  0  0  0  0  0  0  0  0  0  0
   40.4590   31.8100   40.9110 H   0  0  0  0  0  0  0  0  0  0  0  0
   38.7970   32.9070   41.0690 O   0  0  0  0  0  0  0  0  0  0  0  0
  1  7  1  0  0  0  0
  2  1  2  0  0  0  0
  2  9  1  0  0  0  0
  3  2  1  0  0  0  0
  4  3  2  0  0  0  0
  4  5  1  0  0  0  0
  5  6  2  0  0  0  0
  6  1  1  0  0  0  0
  8  3  1  0  0  0  0
  9 10  1  0  0  0  0
  9 11  1  0  0  0  0
 12  9  1  0  0  0  0
 13  5  1  0  0  0  0
 14 13  1  0  0  0  0
 15 13  2  0  0  0  0
M  END
>  <minimizedAffinity>
-2.98416138

$$$$

 OpenBabel03252503423D

 15 15  0  0  0  0  0  0  0  0999 V2000
   38.5760   26.5080   41.7430 C   0  0  0  0  0  0  0  0  0  0  0  0
   37.3700   26.2060   42.3710 C   0  0  0  0  0  0  0  0  0  0  0  0
   36.7310   27.1830   43.1180 C   0  0  0  0  0  0  0  0  0  0  0  0
   37.3220   28.4020   43.1990 N   0  0  0  0  0  0  0  0  0  0  0  0
   38.4850   28.6630   42.5830 C   0  0  0  0  0  0  0  0  0  0  0  0
   39.1420   27.7450   41.8460 N   0  0  0  0  0  0  0  0  0  0  0  0
   39.1420   25.8110   41.1420 H   0  0  0  0  0  0  0  0  0  0  0  0
   35.8200   26.9070   43.5750 H   0  0  0  0  0  0  0  0  0  0  0  0
   36.8990   24.8220   42.1560 C   0  0  0  0  0  0  0  0  0  0  0  0
   37.0940   24.4950   41.1160 H   0  0  0  0  0  0  0  0  0  0  0  0
   37.3300   24.1420   42.9090 H   0  0  0  0  0  0  0  0  0  0  0  0
   35.7790   24.8600   42.2620 H   0  0  0  0  0  0  0  0  0  0  0  0
   39.0260   30.0150   42.7440 C   0  0  0  0  0  0  0  0  0  0  0  0
   39.4870   30.3830   43.6520 H   0  0  0  0  0  0  0  0  0  0  0  0
   38.9580   30.8080   41.7730 O   0  0  0  0  0  0  0  0  0  0  0  0
  1  6  2  0  0  0  0
  1  2  1  0  0  0  0
  2  3  2  0  0  0  0
  3  4  1  0  0  0  0
  3  8  1  0  0  0  0
  5 13  1  0  0  0  0
  5  4  2  0  0  0  0
  6  5  1  0  0  0  0
  7  1  1  0  0  0  0
  9 12  1  0  0  0  0
  9  2  1  0  0  0  0
  9 11  1  0  0  0  0
 10  9  1  0  0  0  0
 13 14  1  0  0  0  0
 15 13  2  0  0  0  0
M  END
>  <minimizedAffinity>
-2.93522286

$$$$

 OpenBabel03252503423D

 15 15  0  0  0  0  0  0  0  0999 V2000
   36.1600   28.5760   41.4160 C   0  0  0  0  0  0  0  0  0  0  0  0
   36.9880   28.2510   42.4880 C   0  0  0  0  0  0  0  0  0  0  0  0
   37.9970   29.1260   42.8560 C   0  0  0  0  0  0  0  0  0  0  0  0
   38.1300   30.2720   42.1410 N   0  0  0  0  0  0  0  0  0  0  0  0
   37.3170   30.5580   41.1110 C   0  0  0  0  0  0  0  0  0  0  0  0
   36.3220   29.7370   40.7180 N   0  0  0  0  0  0  0  0  0  0  0  0
   35.3510   27.9550   41.0610 H   0  0  0  0  0  0  0  0  0  0  0  0
   38.5980   28.8370   43.6750 H   0  0  0  0  0  0  0  0  0  0  0  0
   36.6750   26.9570   43.1310 C   0  0  0  0  0  0  0  0  0  0  0  0
   35.5810   26.8000   43.1910 H   0  0  0  0  0  0  0  0  0  0  0  0
   37.2010   26.1330   42.6230 H   0  0  0  0  0  0  0  0  0  0  0  0
   37.0320   27.0500   44.1940 H   0  0  0  0  0  0  0  0  0  0  0  0
   37.5570   31.8240   40.4150 C   0  0  0  0  0  0  0  0  0  0  0  0
   38.3290   32.5330   40.6870 H   0  0  0  0  0  0  0  0  0  0  0  0
   36.8260   32.1180   39.4370 O   0  0  0  0  0  0  0  0  0  0  0  0
  1  2  1  0  0  0  0
  2  3  2  0  0  0  0
  2  9  1  0  0  0  0
  3  8  1  0  0  0  0
  4  3  1  0  0  0  0
  5  4  2  0  0  0  0
  6  5  1  0  0  0  0
  6  1  2  0  0  0  0
  7  1  1  0  0  0  0
  9 10  1  0  0  0  0
  9 12  1  0  0  0  0
 11  9  1  0  0  0  0
 13 14  1  0  0  0  0
 13  5  1  0  0  0  0
 15 13  2  0  0  0  0
M  END
>  <minimizedAffinity>
-2.92509842

$$$$

 OpenBabel03252503423D

 15 15  0  0  0  0  0  0  0  0999 V2000
   37.2910   26.8580   41.0800 C   0  0  0  0  0  0  0  0  0  0  0  0
   36.8090   27.9680   41.7700 C   0  0  0  0  0  0  0  0  0  0  0  0
   37.3230   28.2650   43.0220 C   0  0  0  0  0  0  0  0  0  0  0  0
   38.2840   27.4450   43.5200 N   0  0  0  0  0  0  0  0  0  0  0  0
   38.7280   26.3810   42.8320 C   0  0  0  0  0  0  0  0  0  0  0  0
   38.2570   26.0550   41.6110 N   0  0  0  0  0  0  0  0  0  0  0  0
   36.9490   26.5530   40.1020 H   0  0  0  0  0  0  0  0  0  0  0  0
   36.9280   29.1160   43.5060 H   0  0  0  0  0  0  0  0  0  0  0  0
   35.7640   28.7280   41.0510 C   0  0  0  0  0  0  0  0  0  0  0  0
   35.9920   28.7870   39.9700 H   0  0  0  0  0  0  0  0  0  0  0  0
   34.7660   28.3090   41.2590 H   0  0  0  0  0  0  0  0  0  0  0  0
   35.8320   29.7820   41.4380 H   0  0  0  0  0  0  0  0  0  0  0  0
   39.7660   25.5700   43.4710 C   0  0  0  0  0  0  0  0  0  0  0  0
   40.5800   25.9750   44.0600 H   0  0  0  0  0  0  0  0  0  0  0  0
   39.7210   24.3230   43.3350 O   0  0  0  0  0  0  0  0  0  0  0  0
  1  6  2  0  0  0  0
  1  2  1  0  0  0  0
  2  3  2  0  0  0  0
  3  8  1  0  0  0  0
  3  4  1  0  0  0  0
  5 13  1  0  0  0  0
  5  4  2  0  0  0  0
  6  5  1  0  0  0  0
  7  1  1  0  0  0  0
  9 11  1  0  0  0  0
  9 12  1  0  0  0  0
  9  2  1  0  0  0  0
 10  9  1  0  0  0  0
 13 14  1  0  0  0  0
 15 13  2  0  0  0  0
M  END
>  <minimizedAffinity>
-2.91583347

$$$$

 OpenBabel03252503423D

 15 15  0  0  0  0  0  0  0  0999 V2000
   36.5430   30.4230   38.2630 C   0  0  0  0  0  0  0  0  0  0  0  0
   35.9460   29.7500   39.3250 C   0  0  0  0  0  0  0  0  0  0  0  0
   35.9960   30.3040   40.5940 C   0  0  0  0  0  0  0  0  0  0  0  0
   36.6360   31.4930   40.7380 N   0  0  0  0  0  0  0  0  0  0  0  0
   37.2030   32.1180   39.6950 C   0  0  0  0  0  0  0  0  0  0  0  0
   37.1780   31.6170   38.4430 N   0  0  0  0  0  0  0  0  0  0  0  0
   36.5530   30.0660   37.2430 H   0  0  0  0  0  0  0  0  0  0  0  0
   35.5290   29.7570   41.3680 H   0  0  0  0  0  0  0  0  0  0  0  0
   35.3030   28.4720   38.9540 C   0  0  0  0  0  0  0  0  0  0  0  0
   34.7910   28.5560   37.9770 H   0  0  0  0  0  0  0  0  0  0  0  0
   36.0310   27.6450   38.9890 H   0  0  0  0  0  0  0  0  0  0  0  0
   34.4900   28.3060   39.7150 H   0  0  0  0  0  0  0  0  0  0  0  0
   37.8650   33.3950   39.9720 C   0  0  0  0  0  0  0  0  0  0  0  0
   37.6870   34.3070   39.4170 H   0  0  0  0  0  0  0  0  0  0  0  0
   38.6940   33.4480   40.9130 O   0  0  0  0  0  0  0  0  0  0  0  0
  1  6  2  0  0  0  0
  1  2  1  0  0  0  0
  2  3  2  0  0  0  0
  3  4  1  0  0  0  0
  3  8  1  0  0  0  0
  5 13  1  0  0  0  0
  5  4  2  0  0  0  0
  6  5  1  0  0  0  0
  7  1  1  0  0  0  0
  9 11  1  0  0  0  0
  9  2  1  0  0  0  0
  9 12  1  0  0  0  0
 10  9  1  0  0  0  0
 13 15  2  0  0  0  0
 14 13  1  0  0  0  0
M  END
>  <minimizedAffinity>
-2.87345529

$$$$
