
 OpenBabel03252508553D

 37 39  0  0  1  0  0  0  0  0999 V2000
   38.1000   27.9750   40.0870 C   0  0  0  0  0  0  0  0  0  0  0  0
   37.3830   26.9380   40.0060 O   0  0  0  0  0  0  0  0  0  0  0  0
   38.2480   28.0570   41.5160 N   0  0  0  0  0  0  0  0  0  0  0  0
   38.8780   26.9160   42.1350 C   0  0  0  0  0  0  0  0  0  0  0  0
   37.7270   26.0910   42.7220 C   0  0  0  0  0  0  0  0  0  0  0  0
   36.6860   27.0920   43.2120 C   0  0  0  0  0  0  0  0  0  0  0  0
   37.3350   28.3950   43.6670 C   0  0  0  0  0  0  0  0  0  0  0  0
   37.8470   29.1400   42.4280 C   0  0  1  0  0  0  0  0  0  0  0  0
   39.4980   26.3330   41.4560 H   0  0  0  0  0  0  0  0  0  0  0  0
   39.4950   27.2600   43.0070 H   0  0  0  0  0  0  0  0  0  0  0  0
   37.3080   25.3890   41.9990 H   0  0  0  0  0  0  0  0  0  0  0  0
   38.1160   25.5890   43.6400 H   0  0  0  0  0  0  0  0  0  0  0  0
   35.9980   27.3210   42.3870 H   0  0  0  0  0  0  0  0  0  0  0  0
   36.1840   26.6710   44.1180 H   0  0  0  0  0  0  0  0  0  0  0  0
   36.4990   28.9850   44.1100 H   0  0  0  0  0  0  0  0  0  0  0  0
   38.1210   28.2460   44.4120 H   0  0  0  0  0  0  0  0  0  0  0  0
   36.9760   29.6430   41.9640 H   0  0  0  0  0  0  0  0  0  0  0  0
   38.9630   30.0450   42.7410 C   0  0  0  0  0  0  0  0  0  0  0  0
   39.4300   29.9380   43.7320 H   0  0  0  0  0  0  0  0  0  0  0  0
   39.3180   30.8710   41.8900 O   0  0  0  0  0  0  0  0  0  0  0  0
   38.5620   28.7470   39.0570 O   0  0  0  0  0  0  0  0  0  0  0  0
   37.9710   28.9310   37.8250 C   0  0  0  0  0  0  0  0  0  0  0  0
   37.2710   30.1170   37.6230 C   0  0  0  0  0  0  0  0  0  0  0  0
   36.6740   30.2790   36.3520 C   0  0  0  0  0  0  0  0  0  0  0  0
   36.8210   29.2880   35.4310 N   0  0  0  0  0  0  0  0  0  0  0  0
   37.5070   28.1740   35.6900 C   0  0  0  0  0  0  0  0  0  0  0  0
   38.0850   27.9890   36.8860 N   0  0  0  0  0  0  0  0  0  0  0  0
   36.1240   31.1900   36.1650 H   0  0  0  0  0  0  0  0  0  0  0  0
   37.5920   27.4160   34.9180 H   0  0  0  0  0  0  0  0  0  0  0  0
   37.1760   31.1020   38.6670 C   0  0  0  0  0  0  0  0  0  0  0  0
   37.8810   32.3000   38.6500 C   0  0  0  0  0  0  0  0  0  0  0  0
   37.5020   32.9280   39.8160 C   0  0  0  0  0  0  0  0  0  0  0  0
   36.6240   32.1620   40.4990 N   0  0  0  0  0  0  0  0  0  0  0  0
   36.4540   31.0830   39.7840 N   0  0  0  0  0  0  0  0  0  0  0  0
   38.5610   32.6780   37.9250 H   0  0  0  0  0  0  0  0  0  0  0  0
   37.8310   33.8970   40.1810 H   0  0  0  0  0  0  0  0  0  0  0  0
   36.1640   32.3780   41.4170 H   0  0  0  0  0  0  0  0  0  0  0  0
  1  3  1  0  0  0  0
  2  1  2  0  0  0  0
  3  4  1  0  0  0  0
  3  8  1  0  0  0  0
  4  5  1  0  0  0  0
  4 10  1  0  0  0  0
  5  6  1  0  0  0  0
  5 12  1  0  0  0  0
  6  7  1  0  0  0  0
  6 14  1  0  0  0  0
  7 15  1  0  0  0  0
  7 16  1  0  0  0  0
  8 17  1  6  0  0  0
  8 18  1  0  0  0  0
  8  7  1  0  0  0  0
  9  4  1  0  0  0  0
 11  5  1  0  0  0  0
 13  6  1  0  0  0  0
 18 19  1  0  0  0  0
 20 18  2  0  0  0  0
 21  1  1  0  0  0  0
 22 21  1  0  0  0  0
 23 22  1  0  0  0  0
 23 30  1  0  0  0  0
 24 23  2  0  0  0  0
 25 26  2  0  0  0  0
 25 24  1  0  0  0  0
 26 27  1  0  0  0  0
 27 22  2  0  0  0  0
 28 24  1  0  0  0  0
 29 26  1  0  0  0  0
 30 34  2  0  0  0  0
 31 30  1  0  0  0  0
 31 32  2  0  0  0  0
 32 36  1  0  0  0  0
 32 33  1  0  0  0  0
 33 37  1  0  0  0  0
 34 33  1  0  0  0  0
 35 31  1  0  0  0  0
M  END
>  <minimizedAffinity>
-5.36486244

$$$$

 OpenBabel03252508553D

 37 39  0  0  1  0  0  0  0  0999 V2000
   36.3160   29.6170   40.6030 C   0  0  0  0  0  0  0  0  0  0  0  0
   35.3190   28.8570   40.7600 O   0  0  0  0  0  0  0  0  0  0  0  0
   37.2630   28.9570   41.4630 N   0  0  0  0  0  0  0  0  0  0  0  0
   37.5640   27.5900   41.1120 C   0  0  0  0  0  0  0  0  0  0  0  0
   36.7300   26.7360   42.0730 C   0  0  0  0  0  0  0  0  0  0  0  0
   36.7050   27.4830   43.4020 C   0  0  0  0  0  0  0  0  0  0  0  0
   37.9810   28.2930   43.6110 C   0  0  0  0  0  0  0  0  0  0  0  0
   37.9620   29.4840   42.6450 C   0  0  1  0  0  0  0  0  0  0  0  0
   37.3650   27.3500   40.0690 H   0  0  0  0  0  0  0  0  0  0  0  0
   38.6390   27.3740   41.3500 H   0  0  0  0  0  0  0  0  0  0  0  0
   35.7240   26.5460   41.6930 H   0  0  0  0  0  0  0  0  0  0  0  0
   37.3060   25.7990   42.2650 H   0  0  0  0  0  0  0  0  0  0  0  0
   35.8540   28.1760   43.4040 H   0  0  0  0  0  0  0  0  0  0  0  0
   36.6820   26.7340   44.2320 H   0  0  0  0  0  0  0  0  0  0  0  0
   37.8970   28.6840   44.6520 H   0  0  0  0  0  0  0  0  0  0  0  0
   38.8900   27.6950   43.5110 H   0  0  0  0  0  0  0  0  0  0  0  0
   37.3040   30.2560   43.0890 H   0  0  0  0  0  0  0  0  0  0  0  0
   39.3150   29.9640   42.3230 C   0  0  0  0  0  0  0  0  0  0  0  0
   39.8960   29.3710   41.6010 H   0  0  0  0  0  0  0  0  0  0  0  0
   39.7290   30.9940   42.8710 O   0  0  0  0  0  0  0  0  0  0  0  0
   36.3930   30.7330   39.8160 O   0  0  0  0  0  0  0  0  0  0  0  0
   37.4560   31.6040   39.7100 C   0  0  0  0  0  0  0  0  0  0  0  0
   38.3400   31.4080   38.6510 C   0  0  0  0  0  0  0  0  0  0  0  0
   39.4210   32.3150   38.5670 C   0  0  0  0  0  0  0  0  0  0  0  0
   39.5230   33.2970   39.5040 N   0  0  0  0  0  0  0  0  0  0  0  0
   38.6390   33.4290   40.4940 C   0  0  0  0  0  0  0  0  0  0  0  0
   37.6030   32.5860   40.6030 N   0  0  0  0  0  0  0  0  0  0  0  0
   40.1240   32.1880   37.7570 H   0  0  0  0  0  0  0  0  0  0  0  0
   38.7710   34.2300   41.2130 H   0  0  0  0  0  0  0  0  0  0  0  0
   38.1380   30.3350   37.7150 C   0  0  0  0  0  0  0  0  0  0  0  0
   38.7890   29.1100   37.8090 C   0  0  0  0  0  0  0  0  0  0  0  0
   38.3120   28.3940   36.7330 C   0  0  0  0  0  0  0  0  0  0  0  0
   37.4290   29.1360   36.0290 N   0  0  0  0  0  0  0  0  0  0  0  0
   37.3510   30.2840   36.6440 N   0  0  0  0  0  0  0  0  0  0  0  0
   39.4940   28.7690   38.5270 H   0  0  0  0  0  0  0  0  0  0  0  0
   38.5740   27.3800   36.4460 H   0  0  0  0  0  0  0  0  0  0  0  0
   36.9040   28.8570   35.1640 H   0  0  0  0  0  0  0  0  0  0  0  0
  1  2  2  0  0  0  0
  1  3  1  0  0  0  0
  3  8  1  0  0  0  0
  4 10  1  0  0  0  0
  4  3  1  0  0  0  0
  4  5  1  0  0  0  0
  5 12  1  0  0  0  0
  5  6  1  0  0  0  0
  6 13  1  0  0  0  0
  6  7  1  0  0  0  0
  6 14  1  0  0  0  0
  7 15  1  0  0  0  0
  8 17  1  1  0  0  0
  8  7  1  0  0  0  0
  9  4  1  0  0  0  0
 11  5  1  0  0  0  0
 16  7  1  0  0  0  0
 18  8  1  0  0  0  0
 18 20  2  0  0  0  0
 19 18  1  0  0  0  0
 21  1  1  0  0  0  0
 22 21  1  0  0  0  0
 22 27  1  0  0  0  0
 23 22  2  0  0  0  0
 24 23  1  0  0  0  0
 24 25  2  0  0  0  0
 25 26  1  0  0  0  0
 26 27  2  0  0  0  0
 26 29  1  0  0  0  0
 28 24  1  0  0  0  0
 30 31  1  0  0  0  0
 30 23  1  0  0  0  0
 31 35  1  0  0  0  0
 32 31  2  0  0  0  0
 33 34  1  0  0  0  0
 33 32  1  0  0  0  0
 34 30  2  0  0  0  0
 36 32  1  0  0  0  0
 37 33  1  0  0  0  0
M  END
>  <minimizedAffinity>
-5.35054827

$$$$

 OpenBabel03252508553D

 37 39  0  0  1  0  0  0  0  0999 V2000
   38.8590   29.4880   42.4210 C   0  0  0  0  0  0  0  0  0  0  0  0
   39.5760   28.4880   42.7060 O   0  0  0  0  0  0  0  0  0  0  0  0
   37.6610   28.8150   41.9930 N   0  0  0  0  0  0  0  0  0  0  0  0
   37.0420   27.9720   42.9870 C   0  0  0  0  0  0  0  0  0  0  0  0
   37.4700   26.5450   42.6260 C   0  0  0  0  0  0  0  0  0  0  0  0
   37.5250   26.4840   41.1040 C   0  0  0  0  0  0  0  0  0  0  0  0
   36.5070   27.4290   40.4700 C   0  0  0  0  0  0  0  0  0  0  0  0
   36.9840   28.8700   40.6880 C   0  0  1  0  0  0  0  0  0  0  0  0
   37.3020   28.2340   44.0110 H   0  0  0  0  0  0  0  0  0  0  0  0
   35.9270   28.0070   42.8620 H   0  0  0  0  0  0  0  0  0  0  0  0
   38.4250   26.2710   43.0800 H   0  0  0  0  0  0  0  0  0  0  0  0
   36.6370   25.8660   42.9250 H   0  0  0  0  0  0  0  0  0  0  0  0
   38.5270   26.7860   40.7720 H   0  0  0  0  0  0  0  0  0  0  0  0
   37.2290   25.4570   40.7760 H   0  0  0  0  0  0  0  0  0  0  0  0
   36.5580   27.2030   39.3790 H   0  0  0  0  0  0  0  0  0  0  0  0
   35.4900   27.2720   40.8360 H   0  0  0  0  0  0  0  0  0  0  0  0
   37.7660   29.0750   39.9310 H   0  0  0  0  0  0  0  0  0  0  0  0
   35.8740   29.8340   40.6770 C   0  0  0  0  0  0  0  0  0  0  0  0
   34.9860   29.5650   40.0850 H   0  0  0  0  0  0  0  0  0  0  0  0
   35.9890   30.8840   41.3230 O   0  0  0  0  0  0  0  0  0  0  0  0
   39.2010   30.8090   42.5210 O   0  0  0  0  0  0  0  0  0  0  0  0
   40.3940   31.3900   42.1490 C   0  0  0  0  0  0  0  0  0  0  0  0
   40.3640   32.2880   41.0850 C   0  0  0  0  0  0  0  0  0  0  0  0
   41.6010   32.8680   40.7240 C   0  0  0  0  0  0  0  0  0  0  0  0
   42.7140   32.5180   41.4240 N   0  0  0  0  0  0  0  0  0  0  0  0
   42.6740   31.6490   42.4350 C   0  0  0  0  0  0  0  0  0  0  0  0
   41.5160   31.0800   42.8030 N   0  0  0  0  0  0  0  0  0  0  0  0
   41.6100   33.5690   39.9020 H   0  0  0  0  0  0  0  0  0  0  0  0
   43.5930   31.4060   42.9570 H   0  0  0  0  0  0  0  0  0  0  0  0
   39.1280   32.5890   40.4120 C   0  0  0  0  0  0  0  0  0  0  0  0
   38.7390   31.9770   39.2260 C   0  0  0  0  0  0  0  0  0  0  0  0
   37.5190   32.5470   38.9400 C   0  0  0  0  0  0  0  0  0  0  0  0
   37.1860   33.4480   39.8900 N   0  0  0  0  0  0  0  0  0  0  0  0
   38.1680   33.4450   40.7490 N   0  0  0  0  0  0  0  0  0  0  0  0
   39.2390   31.2380   38.6470 H   0  0  0  0  0  0  0  0  0  0  0  0
   36.8760   32.3400   38.0890 H   0  0  0  0  0  0  0  0  0  0  0  0
   36.3190   34.0370   39.9390 H   0  0  0  0  0  0  0  0  0  0  0  0
  1 21  1  0  0  0  0
  1  2  2  0  0  0  0
  3  1  1  0  0  0  0
  3  4  1  0  0  0  0
  4  9  1  0  0  0  0
  5 12  1  0  0  0  0
  5  4  1  0  0  0  0
  5 11  1  0  0  0  0
  6  5  1  0  0  0  0
  7  8  1  0  0  0  0
  7 16  1  0  0  0  0
  7  6  1  0  0  0  0
  8 17  1  6  0  0  0
  8  3  1  0  0  0  0
 10  4  1  0  0  0  0
 13  6  1  0  0  0  0
 14  6  1  0  0  0  0
 15  7  1  0  0  0  0
 18  8  1  0  0  0  0
 18 20  2  0  0  0  0
 19 18  1  0  0  0  0
 22 21  1  0  0  0  0
 22 27  1  0  0  0  0
 23 22  2  0  0  0  0
 24 23  1  0  0  0  0
 24 25  2  0  0  0  0
 25 26  1  0  0  0  0
 26 27  2  0  0  0  0
 26 29  1  0  0  0  0
 28 24  1  0  0  0  0
 30 34  2  0  0  0  0
 30 23  1  0  0  0  0
 31 30  1  0  0  0  0
 32 31  2  0  0  0  0
 32 33  1  0  0  0  0
 33 37  1  0  0  0  0
 33 34  1  0  0  0  0
 35 31  1  0  0  0  0
 36 32  1  0  0  0  0
M  END
>  <minimizedAffinity>
-5.30194044

$$$$

 OpenBabel03252508553D

 37 39  0  0  1  0  0  0  0  0999 V2000
   37.1750   28.5210   40.0310 C   0  0  0  0  0  0  0  0  0  0  0  0
   36.1950   27.7270   40.1060 O   0  0  0  0  0  0  0  0  0  0  0  0
   37.7680   28.2980   41.3240 N   0  0  0  0  0  0  0  0  0  0  0  0
   38.1890   26.9410   41.5810 C   0  0  0  0  0  0  0  0  0  0  0  0
   37.0810   26.3350   42.4490 C   0  0  0  0  0  0  0  0  0  0  0  0
   36.5830   27.4540   43.3560 C   0  0  0  0  0  0  0  0  0  0  0  0
   37.6950   28.4480   43.6780 C   0  0  0  0  0  0  0  0  0  0  0  0
   38.0020   29.2580   42.4130 C   0  0  1  0  0  0  0  0  0  0  0  0
   38.3720   26.3580   40.6790 H   0  0  0  0  0  0  0  0  0  0  0  0
   39.1140   26.9530   42.2150 H   0  0  0  0  0  0  0  0  0  0  0  0
   36.2740   25.9050   41.8520 H   0  0  0  0  0  0  0  0  0  0  0  0
   37.5640   25.5910   43.1270 H   0  0  0  0  0  0  0  0  0  0  0  0
   35.7780   27.9960   42.8430 H   0  0  0  0  0  0  0  0  0  0  0  0
   36.2790   27.0120   44.3370 H   0  0  0  0  0  0  0  0  0  0  0  0
   37.2470   29.1350   44.4340 H   0  0  0  0  0  0  0  0  0  0  0  0
   38.5890   27.9730   44.0900 H   0  0  0  0  0  0  0  0  0  0  0  0
   37.2220   30.0390   42.3250 H   0  0  0  0  0  0  0  0  0  0  0  0
   39.3760   29.7830   42.4050 C   0  0  0  0  0  0  0  0  0  0  0  0
   40.1500   29.1500   41.9440 H   0  0  0  0  0  0  0  0  0  0  0  0
   39.5940   30.8930   42.9090 O   0  0  0  0  0  0  0  0  0  0  0  0
   37.5100   29.3300   38.9800 O   0  0  0  0  0  0  0  0  0  0  0  0
   38.7540   29.4720   38.4030 C   0  0  0  0  0  0  0  0  0  0  0  0
   39.2880   30.7570   38.3450 C   0  0  0  0  0  0  0  0  0  0  0  0
   40.5640   30.8730   37.7480 C   0  0  0  0  0  0  0  0  0  0  0  0
   41.1720   29.7480   37.2810 N   0  0  0  0  0  0  0  0  0  0  0  0
   40.6030   28.5450   37.3690 C   0  0  0  0  0  0  0  0  0  0  0  0
   39.3930   28.4000   37.9290 N   0  0  0  0  0  0  0  0  0  0  0  0
   41.0060   31.8580   37.6880 H   0  0  0  0  0  0  0  0  0  0  0  0
   41.1330   27.6830   36.9800 H   0  0  0  0  0  0  0  0  0  0  0  0
   38.5590   31.8810   38.8700 C   0  0  0  0  0  0  0  0  0  0  0  0
   39.0100   32.6480   39.9370 C   0  0  0  0  0  0  0  0  0  0  0  0
   38.0260   33.5980   40.1050 C   0  0  0  0  0  0  0  0  0  0  0  0
   37.0410   33.4190   39.1980 N   0  0  0  0  0  0  0  0  0  0  0  0
   37.3940   32.3880   38.4800 N   0  0  0  0  0  0  0  0  0  0  0  0
   39.8980   32.5550   40.5140 H   0  0  0  0  0  0  0  0  0  0  0  0
   37.9960   34.3950   40.8420 H   0  0  0  0  0  0  0  0  0  0  0  0
   36.1660   33.9870   39.0830 H   0  0  0  0  0  0  0  0  0  0  0  0
  1  2  2  0  0  0  0
  1  3  1  0  0  0  0
  3  4  1  0  0  0  0
  3  8  1  0  0  0  0
  4 10  1  0  0  0  0
  4  5  1  0  0  0  0
  5 12  1  0  0  0  0
  5  6  1  0  0  0  0
  6  7  1  0  0  0  0
  6 14  1  0  0  0  0
  7 16  1  0  0  0  0
  7 15  1  0  0  0  0
  8 17  1  6  0  0  0
  8  7  1  0  0  0  0
  9  4  1  0  0  0  0
 11  5  1  0  0  0  0
 13  6  1  0  0  0  0
 18  8  1  0  0  0  0
 18 20  2  0  0  0  0
 19 18  1  0  0  0  0
 21  1  1  0  0  0  0
 22 21  1  0  0  0  0
 23 22  1  0  0  0  0
 23 30  1  0  0  0  0
 24 23  2  0  0  0  0
 25 26  2  0  0  0  0
 25 24  1  0  0  0  0
 26 27  1  0  0  0  0
 27 22  2  0  0  0  0
 28 24  1  0  0  0  0
 29 26  1  0  0  0  0
 30 31  1  0  0  0  0
 31 32  2  0  0  0  0
 31 35  1  0  0  0  0
 32 36  1  0  0  0  0
 33 32  1  0  0  0  0
 34 30  2  0  0  0  0
 34 33  1  0  0  0  0
 37 33  1  0  0  0  0
M  END
>  <minimizedAffinity>
-5.23698807

$$$$

 OpenBabel03252508553D

 37 39  0  0  1  0  0  0  0  0999 V2000
   36.1900   27.7590   39.3790 C   0  0  0  0  0  0  0  0  0  0  0  0
   35.9660   26.6330   38.8520 O   0  0  0  0  0  0  0  0  0  0  0  0
   37.0210   27.3500   40.4810 N   0  0  0  0  0  0  0  0  0  0  0  0
   38.2410   26.6730   40.1120 C   0  0  0  0  0  0  0  0  0  0  0  0
   37.9520   25.1820   40.3220 C   0  0  0  0  0  0  0  0  0  0  0  0
   37.0430   25.0880   41.5420 C   0  0  0  0  0  0  0  0  0  0  0  0
   37.3160   26.2170   42.5310 C   0  0  0  0  0  0  0  0  0  0  0  0
   36.7980   27.5270   41.9240 C   0  0  1  0  0  0  0  0  0  0  0  0
   38.5760   26.8900   39.0980 H   0  0  0  0  0  0  0  0  0  0  0  0
   39.0500   26.9430   40.8410 H   0  0  0  0  0  0  0  0  0  0  0  0
   37.5030   24.7190   39.4410 H   0  0  0  0  0  0  0  0  0  0  0  0
   38.9130   24.7010   40.6240 H   0  0  0  0  0  0  0  0  0  0  0  0
   35.9990   25.1640   41.2130 H   0  0  0  0  0  0  0  0  0  0  0  0
   37.2780   24.1420   42.0900 H   0  0  0  0  0  0  0  0  0  0  0  0
   36.6880   25.9690   43.4190 H   0  0  0  0  0  0  0  0  0  0  0  0
   38.3660   26.2860   42.8250 H   0  0  0  0  0  0  0  0  0  0  0  0
   35.7020   27.5500   42.0790 H   0  0  0  0  0  0  0  0  0  0  0  0
   37.5010   28.7050   42.4550 C   0  0  0  0  0  0  0  0  0  0  0  0
   37.9890   29.3660   41.7230 H   0  0  0  0  0  0  0  0  0  0  0  0
   37.5100   28.8930   43.6780 O   0  0  0  0  0  0  0  0  0  0  0  0
   35.7340   28.9780   38.9590 O   0  0  0  0  0  0  0  0  0  0  0  0
   36.4030   30.1820   39.0190 C   0  0  0  0  0  0  0  0  0  0  0  0
   37.1290   30.5680   37.8950 C   0  0  0  0  0  0  0  0  0  0  0  0
   37.8050   31.8050   37.9850 C   0  0  0  0  0  0  0  0  0  0  0  0
   37.7040   32.5220   39.1370 N   0  0  0  0  0  0  0  0  0  0  0  0
   36.9900   32.0940   40.1790 C   0  0  0  0  0  0  0  0  0  0  0  0
   36.3360   30.9240   40.1270 N   0  0  0  0  0  0  0  0  0  0  0  0
   38.3770   32.1320   37.1280 H   0  0  0  0  0  0  0  0  0  0  0  0
   36.9450   32.7070   41.0740 H   0  0  0  0  0  0  0  0  0  0  0  0
   37.1690   29.7320   36.7240 C   0  0  0  0  0  0  0  0  0  0  0  0
   36.2840   29.8670   35.6620 C   0  0  0  0  0  0  0  0  0  0  0  0
   36.6730   28.8870   34.7750 C   0  0  0  0  0  0  0  0  0  0  0  0
   37.7280   28.2000   35.2670 N   0  0  0  0  0  0  0  0  0  0  0  0
   37.9940   28.7320   36.4280 N   0  0  0  0  0  0  0  0  0  0  0  0
   35.4830   30.5520   35.5280 H   0  0  0  0  0  0  0  0  0  0  0  0
   36.2330   28.6570   33.8090 H   0  0  0  0  0  0  0  0  0  0  0  0
   38.2370   27.4010   34.8170 H   0  0  0  0  0  0  0  0  0  0  0  0
  1  3  1  0  0  0  0
  2  1  2  0  0  0  0
  3  8  1  0  0  0  0
  4  5  1  0  0  0  0
  4  3  1  0  0  0  0
  4 10  1  0  0  0  0
  5 12  1  0  0  0  0
  5  6  1  0  0  0  0
  6 14  1  0  0  0  0
  6  7  1  0  0  0  0
  7 16  1  0  0  0  0
  7 15  1  0  0  0  0
  8 17  1  1  0  0  0
  8 18  1  0  0  0  0
  8  7  1  0  0  0  0
  9  4  1  0  0  0  0
 11  5  1  0  0  0  0
 13  6  1  0  0  0  0
 18 20  2  0  0  0  0
 19 18  1  0  0  0  0
 21 22  1  0  0  0  0
 21  1  1  0  0  0  0
 22 27  1  0  0  0  0
 23 24  1  0  0  0  0
 23 22  2  0  0  0  0
 24 25  2  0  0  0  0
 25 26  1  0  0  0  0
 26 29  1  0  0  0  0
 27 26  2  0  0  0  0
 28 24  1  0  0  0  0
 30 23  1  0  0  0  0
 31 30  1  0  0  0  0
 32 33  1  0  0  0  0
 32 31  2  0  0  0  0
 33 34  1  0  0  0  0
 34 30  2  0  0  0  0
 35 31  1  0  0  0  0
 36 32  1  0  0  0  0
 37 33  1  0  0  0  0
M  END
>  <minimizedAffinity>
-5.20989656

$$$$

 OpenBabel03252508553D

 37 39  0  0  1  0  0  0  0  0999 V2000
   39.2540   29.9520   39.0670 C   0  0  0  0  0  0  0  0  0  0  0  0
   40.4750   29.7740   38.7960 O   0  0  0  0  0  0  0  0  0  0  0  0
   39.1880   31.3860   38.9560 N   0  0  0  0  0  0  0  0  0  0  0  0
   39.5380   31.9190   37.6610 C   0  0  0  0  0  0  0  0  0  0  0  0
   40.9800   32.4160   37.8080 C   0  0  0  0  0  0  0  0  0  0  0  0
   41.1030   32.9690   39.2230 C   0  0  0  0  0  0  0  0  0  0  0  0
   39.7770   33.5420   39.7160 C   0  0  0  0  0  0  0  0  0  0  0  0
   38.8130   32.3770   39.9760 C   0  0  1  0  0  0  0  0  0  0  0  0
   39.4290   31.2040   36.8470 H   0  0  0  0  0  0  0  0  0  0  0  0
   38.9120   32.8260   37.4510 H   0  0  0  0  0  0  0  0  0  0  0  0
   41.7120   31.6300   37.6130 H   0  0  0  0  0  0  0  0  0  0  0  0
   41.0950   33.2950   37.1300 H   0  0  0  0  0  0  0  0  0  0  0  0
   41.3970   32.1550   39.8990 H   0  0  0  0  0  0  0  0  0  0  0  0
   41.8170   33.8280   39.2110 H   0  0  0  0  0  0  0  0  0  0  0  0
   40.0240   34.0180   40.6940 H   0  0  0  0  0  0  0  0  0  0  0  0
   39.3510   34.2840   39.0370 H   0  0  0  0  0  0  0  0  0  0  0  0
   39.0820   31.9420   40.9590 H   0  0  0  0  0  0  0  0  0  0  0  0
   37.4040   32.7830   39.8670 C   0  0  0  0  0  0  0  0  0  0  0  0
   36.6460   32.0250   40.1180 H   0  0  0  0  0  0  0  0  0  0  0  0
   37.1410   33.9360   39.5040 O   0  0  0  0  0  0  0  0  0  0  0  0
   38.3220   28.9970   39.3690 O   0  0  0  0  0  0  0  0  0  0  0  0
   36.9720   29.0380   39.0980 C   0  0  0  0  0  0  0  0  0  0  0  0
   36.0990   28.9600   40.1810 C   0  0  0  0  0  0  0  0  0  0  0  0
   34.7200   29.0040   39.8740 C   0  0  0  0  0  0  0  0  0  0  0  0
   34.3450   29.1170   38.5710 N   0  0  0  0  0  0  0  0  0  0  0  0
   35.2340   29.1870   37.5790 C   0  0  0  0  0  0  0  0  0  0  0  0
   36.5500   29.1480   37.8360 N   0  0  0  0  0  0  0  0  0  0  0  0
   34.0180   28.9460   40.6930 H   0  0  0  0  0  0  0  0  0  0  0  0
   34.8790   29.2760   36.5580 H   0  0  0  0  0  0  0  0  0  0  0  0
   36.6030   28.8420   41.5230 C   0  0  0  0  0  0  0  0  0  0  0  0
   36.5780   27.6540   42.2440 C   0  0  0  0  0  0  0  0  0  0  0  0
   37.1470   27.9840   43.4540 C   0  0  0  0  0  0  0  0  0  0  0  0
   37.4960   29.2900   43.4690 N   0  0  0  0  0  0  0  0  0  0  0  0
   37.1570   29.7670   42.3020 N   0  0  0  0  0  0  0  0  0  0  0  0
   36.2130   26.6960   41.9620 H   0  0  0  0  0  0  0  0  0  0  0  0
   37.3150   27.3310   44.3050 H   0  0  0  0  0  0  0  0  0  0  0  0
   37.9490   29.8230   44.2510 H   0  0  0  0  0  0  0  0  0  0  0  0
  1 21  1  0  0  0  0
  2  1  2  0  0  0  0
  3  1  1  0  0  0  0
  3  8  1  0  0  0  0
  4  5  1  0  0  0  0
  4  3  1  0  0  0  0
  5  6  1  0  0  0  0
  6  7  1  0  0  0  0
  6 13  1  0  0  0  0
  7  8  1  0  0  0  0
  7 15  1  0  0  0  0
  8 17  1  1  0  0  0
  9  4  1  0  0  0  0
 10  4  1  0  0  0  0
 11  5  1  0  0  0  0
 12  5  1  0  0  0  0
 14  6  1  0  0  0  0
 16  7  1  0  0  0  0
 18  8  1  0  0  0  0
 18 19  1  0  0  0  0
 20 18  2  0  0  0  0
 22 21  1  0  0  0  0
 22 23  1  0  0  0  0
 23 30  1  0  0  0  0
 24 23  2  0  0  0  0
 24 28  1  0  0  0  0
 25 24  1  0  0  0  0
 26 27  1  0  0  0  0
 26 25  2  0  0  0  0
 27 22  2  0  0  0  0
 29 26  1  0  0  0  0
 30 31  1  0  0  0  0
 30 34  2  0  0  0  0
 31 32  2  0  0  0  0
 32 33  1  0  0  0  0
 32 36  1  0  0  0  0
 33 37  1  0  0  0  0
 34 33  1  0  0  0  0
 35 31  1  0  0  0  0
M  END
>  <minimizedAffinity>
-5.20632648

$$$$

 OpenBabel03252508553D

 37 39  0  0  1  0  0  0  0  0999 V2000
   39.4920   27.7160   41.1080 C   0  0  0  0  0  0  0  0  0  0  0  0
   40.1220   26.8610   40.4240 O   0  0  0  0  0  0  0  0  0  0  0  0
   38.7100   26.8360   41.9370 N   0  0  0  0  0  0  0  0  0  0  0  0
   39.4750   25.9360   42.7670 C   0  0  0  0  0  0  0  0  0  0  0  0
   39.4440   24.5900   42.0340 C   0  0  0  0  0  0  0  0  0  0  0  0
   38.0680   24.4850   41.3850 C   0  0  0  0  0  0  0  0  0  0  0  0
   37.0080   25.2210   42.1980 C   0  0  0  0  0  0  0  0  0  0  0  0
   37.2480   26.7290   42.0530 C   0  0  1  0  0  0  0  0  0  0  0  0
   40.4900   26.2740   42.9650 H   0  0  0  0  0  0  0  0  0  0  0  0
   38.9340   25.7780   43.7380 H   0  0  0  0  0  0  0  0  0  0  0  0
   40.2480   24.4970   41.3030 H   0  0  0  0  0  0  0  0  0  0  0  0
   39.4700   23.7910   42.8130 H   0  0  0  0  0  0  0  0  0  0  0  0
   38.1110   24.9390   40.3860 H   0  0  0  0  0  0  0  0  0  0  0  0
   37.7550   23.4120   41.3810 H   0  0  0  0  0  0  0  0  0  0  0  0
   36.0450   24.9690   41.6960 H   0  0  0  0  0  0  0  0  0  0  0  0
   36.9760   24.9080   43.2450 H   0  0  0  0  0  0  0  0  0  0  0  0
   36.8260   27.0370   41.0770 H   0  0  0  0  0  0  0  0  0  0  0  0
   36.7240   27.4910   43.1970 C   0  0  0  0  0  0  0  0  0  0  0  0
   36.0280   26.9670   43.8690 H   0  0  0  0  0  0  0  0  0  0  0  0
   37.0840   28.6660   43.3460 O   0  0  0  0  0  0  0  0  0  0  0  0
   39.5830   29.0780   41.0230 O   0  0  0  0  0  0  0  0  0  0  0  0
   39.7890   29.8280   39.8850 C   0  0  0  0  0  0  0  0  0  0  0  0
   38.6880   30.4960   39.3520 C   0  0  0  0  0  0  0  0  0  0  0  0
   38.9270   31.2560   38.1850 C   0  0  0  0  0  0  0  0  0  0  0  0
   40.1870   31.2860   37.6720 N   0  0  0  0  0  0  0  0  0  0  0  0
   41.1990   30.6220   38.2330 C   0  0  0  0  0  0  0  0  0  0  0  0
   41.0060   29.8910   39.3410 N   0  0  0  0  0  0  0  0  0  0  0  0
   38.0930   31.7860   37.7480 H   0  0  0  0  0  0  0  0  0  0  0  0
   42.1830   30.6810   37.7810 H   0  0  0  0  0  0  0  0  0  0  0  0
   37.3960   30.3960   39.9760 C   0  0  0  0  0  0  0  0  0  0  0  0
   36.4480   29.4460   39.6150 C   0  0  0  0  0  0  0  0  0  0  0  0
   35.3810   29.7040   40.4480 C   0  0  0  0  0  0  0  0  0  0  0  0
   35.6620   30.7460   41.2620 N   0  0  0  0  0  0  0  0  0  0  0  0
   36.8700   31.1310   40.9510 N   0  0  0  0  0  0  0  0  0  0  0  0
   36.4980   28.6830   38.8770 H   0  0  0  0  0  0  0  0  0  0  0  0
   34.4310   29.1800   40.4860 H   0  0  0  0  0  0  0  0  0  0  0  0
   35.0440   31.1680   41.9980 H   0  0  0  0  0  0  0  0  0  0  0  0
  1  3  1  0  0  0  0
  2  1  2  0  0  0  0
  3  8  1  0  0  0  0
  3  4  1  0  0  0  0
  4  9  1  0  0  0  0
  4 10  1  0  0  0  0
  5  4  1  0  0  0  0
  5 12  1  0  0  0  0
  6  5  1  0  0  0  0
  6  7  1  0  0  0  0
  7 16  1  0  0  0  0
  8 17  1  6  0  0  0
  8  7  1  0  0  0  0
  8 18  1  0  0  0  0
 11  5  1  0  0  0  0
 13  6  1  0  0  0  0
 14  6  1  0  0  0  0
 15  7  1  0  0  0  0
 18 20  2  0  0  0  0
 18 19  1  0  0  0  0
 21  1  1  0  0  0  0
 22 21  1  0  0  0  0
 23 22  1  0  0  0  0
 23 30  1  0  0  0  0
 24 23  2  0  0  0  0
 25 24  1  0  0  0  0
 25 26  2  0  0  0  0
 26 27  1  0  0  0  0
 27 22  2  0  0  0  0
 28 24  1  0  0  0  0
 29 26  1  0  0  0  0
 30 34  2  0  0  0  0
 31 30  1  0  0  0  0
 31 32  2  0  0  0  0
 32 36  1  0  0  0  0
 32 33  1  0  0  0  0
 33 37  1  0  0  0  0
 34 33  1  0  0  0  0
 35 31  1  0  0  0  0
M  END
>  <minimizedAffinity>
-5.20423746

$$$$

 OpenBabel03252508553D

 37 39  0  0  1  0  0  0  0  0999 V2000
   39.4600   28.9860   40.8100 C   0  0  0  0  0  0  0  0  0  0  0  0
   40.2300   28.0900   41.2590 O   0  0  0  0  0  0  0  0  0  0  0  0
   38.3280   28.7910   41.6760 N   0  0  0  0  0  0  0  0  0  0  0  0
   38.5950   28.9640   43.0840 C   0  0  0  0  0  0  0  0  0  0  0  0
   38.7360   27.5440   43.6440 C   0  0  0  0  0  0  0  0  0  0  0  0
   37.7440   26.6780   42.8760 C   0  0  0  0  0  0  0  0  0  0  0  0
   36.5200   27.4800   42.4430 C   0  0  0  0  0  0  0  0  0  0  0  0
   36.9430   28.4410   41.3250 C   0  0  1  0  0  0  0  0  0  0  0  0
   39.4680   29.5790   43.2950 H   0  0  0  0  0  0  0  0  0  0  0  0
   37.6920   29.4090   43.5810 H   0  0  0  0  0  0  0  0  0  0  0  0
   39.7570   27.1650   43.5610 H   0  0  0  0  0  0  0  0  0  0  0  0
   38.3650   27.5660   44.6960 H   0  0  0  0  0  0  0  0  0  0  0  0
   38.2350   26.2880   41.9750 H   0  0  0  0  0  0  0  0  0  0  0  0
   37.3580   25.8830   43.5620 H   0  0  0  0  0  0  0  0  0  0  0  0
   35.8270   26.7210   42.0100 H   0  0  0  0  0  0  0  0  0  0  0  0
   36.0330   28.0000   43.2710 H   0  0  0  0  0  0  0  0  0  0  0  0
   36.9880   27.8540   40.3870 H   0  0  0  0  0  0  0  0  0  0  0  0
   36.0730   29.6250   41.2470 C   0  0  0  0  0  0  0  0  0  0  0  0
   35.8400   30.1360   42.1940 H   0  0  0  0  0  0  0  0  0  0  0  0
   35.6510   29.9830   40.1400 O   0  0  0  0  0  0  0  0  0  0  0  0
   39.7100   29.8560   39.7840 O   0  0  0  0  0  0  0  0  0  0  0  0
   38.8840   30.1430   38.7190 C   0  0  0  0  0  0  0  0  0  0  0  0
   38.4490   31.4590   38.5840 C   0  0  0  0  0  0  0  0  0  0  0  0
   37.6030   31.7260   37.4830 C   0  0  0  0  0  0  0  0  0  0  0  0
   37.2780   30.7020   36.6470 N   0  0  0  0  0  0  0  0  0  0  0  0
   37.7300   29.4620   36.8340 C   0  0  0  0  0  0  0  0  0  0  0  0
   38.5340   29.1750   37.8680 N   0  0  0  0  0  0  0  0  0  0  0  0
   37.2490   32.7380   37.3520 H   0  0  0  0  0  0  0  0  0  0  0  0
   37.4380   28.6840   36.1360 H   0  0  0  0  0  0  0  0  0  0  0  0
   38.8540   32.4680   39.5270 C   0  0  0  0  0  0  0  0  0  0  0  0
   39.9800   33.2630   39.3540 C   0  0  0  0  0  0  0  0  0  0  0  0
   39.9920   34.0730   40.4680 C   0  0  0  0  0  0  0  0  0  0  0  0
   38.9400   33.7890   41.2670 N   0  0  0  0  0  0  0  0  0  0  0  0
   38.2860   32.8280   40.6740 N   0  0  0  0  0  0  0  0  0  0  0  0
   40.6890   33.2730   38.5620 H   0  0  0  0  0  0  0  0  0  0  0  0
   40.7160   34.8440   40.7170 H   0  0  0  0  0  0  0  0  0  0  0  0
   38.6890   34.2410   42.1810 H   0  0  0  0  0  0  0  0  0  0  0  0
  1  2  2  0  0  0  0
  1  3  1  0  0  0  0
  3  4  1  0  0  0  0
  4  9  1  0  0  0  0
  4 10  1  0  0  0  0
  4  5  1  0  0  0  0
  5 12  1  0  0  0  0
  6 14  1  0  0  0  0
  6  5  1  0  0  0  0
  7  6  1  0  0  0  0
  7 16  1  0  0  0  0
  8 17  1  6  0  0  0
  8  3  1  0  0  0  0
  8  7  1  0  0  0  0
 11  5  1  0  0  0  0
 13  6  1  0  0  0  0
 15  7  1  0  0  0  0
 18  8  1  0  0  0  0
 18 19  1  0  0  0  0
 20 18  2  0  0  0  0
 21  1  1  0  0  0  0
 22 21  1  0  0  0  0
 23 22  1  0  0  0  0
 23 30  1  0  0  0  0
 24 23  2  0  0  0  0
 25 26  2  0  0  0  0
 25 24  1  0  0  0  0
 26 27  1  0  0  0  0
 27 22  2  0  0  0  0
 28 24  1  0  0  0  0
 29 26  1  0  0  0  0
 30 34  2  0  0  0  0
 31 30  1  0  0  0  0
 31 32  2  0  0  0  0
 32 36  1  0  0  0  0
 32 33  1  0  0  0  0
 33 37  1  0  0  0  0
 34 33  1  0  0  0  0
 35 31  1  0  0  0  0
M  END
>  <minimizedAffinity>
-5.16109705

$$$$

 OpenBabel03252508553D

 37 39  0  0  1  0  0  0  0  0999 V2000
   36.7100   27.7740   38.9810 C   0  0  0  0  0  0  0  0  0  0  0  0
   37.2300   27.4030   37.8910 O   0  0  0  0  0  0  0  0  0  0  0  0
   36.7120   29.2000   38.7780 N   0  0  0  0  0  0  0  0  0  0  0  0
   35.9600   29.6590   37.6350 C   0  0  0  0  0  0  0  0  0  0  0  0
   37.0060   29.9240   36.5460 C   0  0  0  0  0  0  0  0  0  0  0  0
   38.2410   30.4630   37.2580 C   0  0  0  0  0  0  0  0  0  0  0  0
   37.8660   31.2420   38.5150 C   0  0  0  0  0  0  0  0  0  0  0  0
   37.3740   30.2470   39.5720 C   0  0  1  0  0  0  0  0  0  0  0  0
   35.1900   28.9630   37.3070 H   0  0  0  0  0  0  0  0  0  0  0  0
   35.4940   30.6520   37.8720 H   0  0  0  0  0  0  0  0  0  0  0  0
   37.2300   29.0310   35.9600 H   0  0  0  0  0  0  0  0  0  0  0  0
   36.6240   30.7680   35.9230 H   0  0  0  0  0  0  0  0  0  0  0  0
   38.8770   29.6190   37.5540 H   0  0  0  0  0  0  0  0  0  0  0  0
   38.7480   31.1990   36.5860 H   0  0  0  0  0  0  0  0  0  0  0  0
   38.8280   31.6820   38.8690 H   0  0  0  0  0  0  0  0  0  0  0  0
   37.1400   32.0370   38.3270 H   0  0  0  0  0  0  0  0  0  0  0  0
   38.2700   29.7830   40.0300 H   0  0  0  0  0  0  0  0  0  0  0  0
   36.4600   30.8680   40.5430 C   0  0  0  0  0  0  0  0  0  0  0  0
   36.5950   31.9430   40.7370 H   0  0  0  0  0  0  0  0  0  0  0  0
   35.5990   30.1650   41.0870 O   0  0  0  0  0  0  0  0  0  0  0  0
   36.2890   26.9810   40.0120 O   0  0  0  0  0  0  0  0  0  0  0  0
   36.9140   25.8550   40.5040 C   0  0  0  0  0  0  0  0  0  0  0  0
   37.5800   25.9740   41.7220 C   0  0  0  0  0  0  0  0  0  0  0  0
   38.2120   24.8050   42.2020 C   0  0  0  0  0  0  0  0  0  0  0  0
   38.1320   23.6670   41.4590 N   0  0  0  0  0  0  0  0  0  0  0  0
   37.4770   23.6220   40.2980 C   0  0  0  0  0  0  0  0  0  0  0  0
   36.8660   24.7130   39.8140 N   0  0  0  0  0  0  0  0  0  0  0  0
   38.7370   24.8650   43.1450 H   0  0  0  0  0  0  0  0  0  0  0  0
   37.4450   22.6880   39.7480 H   0  0  0  0  0  0  0  0  0  0  0  0
   37.6040   27.2280   42.4270 C   0  0  0  0  0  0  0  0  0  0  0  0
   38.6830   28.1030   42.3860 C   0  0  0  0  0  0  0  0  0  0  0  0
   38.2900   29.1550   43.1840 C   0  0  0  0  0  0  0  0  0  0  0  0
   37.0530   28.9330   43.6790 N   0  0  0  0  0  0  0  0  0  0  0  0
   36.6770   27.7770   43.2060 N   0  0  0  0  0  0  0  0  0  0  0  0
   39.6090   28.0160   41.8710 H   0  0  0  0  0  0  0  0  0  0  0  0
   38.8540   30.0540   43.4160 H   0  0  0  0  0  0  0  0  0  0  0  0
   36.4960   29.5570   44.3140 H   0  0  0  0  0  0  0  0  0  0  0  0
  1 21  1  0  0  0  0
  2  1  2  0  0  0  0
  3  1  1  0  0  0  0
  3  8  1  0  0  0  0
  4 10  1  0  0  0  0
  4  3  1  0  0  0  0
  5  6  1  0  0  0  0
  5  4  1  0  0  0  0
  6 13  1  0  0  0  0
  6  7  1  0  0  0  0
  7 15  1  0  0  0  0
  7  8  1  0  0  0  0
  8 17  1  1  0  0  0
  8 18  1  0  0  0  0
  9  4  1  0  0  0  0
 11  5  1  0  0  0  0
 12  5  1  0  0  0  0
 14  6  1  0  0  0  0
 16  7  1  0  0  0  0
 18 19  1  0  0  0  0
 18 20  2  0  0  0  0
 21 22  1  0  0  0  0
 22 23  1  0  0  0  0
 23 24  2  0  0  0  0
 23 30  1  0  0  0  0
 24 28  1  0  0  0  0
 25 24  1  0  0  0  0
 26 25  2  0  0  0  0
 27 26  1  0  0  0  0
 27 22  2  0  0  0  0
 29 26  1  0  0  0  0
 30 34  2  0  0  0  0
 31 30  1  0  0  0  0
 31 32  2  0  0  0  0
 32 36  1  0  0  0  0
 32 33  1  0  0  0  0
 33 37  1  0  0  0  0
 34 33  1  0  0  0  0
 35 31  1  0  0  0  0
M  END
>  <minimizedAffinity>
-5.07535267

$$$$
