
 OpenBabel03252506083D

 24 25  0  0  0  0  0  0  0  0999 V2000
   45.0860   33.3510   41.0970 F   0  0  0  0  0  0  0  0  0  0  0  0
   46.2730   33.9660   40.9320 C   0  0  0  0  0  0  0  0  0  0  0  0
   46.7940   34.7270   41.9590 C   0  0  0  0  0  0  0  0  0  0  0  0
   48.0050   35.3860   41.8570 C   0  0  0  0  0  0  0  0  0  0  0  0
   48.7420   35.2860   40.6780 C   0  0  0  0  0  0  0  0  0  0  0  0
   48.1750   34.5100   39.6770 C   0  0  0  0  0  0  0  0  0  0  0  0
   46.9770   33.8500   39.7570 C   0  0  0  0  0  0  0  0  0  0  0  0
   48.3750   35.9630   42.6720 H   0  0  0  0  0  0  0  0  0  0  0  0
   49.6940   35.7810   40.5480 H   0  0  0  0  0  0  0  0  0  0  0  0
   48.7210   34.4100   38.7450 H   0  0  0  0  0  0  0  0  0  0  0  0
   45.4730   34.0130   45.3240 C   0  0  0  0  0  0  0  0  0  0  0  0
   44.6620   35.1530   45.5470 C   0  0  0  0  0  0  0  0  0  0  0  0
   44.5720   36.1480   44.5610 C   0  0  0  0  0  0  0  0  0  0  0  0
   45.2920   35.9540   43.4060 N   0  0  0  0  0  0  0  0  0  0  0  0
   46.0540   34.8610   43.2200 C   0  0  0  0  0  0  0  0  0  0  0  0
   46.1380   33.9130   44.1670 N   0  0  0  0  0  0  0  0  0  0  0  0
   44.1050   35.2680   46.4820 H   0  0  0  0  0  0  0  0  0  0  0  0
   43.9660   37.0290   44.6920 H   0  0  0  0  0  0  0  0  0  0  0  0
   45.5530   33.0260   46.3230 N   0  0  0  0  0  0  0  0  0  0  0  0
   45.6150   32.0090   46.1150 H   0  0  0  0  0  0  0  0  0  0  0  0
   45.5600   33.1910   47.3720 H   0  0  0  0  0  0  0  0  0  0  0  0
   46.4830   33.0610   38.6330 C   0  0  0  0  0  0  0  0  0  0  0  0
   45.9250   32.1560   38.8020 H   0  0  0  0  0  0  0  0  0  0  0  0
   46.7160   33.4500   37.4560 O   0  0  0  0  0  0  0  0  0  0  0  0
  2  1  1  0  0  0  0
  2  3  1  0  0  0  0
  3 15  1  0  0  0  0
  4  3  2  0  0  0  0
  4  8  1  0  0  0  0
  5  4  1  0  0  0  0
  6  7  1  0  0  0  0
  6  5  2  0  0  0  0
  7  2  2  0  0  0  0
  9  5  1  0  0  0  0
 10  6  1  0  0  0  0
 11 12  1  0  0  0  0
 11 19  1  0  0  0  0
 12 17  1  0  0  0  0
 13 18  1  0  0  0  0
 13 12  2  0  0  0  0
 14 13  1  0  0  0  0
 15 14  2  0  0  0  0
 15 16  1  0  0  0  0
 16 11  2  0  0  0  0
 19 21  1  0  0  0  0
 20 19  1  0  0  0  0
 22 23  1  0  0  0  0
 22  7  1  0  0  0  0
 24 22  2  0  0  0  0
M  END
>  <minimizedAffinity>
-5.50517416

>  <minimizedRMSD>
0.299860746

$$$$
