
 OpenBabel03242511213D

 33 35  0  0  1  0  0  0  0  0999 V2000
   36.6870   28.5060   39.1490 C   0  0  0  0  0  0  0  0  0  0  0  0
   36.7100   28.6760   40.4360 C   0  0  0  0  0  0  0  0  0  0  0  0
   37.1760   27.6600   41.2940 N   0  0  0  0  0  0  0  0  0  0  0  0
   36.9360   26.8810   42.4900 C   0  0  0  0  0  0  0  0  0  0  0  0
   36.3170   27.0710   43.5820 O   0  0  0  0  0  0  0  0  0  0  0  0
   37.7460   25.8150   41.8010 C   0  0  0  0  0  0  0  0  0  0  0  0
   38.4350   26.9430   41.0640 C   0  0  1  0  0  0  0  0  0  0  0  0
   38.6680   26.7210   39.3000 S   0  0  0  0  0  0  0  0  0  0  0  0
   37.1440   27.2780   38.4700 C   0  0  0  0  0  0  0  0  0  0  0  0
   37.1600   25.1840   41.0970 H   0  0  0  0  0  0  0  0  0  0  0  0
   38.3580   25.2720   42.5210 H   0  0  0  0  0  0  0  0  0  0  0  0
   39.2430   27.4370   41.6270 H   0  0  0  0  0  0  0  0  0  0  0  0
   37.4370   27.4450   37.4190 H   0  0  0  0  0  0  0  0  0  0  0  0
   36.3990   26.4700   38.4670 H   0  0  0  0  0  0  0  0  0  0  0  0
   36.1850   29.5680   38.2810 C   0  0  0  0  0  0  0  0  0  0  0  0
   35.5920   29.1280   37.4340 H   0  0  0  0  0  0  0  0  0  0  0  0
   35.5580   30.3230   38.7310 H   0  0  0  0  0  0  0  0  0  0  0  0
   37.5970   30.4580   37.5170 S   0  0  0  0  0  0  0  0  0  0  0  0
   37.7500   33.7780   39.8340 C   0  0  0  0  0  0  0  0  0  0  0  0
   37.2820   32.8150   38.8920 C   0  0  0  0  0  0  0  0  0  0  0  0
   38.1260   31.6900   38.6780 C   0  0  0  0  0  0  0  0  0  0  0  0
   39.2960   31.6020   39.3640 N   0  0  0  0  0  0  0  0  0  0  0  0
   39.6750   32.5410   40.2320 C   0  0  0  0  0  0  0  0  0  0  0  0
   38.9200   33.6190   40.4730 N   0  0  0  0  0  0  0  0  0  0  0  0
   37.1200   34.6380   40.0080 H   0  0  0  0  0  0  0  0  0  0  0  0
   36.3380   32.9400   38.3740 H   0  0  0  0  0  0  0  0  0  0  0  0
   40.9410   32.4010   40.9440 C   0  0  0  0  0  0  0  0  0  0  0  0
   41.0290   31.8710   41.8830 H   0  0  0  0  0  0  0  0  0  0  0  0
   42.0070   32.8970   40.4960 O   0  0  0  0  0  0  0  0  0  0  0  0
   36.2440   29.9490   41.0140 C   0  0  0  0  0  0  0  0  0  0  0  0
   36.9390   30.6900   41.7670 O   0  0  0  0  0  0  0  0  0  0  0  0
   35.5530   31.0430   41.3870 O   0  0  0  0  0  0  0  0  0  0  0  0
   34.7050   31.4200   41.0030 H   0  0  0  0  0  0  0  0  0  0  0  0
  1  2  2  0  0  0  0
  2 30  1  0  0  0  0
  2  3  1  0  0  0  0
  3  4  1  0  0  0  0
  4  5  2  0  0  0  0
  6  4  1  0  0  0  0
  6 11  1  0  0  0  0
  7  3  1  0  0  0  0
  7 12  1  1  0  0  0
  7  6  1  0  0  0  0
  8  7  1  0  0  0  0
  9  1  1  0  0  0  0
  9  8  1  0  0  0  0
 10  6  1  0  0  0  0
 13  9  1  0  0  0  0
 14  9  1  0  0  0  0
 15 17  1  0  0  0  0
 15  1  1  0  0  0  0
 16 15  1  0  0  0  0
 18 15  1  0  0  0  0
 18 21  1  0  0  0  0
 19 25  1  0  0  0  0
 19 24  1  0  0  0  0
 20 19  2  0  0  0  0
 21 20  1  0  0  0  0
 21 22  2  0  0  0  0
 22 23  1  0  0  0  0
 23 24  2  0  0  0  0
 23 27  1  0  0  0  0
 26 20  1  0  0  0  0
 27 28  1  0  0  0  0
 29 27  2  0  0  0  0
 30 32  1  0  0  0  0
 30 31  2  0  0  0  0
 33 32  1  0  0  0  0
M  END
>  <minimizedAffinity>
-5.17631388

$$$$

 OpenBabel03242511213D

 33 35  0  0  1  0  0  0  0  0999 V2000
   38.7720   29.7470   40.2760 C   0  0  0  0  0  0  0  0  0  0  0  0
   37.8940   29.5010   41.2000 C   0  0  0  0  0  0  0  0  0  0  0  0
   38.1470   28.5480   42.2070 N   0  0  0  0  0  0  0  0  0  0  0  0
   37.6510   27.4080   42.9470 C   0  0  0  0  0  0  0  0  0  0  0  0
   36.5030   26.9800   43.2840 O   0  0  0  0  0  0  0  0  0  0  0  0
   39.1010   27.0340   43.0910 C   0  0  0  0  0  0  0  0  0  0  0  0
   39.4010   28.5120   42.9680 C   0  0  1  0  0  0  0  0  0  0  0  0
   40.7560   28.9660   41.8850 S   0  0  0  0  0  0  0  0  0  0  0  0
   40.0890   29.0880   40.1920 C   0  0  0  0  0  0  0  0  0  0  0  0
   39.5140   26.4750   42.2230 H   0  0  0  0  0  0  0  0  0  0  0  0
   39.2890   26.5890   44.0680 H   0  0  0  0  0  0  0  0  0  0  0  0
   39.2770   29.0870   43.8990 H   0  0  0  0  0  0  0  0  0  0  0  0
   40.8360   29.6780   39.6350 H   0  0  0  0  0  0  0  0  0  0  0  0
   40.0580   28.0940   39.7260 H   0  0  0  0  0  0  0  0  0  0  0  0
   38.4800   30.7290   39.2350 C   0  0  0  0  0  0  0  0  0  0  0  0
   38.9820   30.4340   38.2740 H   0  0  0  0  0  0  0  0  0  0  0  0
   37.4420   30.9050   38.9940 H   0  0  0  0  0  0  0  0  0  0  0  0
   39.1830   32.3570   39.7080 S   0  0  0  0  0  0  0  0  0  0  0  0
   42.3660   34.0770   37.8850 C   0  0  0  0  0  0  0  0  0  0  0  0
   41.2230   33.9090   38.7220 C   0  0  0  0  0  0  0  0  0  0  0  0
   40.6080   32.6270   38.6870 C   0  0  0  0  0  0  0  0  0  0  0  0
   41.1300   31.6650   37.8810 N   0  0  0  0  0  0  0  0  0  0  0  0
   42.2030   31.8900   37.1220 C   0  0  0  0  0  0  0  0  0  0  0  0
   42.8220   33.0760   37.1150 N   0  0  0  0  0  0  0  0  0  0  0  0
   42.8450   35.0460   37.9000 H   0  0  0  0  0  0  0  0  0  0  0  0
   40.8520   34.7150   39.3450 H   0  0  0  0  0  0  0  0  0  0  0  0
   42.7260   30.8250   36.2720 C   0  0  0  0  0  0  0  0  0  0  0  0
   43.3420   31.0170   35.4040 H   0  0  0  0  0  0  0  0  0  0  0  0
   42.4840   29.6130   36.5110 O   0  0  0  0  0  0  0  0  0  0  0  0
   36.6110   30.2270   41.2030 C   0  0  0  0  0  0  0  0  0  0  0  0
   35.5170   29.7490   40.7870 O   0  0  0  0  0  0  0  0  0  0  0  0
   35.6130   31.1220   41.3290 O   0  0  0  0  0  0  0  0  0  0  0  0
   35.5860   31.9720   41.8640 H   0  0  0  0  0  0  0  0  0  0  0  0
  1  2  2  0  0  0  0
  2 30  1  0  0  0  0
  2  3  1  0  0  0  0
  3  4  1  0  0  0  0
  3  7  1  0  0  0  0
  4  6  1  0  0  0  0
  4  5  2  0  0  0  0
  6 11  1  0  0  0  0
  7  6  1  0  0  0  0
  7 12  1  1  0  0  0
  8  7  1  0  0  0  0
  9  1  1  0  0  0  0
  9  8  1  0  0  0  0
 10  6  1  0  0  0  0
 13  9  1  0  0  0  0
 14  9  1  0  0  0  0
 15 18  1  0  0  0  0
 15  1  1  0  0  0  0
 16 15  1  0  0  0  0
 17 15  1  0  0  0  0
 19 25  1  0  0  0  0
 19 20  1  0  0  0  0
 20 26  1  0  0  0  0
 21 20  2  0  0  0  0
 21 18  1  0  0  0  0
 22 21  1  0  0  0  0
 23 22  2  0  0  0  0
 24 23  1  0  0  0  0
 24 19  2  0  0  0  0
 27 29  2  0  0  0  0
 27 23  1  0  0  0  0
 28 27  1  0  0  0  0
 30 32  1  0  0  0  0
 31 30  2  0  0  0  0
 32 33  1  0  0  0  0
M  END
>  <minimizedAffinity>
-5.12123537

$$$$

 OpenBabel03242511213D

 33 35  0  0  1  0  0  0  0  0999 V2000
   38.2900   31.3570   39.3820 C   0  0  0  0  0  0  0  0  0  0  0  0
   37.2310   30.6070   39.3370 C   0  0  0  0  0  0  0  0  0  0  0  0
   36.9710   29.7850   38.2220 N   0  0  0  0  0  0  0  0  0  0  0  0
   36.0020   29.3450   37.2420 C   0  0  0  0  0  0  0  0  0  0  0  0
   34.7370   29.2330   37.2100 O   0  0  0  0  0  0  0  0  0  0  0  0
   37.1960   29.1110   36.3560 C   0  0  0  0  0  0  0  0  0  0  0  0
   37.9870   28.9070   37.6300 C   0  0  1  0  0  0  0  0  0  0  0  0
   39.5840   29.7170   37.7190 S   0  0  0  0  0  0  0  0  0  0  0  0
   39.3060   31.4170   38.3140 C   0  0  0  0  0  0  0  0  0  0  0  0
   37.5460   30.0190   35.8170 H   0  0  0  0  0  0  0  0  0  0  0  0
   37.0490   28.2260   35.7390 H   0  0  0  0  0  0  0  0  0  0  0  0
   37.8990   27.9010   38.0710 H   0  0  0  0  0  0  0  0  0  0  0  0
   40.2930   31.7590   38.6700 H   0  0  0  0  0  0  0  0  0  0  0  0
   39.0280   32.0700   37.4740 H   0  0  0  0  0  0  0  0  0  0  0  0
   38.5300   32.2120   40.5410 C   0  0  0  0  0  0  0  0  0  0  0  0
   38.6730   33.2780   40.2140 H   0  0  0  0  0  0  0  0  0  0  0  0
   37.7720   32.2310   41.3100 H   0  0  0  0  0  0  0  0  0  0  0  0
   40.0900   31.7090   41.3660 S   0  0  0  0  0  0  0  0  0  0  0  0
   40.5830   28.0050   42.9330 C   0  0  0  0  0  0  0  0  0  0  0  0
   40.8780   29.2470   42.2970 C   0  0  0  0  0  0  0  0  0  0  0  0
   39.7850   30.1460   42.1500 C   0  0  0  0  0  0  0  0  0  0  0  0
   38.5600   29.7790   42.6110 N   0  0  0  0  0  0  0  0  0  0  0  0
   38.3540   28.6000   43.1970 C   0  0  0  0  0  0  0  0  0  0  0  0
   39.3450   27.7160   43.3620 N   0  0  0  0  0  0  0  0  0  0  0  0
   41.4030   27.3110   43.0530 H   0  0  0  0  0  0  0  0  0  0  0  0
   41.8760   29.4850   41.9490 H   0  0  0  0  0  0  0  0  0  0  0  0
   37.0200   28.2520   43.6760 C   0  0  0  0  0  0  0  0  0  0  0  0
   36.4400   28.9010   44.3170 H   0  0  0  0  0  0  0  0  0  0  0  0
   36.4700   27.1640   43.3600 O   0  0  0  0  0  0  0  0  0  0  0  0
   36.2840   30.6090   40.4660 C   0  0  0  0  0  0  0  0  0  0  0  0
   35.4860   29.6650   40.7330 O   0  0  0  0  0  0  0  0  0  0  0  0
   35.5420   30.8950   41.5530 O   0  0  0  0  0  0  0  0  0  0  0  0
   35.6810   31.6100   42.2460 H   0  0  0  0  0  0  0  0  0  0  0  0
  1 15  1  0  0  0  0
  2  1  2  0  0  0  0
  2 30  1  0  0  0  0
  3  2  1  0  0  0  0
  4  3  1  0  0  0  0
  5  4  2  0  0  0  0
  6  4  1  0  0  0  0
  6  7  1  0  0  0  0
  7  8  1  0  0  0  0
  7 12  1  1  0  0  0
  7  3  1  0  0  0  0
  8  9  1  0  0  0  0
  9 13  1  0  0  0  0
  9  1  1  0  0  0  0
 10  6  1  0  0  0  0
 11  6  1  0  0  0  0
 14  9  1  0  0  0  0
 15 17  1  0  0  0  0
 15 18  1  0  0  0  0
 16 15  1  0  0  0  0
 18 21  1  0  0  0  0
 19 25  1  0  0  0  0
 19 24  1  0  0  0  0
 20 19  2  0  0  0  0
 21 20  1  0  0  0  0
 21 22  2  0  0  0  0
 22 23  1  0  0  0  0
 23 24  2  0  0  0  0
 23 27  1  0  0  0  0
 26 20  1  0  0  0  0
 27 28  1  0  0  0  0
 29 27  2  0  0  0  0
 30 31  2  0  0  0  0
 30 32  1  0  0  0  0
 32 33  1  0  0  0  0
M  END
>  <minimizedAffinity>
-5.10534048

$$$$

 OpenBabel03242511213D

 33 35  0  0  1  0  0  0  0  0999 V2000
   38.8060   29.9390   42.3200 C   0  0  0  0  0  0  0  0  0  0  0  0
   38.3440   30.8170   41.4840 C   0  0  0  0  0  0  0  0  0  0  0  0
   39.2090   31.6890   40.7930 N   0  0  0  0  0  0  0  0  0  0  0  0
   39.4910   33.0510   40.3940 C   0  0  0  0  0  0  0  0  0  0  0  0
   38.7940   34.0870   40.1660 O   0  0  0  0  0  0  0  0  0  0  0  0
   40.9320   32.6160   40.3940 C   0  0  0  0  0  0  0  0  0  0  0  0
   40.4170   31.2230   40.1020 C   0  0  1  0  0  0  0  0  0  0  0  0
   41.1510   29.8840   41.0430 S   0  0  0  0  0  0  0  0  0  0  0  0
   40.2400   29.7550   42.6160 C   0  0  0  0  0  0  0  0  0  0  0  0
   41.4180   32.6540   41.3940 H   0  0  0  0  0  0  0  0  0  0  0  0
   41.4800   33.1000   39.5860 H   0  0  0  0  0  0  0  0  0  0  0  0
   40.1790   31.0320   39.0430 H   0  0  0  0  0  0  0  0  0  0  0  0
   40.4790   28.7490   43.0020 H   0  0  0  0  0  0  0  0  0  0  0  0
   40.6380   30.4770   43.3430 H   0  0  0  0  0  0  0  0  0  0  0  0
   37.8870   29.0580   43.0360 C   0  0  0  0  0  0  0  0  0  0  0  0
   37.7560   29.4120   44.0940 H   0  0  0  0  0  0  0  0  0  0  0  0
   36.8940   28.9400   42.6300 H   0  0  0  0  0  0  0  0  0  0  0  0
   38.6050   27.3720   43.1390 S   0  0  0  0  0  0  0  0  0  0  0  0
   36.5510   26.2870   39.8200 C   0  0  0  0  0  0  0  0  0  0  0  0
   37.1110   27.0990   40.8500 C   0  0  0  0  0  0  0  0  0  0  0  0
   37.8820   26.4160   41.8310 C   0  0  0  0  0  0  0  0  0  0  0  0
   38.0360   25.0690   41.7310 N   0  0  0  0  0  0  0  0  0  0  0  0
   37.4840   24.3700   40.7390 C   0  0  0  0  0  0  0  0  0  0  0  0
   36.7500   24.9600   39.7890 N   0  0  0  0  0  0  0  0  0  0  0  0
   35.9630   26.7910   39.0660 H   0  0  0  0  0  0  0  0  0  0  0  0
   36.9530   28.1710   40.8780 H   0  0  0  0  0  0  0  0  0  0  0  0
   37.6780   22.9250   40.6750 C   0  0  0  0  0  0  0  0  0  0  0  0
   37.0280   22.2240   41.1790 H   0  0  0  0  0  0  0  0  0  0  0  0
   38.6250   22.4160   40.0200 O   0  0  0  0  0  0  0  0  0  0  0  0
   36.8920   30.9100   41.2480 C   0  0  0  0  0  0  0  0  0  0  0  0
   36.3640   31.2230   40.1420 O   0  0  0  0  0  0  0  0  0  0  0  0
   35.5480   30.9130   41.3360 O   0  0  0  0  0  0  0  0  0  0  0  0
   34.9580   30.5220   42.0500 H   0  0  0  0  0  0  0  0  0  0  0  0
  1  9  1  0  0  0  0
  1 15  1  0  0  0  0
  2  1  2  0  0  0  0
  3  2  1  0  0  0  0
  4  3  1  0  0  0  0
  5  4  2  0  0  0  0
  6  4  1  0  0  0  0
  6 10  1  0  0  0  0
  7 12  1  6  0  0  0
  7  6  1  0  0  0  0
  7  3  1  0  0  0  0
  7  8  1  0  0  0  0
  8  9  1  0  0  0  0
  9 13  1  0  0  0  0
  9 14  1  0  0  0  0
 11  6  1  0  0  0  0
 15 18  1  0  0  0  0
 15 16  1  0  0  0  0
 17 15  1  0  0  0  0
 19 20  1  0  0  0  0
 20 26  1  0  0  0  0
 20 21  2  0  0  0  0
 21 18  1  0  0  0  0
 22 21  1  0  0  0  0
 23 22  2  0  0  0  0
 24 19  2  0  0  0  0
 24 23  1  0  0  0  0
 25 19  1  0  0  0  0
 27 23  1  0  0  0  0
 27 28  1  0  0  0  0
 29 27  2  0  0  0  0
 30 32  1  0  0  0  0
 30  2  1  0  0  0  0
 31 30  2  0  0  0  0
 32 33  1  0  0  0  0
M  END
>  <minimizedAffinity>
-5.02870178

$$$$

 OpenBabel03242511213D

 33 35  0  0  1  0  0  0  0  0999 V2000
   38.1950   28.4880   41.9230 C   0  0  0  0  0  0  0  0  0  0  0  0
   37.1990   28.6060   41.0990 C   0  0  0  0  0  0  0  0  0  0  0  0
   36.8880   27.5800   40.1850 N   0  0  0  0  0  0  0  0  0  0  0  0
   36.5740   27.2320   38.8150 C   0  0  0  0  0  0  0  0  0  0  0  0
   36.0250   27.8260   37.8360 O   0  0  0  0  0  0  0  0  0  0  0  0
   37.1940   25.9010   39.1480 C   0  0  0  0  0  0  0  0  0  0  0  0
   36.7850   26.1710   40.5800 C   0  0  1  0  0  0  0  0  0  0  0  0
   38.0110   25.8250   41.8410 S   0  0  0  0  0  0  0  0  0  0  0  0
   39.0690   27.3010   41.9990 C   0  0  0  0  0  0  0  0  0  0  0  0
   38.3020   25.8810   39.0530 H   0  0  0  0  0  0  0  0  0  0  0  0
   36.6640   25.0940   38.6440 H   0  0  0  0  0  0  0  0  0  0  0  0
   35.7340   25.9340   40.8110 H   0  0  0  0  0  0  0  0  0  0  0  0
   39.5680   27.1900   42.9760 H   0  0  0  0  0  0  0  0  0  0  0  0
   39.8580   27.2830   41.2350 H   0  0  0  0  0  0  0  0  0  0  0  0
   38.5080   29.5720   42.8510 C   0  0  0  0  0  0  0  0  0  0  0  0
   37.8430   30.4560   42.6520 H   0  0  0  0  0  0  0  0  0  0  0  0
   38.4240   29.3620   43.9070 H   0  0  0  0  0  0  0  0  0  0  0  0
   40.2290   30.1440   42.5740 S   0  0  0  0  0  0  0  0  0  0  0  0
   41.2270   33.4280   40.4210 C   0  0  0  0  0  0  0  0  0  0  0  0
   41.3510   32.2720   41.2470 C   0  0  0  0  0  0  0  0  0  0  0  0
   40.1390   31.5910   41.5500 C   0  0  0  0  0  0  0  0  0  0  0  0
   38.9690   32.0680   41.0490 N   0  0  0  0  0  0  0  0  0  0  0  0
   38.9260   33.1570   40.2810 C   0  0  0  0  0  0  0  0  0  0  0  0
   40.0330   33.8370   39.9640 N   0  0  0  0  0  0  0  0  0  0  0  0
   42.1390   33.9570   40.1810 H   0  0  0  0  0  0  0  0  0  0  0  0
   42.3130   31.9390   41.6180 H   0  0  0  0  0  0  0  0  0  0  0  0
   37.6440   33.6310   39.7680 C   0  0  0  0  0  0  0  0  0  0  0  0
   37.3010   34.6480   39.8980 H   0  0  0  0  0  0  0  0  0  0  0  0
   36.8650   32.8690   39.1380 O   0  0  0  0  0  0  0  0  0  0  0  0
   36.3780   29.8290   41.1150 C   0  0  0  0  0  0  0  0  0  0  0  0
   35.3900   30.0390   40.3520 O   0  0  0  0  0  0  0  0  0  0  0  0
   35.8240   31.0330   41.3590 O   0  0  0  0  0  0  0  0  0  0  0  0
   35.9520   31.6420   42.1480 H   0  0  0  0  0  0  0  0  0  0  0  0
  1  9  1  0  0  0  0
  1 15  1  0  0  0  0
  2 30  1  0  0  0  0
  2  1  2  0  0  0  0
  3  7  1  0  0  0  0
  3  2  1  0  0  0  0
  4  6  1  0  0  0  0
  4  3  1  0  0  0  0
  5  4  2  0  0  0  0
  6  7  1  0  0  0  0
  7 12  1  1  0  0  0
  7  8  1  0  0  0  0
  8  9  1  0  0  0  0
  9 13  1  0  0  0  0
 10  6  1  0  0  0  0
 11  6  1  0  0  0  0
 14  9  1  0  0  0  0
 15 17  1  0  0  0  0
 16 15  1  0  0  0  0
 18 15  1  0  0  0  0
 19 20  1  0  0  0  0
 20 21  2  0  0  0  0
 20 26  1  0  0  0  0
 21 18  1  0  0  0  0
 22 21  1  0  0  0  0
 23 22  2  0  0  0  0
 24 23  1  0  0  0  0
 24 19  2  0  0  0  0
 25 19  1  0  0  0  0
 27 28  1  0  0  0  0
 27 23  1  0  0  0  0
 29 27  2  0  0  0  0
 30 32  1  0  0  0  0
 31 30  2  0  0  0  0
 32 33  1  0  0  0  0
M  END
>  <minimizedAffinity>
-4.93296623

$$$$

 OpenBabel03242511213D

 33 35  0  0  1  0  0  0  0  0999 V2000
   35.9630   27.8900   39.4720 C   0  0  0  0  0  0  0  0  0  0  0  0
   36.5270   27.3740   40.5210 C   0  0  0  0  0  0  0  0  0  0  0  0
   37.0200   26.0540   40.5050 N   0  0  0  0  0  0  0  0  0  0  0  0
   37.0780   24.7740   41.1790 C   0  0  0  0  0  0  0  0  0  0  0  0
   37.0020   24.3850   42.3860 O   0  0  0  0  0  0  0  0  0  0  0  0
   37.2610   24.2020   39.7990 C   0  0  0  0  0  0  0  0  0  0  0  0
   37.8670   25.5370   39.4250 C   0  0  1  0  0  0  0  0  0  0  0  0
   37.3320   26.2510   37.8690 S   0  0  0  0  0  0  0  0  0  0  0  0
   35.7970   27.1790   38.1900 C   0  0  0  0  0  0  0  0  0  0  0  0
   36.3100   24.0330   39.2480 H   0  0  0  0  0  0  0  0  0  0  0  0
   37.9480   23.3560   39.8220 H   0  0  0  0  0  0  0  0  0  0  0  0
   38.9260   25.6580   39.7040 H   0  0  0  0  0  0  0  0  0  0  0  0
   35.6890   27.8580   37.3270 H   0  0  0  0  0  0  0  0  0  0  0  0
   34.9330   26.5000   38.1690 H   0  0  0  0  0  0  0  0  0  0  0  0
   35.4460   29.2550   39.5190 C   0  0  0  0  0  0  0  0  0  0  0  0
   34.3900   29.2830   39.1350 H   0  0  0  0  0  0  0  0  0  0  0  0
   35.4320   29.7490   40.4790 H   0  0  0  0  0  0  0  0  0  0  0  0
   36.4320   30.3260   38.4010 S   0  0  0  0  0  0  0  0  0  0  0  0
   38.0640   33.6350   40.0750 C   0  0  0  0  0  0  0  0  0  0  0  0
   37.2710   32.8080   39.2250 C   0  0  0  0  0  0  0  0  0  0  0  0
   37.3950   31.4060   39.4280 C   0  0  0  0  0  0  0  0  0  0  0  0
   38.2370   30.9490   40.3910 N   0  0  0  0  0  0  0  0  0  0  0  0
   38.9520   31.7790   41.1520 C   0  0  0  0  0  0  0  0  0  0  0  0
   38.8740   33.1070   41.0050 N   0  0  0  0  0  0  0  0  0  0  0  0
   37.9810   34.7030   39.9330 H   0  0  0  0  0  0  0  0  0  0  0  0
   36.6150   33.2310   38.4730 H   0  0  0  0  0  0  0  0  0  0  0  0
   39.8430   31.2400   42.1740 C   0  0  0  0  0  0  0  0  0  0  0  0
   40.7970   31.6890   42.4160 H   0  0  0  0  0  0  0  0  0  0  0  0
   39.5420   30.2120   42.8340 O   0  0  0  0  0  0  0  0  0  0  0  0
   36.6570   28.1750   41.7510 C   0  0  0  0  0  0  0  0  0  0  0  0
   36.4940   27.7230   42.9210 O   0  0  0  0  0  0  0  0  0  0  0  0
   36.8390   29.1400   42.6730 O   0  0  0  0  0  0  0  0  0  0  0  0
   37.2620   30.0460   42.5680 H   0  0  0  0  0  0  0  0  0  0  0  0
  1 15  1  0  0  0  0
  1  2  2  0  0  0  0
  2 30  1  0  0  0  0
  3  2  1  0  0  0  0
  3  4  1  0  0  0  0
  4  5  2  0  0  0  0
  6 11  1  0  0  0  0
  6  4  1  0  0  0  0
  7 12  1  1  0  0  0
  7  6  1  0  0  0  0
  7  3  1  0  0  0  0
  8  9  1  0  0  0  0
  8  7  1  0  0  0  0
  9  1  1  0  0  0  0
 10  6  1  0  0  0  0
 13  9  1  0  0  0  0
 14  9  1  0  0  0  0
 15 17  1  0  0  0  0
 16 15  1  0  0  0  0
 18 21  1  0  0  0  0
 18 15  1  0  0  0  0
 19 24  1  0  0  0  0
 20 21  1  0  0  0  0
 20 19  2  0  0  0  0
 21 22  2  0  0  0  0
 22 23  1  0  0  0  0
 23 27  1  0  0  0  0
 24 23  2  0  0  0  0
 25 19  1  0  0  0  0
 26 20  1  0  0  0  0
 27 28  1  0  0  0  0
 27 29  2  0  0  0  0
 30 32  1  0  0  0  0
 30 31  2  0  0  0  0
 33 32  1  0  0  0  0
M  END
>  <minimizedAffinity>
-4.85844374

$$$$

 OpenBabel03242511213D

 33 35  0  0  1  0  0  0  0  0999 V2000
   36.7940   30.7030   40.2240 C   0  0  0  0  0  0  0  0  0  0  0  0
   37.6630   30.6350   41.1860 C   0  0  0  0  0  0  0  0  0  0  0  0
   38.8310   31.4220   41.1670 N   0  0  0  0  0  0  0  0  0  0  0  0
   40.2690   31.4600   41.3270 C   0  0  0  0  0  0  0  0  0  0  0  0
   41.1220   30.7910   41.9890 O   0  0  0  0  0  0  0  0  0  0  0  0
   40.2150   32.6190   40.3680 C   0  0  0  0  0  0  0  0  0  0  0  0
   38.8120   32.8610   40.8820 C   0  0  1  0  0  0  0  0  0  0  0  0
   37.5560   33.1980   39.6490 S   0  0  0  0  0  0  0  0  0  0  0  0
   36.9260   31.5940   39.0550 C   0  0  0  0  0  0  0  0  0  0  0  0
   40.1960   32.3220   39.2970 H   0  0  0  0  0  0  0  0  0  0  0  0
   40.9570   33.3720   40.6340 H   0  0  0  0  0  0  0  0  0  0  0  0
   38.7590   33.4190   41.8310 H   0  0  0  0  0  0  0  0  0  0  0  0
   35.9600   31.8280   38.5750 H   0  0  0  0  0  0  0  0  0  0  0  0
   37.5830   31.1980   38.2680 H   0  0  0  0  0  0  0  0  0  0  0  0
   35.5980   29.8660   40.2580 C   0  0  0  0  0  0  0  0  0  0  0  0
   35.4140   29.4970   41.3040 H   0  0  0  0  0  0  0  0  0  0  0  0
   34.6710   30.3090   39.9250 H   0  0  0  0  0  0  0  0  0  0  0  0
   35.8600   28.3750   39.2210 S   0  0  0  0  0  0  0  0  0  0  0  0
   33.2890   28.9980   36.1520 C   0  0  0  0  0  0  0  0  0  0  0  0
   33.7780   28.7050   37.4600 C   0  0  0  0  0  0  0  0  0  0  0  0
   35.1910   28.7310   37.6170 C   0  0  0  0  0  0  0  0  0  0  0  0
   35.9700   29.0260   36.5430 N   0  0  0  0  0  0  0  0  0  0  0  0
   35.4460   29.2910   35.3460 C   0  0  0  0  0  0  0  0  0  0  0  0
   34.1250   29.2800   35.1410 N   0  0  0  0  0  0  0  0  0  0  0  0
   32.2170   28.9820   36.0170 H   0  0  0  0  0  0  0  0  0  0  0  0
   33.1060   28.4760   38.2790 H   0  0  0  0  0  0  0  0  0  0  0  0
   36.3250   29.6010   34.2230 C   0  0  0  0  0  0  0  0  0  0  0  0
   37.1690   28.9820   33.9510 H   0  0  0  0  0  0  0  0  0  0  0  0
   36.1420   30.6180   33.5040 O   0  0  0  0  0  0  0  0  0  0  0  0
   37.4290   29.7220   42.3190 C   0  0  0  0  0  0  0  0  0  0  0  0
   38.0720   28.6510   42.5200 O   0  0  0  0  0  0  0  0  0  0  0  0
   36.9940   29.0970   43.4300 O   0  0  0  0  0  0  0  0  0  0  0  0
   36.4190   29.4520   44.1730 H   0  0  0  0  0  0  0  0  0  0  0  0
  1 15  1  0  0  0  0
  1  2  2  0  0  0  0
  2 30  1  0  0  0  0
  3  2  1  0  0  0  0
  3  4  1  0  0  0  0
  4  5  2  0  0  0  0
  6 11  1  0  0  0  0
  6  7  1  0  0  0  0
  6  4  1  0  0  0  0
  7  3  1  0  0  0  0
  7 12  1  1  0  0  0
  8  7  1  0  0  0  0
  9  8  1  0  0  0  0
  9  1  1  0  0  0  0
 10  6  1  0  0  0  0
 13  9  1  0  0  0  0
 14  9  1  0  0  0  0
 15 16  1  0  0  0  0
 17 15  1  0  0  0  0
 18 15  1  0  0  0  0
 19 20  1  0  0  0  0
 20 21  2  0  0  0  0
 20 26  1  0  0  0  0
 21 18  1  0  0  0  0
 22 21  1  0  0  0  0
 23 22  2  0  0  0  0
 24 23  1  0  0  0  0
 24 19  2  0  0  0  0
 25 19  1  0  0  0  0
 27 23  1  0  0  0  0
 28 27  1  0  0  0  0
 29 27  2  0  0  0  0
 30 31  2  0  0  0  0
 30 32  1  0  0  0  0
 32 33  1  0  0  0  0
M  END
>  <minimizedAffinity>
-4.82242012

$$$$

 OpenBabel03242511213D

 33 35  0  0  1  0  0  0  0  0999 V2000
   36.9240   30.0680   40.2790 C   0  0  0  0  0  0  0  0  0  0  0  0
   37.6840   30.3530   41.2920 C   0  0  0  0  0  0  0  0  0  0  0  0
   38.6770   31.3490   41.1980 N   0  0  0  0  0  0  0  0  0  0  0  0
   40.0560   31.7110   41.4430 C   0  0  0  0  0  0  0  0  0  0  0  0
   40.9460   31.3620   42.2800 O   0  0  0  0  0  0  0  0  0  0  0  0
   39.8840   32.6440   40.2750 C   0  0  0  0  0  0  0  0  0  0  0  0
   38.4140   32.6790   40.6360 C   0  0  1  0  0  0  0  0  0  0  0  0
   37.2530   32.5230   39.2790 S   0  0  0  0  0  0  0  0  0  0  0  0
   37.0060   30.7430   38.9700 C   0  0  0  0  0  0  0  0  0  0  0  0
   40.0340   32.1630   39.2840 H   0  0  0  0  0  0  0  0  0  0  0  0
   40.4360   33.5690   40.4370 H   0  0  0  0  0  0  0  0  0  0  0  0
   38.1560   33.3740   41.4510 H   0  0  0  0  0  0  0  0  0  0  0  0
   36.0690   30.6830   38.3900 H   0  0  0  0  0  0  0  0  0  0  0  0
   37.8060   30.3580   38.3220 H   0  0  0  0  0  0  0  0  0  0  0  0
   35.9130   29.0210   40.3970 C   0  0  0  0  0  0  0  0  0  0  0  0
   35.9990   28.5100   41.3940 H   0  0  0  0  0  0  0  0  0  0  0  0
   34.8790   29.3160   40.2960 H   0  0  0  0  0  0  0  0  0  0  0  0
   36.2090   27.7320   39.1260 S   0  0  0  0  0  0  0  0  0  0  0  0
   37.3880   25.0990   41.9710 C   0  0  0  0  0  0  0  0  0  0  0  0
   37.0850   26.3320   41.3210 C   0  0  0  0  0  0  0  0  0  0  0  0
   36.6040   26.2310   39.9860 C   0  0  0  0  0  0  0  0  0  0  0  0
   36.4650   25.0010   39.4250 N   0  0  0  0  0  0  0  0  0  0  0  0
   36.7670   23.8860   40.0910 C   0  0  0  0  0  0  0  0  0  0  0  0
   37.2230   23.9220   41.3470 N   0  0  0  0  0  0  0  0  0  0  0  0
   37.7540   25.1590   42.9860 H   0  0  0  0  0  0  0  0  0  0  0  0
   37.2160   27.2850   41.8210 H   0  0  0  0  0  0  0  0  0  0  0  0
   36.6010   22.5890   39.4440 C   0  0  0  0  0  0  0  0  0  0  0  0
   36.7410   21.6520   39.9650 H   0  0  0  0  0  0  0  0  0  0  0  0
   36.2800   22.4930   38.2300 O   0  0  0  0  0  0  0  0  0  0  0  0
   37.5110   29.6290   42.5640 C   0  0  0  0  0  0  0  0  0  0  0  0
   38.4550   29.1120   43.2280 O   0  0  0  0  0  0  0  0  0  0  0  0
   37.0490   29.0320   43.6790 O   0  0  0  0  0  0  0  0  0  0  0  0
   36.1510   29.1240   44.1230 H   0  0  0  0  0  0  0  0  0  0  0  0
  1 15  1  0  0  0  0
  1  2  2  0  0  0  0
  2 30  1  0  0  0  0
  3  2  1  0  0  0  0
  3  4  1  0  0  0  0
  4  5  2  0  0  0  0
  6 11  1  0  0  0  0
  6  7  1  0  0  0  0
  6  4  1  0  0  0  0
  7  3  1  0  0  0  0
  7 12  1  1  0  0  0
  8  7  1  0  0  0  0
  9  8  1  0  0  0  0
  9  1  1  0  0  0  0
 10  6  1  0  0  0  0
 13  9  1  0  0  0  0
 14  9  1  0  0  0  0
 15 16  1  0  0  0  0
 17 15  1  0  0  0  0
 18 21  1  0  0  0  0
 18 15  1  0  0  0  0
 19 25  1  0  0  0  0
 20 26  1  0  0  0  0
 20 19  2  0  0  0  0
 21 20  1  0  0  0  0
 22 21  2  0  0  0  0
 22 23  1  0  0  0  0
 23 24  2  0  0  0  0
 24 19  1  0  0  0  0
 27 28  1  0  0  0  0
 27 23  1  0  0  0  0
 29 27  2  0  0  0  0
 30 31  2  0  0  0  0
 30 32  1  0  0  0  0
 32 33  1  0  0  0  0
M  END
>  <minimizedAffinity>
-4.81004906

$$$$

 OpenBabel03242511213D

 33 35  0  0  1  0  0  0  0  0999 V2000
   36.9380   29.7210   40.2190 C   0  0  0  0  0  0  0  0  0  0  0  0
   37.6160   30.0990   41.2600 C   0  0  0  0  0  0  0  0  0  0  0  0
   38.5680   31.1340   41.1690 N   0  0  0  0  0  0  0  0  0  0  0  0
   39.9110   31.5740   41.4800 C   0  0  0  0  0  0  0  0  0  0  0  0
   40.7580   31.3170   42.3910 O   0  0  0  0  0  0  0  0  0  0  0  0
   39.7770   32.4290   40.2480 C   0  0  0  0  0  0  0  0  0  0  0  0
   38.2870   32.4150   40.5120 C   0  0  1  0  0  0  0  0  0  0  0  0
   37.2260   32.1260   39.0950 S   0  0  0  0  0  0  0  0  0  0  0  0
   37.0780   30.3220   38.8790 C   0  0  0  0  0  0  0  0  0  0  0  0
   40.0140   31.8990   39.3000 H   0  0  0  0  0  0  0  0  0  0  0  0
   40.2770   33.3870   40.3890 H   0  0  0  0  0  0  0  0  0  0  0  0
   37.9450   33.1430   41.2650 H   0  0  0  0  0  0  0  0  0  0  0  0
   36.1850   30.1850   38.2450 H   0  0  0  0  0  0  0  0  0  0  0  0
   37.9350   29.9390   38.3080 H   0  0  0  0  0  0  0  0  0  0  0  0
   35.9680   28.6360   40.3350 C   0  0  0  0  0  0  0  0  0  0  0  0
   35.8470   28.3370   41.4120 H   0  0  0  0  0  0  0  0  0  0  0  0
   34.9720   28.8170   39.9580 H   0  0  0  0  0  0  0  0  0  0  0  0
   36.5920   27.1530   39.4530 S   0  0  0  0  0  0  0  0  0  0  0  0
   37.7400   24.3450   42.1390 C   0  0  0  0  0  0  0  0  0  0  0  0
   36.9360   25.0680   41.2080 C   0  0  0  0  0  0  0  0  0  0  0  0
   37.5420   26.2130   40.6200 C   0  0  0  0  0  0  0  0  0  0  0  0
   38.8140   26.5410   40.9700 N   0  0  0  0  0  0  0  0  0  0  0  0
   39.5090   25.8200   41.8500 C   0  0  0  0  0  0  0  0  0  0  0  0
   38.9900   24.7340   42.4330 N   0  0  0  0  0  0  0  0  0  0  0  0
   37.2940   23.4720   42.5950 H   0  0  0  0  0  0  0  0  0  0  0  0
   35.9260   24.7570   40.9680 H   0  0  0  0  0  0  0  0  0  0  0  0
   40.8720   26.2140   42.1930 C   0  0  0  0  0  0  0  0  0  0  0  0
   41.6980   25.5160   42.2050 H   0  0  0  0  0  0  0  0  0  0  0  0
   41.1580   27.4020   42.4960 O   0  0  0  0  0  0  0  0  0  0  0  0
   37.3900   29.4420   42.5590 C   0  0  0  0  0  0  0  0  0  0  0  0
   38.3090   29.0080   43.3120 O   0  0  0  0  0  0  0  0  0  0  0  0
   36.8800   28.8900   43.6770 O   0  0  0  0  0  0  0  0  0  0  0  0
   35.9520   28.9660   44.0560 H   0  0  0  0  0  0  0  0  0  0  0  0
  1 15  1  0  0  0  0
  1  2  2  0  0  0  0
  2 30  1  0  0  0  0
  3  2  1  0  0  0  0
  3  4  1  0  0  0  0
  4  5  2  0  0  0  0
  6 11  1  0  0  0  0
  6  7  1  0  0  0  0
  6  4  1  0  0  0  0
  7  3  1  0  0  0  0
  7 12  1  1  0  0  0
  8  7  1  0  0  0  0
  9  8  1  0  0  0  0
  9  1  1  0  0  0  0
 10  6  1  0  0  0  0
 13  9  1  0  0  0  0
 14  9  1  0  0  0  0
 15 16  1  0  0  0  0
 17 15  1  0  0  0  0
 18 15  1  0  0  0  0
 18 21  1  0  0  0  0
 19 24  1  0  0  0  0
 19 25  1  0  0  0  0
 20 19  2  0  0  0  0
 21 22  2  0  0  0  0
 21 20  1  0  0  0  0
 22 23  1  0  0  0  0
 23 27  1  0  0  0  0
 23 24  2  0  0  0  0
 26 20  1  0  0  0  0
 27 28  1  0  0  0  0
 27 29  2  0  0  0  0
 30 31  2  0  0  0  0
 30 32  1  0  0  0  0
 32 33  1  0  0  0  0
M  END
>  <minimizedAffinity>
-4.75902987

$$$$
