
 OpenBabel03242512283D

 21 22  0  0  1  0  0  0  0  0999 V2000
   37.1540   32.4560   39.5160 C   0  0  0  0  0  0  0  0  0  0  0  0
   37.5060   32.0830   38.2160 C   0  0  0  0  0  0  0  0  0  0  0  0
   37.5000   30.7210   37.8900 C   0  0  0  0  0  0  0  0  0  0  0  0
   37.1510   29.8540   38.8630 N   0  0  0  0  0  0  0  0  0  0  0  0
   36.8170   30.2170   40.0950 C   0  0  0  0  0  0  0  0  0  0  0  0
   36.8230   31.5350   40.4120 N   0  0  0  0  0  0  0  0  0  0  0  0
   37.1590   33.8340   39.8490 N   0  0  0  0  0  0  0  0  0  0  0  0
   37.7670   32.8640   37.5260 H   0  0  0  0  0  0  0  0  0  0  0  0
   37.7730   30.4270   36.8830 H   0  0  0  0  0  0  0  0  0  0  0  0
   37.2180   34.5690   39.1040 H   0  0  0  0  0  0  0  0  0  0  0  0
   37.1030   34.1180   40.8610 H   0  0  0  0  0  0  0  0  0  0  0  0
   36.4430   29.2760   41.1320 C   0  0  0  0  0  0  0  0  0  0  0  0
   35.3690   28.6020   41.0750 O   0  0  0  0  0  0  0  0  0  0  0  0
   37.3190   29.0760   42.2970 C   0  0  1  0  0  3  0  0  0  0  0  0
   36.9930   27.8910   43.1450 C   0  0  0  0  0  3  0  0  0  0  0  0
   36.3460   28.2050   44.0040 H   0  0  0  0  0  0  0  0  0  0  0  0
   38.3600   27.4570   43.6460 C   0  0  0  0  0  3  0  0  0  0  0  0
   38.5670   26.4130   43.3380 H   0  0  0  0  0  0  0  0  0  0  0  0
   39.2870   28.3750   43.1450 O   0  0  0  0  0  0  0  0  0  0  0  0
   38.7570   28.8140   41.9180 C   0  0  0  0  0  3  0  0  0  0  0  0
   39.2210   29.7800   41.6500 H   0  0  0  0  0  0  0  0  0  0  0  0
  1  7  1  0  0  0  0
  1  6  1  0  0  0  0
  2  1  2  0  0  0  0
  3  2  1  0  0  0  0
  3  4  2  0  0  0  0
  4  5  1  0  0  0  0
  5  6  2  0  0  0  0
  5 12  1  0  0  0  0
  7 11  1  0  0  0  0
  8  2  1  0  0  0  0
  9  3  1  0  0  0  0
 10  7  1  0  0  0  0
 13 12  2  0  0  0  0
 14 12  1  6  0  0  0
 14 15  1  0  0  0  0
 15 17  1  0  0  0  0
 15 16  1  0  0  0  0
 18 17  1  0  0  0  0
 19 17  1  0  0  0  0
 20 14  1  0  0  0  0
 20 19  1  0  0  0  0
 21 20  1  0  0  0  0
M  END
>  <minimizedAffinity>
-4.48982716

$$$$

 OpenBabel03242512283D

 21 22  0  0  1  0  0  0  0  0999 V2000
   38.6940   24.2650   42.1570 C   0  0  0  0  0  0  0  0  0  0  0  0
   39.8780   24.3880   42.8890 C   0  0  0  0  0  0  0  0  0  0  0  0
   40.1080   25.5820   43.5840 C   0  0  0  0  0  0  0  0  0  0  0  0
   39.1620   26.5410   43.4990 N   0  0  0  0  0  0  0  0  0  0  0  0
   38.0400   26.4140   42.8020 C   0  0  0  0  0  0  0  0  0  0  0  0
   37.8160   25.2600   42.1280 N   0  0  0  0  0  0  0  0  0  0  0  0
   38.4570   23.0580   41.4520 N   0  0  0  0  0  0  0  0  0  0  0  0
   40.5580   23.5580   42.8810 H   0  0  0  0  0  0  0  0  0  0  0  0
   41.0260   25.6820   44.1530 H   0  0  0  0  0  0  0  0  0  0  0  0
   39.0370   22.2050   41.6330 H   0  0  0  0  0  0  0  0  0  0  0  0
   37.6860   23.0240   40.7360 H   0  0  0  0  0  0  0  0  0  0  0  0
   37.0310   27.4510   42.7180 C   0  0  0  0  0  0  0  0  0  0  0  0
   36.0830   27.5380   43.5580 O   0  0  0  0  0  0  0  0  0  0  0  0
   37.0830   28.4460   41.6360 C   0  0  1  0  0  3  0  0  0  0  0  0
   35.7690   28.7810   41.0120 C   0  0  0  0  0  3  0  0  0  0  0  0
   35.6160   28.1610   40.0920 H   0  0  0  0  0  0  0  0  0  0  0  0
   35.9430   30.2430   40.6400 C   0  0  0  0  0  3  0  0  0  0  0  0
   35.1700   30.8610   41.1410 H   0  0  0  0  0  0  0  0  0  0  0  0
   37.2470   30.6000   40.9890 O   0  0  0  0  0  0  0  0  0  0  0  0
   37.5730   29.7980   42.0980 C   0  0  0  0  0  3  0  0  0  0  0  0
   38.6720   29.7480   42.1960 H   0  0  0  0  0  0  0  0  0  0  0  0
  1  2  1  0  0  0  0
  2  3  2  0  0  0  0
  3  9  1  0  0  0  0
  4  3  1  0  0  0  0
  5  4  2  0  0  0  0
  6  1  2  0  0  0  0
  6  5  1  0  0  0  0
  7 10  1  0  0  0  0
  7  1  1  0  0  0  0
  8  2  1  0  0  0  0
 11  7  1  0  0  0  0
 12  5  1  0  0  0  0
 12 13  2  0  0  0  0
 14 20  1  0  0  0  0
 14 12  1  1  0  0  0
 15 14  1  0  0  0  0
 16 15  1  0  0  0  0
 17 19  1  0  0  0  0
 17 15  1  0  0  0  0
 17 18  1  0  0  0  0
 19 20  1  0  0  0  0
 20 21  1  0  0  0  0
M  END
>  <minimizedAffinity>
-4.43607092

$$$$

 OpenBabel03242512283D

 21 22  0  0  1  0  0  0  0  0999 V2000
   39.4760   32.2550   38.3960 C   0  0  0  0  0  0  0  0  0  0  0  0
   40.3940   33.0210   39.1200 C   0  0  0  0  0  0  0  0  0  0  0  0
   40.3000   33.0240   40.5180 C   0  0  0  0  0  0  0  0  0  0  0  0
   39.3230   32.2800   41.0750 N   0  0  0  0  0  0  0  0  0  0  0  0
   38.4550   31.5550   40.3790 C   0  0  0  0  0  0  0  0  0  0  0  0
   38.5430   31.5510   39.0270 N   0  0  0  0  0  0  0  0  0  0  0  0
   39.5660   32.2490   36.9820 N   0  0  0  0  0  0  0  0  0  0  0  0
   41.1290   33.5730   38.5670 H   0  0  0  0  0  0  0  0  0  0  0  0
   41.0100   33.6170   41.0830 H   0  0  0  0  0  0  0  0  0  0  0  0
   40.4120   32.6290   36.4940 H   0  0  0  0  0  0  0  0  0  0  0  0
   38.7700   31.8540   36.4180 H   0  0  0  0  0  0  0  0  0  0  0  0
   37.4080   30.7600   40.9900 C   0  0  0  0  0  0  0  0  0  0  0  0
   36.2130   31.1760   41.0810 O   0  0  0  0  0  0  0  0  0  0  0  0
   37.7140   29.4250   41.5280 C   0  0  1  0  0  3  0  0  0  0  0  0
   38.1350   29.3950   42.9600 C   0  0  0  0  0  3  0  0  0  0  0  0
   39.2530   29.4010   43.0280 H   0  0  0  0  0  0  0  0  0  0  0  0
   37.5840   28.0630   43.4390 C   0  0  0  0  0  3  0  0  0  0  0  0
   36.8820   28.2190   44.2830 H   0  0  0  0  0  0  0  0  0  0  0  0
   36.9900   27.4480   42.3340 O   0  0  0  0  0  0  0  0  0  0  0  0
   36.5220   28.4980   41.5240 C   0  0  0  0  0  3  0  0  0  0  0  0
   36.3830   28.1250   40.4940 H   0  0  0  0  0  0  0  0  0  0  0  0
  1  6  2  0  0  0  0
  1  2  1  0  0  0  0
  2  3  2  0  0  0  0
  3  4  1  0  0  0  0
  3  9  1  0  0  0  0
  5 12  1  0  0  0  0
  5  4  2  0  0  0  0
  6  5  1  0  0  0  0
  7  1  1  0  0  0  0
  8  2  1  0  0  0  0
 10  7  1  0  0  0  0
 11  7  1  0  0  0  0
 12 13  2  0  0  0  0
 14 12  1  1  0  0  0
 14 15  1  0  0  0  0
 15 16  1  0  0  0  0
 15 17  1  0  0  0  0
 17 18  1  0  0  0  0
 19 17  1  0  0  0  0
 20 14  1  0  0  0  0
 20 19  1  0  0  0  0
 21 20  1  0  0  0  0
M  END
>  <minimizedAffinity>
-4.37504148

$$$$

 OpenBabel03242512283D

 21 22  0  0  1  0  0  0  0  0999 V2000
   38.7690   24.3240   42.2940 C   0  0  0  0  0  0  0  0  0  0  0  0
   38.3280   23.6540   41.1490 C   0  0  0  0  0  0  0  0  0  0  0  0
   37.3490   24.2670   40.3570 C   0  0  0  0  0  0  0  0  0  0  0  0
   36.8950   25.4740   40.7550 N   0  0  0  0  0  0  0  0  0  0  0  0
   37.3210   26.1030   41.8430 C   0  0  0  0  0  0  0  0  0  0  0  0
   38.2680   25.5110   42.6120 N   0  0  0  0  0  0  0  0  0  0  0  0
   39.7590   23.7080   43.0990 N   0  0  0  0  0  0  0  0  0  0  0  0
   38.7620   22.6970   40.9330 H   0  0  0  0  0  0  0  0  0  0  0  0
   37.0030   23.7510   39.4680 H   0  0  0  0  0  0  0  0  0  0  0  0
   40.3000   22.8810   42.7500 H   0  0  0  0  0  0  0  0  0  0  0  0
   39.9510   24.0900   44.0600 H   0  0  0  0  0  0  0  0  0  0  0  0
   36.8260   27.4000   42.2610 C   0  0  0  0  0  0  0  0  0  0  0  0
   36.2320   27.5680   43.3700 O   0  0  0  0  0  0  0  0  0  0  0  0
   37.0050   28.5730   41.3920 C   0  0  1  0  0  3  0  0  0  0  0  0
   35.7450   29.1710   40.8600 C   0  0  0  0  0  3  0  0  0  0  0  0
   35.5320   28.7640   39.8390 H   0  0  0  0  0  0  0  0  0  0  0  0
   36.0890   30.6480   40.7770 C   0  0  0  0  0  3  0  0  0  0  0  0
   35.3870   31.2410   41.3980 H   0  0  0  0  0  0  0  0  0  0  0  0
   37.4220   30.7780   41.1750 O   0  0  0  0  0  0  0  0  0  0  0  0
   37.6410   29.7440   42.1030 C   0  0  0  0  0  3  0  0  0  0  0  0
   38.7260   29.5500   42.1770 H   0  0  0  0  0  0  0  0  0  0  0  0
  1  6  1  0  0  0  0
  1  7  1  0  0  0  0
  2  1  2  0  0  0  0
  3  4  2  0  0  0  0
  3  2  1  0  0  0  0
  4  5  1  0  0  0  0
  5 12  1  0  0  0  0
  5  6  2  0  0  0  0
  7 11  1  0  0  0  0
  8  2  1  0  0  0  0
  9  3  1  0  0  0  0
 10  7  1  0  0  0  0
 12 13  2  0  0  0  0
 14 20  1  0  0  0  0
 14 12  1  1  0  0  0
 15 14  1  0  0  0  0
 16 15  1  0  0  0  0
 17 15  1  0  0  0  0
 17 19  1  0  0  0  0
 17 18  1  0  0  0  0
 19 20  1  0  0  0  0
 20 21  1  0  0  0  0
M  END
>  <minimizedAffinity>
-4.35509396

$$$$

 OpenBabel03242512283D

 21 22  0  0  1  0  0  0  0  0999 V2000
   37.4980   32.4540   39.7710 C   0  0  0  0  0  0  0  0  0  0  0  0
   37.5150   31.6440   38.6330 C   0  0  0  0  0  0  0  0  0  0  0  0
   38.1560   30.4010   38.7120 C   0  0  0  0  0  0  0  0  0  0  0  0
   38.7170   30.0670   39.8930 N   0  0  0  0  0  0  0  0  0  0  0  0
   38.6940   30.8430   40.9690 C   0  0  0  0  0  0  0  0  0  0  0  0
   38.0760   32.0470   40.8950 N   0  0  0  0  0  0  0  0  0  0  0  0
   36.8510   33.7130   39.6950 N   0  0  0  0  0  0  0  0  0  0  0  0
   37.0350   32.0160   37.7480 H   0  0  0  0  0  0  0  0  0  0  0  0
   38.1720   29.7690   37.8310 H   0  0  0  0  0  0  0  0  0  0  0  0
   36.2240   33.9500   38.8900 H   0  0  0  0  0  0  0  0  0  0  0  0
   37.0050   34.4170   40.4630 H   0  0  0  0  0  0  0  0  0  0  0  0
   39.3010   30.4740   42.2330 C   0  0  0  0  0  0  0  0  0  0  0  0
   40.3540   31.0360   42.6640 O   0  0  0  0  0  0  0  0  0  0  0  0
   38.6980   29.4180   43.0600 C   0  0  1  0  0  3  0  0  0  0  0  0
   37.2860   29.0710   42.7230 C   0  0  0  0  0  3  0  0  0  0  0  0
   36.5860   29.6390   43.3870 H   0  0  0  0  0  0  0  0  0  0  0  0
   37.2250   27.5860   43.0400 C   0  0  0  0  0  3  0  0  0  0  0  0
   36.9380   27.0130   42.1360 H   0  0  0  0  0  0  0  0  0  0  0  0
   38.4760   27.2270   43.5480 O   0  0  0  0  0  0  0  0  0  0  0  0
   39.3980   28.0860   42.9220 C   0  0  0  0  0  3  0  0  0  0  0  0
   40.3230   28.1220   43.5230 H   0  0  0  0  0  0  0  0  0  0  0  0
  1  6  1  0  0  0  0
  2  3  1  0  0  0  0
  2  1  2  0  0  0  0
  3  4  2  0  0  0  0
  4  5  1  0  0  0  0
  5 12  1  0  0  0  0
  6  5  2  0  0  0  0
  7  1  1  0  0  0  0
  7 11  1  0  0  0  0
  8  2  1  0  0  0  0
  9  3  1  0  0  0  0
 10  7  1  0  0  0  0
 12 13  2  0  0  0  0
 14 12  1  6  0  0  0
 15 17  1  0  0  0  0
 15 14  1  0  0  0  0
 15 16  1  0  0  0  0
 17 19  1  0  0  0  0
 18 17  1  0  0  0  0
 20 14  1  0  0  0  0
 20 21  1  0  0  0  0
 20 19  1  0  0  0  0
M  END
>  <minimizedAffinity>
-4.30284023

$$$$

 OpenBabel03242512283D

 21 22  0  0  1  0  0  0  0  0999 V2000
   37.9700   31.2830   37.3910 C   0  0  0  0  0  0  0  0  0  0  0  0
   37.2220   30.4910   36.5140 C   0  0  0  0  0  0  0  0  0  0  0  0
   36.3040   29.5840   37.0570 C   0  0  0  0  0  0  0  0  0  0  0  0
   36.2020   29.5350   38.4020 N   0  0  0  0  0  0  0  0  0  0  0  0
   36.9160   30.2910   39.2270 C   0  0  0  0  0  0  0  0  0  0  0  0
   37.8060   31.1690   38.7030 N   0  0  0  0  0  0  0  0  0  0  0  0
   38.9000   32.2020   36.8460 N   0  0  0  0  0  0  0  0  0  0  0  0
   37.3890   30.6180   35.4610 H   0  0  0  0  0  0  0  0  0  0  0  0
   35.7220   28.9680   36.3810 H   0  0  0  0  0  0  0  0  0  0  0  0
   38.8880   32.4410   35.8260 H   0  0  0  0  0  0  0  0  0  0  0  0
   39.6120   32.6490   37.4790 H   0  0  0  0  0  0  0  0  0  0  0  0
   36.7980   30.2290   40.6700 C   0  0  0  0  0  0  0  0  0  0  0  0
   36.1800   31.1160   41.3340 O   0  0  0  0  0  0  0  0  0  0  0  0
   37.4070   29.1140   41.4130 C   0  0  1  0  0  3  0  0  0  0  0  0
   38.0040   29.4760   42.7320 C   0  0  0  0  0  3  0  0  0  0  0  0
   39.1010   29.6630   42.6140 H   0  0  0  0  0  0  0  0  0  0  0  0
   37.7680   28.2220   43.5570 C   0  0  0  0  0  3  0  0  0  0  0  0
   37.1620   28.4610   44.4540 H   0  0  0  0  0  0  0  0  0  0  0  0
   37.1600   27.2890   42.7130 O   0  0  0  0  0  0  0  0  0  0  0  0
   36.4110   28.0440   41.7930 C   0  0  0  0  0  3  0  0  0  0  0  0
   36.2130   27.4280   40.8980 H   0  0  0  0  0  0  0  0  0  0  0  0
  1  6  1  0  0  0  0
  2  3  1  0  0  0  0
  2  1  2  0  0  0  0
  3  4  2  0  0  0  0
  4  5  1  0  0  0  0
  5 12  1  0  0  0  0
  6  5  2  0  0  0  0
  7  1  1  0  0  0  0
  7 11  1  0  0  0  0
  8  2  1  0  0  0  0
  9  3  1  0  0  0  0
 10  7  1  0  0  0  0
 12 13  2  0  0  0  0
 14 12  1  1  0  0  0
 14 20  1  0  0  0  0
 14 15  1  0  0  0  0
 15 17  1  0  0  0  0
 16 15  1  0  0  0  0
 17 18  1  0  0  0  0
 19 17  1  0  0  0  0
 20 19  1  0  0  0  0
 21 20  1  0  0  0  0
M  END
>  <minimizedAffinity>
-4.16867495

$$$$

 OpenBabel03242512283D

 21 22  0  0  1  0  0  0  0  0999 V2000
   37.5110   30.6440   40.9900 C   0  0  0  0  0  0  0  0  0  0  0  0
   36.4260   30.8120   40.1260 C   0  0  0  0  0  0  0  0  0  0  0  0
   35.4600   29.8000   40.0670 C   0  0  0  0  0  0  0  0  0  0  0  0
   35.6440   28.7210   40.8570 N   0  0  0  0  0  0  0  0  0  0  0  0
   36.6780   28.5700   41.6750 C   0  0  0  0  0  0  0  0  0  0  0  0
   37.6150   29.5480   41.7330 N   0  0  0  0  0  0  0  0  0  0  0  0
   38.4910   31.6660   41.0530 N   0  0  0  0  0  0  0  0  0  0  0  0
   36.3860   31.7140   39.5450 H   0  0  0  0  0  0  0  0  0  0  0  0
   34.6160   29.9270   39.3980 H   0  0  0  0  0  0  0  0  0  0  0  0
   38.3150   32.6090   40.6320 H   0  0  0  0  0  0  0  0  0  0  0  0
   39.4090   31.4690   41.5300 H   0  0  0  0  0  0  0  0  0  0  0  0
   36.8650   27.4060   42.5190 C   0  0  0  0  0  0  0  0  0  0  0  0
   36.3600   27.3280   43.6800 O   0  0  0  0  0  0  0  0  0  0  0  0
   37.6620   26.2670   42.0370 C   0  0  1  0  0  3  0  0  0  0  0  0
   38.9380   26.0230   42.7740 C   0  0  0  0  0  3  0  0  0  0  0  0
   39.7870   26.5190   42.2380 H   0  0  0  0  0  0  0  0  0  0  0  0
   39.0770   24.5120   42.7020 C   0  0  0  0  0  3  0  0  0  0  0  0
   39.1180   24.0820   43.7230 H   0  0  0  0  0  0  0  0  0  0  0  0
   38.0020   24.0400   41.9460 O   0  0  0  0  0  0  0  0  0  0  0  0
   36.9500   24.9440   42.1820 C   0  0  0  0  0  3  0  0  0  0  0  0
   36.2130   24.8610   41.3630 H   0  0  0  0  0  0  0  0  0  0  0  0
  1  7  1  0  0  0  0
  1  6  1  0  0  0  0
  2  1  2  0  0  0  0
  3  2  1  0  0  0  0
  3  4  2  0  0  0  0
  4  5  1  0  0  0  0
  5  6  2  0  0  0  0
  5 12  1  0  0  0  0
  7 11  1  0  0  0  0
  8  2  1  0  0  0  0
  9  3  1  0  0  0  0
 10  7  1  0  0  0  0
 12 13  2  0  0  0  0
 14 20  1  0  0  0  0
 14 12  1  1  0  0  0
 14 15  1  0  0  0  0
 16 15  1  0  0  0  0
 17 15  1  0  0  0  0
 17 18  1  0  0  0  0
 19 20  1  0  0  0  0
 19 17  1  0  0  0  0
 21 20  1  0  0  0  0
M  END
>  <minimizedAffinity>
-4.15496683

$$$$

 OpenBabel03242512283D

 21 22  0  0  1  0  0  0  0  0999 V2000
   40.1380   32.4170   38.2590 C   0  0  0  0  0  0  0  0  0  0  0  0
   41.0340   33.3460   38.7940 C   0  0  0  0  0  0  0  0  0  0  0  0
   41.1720   33.4110   40.1870 C   0  0  0  0  0  0  0  0  0  0  0  0
   40.4240   32.5640   40.9230 N   0  0  0  0  0  0  0  0  0  0  0  0
   39.5750   31.6830   40.4060 C   0  0  0  0  0  0  0  0  0  0  0  0
   39.4400   31.6200   39.0590 N   0  0  0  0  0  0  0  0  0  0  0  0
   39.9960   32.3480   36.8510 N   0  0  0  0  0  0  0  0  0  0  0  0
   41.5760   33.9690   38.1090 H   0  0  0  0  0  0  0  0  0  0  0  0
   41.8660   34.1300   40.6060 H   0  0  0  0  0  0  0  0  0  0  0  0
   40.6820   32.8210   36.2150 H   0  0  0  0  0  0  0  0  0  0  0  0
   39.1870   31.8130   36.4420 H   0  0  0  0  0  0  0  0  0  0  0  0
   38.7760   30.7780   41.2070 C   0  0  0  0  0  0  0  0  0  0  0  0
   39.0510   30.5320   42.4220 O   0  0  0  0  0  0  0  0  0  0  0  0
   37.6040   30.1100   40.6190 C   0  0  1  0  0  3  0  0  0  0  0  0
   37.3390   28.7280   41.1180 C   0  0  0  0  0  3  0  0  0  0  0  0
   37.7980   27.9790   40.4240 H   0  0  0  0  0  0  0  0  0  0  0  0
   35.8240   28.6410   41.0620 C   0  0  0  0  0  3  0  0  0  0  0  0
   35.4140   28.4260   42.0690 H   0  0  0  0  0  0  0  0  0  0  0  0
   35.3670   29.8480   40.5260 O   0  0  0  0  0  0  0  0  0  0  0  0
   36.3050   30.8170   40.9260 C   0  0  0  0  0  3  0  0  0  0  0  0
   36.2260   31.6920   40.2570 H   0  0  0  0  0  0  0  0  0  0  0  0
  1  2  2  0  0  0  0
  1  6  1  0  0  0  0
  2  3  1  0  0  0  0
  3  9  1  0  0  0  0
  3  4  2  0  0  0  0
  5  4  1  0  0  0  0
  5 12  1  0  0  0  0
  6  5  2  0  0  0  0
  7  1  1  0  0  0  0
  8  2  1  0  0  0  0
 10  7  1  0  0  0  0
 11  7  1  0  0  0  0
 12 13  2  0  0  0  0
 14 20  1  0  0  0  0
 14 15  1  0  0  0  0
 14 12  1  1  0  0  0
 16 15  1  0  0  0  0
 17 15  1  0  0  0  0
 17 18  1  0  0  0  0
 19 20  1  0  0  0  0
 19 17  1  0  0  0  0
 21 20  1  0  0  0  0
M  END
>  <minimizedAffinity>
-4.0609827

$$$$

 OpenBabel03242512283D

 21 22  0  0  1  0  0  0  0  0999 V2000
   35.6580   29.0730   39.6150 C   0  0  0  0  0  0  0  0  0  0  0  0
   36.0280   30.4170   39.7170 C   0  0  0  0  0  0  0  0  0  0  0  0
   36.7770   30.8180   40.8310 C   0  0  0  0  0  0  0  0  0  0  0  0
   37.0940   29.8700   41.7380 N   0  0  0  0  0  0  0  0  0  0  0  0
   36.7390   28.5950   41.6320 C   0  0  0  0  0  0  0  0  0  0  0  0
   36.0130   28.2060   40.5550 N   0  0  0  0  0  0  0  0  0  0  0  0
   34.9010   28.6640   38.4890 N   0  0  0  0  0  0  0  0  0  0  0  0
   35.7180   31.0820   38.9330 H   0  0  0  0  0  0  0  0  0  0  0  0
   37.0650   31.8600   40.9150 H   0  0  0  0  0  0  0  0  0  0  0  0
   34.7950   29.2880   37.6540 H   0  0  0  0  0  0  0  0  0  0  0  0
   34.4400   27.7180   38.4970 H   0  0  0  0  0  0  0  0  0  0  0  0
   37.0850   27.5860   42.6130 C   0  0  0  0  0  0  0  0  0  0  0  0
   36.3390   27.3290   43.6060 O   0  0  0  0  0  0  0  0  0  0  0  0
   38.3340   26.8210   42.4750 C   0  0  1  0  0  3  0  0  0  0  0  0
   39.2170   26.8200   43.6790 C   0  0  0  0  0  3  0  0  0  0  0  0
   39.9940   27.6210   43.5810 H   0  0  0  0  0  0  0  0  0  0  0  0
   39.8640   25.4470   43.6120 C   0  0  0  0  0  3  0  0  0  0  0  0
   39.6380   24.8710   44.5330 H   0  0  0  0  0  0  0  0  0  0  0  0
   39.3960   24.8320   42.4480 O   0  0  0  0  0  0  0  0  0  0  0  0
   38.1030   25.3470   42.2450 C   0  0  0  0  0  3  0  0  0  0  0  0
   37.8220   25.2070   41.1860 H   0  0  0  0  0  0  0  0  0  0  0  0
  1  2  2  0  0  0  0
  1  6  1  0  0  0  0
  2  3  1  0  0  0  0
  3  9  1  0  0  0  0
  3  4  2  0  0  0  0
  5  4  1  0  0  0  0
  5 12  1  0  0  0  0
  6  5  2  0  0  0  0
  7 11  1  0  0  0  0
  7  1  1  0  0  0  0
  8  2  1  0  0  0  0
 10  7  1  0  0  0  0
 12 13  2  0  0  0  0
 14 12  1  1  0  0  0
 14 15  1  0  0  0  0
 16 15  1  0  0  0  0
 17 15  1  0  0  0  0
 17 18  1  0  0  0  0
 19 17  1  0  0  0  0
 20 19  1  0  0  0  0
 20 14  1  0  0  0  0
 21 20  1  0  0  0  0
M  END
>  <minimizedAffinity>
-4.03923988

$$$$
