
 OpenBabel03242520453D

 21 22  0  0  1  0  0  0  0  0999 V2000
   44.9650   35.0430   44.1690 C   0  0  0  0  0  0  0  0  0  0  0  0
   46.0100   35.0040   43.2130 C   0  0  0  0  0  0  0  0  0  0  0  0
   47.1050   34.1810   43.4630 C   0  0  0  0  0  0  0  0  0  0  0  0
   47.1270   33.4600   44.5950 N   0  0  0  0  0  0  0  0  0  0  0  0
   46.1080   33.5120   45.5020 C   0  0  0  0  0  0  0  0  0  0  0  0
   45.0430   34.3020   45.2770 N   0  0  0  0  0  0  0  0  0  0  0  0
   43.8480   35.8680   43.9380 N   0  0  0  0  0  0  0  0  0  0  0  0
   45.9190   35.6170   42.3240 H   0  0  0  0  0  0  0  0  0  0  0  0
   46.2580   32.8810   46.3640 H   0  0  0  0  0  0  0  0  0  0  0  0
   43.4600   36.5820   44.5970 H   0  0  0  0  0  0  0  0  0  0  0  0
   43.4440   35.6570   42.9810 H   0  0  0  0  0  0  0  0  0  0  0  0
   48.1190   34.1940   42.4560 C   0  0  0  0  0  0  0  0  0  0  0  0
   48.9540   35.1070   42.2770 O   0  0  0  0  0  0  0  0  0  0  0  0
   48.0730   32.9490   41.6070 C   0  0  2  0  0  3  0  0  0  0  0  0
   49.1480   31.9770   41.9750 C   0  0  0  0  0  3  0  0  0  0  0  0
   49.6110   32.2450   42.9460 H   0  0  0  0  0  0  0  0  0  0  0  0
   50.1050   32.0870   40.8060 C   0  0  0  0  0  3  0  0  0  0  0  0
   50.7400   31.1840   40.7220 H   0  0  0  0  0  0  0  0  0  0  0  0
   49.2580   32.2620   39.7300 O   0  0  0  0  0  0  0  0  0  0  0  0
   48.4400   33.3030   40.1640 C   0  0  0  0  0  3  0  0  0  0  0  0
   47.5410   33.4570   39.5350 H   0  0  0  0  0  0  0  0  0  0  0  0
  1  6  1  0  0  0  0
  2  3  1  0  0  0  0
  2  1  2  0  0  0  0
  3  4  2  0  0  0  0
  4  5  1  0  0  0  0
  5  9  1  0  0  0  0
  6  5  2  0  0  0  0
  7  1  1  0  0  0  0
  7 10  1  0  0  0  0
  8  2  1  0  0  0  0
 11  7  1  0  0  0  0
 12  3  1  0  0  0  0
 13 12  2  0  0  0  0
 14 15  1  0  0  0  0
 14 12  1  1  0  0  0
 15 16  1  0  0  0  0
 17 15  1  0  0  0  0
 18 17  1  0  0  0  0
 19 20  1  0  0  0  0
 19 17  1  0  0  0  0
 20 14  1  0  0  0  0
 21 20  1  0  0  0  0
M  END
>  <minimizedAffinity>
-4.12745762

>  <minimizedRMSD>
2.05842042

$$$$
