
 OpenBabel03242523543D

 44 47  0  0  1  0  0  0  0  0999 V2000
   42.8000   34.4540   38.7660 C   0  0  1  0  0  0  0  0  0  0  0  0
   42.9820   35.1660   40.1010 C   0  0  1  0  0  0  0  0  0  0  0  0
   41.7110   35.4550   40.6260 O   0  0  0  0  0  0  0  0  0  0  0  0
   40.7850   35.7910   39.6360 C   0  0  0  0  0  0  0  0  0  0  0  0
   40.4230   34.6010   38.7710 C   0  0  2  0  0  0  0  0  0  0  0  0
   41.6010   33.5770   38.9200 C   0  0  1  0  0  0  0  0  0  0  0  0
   43.7220   33.8960   38.4990 H   0  0  0  0  0  0  0  0  0  0  0  0
   43.6070   36.0620   40.0310 H   0  0  0  0  0  0  0  0  0  0  0  0
   41.0990   36.6790   39.0620 H   0  0  0  0  0  0  0  0  0  0  0  0
   39.8710   36.0750   40.1740 H   0  0  0  0  0  0  0  0  0  0  0  0
   39.4900   34.1130   39.0940 H   0  0  0  0  0  0  0  0  0  0  0  0
   41.3980   33.3400   40.0150 H   0  0  0  0  0  0  0  0  0  0  0  0
   42.6060   35.3810   37.7310 O   0  0  0  0  0  0  0  0  0  0  0  0
   43.5080   35.7560   37.5520 H   0  0  0  0  0  0  0  0  0  0  0  0
   40.4350   34.9740   37.4340 O   0  0  0  0  0  0  0  0  0  0  0  0
   40.7140   34.2810   36.8130 H   0  0  0  0  0  0  0  0  0  0  0  0
   43.4930   34.1930   40.9710 O   0  0  0  0  0  0  0  0  0  0  0  0
   44.6070   34.3250   41.7030 C   0  0  0  0  0  0  0  0  0  0  0  0
   45.8660   34.4390   41.0950 C   0  0  0  0  0  0  0  0  0  0  0  0
   46.9780   34.5740   41.9120 C   0  0  0  0  0  0  0  0  0  0  0  0
   46.8180   34.5920   43.2840 N   0  0  0  0  0  0  0  0  0  0  0  0
   45.5870   34.4800   43.8330 C   0  0  0  0  0  0  0  0  0  0  0  0
   44.4860   34.3470   43.0510 N   0  0  0  0  0  0  0  0  0  0  0  0
   45.9880   34.4240   40.0210 H   0  0  0  0  0  0  0  0  0  0  0  0
   45.5430   34.5020   44.9110 H   0  0  0  0  0  0  0  0  0  0  0  0
   48.3570   34.6850   41.3300 C   0  0  0  0  0  0  0  0  0  0  0  0
   49.0710   36.0220   41.5210 C   0  0  0  0  0  0  0  0  0  0  0  0
   49.5070   34.6990   42.1760 C   0  0  0  0  0  0  0  0  0  0  0  0
   48.3780   34.3070   40.2890 H   0  0  0  0  0  0  0  0  0  0  0  0
   49.6500   36.3900   40.6760 H   0  0  0  0  0  0  0  0  0  0  0  0
   48.5590   36.7120   42.2060 H   0  0  0  0  0  0  0  0  0  0  0  0
   49.3870   34.6220   43.2880 H   0  0  0  0  0  0  0  0  0  0  0  0
   50.5030   34.3580   41.8380 H   0  0  0  0  0  0  0  0  0  0  0  0
   41.4240   32.6160   37.9950 O   0  0  0  0  0  0  0  0  0  0  0  0
   40.6070   31.5390   38.0280 C   0  0  0  0  0  0  0  0  0  0  0  0
   39.4510   31.5440   37.4090 O   0  0  0  0  0  0  0  0  0  0  0  0
   40.4600   30.1460   38.5500 C   0  0  2  0  0  3  0  0  0  0  0  0
   39.4500   29.4370   37.6410 C   0  0  0  0  0  3  0  0  0  0  0  0
   39.8980   29.0350   36.7290 H   0  0  0  0  0  0  0  0  0  0  0  0
   38.9740   28.3310   38.5680 C   0  0  0  0  0  3  0  0  0  0  0  0
   37.9250   28.0270   38.3680 H   0  0  0  0  0  0  0  0  0  0  0  0
   39.0330   28.8460   39.8520 O   0  0  0  0  0  0  0  0  0  0  0  0
   39.8140   29.9840   39.8640 C   0  0  0  0  0  3  0  0  0  0  0  0
   40.5170   29.9580   40.7220 H   0  0  0  0  0  0  0  0  0  0  0  0
  1  7  1  6  0  0  0
  1  6  1  0  0  0  0
  1  2  1  0  0  0  0
  2  8  1  6  0  0  0
  2  3  1  0  0  0  0
  2 17  1  0  0  0  0
  4 10  1  0  0  0  0
  4  3  1  0  0  0  0
  5  6  1  0  0  0  0
  5 11  1  1  0  0  0
  5  4  1  0  0  0  0
  6 12  1  1  0  0  0
  9  4  1  0  0  0  0
 13  1  1  0  0  0  0
 14 13  1  0  0  0  0
 15  5  1  0  0  0  0
 16 15  1  0  0  0  0
 17 18  1  0  0  0  0
 18 23  1  0  0  0  0
 19 18  2  0  0  0  0
 19 20  1  0  0  0  0
 20 21  2  0  0  0  0
 21 22  1  0  0  0  0
 22 25  1  0  0  0  0
 23 22  2  0  0  0  0
 24 19  1  0  0  0  0
 26 27  1  0  0  0  0
 26 20  1  0  0  0  0
 26 28  1  0  0  0  0
 27 28  1  0  0  0  0
 27 31  1  0  0  0  0
 28 32  1  0  0  0  0
 29 26  1  0  0  0  0
 30 27  1  0  0  0  0
 33 28  1  0  0  0  0
 34 35  1  0  0  0  0
 34  6  1  0  0  0  0
 36 35  2  0  0  0  0
 37 35  1  6  0  0  0
 37 43  1  0  0  0  0
 38 37  1  0  0  0  0
 38 40  1  0  0  0  0
 39 38  1  0  0  0  0
 40 42  1  0  0  0  0
 41 40  1  0  0  0  0
 42 43  1  0  0  0  0
 43 44  1  0  0  0  0
M  END
>  <minimizedAffinity>
-5.83047867

>  <minimizedRMSD>
0.441894978

$$$$
