
 OpenBabel03242512053D

 19 20  0  0  1  0  0  0  0  0999 V2000
   37.1200   27.4810   42.5380 C   0  0  0  0  0  0  0  0  0  0  0  0
   36.2150   27.5890   43.4000 O   0  0  0  0  0  0  0  0  0  0  0  0
   37.9690   25.1990   42.1310 C   0  0  0  0  0  0  0  0  0  0  0  0
   38.0970   26.4610   42.7270 C   0  0  0  0  0  0  0  0  0  0  0  0
   39.2290   26.6870   43.5200 C   0  0  0  0  0  0  0  0  0  0  0  0
   40.1460   25.6830   43.6780 N   0  0  0  0  0  0  0  0  0  0  0  0
   39.9700   24.4820   43.0780 C   0  0  0  0  0  0  0  0  0  0  0  0
   38.8970   24.2470   42.3160 N   0  0  0  0  0  0  0  0  0  0  0  0
   37.1290   24.9540   41.5110 H   0  0  0  0  0  0  0  0  0  0  0  0
   39.3350   27.6620   43.9850 H   0  0  0  0  0  0  0  0  0  0  0  0
   40.8050   23.8310   43.3290 H   0  0  0  0  0  0  0  0  0  0  0  0
   37.1510   28.4000   41.3700 C   0  0  1  0  0  3  0  0  0  0  0  0
   36.1540   28.0730   40.3080 C   0  0  0  0  0  3  0  0  0  0  0  0
   36.7060   28.1140   39.3230 H   0  0  0  0  0  0  0  0  0  0  0  0
   35.2210   29.2560   40.3490 C   0  0  0  0  0  3  0  0  0  0  0  0
   34.2940   29.0760   40.9350 H   0  0  0  0  0  0  0  0  0  0  0  0
   35.9260   30.3160   40.8590 O   0  0  0  0  0  0  0  0  0  0  0  0
   36.8680   29.8190   41.7470 C   0  0  0  0  0  3  0  0  0  0  0  0
   37.7570   30.4880   41.7170 H   0  0  0  0  0  0  0  0  0  0  0  0
  1  4  1  0  0  0  0
  1  2  2  0  0  0  0
  3  8  2  0  0  0  0
  3  4  1  0  0  0  0
  4  5  2  0  0  0  0
  5  6  1  0  0  0  0
  5 10  1  0  0  0  0
  7 11  1  0  0  0  0
  7  6  2  0  0  0  0
  8  7  1  0  0  0  0
  9  3  1  0  0  0  0
 12 18  1  0  0  0  0
 12  1  1  1  0  0  0
 13 15  1  0  0  0  0
 13 12  1  0  0  0  0
 14 13  1  0  0  0  0
 15 17  1  0  0  0  0
 15 16  1  0  0  0  0
 17 18  1  0  0  0  0
 19 18  1  0  0  0  0
M  END
>  <minimizedAffinity>
-3.99543285

$$$$

 OpenBabel03242512053D

 19 20  0  0  1  0  0  0  0  0999 V2000
   36.8370   27.2910   42.3360 C   0  0  0  0  0  0  0  0  0  0  0  0
   36.4290   27.1750   43.5170 O   0  0  0  0  0  0  0  0  0  0  0  0
   37.5850   29.6110   41.9470 C   0  0  0  0  0  0  0  0  0  0  0  0
   36.6890   28.5600   41.7070 C   0  0  0  0  0  0  0  0  0  0  0  0
   35.6350   28.8040   40.8170 C   0  0  0  0  0  0  0  0  0  0  0  0
   35.5260   30.0360   40.2310 N   0  0  0  0  0  0  0  0  0  0  0  0
   36.4210   31.0150   40.5010 C   0  0  0  0  0  0  0  0  0  0  0  0
   37.4350   30.8030   41.3470 N   0  0  0  0  0  0  0  0  0  0  0  0
   38.4160   29.4980   42.6160 H   0  0  0  0  0  0  0  0  0  0  0  0
   34.9370   27.9950   40.6250 H   0  0  0  0  0  0  0  0  0  0  0  0
   36.1570   31.9070   39.9380 H   0  0  0  0  0  0  0  0  0  0  0  0
   37.4480   26.1280   41.6400 C   0  0  1  0  0  3  0  0  0  0  0  0
   38.9230   26.0060   41.8340 C   0  0  0  0  0  3  0  0  0  0  0  0
   39.3680   25.8140   40.8140 H   0  0  0  0  0  0  0  0  0  0  0  0
   39.0510   24.7300   42.6260 C   0  0  0  0  0  3  0  0  0  0  0  0
   39.1650   24.8900   43.7200 H   0  0  0  0  0  0  0  0  0  0  0  0
   37.9440   23.9660   42.3540 O   0  0  0  0  0  0  0  0  0  0  0  0
   36.8840   24.8220   42.0980 C   0  0  0  0  0  3  0  0  0  0  0  0
   36.2120   24.3280   41.3610 H   0  0  0  0  0  0  0  0  0  0  0  0
  1  2  2  0  0  0  0
  3  9  1  0  0  0  0
  4  3  1  0  0  0  0
  4  1  1  0  0  0  0
  5  4  2  0  0  0  0
  6  7  2  0  0  0  0
  6  5  1  0  0  0  0
  7  8  1  0  0  0  0
  8  3  2  0  0  0  0
 10  5  1  0  0  0  0
 11  7  1  0  0  0  0
 12 13  1  0  0  0  0
 12 18  1  0  0  0  0
 12  1  1  1  0  0  0
 13 15  1  0  0  0  0
 14 13  1  0  0  0  0
 15 16  1  0  0  0  0
 17 15  1  0  0  0  0
 18 17  1  0  0  0  0
 19 18  1  0  0  0  0
M  END
>  <minimizedAffinity>
-3.89653301

$$$$

 OpenBabel03242512053D

 19 20  0  0  1  0  0  0  0  0999 V2000
   38.1460   30.0380   41.0810 C   0  0  0  0  0  0  0  0  0  0  0  0
   38.9390   29.2720   40.4810 O   0  0  0  0  0  0  0  0  0  0  0  0
   39.1530   32.2900   41.1500 C   0  0  0  0  0  0  0  0  0  0  0  0
   38.1500   31.4140   40.7140 C   0  0  0  0  0  0  0  0  0  0  0  0
   37.1430   31.9450   39.8970 C   0  0  0  0  0  0  0  0  0  0  0  0
   37.1810   33.2720   39.5660 N   0  0  0  0  0  0  0  0  0  0  0  0
   38.1750   34.0720   40.0170 C   0  0  0  0  0  0  0  0  0  0  0  0
   39.1460   33.5850   40.7970 N   0  0  0  0  0  0  0  0  0  0  0  0
   39.9560   31.9560   41.7770 H   0  0  0  0  0  0  0  0  0  0  0  0
   36.3620   31.2730   39.5560 H   0  0  0  0  0  0  0  0  0  0  0  0
   38.0210   35.0820   39.6420 H   0  0  0  0  0  0  0  0  0  0  0  0
   37.2430   29.5020   42.1340 C   0  0  1  0  0  3  0  0  0  0  0  0
   36.4140   28.3400   41.6950 C   0  0  0  0  0  3  0  0  0  0  0  0
   35.3590   28.5480   42.0410 H   0  0  0  0  0  0  0  0  0  0  0  0
   36.9490   27.2110   42.5370 C   0  0  0  0  0  3  0  0  0  0  0  0
   37.6890   26.5700   42.0110 H   0  0  0  0  0  0  0  0  0  0  0  0
   37.4940   27.7650   43.6680 O   0  0  0  0  0  0  0  0  0  0  0  0
   37.9870   29.0180   43.3360 C   0  0  0  0  0  3  0  0  0  0  0  0
   37.8910   29.6730   44.2310 H   0  0  0  0  0  0  0  0  0  0  0  0
  2  1  2  0  0  0  0
  3  9  1  0  0  0  0
  4  1  1  0  0  0  0
  4  3  2  0  0  0  0
  5  4  1  0  0  0  0
  6  5  2  0  0  0  0
  6  7  1  0  0  0  0
  7  8  2  0  0  0  0
  8  3  1  0  0  0  0
 10  5  1  0  0  0  0
 11  7  1  0  0  0  0
 12  1  1  6  0  0  0
 12 18  1  0  0  0  0
 13 14  1  0  0  0  0
 13 12  1  0  0  0  0
 13 15  1  0  0  0  0
 15 17  1  0  0  0  0
 16 15  1  0  0  0  0
 18 17  1  0  0  0  0
 18 19  1  0  0  0  0
M  END
>  <minimizedAffinity>
-3.87665033

$$$$

 OpenBabel03242512053D

 19 20  0  0  1  0  0  0  0  0999 V2000
   36.8260   29.3100   41.4960 C   0  0  0  0  0  0  0  0  0  0  0  0
   35.8830   28.4870   41.4020 O   0  0  0  0  0  0  0  0  0  0  0  0
   36.9890   31.6210   40.6460 C   0  0  0  0  0  0  0  0  0  0  0  0
   37.0040   30.2370   40.4300 C   0  0  0  0  0  0  0  0  0  0  0  0
   37.2050   29.7930   39.1160 C   0  0  0  0  0  0  0  0  0  0  0  0
   37.3730   30.7140   38.1170 N   0  0  0  0  0  0  0  0  0  0  0  0
   37.3480   32.0400   38.3850 C   0  0  0  0  0  0  0  0  0  0  0  0
   37.1590   32.4850   39.6320 N   0  0  0  0  0  0  0  0  0  0  0  0
   36.8410   32.0350   41.6250 H   0  0  0  0  0  0  0  0  0  0  0  0
   37.2180   28.7220   38.9400 H   0  0  0  0  0  0  0  0  0  0  0  0
   37.5000   32.5950   37.4620 H   0  0  0  0  0  0  0  0  0  0  0  0
   37.7110   29.2960   42.6910 C   0  0  1  0  0  3  0  0  0  0  0  0
   37.3910   28.2230   43.6770 C   0  0  0  0  0  3  0  0  0  0  0  0
   37.3870   28.7110   44.6950 H   0  0  0  0  0  0  0  0  0  0  0  0
   38.6070   27.3350   43.6110 C   0  0  0  0  0  3  0  0  0  0  0  0
   38.4760   26.4420   42.9620 H   0  0  0  0  0  0  0  0  0  0  0  0
   39.6560   28.1060   43.1780 O   0  0  0  0  0  0  0  0  0  0  0  0
   39.1490   29.0860   42.3370 C   0  0  0  0  0  3  0  0  0  0  0  0
   39.7850   29.9930   42.4420 H   0  0  0  0  0  0  0  0  0  0  0  0
  2  1  2  0  0  0  0
  3  9  1  0  0  0  0
  4  3  1  0  0  0  0
  4  1  1  0  0  0  0
  5  4  2  0  0  0  0
  6  7  2  0  0  0  0
  6  5  1  0  0  0  0
  7  8  1  0  0  0  0
  8  3  2  0  0  0  0
 10  5  1  0  0  0  0
 11  7  1  0  0  0  0
 12  1  1  6  0  0  0
 12 13  1  0  0  0  0
 13 14  1  0  0  0  0
 15 13  1  0  0  0  0
 16 15  1  0  0  0  0
 17 15  1  0  0  0  0
 18 19  1  0  0  0  0
 18 12  1  0  0  0  0
 18 17  1  0  0  0  0
M  END
>  <minimizedAffinity>
-3.86740327

$$$$

 OpenBabel03242512053D

 19 20  0  0  1  0  0  0  0  0999 V2000
   37.0230   30.0280   41.2030 C   0  0  0  0  0  0  0  0  0  0  0  0
   35.8020   29.9590   40.9200 O   0  0  0  0  0  0  0  0  0  0  0  0
   37.0910   32.2680   40.1690 C   0  0  0  0  0  0  0  0  0  0  0  0
   37.7080   31.2370   40.8900 C   0  0  0  0  0  0  0  0  0  0  0  0
   39.0330   31.4400   41.2970 C   0  0  0  0  0  0  0  0  0  0  0  0
   39.6590   32.6140   40.9780 N   0  0  0  0  0  0  0  0  0  0  0  0
   39.0130   33.5760   40.2780 C   0  0  0  0  0  0  0  0  0  0  0  0
   37.7480   33.4030   39.8810 N   0  0  0  0  0  0  0  0  0  0  0  0
   36.0790   32.1850   39.8240 H   0  0  0  0  0  0  0  0  0  0  0  0
   39.5180   30.6450   41.8560 H   0  0  0  0  0  0  0  0  0  0  0  0
   39.6820   34.4210   40.1310 H   0  0  0  0  0  0  0  0  0  0  0  0
   37.7070   28.8730   41.8430 C   0  0  1  0  0  3  0  0  0  0  0  0
   37.4820   28.7690   43.3150 C   0  0  0  0  0  3  0  0  0  0  0  0
   38.4930   28.5830   43.7830 H   0  0  0  0  0  0  0  0  0  0  0  0
   36.6880   27.4940   43.4420 C   0  0  0  0  0  3  0  0  0  0  0  0
   35.5920   27.6550   43.5320 H   0  0  0  0  0  0  0  0  0  0  0  0
   36.9830   26.7170   42.3510 O   0  0  0  0  0  0  0  0  0  0  0  0
   37.2600   27.5600   41.2860 C   0  0  0  0  0  3  0  0  0  0  0  0
   38.0100   27.0580   40.6350 H   0  0  0  0  0  0  0  0  0  0  0  0
  2  1  2  0  0  0  0
  3  4  1  0  0  0  0
  4  1  1  0  0  0  0
  4  5  2  0  0  0  0
  5 10  1  0  0  0  0
  6  5  1  0  0  0  0
  7  6  2  0  0  0  0
  8  3  2  0  0  0  0
  8  7  1  0  0  0  0
  9  3  1  0  0  0  0
 11  7  1  0  0  0  0
 12  1  1  6  0  0  0
 12 13  1  0  0  0  0
 13 15  1  0  0  0  0
 13 14  1  0  0  0  0
 15 16  1  0  0  0  0
 17 15  1  0  0  0  0
 18 12  1  0  0  0  0
 18 17  1  0  0  0  0
 19 18  1  0  0  0  0
M  END
>  <minimizedAffinity>
-3.82876444

$$$$

 OpenBabel03242512053D

 19 20  0  0  1  0  0  0  0  0999 V2000
   36.8440   27.3410   42.6040 C   0  0  0  0  0  0  0  0  0  0  0  0
   36.1990   27.3030   43.6800 O   0  0  0  0  0  0  0  0  0  0  0  0
   37.4680   29.6630   42.0440 C   0  0  0  0  0  0  0  0  0  0  0  0
   36.7150   28.5080   41.7960 C   0  0  0  0  0  0  0  0  0  0  0  0
   35.8240   28.5400   40.7150 C   0  0  0  0  0  0  0  0  0  0  0  0
   35.7280   29.6780   39.9610 N   0  0  0  0  0  0  0  0  0  0  0  0
   36.4820   30.7660   40.2480 C   0  0  0  0  0  0  0  0  0  0  0  0
   37.3380   30.7550   41.2750 N   0  0  0  0  0  0  0  0  0  0  0  0
   38.1700   29.7120   42.8540 H   0  0  0  0  0  0  0  0  0  0  0  0
   35.2370   27.6490   40.5170 H   0  0  0  0  0  0  0  0  0  0  0  0
   36.2560   31.5560   39.5350 H   0  0  0  0  0  0  0  0  0  0  0  0
   37.7050   26.1960   42.2090 C   0  0  1  0  0  3  0  0  0  0  0  0
   36.9490   24.9980   41.7360 C   0  0  0  0  0  3  0  0  0  0  0  0
   37.4010   24.1050   42.2590 H   0  0  0  0  0  0  0  0  0  0  0  0
   37.3380   24.9100   40.2820 C   0  0  0  0  0  3  0  0  0  0  0  0
   36.5900   25.3540   39.5900 H   0  0  0  0  0  0  0  0  0  0  0  0
   38.5580   25.5240   40.1460 O   0  0  0  0  0  0  0  0  0  0  0  0
   38.6370   26.5360   41.0910 C   0  0  0  0  0  3  0  0  0  0  0  0
   39.7020   26.6400   41.3960 H   0  0  0  0  0  0  0  0  0  0  0  0
  1  2  2  0  0  0  0
  3  9  1  0  0  0  0
  4  3  1  0  0  0  0
  4  1  1  0  0  0  0
  5  4  2  0  0  0  0
  6  7  2  0  0  0  0
  6  5  1  0  0  0  0
  7  8  1  0  0  0  0
  8  3  2  0  0  0  0
 10  5  1  0  0  0  0
 11  7  1  0  0  0  0
 12  1  1  6  0  0  0
 13 12  1  0  0  0  0
 13 14  1  0  0  0  0
 15 13  1  0  0  0  0
 16 15  1  0  0  0  0
 17 15  1  0  0  0  0
 17 18  1  0  0  0  0
 18 19  1  0  0  0  0
 18 12  1  0  0  0  0
M  END
>  <minimizedAffinity>
-3.72902703

$$$$

 OpenBabel03242512053D

 19 20  0  0  1  0  0  0  0  0999 V2000
   37.1290   30.4370   41.2390 C   0  0  0  0  0  0  0  0  0  0  0  0
   35.9370   30.7850   41.4150 O   0  0  0  0  0  0  0  0  0  0  0  0
   38.9000   29.2820   42.5140 C   0  0  0  0  0  0  0  0  0  0  0  0
   37.6060   29.3150   41.9760 C   0  0  0  0  0  0  0  0  0  0  0  0
   36.7910   28.1960   42.1920 C   0  0  0  0  0  0  0  0  0  0  0  0
   37.2840   27.1370   42.9060 N   0  0  0  0  0  0  0  0  0  0  0  0
   38.5430   27.1600   43.4010 C   0  0  0  0  0  0  0  0  0  0  0  0
   39.3370   28.2190   43.2070 N   0  0  0  0  0  0  0  0  0  0  0  0
   39.5800   30.1020   42.3890 H   0  0  0  0  0  0  0  0  0  0  0  0
   35.7870   28.2140   41.7780 H   0  0  0  0  0  0  0  0  0  0  0  0
   38.7360   26.2300   43.9320 H   0  0  0  0  0  0  0  0  0  0  0  0
   37.9930   31.1850   40.2890 C   0  0  1  0  0  3  0  0  0  0  0  0
   37.3130   31.5730   39.0180 C   0  0  0  0  0  3  0  0  0  0  0  0
   38.0180   31.3030   38.1790 H   0  0  0  0  0  0  0  0  0  0  0  0
   37.2740   33.0770   39.1050 C   0  0  0  0  0  3  0  0  0  0  0  0
   36.3030   33.4810   39.4650 H   0  0  0  0  0  0  0  0  0  0  0  0
   38.3020   33.4670   39.9260 O   0  0  0  0  0  0  0  0  0  0  0  0
   38.5050   32.4670   40.8650 C   0  0  0  0  0  3  0  0  0  0  0  0
   39.5860   32.4540   41.1260 H   0  0  0  0  0  0  0  0  0  0  0  0
  1  2  2  0  0  0  0
  1  4  1  0  0  0  0
  3  8  1  0  0  0  0
  4  5  1  0  0  0  0
  4  3  2  0  0  0  0
  5  6  2  0  0  0  0
  6  7  1  0  0  0  0
  7 11  1  0  0  0  0
  8  7  2  0  0  0  0
  9  3  1  0  0  0  0
 10  5  1  0  0  0  0
 12 18  1  0  0  0  0
 12  1  1  1  0  0  0
 13 15  1  0  0  0  0
 13 12  1  0  0  0  0
 14 13  1  0  0  0  0
 15 16  1  0  0  0  0
 15 17  1  0  0  0  0
 17 18  1  0  0  0  0
 18 19  1  0  0  0  0
M  END
>  <minimizedAffinity>
-3.71712303

$$$$

 OpenBabel03242512053D

 19 20  0  0  1  0  0  0  0  0999 V2000
   37.5880   25.8270   42.3660 C   0  0  0  0  0  0  0  0  0  0  0  0
   36.8690   24.8270   42.1290 O   0  0  0  0  0  0  0  0  0  0  0  0
   39.6600   26.1770   41.0710 C   0  0  0  0  0  0  0  0  0  0  0  0
   38.9960   25.6840   42.2020 C   0  0  0  0  0  0  0  0  0  0  0  0
   39.7720   25.0410   43.1750 C   0  0  0  0  0  0  0  0  0  0  0  0
   41.1220   24.9230   42.9830 N   0  0  0  0  0  0  0  0  0  0  0  0
   41.7100   25.4180   41.8690 C   0  0  0  0  0  0  0  0  0  0  0  0
   40.9880   26.0360   40.9290 N   0  0  0  0  0  0  0  0  0  0  0  0
   39.1320   26.6810   40.2850 H   0  0  0  0  0  0  0  0  0  0  0  0
   39.2640   24.6560   44.0540 H   0  0  0  0  0  0  0  0  0  0  0  0
   42.7790   25.2210   41.9120 H   0  0  0  0  0  0  0  0  0  0  0  0
   36.9680   27.1060   42.8020 C   0  0  1  0  0  3  0  0  0  0  0  0
   37.8460   27.9480   43.6680 C   0  0  0  0  0  3  0  0  0  0  0  0
   37.2120   28.2850   44.5390 H   0  0  0  0  0  0  0  0  0  0  0  0
   38.1050   29.1570   42.8060 C   0  0  0  0  0  3  0  0  0  0  0  0
   39.0760   29.1250   42.2680 H   0  0  0  0  0  0  0  0  0  0  0  0
   37.0580   29.2640   41.9250 O   0  0  0  0  0  0  0  0  0  0  0  0
   36.5950   27.9860   41.6520 C   0  0  0  0  0  3  0  0  0  0  0  0
   35.5000   28.0500   41.4590 H   0  0  0  0  0  0  0  0  0  0  0  0
  2  1  2  0  0  0  0
  3  4  1  0  0  0  0
  4  1  1  0  0  0  0
  4  5  2  0  0  0  0
  5 10  1  0  0  0  0
  6  5  1  0  0  0  0
  7 11  1  0  0  0  0
  7  6  2  0  0  0  0
  8  3  2  0  0  0  0
  8  7  1  0  0  0  0
  9  3  1  0  0  0  0
 12  1  1  6  0  0  0
 12 13  1  0  0  0  0
 13 14  1  0  0  0  0
 15 13  1  0  0  0  0
 16 15  1  0  0  0  0
 17 15  1  0  0  0  0
 18 17  1  0  0  0  0
 18 12  1  0  0  0  0
 19 18  1  0  0  0  0
M  END
>  <minimizedAffinity>
-3.7053678

$$$$

 OpenBabel03242512053D

 19 20  0  0  1  0  0  0  0  0999 V2000
   37.3600   28.7930   42.4460 C   0  0  0  0  0  0  0  0  0  0  0  0
   37.5990   28.7760   43.6770 O   0  0  0  0  0  0  0  0  0  0  0  0
   36.5140   30.6800   41.0990 C   0  0  0  0  0  0  0  0  0  0  0  0
   37.5640   30.0180   41.7490 C   0  0  0  0  0  0  0  0  0  0  0  0
   38.8330   30.6090   41.6890 C   0  0  0  0  0  0  0  0  0  0  0  0
   38.9910   31.7870   41.0100 N   0  0  0  0  0  0  0  0  0  0  0  0
   37.9390   32.3820   40.3990 C   0  0  0  0  0  0  0  0  0  0  0  0
   36.7200   31.8350   40.4450 N   0  0  0  0  0  0  0  0  0  0  0  0
   35.5160   30.2880   41.1020 H   0  0  0  0  0  0  0  0  0  0  0  0
   39.6520   30.1020   42.1900 H   0  0  0  0  0  0  0  0  0  0  0  0
   38.2750   33.2990   39.9210 H   0  0  0  0  0  0  0  0  0  0  0  0
   36.8800   27.5630   41.7630 C   0  0  1  0  0  3  0  0  0  0  0  0
   37.6320   27.2210   40.5200 C   0  0  0  0  0  3  0  0  0  0  0  0
   36.8610   26.9810   39.7310 H   0  0  0  0  0  0  0  0  0  0  0  0
   38.3150   25.9290   40.8870 C   0  0  0  0  0  3  0  0  0  0  0  0
   39.3740   26.0540   41.2030 H   0  0  0  0  0  0  0  0  0  0  0  0
   37.5730   25.3410   41.8800 O   0  0  0  0  0  0  0  0  0  0  0  0
   36.9820   26.3480   42.6270 C   0  0  0  0  0  3  0  0  0  0  0  0
   36.0050   25.9690   43.0050 H   0  0  0  0  0  0  0  0  0  0  0  0
  1  2  2  0  0  0  0
  3  9  1  0  0  0  0
  3  4  1  0  0  0  0
  4  1  1  0  0  0  0
  5  4  2  0  0  0  0
  5 10  1  0  0  0  0
  6  5  1  0  0  0  0
  7  8  1  0  0  0  0
  7  6  2  0  0  0  0
  8  3  2  0  0  0  0
 11  7  1  0  0  0  0
 12  1  1  1  0  0  0
 12 18  1  0  0  0  0
 13 15  1  0  0  0  0
 13 12  1  0  0  0  0
 14 13  1  0  0  0  0
 15 16  1  0  0  0  0
 15 17  1  0  0  0  0
 17 18  1  0  0  0  0
 18 19  1  0  0  0  0
M  END
>  <minimizedAffinity>
-3.64093971

$$$$
