
 OpenBabel03242523543D

 44 47  0  0  1  0  0  0  0  0999 V2000
   42.8170   34.5210   38.7490 C   0  0  1  0  0  0  0  0  0  0  0  0
   42.9570   35.1890   40.1110 C   0  0  1  0  0  0  0  0  0  0  0  0
   41.6700   35.4150   40.6290 O   0  0  0  0  0  0  0  0  0  0  0  0
   40.7450   35.7550   39.6390 C   0  0  0  0  0  0  0  0  0  0  0  0
   40.4360   34.5850   38.7270 C   0  0  2  0  0  0  0  0  0  0  0  0
   41.6470   33.5980   38.8560 C   0  0  1  0  0  0  0  0  0  0  0  0
   43.7600   34.0040   38.4740 H   0  0  0  0  0  0  0  0  0  0  0  0
   43.5510   36.1090   40.0810 H   0  0  0  0  0  0  0  0  0  0  0  0
   41.0360   36.6730   39.1010 H   0  0  0  0  0  0  0  0  0  0  0  0
   39.8160   35.9880   40.1740 H   0  0  0  0  0  0  0  0  0  0  0  0
   39.5170   34.0540   39.0200 H   0  0  0  0  0  0  0  0  0  0  0  0
   41.4390   33.3140   39.9390 H   0  0  0  0  0  0  0  0  0  0  0  0
   42.6030   35.4770   37.7450 O   0  0  0  0  0  0  0  0  0  0  0  0
   43.4940   35.8890   37.5920 H   0  0  0  0  0  0  0  0  0  0  0  0
   40.4520   35.0070   37.4040 O   0  0  0  0  0  0  0  0  0  0  0  0
   40.7620   34.3470   36.7630 H   0  0  0  0  0  0  0  0  0  0  0  0
   43.4910   34.2040   40.9530 O   0  0  0  0  0  0  0  0  0  0  0  0
   44.6010   34.3410   41.6900 C   0  0  0  0  0  0  0  0  0  0  0  0
   45.8640   34.4420   41.0870 C   0  0  0  0  0  0  0  0  0  0  0  0
   46.9720   34.5820   41.9090 C   0  0  0  0  0  0  0  0  0  0  0  0
   46.8040   34.6200   43.2800 N   0  0  0  0  0  0  0  0  0  0  0  0
   45.5690   34.5200   43.8230 C   0  0  0  0  0  0  0  0  0  0  0  0
   44.4720   34.3810   43.0370 N   0  0  0  0  0  0  0  0  0  0  0  0
   45.9930   34.4110   40.0140 H   0  0  0  0  0  0  0  0  0  0  0  0
   45.5190   34.5560   44.9000 H   0  0  0  0  0  0  0  0  0  0  0  0
   48.3540   34.6800   41.3340 C   0  0  0  0  0  0  0  0  0  0  0  0
   49.0720   36.0180   41.5090 C   0  0  0  0  0  0  0  0  0  0  0  0
   49.5000   34.7030   42.1870 C   0  0  0  0  0  0  0  0  0  0  0  0
   48.3810   34.2870   40.2990 H   0  0  0  0  0  0  0  0  0  0  0  0
   49.6570   36.3700   40.6620 H   0  0  0  0  0  0  0  0  0  0  0  0
   48.5590   36.7190   42.1800 H   0  0  0  0  0  0  0  0  0  0  0  0
   49.3720   34.6430   43.2990 H   0  0  0  0  0  0  0  0  0  0  0  0
   50.4960   34.3540   41.8600 H   0  0  0  0  0  0  0  0  0  0  0  0
   41.5150   32.6660   37.8950 O   0  0  0  0  0  0  0  0  0  0  0  0
   40.8270   31.5010   37.9230 C   0  0  0  0  0  0  0  0  0  0  0  0
   39.5950   31.4290   37.4790 O   0  0  0  0  0  0  0  0  0  0  0  0
   40.9060   30.0570   38.3020 C   0  0  2  0  0  3  0  0  0  0  0  0
   40.8240   29.2520   36.9990 C   0  0  0  0  0  3  0  0  0  0  0  0
   41.7850   29.1590   36.4880 H   0  0  0  0  0  0  0  0  0  0  0  0
   40.3360   27.9160   37.5320 C   0  0  0  0  0  3  0  0  0  0  0  0
   39.7200   27.3620   36.7960 H   0  0  0  0  0  0  0  0  0  0  0  0
   39.5430   28.1990   38.6300 O   0  0  0  0  0  0  0  0  0  0  0  0
   39.7680   29.4960   39.0490 C   0  0  0  0  0  3  0  0  0  0  0  0
   39.8830   29.5270   40.1520 H   0  0  0  0  0  0  0  0  0  0  0  0
  1  7  1  6  0  0  0
  1  6  1  0  0  0  0
  1  2  1  0  0  0  0
  2  8  1  6  0  0  0
  2  3  1  0  0  0  0
  2 17  1  0  0  0  0
  4 10  1  0  0  0  0
  4  3  1  0  0  0  0
  5  6  1  0  0  0  0
  5 11  1  1  0  0  0
  5  4  1  0  0  0  0
  6 12  1  1  0  0  0
  9  4  1  0  0  0  0
 13  1  1  0  0  0  0
 14 13  1  0  0  0  0
 15  5  1  0  0  0  0
 16 15  1  0  0  0  0
 17 18  1  0  0  0  0
 18 23  1  0  0  0  0
 19 18  2  0  0  0  0
 19 20  1  0  0  0  0
 20 21  2  0  0  0  0
 21 22  1  0  0  0  0
 22 25  1  0  0  0  0
 23 22  2  0  0  0  0
 24 19  1  0  0  0  0
 26 27  1  0  0  0  0
 26 20  1  0  0  0  0
 26 28  1  0  0  0  0
 27 31  1  0  0  0  0
 27 28  1  0  0  0  0
 28 32  1  0  0  0  0
 29 26  1  0  0  0  0
 30 27  1  0  0  0  0
 33 28  1  0  0  0  0
 34 35  1  0  0  0  0
 34  6  1  0  0  0  0
 36 35  2  0  0  0  0
 37 35  1  6  0  0  0
 37 43  1  0  0  0  0
 38 40  1  0  0  0  0
 38 37  1  0  0  0  0
 39 38  1  0  0  0  0
 40 42  1  0  0  0  0
 41 40  1  0  0  0  0
 42 43  1  0  0  0  0
 43 44  1  0  0  0  0
M  END
>  <minimizedAffinity>
-5.72434664

>  <minimizedRMSD>
0.162024438

$$$$
