
 OpenBabel03252509013D

 44 46  0  0  1  0  0  0  0  0999 V2000
   46.7260   34.5010   43.5350 N   0  0  0  0  0  0  0  0  0  0  0  0
   46.2510   35.5590   42.7180 C   0  0  0  0  0  0  0  0  0  0  0  0
   44.7510   35.7480   42.7080 C   0  0  0  0  0  0  0  0  0  0  0  0
   44.0820   35.4160   44.0150 C   0  0  0  0  0  0  0  0  0  0  0  0
   45.0780   35.0420   45.0830 C   0  0  0  0  0  0  0  0  0  0  0  0
   45.8830   33.8610   44.4290 C   0  0  2  0  0  0  0  0  0  0  0  0
   46.5820   35.5470   41.6760 H   0  0  0  0  0  0  0  0  0  0  0  0
   46.6720   36.5100   43.1410 H   0  0  0  0  0  0  0  0  0  0  0  0
   44.5250   36.8230   42.4860 H   0  0  0  0  0  0  0  0  0  0  0  0
   44.3520   35.1790   41.8480 H   0  0  0  0  0  0  0  0  0  0  0  0
   43.4480   34.5150   43.8570 H   0  0  0  0  0  0  0  0  0  0  0  0
   43.4630   36.2410   44.4190 H   0  0  0  0  0  0  0  0  0  0  0  0
   45.7690   35.8440   45.3540 H   0  0  0  0  0  0  0  0  0  0  0  0
   44.5450   34.5880   45.9350 H   0  0  0  0  0  0  0  0  0  0  0  0
   45.1240   33.1540   44.0310 H   0  0  0  0  0  0  0  0  0  0  0  0
   47.8220   33.7700   42.9690 C   0  0  0  0  0  0  0  0  0  0  0  0
   48.4200   33.2680   43.7620 H   0  0  0  0  0  0  0  0  0  0  0  0
   48.4890   34.4620   42.4520 H   0  0  0  0  0  0  0  0  0  0  0  0
   47.2750   32.7060   42.0660 C   0  0  0  0  0  0  0  0  0  0  0  0
   46.1630   32.7670   42.0040 H   0  0  0  0  0  0  0  0  0  0  0  0
   47.5020   31.6990   42.4330 H   0  0  0  0  0  0  0  0  0  0  0  0
   49.2310   32.1070   38.9150 C   0  0  0  0  0  0  0  0  0  0  0  0
   48.6960   31.9500   40.2060 C   0  0  0  0  0  0  0  0  0  0  0  0
   47.8290   32.8910   40.6980 C   0  0  0  0  0  0  0  0  0  0  0  0
   47.5300   33.9300   39.9130 N   0  0  0  0  0  0  0  0  0  0  0  0
   48.0430   34.0790   38.6760 C   0  0  0  0  0  0  0  0  0  0  0  0
   48.8890   33.1820   38.1680 N   0  0  0  0  0  0  0  0  0  0  0  0
   49.9140   31.3450   38.5540 H   0  0  0  0  0  0  0  0  0  0  0  0
   48.9530   31.0980   40.8250 H   0  0  0  0  0  0  0  0  0  0  0  0
   47.6950   34.9660   38.1930 H   0  0  0  0  0  0  0  0  0  0  0  0
   46.5770   33.3600   45.5230 O   0  0  0  0  0  0  0  0  0  0  0  0
   45.5300   31.1000   44.6460 O   0  0  0  0  0  0  0  0  0  0  0  0
   46.2720   31.7310   45.8010 P   0  0  2  0  0  0  0  0  0  0  0  0
   45.1890   31.6700   47.1260 O   0  0  0  0  0  0  0  0  0  0  0  0
   44.2640   31.8770   46.8040 H   0  0  0  0  0  0  0  0  0  0  0  0
   47.6690   30.9290   46.2280 O   0  0  0  0  0  0  0  0  0  0  0  0
   47.5250   29.9240   47.1300 C   0  0  2  0  0  3  0  0  0  0  0  0
   48.9030   29.6380   47.7130 C   0  0  0  0  0  3  0  0  0  0  0  0
   49.0930   30.2470   48.6180 H   0  0  0  0  0  0  0  0  0  0  0  0
   48.8260   28.1580   47.9910 C   0  0  0  0  0  3  0  0  0  0  0  0
   49.6890   27.6280   47.5540 H   0  0  0  0  0  0  0  0  0  0  0  0
   47.6160   27.6870   47.5160 O   0  0  0  0  0  0  0  0  0  0  0  0
   47.1890   28.5830   46.5340 C   0  0  0  0  0  3  0  0  0  0  0  0
   47.7250   28.4450   45.5830 H   0  0  0  0  0  0  0  0  0  0  0  0
  1  6  1  0  0  0  0
  2  8  1  0  0  0  0
  2  1  1  0  0  0  0
  3  2  1  0  0  0  0
  3  4  1  0  0  0  0
  4 12  1  0  0  0  0
  4  5  1  0  0  0  0
  5 13  1  0  0  0  0
  5 14  1  0  0  0  0
  6 15  1  6  0  0  0
  6  5  1  0  0  0  0
  6 31  1  0  0  0  0
  7  2  1  0  0  0  0
  9  3  1  0  0  0  0
 10  3  1  0  0  0  0
 11  4  1  0  0  0  0
 16  1  1  0  0  0  0
 16 17  1  0  0  0  0
 18 16  1  0  0  0  0
 19 21  1  0  0  0  0
 19 16  1  0  0  0  0
 20 19  1  0  0  0  0
 22 23  1  0  0  0  0
 23 24  2  0  0  0  0
 23 29  1  0  0  0  0
 24 19  1  0  0  0  0
 25 24  1  0  0  0  0
 26 25  2  0  0  0  0
 27 26  1  0  0  0  0
 27 22  2  0  0  0  0
 28 22  1  0  0  0  0
 30 26  1  0  0  0  0
 31 33  1  0  0  0  0
 33 32  2  6  0  0  0
 33 36  1  0  0  0  0
 33 34  1  0  0  0  0
 35 34  1  0  0  0  0
 37 36  1  6  0  0  0
 37 38  1  0  0  0  0
 38 40  1  0  0  0  0
 38 39  1  0  0  0  0
 41 40  1  0  0  0  0
 42 40  1  0  0  0  0
 43 37  1  0  0  0  0
 43 42  1  0  0  0  0
 44 43  1  0  0  0  0
M  END
>  <minimizedAffinity>
-4.22816467

>  <minimizedRMSD>
1.28546047

$$$$
