
 OpenBabel03242513443D

 45 48  0  0  1  0  0  0  0  0999 V2000
   47.7150   31.0280   46.0260 C   0  0  0  0  0  0  0  0  0  0  0  0
   46.9770   32.0800   45.5460 C   0  0  0  0  0  0  0  0  0  0  0  0
   45.9730   32.5790   46.3420 C   0  0  0  0  0  0  0  0  0  0  0  0
   45.6780   32.0790   47.5820 C   0  0  0  0  0  0  0  0  0  0  0  0
   44.7880   32.3320   48.5820 N   0  0  0  0  0  0  0  0  0  0  0  0
   44.9940   31.4590   49.6140 C   0  0  0  0  0  0  0  0  0  0  0  0
   46.0150   30.6700   49.2430 N   0  0  0  0  0  0  0  0  0  0  0  0
   46.4320   31.0320   48.0270 C   0  0  0  0  0  0  0  0  0  0  0  0
   47.4510   30.4800   47.2890 C   0  0  0  0  0  0  0  0  0  0  0  0
   48.5140   30.6020   45.4360 H   0  0  0  0  0  0  0  0  0  0  0  0
   45.3790   33.4110   45.9800 H   0  0  0  0  0  0  0  0  0  0  0  0
   44.0670   33.0930   48.5270 H   0  0  0  0  0  0  0  0  0  0  0  0
   44.4460   31.4140   50.5440 H   0  0  0  0  0  0  0  0  0  0  0  0
   47.1830   34.4160   42.7410 C   0  0  0  0  0  0  0  0  0  0  0  0
   47.8140   33.6480   41.7410 C   0  0  0  0  0  0  0  0  0  0  0  0
   48.1490   32.3300   42.0830 C   0  0  0  0  0  0  0  0  0  0  0  0
   47.8650   31.8540   43.3200 N   0  0  0  0  0  0  0  0  0  0  0  0
   47.2610   32.6440   44.2250 C   0  0  0  0  0  0  0  0  0  0  0  0
   46.9120   33.9150   43.9670 N   0  0  0  0  0  0  0  0  0  0  0  0
   46.9020   35.4280   42.5440 H   0  0  0  0  0  0  0  0  0  0  0  0
   48.6240   31.7670   41.3170 H   0  0  0  0  0  0  0  0  0  0  0  0
   48.0670   34.2880   40.4310 C   0  0  0  0  0  0  0  0  0  0  0  0
   48.5720   35.5300   40.7300 F   0  0  0  0  0  0  0  0  0  0  0  0
   46.8940   34.4130   39.7740 F   0  0  0  0  0  0  0  0  0  0  0  0
   48.9770   33.4920   39.7440 F   0  0  0  0  0  0  0  0  0  0  0  0
   48.1900   29.4180   47.7820 O   0  0  0  0  0  0  0  0  0  0  0  0
   49.8170   28.1380   49.3520 O   0  0  0  0  0  0  0  0  0  0  0  0
   49.4640   29.5420   48.8670 P   0  0  2  0  0  0  0  0  0  0  0  0
   48.8890   30.3870   50.2260 O   0  0  0  0  0  0  0  0  0  0  0  0
   48.6020   29.7740   50.9470 H   0  0  0  0  0  0  0  0  0  0  0  0
   50.8320   30.3030   48.2440 O   0  0  0  0  0  0  0  0  0  0  0  0
   51.8580   30.4340   49.1350 C   0  0  0  0  0  0  0  0  0  0  0  0
   52.8060   30.1340   48.6120 H   0  0  0  0  0  0  0  0  0  0  0  0
   51.7280   29.8340   50.0330 H   0  0  0  0  0  0  0  0  0  0  0  0
   51.9850   31.9290   49.4590 C   0  0  0  0  0  0  0  0  0  0  0  0
   52.5940   32.4420   48.7150 H   0  0  0  0  0  0  0  0  0  0  0  0
   50.9520   32.3260   49.3500 H   0  0  0  0  0  0  0  0  0  0  0  0
   52.3820   32.1490   50.8800 C   0  0  2  0  0  0  0  0  0  0  0  0
   52.0870   30.8670   51.6480 C   0  0  0  0  0  0  0  0  0  0  0  0
   51.1040   30.4890   51.3010 H   0  0  0  0  0  0  0  0  0  0  0  0
   51.8860   31.4510   53.0340 C   0  0  0  0  0  0  0  0  0  0  0  0
   51.2360   30.7660   53.6230 H   0  0  0  0  0  0  0  0  0  0  0  0
   51.3100   32.6880   52.8800 O   0  0  0  0  0  0  0  0  0  0  0  0
   51.5220   33.1480   51.5980 C   0  0  0  0  0  0  0  0  0  0  0  0
   50.5510   33.2770   51.1040 H   0  0  0  0  0  0  0  0  0  0  0  0
  1  9  1  0  0  0  0
  2  1  2  0  0  0  0
  2  3  1  0  0  0  0
  3  4  2  0  0  0  0
  4  8  1  0  0  0  0
  4  5  1  0  0  0  0
  5  6  1  0  0  0  0
  6 13  1  0  0  0  0
  7  6  2  0  0  0  0
  8  7  1  0  0  0  0
  9 26  1  0  0  0  0
  9  8  2  0  0  0  0
 10  1  1  0  0  0  0
 11  3  1  0  0  0  0
 12  5  1  0  0  0  0
 14 19  1  0  0  0  0
 15 16  1  0  0  0  0
 15 14  2  0  0  0  0
 16 17  2  0  0  0  0
 17 18  1  0  0  0  0
 18  2  1  0  0  0  0
 19 18  2  0  0  0  0
 20 14  1  0  0  0  0
 21 16  1  0  0  0  0
 22 23  1  0  0  0  0
 22 15  1  0  0  0  0
 24 22  1  0  0  0  0
 25 22  1  0  0  0  0
 26 28  1  0  0  0  0
 28 27  2  1  0  0  0
 28 29  1  0  0  0  0
 29 30  1  0  0  0  0
 31 28  1  0  0  0  0
 31 32  1  0  0  0  0
 32 35  1  0  0  0  0
 32 34  1  0  0  0  0
 33 32  1  0  0  0  0
 36 35  1  0  0  0  0
 37 35  1  0  0  0  0
 38 35  1  6  0  0  0
 38 44  1  0  0  0  0
 38 39  1  0  0  0  0
 39 41  1  0  0  0  0
 40 39  1  0  0  0  0
 41 42  1  0  0  0  0
 43 41  1  0  0  0  0
 44 43  1  0  0  0  0
 45 44  1  0  0  0  0
M  END
>  <minimizedAffinity>
-5.96073771

>  <minimizedRMSD>
2.13337159

$$$$
