
 OpenBabel03242523543D

 44 47  0  0  1  0  0  0  0  0999 V2000
   42.8140   34.3040   39.0120 C   0  0  1  0  0  0  0  0  0  0  0  0
   43.0480   35.1760   40.2380 C   0  0  1  0  0  0  0  0  0  0  0  0
   41.8040   35.6590   40.6820 O   0  0  0  0  0  0  0  0  0  0  0  0
   40.9300   35.9400   39.6300 C   0  0  0  0  0  0  0  0  0  0  0  0
   40.4640   34.6790   38.9300 C   0  0  2  0  0  0  0  0  0  0  0  0
   41.5310   33.5770   39.2540 C   0  0  1  0  0  0  0  0  0  0  0  0
   43.6790   33.6260   38.8510 H   0  0  0  0  0  0  0  0  0  0  0  0
   43.7590   35.9890   40.0600 H   0  0  0  0  0  0  0  0  0  0  0  0
   41.3400   36.7020   38.9450 H   0  0  0  0  0  0  0  0  0  0  0  0
   40.0420   36.3840   40.0970 H   0  0  0  0  0  0  0  0  0  0  0  0
   39.4820   34.3340   39.2920 H   0  0  0  0  0  0  0  0  0  0  0  0
   41.2910   33.5190   40.3650 H   0  0  0  0  0  0  0  0  0  0  0  0
   42.7270   35.0880   37.8520 O   0  0  0  0  0  0  0  0  0  0  0  0
   43.6650   35.3440   37.6470 H   0  0  0  0  0  0  0  0  0  0  0  0
   40.5310   34.8550   37.5550 O   0  0  0  0  0  0  0  0  0  0  0  0
   40.7480   34.0570   37.0450 H   0  0  0  0  0  0  0  0  0  0  0  0
   43.4460   34.2930   41.2500 O   0  0  0  0  0  0  0  0  0  0  0  0
   44.6060   34.3610   41.9180 C   0  0  0  0  0  0  0  0  0  0  0  0
   45.8260   34.5030   41.2400 C   0  0  0  0  0  0  0  0  0  0  0  0
   46.9890   34.5680   41.9930 C   0  0  0  0  0  0  0  0  0  0  0  0
   46.9150   34.4940   43.3710 N   0  0  0  0  0  0  0  0  0  0  0  0
   45.7180   34.3580   43.9880 C   0  0  0  0  0  0  0  0  0  0  0  0
   44.5690   34.2910   43.2690 N   0  0  0  0  0  0  0  0  0  0  0  0
   45.8810   34.5600   40.1620 H   0  0  0  0  0  0  0  0  0  0  0  0
   45.7420   34.3060   45.0650 H   0  0  0  0  0  0  0  0  0  0  0  0
   48.3300   34.7040   41.3350 C   0  0  0  0  0  0  0  0  0  0  0  0
   49.0570   36.0320   41.5360 C   0  0  0  0  0  0  0  0  0  0  0  0
   49.5290   34.6850   42.1100 C   0  0  0  0  0  0  0  0  0  0  0  0
   48.2890   34.3670   40.2800 H   0  0  0  0  0  0  0  0  0  0  0  0
   49.5850   36.4340   40.6730 H   0  0  0  0  0  0  0  0  0  0  0  0
   48.5880   36.6940   42.2770 H   0  0  0  0  0  0  0  0  0  0  0  0
   49.4760   34.5630   43.2240 H   0  0  0  0  0  0  0  0  0  0  0  0
   50.5020   34.3590   41.7000 H   0  0  0  0  0  0  0  0  0  0  0  0
   41.2720   32.5170   38.4680 O   0  0  0  0  0  0  0  0  0  0  0  0
   40.3080   31.5760   38.5930 C   0  0  0  0  0  0  0  0  0  0  0  0
   39.6790   31.1040   37.5430 O   0  0  0  0  0  0  0  0  0  0  0  0
   39.5610   30.7300   39.5730 C   0  0  2  0  0  3  0  0  0  0  0  0
   38.3720   30.1240   38.8200 C   0  0  0  0  0  3  0  0  0  0  0  0
   38.6290   29.2240   38.2570 H   0  0  0  0  0  0  0  0  0  0  0  0
   37.4400   29.8160   39.9800 C   0  0  0  0  0  3  0  0  0  0  0  0
   36.3690   29.8710   39.6940 H   0  0  0  0  0  0  0  0  0  0  0  0
   37.6770   30.7850   40.9410 O   0  0  0  0  0  0  0  0  0  0  0  0
   38.8710   31.4250   40.6730 C   0  0  0  0  0  3  0  0  0  0  0  0
   39.4700   31.5230   41.6020 H   0  0  0  0  0  0  0  0  0  0  0  0
  1  7  1  6  0  0  0
  1  6  1  0  0  0  0
  1  2  1  0  0  0  0
  2  8  1  6  0  0  0
  2  3  1  0  0  0  0
  2 17  1  0  0  0  0
  4 10  1  0  0  0  0
  4  3  1  0  0  0  0
  5  6  1  0  0  0  0
  5 11  1  1  0  0  0
  5  4  1  0  0  0  0
  6 12  1  1  0  0  0
  9  4  1  0  0  0  0
 13  1  1  0  0  0  0
 14 13  1  0  0  0  0
 15  5  1  0  0  0  0
 16 15  1  0  0  0  0
 17 18  1  0  0  0  0
 18 23  1  0  0  0  0
 19 18  2  0  0  0  0
 19 20  1  0  0  0  0
 20 21  2  0  0  0  0
 21 22  1  0  0  0  0
 22 25  1  0  0  0  0
 23 22  2  0  0  0  0
 24 19  1  0  0  0  0
 26 27  1  0  0  0  0
 26 20  1  0  0  0  0
 26 28  1  0  0  0  0
 27 28  1  0  0  0  0
 27 31  1  0  0  0  0
 28 32  1  0  0  0  0
 29 26  1  0  0  0  0
 30 27  1  0  0  0  0
 33 28  1  0  0  0  0
 34 35  1  0  0  0  0
 34  6  1  0  0  0  0
 36 35  2  0  0  0  0
 37 35  1  6  0  0  0
 37 43  1  0  0  0  0
 38 37  1  0  0  0  0
 38 40  1  0  0  0  0
 39 38  1  0  0  0  0
 40 42  1  0  0  0  0
 41 40  1  0  0  0  0
 43 42  1  0  0  0  0
 43 44  1  0  0  0  0
M  END
>  <minimizedAffinity>
-6.12624931

>  <minimizedRMSD>
1.30987036

$$$$
