
 OpenBabel03252505283D

 23 24  0  0  1  0  0  0  0  0999 V2000
   47.2630   32.7400   47.6220 O   0  0  0  0  0  0  0  0  0  0  0  0
   45.8010   32.6150   47.1820 P   0  0  1  0  0  0  0  0  0  0  0  0
   44.8490   33.8200   47.8660 O   0  0  0  0  0  0  0  0  0  0  0  0
   45.3000   34.6900   47.7320 H   0  0  0  0  0  0  0  0  0  0  0  0
   45.8020   32.7050   45.4940 O   0  0  0  0  0  0  0  0  0  0  0  0
   44.6280   35.9490   44.6080 C   0  0  0  0  0  0  0  0  0  0  0  0
   45.1930   36.2070   43.3570 C   0  0  0  0  0  0  0  0  0  0  0  0
   46.0150   35.1980   42.8130 C   0  0  0  0  0  0  0  0  0  0  0  0
   46.2040   34.0560   43.5280 N   0  0  0  0  0  0  0  0  0  0  0  0
   45.6250   33.8630   44.7440 C   0  0  0  0  0  0  0  0  0  0  0  0
   44.8400   34.8120   45.2760 N   0  0  0  0  0  0  0  0  0  0  0  0
   43.9970   36.7420   45.0050 H   0  0  0  0  0  0  0  0  0  0  0  0
   45.0680   37.0900   42.7660 H   0  0  0  0  0  0  0  0  0  0  0  0
   46.5240   35.2390   41.8650 H   0  0  0  0  0  0  0  0  0  0  0  0
   45.2470   31.1180   47.7290 O   0  0  0  0  0  0  0  0  0  0  0  0
   45.6640   30.0800   46.9450 C   0  0  2  0  0  0  0  0  0  0  0  0
   44.5790   29.0580   46.6680 C   0  0  0  0  0  0  0  0  0  0  0  0
   44.1240   28.7580   47.6350 H   0  0  0  0  0  0  0  0  0  0  0  0
   45.4490   27.9160   46.1740 C   0  0  0  0  0  0  0  0  0  0  0  0
   45.5460   28.0840   45.0650 H   0  0  0  0  0  0  0  0  0  0  0  0
   46.6950   28.0800   46.7390 O   0  0  0  0  0  0  0  0  0  0  0  0
   46.7130   29.1920   47.5390 C   0  0  0  0  0  0  0  0  0  0  0  0
   47.7020   29.6940   47.4360 H   0  0  0  0  0  0  0  0  0  0  0  0
  2  1  2  1  0  0  0
  2 15  1  0  0  0  0
  2  3  1  0  0  0  0
  4  3  1  0  0  0  0
  5  2  1  0  0  0  0
  6 12  1  0  0  0  0
  6 11  1  0  0  0  0
  7  6  2  0  0  0  0
  8  7  1  0  0  0  0
  8  9  2  0  0  0  0
  9 10  1  0  0  0  0
 10 11  2  0  0  0  0
 10  5  1  0  0  0  0
 13  7  1  0  0  0  0
 14  8  1  0  0  0  0
 16 22  1  0  0  0  0
 16 15  1  1  0  0  0
 17 16  1  0  0  0  0
 17 18  1  0  0  0  0
 19 17  1  0  0  0  0
 19 21  1  0  0  0  0
 20 19  1  0  0  0  0
 21 22  1  0  0  0  0
 23 22  1  0  0  0  0
M  END
>  <minimizedAffinity>
-4.60087633

>  <minimizedRMSD>
1.33908665

$$$$
