
 OpenBabel03242523563D

 44 47  0  0  1  0  0  0  0  0999 V2000
   37.0160   30.0510   41.4670 C   0  0  1  0  0  0  0  0  0  0  0  0
   36.6580   28.8380   40.6180 C   0  0  1  0  0  0  0  0  0  0  0  0
   36.7350   29.2060   39.2640 O   0  0  0  0  0  0  0  0  0  0  0  0
   36.3130   30.5180   39.0390 C   0  0  0  0  0  0  0  0  0  0  0  0
   37.2800   31.5310   39.6200 C   0  0  2  0  0  0  0  0  0  0  0  0
   38.0930   30.7760   40.7270 C   0  0  1  0  0  0  0  0  0  0  0  0
   37.3210   29.7320   42.4850 H   0  0  0  0  0  0  0  0  0  0  0  0
   35.6820   28.4100   40.8680 H   0  0  0  0  0  0  0  0  0  0  0  0
   35.2660   30.6750   39.3510 H   0  0  0  0  0  0  0  0  0  0  0  0
   36.3380   30.6520   37.9500 H   0  0  0  0  0  0  0  0  0  0  0  0
   37.9860   31.9190   38.8680 H   0  0  0  0  0  0  0  0  0  0  0  0
   38.6380   30.0840   40.0050 H   0  0  0  0  0  0  0  0  0  0  0  0
   35.8980   30.8790   41.6490 O   0  0  0  0  0  0  0  0  0  0  0  0
   35.3430   30.4110   42.3270 H   0  0  0  0  0  0  0  0  0  0  0  0
   36.5740   32.5160   40.2970 O   0  0  0  0  0  0  0  0  0  0  0  0
   37.0230   32.8870   41.0740 H   0  0  0  0  0  0  0  0  0  0  0  0
   37.7230   27.9430   40.7850 O   0  0  0  0  0  0  0  0  0  0  0  0
   37.5950   26.6350   41.0430 C   0  0  0  0  0  0  0  0  0  0  0  0
   36.7540   25.8220   40.2680 C   0  0  0  0  0  0  0  0  0  0  0  0
   36.6680   24.4750   40.5890 C   0  0  0  0  0  0  0  0  0  0  0  0
   37.4040   23.9780   41.6480 N   0  0  0  0  0  0  0  0  0  0  0  0
   38.2040   24.7950   42.3710 C   0  0  0  0  0  0  0  0  0  0  0  0
   38.3020   26.1150   42.0730 N   0  0  0  0  0  0  0  0  0  0  0  0
   36.1790   26.2130   39.4400 H   0  0  0  0  0  0  0  0  0  0  0  0
   38.7460   24.3340   43.1820 H   0  0  0  0  0  0  0  0  0  0  0  0
   35.7770   23.5500   39.8130 C   0  0  0  0  0  0  0  0  0  0  0  0
   35.3360   24.0270   38.4310 C   0  0  0  0  0  0  0  0  0  0  0  0
   36.2750   22.8330   38.6830 C   0  0  0  0  0  0  0  0  0  0  0  0
   34.9480   23.1770   40.4470 H   0  0  0  0  0  0  0  0  0  0  0  0
   34.3070   23.8180   38.1490 H   0  0  0  0  0  0  0  0  0  0  0  0
   35.8510   24.9340   38.0830 H   0  0  0  0  0  0  0  0  0  0  0  0
   37.3440   22.9550   38.3680 H   0  0  0  0  0  0  0  0  0  0  0  0
   35.8470   21.8710   38.3490 H   0  0  0  0  0  0  0  0  0  0  0  0
   38.7940   31.6950   41.4140 O   0  0  0  0  0  0  0  0  0  0  0  0
   39.9660   32.2910   41.0940 C   0  0  0  0  0  0  0  0  0  0  0  0
   41.1110   31.8010   41.5060 O   0  0  0  0  0  0  0  0  0  0  0  0
   40.5810   33.4370   40.3580 C   0  0  2  0  0  3  0  0  0  0  0  0
   40.6870   33.0130   38.8880 C   0  0  0  0  0  3  0  0  0  0  0  0
   39.7620   33.1640   38.3260 H   0  0  0  0  0  0  0  0  0  0  0  0
   41.7910   33.9420   38.4140 C   0  0  0  0  0  3  0  0  0  0  0  0
   42.3960   33.5040   37.5920 H   0  0  0  0  0  0  0  0  0  0  0  0
   42.6260   34.1450   39.4990 O   0  0  0  0  0  0  0  0  0  0  0  0
   41.9860   33.7530   40.6590 C   0  0  0  0  0  3  0  0  0  0  0  0
   42.1260   34.5200   41.4490 H   0  0  0  0  0  0  0  0  0  0  0  0
  1 13  1  0  0  0  0
  1  7  1  1  0  0  0
  2 17  1  0  0  0  0
  2  8  1  1  0  0  0
  2  1  1  0  0  0  0
  3  2  1  0  0  0  0
  4  3  1  0  0  0  0
  4  9  1  0  0  0  0
  4  5  1  0  0  0  0
  5 11  1  6  0  0  0
  5 15  1  0  0  0  0
  5  6  1  0  0  0  0
  6 12  1  6  0  0  0
  6 34  1  0  0  0  0
  6  1  1  0  0  0  0
 10  4  1  0  0  0  0
 13 14  1  0  0  0  0
 15 16  1  0  0  0  0
 17 18  1  0  0  0  0
 18 23  1  0  0  0  0
 19 20  1  0  0  0  0
 19 18  2  0  0  0  0
 20 21  2  0  0  0  0
 21 22  1  0  0  0  0
 22 25  1  0  0  0  0
 23 22  2  0  0  0  0
 24 19  1  0  0  0  0
 26 29  1  0  0  0  0
 26 20  1  0  0  0  0
 27 28  1  0  0  0  0
 27 26  1  0  0  0  0
 28 26  1  0  0  0  0
 30 27  1  0  0  0  0
 31 27  1  0  0  0  0
 32 28  1  0  0  0  0
 33 28  1  0  0  0  0
 35 34  1  0  0  0  0
 35 36  2  0  0  0  0
 37 43  1  0  0  0  0
 37 35  1  1  0  0  0
 38 37  1  0  0  0  0
 39 38  1  0  0  0  0
 40 38  1  0  0  0  0
 40 42  1  0  0  0  0
 41 40  1  0  0  0  0
 42 43  1  0  0  0  0
 43 44  1  0  0  0  0
M  END
>  <minimizedAffinity>
-5.67917633

$$$$

 OpenBabel03242523563D

 44 47  0  0  1  0  0  0  0  0999 V2000
   38.7000   31.4210   40.0120 C   0  0  1  0  0  0  0  0  0  0  0  0
   39.6860   32.1200   40.9380 C   0  0  1  0  0  0  0  0  0  0  0  0
   39.2660   33.4500   41.1110 O   0  0  0  0  0  0  0  0  0  0  0  0
   38.7050   33.9900   39.9520 C   0  0  0  0  0  0  0  0  0  0  0  0
   37.3680   33.3560   39.6210 C   0  0  2  0  0  0  0  0  0  0  0  0
   37.3510   31.9680   40.3480 C   0  0  1  0  0  0  0  0  0  0  0  0
   38.7700   30.3200   40.1340 H   0  0  0  0  0  0  0  0  0  0  0  0
   40.7220   32.0630   40.5880 H   0  0  0  0  0  0  0  0  0  0  0  0
   39.4170   33.9900   39.1100 H   0  0  0  0  0  0  0  0  0  0  0  0
   38.5010   35.0430   40.1880 H   0  0  0  0  0  0  0  0  0  0  0  0
   36.5170   33.9540   39.9840 H   0  0  0  0  0  0  0  0  0  0  0  0
   37.3290   32.3980   41.4020 H   0  0  0  0  0  0  0  0  0  0  0  0
   39.0150   31.6730   38.6680 O   0  0  0  0  0  0  0  0  0  0  0  0
   39.7990   31.0930   38.4770 H   0  0  0  0  0  0  0  0  0  0  0  0
   37.3150   33.0570   38.2670 O   0  0  0  0  0  0  0  0  0  0  0  0
   36.8050   32.2630   38.0370 H   0  0  0  0  0  0  0  0  0  0  0  0
   39.4860   31.5380   42.1980 O   0  0  0  0  0  0  0  0  0  0  0  0
   39.7400   30.2580   42.5030 C   0  0  0  0  0  0  0  0  0  0  0  0
   38.7070   29.3800   42.8640 C   0  0  0  0  0  0  0  0  0  0  0  0
   39.0400   28.0680   43.1660 C   0  0  0  0  0  0  0  0  0  0  0  0
   40.3610   27.6670   43.1040 N   0  0  0  0  0  0  0  0  0  0  0  0
   41.3290   28.5450   42.7510 C   0  0  0  0  0  0  0  0  0  0  0  0
   41.0240   29.8330   42.4520 N   0  0  0  0  0  0  0  0  0  0  0  0
   37.6750   29.6960   42.9120 H   0  0  0  0  0  0  0  0  0  0  0  0
   42.3350   28.1580   42.7270 H   0  0  0  0  0  0  0  0  0  0  0  0
   37.9890   27.0780   43.5750 C   0  0  0  0  0  0  0  0  0  0  0  0
   36.5360   27.5040   43.3760 C   0  0  0  0  0  0  0  0  0  0  0  0
   37.2280   26.3730   42.5940 C   0  0  0  0  0  0  0  0  0  0  0  0
   38.2040   26.6660   44.5810 H   0  0  0  0  0  0  0  0  0  0  0  0
   35.8360   27.2280   44.1610 H   0  0  0  0  0  0  0  0  0  0  0  0
   36.4150   28.4330   42.8020 H   0  0  0  0  0  0  0  0  0  0  0  0
   37.4150   26.5540   41.5030 H   0  0  0  0  0  0  0  0  0  0  0  0
   36.7800   25.3810   42.7830 H   0  0  0  0  0  0  0  0  0  0  0  0
   36.2840   31.2840   39.8940 O   0  0  0  0  0  0  0  0  0  0  0  0
   36.2430   30.0960   39.2480 C   0  0  0  0  0  0  0  0  0  0  0  0
   36.4370   30.0190   37.9540 O   0  0  0  0  0  0  0  0  0  0  0  0
   36.0410   28.6260   39.4290 C   0  0  2  0  0  3  0  0  0  0  0  0
   37.4120   27.9650   39.2430 C   0  0  0  0  0  3  0  0  0  0  0  0
   38.0250   27.9790   40.1460 H   0  0  0  0  0  0  0  0  0  0  0  0
   36.9860   26.5530   38.8730 C   0  0  0  0  0  3  0  0  0  0  0  0
   37.7150   26.0490   38.2040 H   0  0  0  0  0  0  0  0  0  0  0  0
   35.7880   26.6710   38.1900 O   0  0  0  0  0  0  0  0  0  0  0  0
   35.2510   27.9250   38.4040 C   0  0  0  0  0  3  0  0  0  0  0  0
   34.1680   27.8420   38.6350 H   0  0  0  0  0  0  0  0  0  0  0  0
  1  7  1  1  0  0  0
  1  6  1  0  0  0  0
  1  2  1  0  0  0  0
  2  8  1  6  0  0  0
  2  3  1  0  0  0  0
  2 17  1  0  0  0  0
  4 10  1  0  0  0  0
  4  3  1  0  0  0  0
  5  4  1  0  0  0  0
  5 11  1  1  0  0  0
  5  6  1  0  0  0  0
  6 12  1  1  0  0  0
  9  4  1  0  0  0  0
 13  1  1  0  0  0  0
 14 13  1  0  0  0  0
 15  5  1  0  0  0  0
 16 15  1  0  0  0  0
 17 18  1  0  0  0  0
 18 19  1  0  0  0  0
 19 24  1  0  0  0  0
 19 20  2  0  0  0  0
 20 26  1  0  0  0  0
 21 20  1  0  0  0  0
 22 21  2  0  0  0  0
 23 18  2  0  0  0  0
 23 22  1  0  0  0  0
 25 22  1  0  0  0  0
 26 29  1  0  0  0  0
 27 26  1  0  0  0  0
 27 30  1  0  0  0  0
 28 33  1  0  0  0  0
 28 27  1  0  0  0  0
 28 26  1  0  0  0  0
 31 27  1  0  0  0  0
 32 28  1  0  0  0  0
 34  6  1  0  0  0  0
 35 34  1  0  0  0  0
 36 35  2  0  0  0  0
 37 35  1  6  0  0  0
 38 37  1  0  0  0  0
 38 39  1  0  0  0  0
 40 38  1  0  0  0  0
 41 40  1  0  0  0  0
 42 43  1  0  0  0  0
 42 40  1  0  0  0  0
 43 44  1  0  0  0  0
 43 37  1  0  0  0  0
M  END
>  <minimizedAffinity>
-5.63033342

$$$$

 OpenBabel03242523563D

 44 47  0  0  1  0  0  0  0  0999 V2000
   36.9760   30.6370   40.1820 C   0  0  1  0  0  0  0  0  0  0  0  0
   36.6920   30.2580   38.7340 C   0  0  1  0  0  0  0  0  0  0  0  0
   37.2580   31.2380   37.9010 O   0  0  0  0  0  0  0  0  0  0  0  0
   37.1720   32.5210   38.4450 C   0  0  0  0  0  0  0  0  0  0  0  0
   38.0710   32.6850   39.6540 C   0  0  2  0  0  0  0  0  0  0  0  0
   38.3430   31.2400   40.1970 C   0  0  1  0  0  0  0  0  0  0  0  0
   36.8810   29.7480   40.8390 H   0  0  0  0  0  0  0  0  0  0  0  0
   35.6270   30.1140   38.5260 H   0  0  0  0  0  0  0  0  0  0  0  0
   36.1260   32.8240   38.6240 H   0  0  0  0  0  0  0  0  0  0  0  0
   37.5640   33.1950   37.6720 H   0  0  0  0  0  0  0  0  0  0  0  0
   39.0350   33.1530   39.4020 H   0  0  0  0  0  0  0  0  0  0  0  0
   38.9550   30.9020   39.2980 H   0  0  0  0  0  0  0  0  0  0  0  0
   36.0250   31.5560   40.6510 O   0  0  0  0  0  0  0  0  0  0  0  0
   35.2090   31.0150   40.8200 H   0  0  0  0  0  0  0  0  0  0  0  0
   37.3760   33.3280   40.6690 O   0  0  0  0  0  0  0  0  0  0  0  0
   37.6150   33.0580   41.5710 H   0  0  0  0  0  0  0  0  0  0  0  0
   37.4720   29.1190   38.4910 O   0  0  0  0  0  0  0  0  0  0  0  0
   37.0780   27.8570   38.7090 C   0  0  0  0  0  0  0  0  0  0  0  0
   37.6550   27.0830   39.7270 C   0  0  0  0  0  0  0  0  0  0  0  0
   37.2000   25.7840   39.8990 C   0  0  0  0  0  0  0  0  0  0  0  0
   36.2030   25.2950   39.0750 N   0  0  0  0  0  0  0  0  0  0  0  0
   35.6720   26.0740   38.1050 C   0  0  0  0  0  0  0  0  0  0  0  0
   36.1040   27.3470   37.9200 N   0  0  0  0  0  0  0  0  0  0  0  0
   38.4350   27.4670   40.3690 H   0  0  0  0  0  0  0  0  0  0  0  0
   34.9000   25.6230   37.5030 H   0  0  0  0  0  0  0  0  0  0  0  0
   37.7820   24.8930   40.9560 C   0  0  0  0  0  0  0  0  0  0  0  0
   36.8290   24.4280   42.0560 C   0  0  0  0  0  0  0  0  0  0  0  0
   37.4590   23.5030   40.9990 C   0  0  0  0  0  0  0  0  0  0  0  0
   38.7400   25.3020   41.3340 H   0  0  0  0  0  0  0  0  0  0  0  0
   37.2300   24.3970   43.0670 H   0  0  0  0  0  0  0  0  0  0  0  0
   35.7740   24.6670   41.8670 H   0  0  0  0  0  0  0  0  0  0  0  0
   36.7670   23.0640   40.2340 H   0  0  0  0  0  0  0  0  0  0  0  0
   38.1340   22.7450   41.4370 H   0  0  0  0  0  0  0  0  0  0  0  0
   38.9440   31.3610   41.3940 O   0  0  0  0  0  0  0  0  0  0  0  0
   39.4080   30.3950   42.2190 C   0  0  0  0  0  0  0  0  0  0  0  0
   40.6850   30.0980   42.2660 O   0  0  0  0  0  0  0  0  0  0  0  0
   39.0100   29.3850   43.2460 C   0  0  2  0  0  3  0  0  0  0  0  0
   39.8240   28.1170   42.9600 C   0  0  0  0  0  3  0  0  0  0  0  0
   40.8280   28.1410   43.3900 H   0  0  0  0  0  0  0  0  0  0  0  0
   38.9480   27.0720   43.6300 C   0  0  0  0  0  3  0  0  0  0  0  0
   39.0190   26.0780   43.1410 H   0  0  0  0  0  0  0  0  0  0  0  0
   37.6440   27.5180   43.5100 O   0  0  0  0  0  0  0  0  0  0  0  0
   37.6380   28.8570   43.1730 C   0  0  0  0  0  3  0  0  0  0  0  0
   36.9010   29.4050   43.7980 H   0  0  0  0  0  0  0  0  0  0  0  0
  1  6  1  0  0  0  0
  1 13  1  0  0  0  0
  1  7  1  1  0  0  0
  2  8  1  6  0  0  0
  2  1  1  0  0  0  0
  3  4  1  0  0  0  0
  3  2  1  0  0  0  0
  4  9  1  0  0  0  0
  4  5  1  0  0  0  0
  5 11  1  6  0  0  0
  5  6  1  0  0  0  0
  5 15  1  0  0  0  0
  6 12  1  6  0  0  0
  6 34  1  0  0  0  0
 10  4  1  0  0  0  0
 13 14  1  0  0  0  0
 15 16  1  0  0  0  0
 17 18  1  0  0  0  0
 17  2  1  0  0  0  0
 18 19  1  0  0  0  0
 19 20  2  0  0  0  0
 19 24  1  0  0  0  0
 20 26  1  0  0  0  0
 21 20  1  0  0  0  0
 22 21  2  0  0  0  0
 23 22  1  0  0  0  0
 23 18  2  0  0  0  0
 25 22  1  0  0  0  0
 26 28  1  0  0  0  0
 26 29  1  0  0  0  0
 26 27  1  0  0  0  0
 27 30  1  0  0  0  0
 28 33  1  0  0  0  0
 28 27  1  0  0  0  0
 31 27  1  0  0  0  0
 32 28  1  0  0  0  0
 34 35  1  0  0  0  0
 35 36  2  0  0  0  0
 37 35  1  6  0  0  0
 38 37  1  0  0  0  0
 38 39  1  0  0  0  0
 38 40  1  0  0  0  0
 41 40  1  0  0  0  0
 42 40  1  0  0  0  0
 43 37  1  0  0  0  0
 43 42  1  0  0  0  0
 43 44  1  0  0  0  0
M  END
>  <minimizedAffinity>
-5.57161951

$$$$

 OpenBabel03242523563D

 44 47  0  0  1  0  0  0  0  0999 V2000
   38.8360   30.5960   40.1560 C   0  0  1  0  0  0  0  0  0  0  0  0
   39.7550   30.8640   41.3410 C   0  0  1  0  0  0  0  0  0  0  0  0
   39.8790   32.2550   41.5000 O   0  0  0  0  0  0  0  0  0  0  0  0
   39.8930   32.9360   40.2820 C   0  0  0  0  0  0  0  0  0  0  0  0
   38.5430   32.8920   39.5940 C   0  0  2  0  0  0  0  0  0  0  0  0
   37.7850   31.6580   40.1950 C   0  0  1  0  0  0  0  0  0  0  0  0
   38.4230   29.5680   40.2130 H   0  0  0  0  0  0  0  0  0  0  0  0
   40.7310   30.3760   41.2480 H   0  0  0  0  0  0  0  0  0  0  0  0
   40.7290   32.6150   39.6380 H   0  0  0  0  0  0  0  0  0  0  0  0
   40.0790   33.9880   40.5350 H   0  0  0  0  0  0  0  0  0  0  0  0
   37.9440   33.7980   39.7820 H   0  0  0  0  0  0  0  0  0  0  0  0
   37.6770   32.0970   41.2390 H   0  0  0  0  0  0  0  0  0  0  0  0
   39.5500   30.6510   38.9500 O   0  0  0  0  0  0  0  0  0  0  0  0
   40.0540   29.7950   38.9140 H   0  0  0  0  0  0  0  0  0  0  0  0
   38.7130   32.5930   38.2490 O   0  0  0  0  0  0  0  0  0  0  0  0
   38.0000   32.0690   37.8470 H   0  0  0  0  0  0  0  0  0  0  0  0
   39.0300   30.4590   42.4700 O   0  0  0  0  0  0  0  0  0  0  0  0
   38.6270   29.2050   42.7160 C   0  0  0  0  0  0  0  0  0  0  0  0
   39.5440   28.2040   43.0690 C   0  0  0  0  0  0  0  0  0  0  0  0
   39.0590   26.9280   43.3110 C   0  0  0  0  0  0  0  0  0  0  0  0
   37.7040   26.6800   43.2000 N   0  0  0  0  0  0  0  0  0  0  0  0
   36.8510   27.6730   42.8580 C   0  0  0  0  0  0  0  0  0  0  0  0
   37.3060   28.9290   42.6160 N   0  0  0  0  0  0  0  0  0  0  0  0
   40.6040   28.4000   43.1540 H   0  0  0  0  0  0  0  0  0  0  0  0
   35.8090   27.4030   42.7910 H   0  0  0  0  0  0  0  0  0  0  0  0
   39.9840   25.8050   43.6770 C   0  0  0  0  0  0  0  0  0  0  0  0
   39.6460   24.4290   43.1050 C   0  0  0  0  0  0  0  0  0  0  0  0
   40.8840   25.2560   42.7130 C   0  0  0  0  0  0  0  0  0  0  0  0
   40.1910   25.8020   44.7650 H   0  0  0  0  0  0  0  0  0  0  0  0
   39.7880   23.5780   43.7670 H   0  0  0  0  0  0  0  0  0  0  0  0
   38.8460   24.4390   42.3520 H   0  0  0  0  0  0  0  0  0  0  0  0
   40.9080   25.6670   41.6700 H   0  0  0  0  0  0  0  0  0  0  0  0
   41.8350   24.7670   42.9930 H   0  0  0  0  0  0  0  0  0  0  0  0
   36.6840   31.4550   39.4490 O   0  0  0  0  0  0  0  0  0  0  0  0
   36.3090   30.3510   38.7620 C   0  0  0  0  0  0  0  0  0  0  0  0
   36.7230   30.1420   37.5350 O   0  0  0  0  0  0  0  0  0  0  0  0
   35.5070   29.0920   38.8370 C   0  0  2  0  0  3  0  0  0  0  0  0
   36.4510   27.9420   38.4680 C   0  0  0  0  0  3  0  0  0  0  0  0
   37.0560   27.5920   39.3070 H   0  0  0  0  0  0  0  0  0  0  0  0
   35.4450   26.8940   38.0220 C   0  0  0  0  0  3  0  0  0  0  0  0
   35.8540   26.2110   37.2480 H   0  0  0  0  0  0  0  0  0  0  0  0
   34.3810   27.5830   37.4680 O   0  0  0  0  0  0  0  0  0  0  0  0
   34.4430   28.9130   37.8350 C   0  0  0  0  0  3  0  0  0  0  0  0
   33.4420   29.2660   38.1590 H   0  0  0  0  0  0  0  0  0  0  0  0
  1  6  1  0  0  0  0
  1  7  1  1  0  0  0
  1  2  1  0  0  0  0
  2  8  1  6  0  0  0
  2  3  1  0  0  0  0
  2 17  1  0  0  0  0
  4 10  1  0  0  0  0
  4  3  1  0  0  0  0
  5 11  1  1  0  0  0
  5  6  1  0  0  0  0
  5  4  1  0  0  0  0
  6 12  1  1  0  0  0
  9  4  1  0  0  0  0
 13  1  1  0  0  0  0
 14 13  1  0  0  0  0
 15  5  1  0  0  0  0
 16 15  1  0  0  0  0
 17 18  1  0  0  0  0
 18 19  1  0  0  0  0
 19 24  1  0  0  0  0
 19 20  2  0  0  0  0
 20 26  1  0  0  0  0
 21 20  1  0  0  0  0
 22 21  2  0  0  0  0
 23 18  2  0  0  0  0
 23 22  1  0  0  0  0
 25 22  1  0  0  0  0
 26 29  1  0  0  0  0
 27 26  1  0  0  0  0
 27 30  1  0  0  0  0
 28 33  1  0  0  0  0
 28 27  1  0  0  0  0
 28 26  1  0  0  0  0
 31 27  1  0  0  0  0
 32 28  1  0  0  0  0
 34  6  1  0  0  0  0
 35 34  1  0  0  0  0
 36 35  2  0  0  0  0
 37 35  1  6  0  0  0
 38 37  1  0  0  0  0
 38 39  1  0  0  0  0
 40 38  1  0  0  0  0
 41 40  1  0  0  0  0
 42 43  1  0  0  0  0
 42 40  1  0  0  0  0
 43 44  1  0  0  0  0
 43 37  1  0  0  0  0
M  END
>  <minimizedAffinity>
-5.55319023

$$$$

 OpenBabel03242523563D

 44 47  0  0  1  0  0  0  0  0999 V2000
   35.6600   28.8140   40.0040 C   0  0  1  0  0  0  0  0  0  0  0  0
   35.9910   28.8670   38.5180 C   0  0  1  0  0  0  0  0  0  0  0  0
   36.8260   29.9750   38.2900 O   0  0  0  0  0  0  0  0  0  0  0  0
   36.5030   31.0670   39.0970 C   0  0  0  0  0  0  0  0  0  0  0  0
   36.8350   30.8110   40.5540 C   0  0  2  0  0  0  0  0  0  0  0  0
   36.8940   29.2540   40.7230 C   0  0  1  0  0  0  0  0  0  0  0  0
   35.3260   27.7950   40.2880 H   0  0  0  0  0  0  0  0  0  0  0  0
   35.1030   28.8890   37.8790 H   0  0  0  0  0  0  0  0  0  0  0  0
   35.4680   31.4110   38.9320 H   0  0  0  0  0  0  0  0  0  0  0  0
   37.1600   31.8810   38.7660 H   0  0  0  0  0  0  0  0  0  0  0  0
   37.8110   31.2330   40.8440 H   0  0  0  0  0  0  0  0  0  0  0  0
   37.8220   29.1110   40.0800 H   0  0  0  0  0  0  0  0  0  0  0  0
   34.5840   29.6620   40.3050 O   0  0  0  0  0  0  0  0  0  0  0  0
   33.7800   29.1780   39.9790 H   0  0  0  0  0  0  0  0  0  0  0  0
   35.7780   31.2230   41.3540 O   0  0  0  0  0  0  0  0  0  0  0  0
   35.6390   30.6990   42.1600 H   0  0  0  0  0  0  0  0  0  0  0  0
   36.8240   27.7640   38.2860 O   0  0  0  0  0  0  0  0  0  0  0  0
   36.4880   26.4870   38.5070 C   0  0  0  0  0  0  0  0  0  0  0  0
   37.0840   25.7480   39.5400 C   0  0  0  0  0  0  0  0  0  0  0  0
   36.6890   24.4300   39.7150 C   0  0  0  0  0  0  0  0  0  0  0  0
   35.7320   23.8880   38.8780 N   0  0  0  0  0  0  0  0  0  0  0  0
   35.1800   24.6330   37.8930 C   0  0  0  0  0  0  0  0  0  0  0  0
   35.5530   25.9240   37.7050 N   0  0  0  0  0  0  0  0  0  0  0  0
   37.8330   26.1740   40.1930 H   0  0  0  0  0  0  0  0  0  0  0  0
   34.4410   24.1410   37.2820 H   0  0  0  0  0  0  0  0  0  0  0  0
   37.2960   23.5760   40.7890 C   0  0  0  0  0  0  0  0  0  0  0  0
   38.7600   23.8480   41.1310 C   0  0  0  0  0  0  0  0  0  0  0  0
   37.5780   24.1180   42.0800 C   0  0  0  0  0  0  0  0  0  0  0  0
   37.0640   22.5060   40.6220 H   0  0  0  0  0  0  0  0  0  0  0  0
   39.3840   22.9790   41.3260 H   0  0  0  0  0  0  0  0  0  0  0  0
   39.1700   24.7530   40.6620 H   0  0  0  0  0  0  0  0  0  0  0  0
   37.3420   25.1910   42.3020 H   0  0  0  0  0  0  0  0  0  0  0  0
   37.6100   23.4980   42.9950 H   0  0  0  0  0  0  0  0  0  0  0  0
   36.9590   28.9900   42.0410 O   0  0  0  0  0  0  0  0  0  0  0  0
   37.8370   28.2120   42.7140 C   0  0  0  0  0  0  0  0  0  0  0  0
   37.4280   27.3340   43.5980 O   0  0  0  0  0  0  0  0  0  0  0  0
   39.2870   27.8920   42.8870 C   0  0  2  0  0  3  0  0  0  0  0  0
   39.8200   27.4900   41.5060 C   0  0  0  0  0  3  0  0  0  0  0  0
   40.0950   28.3440   40.8830 H   0  0  0  0  0  0  0  0  0  0  0  0
   41.0350   26.6720   41.9090 C   0  0  0  0  0  3  0  0  0  0  0  0
   41.2720   25.8710   41.1780 H   0  0  0  0  0  0  0  0  0  0  0  0
   40.7210   26.0720   43.1160 O   0  0  0  0  0  0  0  0  0  0  0  0
   39.6220   26.6940   43.6740 C   0  0  0  0  0  3  0  0  0  0  0  0
   39.7990   26.8880   44.7520 H   0  0  0  0  0  0  0  0  0  0  0  0
  1  7  1  1  0  0  0
  1 13  1  0  0  0  0
  1  6  1  0  0  0  0
  2  8  1  6  0  0  0
  2  1  1  0  0  0  0
  3  2  1  0  0  0  0
  3  4  1  0  0  0  0
  4  5  1  0  0  0  0
  5  6  1  0  0  0  0
  5 11  1  1  0  0  0
  5 15  1  0  0  0  0
  6 12  1  6  0  0  0
  6 34  1  0  0  0  0
  9  4  1  0  0  0  0
 10  4  1  0  0  0  0
 14 13  1  0  0  0  0
 15 16  1  0  0  0  0
 17 18  1  0  0  0  0
 17  2  1  0  0  0  0
 18 19  1  0  0  0  0
 19 20  2  0  0  0  0
 19 24  1  0  0  0  0
 20 26  1  0  0  0  0
 21 20  1  0  0  0  0
 22 21  2  0  0  0  0
 23 22  1  0  0  0  0
 23 18  2  0  0  0  0
 25 22  1  0  0  0  0
 26 27  1  0  0  0  0
 26 28  1  0  0  0  0
 27 30  1  0  0  0  0
 27 28  1  0  0  0  0
 28 32  1  0  0  0  0
 28 33  1  0  0  0  0
 29 26  1  0  0  0  0
 31 27  1  0  0  0  0
 34 35  1  0  0  0  0
 35 36  2  0  0  0  0
 37 35  1  6  0  0  0
 37 43  1  0  0  0  0
 38 40  1  0  0  0  0
 38 37  1  0  0  0  0
 39 38  1  0  0  0  0
 40 42  1  0  0  0  0
 41 40  1  0  0  0  0
 42 43  1  0  0  0  0
 43 44  1  0  0  0  0
M  END
>  <minimizedAffinity>
-5.50978994

$$$$

 OpenBabel03242523563D

 44 47  0  0  1  0  0  0  0  0999 V2000
   40.1740   30.3770   38.6450 C   0  0  1  0  0  0  0  0  0  0  0  0
   41.5590   30.0760   39.2030 C   0  0  1  0  0  0  0  0  0  0  0  0
   42.3560   31.2230   39.0530 O   0  0  0  0  0  0  0  0  0  0  0  0
   42.0800   31.9190   37.8740 C   0  0  0  0  0  0  0  0  0  0  0  0
   40.7150   32.5770   37.9110 C   0  0  2  0  0  0  0  0  0  0  0  0
   39.8850   31.8010   38.9910 C   0  0  1  0  0  0  0  0  0  0  0  0
   39.4290   29.6650   39.0570 H   0  0  0  0  0  0  0  0  0  0  0  0
   42.0250   29.1950   38.7490 H   0  0  0  0  0  0  0  0  0  0  0  0
   42.2490   31.2970   36.9780 H   0  0  0  0  0  0  0  0  0  0  0  0
   42.8170   32.7310   37.8330 H   0  0  0  0  0  0  0  0  0  0  0  0
   40.7670   33.6380   38.2030 H   0  0  0  0  0  0  0  0  0  0  0  0
   40.5100   32.1480   39.8770 H   0  0  0  0  0  0  0  0  0  0  0  0
   40.1460   30.1900   37.2550 O   0  0  0  0  0  0  0  0  0  0  0  0
   40.1190   29.2050   37.1310 H   0  0  0  0  0  0  0  0  0  0  0  0
   40.0530   32.3490   36.7130 O   0  0  0  0  0  0  0  0  0  0  0  0
   39.0880   32.2610   36.7820 H   0  0  0  0  0  0  0  0  0  0  0  0
   41.3830   29.9670   40.5890 O   0  0  0  0  0  0  0  0  0  0  0  0
   41.0710   28.8370   41.2380 C   0  0  0  0  0  0  0  0  0  0  0  0
   39.9290   28.7580   42.0480 C   0  0  0  0  0  0  0  0  0  0  0  0
   39.6640   27.5580   42.6910 C   0  0  0  0  0  0  0  0  0  0  0  0
   40.5210   26.4880   42.5180 N   0  0  0  0  0  0  0  0  0  0  0  0
   41.6120   26.6040   41.7270 C   0  0  0  0  0  0  0  0  0  0  0  0
   41.8890   27.7690   41.0900 N   0  0  0  0  0  0  0  0  0  0  0  0
   39.2600   29.5970   42.1830 H   0  0  0  0  0  0  0  0  0  0  0  0
   42.2330   25.7260   41.6420 H   0  0  0  0  0  0  0  0  0  0  0  0
   38.4690   27.4070   43.5860 C   0  0  0  0  0  0  0  0  0  0  0  0
   37.5070   28.5920   43.6460 C   0  0  0  0  0  0  0  0  0  0  0  0
   37.1640   27.2210   43.0360 C   0  0  0  0  0  0  0  0  0  0  0  0
   38.7660   27.0170   44.5790 H   0  0  0  0  0  0  0  0  0  0  0  0
   37.0950   28.8350   44.6230 H   0  0  0  0  0  0  0  0  0  0  0  0
   37.7100   29.3740   42.9010 H   0  0  0  0  0  0  0  0  0  0  0  0
   37.0240   27.1830   41.9240 H   0  0  0  0  0  0  0  0  0  0  0  0
   36.3550   26.6990   43.5780 H   0  0  0  0  0  0  0  0  0  0  0  0
   38.6060   32.2070   38.8890 O   0  0  0  0  0  0  0  0  0  0  0  0
   37.5020   31.7150   39.4980 C   0  0  0  0  0  0  0  0  0  0  0  0
   37.1740   32.0860   40.7120 O   0  0  0  0  0  0  0  0  0  0  0  0
   36.3360   30.7940   39.3310 C   0  0  2  0  0  3  0  0  0  0  0  0
   35.9320   30.3340   40.7370 C   0  0  0  0  0  3  0  0  0  0  0  0
   35.2820   31.0440   41.2540 H   0  0  0  0  0  0  0  0  0  0  0  0
   35.2030   29.0430   40.4030 C   0  0  0  0  0  3  0  0  0  0  0  0
   35.2770   28.2890   41.2150 H   0  0  0  0  0  0  0  0  0  0  0  0
   35.8200   28.5250   39.2780 O   0  0  0  0  0  0  0  0  0  0  0  0
   36.5900   29.5000   38.6760 C   0  0  0  0  0  3  0  0  0  0  0  0
   36.4200   29.4990   37.5800 H   0  0  0  0  0  0  0  0  0  0  0  0
  1  6  1  0  0  0  0
  1  7  1  1  0  0  0
  1  2  1  0  0  0  0
  2  8  1  6  0  0  0
  2 17  1  0  0  0  0
  3  2  1  0  0  0  0
  4  5  1  0  0  0  0
  4  3  1  0  0  0  0
  5 11  1  1  0  0  0
  5  6  1  0  0  0  0
  6 12  1  1  0  0  0
  9  4  1  0  0  0  0
 10  4  1  0  0  0  0
 13  1  1  0  0  0  0
 14 13  1  0  0  0  0
 15 16  1  0  0  0  0
 15  5  1  0  0  0  0
 17 18  1  0  0  0  0
 18 19  1  0  0  0  0
 19 24  1  0  0  0  0
 19 20  2  0  0  0  0
 20 26  1  0  0  0  0
 21 20  1  0  0  0  0
 22 21  2  0  0  0  0
 23 18  2  0  0  0  0
 23 22  1  0  0  0  0
 25 22  1  0  0  0  0
 26 27  1  0  0  0  0
 26 29  1  0  0  0  0
 27 30  1  0  0  0  0
 28 33  1  0  0  0  0
 28 26  1  0  0  0  0
 28 27  1  0  0  0  0
 31 27  1  0  0  0  0
 32 28  1  0  0  0  0
 34  6  1  0  0  0  0
 34 35  1  0  0  0  0
 35 36  2  0  0  0  0
 37 35  1  1  0  0  0
 37 38  1  0  0  0  0
 38 39  1  0  0  0  0
 40 38  1  0  0  0  0
 40 41  1  0  0  0  0
 42 40  1  0  0  0  0
 43 42  1  0  0  0  0
 43 37  1  0  0  0  0
 44 43  1  0  0  0  0
M  END
>  <minimizedAffinity>
-5.49053764

$$$$

 OpenBabel03242523563D

 44 47  0  0  1  0  0  0  0  0999 V2000
   39.8540   30.8740   40.3220 C   0  0  1  0  0  0  0  0  0  0  0  0
   41.0250   30.8200   41.2950 C   0  0  1  0  0  0  0  0  0  0  0  0
   41.5610   32.1140   41.4150 O   0  0  0  0  0  0  0  0  0  0  0  0
   41.5250   32.8240   40.2130 C   0  0  0  0  0  0  0  0  0  0  0  0
   40.1090   33.1860   39.8110 C   0  0  2  0  0  0  0  0  0  0  0  0
   39.1700   32.1800   40.5620 C   0  0  1  0  0  0  0  0  0  0  0  0
   39.1910   29.9960   40.4690 H   0  0  0  0  0  0  0  0  0  0  0  0
   41.7890   30.0880   41.0120 H   0  0  0  0  0  0  0  0  0  0  0  0
   42.0970   32.3170   39.4170 H   0  0  0  0  0  0  0  0  0  0  0  0
   42.0430   33.7700   40.4160 H   0  0  0  0  0  0  0  0  0  0  0  0
   39.8360   34.2110   40.1090 H   0  0  0  0  0  0  0  0  0  0  0  0
   39.3950   32.5800   41.6040 H   0  0  0  0  0  0  0  0  0  0  0  0
   40.3060   30.7880   38.9960 O   0  0  0  0  0  0  0  0  0  0  0  0
   40.5340   29.8300   38.8660 H   0  0  0  0  0  0  0  0  0  0  0  0
   39.9230   32.9170   38.4620 O   0  0  0  0  0  0  0  0  0  0  0  0
   39.0280   32.6300   38.2160 H   0  0  0  0  0  0  0  0  0  0  0  0
   40.4510   30.5750   42.5500 O   0  0  0  0  0  0  0  0  0  0  0  0
   39.7760   29.4680   42.8840 C   0  0  0  0  0  0  0  0  0  0  0  0
   40.4400   28.2510   43.1010 C   0  0  0  0  0  0  0  0  0  0  0  0
   39.6810   27.1430   43.4450 C   0  0  0  0  0  0  0  0  0  0  0  0
   38.3090   27.2660   43.5640 N   0  0  0  0  0  0  0  0  0  0  0  0
   37.7060   28.4570   43.3470 C   0  0  0  0  0  0  0  0  0  0  0  0
   38.4310   29.5530   43.0090 N   0  0  0  0  0  0  0  0  0  0  0  0
   41.5130   28.1570   43.0070 H   0  0  0  0  0  0  0  0  0  0  0  0
   36.6330   28.4740   43.4580 H   0  0  0  0  0  0  0  0  0  0  0  0
   40.3220   25.8070   43.6770 C   0  0  0  0  0  0  0  0  0  0  0  0
   39.6780   24.6110   42.9770 C   0  0  0  0  0  0  0  0  0  0  0  0
   41.0740   25.1690   42.6440 C   0  0  0  0  0  0  0  0  0  0  0  0
   40.5200   25.6450   44.7550 H   0  0  0  0  0  0  0  0  0  0  0  0
   39.6200   23.6860   43.5470 H   0  0  0  0  0  0  0  0  0  0  0  0
   38.9040   24.8810   42.2460 H   0  0  0  0  0  0  0  0  0  0  0  0
   41.1940   25.6680   41.6470 H   0  0  0  0  0  0  0  0  0  0  0  0
   41.8860   24.4490   42.8520 H   0  0  0  0  0  0  0  0  0  0  0  0
   37.9330   32.3230   40.0550 O   0  0  0  0  0  0  0  0  0  0  0  0
   36.9230   31.4240   39.9970 C   0  0  0  0  0  0  0  0  0  0  0  0
   36.1830   31.1660   41.0490 O   0  0  0  0  0  0  0  0  0  0  0  0
   36.2000   30.4710   39.1010 C   0  0  2  0  0  3  0  0  0  0  0  0
   35.6810   29.3340   39.9900 C   0  0  0  0  0  3  0  0  0  0  0  0
   34.7360   29.5680   40.4840 H   0  0  0  0  0  0  0  0  0  0  0  0
   35.5200   28.2310   38.9580 C   0  0  0  0  0  3  0  0  0  0  0  0
   35.6670   27.2180   39.3890 H   0  0  0  0  0  0  0  0  0  0  0  0
   36.5020   28.4390   38.0050 O   0  0  0  0  0  0  0  0  0  0  0  0
   37.0090   29.7170   38.1290 C   0  0  0  0  0  3  0  0  0  0  0  0
   37.0890   30.1940   37.1300 H   0  0  0  0  0  0  0  0  0  0  0  0
  1  7  1  1  0  0  0
  1  6  1  0  0  0  0
  1  2  1  0  0  0  0
  2  8  1  6  0  0  0
  2  3  1  0  0  0  0
  2 17  1  0  0  0  0
  4 10  1  0  0  0  0
  4  3  1  0  0  0  0
  5 11  1  1  0  0  0
  5  4  1  0  0  0  0
  5  6  1  0  0  0  0
  6 12  1  1  0  0  0
  9  4  1  0  0  0  0
 13  1  1  0  0  0  0
 14 13  1  0  0  0  0
 15  5  1  0  0  0  0
 16 15  1  0  0  0  0
 17 18  1  0  0  0  0
 18 23  2  0  0  0  0
 18 19  1  0  0  0  0
 19 20  2  0  0  0  0
 20 21  1  0  0  0  0
 20 26  1  0  0  0  0
 22 25  1  0  0  0  0
 22 21  2  0  0  0  0
 23 22  1  0  0  0  0
 24 19  1  0  0  0  0
 26 29  1  0  0  0  0
 27 30  1  0  0  0  0
 27 26  1  0  0  0  0
 28 33  1  0  0  0  0
 28 27  1  0  0  0  0
 28 26  1  0  0  0  0
 31 27  1  0  0  0  0
 32 28  1  0  0  0  0
 34  6  1  0  0  0  0
 35 34  1  0  0  0  0
 35 36  2  0  0  0  0
 37 38  1  0  0  0  0
 37 35  1  1  0  0  0
 38 39  1  0  0  0  0
 40 41  1  0  0  0  0
 40 38  1  0  0  0  0
 42 43  1  0  0  0  0
 42 40  1  0  0  0  0
 43 37  1  0  0  0  0
 44 43  1  0  0  0  0
M  END
>  <minimizedAffinity>
-5.45030642

$$$$

 OpenBabel03242523563D

 44 47  0  0  1  0  0  0  0  0999 V2000
   37.6670   31.7790   40.0080 C   0  0  1  0  0  0  0  0  0  0  0  0
   38.0490   31.8370   38.5350 C   0  0  1  0  0  0  0  0  0  0  0  0
   39.3440   32.3740   38.4340 O   0  0  0  0  0  0  0  0  0  0  0  0
   39.5900   33.3670   39.3840 C   0  0  0  0  0  0  0  0  0  0  0  0
   39.6730   32.7990   40.7870 C   0  0  2  0  0  0  0  0  0  0  0  0
   38.9150   31.4280   40.7500 C   0  0  1  0  0  0  0  0  0  0  0  0
   36.8430   31.0520   40.1650 H   0  0  0  0  0  0  0  0  0  0  0  0
   37.3300   32.3920   37.9240 H   0  0  0  0  0  0  0  0  0  0  0  0
   38.8880   34.2120   39.2890 H   0  0  0  0  0  0  0  0  0  0  0  0
   40.5870   33.7600   39.1470 H   0  0  0  0  0  0  0  0  0  0  0  0
   40.7120   32.6180   41.1080 H   0  0  0  0  0  0  0  0  0  0  0  0
   39.6680   30.9070   40.0730 H   0  0  0  0  0  0  0  0  0  0  0  0
   37.1660   33.0160   40.4410 O   0  0  0  0  0  0  0  0  0  0  0  0
   36.2440   33.0600   40.0730 H   0  0  0  0  0  0  0  0  0  0  0  0
   38.9410   33.5950   41.6580 O   0  0  0  0  0  0  0  0  0  0  0  0
   38.5140   33.1220   42.3910 H   0  0  0  0  0  0  0  0  0  0  0  0
   38.2070   30.5010   38.1420 O   0  0  0  0  0  0  0  0  0  0  0  0
   37.2730   29.5480   38.2620 C   0  0  0  0  0  0  0  0  0  0  0  0
   37.4950   28.4110   39.0540 C   0  0  0  0  0  0  0  0  0  0  0  0
   36.4850   27.4640   39.1360 C   0  0  0  0  0  0  0  0  0  0  0  0
   35.3050   27.6630   38.4450 N   0  0  0  0  0  0  0  0  0  0  0  0
   35.1300   28.7730   37.6920 C   0  0  0  0  0  0  0  0  0  0  0  0
   36.1050   29.7120   37.5990 N   0  0  0  0  0  0  0  0  0  0  0  0
   38.4190   28.2570   39.5930 H   0  0  0  0  0  0  0  0  0  0  0  0
   34.1830   28.8570   37.1830 H   0  0  0  0  0  0  0  0  0  0  0  0
   36.6590   26.2160   39.9520 C   0  0  0  0  0  0  0  0  0  0  0  0
   36.2710   24.9020   39.2770 C   0  0  0  0  0  0  0  0  0  0  0  0
   37.7090   25.2940   39.6600 C   0  0  0  0  0  0  0  0  0  0  0  0
   36.2330   26.3450   40.9660 H   0  0  0  0  0  0  0  0  0  0  0  0
   35.7580   24.1690   39.8970 H   0  0  0  0  0  0  0  0  0  0  0  0
   36.0540   24.9940   38.2040 H   0  0  0  0  0  0  0  0  0  0  0  0
   38.4190   25.5000   38.8170 H   0  0  0  0  0  0  0  0  0  0  0  0
   38.1480   24.6270   40.4240 H   0  0  0  0  0  0  0  0  0  0  0  0
   38.7720   31.0080   42.0210 O   0  0  0  0  0  0  0  0  0  0  0  0
   38.4560   29.7760   42.4830 C   0  0  0  0  0  0  0  0  0  0  0  0
   37.2120   29.3620   42.5150 O   0  0  0  0  0  0  0  0  0  0  0  0
   39.0200   28.5130   43.0500 C   0  0  2  0  0  3  0  0  0  0  0  0
   39.8910   27.8870   41.9540 C   0  0  0  0  0  3  0  0  0  0  0  0
   40.8990   28.3040   41.9110 H   0  0  0  0  0  0  0  0  0  0  0  0
   39.9000   26.4360   42.4070 C   0  0  0  0  0  3  0  0  0  0  0  0
   39.9960   25.7250   41.5610 H   0  0  0  0  0  0  0  0  0  0  0  0
   38.6800   26.2100   43.0210 O   0  0  0  0  0  0  0  0  0  0  0  0
   38.0760   27.4160   43.3170 C   0  0  0  0  0  3  0  0  0  0  0  0
   37.6740   27.3980   44.3510 H   0  0  0  0  0  0  0  0  0  0  0  0
  1  7  1  1  0  0  0
  1 13  1  0  0  0  0
  1  6  1  0  0  0  0
  2  8  1  6  0  0  0
  2  1  1  0  0  0  0
  3  2  1  0  0  0  0
  3  4  1  0  0  0  0
  4  5  1  0  0  0  0
  5 11  1  1  0  0  0
  5 15  1  0  0  0  0
  6 12  1  6  0  0  0
  6  5  1  0  0  0  0
  6 34  1  0  0  0  0
  9  4  1  0  0  0  0
 10  4  1  0  0  0  0
 14 13  1  0  0  0  0
 15 16  1  0  0  0  0
 17 18  1  0  0  0  0
 17  2  1  0  0  0  0
 18 19  1  0  0  0  0
 19 20  2  0  0  0  0
 19 24  1  0  0  0  0
 20 26  1  0  0  0  0
 21 20  1  0  0  0  0
 22 21  2  0  0  0  0
 23 22  1  0  0  0  0
 23 18  2  0  0  0  0
 25 22  1  0  0  0  0
 26 29  1  0  0  0  0
 27 28  1  0  0  0  0
 27 30  1  0  0  0  0
 27 26  1  0  0  0  0
 28 26  1  0  0  0  0
 28 33  1  0  0  0  0
 31 27  1  0  0  0  0
 32 28  1  0  0  0  0
 34 35  1  0  0  0  0
 35 36  2  0  0  0  0
 37 35  1  6  0  0  0
 37 43  1  0  0  0  0
 38 40  1  0  0  0  0
 38 37  1  0  0  0  0
 39 38  1  0  0  0  0
 40 42  1  0  0  0  0
 41 40  1  0  0  0  0
 42 43  1  0  0  0  0
 43 44  1  0  0  0  0
M  END
>  <minimizedAffinity>
-5.44750023

$$$$

 OpenBabel03242523563D

 44 47  0  0  1  0  0  0  0  0999 V2000
   35.8660   29.4360   40.2780 C   0  0  1  0  0  0  0  0  0  0  0  0
   36.3970   30.2310   39.0920 C   0  0  1  0  0  0  0  0  0  0  0  0
   37.7360   30.5710   39.3500 O   0  0  0  0  0  0  0  0  0  0  0  0
   37.9690   30.8540   40.6970 C   0  0  0  0  0  0  0  0  0  0  0  0
   37.8640   29.6140   41.5620 C   0  0  2  0  0  0  0  0  0  0  0  0
   37.0000   28.5870   40.7520 C   0  0  1  0  0  0  0  0  0  0  0  0
   34.9730   28.8490   39.9790 H   0  0  0  0  0  0  0  0  0  0  0  0
   35.7920   31.1130   38.8580 H   0  0  0  0  0  0  0  0  0  0  0  0
   37.3540   31.6980   41.0540 H   0  0  0  0  0  0  0  0  0  0  0  0
   39.0140   31.1840   40.7510 H   0  0  0  0  0  0  0  0  0  0  0  0
   38.8460   29.1610   41.7700 H   0  0  0  0  0  0  0  0  0  0  0  0
   37.7700   28.4250   39.9290 H   0  0  0  0  0  0  0  0  0  0  0  0
   35.4310   30.2950   41.2980 O   0  0  0  0  0  0  0  0  0  0  0  0
   34.5570   30.6450   40.9800 H   0  0  0  0  0  0  0  0  0  0  0  0
   37.1180   29.8980   42.6980 O   0  0  0  0  0  0  0  0  0  0  0  0
   36.5820   29.1620   43.0370 H   0  0  0  0  0  0  0  0  0  0  0  0
   36.4800   29.3110   38.0370 O   0  0  0  0  0  0  0  0  0  0  0  0
   35.4790   28.5230   37.6240 C   0  0  0  0  0  0  0  0  0  0  0  0
   34.2640   29.0660   37.1800 C   0  0  0  0  0  0  0  0  0  0  0  0
   33.2700   28.1920   36.7650 C   0  0  0  0  0  0  0  0  0  0  0  0
   33.5000   26.8300   36.8000 N   0  0  0  0  0  0  0  0  0  0  0  0
   34.6860   26.3450   37.2350 C   0  0  0  0  0  0  0  0  0  0  0  0
   35.6710   27.1830   37.6460 N   0  0  0  0  0  0  0  0  0  0  0  0
   34.0860   30.1320   37.1540 H   0  0  0  0  0  0  0  0  0  0  0  0
   34.7900   25.2720   37.2340 H   0  0  0  0  0  0  0  0  0  0  0  0
   31.9400   28.7020   36.2920 C   0  0  0  0  0  0  0  0  0  0  0  0
   31.3070   29.8220   37.1160 C   0  0  0  0  0  0  0  0  0  0  0  0
   31.8270   29.9850   35.6760 C   0  0  0  0  0  0  0  0  0  0  0  0
   31.2520   27.8620   36.0690 H   0  0  0  0  0  0  0  0  0  0  0  0
   30.2310   29.7650   37.2680 H   0  0  0  0  0  0  0  0  0  0  0  0
   31.9710   30.2480   37.8810 H   0  0  0  0  0  0  0  0  0  0  0  0
   32.7380   30.6230   35.5370 H   0  0  0  0  0  0  0  0  0  0  0  0
   31.0270   30.2340   34.9550 H   0  0  0  0  0  0  0  0  0  0  0  0
   36.6960   27.5700   41.5790 O   0  0  0  0  0  0  0  0  0  0  0  0
   37.1110   26.2820   41.5380 C   0  0  0  0  0  0  0  0  0  0  0  0
   37.9270   25.8020   42.4450 O   0  0  0  0  0  0  0  0  0  0  0  0
   37.0040   24.9990   40.7780 C   0  0  2  0  0  3  0  0  0  0  0  0
   37.6290   23.9110   41.6580 C   0  0  0  0  0  3  0  0  0  0  0  0
   36.9410   23.5110   42.4060 H   0  0  0  0  0  0  0  0  0  0  0  0
   37.9790   22.8740   40.6030 C   0  0  0  0  0  3  0  0  0  0  0  0
   38.8680   22.2680   40.8780 H   0  0  0  0  0  0  0  0  0  0  0  0
   38.2790   23.5760   39.4480 O   0  0  0  0  0  0  0  0  0  0  0  0
   37.8160   24.8720   39.5570 C   0  0  0  0  0  3  0  0  0  0  0  0
   37.2930   25.1700   38.6240 H   0  0  0  0  0  0  0  0  0  0  0  0
  1  7  1  6  0  0  0
  1  6  1  0  0  0  0
  1 13  1  0  0  0  0
  2  8  1  6  0  0  0
  2  3  1  0  0  0  0
  2  1  1  0  0  0  0
  3  4  1  0  0  0  0
  4 10  1  0  0  0  0
  4  9  1  0  0  0  0
  4  5  1  0  0  0  0
  5 11  1  1  0  0  0
  5 15  1  0  0  0  0
  6 12  1  6  0  0  0
  6  5  1  0  0  0  0
  6 34  1  0  0  0  0
 14 13  1  0  0  0  0
 15 16  1  0  0  0  0
 17  2  1  0  0  0  0
 18 23  1  0  0  0  0
 18 17  1  0  0  0  0
 19 18  2  0  0  0  0
 20 21  2  0  0  0  0
 20 19  1  0  0  0  0
 21 22  1  0  0  0  0
 22 23  2  0  0  0  0
 24 19  1  0  0  0  0
 25 22  1  0  0  0  0
 26 20  1  0  0  0  0
 26 27  1  0  0  0  0
 27 30  1  0  0  0  0
 27 31  1  0  0  0  0
 28 26  1  0  0  0  0
 28 27  1  0  0  0  0
 29 26  1  0  0  0  0
 32 28  1  0  0  0  0
 33 28  1  0  0  0  0
 35 34  1  0  0  0  0
 35 36  2  0  0  0  0
 37 35  1  1  0  0  0
 37 38  1  0  0  0  0
 38 39  1  0  0  0  0
 40 41  1  0  0  0  0
 40 38  1  0  0  0  0
 42 43  1  0  0  0  0
 42 40  1  0  0  0  0
 43 37  1  0  0  0  0
 44 43  1  0  0  0  0
M  END
>  <minimizedAffinity>
-5.34125996

$$$$
