
 OpenBabel03242523313D

 21 22  0  0  1  0  0  0  0  0999 V2000
   45.6210   33.3600   46.4050 C   0  0  0  0  0  0  0  0  0  0  0  0
   46.4410   33.7560   47.0510 H   0  0  0  0  0  0  0  0  0  0  0  0
   44.6670   33.2280   46.9560 H   0  0  0  0  0  0  0  0  0  0  0  0
   44.5520   36.1340   44.1610 C   0  0  0  0  0  0  0  0  0  0  0  0
   45.3430   35.8890   43.0290 C   0  0  0  0  0  0  0  0  0  0  0  0
   46.2090   34.8050   43.0530 C   0  0  0  0  0  0  0  0  0  0  0  0
   46.2690   34.0190   44.1520 N   0  0  0  0  0  0  0  0  0  0  0  0
   45.4860   34.2740   45.2500 C   0  0  0  0  0  0  0  0  0  0  0  0
   44.6630   35.3160   45.2110 N   0  0  0  0  0  0  0  0  0  0  0  0
   43.8900   36.9870   44.1050 H   0  0  0  0  0  0  0  0  0  0  0  0
   45.3520   36.4670   42.1210 H   0  0  0  0  0  0  0  0  0  0  0  0
   46.8400   34.5730   42.2070 H   0  0  0  0  0  0  0  0  0  0  0  0
   46.2420   31.7760   45.7480 S   0  0  0  0  0  0  0  0  0  0  0  0
   46.4120   30.5610   47.1120 C   0  0  2  0  0  3  0  0  0  0  0  0
   45.0800   30.2670   47.7160 C   0  0  0  0  0  3  0  0  0  0  0  0
   44.2870   30.7950   47.1280 H   0  0  0  0  0  0  0  0  0  0  0  0
   45.1820   30.7520   49.1360 C   0  0  0  0  0  3  0  0  0  0  0  0
   44.7360   30.0400   49.8630 H   0  0  0  0  0  0  0  0  0  0  0  0
   46.5320   30.8730   49.4310 O   0  0  0  0  0  0  0  0  0  0  0  0
   47.1720   31.1890   48.2360 C   0  0  0  0  0  3  0  0  0  0  0  0
   48.2320   30.9190   48.3010 H   0  0  0  0  0  0  0  0  0  0  0  0
  1  3  1  0  0  0  0
  1  2  1  0  0  0  0
  4  9  1  0  0  0  0
  5  6  1  0  0  0  0
  5  4  2  0  0  0  0
  6  7  2  0  0  0  0
  7  8  1  0  0  0  0
  8  1  1  0  0  0  0
  9  8  2  0  0  0  0
 10  4  1  0  0  0  0
 11  5  1  0  0  0  0
 12  6  1  0  0  0  0
 13  1  1  0  0  0  0
 14 13  1  6  0  0  0
 14 15  1  0  0  0  0
 14 20  1  0  0  0  0
 15 17  1  0  0  0  0
 16 15  1  0  0  0  0
 17 19  1  0  0  0  0
 17 18  1  0  0  0  0
 20 21  1  0  0  0  0
 20 19  1  0  0  0  0
M  END
>  <minimizedAffinity>
-4.04914665

>  <minimizedRMSD>
0.55292803

$$$$
