
 OpenBabel03242523313D

 21 22  0  0  1  0  0  0  0  0999 V2000
   45.6190   33.3600   46.4050 C   0  0  0  0  0  0  0  0  0  0  0  0
   46.4400   33.7550   47.0500 H   0  0  0  0  0  0  0  0  0  0  0  0
   44.6650   33.2280   46.9550 H   0  0  0  0  0  0  0  0  0  0  0  0
   44.5520   36.1340   44.1600 C   0  0  0  0  0  0  0  0  0  0  0  0
   45.3440   35.8900   43.0290 C   0  0  0  0  0  0  0  0  0  0  0  0
   46.2090   34.8060   43.0530 C   0  0  0  0  0  0  0  0  0  0  0  0
   46.2690   34.0200   44.1510 N   0  0  0  0  0  0  0  0  0  0  0  0
   45.4850   34.2740   45.2500 C   0  0  0  0  0  0  0  0  0  0  0  0
   44.6630   35.3160   45.2110 N   0  0  0  0  0  0  0  0  0  0  0  0
   43.8910   36.9880   44.1050 H   0  0  0  0  0  0  0  0  0  0  0  0
   45.3530   36.4680   42.1210 H   0  0  0  0  0  0  0  0  0  0  0  0
   46.8400   34.5740   42.2070 H   0  0  0  0  0  0  0  0  0  0  0  0
   46.2400   31.7750   45.7470 S   0  0  0  0  0  0  0  0  0  0  0  0
   46.4110   30.5610   47.1120 C   0  0  2  0  0  3  0  0  0  0  0  0
   45.0790   30.2650   47.7160 C   0  0  0  0  0  3  0  0  0  0  0  0
   44.2870   30.7930   47.1280 H   0  0  0  0  0  0  0  0  0  0  0  0
   45.1820   30.7510   49.1350 C   0  0  0  0  0  3  0  0  0  0  0  0
   44.7360   30.0390   49.8630 H   0  0  0  0  0  0  0  0  0  0  0  0
   46.5320   30.8740   49.4300 O   0  0  0  0  0  0  0  0  0  0  0  0
   47.1720   31.1900   48.2350 C   0  0  0  0  0  3  0  0  0  0  0  0
   48.2320   30.9210   48.2990 H   0  0  0  0  0  0  0  0  0  0  0  0
  1  3  1  0  0  0  0
  1  2  1  0  0  0  0
  4  9  1  0  0  0  0
  5  6  1  0  0  0  0
  5  4  2  0  0  0  0
  6  7  2  0  0  0  0
  7  8  1  0  0  0  0
  8  1  1  0  0  0  0
  9  8  2  0  0  0  0
 10  4  1  0  0  0  0
 11  5  1  0  0  0  0
 12  6  1  0  0  0  0
 13  1  1  0  0  0  0
 14 13  1  6  0  0  0
 14 15  1  0  0  0  0
 14 20  1  0  0  0  0
 15 17  1  0  0  0  0
 16 15  1  0  0  0  0
 17 19  1  0  0  0  0
 17 18  1  0  0  0  0
 20 21  1  0  0  0  0
 20 19  1  0  0  0  0
M  END
>  <minimizedAffinity>
-4.04893064

>  <minimizedRMSD>
0.723369122

$$$$
