
 OpenBabel03242512273D

 21 22  0  0  1  0  0  0  0  0999 V2000
   44.9080   35.0470   44.4740 C   0  0  0  0  0  0  0  0  0  0  0  0
   45.8580   34.9130   43.4570 C   0  0  0  0  0  0  0  0  0  0  0  0
   46.9070   34.0040   43.6440 C   0  0  0  0  0  0  0  0  0  0  0  0
   46.9290   33.3130   44.8030 N   0  0  0  0  0  0  0  0  0  0  0  0
   46.0220   33.4470   45.7630 C   0  0  0  0  0  0  0  0  0  0  0  0
   45.0060   34.3260   45.5840 N   0  0  0  0  0  0  0  0  0  0  0  0
   43.8450   35.9660   44.2890 N   0  0  0  0  0  0  0  0  0  0  0  0
   45.7370   35.5170   42.5780 H   0  0  0  0  0  0  0  0  0  0  0  0
   47.6460   33.8970   42.8580 H   0  0  0  0  0  0  0  0  0  0  0  0
   43.6470   36.3800   43.3470 H   0  0  0  0  0  0  0  0  0  0  0  0
   43.2470   36.2320   45.1130 H   0  0  0  0  0  0  0  0  0  0  0  0
   46.0570   32.6990   47.0040 C   0  0  0  0  0  0  0  0  0  0  0  0
   45.1420   32.8020   47.8780 O   0  0  0  0  0  0  0  0  0  0  0  0
   47.1760   31.7860   47.2840 C   0  0  1  0  0  3  0  0  0  0  0  0
   47.9640   32.1010   48.5120 C   0  0  0  0  0  3  0  0  0  0  0  0
   48.8630   32.7110   48.2410 H   0  0  0  0  0  0  0  0  0  0  0  0
   48.3880   30.7230   48.9940 C   0  0  0  0  0  3  0  0  0  0  0  0
   48.0120   30.5430   50.0210 H   0  0  0  0  0  0  0  0  0  0  0  0
   47.9090   29.8000   48.0620 O   0  0  0  0  0  0  0  0  0  0  0  0
   46.7300   30.3660   47.5440 C   0  0  0  0  0  3  0  0  0  0  0  0
   46.5030   29.8970   46.5700 H   0  0  0  0  0  0  0  0  0  0  0  0
  1  6  1  0  0  0  0
  2  3  1  0  0  0  0
  2  1  2  0  0  0  0
  3  4  2  0  0  0  0
  4  5  1  0  0  0  0
  5 12  1  0  0  0  0
  6  5  2  0  0  0  0
  7  1  1  0  0  0  0
  7 11  1  0  0  0  0
  8  2  1  0  0  0  0
  9  3  1  0  0  0  0
 10  7  1  0  0  0  0
 12 13  2  0  0  0  0
 14 12  1  1  0  0  0
 14 20  1  0  0  0  0
 14 15  1  0  0  0  0
 15 17  1  0  0  0  0
 16 15  1  0  0  0  0
 17 18  1  0  0  0  0
 19 17  1  0  0  0  0
 20 19  1  0  0  0  0
 21 20  1  0  0  0  0
M  END
>  <minimizedAffinity>
-4.78090286

>  <minimizedRMSD>
0.534069479

$$$$
