
 OpenBabel03252505493D

 21 22  0  0  1  0  0  0  0  0999 V2000
   44.6980   35.4870   45.1920 C   0  0  0  0  0  0  0  0  0  0  0  0
   45.3920   35.0600   44.0680 C   0  0  0  0  0  0  0  0  0  0  0  0
   45.9950   33.8140   44.1480 C   0  0  0  0  0  0  0  0  0  0  0  0
   45.8890   33.0850   45.2820 N   0  0  0  0  0  0  0  0  0  0  0  0
   45.2080   33.5370   46.3500 C   0  0  0  0  0  0  0  0  0  0  0  0
   44.6100   34.7280   46.3200 N   0  0  0  0  0  0  0  0  0  0  0  0
   44.1850   36.4560   45.2330 H   0  0  0  0  0  0  0  0  0  0  0  0
   46.5320   33.4840   43.2790 H   0  0  0  0  0  0  0  0  0  0  0  0
   45.4250   35.9660   42.8900 C   0  0  0  0  0  0  0  0  0  0  0  0
   45.2050   37.2390   43.3840 F   0  0  0  0  0  0  0  0  0  0  0  0
   44.4090   35.6050   42.0440 F   0  0  0  0  0  0  0  0  0  0  0  0
   46.6620   35.8140   42.2840 F   0  0  0  0  0  0  0  0  0  0  0  0
   45.0840   32.8100   47.5240 O   0  0  0  0  0  0  0  0  0  0  0  0
   46.1130   32.6130   48.4550 C   0  0  2  0  0  3  0  0  0  0  0  0
   47.4500   32.3660   47.7830 C   0  0  0  0  0  3  0  0  0  0  0  0
   47.3040   31.6980   46.9260 H   0  0  0  0  0  0  0  0  0  0  0  0
   48.1470   31.5910   48.8840 C   0  0  0  0  0  3  0  0  0  0  0  0
   49.0460   31.0680   48.5230 H   0  0  0  0  0  0  0  0  0  0  0  0
   47.1630   30.6750   49.2430 O   0  0  0  0  0  0  0  0  0  0  0  0
   45.9600   31.3590   49.2650 C   0  0  0  0  0  3  0  0  0  0  0  0
   45.7090   31.5710   50.3260 H   0  0  0  0  0  0  0  0  0  0  0  0
  1  7  1  0  0  0  0
  1  6  1  0  0  0  0
  2  3  1  0  0  0  0
  2  1  2  0  0  0  0
  3  4  2  0  0  0  0
  4  5  1  0  0  0  0
  5 13  1  0  0  0  0
  6  5  2  0  0  0  0
  8  3  1  0  0  0  0
  9 10  1  0  0  0  0
  9  2  1  0  0  0  0
 11  9  1  0  0  0  0
 12  9  1  0  0  0  0
 14 13  1  6  0  0  0
 14 20  1  0  0  0  0
 15 14  1  0  0  0  0
 15 17  1  0  0  0  0
 16 15  1  0  0  0  0
 17 19  1  0  0  0  0
 18 17  1  0  0  0  0
 19 20  1  0  0  0  0
 20 21  1  0  0  0  0
M  END
>  <minimizedAffinity>
-4.86750031

>  <minimizedRMSD>
1.12696481

$$$$
