
 OpenBabel03242513203D

 22 23  0  0  1  0  0  0  0  0999 V2000
   36.7390   27.6220   42.2850 C   0  0  0  0  0  3  0  0  0  0  0  0
   36.5520   28.0260   41.0560 C   0  0  0  0  0  3  0  0  0  0  0  0
   39.9320   26.4690   43.6610 C   0  0  0  0  0  0  0  0  0  0  0  0
   39.9770   25.1130   43.2100 C   0  0  0  0  0  0  0  0  0  0  0  0
   38.8920   24.6560   42.4450 C   0  0  0  0  0  0  0  0  0  0  0  0
   37.8660   25.5120   42.1720 N   0  0  0  0  0  0  0  0  0  0  0  0
   37.8800   26.7990   42.6330 C   0  0  0  0  0  0  0  0  0  0  0  0
   38.8850   27.2720   43.3580 N   0  0  0  0  0  0  0  0  0  0  0  0
   40.7880   26.7510   44.2370 H   0  0  0  0  0  0  0  0  0  0  0  0
   40.7970   24.4740   43.4430 H   0  0  0  0  0  0  0  0  0  0  0  0
   38.8660   23.6460   42.0760 H   0  0  0  0  0  0  0  0  0  0  0  0
   35.3780   28.8740   40.6860 C   0  0  0  0  0  0  0  0  0  0  0  0
   34.7070   28.3710   39.9720 H   0  0  0  0  0  0  0  0  0  0  0  0
   34.8280   29.0950   41.5990 H   0  0  0  0  0  0  0  0  0  0  0  0
   35.7760   30.1810   40.0770 C   0  0  2  0  0  3  0  0  0  0  0  0
   36.8200   30.0300   38.9730 C   0  0  0  0  0  3  0  0  0  0  0  0
   37.6950   29.5090   39.3480 H   0  0  0  0  0  0  0  0  0  0  0  0
   37.1920   31.5170   38.8860 C   0  0  0  0  0  3  0  0  0  0  0  0
   36.2540   31.9960   38.4990 H   0  0  0  0  0  0  0  0  0  0  0  0
   37.3230   31.9090   40.2060 O   0  0  0  0  0  0  0  0  0  0  0  0
   36.4920   31.1250   40.9790 C   0  0  0  0  0  3  0  0  0  0  0  0
   37.0470   30.6490   41.8060 H   0  0  0  0  0  0  0  0  0  0  0  0
  1  7  1  0  0  0  0
  2  1  2  0  0  0  0
  3  9  1  0  0  0  0
  4 10  1  0  0  0  0
  4  3  2  0  0  0  0
  5  4  1  0  0  0  0
  6  5  2  0  0  0  0
  6  7  1  0  0  0  0
  7  8  2  0  0  0  0
  8  3  1  0  0  0  0
 11  5  1  0  0  0  0
 12  2  1  0  0  0  0
 12 14  1  0  0  0  0
 13 12  1  0  0  0  0
 15 12  1  1  0  0  0
 15 21  1  0  0  0  0
 16 17  1  0  0  0  0
 16 15  1  0  0  0  0
 18 16  1  0  0  0  0
 18 20  1  0  0  0  0
 19 18  1  0  0  0  0
 20 21  1  0  0  0  0
 21 22  1  0  0  0  0
M  END
>  <minimizedAffinity>
-4.24039221

$$$$

 OpenBabel03242513203D

 22 23  0  0  1  0  0  0  0  0999 V2000
   37.0010   30.1370   40.9180 C   0  0  0  0  0  3  0  0  0  0  0  0
   37.2670   29.4560   42.0010 C   0  0  0  0  0  3  0  0  0  0  0  0
   39.3840   32.9190   40.9190 C   0  0  0  0  0  0  0  0  0  0  0  0
   38.7190   33.8800   40.0960 C   0  0  0  0  0  0  0  0  0  0  0  0
   37.4670   33.5190   39.5740 C   0  0  0  0  0  0  0  0  0  0  0  0
   36.9530   32.2910   39.8720 N   0  0  0  0  0  0  0  0  0  0  0  0
   37.6390   31.4140   40.6660 C   0  0  0  0  0  0  0  0  0  0  0  0
   38.8240   31.7150   41.1800 N   0  0  0  0  0  0  0  0  0  0  0  0
   40.3310   33.2580   41.2830 H   0  0  0  0  0  0  0  0  0  0  0  0
   39.1520   34.8300   39.8850 H   0  0  0  0  0  0  0  0  0  0  0  0
   36.9160   34.1970   38.9480 H   0  0  0  0  0  0  0  0  0  0  0  0
   36.6140   28.1380   42.2710 C   0  0  0  0  0  0  0  0  0  0  0  0
   35.6960   28.2410   42.8690 H   0  0  0  0  0  0  0  0  0  0  0  0
   36.3680   27.6880   41.3100 H   0  0  0  0  0  0  0  0  0  0  0  0
   37.5110   27.1840   42.9940 C   0  0  2  0  0  3  0  0  0  0  0  0
   38.8860   27.7730   43.2980 C   0  0  0  0  0  3  0  0  0  0  0  0
   39.3610   28.1150   42.3840 H   0  0  0  0  0  0  0  0  0  0  0  0
   39.5590   26.4470   43.6800 C   0  0  0  0  0  3  0  0  0  0  0  0
   39.0260   26.1480   44.6200 H   0  0  0  0  0  0  0  0  0  0  0  0
   39.1520   25.5670   42.6940 O   0  0  0  0  0  0  0  0  0  0  0  0
   37.9150   25.9700   42.2330 C   0  0  0  0  0  3  0  0  0  0  0  0
   37.9170   26.0880   41.1350 H   0  0  0  0  0  0  0  0  0  0  0  0
  1  2  2  0  0  0  0
  2 12  1  0  0  0  0
  3  8  1  0  0  0  0
  3  9  1  0  0  0  0
  4  3  2  0  0  0  0
  5  6  2  0  0  0  0
  5  4  1  0  0  0  0
  6  7  1  0  0  0  0
  7  1  1  0  0  0  0
  7  8  2  0  0  0  0
 10  4  1  0  0  0  0
 11  5  1  0  0  0  0
 12 13  1  0  0  0  0
 14 12  1  0  0  0  0
 15 12  1  6  0  0  0
 15 16  1  0  0  0  0
 16 18  1  0  0  0  0
 17 16  1  0  0  0  0
 18 19  1  0  0  0  0
 20 18  1  0  0  0  0
 21 20  1  0  0  0  0
 21 15  1  0  0  0  0
 22 21  1  0  0  0  0
M  END
>  <minimizedAffinity>
-4.14152431

$$$$

 OpenBabel03242513203D

 22 23  0  0  1  0  0  0  0  0999 V2000
   36.1320   29.0930   41.0010 C   0  0  0  0  0  3  0  0  0  0  0  0
   36.8910   28.6910   41.9870 C   0  0  0  0  0  3  0  0  0  0  0  0
   37.0920   31.0460   38.0550 C   0  0  0  0  0  0  0  0  0  0  0  0
   37.3520   32.3320   38.6230 C   0  0  0  0  0  0  0  0  0  0  0  0
   37.1810   32.4660   40.0100 C   0  0  0  0  0  0  0  0  0  0  0  0
   36.7840   31.3820   40.7370 N   0  0  0  0  0  0  0  0  0  0  0  0
   36.5510   30.1760   40.1350 C   0  0  0  0  0  0  0  0  0  0  0  0
   36.7000   30.0070   38.8280 N   0  0  0  0  0  0  0  0  0  0  0  0
   37.2420   31.0150   36.9960 H   0  0  0  0  0  0  0  0  0  0  0  0
   37.6610   33.1560   38.0230 H   0  0  0  0  0  0  0  0  0  0  0  0
   37.3600   33.4070   40.4980 H   0  0  0  0  0  0  0  0  0  0  0  0
   36.4690   27.5740   42.8880 C   0  0  0  0  0  0  0  0  0  0  0  0
   36.1220   27.9360   43.8670 H   0  0  0  0  0  0  0  0  0  0  0  0
   35.6590   27.0390   42.3940 H   0  0  0  0  0  0  0  0  0  0  0  0
   37.5660   26.5880   43.1410 C   0  0  2  0  0  3  0  0  0  0  0  0
   38.8690   27.2480   43.5840 C   0  0  0  0  0  3  0  0  0  0  0  0
   39.1880   27.9840   42.8540 H   0  0  0  0  0  0  0  0  0  0  0  0
   39.7600   26.0130   43.3890 C   0  0  0  0  0  3  0  0  0  0  0  0
   39.3810   25.2960   44.1630 H   0  0  0  0  0  0  0  0  0  0  0  0
   39.3750   25.5110   42.1590 O   0  0  0  0  0  0  0  0  0  0  0  0
   38.0510   25.8380   41.9490 C   0  0  0  0  0  3  0  0  0  0  0  0
   37.9160   26.3580   40.9840 H   0  0  0  0  0  0  0  0  0  0  0  0
  1  2  2  0  0  0  0
  2 12  1  0  0  0  0
  3  4  2  0  0  0  0
  3  8  1  0  0  0  0
  4  5  1  0  0  0  0
  5 11  1  0  0  0  0
  5  6  2  0  0  0  0
  7  6  1  0  0  0  0
  7  1  1  0  0  0  0
  8  7  2  0  0  0  0
  9  3  1  0  0  0  0
 10  4  1  0  0  0  0
 12 13  1  0  0  0  0
 14 12  1  0  0  0  0
 15 12  1  6  0  0  0
 15 16  1  0  0  0  0
 17 16  1  0  0  0  0
 18 16  1  0  0  0  0
 18 19  1  0  0  0  0
 20 18  1  0  0  0  0
 21 20  1  0  0  0  0
 21 15  1  0  0  0  0
 22 21  1  0  0  0  0
M  END
>  <minimizedAffinity>
-4.05921459

$$$$

 OpenBabel03242513203D

 22 23  0  0  1  0  0  0  0  0999 V2000
   36.4170   28.1470   41.7690 C   0  0  0  0  0  3  0  0  0  0  0  0
   37.0890   27.0440   41.5650 C   0  0  0  0  0  3  0  0  0  0  0  0
   36.8500   31.5600   40.5140 C   0  0  0  0  0  0  0  0  0  0  0  0
   36.8740   31.3560   39.0990 C   0  0  0  0  0  0  0  0  0  0  0  0
   36.7380   30.0360   38.6410 C   0  0  0  0  0  0  0  0  0  0  0  0
   36.5920   29.0300   39.5500 N   0  0  0  0  0  0  0  0  0  0  0  0
   36.5770   29.2900   40.8930 C   0  0  0  0  0  0  0  0  0  0  0  0
   36.7020   30.5210   41.3690 N   0  0  0  0  0  0  0  0  0  0  0  0
   36.9570   32.5880   40.7930 H   0  0  0  0  0  0  0  0  0  0  0  0
   36.9900   32.1670   38.4190 H   0  0  0  0  0  0  0  0  0  0  0  0
   36.7490   29.8160   37.5890 H   0  0  0  0  0  0  0  0  0  0  0  0
   36.9310   25.8590   42.4620 C   0  0  0  0  0  0  0  0  0  0  0  0
   37.7320   25.7960   43.2150 H   0  0  0  0  0  0  0  0  0  0  0  0
   35.9710   25.9520   42.9670 H   0  0  0  0  0  0  0  0  0  0  0  0
   36.9200   24.5640   41.7150 C   0  0  2  0  0  3  0  0  0  0  0  0
   38.2970   23.9110   41.6340 C   0  0  0  0  0  3  0  0  0  0  0  0
   39.0150   24.5940   41.1890 H   0  0  0  0  0  0  0  0  0  0  0  0
   37.9360   22.8820   40.5530 C   0  0  0  0  0  3  0  0  0  0  0  0
   37.1970   22.2150   41.0690 H   0  0  0  0  0  0  0  0  0  0  0  0
   37.2260   23.6130   39.6170 O   0  0  0  0  0  0  0  0  0  0  0  0
   36.5950   24.6550   40.2640 C   0  0  0  0  0  3  0  0  0  0  0  0
   36.8360   25.6240   39.7920 H   0  0  0  0  0  0  0  0  0  0  0  0
  2  1  2  0  0  0  0
  2 12  1  0  0  0  0
  3  9  1  0  0  0  0
  3  8  1  0  0  0  0
  4  3  2  0  0  0  0
  5  4  1  0  0  0  0
  5  6  2  0  0  0  0
  6  7  1  0  0  0  0
  7  8  2  0  0  0  0
  7  1  1  0  0  0  0
 10  4  1  0  0  0  0
 11  5  1  0  0  0  0
 12 14  1  0  0  0  0
 12 13  1  0  0  0  0
 15 12  1  6  0  0  0
 16 15  1  0  0  0  0
 17 16  1  0  0  0  0
 18 19  1  0  0  0  0
 18 16  1  0  0  0  0
 20 21  1  0  0  0  0
 20 18  1  0  0  0  0
 21 15  1  0  0  0  0
 22 21  1  0  0  0  0
M  END
>  <minimizedAffinity>
-3.96343446

$$$$

 OpenBabel03242513203D

 22 23  0  0  1  0  0  0  0  0999 V2000
   35.6750   29.1770   40.5200 C   0  0  0  0  0  3  0  0  0  0  0  0
   35.4380   28.4450   39.4640 C   0  0  0  0  0  3  0  0  0  0  0  0
   38.1470   29.1150   43.2220 C   0  0  0  0  0  0  0  0  0  0  0  0
   38.2910   27.7130   43.4620 C   0  0  0  0  0  0  0  0  0  0  0  0
   37.5190   26.8470   42.6710 C   0  0  0  0  0  0  0  0  0  0  0  0
   36.6850   27.3740   41.7290 N   0  0  0  0  0  0  0  0  0  0  0  0
   36.5920   28.7260   41.5480 C   0  0  0  0  0  0  0  0  0  0  0  0
   37.3030   29.5800   42.2720 N   0  0  0  0  0  0  0  0  0  0  0  0
   38.7630   29.7170   43.8580 H   0  0  0  0  0  0  0  0  0  0  0  0
   38.9530   27.3380   44.2070 H   0  0  0  0  0  0  0  0  0  0  0  0
   37.5810   25.7810   42.8030 H   0  0  0  0  0  0  0  0  0  0  0  0
   34.4940   28.9000   38.3980 C   0  0  0  0  0  0  0  0  0  0  0  0
   33.5170   28.3970   38.4610 H   0  0  0  0  0  0  0  0  0  0  0  0
   34.3530   29.9730   38.5170 H   0  0  0  0  0  0  0  0  0  0  0  0
   35.0240   28.6700   37.0180 C   0  0  2  0  0  3  0  0  0  0  0  0
   36.2050   29.5740   36.6750 C   0  0  0  0  0  3  0  0  0  0  0  0
   35.9330   30.6170   36.8030 H   0  0  0  0  0  0  0  0  0  0  0  0
   36.2000   29.2960   35.1650 C   0  0  0  0  0  3  0  0  0  0  0  0
   36.4820   28.2130   35.1000 H   0  0  0  0  0  0  0  0  0  0  0  0
   34.8650   29.3820   34.8120 O   0  0  0  0  0  0  0  0  0  0  0  0
   34.1010   29.0210   35.9020 C   0  0  0  0  0  3  0  0  0  0  0  0
   33.3540   29.7990   36.1420 H   0  0  0  0  0  0  0  0  0  0  0  0
  1  7  1  0  0  0  0
  2  1  2  0  0  0  0
  3  4  1  0  0  0  0
  3  9  1  0  0  0  0
  4 10  1  0  0  0  0
  5 11  1  0  0  0  0
  5  4  2  0  0  0  0
  6  5  1  0  0  0  0
  7  6  2  0  0  0  0
  7  8  1  0  0  0  0
  8  3  2  0  0  0  0
 12 13  1  0  0  0  0
 12 14  1  0  0  0  0
 12  2  1  0  0  0  0
 15 12  1  1  0  0  0
 16 17  1  0  0  0  0
 16 15  1  0  0  0  0
 18 16  1  0  0  0  0
 19 18  1  0  0  0  0
 20 18  1  0  0  0  0
 20 21  1  0  0  0  0
 21 22  1  0  0  0  0
 21 15  1  0  0  0  0
M  END
>  <minimizedAffinity>
-3.80288696

$$$$

 OpenBabel03242513203D

 22 23  0  0  1  0  0  0  0  0999 V2000
   36.8860   26.0670   41.2090 C   0  0  0  0  0  3  0  0  0  0  0  0
   37.0710   26.2290   42.4930 C   0  0  0  0  0  3  0  0  0  0  0  0
   38.1870   22.7060   40.5540 C   0  0  0  0  0  0  0  0  0  0  0  0
   38.0830   22.6200   39.1300 C   0  0  0  0  0  0  0  0  0  0  0  0
   37.5630   23.7370   38.4580 C   0  0  0  0  0  0  0  0  0  0  0  0
   37.1890   24.8320   39.1800 N   0  0  0  0  0  0  0  0  0  0  0  0
   37.3130   24.8540   40.5420 C   0  0  0  0  0  0  0  0  0  0  0  0
   37.8000   23.8210   41.2170 N   0  0  0  0  0  0  0  0  0  0  0  0
   38.5910   21.8230   41.0020 H   0  0  0  0  0  0  0  0  0  0  0  0
   38.3850   21.7470   38.6000 H   0  0  0  0  0  0  0  0  0  0  0  0
   37.4580   23.7350   37.3880 H   0  0  0  0  0  0  0  0  0  0  0  0
   36.6340   27.4760   43.1910 C   0  0  0  0  0  0  0  0  0  0  0  0
   35.8550   28.0170   42.6320 H   0  0  0  0  0  0  0  0  0  0  0  0
   36.2420   27.1900   44.1660 H   0  0  0  0  0  0  0  0  0  0  0  0
   37.7590   28.4340   43.4260 C   0  0  2  0  0  3  0  0  0  0  0  0
   37.7930   29.5730   42.4110 C   0  0  0  0  0  3  0  0  0  0  0  0
   37.8400   29.1800   41.4010 H   0  0  0  0  0  0  0  0  0  0  0  0
   39.2030   30.0710   42.7600 C   0  0  0  0  0  3  0  0  0  0  0  0
   39.0880   30.4580   43.8060 H   0  0  0  0  0  0  0  0  0  0  0  0
   39.9570   28.9140   42.8440 O   0  0  0  0  0  0  0  0  0  0  0  0
   39.1300   27.8820   43.2360 C   0  0  0  0  0  3  0  0  0  0  0  0
   39.1960   27.0290   42.5380 H   0  0  0  0  0  0  0  0  0  0  0  0
  1  2  2  0  0  0  0
  2 12  1  0  0  0  0
  3  9  1  0  0  0  0
  3  8  1  0  0  0  0
  4  3  2  0  0  0  0
  5  4  1  0  0  0  0
  5  6  2  0  0  0  0
  6  7  1  0  0  0  0
  7  1  1  0  0  0  0
  7  8  2  0  0  0  0
 10  4  1  0  0  0  0
 11  5  1  0  0  0  0
 12 14  1  0  0  0  0
 13 12  1  0  0  0  0
 15 12  1  6  0  0  0
 16 18  1  0  0  0  0
 16 15  1  0  0  0  0
 17 16  1  0  0  0  0
 18 20  1  0  0  0  0
 18 19  1  0  0  0  0
 20 21  1  0  0  0  0
 21 15  1  0  0  0  0
 22 21  1  0  0  0  0
M  END
>  <minimizedAffinity>
-3.77724695

$$$$

 OpenBabel03242513203D

 22 23  0  0  1  0  0  0  0  0999 V2000
   37.7270   29.1830   40.2610 C   0  0  0  0  0  3  0  0  0  0  0  0
   36.7720   29.7860   39.6030 C   0  0  0  0  0  3  0  0  0  0  0  0
   36.9300   26.7670   42.8970 C   0  0  0  0  0  0  0  0  0  0  0  0
   37.0210   25.5240   42.1980 C   0  0  0  0  0  0  0  0  0  0  0  0
   37.3560   25.5790   40.8350 C   0  0  0  0  0  0  0  0  0  0  0  0
   37.5760   26.7930   40.2540 N   0  0  0  0  0  0  0  0  0  0  0  0
   37.4730   27.9490   40.9780 C   0  0  0  0  0  0  0  0  0  0  0  0
   37.1590   27.9430   42.2670 N   0  0  0  0  0  0  0  0  0  0  0  0
   36.6720   26.6530   43.9290 H   0  0  0  0  0  0  0  0  0  0  0  0
   36.8420   24.5940   42.6850 H   0  0  0  0  0  0  0  0  0  0  0  0
   37.4400   24.6780   40.2530 H   0  0  0  0  0  0  0  0  0  0  0  0
   37.0220   31.0590   38.8600 C   0  0  0  0  0  0  0  0  0  0  0  0
   37.5550   30.8910   37.9120 H   0  0  0  0  0  0  0  0  0  0  0  0
   36.0560   31.5160   38.6530 H   0  0  0  0  0  0  0  0  0  0  0  0
   37.8230   32.0440   39.6520 C   0  0  2  0  0  3  0  0  0  0  0  0
   37.2790   33.4660   39.5570 C   0  0  0  0  0  3  0  0  0  0  0  0
   37.2190   33.7800   38.5200 H   0  0  0  0  0  0  0  0  0  0  0  0
   38.5090   34.1600   40.1600 C   0  0  0  0  0  3  0  0  0  0  0  0
   38.5170   33.7960   41.2210 H   0  0  0  0  0  0  0  0  0  0  0  0
   39.5800   33.5580   39.5240 O   0  0  0  0  0  0  0  0  0  0  0  0
   39.2180   32.2710   39.1840 C   0  0  0  0  0  3  0  0  0  0  0  0
   39.3860   32.0790   38.1090 H   0  0  0  0  0  0  0  0  0  0  0  0
  1  7  1  0  0  0  0
  2  1  2  0  0  0  0
  3  9  1  0  0  0  0
  4 10  1  0  0  0  0
  4  3  2  0  0  0  0
  5  4  1  0  0  0  0
  6  5  2  0  0  0  0
  6  7  1  0  0  0  0
  7  8  2  0  0  0  0
  8  3  1  0  0  0  0
 11  5  1  0  0  0  0
 12  2  1  0  0  0  0
 13 12  1  0  0  0  0
 14 12  1  0  0  0  0
 15 12  1  6  0  0  0
 16 15  1  0  0  0  0
 16 18  1  0  0  0  0
 17 16  1  0  0  0  0
 18 19  1  0  0  0  0
 20 18  1  0  0  0  0
 21 20  1  0  0  0  0
 21 15  1  0  0  0  0
 22 21  1  0  0  0  0
M  END
>  <minimizedAffinity>
-3.71734643

$$$$

 OpenBabel03242513203D

 22 23  0  0  1  0  0  0  0  0999 V2000
   35.4580   28.9900   40.6570 C   0  0  0  0  0  3  0  0  0  0  0  0
   36.3510   28.1980   41.1900 C   0  0  0  0  0  3  0  0  0  0  0  0
   33.9900   28.7770   37.3080 C   0  0  0  0  0  0  0  0  0  0  0  0
   35.0780   29.1940   36.4790 C   0  0  0  0  0  0  0  0  0  0  0  0
   36.2790   29.5320   37.1230 C   0  0  0  0  0  0  0  0  0  0  0  0
   36.3500   29.4480   38.4830 N   0  0  0  0  0  0  0  0  0  0  0  0
   35.2730   29.0420   39.2210 C   0  0  0  0  0  0  0  0  0  0  0  0
   34.1200   28.7130   38.6540 N   0  0  0  0  0  0  0  0  0  0  0  0
   33.1070   28.5340   36.7540 H   0  0  0  0  0  0  0  0  0  0  0  0
   34.9860   29.2470   35.4200 H   0  0  0  0  0  0  0  0  0  0  0  0
   37.1350   29.8540   36.5560 H   0  0  0  0  0  0  0  0  0  0  0  0
   36.5510   28.1350   42.6700 C   0  0  0  0  0  0  0  0  0  0  0  0
   36.9870   29.0630   43.0720 H   0  0  0  0  0  0  0  0  0  0  0  0
   35.5770   27.9690   43.1290 H   0  0  0  0  0  0  0  0  0  0  0  0
   37.4400   27.0080   43.0880 C   0  0  2  0  0  3  0  0  0  0  0  0
   38.9240   27.3430   42.9670 C   0  0  0  0  0  3  0  0  0  0  0  0
   39.1610   27.6520   41.9540 H   0  0  0  0  0  0  0  0  0  0  0  0
   39.4380   25.9050   43.1240 C   0  0  0  0  0  3  0  0  0  0  0  0
   39.1630   25.6460   44.1800 H   0  0  0  0  0  0  0  0  0  0  0  0
   38.6100   25.1600   42.3030 O   0  0  0  0  0  0  0  0  0  0  0  0
   37.3830   25.7870   42.2360 C   0  0  0  0  0  3  0  0  0  0  0  0
   37.0820   25.9640   41.1890 H   0  0  0  0  0  0  0  0  0  0  0  0
  1  2  2  0  0  0  0
  2 12  1  0  0  0  0
  3  8  1  0  0  0  0
  4  5  1  0  0  0  0
  4  3  2  0  0  0  0
  5  6  2  0  0  0  0
  6  7  1  0  0  0  0
  7  1  1  0  0  0  0
  8  7  2  0  0  0  0
  9  3  1  0  0  0  0
 10  4  1  0  0  0  0
 11  5  1  0  0  0  0
 12 13  1  0  0  0  0
 12 14  1  0  0  0  0
 15 12  1  6  0  0  0
 16 15  1  0  0  0  0
 16 18  1  0  0  0  0
 17 16  1  0  0  0  0
 18 19  1  0  0  0  0
 20 18  1  0  0  0  0
 21 20  1  0  0  0  0
 21 15  1  0  0  0  0
 22 21  1  0  0  0  0
M  END
>  <minimizedAffinity>
-3.69756031

$$$$

 OpenBabel03242513203D

 22 23  0  0  1  0  0  0  0  0999 V2000
   39.6420   30.9890   42.2870 C   0  0  0  0  0  3  0  0  0  0  0  0
   38.9190   31.4930   41.3220 C   0  0  0  0  0  3  0  0  0  0  0  0
   40.2000   27.4920   43.2220 C   0  0  0  0  0  0  0  0  0  0  0  0
   38.8890   27.0750   43.6120 C   0  0  0  0  0  0  0  0  0  0  0  0
   37.8650   28.0320   43.5340 C   0  0  0  0  0  0  0  0  0  0  0  0
   38.1620   29.2890   43.0960 N   0  0  0  0  0  0  0  0  0  0  0  0
   39.4380   29.6270   42.7370 C   0  0  0  0  0  0  0  0  0  0  0  0
   40.4350   28.7550   42.7950 N   0  0  0  0  0  0  0  0  0  0  0  0
   40.9320   26.7150   43.3050 H   0  0  0  0  0  0  0  0  0  0  0  0
   38.6950   26.0840   43.9490 H   0  0  0  0  0  0  0  0  0  0  0  0
   36.8570   27.7820   43.8140 H   0  0  0  0  0  0  0  0  0  0  0  0
   39.1200   32.8970   40.8500 C   0  0  0  0  0  0  0  0  0  0  0  0
   38.2270   33.5220   41.0030 H   0  0  0  0  0  0  0  0  0  0  0  0
   39.9530   33.3180   41.4110 H   0  0  0  0  0  0  0  0  0  0  0  0
   39.4750   32.9760   39.3990 C   0  0  2  0  0  3  0  0  0  0  0  0
   39.6360   31.6040   38.7500 C   0  0  0  0  0  3  0  0  0  0  0  0
   40.3760   31.0170   39.2850 H   0  0  0  0  0  0  0  0  0  0  0  0
   40.3110   32.1010   37.4630 C   0  0  0  0  0  3  0  0  0  0  0  0
   39.5040   32.6980   36.9630 H   0  0  0  0  0  0  0  0  0  0  0  0
   41.2570   33.0070   37.9090 O   0  0  0  0  0  0  0  0  0  0  0  0
   40.8070   33.5640   39.0880 C   0  0  0  0  0  3  0  0  0  0  0  0
   41.5600   33.4640   39.8900 H   0  0  0  0  0  0  0  0  0  0  0  0
  1  7  1  0  0  0  0
  2  1  2  0  0  0  0
  3  9  1  0  0  0  0
  3  4  1  0  0  0  0
  4 10  1  0  0  0  0
  5  4  2  0  0  0  0
  5 11  1  0  0  0  0
  6  5  1  0  0  0  0
  7  8  1  0  0  0  0
  7  6  2  0  0  0  0
  8  3  2  0  0  0  0
 12 13  1  0  0  0  0
 12  2  1  0  0  0  0
 12 14  1  0  0  0  0
 15 12  1  1  0  0  0
 16 17  1  0  0  0  0
 16 15  1  0  0  0  0
 18 20  1  0  0  0  0
 18 16  1  0  0  0  0
 19 18  1  0  0  0  0
 20 21  1  0  0  0  0
 21 15  1  0  0  0  0
 21 22  1  0  0  0  0
M  END
>  <minimizedAffinity>
-3.66701555

$$$$
