
 OpenBabel03242523543D

 44 47  0  0  1  0  0  0  0  0999 V2000
   42.8140   34.5120   38.7490 C   0  0  1  0  0  0  0  0  0  0  0  0
   42.9530   35.1830   40.1090 C   0  0  1  0  0  0  0  0  0  0  0  0
   41.6650   35.4070   40.6270 O   0  0  0  0  0  0  0  0  0  0  0  0
   40.7390   35.7430   39.6370 C   0  0  0  0  0  0  0  0  0  0  0  0
   40.4330   34.5710   38.7270 C   0  0  2  0  0  0  0  0  0  0  0  0
   41.6460   33.5870   38.8570 C   0  0  1  0  0  0  0  0  0  0  0  0
   43.7580   33.9980   38.4740 H   0  0  0  0  0  0  0  0  0  0  0  0
   43.5440   36.1040   40.0780 H   0  0  0  0  0  0  0  0  0  0  0  0
   41.0270   36.6610   39.0980 H   0  0  0  0  0  0  0  0  0  0  0  0
   39.8090   35.9740   40.1720 H   0  0  0  0  0  0  0  0  0  0  0  0
   39.5150   34.0380   39.0210 H   0  0  0  0  0  0  0  0  0  0  0  0
   41.4390   33.3040   39.9400 H   0  0  0  0  0  0  0  0  0  0  0  0
   42.5970   35.4670   37.7440 O   0  0  0  0  0  0  0  0  0  0  0  0
   43.4870   35.8810   37.5890 H   0  0  0  0  0  0  0  0  0  0  0  0
   40.4470   34.9910   37.4040 O   0  0  0  0  0  0  0  0  0  0  0  0
   40.7590   34.3310   36.7630 H   0  0  0  0  0  0  0  0  0  0  0  0
   43.4890   34.2000   40.9530 O   0  0  0  0  0  0  0  0  0  0  0  0
   44.5990   34.3410   41.6890 C   0  0  0  0  0  0  0  0  0  0  0  0
   45.8620   34.4390   41.0860 C   0  0  0  0  0  0  0  0  0  0  0  0
   46.9700   34.5840   41.9080 C   0  0  0  0  0  0  0  0  0  0  0  0
   46.8020   34.6280   43.2790 N   0  0  0  0  0  0  0  0  0  0  0  0
   45.5660   34.5300   43.8220 C   0  0  0  0  0  0  0  0  0  0  0  0
   44.4700   34.3870   43.0360 N   0  0  0  0  0  0  0  0  0  0  0  0
   45.9910   34.4030   40.0140 H   0  0  0  0  0  0  0  0  0  0  0  0
   45.5160   34.5720   44.8980 H   0  0  0  0  0  0  0  0  0  0  0  0
   48.3520   34.6790   41.3330 C   0  0  0  0  0  0  0  0  0  0  0  0
   49.0730   36.0150   41.5070 C   0  0  0  0  0  0  0  0  0  0  0  0
   49.4980   34.7000   42.1860 C   0  0  0  0  0  0  0  0  0  0  0  0
   48.3780   34.2850   40.2980 H   0  0  0  0  0  0  0  0  0  0  0  0
   49.6580   36.3660   40.6600 H   0  0  0  0  0  0  0  0  0  0  0  0
   48.5600   36.7180   42.1780 H   0  0  0  0  0  0  0  0  0  0  0  0
   49.3700   34.6410   43.2980 H   0  0  0  0  0  0  0  0  0  0  0  0
   50.4930   34.3490   41.8590 H   0  0  0  0  0  0  0  0  0  0  0  0
   41.5160   32.6530   37.8970 O   0  0  0  0  0  0  0  0  0  0  0  0
   40.8260   31.4900   37.9240 C   0  0  0  0  0  0  0  0  0  0  0  0
   39.5970   31.4190   37.4720 O   0  0  0  0  0  0  0  0  0  0  0  0
   40.8980   30.0470   38.3090 C   0  0  2  0  0  3  0  0  0  0  0  0
   40.5110   29.2390   37.0650 C   0  0  0  0  0  3  0  0  0  0  0  0
   41.3420   29.0830   36.3740 H   0  0  0  0  0  0  0  0  0  0  0  0
   40.0670   27.9370   37.7130 C   0  0  0  0  0  3  0  0  0  0  0  0
   39.2850   27.4130   37.1260 H   0  0  0  0  0  0  0  0  0  0  0  0
   39.5280   28.2750   38.9420 O   0  0  0  0  0  0  0  0  0  0  0  0
   39.9050   29.5590   39.2800 C   0  0  0  0  0  3  0  0  0  0  0  0
   40.2420   29.5940   40.3370 H   0  0  0  0  0  0  0  0  0  0  0  0
  1  7  1  6  0  0  0
  1  6  1  0  0  0  0
  1  2  1  0  0  0  0
  2  8  1  6  0  0  0
  2  3  1  0  0  0  0
  2 17  1  0  0  0  0
  4 10  1  0  0  0  0
  4  3  1  0  0  0  0
  5  6  1  0  0  0  0
  5 11  1  1  0  0  0
  5  4  1  0  0  0  0
  6 12  1  1  0  0  0
  9  4  1  0  0  0  0
 13  1  1  0  0  0  0
 14 13  1  0  0  0  0
 15  5  1  0  0  0  0
 16 15  1  0  0  0  0
 17 18  1  0  0  0  0
 18 23  1  0  0  0  0
 19 18  2  0  0  0  0
 19 20  1  0  0  0  0
 20 21  2  0  0  0  0
 21 22  1  0  0  0  0
 22 25  1  0  0  0  0
 23 22  2  0  0  0  0
 24 19  1  0  0  0  0
 26 27  1  0  0  0  0
 26 20  1  0  0  0  0
 26 28  1  0  0  0  0
 27 31  1  0  0  0  0
 27 28  1  0  0  0  0
 28 32  1  0  0  0  0
 29 26  1  0  0  0  0
 30 27  1  0  0  0  0
 33 28  1  0  0  0  0
 34 35  1  0  0  0  0
 34  6  1  0  0  0  0
 36 35  2  0  0  0  0
 37 35  1  6  0  0  0
 37 43  1  0  0  0  0
 38 40  1  0  0  0  0
 38 37  1  0  0  0  0
 39 38  1  0  0  0  0
 40 42  1  0  0  0  0
 41 40  1  0  0  0  0
 42 43  1  0  0  0  0
 43 44  1  0  0  0  0
M  END
>  <minimizedAffinity>
-5.73409653

>  <minimizedRMSD>
0.148308814

$$$$
