
 OpenBabel03242523303D

 21 22  0  0  1  0  0  0  0  0999 V2000
   45.3910   33.5070   46.5470 C   0  0  0  0  0  0  0  0  0  0  0  0
   45.6360   34.1700   47.4110 H   0  0  0  0  0  0  0  0  0  0  0  0
   44.4420   32.9500   46.6890 H   0  0  0  0  0  0  0  0  0  0  0  0
   44.6230   36.1840   44.0750 C   0  0  0  0  0  0  0  0  0  0  0  0
   45.4580   35.8190   43.0090 C   0  0  0  0  0  0  0  0  0  0  0  0
   46.2510   34.6910   43.1520 C   0  0  0  0  0  0  0  0  0  0  0  0
   46.2020   33.9770   44.2990 N   0  0  0  0  0  0  0  0  0  0  0  0
   45.3770   34.3490   45.3310 C   0  0  0  0  0  0  0  0  0  0  0  0
   44.6240   35.4330   45.1800 N   0  0  0  0  0  0  0  0  0  0  0  0
   44.0200   37.0700   43.9280 H   0  0  0  0  0  0  0  0  0  0  0  0
   45.5520   36.3350   42.0690 H   0  0  0  0  0  0  0  0  0  0  0  0
   46.9110   34.3660   42.3610 H   0  0  0  0  0  0  0  0  0  0  0  0
   46.8150   32.3770   46.3850 S   0  0  0  0  0  0  0  0  0  0  0  0
   46.9310   31.3070   47.8690 C   0  0  2  0  0  3  0  0  0  0  0  0
   46.2190   30.0150   47.6370 C   0  0  0  0  0  3  0  0  0  0  0  0
   45.8620   29.9800   46.5770 H   0  0  0  0  0  0  0  0  0  0  0  0
   45.0960   30.0070   48.6370 C   0  0  0  0  0  3  0  0  0  0  0  0
   44.9760   29.0200   49.1350 H   0  0  0  0  0  0  0  0  0  0  0  0
   45.4100   30.9410   49.6130 O   0  0  0  0  0  0  0  0  0  0  0  0
   46.1600   31.9320   48.9870 C   0  0  0  0  0  3  0  0  0  0  0  0
   46.7580   32.4710   49.7310 H   0  0  0  0  0  0  0  0  0  0  0  0
  1  3  1  0  0  0  0
  1  2  1  0  0  0  0
  4  9  1  0  0  0  0
  5  6  1  0  0  0  0
  5  4  2  0  0  0  0
  6  7  2  0  0  0  0
  7  8  1  0  0  0  0
  8  1  1  0  0  0  0
  9  8  2  0  0  0  0
 10  4  1  0  0  0  0
 11  5  1  0  0  0  0
 12  6  1  0  0  0  0
 13  1  1  0  0  0  0
 14 13  1  6  0  0  0
 14 20  1  0  0  0  0
 15 14  1  0  0  0  0
 15 17  1  0  0  0  0
 16 15  1  0  0  0  0
 17 18  1  0  0  0  0
 17 19  1  0  0  0  0
 20 19  1  0  0  0  0
 20 21  1  0  0  0  0
M  END
>  <minimizedAffinity>
-4.04420662

>  <minimizedRMSD>
2.23497653

$$$$
