
 OpenBabel03242520453D

 21 22  0  0  1  0  0  0  0  0999 V2000
   44.8760   35.1330   44.0330 C   0  0  0  0  0  0  0  0  0  0  0  0
   45.7250   35.3490   42.9190 C   0  0  0  0  0  0  0  0  0  0  0  0
   46.9330   34.6590   42.8660 C   0  0  0  0  0  0  0  0  0  0  0  0
   47.2440   33.8200   43.8660 N   0  0  0  0  0  0  0  0  0  0  0  0
   46.4100   33.6270   44.9290 C   0  0  0  0  0  0  0  0  0  0  0  0
   45.2380   34.2860   44.9980 N   0  0  0  0  0  0  0  0  0  0  0  0
   43.6490   35.8200   44.1090 N   0  0  0  0  0  0  0  0  0  0  0  0
   45.4030   36.0440   42.1520 H   0  0  0  0  0  0  0  0  0  0  0  0
   46.7860   32.9260   45.6570 H   0  0  0  0  0  0  0  0  0  0  0  0
   43.3100   36.3930   44.9160 H   0  0  0  0  0  0  0  0  0  0  0  0
   43.1020   35.6690   43.2140 H   0  0  0  0  0  0  0  0  0  0  0  0
   47.7370   34.9280   41.7140 C   0  0  0  0  0  0  0  0  0  0  0  0
   48.6620   35.7660   41.6530 O   0  0  0  0  0  0  0  0  0  0  0  0
   47.3360   34.0640   40.5460 C   0  0  2  0  0  3  0  0  0  0  0  0
   47.7420   32.6370   40.7350 C   0  0  0  0  0  3  0  0  0  0  0  0
   48.0360   32.4430   41.7870 H   0  0  0  0  0  0  0  0  0  0  0  0
   48.8880   32.4890   39.7570 C   0  0  0  0  0  3  0  0  0  0  0  0
   49.0510   31.4270   39.4880 H   0  0  0  0  0  0  0  0  0  0  0  0
   48.4870   33.2670   38.6910 O   0  0  0  0  0  0  0  0  0  0  0  0
   48.1480   34.4670   39.3120 C   0  0  0  0  0  3  0  0  0  0  0  0
   47.5870   35.1660   38.6600 H   0  0  0  0  0  0  0  0  0  0  0  0
  1  7  1  0  0  0  0
  1  6  1  0  0  0  0
  2  1  2  0  0  0  0
  3  2  1  0  0  0  0
  3  4  2  0  0  0  0
  4  5  1  0  0  0  0
  5  6  2  0  0  0  0
  5  9  1  0  0  0  0
  7 10  1  0  0  0  0
  8  2  1  0  0  0  0
 11  7  1  0  0  0  0
 12  3  1  0  0  0  0
 13 12  2  0  0  0  0
 14 15  1  0  0  0  0
 14 12  1  1  0  0  0
 15 16  1  0  0  0  0
 17 15  1  0  0  0  0
 18 17  1  0  0  0  0
 19 20  1  0  0  0  0
 19 17  1  0  0  0  0
 20 14  1  0  0  0  0
 21 20  1  0  0  0  0
M  END
>  <minimizedAffinity>
-4.63075781

>  <minimizedRMSD>
0.184472874

$$$$
