
 OpenBabel03242511173D

 18 19  0  0  1  0  0  0  0  0999 V2000
   44.6270   36.1800   44.4390 C   0  0  0  0  0  0  0  0  0  0  0  0
   45.0450   35.9250   43.1140 C   0  0  0  0  0  0  0  0  0  0  0  0
   45.6330   34.6680   42.8550 C   0  0  0  0  0  0  0  0  0  0  0  0
   45.7480   33.8090   43.8860 N   0  0  0  0  0  0  0  0  0  0  0  0
   45.3420   34.0740   45.1350 C   0  0  0  0  0  0  0  0  0  0  0  0
   44.7850   35.2550   45.4080 N   0  0  0  0  0  0  0  0  0  0  0  0
   44.1810   37.1540   44.5980 H   0  0  0  0  0  0  0  0  0  0  0  0
   44.9270   36.6530   42.3270 H   0  0  0  0  0  0  0  0  0  0  0  0
   45.5030   33.2860   45.8540 H   0  0  0  0  0  0  0  0  0  0  0  0
   46.1860   34.2720   41.2110 S   0  0  0  0  0  0  0  0  0  0  0  0
   47.9950   34.2810   41.2050 C   0  0  1  0  0  0  0  0  0  0  0  0
   48.4890   35.5590   41.8500 C   0  0  0  0  0  0  0  0  0  0  0  0
   47.8220   35.7650   42.7070 H   0  0  0  0  0  0  0  0  0  0  0  0
   49.8150   35.1090   42.3910 C   0  0  0  0  0  0  0  0  0  0  0  0
   50.5730   35.2160   41.5730 H   0  0  0  0  0  0  0  0  0  0  0  0
   49.7320   33.7650   42.6900 O   0  0  0  0  0  0  0  0  0  0  0  0
   48.5830   33.2590   42.1460 C   0  0  0  0  0  0  0  0  0  0  0  0
   47.8740   33.0300   42.9900 H   0  0  0  0  0  0  0  0  0  0  0  0
  1  7  1  0  0  0  0
  1  6  1  0  0  0  0
  2  1  2  0  0  0  0
  3  2  1  0  0  0  0
  3  4  2  0  0  0  0
  4  5  1  0  0  0  0
  5  6  2  0  0  0  0
  5  9  1  0  0  0  0
  8  2  1  0  0  0  0
 10  3  1  0  0  0  0
 11 10  1  1  0  0  0
 11 12  1  0  0  0  0
 11 17  1  0  0  0  0
 12 14  1  0  0  0  0
 12 13  1  0  0  0  0
 14 16  1  0  0  0  0
 15 14  1  0  0  0  0
 17 16  1  0  0  0  0
 17 18  1  0  0  0  0
M  END
>  <minimizedAffinity>
-4.08206892

>  <minimizedRMSD>
2.05457902

$$$$
