
 OpenBabel03242523543D

 44 47  0  0  1  0  0  0  0  0999 V2000
   42.8380   34.3520   38.9710 C   0  0  1  0  0  0  0  0  0  0  0  0
   43.0530   35.1860   40.2270 C   0  0  1  0  0  0  0  0  0  0  0  0
   41.8010   35.6290   40.6850 O   0  0  0  0  0  0  0  0  0  0  0  0
   40.9230   35.9310   39.6410 C   0  0  0  0  0  0  0  0  0  0  0  0
   40.4810   34.6870   38.8970 C   0  0  2  0  0  0  0  0  0  0  0  0
   41.5680   33.5950   39.1840 C   0  0  1  0  0  0  0  0  0  0  0  0
   43.7150   33.6970   38.7880 H   0  0  0  0  0  0  0  0  0  0  0  0
   43.7500   36.0170   40.0790 H   0  0  0  0  0  0  0  0  0  0  0  0
   41.3190   36.7240   38.9850 H   0  0  0  0  0  0  0  0  0  0  0  0
   40.0260   36.3420   40.1210 H   0  0  0  0  0  0  0  0  0  0  0  0
   39.5050   34.3120   39.2440 H   0  0  0  0  0  0  0  0  0  0  0  0
   41.3270   33.4930   40.2920 H   0  0  0  0  0  0  0  0  0  0  0  0
   42.7380   35.1750   37.8390 O   0  0  0  0  0  0  0  0  0  0  0  0
   43.6720   35.4550   37.6450 H   0  0  0  0  0  0  0  0  0  0  0  0
   40.5480   34.9120   37.5290 O   0  0  0  0  0  0  0  0  0  0  0  0
   40.7800   34.1370   36.9910 H   0  0  0  0  0  0  0  0  0  0  0  0
   43.4670   34.2740   41.2090 O   0  0  0  0  0  0  0  0  0  0  0  0
   44.6180   34.3480   41.8900 C   0  0  0  0  0  0  0  0  0  0  0  0
   45.8450   34.4920   41.2260 C   0  0  0  0  0  0  0  0  0  0  0  0
   46.9990   34.5630   41.9930 C   0  0  0  0  0  0  0  0  0  0  0  0
   46.9090   34.4900   43.3700 N   0  0  0  0  0  0  0  0  0  0  0  0
   45.7060   34.3510   43.9730 C   0  0  0  0  0  0  0  0  0  0  0  0
   44.5650   34.2800   43.2410 N   0  0  0  0  0  0  0  0  0  0  0  0
   45.9140   34.5480   40.1490 H   0  0  0  0  0  0  0  0  0  0  0  0
   45.7170   34.3010   45.0500 H   0  0  0  0  0  0  0  0  0  0  0  0
   48.3480   34.7010   41.3500 C   0  0  0  0  0  0  0  0  0  0  0  0
   49.0640   36.0360   41.5490 C   0  0  0  0  0  0  0  0  0  0  0  0
   49.5370   34.6960   42.1410 C   0  0  0  0  0  0  0  0  0  0  0  0
   48.3220   34.3570   40.2980 H   0  0  0  0  0  0  0  0  0  0  0  0
   49.6000   36.4340   40.6900 H   0  0  0  0  0  0  0  0  0  0  0  0
   48.5820   36.7010   42.2790 H   0  0  0  0  0  0  0  0  0  0  0  0
   49.4700   34.5830   43.2540 H   0  0  0  0  0  0  0  0  0  0  0  0
   50.5170   34.3730   41.7450 H   0  0  0  0  0  0  0  0  0  0  0  0
   41.3300   32.5570   38.3610 O   0  0  0  0  0  0  0  0  0  0  0  0
   40.3640   31.6120   38.4350 C   0  0  0  0  0  0  0  0  0  0  0  0
   39.8760   31.0550   37.3530 O   0  0  0  0  0  0  0  0  0  0  0  0
   39.5060   30.8280   39.3750 C   0  0  2  0  0  0  0  0  0  0  0  0
   38.3360   31.7370   39.7690 C   0  0  0  0  0  0  0  0  0  0  0  0
   37.5210   31.7330   39.0420 H   0  0  0  0  0  0  0  0  0  0  0  0
   37.9220   31.0950   41.0820 C   0  0  0  0  0  0  0  0  0  0  0  0
   37.4830   31.8250   41.7950 H   0  0  0  0  0  0  0  0  0  0  0  0
   39.0750   30.5830   41.6490 O   0  0  0  0  0  0  0  0  0  0  0  0
   40.0720   30.5120   40.6960 C   0  0  0  0  0  0  0  0  0  0  0  0
   40.5870   29.5310   40.7540 H   0  0  0  0  0  0  0  0  0  0  0  0
  1  7  1  6  0  0  0
  1  6  1  0  0  0  0
  1  2  1  0  0  0  0
  2  8  1  6  0  0  0
  2  3  1  0  0  0  0
  2 17  1  0  0  0  0
  4 10  1  0  0  0  0
  4  3  1  0  0  0  0
  5  6  1  0  0  0  0
  5 11  1  1  0  0  0
  5  4  1  0  0  0  0
  6 12  1  1  0  0  0
  9  4  1  0  0  0  0
 13  1  1  0  0  0  0
 14 13  1  0  0  0  0
 15  5  1  0  0  0  0
 16 15  1  0  0  0  0
 17 18  1  0  0  0  0
 18 23  1  0  0  0  0
 19 18  2  0  0  0  0
 19 20  1  0  0  0  0
 20 21  2  0  0  0  0
 21 22  1  0  0  0  0
 22 25  1  0  0  0  0
 23 22  2  0  0  0  0
 24 19  1  0  0  0  0
 26 27  1  0  0  0  0
 26 20  1  0  0  0  0
 26 28  1  0  0  0  0
 27 28  1  0  0  0  0
 27 31  1  0  0  0  0
 28 32  1  0  0  0  0
 29 26  1  0  0  0  0
 30 27  1  0  0  0  0
 33 28  1  0  0  0  0
 34 35  1  0  0  0  0
 34  6  1  0  0  0  0
 36 35  2  0  0  0  0
 37 35  1  6  0  0  0
 37 38  1  0  0  0  0
 37 43  1  0  0  0  0
 38 40  1  0  0  0  0
 39 38  1  0  0  0  0
 40 42  1  0  0  0  0
 40 41  1  0  0  0  0
 43 44  1  0  0  0  0
 43 42  1  0  0  0  0
M  END
>  <minimizedAffinity>
-6.23187017

>  <minimizedRMSD>
1.64169705

$$$$
