
 OpenBabel03242516163D

 42 46  0  0  1  0  0  0  0  0999 V2000
   47.8970   34.4210   41.5010 C   0  0  0  0  0  0  0  0  0  0  0  0
   48.7890   35.6250   41.1820 C   0  0  0  0  0  0  0  0  0  0  0  0
   49.3110   34.4630   41.8540 C   0  0  0  0  0  0  0  0  0  0  0  0
   48.5080   36.5750   41.7140 H   0  0  0  0  0  0  0  0  0  0  0  0
   49.0370   35.8390   40.1240 H   0  0  0  0  0  0  0  0  0  0  0  0
   49.9860   33.7890   41.2610 H   0  0  0  0  0  0  0  0  0  0  0  0
   49.7420   34.6450   42.8390 H   0  0  0  0  0  0  0  0  0  0  0  0
   47.4790   33.6500   40.2980 C   0  0  0  0  0  0  0  0  0  0  0  0
   48.0270   34.1780   38.9810 C   0  0  0  0  0  0  0  0  0  0  0  0
   47.5700   33.1480   37.9380 C   0  0  0  0  0  0  0  0  0  0  0  0
   46.2070   33.4010   37.7230 O   0  0  0  0  0  0  0  0  0  0  0  0
   45.5960   32.8840   38.8940 C   0  0  0  0  0  0  0  0  0  0  0  0
   45.9530   33.7370   40.0900 C   0  0  0  0  0  0  0  0  0  0  0  0
   47.7520   32.5810   40.3220 H   0  0  0  0  0  0  0  0  0  0  0  0
   49.1240   34.0840   39.0080 H   0  0  0  0  0  0  0  0  0  0  0  0
   47.6560   35.1750   38.7410 H   0  0  0  0  0  0  0  0  0  0  0  0
   47.6950   32.1450   38.3610 H   0  0  0  0  0  0  0  0  0  0  0  0
   48.0700   33.2920   36.9660 H   0  0  0  0  0  0  0  0  0  0  0  0
   44.5010   33.0350   38.7370 H   0  0  0  0  0  0  0  0  0  0  0  0
   45.8760   31.8360   39.0790 H   0  0  0  0  0  0  0  0  0  0  0  0
   45.6240   34.7710   39.9570 H   0  0  0  0  0  0  0  0  0  0  0  0
   45.5210   33.2150   40.9710 H   0  0  0  0  0  0  0  0  0  0  0  0
   46.2310   35.8650   42.6920 C   0  0  0  0  0  0  0  0  0  0  0  0
   46.8620   34.6410   42.5580 C   0  0  0  0  0  0  0  0  0  0  0  0
   46.5010   33.6400   43.4530 C   0  0  0  0  0  0  0  0  0  0  0  0
   45.5590   33.8770   44.4150 N   0  0  0  0  0  0  0  0  0  0  0  0
   44.9890   35.0840   44.4840 C   0  0  0  0  0  0  0  0  0  0  0  0
   45.3070   36.0590   43.6520 N   0  0  0  0  0  0  0  0  0  0  0  0
   44.0010   35.4040   45.4570 N   0  0  0  0  0  0  0  0  0  0  0  0
   46.5240   36.6290   41.9880 H   0  0  0  0  0  0  0  0  0  0  0  0
   43.0360   35.1060   45.2440 H   0  0  0  0  0  0  0  0  0  0  0  0
   44.5060   35.9020   46.2210 H   0  0  0  0  0  0  0  0  0  0  0  0
   47.1360   32.3400   43.4780 C   0  0  1  0  0  3  0  0  0  0  0  0
   48.1840   31.9630   44.0640 O   0  0  0  0  0  0  0  0  0  0  0  0
   47.2660   30.9170   43.1270 C   0  0  2  0  0  0  0  0  0  0  0  0
   46.3400   30.5130   41.9970 C   0  0  0  0  0  3  0  0  0  0  0  0
   46.7240   29.5000   41.6920 H   0  0  0  0  0  0  0  0  0  0  0  0
   45.0450   30.2870   42.6980 C   0  0  0  0  0  3  0  0  0  0  0  0
   44.6660   29.2360   42.5320 H   0  0  0  0  0  0  0  0  0  0  0  0
   45.2620   30.3730   44.0640 O   0  0  0  0  0  0  0  0  0  0  0  0
   46.6050   30.0470   44.2400 C   0  0  0  0  0  3  0  0  0  0  0  0
   46.9780   30.3500   45.2210 H   0  0  0  0  0  0  0  0  0  0  0  0
  1  3  1  0  0  0  0
  1 24  1  0  0  0  0
  2  1  1  0  0  0  0
  2  4  1  0  0  0  0
  2  3  1  0  0  0  0
  3  7  1  0  0  0  0
  5  2  1  0  0  0  0
  6  3  1  0  0  0  0
  8 14  1  0  0  0  0
  8  1  1  0  0  0  0
  9 15  1  0  0  0  0
  9  8  1  0  0  0  0
 10 17  1  0  0  0  0
 10  9  1  0  0  0  0
 11 10  1  0  0  0  0
 11 12  1  0  0  0  0
 12 20  1  0  0  0  0
 12 13  1  0  0  0  0
 13  8  1  0  0  0  0
 13 22  1  0  0  0  0
 16  9  1  0  0  0  0
 18 10  1  0  0  0  0
 19 12  1  0  0  0  0
 21 13  1  0  0  0  0
 23 28  1  0  0  0  0
 24 23  2  0  0  0  0
 24 25  1  0  0  0  0
 25 26  2  0  0  0  0
 26 27  1  0  0  0  0
 27 29  1  0  0  0  0
 28 27  2  0  0  0  0
 29 32  1  0  0  0  0
 30 23  1  0  0  0  0
 31 29  1  0  0  0  0
 33 25  1  1  0  0  0
 33 34  1  0  0  0  0
 35 36  1  6  0  0  0
 35 33  1  0  0  0  0
 35 34  1  0  0  0  0
 35 41  1  0  0  0  0
 36 38  1  0  0  0  0
 37 36  1  0  0  0  0
 38 40  1  0  0  0  0
 39 38  1  0  0  0  0
 40 41  1  0  0  0  0
 41 42  1  0  0  0  0
M  END
>  <minimizedAffinity>
-4.96431684

>  <minimizedRMSD>
1.41251791

$$$$
