
 OpenBabel03242523543D

 44 47  0  0  1  0  0  0  0  0999 V2000
   42.8380   34.3520   38.9720 C   0  0  1  0  0  0  0  0  0  0  0  0
   43.0530   35.1860   40.2290 C   0  0  1  0  0  0  0  0  0  0  0  0
   41.8010   35.6300   40.6860 O   0  0  0  0  0  0  0  0  0  0  0  0
   40.9240   35.9310   39.6420 C   0  0  0  0  0  0  0  0  0  0  0  0
   40.4820   34.6870   38.8970 C   0  0  2  0  0  0  0  0  0  0  0  0
   41.5680   33.5950   39.1850 C   0  0  1  0  0  0  0  0  0  0  0  0
   43.7150   33.6970   38.7900 H   0  0  0  0  0  0  0  0  0  0  0  0
   43.7500   36.0180   40.0810 H   0  0  0  0  0  0  0  0  0  0  0  0
   41.3200   36.7240   38.9850 H   0  0  0  0  0  0  0  0  0  0  0  0
   40.0260   36.3420   40.1220 H   0  0  0  0  0  0  0  0  0  0  0  0
   39.5060   34.3120   39.2450 H   0  0  0  0  0  0  0  0  0  0  0  0
   41.3270   33.4930   40.2930 H   0  0  0  0  0  0  0  0  0  0  0  0
   42.7390   35.1750   37.8400 O   0  0  0  0  0  0  0  0  0  0  0  0
   43.6730   35.4560   37.6470 H   0  0  0  0  0  0  0  0  0  0  0  0
   40.5490   34.9130   37.5290 O   0  0  0  0  0  0  0  0  0  0  0  0
   40.7810   34.1370   36.9920 H   0  0  0  0  0  0  0  0  0  0  0  0
   43.4670   34.2750   41.2100 O   0  0  0  0  0  0  0  0  0  0  0  0
   44.6180   34.3480   41.8910 C   0  0  0  0  0  0  0  0  0  0  0  0
   45.8450   34.4910   41.2280 C   0  0  0  0  0  0  0  0  0  0  0  0
   46.9990   34.5610   41.9940 C   0  0  0  0  0  0  0  0  0  0  0  0
   46.9100   34.4890   43.3710 N   0  0  0  0  0  0  0  0  0  0  0  0
   45.7060   34.3510   43.9740 C   0  0  0  0  0  0  0  0  0  0  0  0
   44.5660   34.2800   43.2420 N   0  0  0  0  0  0  0  0  0  0  0  0
   45.9130   34.5470   40.1500 H   0  0  0  0  0  0  0  0  0  0  0  0
   45.7170   34.3010   45.0510 H   0  0  0  0  0  0  0  0  0  0  0  0
   48.3480   34.6990   41.3510 C   0  0  0  0  0  0  0  0  0  0  0  0
   49.0610   36.0370   41.5430 C   0  0  0  0  0  0  0  0  0  0  0  0
   49.5370   34.7010   42.1420 C   0  0  0  0  0  0  0  0  0  0  0  0
   48.3230   34.3490   40.3000 H   0  0  0  0  0  0  0  0  0  0  0  0
   49.5970   36.4310   40.6820 H   0  0  0  0  0  0  0  0  0  0  0  0
   48.5770   36.7040   42.2690 H   0  0  0  0  0  0  0  0  0  0  0  0
   49.4700   34.5940   43.2560 H   0  0  0  0  0  0  0  0  0  0  0  0
   50.5180   34.3780   41.7480 H   0  0  0  0  0  0  0  0  0  0  0  0
   41.3310   32.5580   38.3620 O   0  0  0  0  0  0  0  0  0  0  0  0
   40.3650   31.6130   38.4360 C   0  0  0  0  0  0  0  0  0  0  0  0
   39.8760   31.0560   37.3530 O   0  0  0  0  0  0  0  0  0  0  0  0
   39.5070   30.8280   39.3750 C   0  0  2  0  0  3  0  0  0  0  0  0
   38.3370   31.7360   39.7690 C   0  0  0  0  0  3  0  0  0  0  0  0
   37.5220   31.7310   39.0410 H   0  0  0  0  0  0  0  0  0  0  0  0
   37.9220   31.0940   41.0820 C   0  0  0  0  0  3  0  0  0  0  0  0
   37.4820   31.8230   41.7940 H   0  0  0  0  0  0  0  0  0  0  0  0
   39.0760   30.5830   41.6510 O   0  0  0  0  0  0  0  0  0  0  0  0
   40.0720   30.5140   40.6970 C   0  0  0  0  0  3  0  0  0  0  0  0
   40.5890   29.5320   40.7550 H   0  0  0  0  0  0  0  0  0  0  0  0
  1  7  1  6  0  0  0
  1  6  1  0  0  0  0
  1  2  1  0  0  0  0
  2  8  1  6  0  0  0
  2  3  1  0  0  0  0
  2 17  1  0  0  0  0
  4 10  1  0  0  0  0
  4  3  1  0  0  0  0
  5  6  1  0  0  0  0
  5 11  1  1  0  0  0
  5  4  1  0  0  0  0
  6 12  1  1  0  0  0
  9  4  1  0  0  0  0
 13  1  1  0  0  0  0
 14 13  1  0  0  0  0
 15  5  1  0  0  0  0
 16 15  1  0  0  0  0
 17 18  1  0  0  0  0
 18 23  1  0  0  0  0
 19 18  2  0  0  0  0
 19 20  1  0  0  0  0
 20 21  2  0  0  0  0
 21 22  1  0  0  0  0
 22 25  1  0  0  0  0
 23 22  2  0  0  0  0
 24 19  1  0  0  0  0
 26 27  1  0  0  0  0
 26 20  1  0  0  0  0
 26 28  1  0  0  0  0
 27 28  1  0  0  0  0
 27 31  1  0  0  0  0
 28 32  1  0  0  0  0
 29 26  1  0  0  0  0
 30 27  1  0  0  0  0
 33 28  1  0  0  0  0
 34 35  1  0  0  0  0
 34  6  1  0  0  0  0
 36 35  2  0  0  0  0
 37 35  1  6  0  0  0
 37 38  1  0  0  0  0
 37 43  1  0  0  0  0
 38 40  1  0  0  0  0
 39 38  1  0  0  0  0
 40 42  1  0  0  0  0
 40 41  1  0  0  0  0
 43 44  1  0  0  0  0
 43 42  1  0  0  0  0
M  END
>  <minimizedAffinity>
-6.23156357

>  <minimizedRMSD>
1.7438792

$$$$
