
 OpenBabel03252509003D

 44 46  0  0  1  0  0  0  0  0999 V2000
   46.7000   34.5510   43.4730 N   0  0  0  0  0  0  0  0  0  0  0  0
   46.2070   35.6150   42.6760 C   0  0  0  0  0  0  0  0  0  0  0  0
   44.7050   35.7890   42.6830 C   0  0  0  0  0  0  0  0  0  0  0  0
   44.0520   35.4320   43.9920 C   0  0  0  0  0  0  0  0  0  0  0  0
   45.0620   35.0540   45.0440 C   0  0  0  0  0  0  0  0  0  0  0  0
   45.8730   33.8900   44.3670 C   0  0  2  0  0  0  0  0  0  0  0  0
   46.5270   35.6210   41.6300 H   0  0  0  0  0  0  0  0  0  0  0  0
   46.6230   36.5640   43.1080 H   0  0  0  0  0  0  0  0  0  0  0  0
   44.4660   36.8640   42.4780 H   0  0  0  0  0  0  0  0  0  0  0  0
   44.3030   35.2280   41.8190 H   0  0  0  0  0  0  0  0  0  0  0  0
   43.4260   34.5280   43.8270 H   0  0  0  0  0  0  0  0  0  0  0  0
   43.4290   36.2450   44.4140 H   0  0  0  0  0  0  0  0  0  0  0  0
   45.7490   35.8590   45.3200 H   0  0  0  0  0  0  0  0  0  0  0  0
   44.5420   34.5820   45.8960 H   0  0  0  0  0  0  0  0  0  0  0  0
   45.1170   33.1810   43.9660 H   0  0  0  0  0  0  0  0  0  0  0  0
   47.7980   33.8390   42.8870 C   0  0  0  0  0  0  0  0  0  0  0  0
   48.4210   33.3500   43.6670 H   0  0  0  0  0  0  0  0  0  0  0  0
   48.4420   34.5420   42.3550 H   0  0  0  0  0  0  0  0  0  0  0  0
   47.2520   32.7630   41.9970 C   0  0  0  0  0  0  0  0  0  0  0  0
   46.1400   32.8230   41.9320 H   0  0  0  0  0  0  0  0  0  0  0  0
   47.4790   31.7610   42.3770 H   0  0  0  0  0  0  0  0  0  0  0  0
   49.1180   32.0690   38.8100 C   0  0  0  0  0  0  0  0  0  0  0  0
   48.5830   31.9290   40.1030 C   0  0  0  0  0  0  0  0  0  0  0  0
   47.8080   32.9310   40.6270 C   0  0  0  0  0  0  0  0  0  0  0  0
   47.5950   34.0110   39.8690 N   0  0  0  0  0  0  0  0  0  0  0  0
   48.1070   34.1430   38.6300 C   0  0  0  0  0  0  0  0  0  0  0  0
   48.8650   33.1870   38.0920 N   0  0  0  0  0  0  0  0  0  0  0  0
   49.7270   31.2580   38.4240 H   0  0  0  0  0  0  0  0  0  0  0  0
   48.7700   31.0430   40.6990 H   0  0  0  0  0  0  0  0  0  0  0  0
   47.8340   35.0690   38.1720 H   0  0  0  0  0  0  0  0  0  0  0  0
   46.5830   33.3810   45.4470 O   0  0  0  0  0  0  0  0  0  0  0  0
   45.5160   31.1270   44.5780 O   0  0  0  0  0  0  0  0  0  0  0  0
   46.2660   31.7550   45.7300 P   0  0  2  0  0  0  0  0  0  0  0  0
   45.1870   31.7060   47.0580 O   0  0  0  0  0  0  0  0  0  0  0  0
   44.2620   31.9190   46.7390 H   0  0  0  0  0  0  0  0  0  0  0  0
   47.6580   30.9440   46.1550 O   0  0  0  0  0  0  0  0  0  0  0  0
   47.5120   29.9560   47.0750 C   0  0  2  0  0  3  0  0  0  0  0  0
   48.8930   29.6660   47.6510 C   0  0  0  0  0  3  0  0  0  0  0  0
   49.0970   30.2890   48.5430 H   0  0  0  0  0  0  0  0  0  0  0  0
   48.8030   28.1910   47.9570 C   0  0  0  0  0  3  0  0  0  0  0  0
   49.6550   27.6450   47.5210 H   0  0  0  0  0  0  0  0  0  0  0  0
   47.5820   27.7250   47.5010 O   0  0  0  0  0  0  0  0  0  0  0  0
   47.1570   28.6080   46.5070 C   0  0  0  0  0  3  0  0  0  0  0  0
   47.6820   28.4480   45.5540 H   0  0  0  0  0  0  0  0  0  0  0  0
  1  6  1  0  0  0  0
  2  3  1  0  0  0  0
  2  8  1  0  0  0  0
  2  1  1  0  0  0  0
  3  4  1  0  0  0  0
  4 12  1  0  0  0  0
  4  5  1  0  0  0  0
  5 13  1  0  0  0  0
  5 14  1  0  0  0  0
  6 15  1  6  0  0  0
  6  5  1  0  0  0  0
  6 31  1  0  0  0  0
  7  2  1  0  0  0  0
  9  3  1  0  0  0  0
 10  3  1  0  0  0  0
 11  4  1  0  0  0  0
 16  1  1  0  0  0  0
 16 17  1  0  0  0  0
 18 16  1  0  0  0  0
 19 21  1  0  0  0  0
 19 16  1  0  0  0  0
 20 19  1  0  0  0  0
 22 23  1  0  0  0  0
 23 24  2  0  0  0  0
 23 29  1  0  0  0  0
 24 19  1  0  0  0  0
 25 24  1  0  0  0  0
 26 25  2  0  0  0  0
 27 26  1  0  0  0  0
 27 22  2  0  0  0  0
 28 22  1  0  0  0  0
 30 26  1  0  0  0  0
 31 33  1  0  0  0  0
 33 32  2  6  0  0  0
 33 36  1  0  0  0  0
 33 34  1  0  0  0  0
 35 34  1  0  0  0  0
 37 36  1  6  0  0  0
 37 38  1  0  0  0  0
 38 40  1  0  0  0  0
 38 39  1  0  0  0  0
 41 40  1  0  0  0  0
 42 40  1  0  0  0  0
 43 37  1  0  0  0  0
 43 42  1  0  0  0  0
 44 43  1  0  0  0  0
M  END
>  <minimizedAffinity>
-4.21325493

>  <minimizedRMSD>
0.972902656

$$$$
