
 OpenBabel03242521193D

 37 39  0  0  1  0  0  0  0  0999 V2000
   35.8740   30.5280   40.7970 C   0  0  0  0  0  0  0  0  0  0  0  0
   36.9830   31.1890   40.2080 C   0  0  0  0  0  0  0  0  0  0  0  0
   37.7490   30.4550   39.3130 C   0  0  0  0  0  0  0  0  0  0  0  0
   37.3970   29.1600   39.0540 N   0  0  0  0  0  0  0  0  0  0  0  0
   36.3450   28.5710   39.6280 C   0  0  0  0  0  0  0  0  0  0  0  0
   35.5590   29.2470   40.5160 N   0  0  0  0  0  0  0  0  0  0  0  0
   35.2320   31.0340   41.5020 H   0  0  0  0  0  0  0  0  0  0  0  0
   37.1880   32.2050   40.4650 H   0  0  0  0  0  0  0  0  0  0  0  0
   38.8680   31.1040   38.7110 N   0  0  0  0  0  0  0  0  0  0  0  0
   40.0280   31.1230   39.3870 C   0  0  0  0  0  0  0  0  0  0  0  0
   41.1170   31.7590   38.7940 C   0  0  0  0  0  0  0  0  0  0  0  0
   40.9590   32.3250   37.5670 C   0  0  0  0  0  0  0  0  0  0  0  0
   41.9780   32.9010   37.0470 O   0  0  0  0  0  0  0  0  0  0  0  0
   39.8040   32.3100   36.8830 N   0  0  0  0  0  0  0  0  0  0  0  0
   38.7780   31.6830   37.4970 C   0  0  0  0  0  0  0  0  0  0  0  0
   37.6520   31.6090   36.9510 O   0  0  0  0  0  0  0  0  0  0  0  0
   40.0820   30.6530   40.3600 H   0  0  0  0  0  0  0  0  0  0  0  0
   42.0320   31.7460   39.3830 H   0  0  0  0  0  0  0  0  0  0  0  0
   39.6990   32.7490   35.9410 H   0  0  0  0  0  0  0  0  0  0  0  0
   36.2110   27.1620   39.1550 C   0  0  0  0  0  0  0  0  0  0  0  0
   35.1020   26.9770   39.0850 H   0  0  0  0  0  0  0  0  0  0  0  0
   36.5820   27.0080   38.1340 H   0  0  0  0  0  0  0  0  0  0  0  0
   36.8190   26.2160   40.1780 C   0  0  0  0  0  0  0  0  0  0  0  0
   37.7810   25.7860   39.7870 H   0  0  0  0  0  0  0  0  0  0  0  0
   36.0970   25.4020   40.3450 H   0  0  0  0  0  0  0  0  0  0  0  0
   38.1970   26.5130   42.1960 C   0  0  0  0  0  0  0  0  0  0  0  0
   38.8100   25.5060   41.7970 O   0  0  0  0  0  0  0  0  0  0  0  0
   37.1360   26.9580   41.3690 N   0  0  0  0  0  0  0  0  0  0  0  0
   36.5910   27.8020   41.6130 H   0  0  0  0  0  0  0  0  0  0  0  0
   38.5230   27.2370   43.4580 C   0  0  1  0  0  3  0  0  0  0  0  0
   40.0220   27.5100   43.4530 C   0  0  0  0  0  3  0  0  0  0  0  0
   40.5370   26.6800   42.9200 H   0  0  0  0  0  0  0  0  0  0  0  0
   40.0610   28.7700   42.6190 C   0  0  0  0  0  3  0  0  0  0  0  0
   40.7770   29.4770   43.1100 H   0  0  0  0  0  0  0  0  0  0  0  0
   38.7870   29.2590   42.4940 O   0  0  0  0  0  0  0  0  0  0  0  0
   38.0010   28.6620   43.4640 C   0  0  0  0  0  3  0  0  0  0  0  0
   38.2720   29.0700   44.4570 H   0  0  0  0  0  0  0  0  0  0  0  0
  1  7  1  0  0  0  0
  2  8  1  0  0  0  0
  2  1  2  0  0  0  0
  3  2  1  0  0  0  0
  4  3  2  0  0  0  0
  4  5  1  0  0  0  0
  5  6  2  0  0  0  0
  6  1  1  0  0  0  0
  9  3  1  0  0  0  0
  9 10  1  0  0  0  0
 10 17  1  0  0  0  0
 11 18  1  0  0  0  0
 11 10  2  0  0  0  0
 12 11  1  0  0  0  0
 13 12  2  0  0  0  0
 14 15  1  0  0  0  0
 14 12  1  0  0  0  0
 15  9  1  0  0  0  0
 16 15  2  0  0  0  0
 19 14  1  0  0  0  0
 20  5  1  0  0  0  0
 20 23  1  0  0  0  0
 21 20  1  0  0  0  0
 22 20  1  0  0  0  0
 23 25  1  0  0  0  0
 23 28  1  0  0  0  0
 24 23  1  0  0  0  0
 27 26  2  0  0  0  0
 28 29  1  0  0  0  0
 28 26  1  0  0  0  0
 30 26  1  6  0  0  0
 30 36  1  0  0  0  0
 31 30  1  0  0  0  0
 32 31  1  0  0  0  0
 33 34  1  0  0  0  0
 33 31  1  0  0  0  0
 35 33  1  0  0  0  0
 35 36  1  0  0  0  0
 36 37  1  0  0  0  0
M  END
>  <minimizedAffinity>
-5.70283651

$$$$

 OpenBabel03242521193D

 37 39  0  0  1  0  0  0  0  0999 V2000
   36.4490   31.2200   40.5030 C   0  0  0  0  0  0  0  0  0  0  0  0
   37.4180   31.9110   39.7310 C   0  0  0  0  0  0  0  0  0  0  0  0
   38.7510   31.6800   40.0430 C   0  0  0  0  0  0  0  0  0  0  0  0
   39.0480   30.8150   41.0580 N   0  0  0  0  0  0  0  0  0  0  0  0
   38.1080   30.1820   41.7640 C   0  0  0  0  0  0  0  0  0  0  0  0
   36.7820   30.3740   41.4990 N   0  0  0  0  0  0  0  0  0  0  0  0
   35.3930   31.3480   40.3190 H   0  0  0  0  0  0  0  0  0  0  0  0
   37.1000   32.5700   38.9540 H   0  0  0  0  0  0  0  0  0  0  0  0
   39.7390   32.3670   39.2770 N   0  0  0  0  0  0  0  0  0  0  0  0
   40.3020   33.4660   39.8070 C   0  0  0  0  0  0  0  0  0  0  0  0
   41.2670   34.1310   39.0530 C   0  0  0  0  0  0  0  0  0  0  0  0
   41.5940   33.6440   37.8270 C   0  0  0  0  0  0  0  0  0  0  0  0
   42.4840   34.2770   37.1570 O   0  0  0  0  0  0  0  0  0  0  0  0
   41.0380   32.5460   37.2890 N   0  0  0  0  0  0  0  0  0  0  0  0
   40.1100   31.9350   38.0550 C   0  0  0  0  0  0  0  0  0  0  0  0
   39.5250   30.9020   37.6520 O   0  0  0  0  0  0  0  0  0  0  0  0
   39.9930   33.7980   40.7890 H   0  0  0  0  0  0  0  0  0  0  0  0
   41.6900   35.0140   39.5280 H   0  0  0  0  0  0  0  0  0  0  0  0
   41.3000   32.1840   36.3450 H   0  0  0  0  0  0  0  0  0  0  0  0
   38.7300   29.3080   42.8020 C   0  0  0  0  0  0  0  0  0  0  0  0
   39.5860   28.7930   42.2810 H   0  0  0  0  0  0  0  0  0  0  0  0
   39.2010   29.8690   43.6180 H   0  0  0  0  0  0  0  0  0  0  0  0
   37.7230   28.2700   43.2700 C   0  0  0  0  0  0  0  0  0  0  0  0
   36.8570   28.2180   42.5550 H   0  0  0  0  0  0  0  0  0  0  0  0
   37.3580   28.5880   44.2590 H   0  0  0  0  0  0  0  0  0  0  0  0
   37.8590   25.9680   42.4100 C   0  0  0  0  0  0  0  0  0  0  0  0
   36.9160   26.3010   41.6690 O   0  0  0  0  0  0  0  0  0  0  0  0
   38.3510   26.9770   43.2750 N   0  0  0  0  0  0  0  0  0  0  0  0
   39.1500   26.7930   43.9050 H   0  0  0  0  0  0  0  0  0  0  0  0
   38.4640   24.6060   42.4220 C   0  0  1  0  0  3  0  0  0  0  0  0
   38.7460   24.2190   40.9760 C   0  0  0  0  0  3  0  0  0  0  0  0
   37.9740   24.6820   40.3220 H   0  0  0  0  0  0  0  0  0  0  0  0
   40.0790   24.9030   40.7710 C   0  0  0  0  0  3  0  0  0  0  0  0
   40.7420   24.1900   40.2170 H   0  0  0  0  0  0  0  0  0  0  0  0
   40.5690   25.2910   41.9910 O   0  0  0  0  0  0  0  0  0  0  0  0
   39.8780   24.6000   42.9720 C   0  0  0  0  0  3  0  0  0  0  0  0
   40.1940   23.5390   42.9620 H   0  0  0  0  0  0  0  0  0  0  0  0
  1  6  1  0  0  0  0
  2  3  1  0  0  0  0
  2  1  2  0  0  0  0
  3  4  2  0  0  0  0
  4  5  1  0  0  0  0
  5 20  1  0  0  0  0
  6  5  2  0  0  0  0
  7  1  1  0  0  0  0
  8  2  1  0  0  0  0
  9 10  1  0  0  0  0
  9  3  1  0  0  0  0
 10 17  1  0  0  0  0
 11 18  1  0  0  0  0
 11 10  2  0  0  0  0
 12 11  1  0  0  0  0
 13 12  2  0  0  0  0
 14 12  1  0  0  0  0
 14 15  1  0  0  0  0
 15  9  1  0  0  0  0
 16 15  2  0  0  0  0
 19 14  1  0  0  0  0
 20 23  1  0  0  0  0
 20 22  1  0  0  0  0
 21 20  1  0  0  0  0
 23 28  1  0  0  0  0
 23 25  1  0  0  0  0
 24 23  1  0  0  0  0
 26 28  1  0  0  0  0
 27 26  2  0  0  0  0
 28 29  1  0  0  0  0
 30 26  1  6  0  0  0
 30 36  1  0  0  0  0
 31 30  1  0  0  0  0
 32 31  1  0  0  0  0
 33 31  1  0  0  0  0
 33 35  1  0  0  0  0
 34 33  1  0  0  0  0
 35 36  1  0  0  0  0
 37 36  1  0  0  0  0
M  END
>  <minimizedAffinity>
-5.56729746

$$$$

 OpenBabel03242521193D

 37 39  0  0  1  0  0  0  0  0999 V2000
   34.6160   27.6630   37.6290 C   0  0  0  0  0  0  0  0  0  0  0  0
   35.0170   28.9880   37.9390 C   0  0  0  0  0  0  0  0  0  0  0  0
   36.1820   29.1350   38.6790 C   0  0  0  0  0  0  0  0  0  0  0  0
   36.8640   28.0140   39.0590 N   0  0  0  0  0  0  0  0  0  0  0  0
   36.4560   26.7810   38.7480 C   0  0  0  0  0  0  0  0  0  0  0  0
   35.3170   26.5800   38.0230 N   0  0  0  0  0  0  0  0  0  0  0  0
   33.7210   27.4690   37.0570 H   0  0  0  0  0  0  0  0  0  0  0  0
   34.4250   29.8100   37.6020 H   0  0  0  0  0  0  0  0  0  0  0  0
   36.6000   30.4600   39.0010 N   0  0  0  0  0  0  0  0  0  0  0  0
   37.2290   31.1740   38.0520 C   0  0  0  0  0  0  0  0  0  0  0  0
   37.6340   32.4680   38.3730 C   0  0  0  0  0  0  0  0  0  0  0  0
   37.3770   32.9480   39.6200 C   0  0  0  0  0  0  0  0  0  0  0  0
   37.7610   34.1400   39.8850 O   0  0  0  0  0  0  0  0  0  0  0  0
   36.7480   32.2420   40.5740 N   0  0  0  0  0  0  0  0  0  0  0  0
   36.3740   30.9950   40.2170 C   0  0  0  0  0  0  0  0  0  0  0  0
   35.7810   30.2470   41.0290 O   0  0  0  0  0  0  0  0  0  0  0  0
   37.4010   30.7300   37.0820 H   0  0  0  0  0  0  0  0  0  0  0  0
   38.1390   33.0030   37.5710 H   0  0  0  0  0  0  0  0  0  0  0  0
   36.5580   32.6250   41.5270 H   0  0  0  0  0  0  0  0  0  0  0  0
   37.3990   25.7620   39.2980 C   0  0  0  0  0  0  0  0  0  0  0  0
   37.3370   24.8890   38.5900 H   0  0  0  0  0  0  0  0  0  0  0  0
   38.4490   26.0760   39.2600 H   0  0  0  0  0  0  0  0  0  0  0  0
   36.9370   25.3290   40.6800 C   0  0  0  0  0  0  0  0  0  0  0  0
   37.4930   24.4070   41.0050 H   0  0  0  0  0  0  0  0  0  0  0  0
   35.8620   25.1000   40.6110 H   0  0  0  0  0  0  0  0  0  0  0  0
   38.3230   26.1830   42.5260 C   0  0  0  0  0  0  0  0  0  0  0  0
   38.9560   25.1180   42.4030 O   0  0  0  0  0  0  0  0  0  0  0  0
   37.2450   26.3680   41.6240 N   0  0  0  0  0  0  0  0  0  0  0  0
   36.6830   27.2360   41.6400 H   0  0  0  0  0  0  0  0  0  0  0  0
   38.6420   27.2250   43.5430 C   0  0  1  0  0  3  0  0  0  0  0  0
   40.1160   27.5770   43.3890 C   0  0  0  0  0  3  0  0  0  0  0  0
   40.6700   26.6700   43.0570 H   0  0  0  0  0  0  0  0  0  0  0  0
   40.0350   28.5800   42.2610 C   0  0  0  0  0  3  0  0  0  0  0  0
   40.7160   29.4310   42.5180 H   0  0  0  0  0  0  0  0  0  0  0  0
   38.7250   28.9440   42.0840 O   0  0  0  0  0  0  0  0  0  0  0  0
   38.0200   28.5700   43.2150 C   0  0  0  0  0  3  0  0  0  0  0  0
   38.2970   29.2360   44.0550 H   0  0  0  0  0  0  0  0  0  0  0  0
  1  2  2  0  0  0  0
  1  6  1  0  0  0  0
  2  3  1  0  0  0  0
  3  9  1  0  0  0  0
  3  4  2  0  0  0  0
  5  4  1  0  0  0  0
  5 20  1  0  0  0  0
  6  5  2  0  0  0  0
  7  1  1  0  0  0  0
  8  2  1  0  0  0  0
  9 15  1  0  0  0  0
 10 11  2  0  0  0  0
 10  9  1  0  0  0  0
 11 12  1  0  0  0  0
 12 13  2  0  0  0  0
 12 14  1  0  0  0  0
 14 19  1  0  0  0  0
 15 14  1  0  0  0  0
 15 16  2  0  0  0  0
 17 10  1  0  0  0  0
 18 11  1  0  0  0  0
 20 23  1  0  0  0  0
 21 20  1  0  0  0  0
 22 20  1  0  0  0  0
 23 24  1  0  0  0  0
 23 28  1  0  0  0  0
 25 23  1  0  0  0  0
 27 26  2  0  0  0  0
 28 29  1  0  0  0  0
 28 26  1  0  0  0  0
 30 26  1  6  0  0  0
 31 30  1  0  0  0  0
 32 31  1  0  0  0  0
 33 34  1  0  0  0  0
 33 31  1  0  0  0  0
 35 33  1  0  0  0  0
 35 36  1  0  0  0  0
 36 30  1  0  0  0  0
 36 37  1  0  0  0  0
M  END
>  <minimizedAffinity>
-5.56584167

$$$$

 OpenBabel03242521193D

 37 39  0  0  1  0  0  0  0  0999 V2000
   37.5820   27.7670   43.6850 C   0  0  0  0  0  0  0  0  0  0  0  0
   37.6810   29.0980   43.2040 C   0  0  0  0  0  0  0  0  0  0  0  0
   37.7890   29.2630   41.8300 C   0  0  0  0  0  0  0  0  0  0  0  0
   37.7930   28.1540   41.0330 N   0  0  0  0  0  0  0  0  0  0  0  0
   37.6980   26.9150   41.5220 C   0  0  0  0  0  0  0  0  0  0  0  0
   37.5910   26.6960   42.8650 N   0  0  0  0  0  0  0  0  0  0  0  0
   37.4950   27.5590   44.7410 H   0  0  0  0  0  0  0  0  0  0  0  0
   37.6700   29.9110   43.8970 H   0  0  0  0  0  0  0  0  0  0  0  0
   37.8900   30.5950   41.3290 N   0  0  0  0  0  0  0  0  0  0  0  0
   39.0950   31.1880   41.3410 C   0  0  0  0  0  0  0  0  0  0  0  0
   39.1860   32.4890   40.8500 C   0  0  0  0  0  0  0  0  0  0  0  0
   38.0620   33.0960   40.3840 C   0  0  0  0  0  0  0  0  0  0  0  0
   38.1770   34.2910   39.9390 O   0  0  0  0  0  0  0  0  0  0  0  0
   36.8530   32.5120   40.3670 N   0  0  0  0  0  0  0  0  0  0  0  0
   36.8140   31.2520   40.8520 C   0  0  0  0  0  0  0  0  0  0  0  0
   35.7370   30.6110   40.8850 O   0  0  0  0  0  0  0  0  0  0  0  0
   39.9480   30.6460   41.7280 H   0  0  0  0  0  0  0  0  0  0  0  0
   40.1840   32.9220   40.8830 H   0  0  0  0  0  0  0  0  0  0  0  0
   35.9980   32.9910   40.0050 H   0  0  0  0  0  0  0  0  0  0  0  0
   37.7310   25.9110   40.4170 C   0  0  0  0  0  0  0  0  0  0  0  0
   38.6770   26.1300   39.8460 H   0  0  0  0  0  0  0  0  0  0  0  0
   37.8520   24.8800   40.7700 H   0  0  0  0  0  0  0  0  0  0  0  0
   36.5310   26.1130   39.5060 C   0  0  0  0  0  0  0  0  0  0  0  0
   35.7340   26.7020   40.0360 H   0  0  0  0  0  0  0  0  0  0  0  0
   36.1390   25.1160   39.2520 H   0  0  0  0  0  0  0  0  0  0  0  0
   36.1640   28.0020   37.9710 C   0  0  0  0  0  0  0  0  0  0  0  0
   35.1840   28.2620   38.6940 O   0  0  0  0  0  0  0  0  0  0  0  0
   36.9380   26.8800   38.3590 N   0  0  0  0  0  0  0  0  0  0  0  0
   37.7830   26.6100   37.8300 H   0  0  0  0  0  0  0  0  0  0  0  0
   36.5370   28.7930   36.7650 C   0  0  1  0  0  3  0  0  0  0  0  0
   36.8430   30.2130   37.2260 C   0  0  0  0  0  3  0  0  0  0  0  0
   36.1980   30.4540   38.1000 H   0  0  0  0  0  0  0  0  0  0  0  0
   38.2790   30.0470   37.6670 C   0  0  0  0  0  3  0  0  0  0  0  0
   38.8510   30.9350   37.2950 H   0  0  0  0  0  0  0  0  0  0  0  0
   38.7490   28.8450   37.2050 O   0  0  0  0  0  0  0  0  0  0  0  0
   37.8940   28.4040   36.2090 C   0  0  0  0  0  3  0  0  0  0  0  0
   38.0330   29.0290   35.3060 H   0  0  0  0  0  0  0  0  0  0  0  0
  1  7  1  0  0  0  0
  2  1  1  0  0  0  0
  2  8  1  0  0  0  0
  3  2  2  0  0  0  0
  4  5  2  0  0  0  0
  4  3  1  0  0  0  0
  5  6  1  0  0  0  0
  6  1  2  0  0  0  0
  9 10  1  0  0  0  0
  9  3  1  0  0  0  0
 10 17  1  0  0  0  0
 11 18  1  0  0  0  0
 11 10  2  0  0  0  0
 12 11  1  0  0  0  0
 13 12  2  0  0  0  0
 14 12  1  0  0  0  0
 14 15  1  0  0  0  0
 15 16  2  0  0  0  0
 15  9  1  0  0  0  0
 19 14  1  0  0  0  0
 20 22  1  0  0  0  0
 20  5  1  0  0  0  0
 21 20  1  0  0  0  0
 23 24  1  0  0  0  0
 23 20  1  0  0  0  0
 25 23  1  0  0  0  0
 26 28  1  0  0  0  0
 26 27  2  0  0  0  0
 28 23  1  0  0  0  0
 29 28  1  0  0  0  0
 30 31  1  0  0  0  0
 30 26  1  1  0  0  0
 31 33  1  0  0  0  0
 31 32  1  0  0  0  0
 34 33  1  0  0  0  0
 35 33  1  0  0  0  0
 36 30  1  0  0  0  0
 36 35  1  0  0  0  0
 37 36  1  0  0  0  0
M  END
>  <minimizedAffinity>
-5.49752998

$$$$

 OpenBabel03242521193D

 37 39  0  0  1  0  0  0  0  0999 V2000
   37.0210   28.2220   43.8440 C   0  0  0  0  0  0  0  0  0  0  0  0
   36.8610   26.9730   43.1910 C   0  0  0  0  0  0  0  0  0  0  0  0
   37.8680   26.5880   42.3160 C   0  0  0  0  0  0  0  0  0  0  0  0
   38.9360   27.4200   42.1370 N   0  0  0  0  0  0  0  0  0  0  0  0
   39.0530   28.5900   42.7700 C   0  0  0  0  0  0  0  0  0  0  0  0
   38.0920   29.0160   43.6400 N   0  0  0  0  0  0  0  0  0  0  0  0
   36.2810   28.5880   44.5380 H   0  0  0  0  0  0  0  0  0  0  0  0
   35.9940   26.3820   43.3880 H   0  0  0  0  0  0  0  0  0  0  0  0
   37.7230   25.3340   41.6500 N   0  0  0  0  0  0  0  0  0  0  0  0
   36.8670   25.2590   40.6180 C   0  0  0  0  0  0  0  0  0  0  0  0
   36.7310   24.0320   39.9720 C   0  0  0  0  0  0  0  0  0  0  0  0
   37.4640   22.9740   40.4110 C   0  0  0  0  0  0  0  0  0  0  0  0
   37.3180   21.8590   39.7970 O   0  0  0  0  0  0  0  0  0  0  0  0
   38.3230   23.0390   41.4410 N   0  0  0  0  0  0  0  0  0  0  0  0
   38.4220   24.2480   42.0340 C   0  0  0  0  0  0  0  0  0  0  0  0
   39.1930   24.4230   43.0070 O   0  0  0  0  0  0  0  0  0  0  0  0
   36.3150   26.1420   40.3230 H   0  0  0  0  0  0  0  0  0  0  0  0
   36.0260   24.0260   39.1440 H   0  0  0  0  0  0  0  0  0  0  0  0
   38.8800   22.2170   41.7660 H   0  0  0  0  0  0  0  0  0  0  0  0
   40.3190   29.2760   42.3750 C   0  0  0  0  0  0  0  0  0  0  0  0
   40.6080   29.9000   43.2660 H   0  0  0  0  0  0  0  0  0  0  0  0
   41.1610   28.5870   42.2340 H   0  0  0  0  0  0  0  0  0  0  0  0
   40.0610   30.1830   41.1830 C   0  0  0  0  0  0  0  0  0  0  0  0
   40.4570   29.7120   40.2420 H   0  0  0  0  0  0  0  0  0  0  0  0
   40.5930   31.1290   41.3680 H   0  0  0  0  0  0  0  0  0  0  0  0
   38.1290   30.6450   39.7300 C   0  0  0  0  0  0  0  0  0  0  0  0
   38.9680   30.7150   38.8130 O   0  0  0  0  0  0  0  0  0  0  0  0
   38.6420   30.3440   41.0160 N   0  0  0  0  0  0  0  0  0  0  0  0
   38.0100   30.2410   41.8280 H   0  0  0  0  0  0  0  0  0  0  0  0
   36.6660   30.8560   39.5330 C   0  0  1  0  0  3  0  0  0  0  0  0
   36.2290   29.9680   38.3750 C   0  0  0  0  0  3  0  0  0  0  0  0
   37.0690   29.8800   37.6510 H   0  0  0  0  0  0  0  0  0  0  0  0
   36.0280   28.6590   39.1030 C   0  0  0  0  0  3  0  0  0  0  0  0
   35.0800   28.2020   38.7200 H   0  0  0  0  0  0  0  0  0  0  0  0
   36.0300   28.8970   40.4530 O   0  0  0  0  0  0  0  0  0  0  0  0
   35.8340   30.2540   40.6490 C   0  0  0  0  0  3  0  0  0  0  0  0
   34.7850   30.5100   40.4060 H   0  0  0  0  0  0  0  0  0  0  0  0
  1  7  1  0  0  0  0
  2  8  1  0  0  0  0
  2  1  2  0  0  0  0
  3  2  1  0  0  0  0
  4  3  2  0  0  0  0
  4  5  1  0  0  0  0
  5  6  2  0  0  0  0
  6  1  1  0  0  0  0
  9 15  1  0  0  0  0
  9  3  1  0  0  0  0
 10  9  1  0  0  0  0
 11 12  1  0  0  0  0
 11 10  2  0  0  0  0
 12 14  1  0  0  0  0
 13 12  2  0  0  0  0
 14 19  1  0  0  0  0
 14 15  1  0  0  0  0
 15 16  2  0  0  0  0
 17 10  1  0  0  0  0
 18 11  1  0  0  0  0
 20  5  1  0  0  0  0
 20 21  1  0  0  0  0
 22 20  1  0  0  0  0
 23 25  1  0  0  0  0
 23 20  1  0  0  0  0
 24 23  1  0  0  0  0
 26 28  1  0  0  0  0
 27 26  2  0  0  0  0
 28 23  1  0  0  0  0
 28 29  1  0  0  0  0
 30 26  1  1  0  0  0
 30 36  1  0  0  0  0
 31 33  1  0  0  0  0
 31 30  1  0  0  0  0
 32 31  1  0  0  0  0
 33 35  1  0  0  0  0
 34 33  1  0  0  0  0
 35 36  1  0  0  0  0
 37 36  1  0  0  0  0
M  END
>  <minimizedAffinity>
-5.39002562

$$$$

 OpenBabel03242521193D

 37 39  0  0  1  0  0  0  0  0999 V2000
   37.6630   27.8440   43.5270 C   0  0  0  0  0  0  0  0  0  0  0  0
   37.5810   29.1750   43.0430 C   0  0  0  0  0  0  0  0  0  0  0  0
   38.1860   29.4380   41.8220 C   0  0  0  0  0  0  0  0  0  0  0  0
   38.8130   28.4170   41.1660 N   0  0  0  0  0  0  0  0  0  0  0  0
   38.8700   27.1750   41.6530 C   0  0  0  0  0  0  0  0  0  0  0  0
   38.2930   26.8620   42.8500 N   0  0  0  0  0  0  0  0  0  0  0  0
   37.2160   27.5630   44.4690 H   0  0  0  0  0  0  0  0  0  0  0  0
   37.0700   29.9140   43.6200 H   0  0  0  0  0  0  0  0  0  0  0  0
   38.1140   30.7710   41.3200 N   0  0  0  0  0  0  0  0  0  0  0  0
   39.2160   31.5360   41.3920 C   0  0  0  0  0  0  0  0  0  0  0  0
   39.1380   32.8380   40.9000 C   0  0  0  0  0  0  0  0  0  0  0  0
   37.9620   33.2720   40.3730 C   0  0  0  0  0  0  0  0  0  0  0  0
   37.9220   34.4730   39.9290 O   0  0  0  0  0  0  0  0  0  0  0  0
   36.8560   32.5150   40.2960 N   0  0  0  0  0  0  0  0  0  0  0  0
   36.9790   31.2630   40.7840 C   0  0  0  0  0  0  0  0  0  0  0  0
   36.0090   30.4690   40.7640 O   0  0  0  0  0  0  0  0  0  0  0  0
   40.1180   31.1260   41.8250 H   0  0  0  0  0  0  0  0  0  0  0  0
   40.0570   33.4140   40.9830 H   0  0  0  0  0  0  0  0  0  0  0  0
   35.9600   32.8630   39.8870 H   0  0  0  0  0  0  0  0  0  0  0  0
   39.6180   26.2800   40.7210 C   0  0  0  0  0  0  0  0  0  0  0  0
   39.0680   26.3460   39.7400 H   0  0  0  0  0  0  0  0  0  0  0  0
   40.6300   26.6350   40.4950 H   0  0  0  0  0  0  0  0  0  0  0  0
   39.5680   24.8490   41.2330 C   0  0  0  0  0  0  0  0  0  0  0  0
   39.0270   24.8070   42.2170 H   0  0  0  0  0  0  0  0  0  0  0  0
   40.6070   24.5130   41.3740 H   0  0  0  0  0  0  0  0  0  0  0  0
   37.5230   23.6070   40.6550 C   0  0  0  0  0  0  0  0  0  0  0  0
   37.1020   23.9940   41.7600 O   0  0  0  0  0  0  0  0  0  0  0  0
   38.8250   24.0440   40.3020 N   0  0  0  0  0  0  0  0  0  0  0  0
   39.2410   23.7900   39.3900 H   0  0  0  0  0  0  0  0  0  0  0  0
   36.7440   22.7390   39.7270 C   0  0  1  0  0  3  0  0  0  0  0  0
   35.3540   23.3470   39.5920 C   0  0  0  0  0  3  0  0  0  0  0  0
   35.0820   23.8400   40.5510 H   0  0  0  0  0  0  0  0  0  0  0  0
   35.6210   24.3890   38.5290 C   0  0  0  0  0  3  0  0  0  0  0  0
   34.7680   24.3560   37.8040 H   0  0  0  0  0  0  0  0  0  0  0  0
   36.8460   24.1420   37.9650 O   0  0  0  0  0  0  0  0  0  0  0  0
   37.2160   22.8480   38.2890 C   0  0  0  0  0  3  0  0  0  0  0  0
   36.5900   22.1360   37.7180 H   0  0  0  0  0  0  0  0  0  0  0  0
  1  7  1  0  0  0  0
  2  1  1  0  0  0  0
  2  8  1  0  0  0  0
  3  2  2  0  0  0  0
  4  5  2  0  0  0  0
  4  3  1  0  0  0  0
  5  6  1  0  0  0  0
  6  1  2  0  0  0  0
  9 10  1  0  0  0  0
  9  3  1  0  0  0  0
 10 17  1  0  0  0  0
 11 18  1  0  0  0  0
 11 10  2  0  0  0  0
 12 11  1  0  0  0  0
 13 12  2  0  0  0  0
 14 12  1  0  0  0  0
 14 15  1  0  0  0  0
 15  9  1  0  0  0  0
 16 15  2  0  0  0  0
 19 14  1  0  0  0  0
 20 23  1  0  0  0  0
 20  5  1  0  0  0  0
 21 20  1  0  0  0  0
 22 20  1  0  0  0  0
 23 25  1  0  0  0  0
 23 24  1  0  0  0  0
 26 27  2  0  0  0  0
 28 26  1  0  0  0  0
 28 23  1  0  0  0  0
 29 28  1  0  0  0  0
 30 26  1  1  0  0  0
 31 30  1  0  0  0  0
 31 32  1  0  0  0  0
 33 31  1  0  0  0  0
 34 33  1  0  0  0  0
 35 36  1  0  0  0  0
 35 33  1  0  0  0  0
 36 30  1  0  0  0  0
 37 36  1  0  0  0  0
M  END
>  <minimizedAffinity>
-5.38264036

$$$$

 OpenBabel03242521193D

 37 39  0  0  1  0  0  0  0  0999 V2000
   37.6060   30.7600   37.5280 C   0  0  0  0  0  0  0  0  0  0  0  0
   38.6870   31.5330   38.0210 C   0  0  0  0  0  0  0  0  0  0  0  0
   38.7070   31.7870   39.3860 C   0  0  0  0  0  0  0  0  0  0  0  0
   37.7010   31.2850   40.1620 N   0  0  0  0  0  0  0  0  0  0  0  0
   36.6980   30.5600   39.6610 C   0  0  0  0  0  0  0  0  0  0  0  0
   36.6300   30.2820   38.3260 N   0  0  0  0  0  0  0  0  0  0  0  0
   37.5230   30.5210   36.4780 H   0  0  0  0  0  0  0  0  0  0  0  0
   39.4340   31.8870   37.3450 H   0  0  0  0  0  0  0  0  0  0  0  0
   39.7870   32.5640   39.9000 N   0  0  0  0  0  0  0  0  0  0  0  0
   41.0010   31.9920   39.9730 C   0  0  0  0  0  0  0  0  0  0  0  0
   42.0510   32.7570   40.4760 C   0  0  0  0  0  0  0  0  0  0  0  0
   41.8050   34.0370   40.8660 C   0  0  0  0  0  0  0  0  0  0  0  0
   42.7910   34.7140   41.3240 O   0  0  0  0  0  0  0  0  0  0  0  0
   40.5970   34.6170   40.7960 N   0  0  0  0  0  0  0  0  0  0  0  0
   39.6110   33.8380   40.3020 C   0  0  0  0  0  0  0  0  0  0  0  0
   38.4410   34.2770   40.1920 O   0  0  0  0  0  0  0  0  0  0  0  0
   41.1250   30.9690   39.6460 H   0  0  0  0  0  0  0  0  0  0  0  0
   43.0120   32.2470   40.5150 H   0  0  0  0  0  0  0  0  0  0  0  0
   40.4240   35.6020   41.0990 H   0  0  0  0  0  0  0  0  0  0  0  0
   35.7530   30.1530   40.7440 C   0  0  0  0  0  0  0  0  0  0  0  0
   36.0310   30.7860   41.6330 H   0  0  0  0  0  0  0  0  0  0  0  0
   34.7100   30.4150   40.5320 H   0  0  0  0  0  0  0  0  0  0  0  0
   35.9620   28.6860   41.0820 C   0  0  0  0  0  0  0  0  0  0  0  0
   35.5970   28.0360   40.2400 H   0  0  0  0  0  0  0  0  0  0  0  0
   35.3760   28.4700   41.9880 H   0  0  0  0  0  0  0  0  0  0  0  0
   37.9080   28.2910   42.5370 C   0  0  0  0  0  0  0  0  0  0  0  0
   37.0900   28.3590   43.4720 O   0  0  0  0  0  0  0  0  0  0  0  0
   37.3700   28.4360   41.2340 N   0  0  0  0  0  0  0  0  0  0  0  0
   37.9760   28.3670   40.3990 H   0  0  0  0  0  0  0  0  0  0  0  0
   39.3700   28.0710   42.7280 C   0  0  1  0  0  3  0  0  0  0  0  0
   39.5340   26.9290   43.7220 C   0  0  0  0  0  3  0  0  0  0  0  0
   38.6880   26.9550   44.4440 H   0  0  0  0  0  0  0  0  0  0  0  0
   39.3910   25.7440   42.7930 C   0  0  0  0  0  3  0  0  0  0  0  0
   40.1760   24.9980   43.0770 H   0  0  0  0  0  0  0  0  0  0  0  0
   39.4770   26.1840   41.4980 O   0  0  0  0  0  0  0  0  0  0  0  0
   40.0310   27.4520   41.5100 C   0  0  0  0  0  3  0  0  0  0  0  0
   41.1060   27.3780   41.7640 H   0  0  0  0  0  0  0  0  0  0  0  0
  1  2  2  0  0  0  0
  1  6  1  0  0  0  0
  2  3  1  0  0  0  0
  3  9  1  0  0  0  0
  3  4  2  0  0  0  0
  5  4  1  0  0  0  0
  5 20  1  0  0  0  0
  6  5  2  0  0  0  0
  7  1  1  0  0  0  0
  8  2  1  0  0  0  0
  9 10  1  0  0  0  0
  9 15  1  0  0  0  0
 10 11  2  0  0  0  0
 11 18  1  0  0  0  0
 11 12  1  0  0  0  0
 12 13  2  0  0  0  0
 14 12  1  0  0  0  0
 14 19  1  0  0  0  0
 15 14  1  0  0  0  0
 16 15  2  0  0  0  0
 17 10  1  0  0  0  0
 20 23  1  0  0  0  0
 20 21  1  0  0  0  0
 22 20  1  0  0  0  0
 23 28  1  0  0  0  0
 23 25  1  0  0  0  0
 24 23  1  0  0  0  0
 26 27  2  0  0  0  0
 28 26  1  0  0  0  0
 29 28  1  0  0  0  0
 30 26  1  6  0  0  0
 30 31  1  0  0  0  0
 31 32  1  0  0  0  0
 33 34  1  0  0  0  0
 33 31  1  0  0  0  0
 35 36  1  0  0  0  0
 35 33  1  0  0  0  0
 36 37  1  0  0  0  0
 36 30  1  0  0  0  0
M  END
>  <minimizedAffinity>
-5.3648963

$$$$

 OpenBabel03242521193D

 37 39  0  0  1  0  0  0  0  0999 V2000
   37.0930   27.6850   43.7110 C   0  0  0  0  0  0  0  0  0  0  0  0
   37.3550   29.0080   43.2700 C   0  0  0  0  0  0  0  0  0  0  0  0
   37.6060   29.1800   41.9160 C   0  0  0  0  0  0  0  0  0  0  0  0
   37.5860   28.0860   41.0990 N   0  0  0  0  0  0  0  0  0  0  0  0
   37.3360   26.8540   41.5500 C   0  0  0  0  0  0  0  0  0  0  0  0
   37.0840   26.6280   42.8730 N   0  0  0  0  0  0  0  0  0  0  0  0
   36.8890   27.4720   44.7490 H   0  0  0  0  0  0  0  0  0  0  0  0
   37.3500   29.8090   43.9760 H   0  0  0  0  0  0  0  0  0  0  0  0
   37.8710   30.5040   41.4550 N   0  0  0  0  0  0  0  0  0  0  0  0
   39.1170   30.9870   41.5950 C   0  0  0  0  0  0  0  0  0  0  0  0
   39.3690   32.2810   41.1430 C   0  0  0  0  0  0  0  0  0  0  0  0
   38.3530   32.9910   40.5830 C   0  0  0  0  0  0  0  0  0  0  0  0
   38.6150   34.1770   40.1770 O   0  0  0  0  0  0  0  0  0  0  0  0
   37.1050   32.5170   40.4380 N   0  0  0  0  0  0  0  0  0  0  0  0
   36.9090   31.2600   40.8900 C   0  0  0  0  0  0  0  0  0  0  0  0
   35.7820   30.7170   40.8060 O   0  0  0  0  0  0  0  0  0  0  0  0
   39.8770   30.3660   42.0510 H   0  0  0  0  0  0  0  0  0  0  0  0
   40.3920   32.6230   41.2800 H   0  0  0  0  0  0  0  0  0  0  0  0
   36.3350   33.0750   40.0060 H   0  0  0  0  0  0  0  0  0  0  0  0
   37.3830   25.8660   40.4320 C   0  0  0  0  0  0  0  0  0  0  0  0
   36.5160   25.1710   40.6140 H   0  0  0  0  0  0  0  0  0  0  0  0
   37.1800   26.3100   39.4500 H   0  0  0  0  0  0  0  0  0  0  0  0
   38.6840   25.0820   40.4950 C   0  0  0  0  0  0  0  0  0  0  0  0
   39.3380   25.3410   39.6180 H   0  0  0  0  0  0  0  0  0  0  0  0
   38.4260   24.0120   40.4530 H   0  0  0  0  0  0  0  0  0  0  0  0
   40.8160   25.4500   41.6690 C   0  0  0  0  0  0  0  0  0  0  0  0
   41.3450   25.1460   40.5840 O   0  0  0  0  0  0  0  0  0  0  0  0
   39.3990   25.4560   41.6850 N   0  0  0  0  0  0  0  0  0  0  0  0
   38.8790   25.7230   42.5380 H   0  0  0  0  0  0  0  0  0  0  0  0
   41.5850   25.7950   42.8980 C   0  0  1  0  0  3  0  0  0  0  0  0
   42.6160   26.8470   42.5120 C   0  0  0  0  0  3  0  0  0  0  0  0
   42.9380   26.6670   41.4630 H   0  0  0  0  0  0  0  0  0  0  0  0
   41.7670   28.0950   42.5900 C   0  0  0  0  0  3  0  0  0  0  0  0
   42.3760   28.8860   43.0980 H   0  0  0  0  0  0  0  0  0  0  0  0
   40.5940   27.7940   43.2310 O   0  0  0  0  0  0  0  0  0  0  0  0
   40.7640   26.5910   43.8960 C   0  0  0  0  0  3  0  0  0  0  0  0
   41.4290   26.7470   44.7670 H   0  0  0  0  0  0  0  0  0  0  0  0
  1  7  1  0  0  0  0
  2  1  1  0  0  0  0
  2  8  1  0  0  0  0
  3  2  2  0  0  0  0
  4  5  2  0  0  0  0
  4  3  1  0  0  0  0
  5  6  1  0  0  0  0
  6  1  2  0  0  0  0
  9 10  1  0  0  0  0
  9  3  1  0  0  0  0
 10 17  1  0  0  0  0
 11 18  1  0  0  0  0
 11 10  2  0  0  0  0
 12 11  1  0  0  0  0
 13 12  2  0  0  0  0
 14 12  1  0  0  0  0
 14 15  1  0  0  0  0
 15  9  1  0  0  0  0
 16 15  2  0  0  0  0
 19 14  1  0  0  0  0
 20 23  1  0  0  0  0
 20 21  1  0  0  0  0
 20  5  1  0  0  0  0
 22 20  1  0  0  0  0
 23 28  1  0  0  0  0
 24 23  1  0  0  0  0
 25 23  1  0  0  0  0
 26 28  1  0  0  0  0
 27 26  2  0  0  0  0
 28 29  1  0  0  0  0
 30 26  1  6  0  0  0
 30 36  1  0  0  0  0
 31 33  1  0  0  0  0
 31 30  1  0  0  0  0
 32 31  1  0  0  0  0
 33 34  1  0  0  0  0
 33 35  1  0  0  0  0
 35 36  1  0  0  0  0
 36 37  1  0  0  0  0
M  END
>  <minimizedAffinity>
-5.35062408

$$$$

 OpenBabel03242521193D

 37 39  0  0  1  0  0  0  0  0999 V2000
   38.0770   33.7060   39.9310 C   0  0  0  0  0  0  0  0  0  0  0  0
   37.1570   32.7700   39.3930 C   0  0  0  0  0  0  0  0  0  0  0  0
   37.3810   31.4310   39.6830 C   0  0  0  0  0  0  0  0  0  0  0  0
   38.4570   31.0970   40.4560 N   0  0  0  0  0  0  0  0  0  0  0  0
   39.3030   32.0070   40.9450 C   0  0  0  0  0  0  0  0  0  0  0  0
   39.1290   33.3370   40.6900 N   0  0  0  0  0  0  0  0  0  0  0  0
   37.9680   34.7640   39.7490 H   0  0  0  0  0  0  0  0  0  0  0  0
   36.3410   33.1160   38.7980 H   0  0  0  0  0  0  0  0  0  0  0  0
   36.4650   30.4750   39.1500 N   0  0  0  0  0  0  0  0  0  0  0  0
   35.4780   30.0320   39.9450 C   0  0  0  0  0  0  0  0  0  0  0  0
   34.5870   29.0990   39.4190 C   0  0  0  0  0  0  0  0  0  0  0  0
   34.7540   28.6820   38.1350 C   0  0  0  0  0  0  0  0  0  0  0  0
   33.9200   27.8240   37.6790 O   0  0  0  0  0  0  0  0  0  0  0  0
   35.7380   29.1200   37.3320 N   0  0  0  0  0  0  0  0  0  0  0  0
   36.5750   30.0230   37.8860 C   0  0  0  0  0  0  0  0  0  0  0  0
   37.5300   30.4980   37.2270 O   0  0  0  0  0  0  0  0  0  0  0  0
   35.4040   30.4060   40.9580 H   0  0  0  0  0  0  0  0  0  0  0  0
   33.8060   28.7730   40.1030 H   0  0  0  0  0  0  0  0  0  0  0  0
   35.8530   28.7900   36.3480 H   0  0  0  0  0  0  0  0  0  0  0  0
   40.3750   31.3480   41.7480 C   0  0  0  0  0  0  0  0  0  0  0  0
   40.8490   30.6000   41.0530 H   0  0  0  0  0  0  0  0  0  0  0  0
   41.1910   32.0270   42.0230 H   0  0  0  0  0  0  0  0  0  0  0  0
   39.7560   30.6200   42.9310 C   0  0  0  0  0  0  0  0  0  0  0  0
   38.7000   30.9690   43.0940 H   0  0  0  0  0  0  0  0  0  0  0  0
   40.3600   30.8610   43.8190 H   0  0  0  0  0  0  0  0  0  0  0  0
   38.5850   28.4600   43.0790 C   0  0  0  0  0  0  0  0  0  0  0  0
   37.7000   29.1010   43.6760 O   0  0  0  0  0  0  0  0  0  0  0  0
   39.7000   29.2130   42.6360 N   0  0  0  0  0  0  0  0  0  0  0  0
   40.4690   28.7640   42.1100 H   0  0  0  0  0  0  0  0  0  0  0  0
   38.5170   26.9930   42.8240 C   0  0  1  0  0  3  0  0  0  0  0  0
   37.1280   26.6880   42.2790 C   0  0  0  0  0  3  0  0  0  0  0  0
   36.3990   27.3960   42.7330 H   0  0  0  0  0  0  0  0  0  0  0  0
   37.3350   27.0190   40.8180 C   0  0  0  0  0  3  0  0  0  0  0  0
   36.8380   26.2160   40.2170 H   0  0  0  0  0  0  0  0  0  0  0  0
   38.6790   27.1470   40.5800 O   0  0  0  0  0  0  0  0  0  0  0  0
   39.3600   26.5680   41.6360 C   0  0  0  0  0  3  0  0  0  0  0  0
   39.2550   25.4680   41.5790 H   0  0  0  0  0  0  0  0  0  0  0  0
  1  6  1  0  0  0  0
  2  3  1  0  0  0  0
  2  1  2  0  0  0  0
  3  4  2  0  0  0  0
  4  5  1  0  0  0  0
  5 20  1  0  0  0  0
  6  5  2  0  0  0  0
  7  1  1  0  0  0  0
  8  2  1  0  0  0  0
  9  3  1  0  0  0  0
  9 10  1  0  0  0  0
 10 17  1  0  0  0  0
 11 10  2  0  0  0  0
 11 18  1  0  0  0  0
 12 11  1  0  0  0  0
 13 12  2  0  0  0  0
 14 15  1  0  0  0  0
 14 12  1  0  0  0  0
 15  9  1  0  0  0  0
 16 15  2  0  0  0  0
 19 14  1  0  0  0  0
 20 22  1  0  0  0  0
 20 23  1  0  0  0  0
 21 20  1  0  0  0  0
 23 24  1  0  0  0  0
 23 25  1  0  0  0  0
 26 27  2  0  0  0  0
 28 23  1  0  0  0  0
 28 26  1  0  0  0  0
 29 28  1  0  0  0  0
 30 26  1  6  0  0  0
 31 32  1  0  0  0  0
 31 30  1  0  0  0  0
 33 31  1  0  0  0  0
 34 33  1  0  0  0  0
 35 33  1  0  0  0  0
 35 36  1  0  0  0  0
 36 30  1  0  0  0  0
 37 36  1  0  0  0  0
M  END
>  <minimizedAffinity>
-5.24188995

$$$$
