
 OpenBabel03242515283D

 31 33  0  0  1  0  0  0  0  0999 V2000
   44.3890   35.8610   43.8180 C   0  0  0  0  0  0  0  0  0  0  0  0
   44.4140   34.9960   42.7060 C   0  0  0  0  0  0  0  0  0  0  0  0
   44.8600   33.7210   42.9330 C   0  0  0  0  0  0  0  0  0  0  0  0
   45.2490   33.3460   44.1740 N   0  0  0  0  0  0  0  0  0  0  0  0
   45.2000   34.2280   45.2030 C   0  0  0  0  0  0  0  0  0  0  0  0
   44.7700   35.5100   45.0580 N   0  0  0  0  0  0  0  0  0  0  0  0
   44.0430   36.8790   43.6870 H   0  0  0  0  0  0  0  0  0  0  0  0
   44.8810   33.0540   42.0840 H   0  0  0  0  0  0  0  0  0  0  0  0
   43.9640   35.5500   41.4240 C   0  0  0  0  0  0  0  0  0  0  0  0
   44.0270   36.6310   41.4090 H   0  0  0  0  0  0  0  0  0  0  0  0
   44.7180   35.1990   40.6590 H   0  0  0  0  0  0  0  0  0  0  0  0
   42.6670   34.9940   41.1100 N   0  0  0  0  0  0  0  0  0  0  0  0
   41.5800   35.4210   41.7610 C   0  0  0  0  0  0  0  0  0  0  0  0
   40.3660   34.8650   41.4320 C   0  0  0  0  0  0  0  0  0  0  0  0
   40.2520   33.8940   40.4620 C   0  0  0  0  0  0  0  0  0  0  0  0
   39.1380   33.4150   40.1910 O   0  0  0  0  0  0  0  0  0  0  0  0
   41.3830   33.4820   39.8190 N   0  0  0  0  0  0  0  0  0  0  0  0
   42.5710   34.0310   40.1460 C   0  0  0  0  0  0  0  0  0  0  0  0
   43.5830   33.6060   39.5120 O   0  0  0  0  0  0  0  0  0  0  0  0
   41.7060   36.1890   42.5210 H   0  0  0  0  0  0  0  0  0  0  0  0
   39.4930   35.2240   41.9710 H   0  0  0  0  0  0  0  0  0  0  0  0
   41.3170   32.7470   39.0810 H   0  0  0  0  0  0  0  0  0  0  0  0
   45.5940   33.8700   46.4890 O   0  0  0  0  0  0  0  0  0  0  0  0
   45.8780   32.5660   46.9150 C   0  0  2  0  0  0  0  0  0  0  0  0
   44.9550   32.0810   47.9970 C   0  0  0  0  0  0  0  0  0  0  0  0
   44.5120   31.0850   47.7300 H   0  0  0  0  0  0  0  0  0  0  0  0
   45.8790   31.8680   49.1750 C   0  0  0  0  0  0  0  0  0  0  0  0
   45.5910   30.9760   49.7890 H   0  0  0  0  0  0  0  0  0  0  0  0
   47.0790   31.5380   48.5490 O   0  0  0  0  0  0  0  0  0  0  0  0
   47.2470   32.4010   47.4790 C   0  0  0  0  0  0  0  0  0  0  0  0
   47.9190   31.8480   46.7630 H   0  0  0  0  0  0  0  0  0  0  0  0
  1  6  1  0  0  0  0
  2  3  1  0  0  0  0
  2  1  2  0  0  0  0
  3  4  2  0  0  0  0
  4  5  1  0  0  0  0
  5 23  1  0  0  0  0
  6  5  2  0  0  0  0
  7  1  1  0  0  0  0
  8  3  1  0  0  0  0
  9  2  1  0  0  0  0
 10  9  1  0  0  0  0
 11  9  1  0  0  0  0
 12  9  1  0  0  0  0
 12 13  1  0  0  0  0
 13 20  1  0  0  0  0
 14 13  2  0  0  0  0
 14 21  1  0  0  0  0
 15 14  1  0  0  0  0
 16 15  2  0  0  0  0
 17 18  1  0  0  0  0
 17 15  1  0  0  0  0
 18 12  1  0  0  0  0
 19 18  2  0  0  0  0
 22 17  1  0  0  0  0
 24 23  1  1  0  0  0
 24 30  1  0  0  0  0
 24 25  1  0  0  0  0
 25 27  1  0  0  0  0
 26 25  1  0  0  0  0
 27 28  1  0  0  0  0
 29 27  1  0  0  0  0
 30 29  1  0  0  0  0
 31 30  1  0  0  0  0
M  END
>  <minimizedAffinity>
-5.48527145

>  <minimizedRMSD>
0.321513087

$$$$
