
 OpenBabel03252508503D

 27 29  0  0  1  0  0  0  0  0999 V2000
   45.9590   34.1270   41.0530 C   0  0  0  0  0  0  0  0  0  0  0  0
   46.5290   34.7980   42.1280 C   0  0  0  0  0  0  0  0  0  0  0  0
   47.8540   35.2140   41.9700 C   0  0  0  0  0  0  0  0  0  0  0  0
   48.5020   34.9490   40.8050 N   0  0  0  0  0  0  0  0  0  0  0  0
   47.9060   34.2950   39.7900 C   0  0  0  0  0  0  0  0  0  0  0  0
   46.6280   33.8830   39.9160 N   0  0  0  0  0  0  0  0  0  0  0  0
   48.2950   35.7350   42.8100 H   0  0  0  0  0  0  0  0  0  0  0  0
   48.4880   34.1230   38.8960 H   0  0  0  0  0  0  0  0  0  0  0  0
   45.7560   35.0350   43.3340 C   0  0  0  0  0  0  0  0  0  0  0  0
   45.0500   36.2160   43.5460 C   0  0  0  0  0  0  0  0  0  0  0  0
   44.4780   36.0060   44.7920 C   0  0  0  0  0  0  0  0  0  0  0  0
   44.8160   34.7870   45.2930 N   0  0  0  0  0  0  0  0  0  0  0  0
   45.5880   34.2310   44.3830 N   0  0  0  0  0  0  0  0  0  0  0  0
   44.9300   37.1070   42.9480 H   0  0  0  0  0  0  0  0  0  0  0  0
   43.8340   36.7440   45.2990 H   0  0  0  0  0  0  0  0  0  0  0  0
   44.4820   34.4450   46.2230 H   0  0  0  0  0  0  0  0  0  0  0  0
   44.6500   33.7000   41.1700 O   0  0  0  0  0  0  0  0  0  0  0  0
   43.5340   34.3160   40.6790 C   0  0  0  0  0  0  0  0  0  0  0  0
   43.3370   35.5670   40.5390 O   0  0  0  0  0  0  0  0  0  0  0  0
   42.2060   33.8430   40.1490 C   0  0  2  0  0  3  0  0  0  0  0  0
   42.3600   32.9660   38.9600 C   0  0  0  0  0  3  0  0  0  0  0  0
   43.2370   33.1230   38.3370 H   0  0  0  0  0  0  0  0  0  0  0  0
   41.0610   33.2960   38.2090 C   0  0  0  0  0  3  0  0  0  0  0  0
   41.0930   32.9920   37.1650 H   0  0  0  0  0  0  0  0  0  0  0  0
   41.0850   34.7040   38.3180 O   0  0  0  0  0  0  0  0  0  0  0  0
   41.3470   34.9720   39.6450 C   0  0  0  0  0  3  0  0  0  0  0  0
   41.8640   35.9420   39.7800 H   0  0  0  0  0  0  0  0  0  0  0  0
  1 17  1  0  0  0  0
  1  2  1  0  0  0  0
  2  9  1  0  0  0  0
  3  2  2  0  0  0  0
  3  7  1  0  0  0  0
  4  3  1  0  0  0  0
  5  6  1  0  0  0  0
  5  4  2  0  0  0  0
  6  1  2  0  0  0  0
  8  5  1  0  0  0  0
  9 10  1  0  0  0  0
  9 13  2  0  0  0  0
 10 11  2  0  0  0  0
 11 12  1  0  0  0  0
 11 15  1  0  0  0  0
 12 16  1  0  0  0  0
 13 12  1  0  0  0  0
 14 10  1  0  0  0  0
 18 17  1  0  0  0  0
 19 18  2  0  0  0  0
 20 18  1  6  0  0  0
 21 20  1  0  0  0  0
 22 21  1  0  0  0  0
 23 25  1  0  0  0  0
 23 21  1  0  0  0  0
 24 23  1  0  0  0  0
 25 26  1  0  0  0  0
 26 27  1  0  0  0  0
 26 20  1  0  0  0  0
M  END
>  <minimizedAffinity>
-5.15282917

>  <minimizedRMSD>
0.584832072

$$$$
