
 OpenBabel03252509003D

 44 46  0  0  1  0  0  0  0  0999 V2000
   46.8210   34.3910   43.4860 N   0  0  0  0  0  0  0  0  0  0  0  0
   46.5100   34.9980   42.2430 C   0  0  0  0  0  0  0  0  0  0  0  0
   45.0440   35.0110   41.8760 C   0  0  0  0  0  0  0  0  0  0  0  0
   44.1160   35.1380   43.0550 C   0  0  0  0  0  0  0  0  0  0  0  0
   44.8670   35.3090   44.3500 C   0  0  0  0  0  0  0  0  0  0  0  0
   45.8190   34.0580   44.3850 C   0  0  2  0  0  0  0  0  0  0  0  0
   47.0570   34.6220   41.3740 H   0  0  0  0  0  0  0  0  0  0  0  0
   46.8100   36.0770   42.3260 H   0  0  0  0  0  0  0  0  0  0  0  0
   44.8480   35.8890   41.2070 H   0  0  0  0  0  0  0  0  0  0  0  0
   44.8510   34.1180   41.2540 H   0  0  0  0  0  0  0  0  0  0  0  0
   43.5510   34.1850   43.1500 H   0  0  0  0  0  0  0  0  0  0  0  0
   43.4080   35.9860   42.9730 H   0  0  0  0  0  0  0  0  0  0  0  0
   45.4670   36.2210   44.4060 H   0  0  0  0  0  0  0  0  0  0  0  0
   44.1730   35.1630   45.1960 H   0  0  0  0  0  0  0  0  0  0  0  0
   45.1780   33.1780   44.1640 H   0  0  0  0  0  0  0  0  0  0  0  0
   48.0270   33.6180   43.4760 C   0  0  0  0  0  0  0  0  0  0  0  0
   48.4010   33.4420   44.5100 H   0  0  0  0  0  0  0  0  0  0  0  0
   48.8050   34.1680   42.9430 H   0  0  0  0  0  0  0  0  0  0  0  0
   47.7370   32.2810   42.8630 C   0  0  0  0  0  0  0  0  0  0  0  0
   46.6800   32.2240   42.5090 H   0  0  0  0  0  0  0  0  0  0  0  0
   47.8580   31.4640   43.5820 H   0  0  0  0  0  0  0  0  0  0  0  0
   50.8500   31.8370   40.8060 C   0  0  0  0  0  0  0  0  0  0  0  0
   49.9870   32.0330   41.8990 C   0  0  0  0  0  0  0  0  0  0  0  0
   48.6320   32.0720   41.6940 C   0  0  0  0  0  0  0  0  0  0  0  0
   48.1900   31.9200   40.4410 N   0  0  0  0  0  0  0  0  0  0  0  0
   49.0180   31.7310   39.3950 C   0  0  0  0  0  0  0  0  0  0  0  0
   50.3400   31.6890   39.5610 N   0  0  0  0  0  0  0  0  0  0  0  0
   51.9160   31.8110   41.0030 H   0  0  0  0  0  0  0  0  0  0  0  0
   50.3680   32.1550   42.9060 H   0  0  0  0  0  0  0  0  0  0  0  0
   48.4920   31.6290   38.4710 H   0  0  0  0  0  0  0  0  0  0  0  0
   46.2720   34.0900   45.6970 O   0  0  0  0  0  0  0  0  0  0  0  0
   45.5210   31.5620   45.5810 O   0  0  0  0  0  0  0  0  0  0  0  0
   46.0240   32.6420   46.5110 P   0  0  2  0  0  0  0  0  0  0  0  0
   44.7430   32.9280   47.6110 O   0  0  0  0  0  0  0  0  0  0  0  0
   43.8730   32.9000   47.1170 H   0  0  0  0  0  0  0  0  0  0  0  0
   47.3760   32.2100   47.3820 O   0  0  0  0  0  0  0  0  0  0  0  0
   47.4520   30.9060   47.7530 C   0  0  2  0  0  3  0  0  0  0  0  0
   48.0610   30.1390   46.5850 C   0  0  0  0  0  3  0  0  0  0  0  0
   49.1650   30.0910   46.6640 H   0  0  0  0  0  0  0  0  0  0  0  0
   47.3920   28.7920   46.7100 C   0  0  0  0  0  3  0  0  0  0  0  0
   46.9440   28.4830   45.7510 H   0  0  0  0  0  0  0  0  0  0  0  0
   46.4640   28.8590   47.7330 O   0  0  0  0  0  0  0  0  0  0  0  0
   46.1270   30.2050   47.8870 C   0  0  0  0  0  3  0  0  0  0  0  0
   45.4330   30.5530   47.1060 H   0  0  0  0  0  0  0  0  0  0  0  0
  1  6  1  0  0  0  0
  2  8  1  0  0  0  0
  2  1  1  0  0  0  0
  3  2  1  0  0  0  0
  3  4  1  0  0  0  0
  4 11  1  0  0  0  0
  4  5  1  0  0  0  0
  5  6  1  0  0  0  0
  5 13  1  0  0  0  0
  5 14  1  0  0  0  0
  6 15  1  6  0  0  0
  6 31  1  0  0  0  0
  7  2  1  0  0  0  0
  9  3  1  0  0  0  0
 10  3  1  0  0  0  0
 12  4  1  0  0  0  0
 16  1  1  0  0  0  0
 16 17  1  0  0  0  0
 18 16  1  0  0  0  0
 19 16  1  0  0  0  0
 19 21  1  0  0  0  0
 20 19  1  0  0  0  0
 22 28  1  0  0  0  0
 22 23  1  0  0  0  0
 23 29  1  0  0  0  0
 24 23  2  0  0  0  0
 24 19  1  0  0  0  0
 25 24  1  0  0  0  0
 26 27  1  0  0  0  0
 26 25  2  0  0  0  0
 27 22  2  0  0  0  0
 30 26  1  0  0  0  0
 31 33  1  0  0  0  0
 33 32  2  6  0  0  0
 33 36  1  0  0  0  0
 33 34  1  0  0  0  0
 35 34  1  0  0  0  0
 37 36  1  6  0  0  0
 37 43  1  0  0  0  0
 38 39  1  0  0  0  0
 38 40  1  0  0  0  0
 38 37  1  0  0  0  0
 40 42  1  0  0  0  0
 41 40  1  0  0  0  0
 42 43  1  0  0  0  0
 44 43  1  0  0  0  0
M  END
>  <minimizedAffinity>
-4.51610661

>  <minimizedRMSD>
2.09356189

$$$$
