
 OpenBabel03242511173D

 18 19  0  0  1  0  0  0  0  0999 V2000
   40.2860   25.4270   43.5570 C   0  0  0  0  0  0  0  0  0  0  0  0
   39.6580   26.6850   43.6790 C   0  0  0  0  0  0  0  0  0  0  0  0
   38.3820   26.8290   43.0930 C   0  0  0  0  0  0  0  0  0  0  0  0
   37.8610   25.7570   42.4640 N   0  0  0  0  0  0  0  0  0  0  0  0
   38.4770   24.5720   42.3620 C   0  0  0  0  0  0  0  0  0  0  0  0
   39.6840   24.4100   42.9070 N   0  0  0  0  0  0  0  0  0  0  0  0
   41.2630   25.3560   44.0190 H   0  0  0  0  0  0  0  0  0  0  0  0
   40.1250   27.5100   44.1950 H   0  0  0  0  0  0  0  0  0  0  0  0
   37.9320   23.8080   41.8280 H   0  0  0  0  0  0  0  0  0  0  0  0
   37.5270   28.3840   43.2030 S   0  0  0  0  0  0  0  0  0  0  0  0
   37.1870   28.9650   41.5250 C   0  0  1  0  0  3  0  0  0  0  0  0
   35.8050   28.5060   41.1090 C   0  0  0  0  0  3  0  0  0  0  0  0
   35.1530   28.6060   41.9960 H   0  0  0  0  0  0  0  0  0  0  0  0
   35.4300   29.5830   40.1330 C   0  0  0  0  0  3  0  0  0  0  0  0
   35.8390   29.2960   39.1320 H   0  0  0  0  0  0  0  0  0  0  0  0
   36.0630   30.7510   40.5060 O   0  0  0  0  0  0  0  0  0  0  0  0
   37.0070   30.4610   41.4540 C   0  0  0  0  0  3  0  0  0  0  0  0
   36.6460   30.8730   42.4370 H   0  0  0  0  0  0  0  0  0  0  0  0
  1  2  1  0  0  0  0
  1  7  1  0  0  0  0
  2  8  1  0  0  0  0
  3 10  1  0  0  0  0
  3  2  2  0  0  0  0
  4  3  1  0  0  0  0
  5  4  2  0  0  0  0
  5  6  1  0  0  0  0
  6  1  2  0  0  0  0
  9  5  1  0  0  0  0
 11 10  1  1  0  0  0
 12 11  1  0  0  0  0
 12 13  1  0  0  0  0
 14 16  1  0  0  0  0
 14 12  1  0  0  0  0
 15 14  1  0  0  0  0
 16 17  1  0  0  0  0
 17 11  1  0  0  0  0
 17 18  1  0  0  0  0
M  END
>  <minimizedAffinity>
-3.70502639

$$$$

 OpenBabel03242511173D

 18 19  0  0  1  0  0  0  0  0999 V2000
   38.8870   31.3430   41.3110 C   0  0  0  0  0  0  0  0  0  0  0  0
   38.8010   30.1670   42.0870 C   0  0  0  0  0  0  0  0  0  0  0  0
   37.5430   29.5320   42.1580 C   0  0  0  0  0  0  0  0  0  0  0  0
   36.5220   30.0940   41.4810 N   0  0  0  0  0  0  0  0  0  0  0  0
   36.6290   31.2100   40.7490 C   0  0  0  0  0  0  0  0  0  0  0  0
   37.8070   31.8310   40.6660 N   0  0  0  0  0  0  0  0  0  0  0  0
   39.8680   31.8000   41.2800 H   0  0  0  0  0  0  0  0  0  0  0  0
   39.6540   29.7630   42.6100 H   0  0  0  0  0  0  0  0  0  0  0  0
   35.7220   31.5380   40.2650 H   0  0  0  0  0  0  0  0  0  0  0  0
   37.3530   28.0460   43.1180 S   0  0  0  0  0  0  0  0  0  0  0  0
   38.5800   26.8440   42.5500 C   0  0  1  0  0  3  0  0  0  0  0  0
   39.5430   26.5450   43.6800 C   0  0  0  0  0  3  0  0  0  0  0  0
   38.9460   26.5030   44.6100 H   0  0  0  0  0  0  0  0  0  0  0  0
   39.9600   25.1450   43.3330 C   0  0  0  0  0  3  0  0  0  0  0  0
   40.8120   25.2110   42.6090 H   0  0  0  0  0  0  0  0  0  0  0  0
   38.9180   24.5290   42.6730 O   0  0  0  0  0  0  0  0  0  0  0  0
   37.9890   25.4740   42.3290 C   0  0  0  0  0  3  0  0  0  0  0  0
   37.0810   25.3150   42.9740 H   0  0  0  0  0  0  0  0  0  0  0  0
  1  2  1  0  0  0  0
  2  3  2  0  0  0  0
  2  8  1  0  0  0  0
  3 10  1  0  0  0  0
  4  3  1  0  0  0  0
  5  4  2  0  0  0  0
  6  5  1  0  0  0  0
  6  1  2  0  0  0  0
  7  1  1  0  0  0  0
  9  5  1  0  0  0  0
 11 10  1  1  0  0  0
 11 12  1  0  0  0  0
 12 13  1  0  0  0  0
 14 12  1  0  0  0  0
 15 14  1  0  0  0  0
 16 14  1  0  0  0  0
 17 11  1  0  0  0  0
 17 16  1  0  0  0  0
 17 18  1  0  0  0  0
M  END
>  <minimizedAffinity>
-3.62766647

$$$$

 OpenBabel03242511173D

 18 19  0  0  1  0  0  0  0  0999 V2000
   37.3090   26.7190   41.6470 C   0  0  0  0  0  0  0  0  0  0  0  0
   36.8480   27.9130   41.0510 C   0  0  0  0  0  0  0  0  0  0  0  0
   36.9760   29.1000   41.8050 C   0  0  0  0  0  0  0  0  0  0  0  0
   37.5280   29.0040   43.0310 N   0  0  0  0  0  0  0  0  0  0  0  0
   37.9590   27.8580   43.5730 C   0  0  0  0  0  0  0  0  0  0  0  0
   37.8500   26.7220   42.8830 N   0  0  0  0  0  0  0  0  0  0  0  0
   37.1950   25.8310   41.0380 H   0  0  0  0  0  0  0  0  0  0  0  0
   36.4130   27.9290   40.0640 H   0  0  0  0  0  0  0  0  0  0  0  0
   38.3780   27.9410   44.5640 H   0  0  0  0  0  0  0  0  0  0  0  0
   36.4160   30.6450   41.1250 S   0  0  0  0  0  0  0  0  0  0  0  0
   37.8080   31.4300   40.2780 C   0  0  1  0  0  3  0  0  0  0  0  0
   37.4290   32.8470   39.9040 C   0  0  0  0  0  3  0  0  0  0  0  0
   36.8420   33.2560   40.7480 H   0  0  0  0  0  0  0  0  0  0  0  0
   38.7750   33.5120   39.9090 C   0  0  0  0  0  3  0  0  0  0  0  0
   39.2370   33.3570   38.9010 H   0  0  0  0  0  0  0  0  0  0  0  0
   39.5790   32.8630   40.8230 O   0  0  0  0  0  0  0  0  0  0  0  0
   38.9720   31.6960   41.1990 C   0  0  0  0  0  3  0  0  0  0  0  0
   38.6270   31.8140   42.2640 H   0  0  0  0  0  0  0  0  0  0  0  0
  1  6  1  0  0  0  0
  2  1  2  0  0  0  0
  2  3  1  0  0  0  0
  3  4  2  0  0  0  0
  4  5  1  0  0  0  0
  5  9  1  0  0  0  0
  6  5  2  0  0  0  0
  7  1  1  0  0  0  0
  8  2  1  0  0  0  0
 10  3  1  0  0  0  0
 11 10  1  1  0  0  0
 11 17  1  0  0  0  0
 12 14  1  0  0  0  0
 12 11  1  0  0  0  0
 12 13  1  0  0  0  0
 14 16  1  0  0  0  0
 15 14  1  0  0  0  0
 16 17  1  0  0  0  0
 17 18  1  0  0  0  0
M  END
>  <minimizedAffinity>
-3.61945367

$$$$

 OpenBabel03242511173D

 18 19  0  0  1  0  0  0  0  0999 V2000
   38.7460   33.8750   39.9650 C   0  0  0  0  0  0  0  0  0  0  0  0
   37.6770   33.0270   40.3270 C   0  0  0  0  0  0  0  0  0  0  0  0
   37.9940   31.6830   40.6240 C   0  0  0  0  0  0  0  0  0  0  0  0
   39.2870   31.3140   40.5400 N   0  0  0  0  0  0  0  0  0  0  0  0
   40.2840   32.1400   40.1950 C   0  0  0  0  0  0  0  0  0  0  0  0
   40.0120   33.4140   39.9090 N   0  0  0  0  0  0  0  0  0  0  0  0
   38.4630   34.8980   39.7460 H   0  0  0  0  0  0  0  0  0  0  0  0
   36.6590   33.3780   40.3770 H   0  0  0  0  0  0  0  0  0  0  0  0
   41.2680   31.6970   40.1720 H   0  0  0  0  0  0  0  0  0  0  0  0
   36.7020   30.5500   41.0860 S   0  0  0  0  0  0  0  0  0  0  0  0
   37.4720   29.0320   41.6980 C   0  0  1  0  0  3  0  0  0  0  0  0
   37.8700   29.2250   43.1470 C   0  0  0  0  0  3  0  0  0  0  0  0
   37.0620   29.8070   43.6280 H   0  0  0  0  0  0  0  0  0  0  0  0
   37.7910   27.8140   43.6530 C   0  0  0  0  0  3  0  0  0  0  0  0
   38.7720   27.3180   43.4380 H   0  0  0  0  0  0  0  0  0  0  0  0
   36.8320   27.1420   42.9250 O   0  0  0  0  0  0  0  0  0  0  0  0
   36.4870   27.8990   41.8380 C   0  0  0  0  0  3  0  0  0  0  0  0
   35.4440   28.2860   42.0050 H   0  0  0  0  0  0  0  0  0  0  0  0
  1  2  1  0  0  0  0
  2  8  1  0  0  0  0
  2  3  2  0  0  0  0
  3 10  1  0  0  0  0
  4  3  1  0  0  0  0
  5  4  2  0  0  0  0
  6  1  2  0  0  0  0
  6  5  1  0  0  0  0
  7  1  1  0  0  0  0
  9  5  1  0  0  0  0
 11 10  1  1  0  0  0
 11 17  1  0  0  0  0
 11 12  1  0  0  0  0
 12 13  1  0  0  0  0
 12 14  1  0  0  0  0
 15 14  1  0  0  0  0
 16 14  1  0  0  0  0
 17 18  1  0  0  0  0
 17 16  1  0  0  0  0
M  END
>  <minimizedAffinity>
-3.5164957

$$$$

 OpenBabel03242511173D

 18 19  0  0  1  0  0  0  0  0999 V2000
   37.2980   30.6670   37.3560 C   0  0  0  0  0  0  0  0  0  0  0  0
   36.7720   29.6920   38.2300 C   0  0  0  0  0  0  0  0  0  0  0  0
   36.5360   30.0830   39.5660 C   0  0  0  0  0  0  0  0  0  0  0  0
   36.8290   31.3550   39.9040 N   0  0  0  0  0  0  0  0  0  0  0  0
   37.3270   32.2630   39.0540 C   0  0  0  0  0  0  0  0  0  0  0  0
   37.5600   31.9190   37.7870 N   0  0  0  0  0  0  0  0  0  0  0  0
   37.4650   30.3290   36.3400 H   0  0  0  0  0  0  0  0  0  0  0  0
   36.5560   28.6870   37.9030 H   0  0  0  0  0  0  0  0  0  0  0  0
   37.5110   33.2400   39.4730 H   0  0  0  0  0  0  0  0  0  0  0  0
   35.8750   28.9110   40.7290 S   0  0  0  0  0  0  0  0  0  0  0  0
   36.9520   28.8840   42.1810 C   0  0  1  0  0  3  0  0  0  0  0  0
   36.6250   27.6670   43.0210 C   0  0  0  0  0  3  0  0  0  0  0  0
   36.4270   26.8360   42.3190 H   0  0  0  0  0  0  0  0  0  0  0  0
   37.9500   27.4130   43.6800 C   0  0  0  0  0  3  0  0  0  0  0  0
   38.0020   28.0480   44.6000 H   0  0  0  0  0  0  0  0  0  0  0  0
   38.9490   27.8470   42.8340 O   0  0  0  0  0  0  0  0  0  0  0  0
   38.3900   28.5920   41.8310 C   0  0  0  0  0  3  0  0  0  0  0  0
   38.4620   27.9960   40.8790 H   0  0  0  0  0  0  0  0  0  0  0  0
  1  6  2  0  0  0  0
  1  2  1  0  0  0  0
  2  3  2  0  0  0  0
  3  4  1  0  0  0  0
  3 10  1  0  0  0  0
  5  9  1  0  0  0  0
  5  4  2  0  0  0  0
  6  5  1  0  0  0  0
  7  1  1  0  0  0  0
  8  2  1  0  0  0  0
 11 10  1  6  0  0  0
 11 12  1  0  0  0  0
 12 14  1  0  0  0  0
 13 12  1  0  0  0  0
 14 15  1  0  0  0  0
 16 14  1  0  0  0  0
 17 11  1  0  0  0  0
 17 16  1  0  0  0  0
 18 17  1  0  0  0  0
M  END
>  <minimizedAffinity>
-3.41644692

$$$$

 OpenBabel03242511173D

 18 19  0  0  1  0  0  0  0  0999 V2000
   37.3630   26.7880   42.3170 C   0  0  0  0  0  0  0  0  0  0  0  0
   36.6780   27.5280   41.3290 C   0  0  0  0  0  0  0  0  0  0  0  0
   36.6700   28.9330   41.4660 C   0  0  0  0  0  0  0  0  0  0  0  0
   37.3160   29.4600   42.5260 N   0  0  0  0  0  0  0  0  0  0  0  0
   37.9610   28.7350   43.4500 C   0  0  0  0  0  0  0  0  0  0  0  0
   37.9820   27.4050   43.3440 N   0  0  0  0  0  0  0  0  0  0  0  0
   37.3460   25.7140   42.1760 H   0  0  0  0  0  0  0  0  0  0  0  0
   36.1760   27.0520   40.5010 H   0  0  0  0  0  0  0  0  0  0  0  0
   38.4310   29.3000   44.2400 H   0  0  0  0  0  0  0  0  0  0  0  0
   35.8270   29.9370   40.2640 S   0  0  0  0  0  0  0  0  0  0  0  0
   35.4130   28.8930   38.8450 C   0  0  1  0  0  3  0  0  0  0  0  0
   33.9150   28.9240   38.6250 C   0  0  0  0  0  3  0  0  0  0  0  0
   33.5840   29.9630   38.8120 H   0  0  0  0  0  0  0  0  0  0  0  0
   33.8400   28.6710   37.1480 C   0  0  0  0  0  3  0  0  0  0  0  0
   33.8520   27.5630   36.9890 H   0  0  0  0  0  0  0  0  0  0  0  0
   34.9820   29.1740   36.5590 O   0  0  0  0  0  0  0  0  0  0  0  0
   35.8890   29.4760   37.5390 C   0  0  0  0  0  3  0  0  0  0  0  0
   35.9700   30.5970   37.5990 H   0  0  0  0  0  0  0  0  0  0  0  0
  1  6  1  0  0  0  0
  2  3  1  0  0  0  0
  2  1  2  0  0  0  0
  3  4  2  0  0  0  0
  4  5  1  0  0  0  0
  5  9  1  0  0  0  0
  6  5  2  0  0  0  0
  7  1  1  0  0  0  0
  8  2  1  0  0  0  0
 10  3  1  0  0  0  0
 11 10  1  1  0  0  0
 12 13  1  0  0  0  0
 12 11  1  0  0  0  0
 14 12  1  0  0  0  0
 15 14  1  0  0  0  0
 16 14  1  0  0  0  0
 16 17  1  0  0  0  0
 17 18  1  0  0  0  0
 17 11  1  0  0  0  0
M  END
>  <minimizedAffinity>
-3.29334307

$$$$

 OpenBabel03242511173D

 18 19  0  0  1  0  0  0  0  0999 V2000
   40.4360   25.5220   43.4500 C   0  0  0  0  0  0  0  0  0  0  0  0
   39.7170   26.7160   43.6770 C   0  0  0  0  0  0  0  0  0  0  0  0
   38.4110   26.7930   43.1450 C   0  0  0  0  0  0  0  0  0  0  0  0
   37.9520   25.7240   42.4640 N   0  0  0  0  0  0  0  0  0  0  0  0
   38.6540   24.6020   42.2630 C   0  0  0  0  0  0  0  0  0  0  0  0
   39.8900   24.5030   42.7540 N   0  0  0  0  0  0  0  0  0  0  0  0
   41.4320   25.5010   43.8740 H   0  0  0  0  0  0  0  0  0  0  0  0
   40.1370   27.5400   44.2310 H   0  0  0  0  0  0  0  0  0  0  0  0
   38.1510   23.8330   41.6970 H   0  0  0  0  0  0  0  0  0  0  0  0
   37.4420   28.2640   43.3870 S   0  0  0  0  0  0  0  0  0  0  0  0
   37.9740   29.4990   42.1780 C   0  0  1  0  0  3  0  0  0  0  0  0
   39.2430   30.1630   42.6690 C   0  0  0  0  0  3  0  0  0  0  0  0
   39.8610   29.3710   43.1330 H   0  0  0  0  0  0  0  0  0  0  0  0
   39.8840   30.5480   41.3670 C   0  0  0  0  0  3  0  0  0  0  0  0
   39.4690   31.5420   41.0630 H   0  0  0  0  0  0  0  0  0  0  0  0
   39.4980   29.6390   40.4040 O   0  0  0  0  0  0  0  0  0  0  0  0
   38.4720   28.8790   40.8970 C   0  0  0  0  0  3  0  0  0  0  0  0
   38.8670   27.8410   41.0750 H   0  0  0  0  0  0  0  0  0  0  0  0
  1  2  1  0  0  0  0
  1  7  1  0  0  0  0
  2  8  1  0  0  0  0
  3 10  1  0  0  0  0
  3  2  2  0  0  0  0
  4  3  1  0  0  0  0
  5  4  2  0  0  0  0
  5  6  1  0  0  0  0
  6  1  2  0  0  0  0
  9  5  1  0  0  0  0
 11 12  1  0  0  0  0
 11 10  1  1  0  0  0
 12 13  1  0  0  0  0
 14 12  1  0  0  0  0
 15 14  1  0  0  0  0
 16 17  1  0  0  0  0
 16 14  1  0  0  0  0
 17 18  1  0  0  0  0
 17 11  1  0  0  0  0
M  END
>  <minimizedAffinity>
-3.28996134

$$$$

 OpenBabel03242511173D

 18 19  0  0  1  0  0  0  0  0999 V2000
   36.2000   29.7330   37.0830 C   0  0  0  0  0  0  0  0  0  0  0  0
   36.6850   30.0690   38.3660 C   0  0  0  0  0  0  0  0  0  0  0  0
   35.8820   29.7140   39.4710 C   0  0  0  0  0  0  0  0  0  0  0  0
   34.7180   29.0830   39.2200 N   0  0  0  0  0  0  0  0  0  0  0  0
   34.2800   28.7740   37.9920 C   0  0  0  0  0  0  0  0  0  0  0  0
   35.0190   29.0990   36.9300 N   0  0  0  0  0  0  0  0  0  0  0  0
   36.8440   30.0210   36.2610 H   0  0  0  0  0  0  0  0  0  0  0  0
   37.6260   30.5760   38.5070 H   0  0  0  0  0  0  0  0  0  0  0  0
   33.3280   28.2680   37.9510 H   0  0  0  0  0  0  0  0  0  0  0  0
   36.4230   30.1040   41.1200 S   0  0  0  0  0  0  0  0  0  0  0  0
   37.5620   28.8090   41.6650 C   0  0  1  0  0  3  0  0  0  0  0  0
   37.9950   29.0930   43.0880 C   0  0  0  0  0  3  0  0  0  0  0  0
   37.1050   29.4710   43.6250 H   0  0  0  0  0  0  0  0  0  0  0  0
   38.2780   27.7030   43.5810 C   0  0  0  0  0  3  0  0  0  0  0  0
   39.3310   27.4480   43.2990 H   0  0  0  0  0  0  0  0  0  0  0  0
   37.4570   26.8240   42.9060 O   0  0  0  0  0  0  0  0  0  0  0  0
   36.8780   27.4780   41.8510 C   0  0  0  0  0  3  0  0  0  0  0  0
   35.7860   27.6110   42.0870 H   0  0  0  0  0  0  0  0  0  0  0  0
  1  2  1  0  0  0  0
  2  8  1  0  0  0  0
  2  3  2  0  0  0  0
  3 10  1  0  0  0  0
  4  3  1  0  0  0  0
  5  4  2  0  0  0  0
  6  1  2  0  0  0  0
  6  5  1  0  0  0  0
  7  1  1  0  0  0  0
  9  5  1  0  0  0  0
 11 10  1  1  0  0  0
 11 17  1  0  0  0  0
 11 12  1  0  0  0  0
 12 14  1  0  0  0  0
 12 13  1  0  0  0  0
 15 14  1  0  0  0  0
 16 14  1  0  0  0  0
 17 18  1  0  0  0  0
 17 16  1  0  0  0  0
M  END
>  <minimizedAffinity>
-3.22855687

$$$$

 OpenBabel03242511173D

 18 19  0  0  1  0  0  0  0  0999 V2000
   36.2210   30.7840   40.4890 C   0  0  0  0  0  0  0  0  0  0  0  0
   36.4310   29.7730   41.4520 C   0  0  0  0  0  0  0  0  0  0  0  0
   37.6940   29.7340   42.0800 C   0  0  0  0  0  0  0  0  0  0  0  0
   38.6010   30.6630   41.7160 N   0  0  0  0  0  0  0  0  0  0  0  0
   38.3760   31.6140   40.8000 C   0  0  0  0  0  0  0  0  0  0  0  0
   37.1910   31.6720   40.1900 N   0  0  0  0  0  0  0  0  0  0  0  0
   35.2400   30.7810   40.0300 H   0  0  0  0  0  0  0  0  0  0  0  0
   35.6670   29.0540   41.7030 H   0  0  0  0  0  0  0  0  0  0  0  0
   39.2000   32.2860   40.6150 H   0  0  0  0  0  0  0  0  0  0  0  0
   38.0380   28.4890   43.3040 S   0  0  0  0  0  0  0  0  0  0  0  0
   38.4160   26.9420   42.4470 C   0  0  1  0  0  3  0  0  0  0  0  0
   37.1310   26.1760   42.2120 C   0  0  0  0  0  3  0  0  0  0  0  0
   36.3580   26.9190   41.9410 H   0  0  0  0  0  0  0  0  0  0  0  0
   37.4840   25.4010   40.9760 C   0  0  0  0  0  3  0  0  0  0  0  0
   38.0000   24.4610   41.2970 H   0  0  0  0  0  0  0  0  0  0  0  0
   38.3990   26.1330   40.2480 O   0  0  0  0  0  0  0  0  0  0  0  0
   38.8630   27.1620   41.0240 C   0  0  0  0  0  3  0  0  0  0  0  0
   38.4440   28.1200   40.6100 H   0  0  0  0  0  0  0  0  0  0  0  0
  1  2  1  0  0  0  0
  2  8  1  0  0  0  0
  2  3  2  0  0  0  0
  3 10  1  0  0  0  0
  4  3  1  0  0  0  0
  5  4  2  0  0  0  0
  6  1  2  0  0  0  0
  6  5  1  0  0  0  0
  7  1  1  0  0  0  0
  9  5  1  0  0  0  0
 11 10  1  6  0  0  0
 12 11  1  0  0  0  0
 13 12  1  0  0  0  0
 14 15  1  0  0  0  0
 14 12  1  0  0  0  0
 16 14  1  0  0  0  0
 16 17  1  0  0  0  0
 17 11  1  0  0  0  0
 18 17  1  0  0  0  0
M  END
>  <minimizedAffinity>
-3.20046806

$$$$
