
 OpenBabel03242523313D

 21 22  0  0  1  0  0  0  0  0999 V2000
   45.6290   33.3470   46.4200 C   0  0  0  0  0  0  0  0  0  0  0  0
   46.4820   33.7160   47.0390 H   0  0  0  0  0  0  0  0  0  0  0  0
   44.6890   33.2490   47.0000 H   0  0  0  0  0  0  0  0  0  0  0  0
   44.5490   36.1220   44.1820 C   0  0  0  0  0  0  0  0  0  0  0  0
   45.3380   35.8810   43.0480 C   0  0  0  0  0  0  0  0  0  0  0  0
   46.2070   34.8000   43.0690 C   0  0  0  0  0  0  0  0  0  0  0  0
   46.2710   34.0120   44.1660 N   0  0  0  0  0  0  0  0  0  0  0  0
   45.4900   34.2630   45.2660 C   0  0  0  0  0  0  0  0  0  0  0  0
   44.6640   35.3030   45.2310 N   0  0  0  0  0  0  0  0  0  0  0  0
   43.8840   36.9740   44.1290 H   0  0  0  0  0  0  0  0  0  0  0  0
   45.3430   36.4610   42.1420 H   0  0  0  0  0  0  0  0  0  0  0  0
   46.8360   34.5710   42.2220 H   0  0  0  0  0  0  0  0  0  0  0  0
   46.1770   31.7410   45.7490 S   0  0  0  0  0  0  0  0  0  0  0  0
   46.4030   30.5420   47.1180 C   0  0  2  0  0  3  0  0  0  0  0  0
   45.1550   30.4330   47.9270 C   0  0  0  0  0  3  0  0  0  0  0  0
   44.3530   31.0470   47.4460 H   0  0  0  0  0  0  0  0  0  0  0  0
   45.5360   30.9290   49.2950 C   0  0  0  0  0  3  0  0  0  0  0  0
   45.1220   30.2940   50.1100 H   0  0  0  0  0  0  0  0  0  0  0  0
   46.9190   30.8810   49.3780 O   0  0  0  0  0  0  0  0  0  0  0  0
   47.4010   31.0880   48.0890 C   0  0  0  0  0  3  0  0  0  0  0  0
   48.4170   30.6850   48.0030 H   0  0  0  0  0  0  0  0  0  0  0  0
  1  3  1  0  0  0  0
  1  2  1  0  0  0  0
  4  9  1  0  0  0  0
  5  6  1  0  0  0  0
  5  4  2  0  0  0  0
  6  7  2  0  0  0  0
  7  8  1  0  0  0  0
  8  1  1  0  0  0  0
  9  8  2  0  0  0  0
 10  4  1  0  0  0  0
 11  5  1  0  0  0  0
 12  6  1  0  0  0  0
 13  1  1  0  0  0  0
 14 13  1  6  0  0  0
 14 15  1  0  0  0  0
 14 20  1  0  0  0  0
 15 17  1  0  0  0  0
 16 15  1  0  0  0  0
 17 19  1  0  0  0  0
 17 18  1  0  0  0  0
 20 19  1  0  0  0  0
 21 20  1  0  0  0  0
M  END
>  <minimizedAffinity>
-4.056427

>  <minimizedRMSD>
0.791863084

$$$$
