
 OpenBabel03242512043D

 19 20  0  0  1  0  0  0  0  0999 V2000
   47.0500   30.8180   46.3720 C   0  0  0  0  0  0  0  0  0  0  0  0
   48.1100   30.3050   45.9380 O   0  0  0  0  0  0  0  0  0  0  0  0
   45.7790   31.4710   44.3590 C   0  0  0  0  0  0  0  0  0  0  0  0
   46.4120   31.8030   45.5650 C   0  0  0  0  0  0  0  0  0  0  0  0
   46.3920   33.1490   45.9540 C   0  0  0  0  0  0  0  0  0  0  0  0
   45.7690   34.0670   45.1530 N   0  0  0  0  0  0  0  0  0  0  0  0
   45.1740   33.6890   43.9970 C   0  0  0  0  0  0  0  0  0  0  0  0
   45.1810   32.4100   43.6090 N   0  0  0  0  0  0  0  0  0  0  0  0
   45.7530   30.4620   43.9980 H   0  0  0  0  0  0  0  0  0  0  0  0
   46.8800   33.4140   46.8870 H   0  0  0  0  0  0  0  0  0  0  0  0
   44.7410   34.5630   43.5150 H   0  0  0  0  0  0  0  0  0  0  0  0
   46.5010   30.3940   47.6870 C   0  0  1  0  0  3  0  0  0  0  0  0
   46.9970   31.1950   48.8450 C   0  0  0  0  0  3  0  0  0  0  0  0
   47.2920   30.4550   49.6460 H   0  0  0  0  0  0  0  0  0  0  0  0
   45.7540   31.9010   49.3200 C   0  0  0  0  0  3  0  0  0  0  0  0
   45.6600   32.9450   48.9500 H   0  0  0  0  0  0  0  0  0  0  0  0
   44.6780   31.1450   48.9320 O   0  0  0  0  0  0  0  0  0  0  0  0
   45.0110   30.5020   47.7480 C   0  0  0  0  0  3  0  0  0  0  0  0
   44.4770   29.5240   47.7260 H   0  0  0  0  0  0  0  0  0  0  0  0
  2  1  2  0  0  0  0
  3  4  1  0  0  0  0
  4  5  2  0  0  0  0
  4  1  1  0  0  0  0
  5 10  1  0  0  0  0
  6  5  1  0  0  0  0
  7  6  2  0  0  0  0
  8  7  1  0  0  0  0
  8  3  2  0  0  0  0
  9  3  1  0  0  0  0
 11  7  1  0  0  0  0
 12  1  1  6  0  0  0
 12 18  1  0  0  0  0
 12 13  1  0  0  0  0
 13 15  1  0  0  0  0
 13 14  1  0  0  0  0
 16 15  1  0  0  0  0
 17 15  1  0  0  0  0
 18 17  1  0  0  0  0
 19 18  1  0  0  0  0
M  END
>  <minimizedAffinity>
-3.4453454

>  <minimizedRMSD>
6.83985472

$$$$
