
 OpenBabel03242523553D

 44 47  0  0  1  0  0  0  0  0999 V2000
   42.8130   34.5440   38.7300 C   0  0  1  0  0  0  0  0  0  0  0  0
   42.9390   35.1820   40.1080 C   0  0  1  0  0  0  0  0  0  0  0  0
   41.6470   35.3680   40.6300 O   0  0  0  0  0  0  0  0  0  0  0  0
   40.7150   35.7120   39.6480 C   0  0  0  0  0  0  0  0  0  0  0  0
   40.4320   34.5580   38.7070 C   0  0  2  0  0  0  0  0  0  0  0  0
   41.6630   33.5940   38.8130 C   0  0  1  0  0  0  0  0  0  0  0  0
   43.7680   34.0550   38.4440 H   0  0  0  0  0  0  0  0  0  0  0  0
   43.5120   36.1150   40.1010 H   0  0  0  0  0  0  0  0  0  0  0  0
   40.9860   36.6490   39.1320 H   0  0  0  0  0  0  0  0  0  0  0  0
   39.7810   35.9110   40.1870 H   0  0  0  0  0  0  0  0  0  0  0  0
   39.5240   34.0000   38.9860 H   0  0  0  0  0  0  0  0  0  0  0  0
   41.4610   33.2800   39.8890 H   0  0  0  0  0  0  0  0  0  0  0  0
   42.5790   35.5200   37.7490 O   0  0  0  0  0  0  0  0  0  0  0  0
   43.4610   35.9540   37.6070 H   0  0  0  0  0  0  0  0  0  0  0  0
   40.4390   35.0110   37.3950 O   0  0  0  0  0  0  0  0  0  0  0  0
   40.7640   34.3740   36.7380 H   0  0  0  0  0  0  0  0  0  0  0  0
   43.4930   34.1890   40.9260 O   0  0  0  0  0  0  0  0  0  0  0  0
   44.5980   34.3330   41.6690 C   0  0  0  0  0  0  0  0  0  0  0  0
   45.8650   34.4310   41.0740 C   0  0  0  0  0  0  0  0  0  0  0  0
   46.9670   34.5800   41.9020 C   0  0  0  0  0  0  0  0  0  0  0  0
   46.7900   34.6270   43.2720 N   0  0  0  0  0  0  0  0  0  0  0  0
   45.5520   34.5280   43.8080 C   0  0  0  0  0  0  0  0  0  0  0  0
   44.4610   34.3820   43.0150 N   0  0  0  0  0  0  0  0  0  0  0  0
   46.0010   34.3940   40.0020 H   0  0  0  0  0  0  0  0  0  0  0  0
   45.4950   34.5720   44.8840 H   0  0  0  0  0  0  0  0  0  0  0  0
   48.3530   34.6760   41.3360 C   0  0  0  0  0  0  0  0  0  0  0  0
   49.0690   36.0150   41.5090 C   0  0  0  0  0  0  0  0  0  0  0  0
   49.4930   34.7040   42.1960 C   0  0  0  0  0  0  0  0  0  0  0  0
   48.3870   34.2780   40.3030 H   0  0  0  0  0  0  0  0  0  0  0  0
   49.6600   36.3640   40.6650 H   0  0  0  0  0  0  0  0  0  0  0  0
   48.5510   36.7190   42.1740 H   0  0  0  0  0  0  0  0  0  0  0  0
   49.3590   34.6490   43.3080 H   0  0  0  0  0  0  0  0  0  0  0  0
   50.4920   34.3540   41.8770 H   0  0  0  0  0  0  0  0  0  0  0  0
   41.5520   32.6830   37.8300 O   0  0  0  0  0  0  0  0  0  0  0  0
   40.9730   31.4600   37.8590 C   0  0  0  0  0  0  0  0  0  0  0  0
   39.7130   31.2980   37.5350 O   0  0  0  0  0  0  0  0  0  0  0  0
   41.2130   30.0130   38.1470 C   0  0  2  0  0  3  0  0  0  0  0  0
   42.7330   29.8160   38.1820 C   0  0  0  0  0  3  0  0  0  0  0  0
   43.1810   30.0680   39.1450 H   0  0  0  0  0  0  0  0  0  0  0  0
   42.8230   28.3260   37.8940 C   0  0  0  0  0  3  0  0  0  0  0  0
   43.7570   28.0490   37.3640 H   0  0  0  0  0  0  0  0  0  0  0  0
   41.7540   28.0220   37.0670 O   0  0  0  0  0  0  0  0  0  0  0  0
   40.8300   29.0470   37.1040 C   0  0  0  0  0  3  0  0  0  0  0  0
   39.8060   28.6360   37.2130 H   0  0  0  0  0  0  0  0  0  0  0  0
  1  7  1  6  0  0  0
  1  6  1  0  0  0  0
  1  2  1  0  0  0  0
  2  8  1  6  0  0  0
  2  3  1  0  0  0  0
  2 17  1  0  0  0  0
  4 10  1  0  0  0  0
  4  3  1  0  0  0  0
  5  6  1  0  0  0  0
  5 11  1  1  0  0  0
  5  4  1  0  0  0  0
  6 12  1  1  0  0  0
  9  4  1  0  0  0  0
 13  1  1  0  0  0  0
 14 13  1  0  0  0  0
 15  5  1  0  0  0  0
 16 15  1  0  0  0  0
 17 18  1  0  0  0  0
 18 23  1  0  0  0  0
 19 18  2  0  0  0  0
 19 20  1  0  0  0  0
 20 21  2  0  0  0  0
 21 22  1  0  0  0  0
 22 25  1  0  0  0  0
 23 22  2  0  0  0  0
 24 19  1  0  0  0  0
 26 27  1  0  0  0  0
 26 20  1  0  0  0  0
 26 28  1  0  0  0  0
 27 31  1  0  0  0  0
 27 28  1  0  0  0  0
 28 32  1  0  0  0  0
 29 26  1  0  0  0  0
 30 27  1  0  0  0  0
 33 28  1  0  0  0  0
 34 35  1  0  0  0  0
 34  6  1  0  0  0  0
 36 35  2  0  0  0  0
 37 35  1  6  0  0  0
 37 38  1  0  0  0  0
 38 39  1  0  0  0  0
 40 38  1  0  0  0  0
 41 40  1  0  0  0  0
 42 43  1  0  0  0  0
 42 40  1  0  0  0  0
 43 44  1  0  0  0  0
 43 37  1  0  0  0  0
M  END
>  <minimizedAffinity>
-5.5990181

>  <minimizedRMSD>
0.148091137

$$$$
