
 OpenBabel03252508523D

 27 29  0  0  1  0  0  0  0  0999 V2000
   36.5240   30.3160   39.2070 C   0  0  0  0  0  0  0  0  0  0  0  0
   37.3550   31.2780   38.6450 C   0  0  0  0  0  0  0  0  0  0  0  0
   37.5700   31.1860   37.2660 C   0  0  0  0  0  0  0  0  0  0  0  0
   36.9720   30.1880   36.5640 N   0  0  0  0  0  0  0  0  0  0  0  0
   36.1730   29.2790   37.1550 C   0  0  0  0  0  0  0  0  0  0  0  0
   35.9490   29.3440   38.4830 N   0  0  0  0  0  0  0  0  0  0  0  0
   38.2170   31.9360   36.8320 H   0  0  0  0  0  0  0  0  0  0  0  0
   35.7350   28.5160   36.5270 H   0  0  0  0  0  0  0  0  0  0  0  0
   37.9490   32.3070   39.4780 C   0  0  0  0  0  0  0  0  0  0  0  0
   39.2060   32.1610   40.0600 C   0  0  0  0  0  0  0  0  0  0  0  0
   39.3600   33.3550   40.7490 C   0  0  0  0  0  0  0  0  0  0  0  0
   38.2740   34.1600   40.5930 N   0  0  0  0  0  0  0  0  0  0  0  0
   37.4450   33.4920   39.8200 N   0  0  0  0  0  0  0  0  0  0  0  0
   39.9300   31.3610   40.0290 H   0  0  0  0  0  0  0  0  0  0  0  0
   40.2550   33.6040   41.3420 H   0  0  0  0  0  0  0  0  0  0  0  0
   38.2010   35.1040   41.0370 H   0  0  0  0  0  0  0  0  0  0  0  0
   36.2870   30.3740   40.5670 O   0  0  0  0  0  0  0  0  0  0  0  0
   36.6660   29.4610   41.5100 C   0  0  0  0  0  0  0  0  0  0  0  0
   36.0990   28.3550   41.7900 O   0  0  0  0  0  0  0  0  0  0  0  0
   37.7860   29.3730   42.5130 C   0  0  2  0  0  3  0  0  0  0  0  0
   39.0330   28.8370   41.9100 C   0  0  0  0  0  3  0  0  0  0  0  0
   38.9280   28.1660   41.0620 H   0  0  0  0  0  0  0  0  0  0  0  0
   39.6420   28.1280   43.1280 C   0  0  0  0  0  3  0  0  0  0  0  0
   40.4160   27.4130   42.8540 H   0  0  0  0  0  0  0  0  0  0  0  0
   38.4910   27.4560   43.5990 O   0  0  0  0  0  0  0  0  0  0  0  0
   37.4900   28.4040   43.6280 C   0  0  0  0  0  3  0  0  0  0  0  0
   36.4870   27.9540   43.4950 H   0  0  0  0  0  0  0  0  0  0  0  0
  1 17  1  0  0  0  0
  2  1  1  0  0  0  0
  2  9  1  0  0  0  0
  3  2  2  0  0  0  0
  4  5  2  0  0  0  0
  4  3  1  0  0  0  0
  5  6  1  0  0  0  0
  6  1  2  0  0  0  0
  7  3  1  0  0  0  0
  8  5  1  0  0  0  0
  9 13  2  0  0  0  0
  9 10  1  0  0  0  0
 10 11  2  0  0  0  0
 11 15  1  0  0  0  0
 12 11  1  0  0  0  0
 12 16  1  0  0  0  0
 13 12  1  0  0  0  0
 14 10  1  0  0  0  0
 17 18  1  0  0  0  0
 18 19  2  0  0  0  0
 20 18  1  6  0  0  0
 20 26  1  0  0  0  0
 21 20  1  0  0  0  0
 21 23  1  0  0  0  0
 22 21  1  0  0  0  0
 23 25  1  0  0  0  0
 24 23  1  0  0  0  0
 25 26  1  0  0  0  0
 27 26  1  0  0  0  0
M  END
>  <minimizedAffinity>
-4.90442753

$$$$

 OpenBabel03252508523D

 27 29  0  0  1  0  0  0  0  0999 V2000
   38.9220   31.6160   40.5640 C   0  0  0  0  0  0  0  0  0  0  0  0
   37.6210   31.9140   40.1770 C   0  0  0  0  0  0  0  0  0  0  0  0
   37.3590   33.2470   39.8490 C   0  0  0  0  0  0  0  0  0  0  0  0
   38.3620   34.1610   39.9220 N   0  0  0  0  0  0  0  0  0  0  0  0
   39.6090   33.8230   40.3030 C   0  0  0  0  0  0  0  0  0  0  0  0
   39.8890   32.5430   40.6250 N   0  0  0  0  0  0  0  0  0  0  0  0
   36.3450   33.4760   39.5490 H   0  0  0  0  0  0  0  0  0  0  0  0
   40.3520   34.6080   40.3360 H   0  0  0  0  0  0  0  0  0  0  0  0
   36.6160   30.8680   40.1290 C   0  0  0  0  0  0  0  0  0  0  0  0
   36.3750   30.1180   38.9800 C   0  0  0  0  0  0  0  0  0  0  0  0
   35.3620   29.2620   39.3850 C   0  0  0  0  0  0  0  0  0  0  0  0
   35.0180   29.4820   40.6840 N   0  0  0  0  0  0  0  0  0  0  0  0
   35.7970   30.4570   41.0970 N   0  0  0  0  0  0  0  0  0  0  0  0
   36.8180   30.1380   37.9960 H   0  0  0  0  0  0  0  0  0  0  0  0
   34.9040   28.5050   38.7270 H   0  0  0  0  0  0  0  0  0  0  0  0
   34.2720   28.9350   41.1710 H   0  0  0  0  0  0  0  0  0  0  0  0
   39.2200   30.3080   40.8960 O   0  0  0  0  0  0  0  0  0  0  0  0
   39.0970   29.7200   42.1230 C   0  0  0  0  0  0  0  0  0  0  0  0
   39.3670   30.2310   43.2580 O   0  0  0  0  0  0  0  0  0  0  0  0
   38.6420   28.3700   42.6120 C   0  0  2  0  0  3  0  0  0  0  0  0
   38.1600   27.5080   41.5030 C   0  0  0  0  0  3  0  0  0  0  0  0
   37.7450   28.0050   40.6310 H   0  0  0  0  0  0  0  0  0  0  0  0
   37.1030   26.6760   42.2450 C   0  0  0  0  0  3  0  0  0  0  0  0
   36.4110   26.1780   41.5680 H   0  0  0  0  0  0  0  0  0  0  0  0
   36.4500   27.7120   42.9480 O   0  0  0  0  0  0  0  0  0  0  0  0
   37.4520   28.4580   43.5320 C   0  0  0  0  0  3  0  0  0  0  0  0
   37.1530   29.5140   43.6800 H   0  0  0  0  0  0  0  0  0  0  0  0
  1  6  1  0  0  0  0
  1 17  1  0  0  0  0
  2  1  2  0  0  0  0
  3  4  2  0  0  0  0
  3  2  1  0  0  0  0
  4  5  1  0  0  0  0
  5  8  1  0  0  0  0
  5  6  2  0  0  0  0
  7  3  1  0  0  0  0
  9  2  1  0  0  0  0
  9 13  2  0  0  0  0
 10 11  2  0  0  0  0
 10  9  1  0  0  0  0
 11 12  1  0  0  0  0
 12 13  1  0  0  0  0
 12 16  1  0  0  0  0
 14 10  1  0  0  0  0
 15 11  1  0  0  0  0
 17 18  1  0  0  0  0
 18 19  2  0  0  0  0
 20 18  1  6  0  0  0
 20 26  1  0  0  0  0
 21 23  1  0  0  0  0
 21 20  1  0  0  0  0
 22 21  1  0  0  0  0
 23 25  1  0  0  0  0
 24 23  1  0  0  0  0
 25 26  1  0  0  0  0
 26 27  1  0  0  0  0
M  END
>  <minimizedAffinity>
-4.85876894

$$$$

 OpenBabel03252508523D

 27 29  0  0  1  0  0  0  0  0999 V2000
   35.9150   27.2920   38.5730 C   0  0  0  0  0  0  0  0  0  0  0  0
   35.1820   28.4710   38.6330 C   0  0  0  0  0  0  0  0  0  0  0  0
   34.0270   28.5260   37.8470 C   0  0  0  0  0  0  0  0  0  0  0  0
   33.6870   27.4530   37.0850 N   0  0  0  0  0  0  0  0  0  0  0  0
   34.4310   26.3310   37.0610 C   0  0  0  0  0  0  0  0  0  0  0  0
   35.5510   26.2510   37.8090 N   0  0  0  0  0  0  0  0  0  0  0  0
   33.4590   29.4450   37.8960 H   0  0  0  0  0  0  0  0  0  0  0  0
   34.0940   25.5210   36.4290 H   0  0  0  0  0  0  0  0  0  0  0  0
   35.6260   29.5640   39.4780 C   0  0  0  0  0  0  0  0  0  0  0  0
   36.5530   30.5100   39.0470 C   0  0  0  0  0  0  0  0  0  0  0  0
   36.6740   31.3400   40.1530 C   0  0  0  0  0  0  0  0  0  0  0  0
   35.8770   30.9220   41.1740 N   0  0  0  0  0  0  0  0  0  0  0  0
   35.2610   29.8490   40.7280 N   0  0  0  0  0  0  0  0  0  0  0  0
   37.0830   30.6340   38.1150 H   0  0  0  0  0  0  0  0  0  0  0  0
   37.3350   32.2210   40.1830 H   0  0  0  0  0  0  0  0  0  0  0  0
   35.8290   31.4180   42.0930 H   0  0  0  0  0  0  0  0  0  0  0  0
   37.0640   27.1990   39.3350 O   0  0  0  0  0  0  0  0  0  0  0  0
   37.1940   26.6140   40.5630 C   0  0  0  0  0  0  0  0  0  0  0  0
   36.8290   25.4420   40.9060 O   0  0  0  0  0  0  0  0  0  0  0  0
   37.7590   27.0450   41.8900 C   0  0  2  0  0  3  0  0  0  0  0  0
   36.6920   27.4110   42.8570 C   0  0  0  0  0  3  0  0  0  0  0  0
   35.7570   27.7840   42.4490 H   0  0  0  0  0  0  0  0  0  0  0  0
   37.4250   28.4820   43.6790 C   0  0  0  0  0  3  0  0  0  0  0  0
   36.7450   29.1030   44.2590 H   0  0  0  0  0  0  0  0  0  0  0  0
   37.9990   29.2260   42.6240 O   0  0  0  0  0  0  0  0  0  0  0  0
   38.5870   28.3000   41.7890 C   0  0  0  0  0  3  0  0  0  0  0  0
   38.6290   28.6520   40.7390 H   0  0  0  0  0  0  0  0  0  0  0  0
  1  2  1  0  0  0  0
  1 17  1  0  0  0  0
  2  9  1  0  0  0  0
  3  7  1  0  0  0  0
  3  2  2  0  0  0  0
  4  3  1  0  0  0  0
  5  4  2  0  0  0  0
  5  6  1  0  0  0  0
  6  1  2  0  0  0  0
  8  5  1  0  0  0  0
  9 13  2  0  0  0  0
 10  9  1  0  0  0  0
 10 11  2  0  0  0  0
 11 15  1  0  0  0  0
 11 12  1  0  0  0  0
 12 16  1  0  0  0  0
 13 12  1  0  0  0  0
 14 10  1  0  0  0  0
 17 18  1  0  0  0  0
 18 19  2  0  0  0  0
 20 18  1  6  0  0  0
 20 21  1  0  0  0  0
 21 23  1  0  0  0  0
 22 21  1  0  0  0  0
 23 24  1  0  0  0  0
 25 23  1  0  0  0  0
 26 20  1  0  0  0  0
 26 25  1  0  0  0  0
 27 26  1  0  0  0  0
M  END
>  <minimizedAffinity>
-4.81780195

$$$$

 OpenBabel03252508523D

 27 29  0  0  1  0  0  0  0  0999 V2000
   37.0330   28.2580   39.7440 C   0  0  0  0  0  0  0  0  0  0  0  0
   36.3870   29.2980   39.0860 C   0  0  0  0  0  0  0  0  0  0  0  0
   35.4480   28.9320   38.1170 C   0  0  0  0  0  0  0  0  0  0  0  0
   35.2180   27.6150   37.8750 N   0  0  0  0  0  0  0  0  0  0  0  0
   35.8690   26.6420   38.5410 C   0  0  0  0  0  0  0  0  0  0  0  0
   36.7820   26.9670   39.4800 N   0  0  0  0  0  0  0  0  0  0  0  0
   34.9470   29.7440   37.6060 H   0  0  0  0  0  0  0  0  0  0  0  0
   35.6300   25.6180   38.2900 H   0  0  0  0  0  0  0  0  0  0  0  0
   36.7000   30.6760   39.4150 C   0  0  0  0  0  0  0  0  0  0  0  0
   37.4280   31.4990   38.5590 C   0  0  0  0  0  0  0  0  0  0  0  0
   37.4840   32.6930   39.2630 C   0  0  0  0  0  0  0  0  0  0  0  0
   36.8380   32.5940   40.4570 N   0  0  0  0  0  0  0  0  0  0  0  0
   36.3790   31.3620   40.5110 N   0  0  0  0  0  0  0  0  0  0  0  0
   37.8660   31.3280   37.5870 H   0  0  0  0  0  0  0  0  0  0  0  0
   37.9920   33.5970   38.8890 H   0  0  0  0  0  0  0  0  0  0  0  0
   36.7700   33.3900   41.1310 H   0  0  0  0  0  0  0  0  0  0  0  0
   37.9690   28.5790   40.7090 O   0  0  0  0  0  0  0  0  0  0  0  0
   37.8500   28.4170   42.0600 C   0  0  0  0  0  0  0  0  0  0  0  0
   37.2570   29.1870   42.8840 O   0  0  0  0  0  0  0  0  0  0  0  0
   38.3130   27.3810   43.0510 C   0  0  2  0  0  3  0  0  0  0  0  0
   39.7530   27.5320   43.3830 C   0  0  0  0  0  3  0  0  0  0  0  0
   40.3950   27.9730   42.6260 H   0  0  0  0  0  0  0  0  0  0  0  0
   40.1220   26.0690   43.6660 C   0  0  0  0  0  3  0  0  0  0  0  0
   41.1970   25.8960   43.6440 H   0  0  0  0  0  0  0  0  0  0  0  0
   39.4990   25.4580   42.5540 O   0  0  0  0  0  0  0  0  0  0  0  0
   38.2240   25.9780   42.5080 C   0  0  0  0  0  3  0  0  0  0  0  0
   37.8140   25.9870   41.4780 H   0  0  0  0  0  0  0  0  0  0  0  0
  1 17  1  0  0  0  0
  2  9  1  0  0  0  0
  2  1  2  0  0  0  0
  3  2  1  0  0  0  0
  4  3  2  0  0  0  0
  4  5  1  0  0  0  0
  5  6  2  0  0  0  0
  6  1  1  0  0  0  0
  7  3  1  0  0  0  0
  8  5  1  0  0  0  0
  9 13  2  0  0  0  0
 10 11  2  0  0  0  0
 10  9  1  0  0  0  0
 11 12  1  0  0  0  0
 12 13  1  0  0  0  0
 12 16  1  0  0  0  0
 14 10  1  0  0  0  0
 15 11  1  0  0  0  0
 17 18  1  0  0  0  0
 18 19  2  0  0  0  0
 20 18  1  6  0  0  0
 20 21  1  0  0  0  0
 21 23  1  0  0  0  0
 22 21  1  0  0  0  0
 24 23  1  0  0  0  0
 25 23  1  0  0  0  0
 26 25  1  0  0  0  0
 26 20  1  0  0  0  0
 27 26  1  0  0  0  0
M  END
>  <minimizedAffinity>
-4.76325607

$$$$

 OpenBabel03252508523D

 27 29  0  0  1  0  0  0  0  0999 V2000
   36.9310   25.8390   40.4890 C   0  0  0  0  0  0  0  0  0  0  0  0
   37.5720   25.9280   41.7190 C   0  0  0  0  0  0  0  0  0  0  0  0
   38.2080   24.7690   42.1740 C   0  0  0  0  0  0  0  0  0  0  0  0
   38.1690   23.6440   41.4130 N   0  0  0  0  0  0  0  0  0  0  0  0
   37.5340   23.6080   40.2260 C   0  0  0  0  0  0  0  0  0  0  0  0
   36.9120   24.7110   39.7630 N   0  0  0  0  0  0  0  0  0  0  0  0
   38.7070   24.8420   43.1320 H   0  0  0  0  0  0  0  0  0  0  0  0
   37.5480   22.6750   39.6800 H   0  0  0  0  0  0  0  0  0  0  0  0
   37.5600   27.1760   42.4600 C   0  0  0  0  0  0  0  0  0  0  0  0
   38.6890   27.9810   42.5830 C   0  0  0  0  0  0  0  0  0  0  0  0
   38.2250   29.0380   43.3520 C   0  0  0  0  0  0  0  0  0  0  0  0
   36.9110   28.8790   43.6690 N   0  0  0  0  0  0  0  0  0  0  0  0
   36.5460   27.7440   43.1120 N   0  0  0  0  0  0  0  0  0  0  0  0
   39.6970   27.8780   42.2080 H   0  0  0  0  0  0  0  0  0  0  0  0
   38.8540   29.8900   43.6590 H   0  0  0  0  0  0  0  0  0  0  0  0
   36.3800   29.5720   44.2440 H   0  0  0  0  0  0  0  0  0  0  0  0
   36.2900   26.9640   40.0050 O   0  0  0  0  0  0  0  0  0  0  0  0
   36.8640   28.0360   39.3830 C   0  0  0  0  0  0  0  0  0  0  0  0
   37.8400   28.0270   38.5640 O   0  0  0  0  0  0  0  0  0  0  0  0
   36.6230   29.5230   39.3930 C   0  0  2  0  0  3  0  0  0  0  0  0
   37.8200   30.2780   39.8430 C   0  0  0  0  0  3  0  0  0  0  0  0
   38.5030   29.7720   40.5210 H   0  0  0  0  0  0  0  0  0  0  0  0
   37.1460   31.4880   40.5060 C   0  0  0  0  0  3  0  0  0  0  0  0
   37.8190   32.0320   41.1660 H   0  0  0  0  0  0  0  0  0  0  0  0
   36.1550   30.8140   41.2550 O   0  0  0  0  0  0  0  0  0  0  0  0
   35.5590   29.9320   40.3780 C   0  0  0  0  0  3  0  0  0  0  0  0
   35.1490   29.0430   40.8960 H   0  0  0  0  0  0  0  0  0  0  0  0
  1  2  1  0  0  0  0
  2  3  2  0  0  0  0
  2  9  1  0  0  0  0
  3  7  1  0  0  0  0
  4  3  1  0  0  0  0
  5  4  2  0  0  0  0
  6  5  1  0  0  0  0
  6  1  2  0  0  0  0
  8  5  1  0  0  0  0
  9 10  1  0  0  0  0
  9 13  2  0  0  0  0
 10 11  2  0  0  0  0
 11 15  1  0  0  0  0
 11 12  1  0  0  0  0
 12 16  1  0  0  0  0
 13 12  1  0  0  0  0
 14 10  1  0  0  0  0
 17  1  1  0  0  0  0
 18 17  1  0  0  0  0
 19 18  2  0  0  0  0
 20 18  1  1  0  0  0
 20 21  1  0  0  0  0
 20 26  1  0  0  0  0
 21 23  1  0  0  0  0
 21 22  1  0  0  0  0
 23 24  1  0  0  0  0
 23 25  1  0  0  0  0
 26 27  1  0  0  0  0
 26 25  1  0  0  0  0
M  END
>  <minimizedAffinity>
-4.75601912

$$$$

 OpenBabel03252508523D

 27 29  0  0  1  0  0  0  0  0999 V2000
   39.4040   28.4460   41.4920 C   0  0  0  0  0  0  0  0  0  0  0  0
   38.1630   28.3340   42.1090 C   0  0  0  0  0  0  0  0  0  0  0  0
   38.1030   27.5190   43.2420 C   0  0  0  0  0  0  0  0  0  0  0  0
   39.2300   26.8930   43.6740 N   0  0  0  0  0  0  0  0  0  0  0  0
   40.4110   27.0340   43.0420 C   0  0  0  0  0  0  0  0  0  0  0  0
   40.4960   27.8140   41.9450 N   0  0  0  0  0  0  0  0  0  0  0  0
   37.1360   27.4340   43.7200 H   0  0  0  0  0  0  0  0  0  0  0  0
   41.2610   26.5030   43.4470 H   0  0  0  0  0  0  0  0  0  0  0  0
   37.0150   29.0420   41.5730 C   0  0  0  0  0  0  0  0  0  0  0  0
   36.1450   28.4630   40.6530 C   0  0  0  0  0  0  0  0  0  0  0  0
   35.2250   29.4760   40.4270 C   0  0  0  0  0  0  0  0  0  0  0  0
   35.5210   30.5840   41.1590 N   0  0  0  0  0  0  0  0  0  0  0  0
   36.6070   30.2830   41.8360 N   0  0  0  0  0  0  0  0  0  0  0  0
   36.1250   27.4880   40.1890 H   0  0  0  0  0  0  0  0  0  0  0  0
   34.3680   29.3790   39.7400 H   0  0  0  0  0  0  0  0  0  0  0  0
   34.9430   31.4550   41.1250 H   0  0  0  0  0  0  0  0  0  0  0  0
   39.5030   29.2440   40.3680 O   0  0  0  0  0  0  0  0  0  0  0  0
   39.8240   30.5700   40.3230 C   0  0  0  0  0  0  0  0  0  0  0  0
   40.7610   31.1630   40.9520 O   0  0  0  0  0  0  0  0  0  0  0  0
   39.2760   31.7720   39.6000 C   0  0  2  0  0  3  0  0  0  0  0  0
   38.7130   32.7780   40.5360 C   0  0  0  0  0  3  0  0  0  0  0  0
   38.3240   32.4140   41.4830 H   0  0  0  0  0  0  0  0  0  0  0  0
   37.6080   33.3810   39.6570 C   0  0  0  0  0  3  0  0  0  0  0  0
   36.8700   33.9360   40.2330 H   0  0  0  0  0  0  0  0  0  0  0  0
   37.0460   32.1890   39.1480 O   0  0  0  0  0  0  0  0  0  0  0  0
   38.1100   31.4310   38.7090 C   0  0  0  0  0  3  0  0  0  0  0  0
   37.8950   30.3450   38.7520 H   0  0  0  0  0  0  0  0  0  0  0  0
  1  6  2  0  0  0  0
  1  2  1  0  0  0  0
  2  3  2  0  0  0  0
  3  4  1  0  0  0  0
  3  7  1  0  0  0  0
  5  8  1  0  0  0  0
  5  4  2  0  0  0  0
  6  5  1  0  0  0  0
  9 13  2  0  0  0  0
  9  2  1  0  0  0  0
 10  9  1  0  0  0  0
 11 10  2  0  0  0  0
 11 12  1  0  0  0  0
 12 13  1  0  0  0  0
 14 10  1  0  0  0  0
 15 11  1  0  0  0  0
 16 12  1  0  0  0  0
 17  1  1  0  0  0  0
 18 17  1  0  0  0  0
 18 19  2  0  0  0  0
 20 18  1  1  0  0  0
 20 21  1  0  0  0  0
 21 22  1  0  0  0  0
 23 24  1  0  0  0  0
 23 21  1  0  0  0  0
 25 23  1  0  0  0  0
 26 27  1  0  0  0  0
 26 25  1  0  0  0  0
 26 20  1  0  0  0  0
M  END
>  <minimizedAffinity>
-4.65211725

$$$$

 OpenBabel03252508523D

 27 29  0  0  1  0  0  0  0  0999 V2000
   37.0880   30.7200   40.5210 C   0  0  0  0  0  0  0  0  0  0  0  0
   37.2050   30.0060   39.3340 C   0  0  0  0  0  0  0  0  0  0  0  0
   37.3590   30.7590   38.1670 C   0  0  0  0  0  0  0  0  0  0  0  0
   37.3860   32.1150   38.2470 N   0  0  0  0  0  0  0  0  0  0  0  0
   37.2680   32.7630   39.4220 C   0  0  0  0  0  0  0  0  0  0  0  0
   37.1180   32.0610   40.5640 N   0  0  0  0  0  0  0  0  0  0  0  0
   37.4500   30.2000   37.2460 H   0  0  0  0  0  0  0  0  0  0  0  0
   37.2990   33.8430   39.4030 H   0  0  0  0  0  0  0  0  0  0  0  0
   37.1650   28.5550   39.3500 C   0  0  0  0  0  0  0  0  0  0  0  0
   35.9730   27.8410   39.2480 C   0  0  0  0  0  0  0  0  0  0  0  0
   36.4040   26.5240   39.3060 C   0  0  0  0  0  0  0  0  0  0  0  0
   37.7570   26.4520   39.4330 N   0  0  0  0  0  0  0  0  0  0  0  0
   38.1790   27.6970   39.4550 N   0  0  0  0  0  0  0  0  0  0  0  0
   34.9460   28.1570   39.1490 H   0  0  0  0  0  0  0  0  0  0  0  0
   35.7240   25.6580   39.2540 H   0  0  0  0  0  0  0  0  0  0  0  0
   38.2720   25.5430   39.4930 H   0  0  0  0  0  0  0  0  0  0  0  0
   36.9340   30.0110   41.6970 O   0  0  0  0  0  0  0  0  0  0  0  0
   37.9230   29.5670   42.5280 C   0  0  0  0  0  0  0  0  0  0  0  0
   38.9670   30.1970   42.8970 O   0  0  0  0  0  0  0  0  0  0  0  0
   38.1830   28.2890   43.2810 C   0  0  2  0  0  3  0  0  0  0  0  0
   39.4500   27.6400   42.8570 C   0  0  0  0  0  3  0  0  0  0  0  0
   39.7850   27.8200   41.8390 H   0  0  0  0  0  0  0  0  0  0  0  0
   39.0920   26.1650   43.0890 C   0  0  0  0  0  3  0  0  0  0  0  0
   39.7640   25.4840   42.5710 H   0  0  0  0  0  0  0  0  0  0  0  0
   37.8100   26.1460   42.4950 O   0  0  0  0  0  0  0  0  0  0  0  0
   37.1410   27.2340   43.0120 C   0  0  0  0  0  3  0  0  0  0  0  0
   36.3710   27.6200   42.3150 H   0  0  0  0  0  0  0  0  0  0  0  0
  1  6  1  0  0  0  0
  1 17  1  0  0  0  0
  2  9  1  0  0  0  0
  2  1  2  0  0  0  0
  3  4  2  0  0  0  0
  3  2  1  0  0  0  0
  4  5  1  0  0  0  0
  5  6  2  0  0  0  0
  7  3  1  0  0  0  0
  8  5  1  0  0  0  0
  9 13  2  0  0  0  0
 10 11  2  0  0  0  0
 10  9  1  0  0  0  0
 11 12  1  0  0  0  0
 12 13  1  0  0  0  0
 12 16  1  0  0  0  0
 14 10  1  0  0  0  0
 15 11  1  0  0  0  0
 17 18  1  0  0  0  0
 18 19  2  0  0  0  0
 20 18  1  6  0  0  0
 21 23  1  0  0  0  0
 21 20  1  0  0  0  0
 22 21  1  0  0  0  0
 24 23  1  0  0  0  0
 25 26  1  0  0  0  0
 25 23  1  0  0  0  0
 26 20  1  0  0  0  0
 27 26  1  0  0  0  0
M  END
>  <minimizedAffinity>
-4.549541

$$$$

 OpenBabel03252508523D

 27 29  0  0  1  0  0  0  0  0999 V2000
   40.9880   31.5380   41.2280 C   0  0  0  0  0  0  0  0  0  0  0  0
   40.5550   32.6560   40.5250 C   0  0  0  0  0  0  0  0  0  0  0  0
   41.3620   33.7940   40.6080 C   0  0  0  0  0  0  0  0  0  0  0  0
   42.5000   33.7520   41.3510 N   0  0  0  0  0  0  0  0  0  0  0  0
   42.8780   32.6420   42.0140 C   0  0  0  0  0  0  0  0  0  0  0  0
   42.1170   31.5310   41.9520 N   0  0  0  0  0  0  0  0  0  0  0  0
   41.0220   34.6630   40.0610 H   0  0  0  0  0  0  0  0  0  0  0  0
   43.7960   32.6890   42.5830 H   0  0  0  0  0  0  0  0  0  0  0  0
   39.3240   32.6050   39.7580 C   0  0  0  0  0  0  0  0  0  0  0  0
   38.0960   32.9840   40.2940 C   0  0  0  0  0  0  0  0  0  0  0  0
   37.2260   32.7750   39.2340 C   0  0  0  0  0  0  0  0  0  0  0  0
   37.8840   32.3040   38.1400 N   0  0  0  0  0  0  0  0  0  0  0  0
   39.1470   32.2150   38.4960 N   0  0  0  0  0  0  0  0  0  0  0  0
   37.8130   33.3530   41.2690 H   0  0  0  0  0  0  0  0  0  0  0  0
   36.1420   32.9720   39.2870 H   0  0  0  0  0  0  0  0  0  0  0  0
   37.3990   32.0860   37.2390 H   0  0  0  0  0  0  0  0  0  0  0  0
   40.2160   30.3930   41.1700 O   0  0  0  0  0  0  0  0  0  0  0  0
   39.8340   29.6020   42.2170 C   0  0  0  0  0  0  0  0  0  0  0  0
   40.5620   28.8000   42.8880 O   0  0  0  0  0  0  0  0  0  0  0  0
   38.5400   29.3600   42.9480 C   0  0  2  0  0  3  0  0  0  0  0  0
   38.3960   27.9450   43.3730 C   0  0  0  0  0  3  0  0  0  0  0  0
   38.9010   27.1910   42.7740 H   0  0  0  0  0  0  0  0  0  0  0  0
   36.8690   27.7960   43.3110 C   0  0  0  0  0  3  0  0  0  0  0  0
   36.5490   26.7550   43.2970 H   0  0  0  0  0  0  0  0  0  0  0  0
   36.6320   28.4040   42.0580 O   0  0  0  0  0  0  0  0  0  0  0  0
   37.3310   29.5920   42.0800 C   0  0  0  0  0  3  0  0  0  0  0  0
   37.6380   29.9140   41.0660 H   0  0  0  0  0  0  0  0  0  0  0  0
  1  6  1  0  0  0  0
  2  3  1  0  0  0  0
  2  1  2  0  0  0  0
  3  4  2  0  0  0  0
  4  5  1  0  0  0  0
  5  8  1  0  0  0  0
  6  5  2  0  0  0  0
  7  3  1  0  0  0  0
  9 10  1  0  0  0  0
  9  2  1  0  0  0  0
 10 14  1  0  0  0  0
 11 15  1  0  0  0  0
 11 10  2  0  0  0  0
 12 13  1  0  0  0  0
 12 11  1  0  0  0  0
 13  9  2  0  0  0  0
 16 12  1  0  0  0  0
 17  1  1  0  0  0  0
 17 18  1  0  0  0  0
 18 19  2  0  0  0  0
 20 18  1  6  0  0  0
 20 21  1  0  0  0  0
 22 21  1  0  0  0  0
 23 21  1  0  0  0  0
 24 23  1  0  0  0  0
 25 26  1  0  0  0  0
 25 23  1  0  0  0  0
 26 20  1  0  0  0  0
 27 26  1  0  0  0  0
M  END
>  <minimizedAffinity>
-4.52477884

$$$$

 OpenBabel03252508523D

 27 29  0  0  1  0  0  0  0  0999 V2000
   36.5210   30.0680   39.2890 C   0  0  0  0  0  0  0  0  0  0  0  0
   36.9810   28.9340   39.9480 C   0  0  0  0  0  0  0  0  0  0  0  0
   37.0550   27.7620   39.1900 C   0  0  0  0  0  0  0  0  0  0  0  0
   36.6850   27.7890   37.8830 N   0  0  0  0  0  0  0  0  0  0  0  0
   36.2460   28.9140   37.2880 C   0  0  0  0  0  0  0  0  0  0  0  0
   36.1640   30.0590   37.9960 N   0  0  0  0  0  0  0  0  0  0  0  0
   37.4130   26.8810   39.7060 H   0  0  0  0  0  0  0  0  0  0  0  0
   35.9700   28.8530   36.2450 H   0  0  0  0  0  0  0  0  0  0  0  0
   37.3530   29.0050   41.3490 C   0  0  0  0  0  0  0  0  0  0  0  0
   38.6660   29.2240   41.7600 C   0  0  0  0  0  0  0  0  0  0  0  0
   38.5540   29.2140   43.1430 C   0  0  0  0  0  0  0  0  0  0  0  0
   37.2680   29.0040   43.5340 N   0  0  0  0  0  0  0  0  0  0  0  0
   36.5740   28.8830   42.4230 N   0  0  0  0  0  0  0  0  0  0  0  0
   39.5830   29.3720   41.2100 H   0  0  0  0  0  0  0  0  0  0  0  0
   39.4090   29.3600   43.8240 H   0  0  0  0  0  0  0  0  0  0  0  0
   36.9820   28.9630   44.5390 H   0  0  0  0  0  0  0  0  0  0  0  0
   36.4330   31.2480   40.0050 O   0  0  0  0  0  0  0  0  0  0  0  0
   37.2540   32.3350   39.9060 C   0  0  0  0  0  0  0  0  0  0  0  0
   37.0340   33.4180   39.2710 O   0  0  0  0  0  0  0  0  0  0  0  0
   38.6160   32.6900   40.4410 C   0  0  2  0  0  3  0  0  0  0  0  0
   38.8700   34.1520   40.3950 C   0  0  0  0  0  3  0  0  0  0  0  0
   38.3560   34.7230   39.6270 H   0  0  0  0  0  0  0  0  0  0  0  0
   40.3920   34.1590   40.1910 C   0  0  0  0  0  3  0  0  0  0  0  0
   40.7630   35.1180   39.8340 H   0  0  0  0  0  0  0  0  0  0  0  0
   40.4890   33.1810   39.1750 O   0  0  0  0  0  0  0  0  0  0  0  0
   39.7330   32.1130   39.6100 C   0  0  0  0  0  3  0  0  0  0  0  0
   39.3240   31.5220   38.7670 H   0  0  0  0  0  0  0  0  0  0  0  0
  1  2  1  0  0  0  0
  1 17  1  0  0  0  0
  2  9  1  0  0  0  0
  3  7  1  0  0  0  0
  3  2  2  0  0  0  0
  4  3  1  0  0  0  0
  5  4  2  0  0  0  0
  5  6  1  0  0  0  0
  6  1  2  0  0  0  0
  8  5  1  0  0  0  0
  9 10  1  0  0  0  0
  9 13  2  0  0  0  0
 10 11  2  0  0  0  0
 11 12  1  0  0  0  0
 11 15  1  0  0  0  0
 12 16  1  0  0  0  0
 13 12  1  0  0  0  0
 14 10  1  0  0  0  0
 18 17  1  0  0  0  0
 19 18  2  0  0  0  0
 20 18  1  6  0  0  0
 21 20  1  0  0  0  0
 22 21  1  0  0  0  0
 23 21  1  0  0  0  0
 24 23  1  0  0  0  0
 25 26  1  0  0  0  0
 25 23  1  0  0  0  0
 26 20  1  0  0  0  0
 27 26  1  0  0  0  0
M  END
>  <minimizedAffinity>
-4.4875679

$$$$
