
 OpenBabel03252509003D

 44 46  0  0  1  0  0  0  0  0999 V2000
   46.6830   34.4830   43.6430 N   0  0  0  0  0  0  0  0  0  0  0  0
   46.2050   35.4930   42.7700 C   0  0  0  0  0  0  0  0  0  0  0  0
   44.7070   35.6910   42.7650 C   0  0  0  0  0  0  0  0  0  0  0  0
   44.0500   35.4410   44.0970 C   0  0  0  0  0  0  0  0  0  0  0  0
   45.0550   35.1250   45.1740 C   0  0  0  0  0  0  0  0  0  0  0  0
   45.8470   33.9020   44.5830 C   0  0  2  0  0  0  0  0  0  0  0  0
   46.5250   35.4180   41.7270 H   0  0  0  0  0  0  0  0  0  0  0  0
   46.6370   36.4650   43.1320 H   0  0  0  0  0  0  0  0  0  0  0  0
   44.4840   36.7520   42.4820 H   0  0  0  0  0  0  0  0  0  0  0  0
   44.2950   35.0750   41.9450 H   0  0  0  0  0  0  0  0  0  0  0  0
   43.4100   34.5370   43.9990 H   0  0  0  0  0  0  0  0  0  0  0  0
   43.4400   36.2930   44.4580 H   0  0  0  0  0  0  0  0  0  0  0  0
   45.7540   35.9380   45.3900 H   0  0  0  0  0  0  0  0  0  0  0  0
   44.5290   34.7250   46.0570 H   0  0  0  0  0  0  0  0  0  0  0  0
   45.0790   33.1780   44.2360 H   0  0  0  0  0  0  0  0  0  0  0  0
   47.7680   33.7130   43.1110 C   0  0  0  0  0  0  0  0  0  0  0  0
   48.3460   33.2180   43.9230 H   0  0  0  0  0  0  0  0  0  0  0  0
   48.4580   34.3760   42.5840 H   0  0  0  0  0  0  0  0  0  0  0  0
   47.2080   32.6380   42.2290 C   0  0  0  0  0  0  0  0  0  0  0  0
   46.0960   32.7050   42.1750 H   0  0  0  0  0  0  0  0  0  0  0  0
   47.4320   31.6360   42.6100 H   0  0  0  0  0  0  0  0  0  0  0  0
   49.3200   32.1330   39.1630 C   0  0  0  0  0  0  0  0  0  0  0  0
   48.7920   31.9970   40.4590 C   0  0  0  0  0  0  0  0  0  0  0  0
   47.7520   32.7980   40.8540 C   0  0  0  0  0  0  0  0  0  0  0  0
   47.2830   33.6860   39.9710 N   0  0  0  0  0  0  0  0  0  0  0  0
   47.7900   33.8140   38.7290 C   0  0  0  0  0  0  0  0  0  0  0  0
   48.8010   33.0510   38.3150 N   0  0  0  0  0  0  0  0  0  0  0  0
   50.1420   31.4830   38.8810 H   0  0  0  0  0  0  0  0  0  0  0  0
   49.1890   31.2690   41.1580 H   0  0  0  0  0  0  0  0  0  0  0  0
   47.2940   34.5720   38.1620 H   0  0  0  0  0  0  0  0  0  0  0  0
   46.5490   33.4620   45.6970 O   0  0  0  0  0  0  0  0  0  0  0  0
   45.6190   31.1090   44.9430 O   0  0  0  0  0  0  0  0  0  0  0  0
   46.1880   31.8750   46.1150 P   0  0  2  0  0  0  0  0  0  0  0  0
   44.9200   31.9630   47.2610 O   0  0  0  0  0  0  0  0  0  0  0  0
   44.0550   32.1250   46.7830 H   0  0  0  0  0  0  0  0  0  0  0  0
   47.4960   31.1380   46.8360 O   0  0  0  0  0  0  0  0  0  0  0  0
   47.7380   29.8560   46.4580 C   0  0  2  0  0  3  0  0  0  0  0  0
   46.9230   28.9530   47.3760 C   0  0  0  0  0  3  0  0  0  0  0  0
   45.9190   28.7500   46.9560 H   0  0  0  0  0  0  0  0  0  0  0  0
   47.7940   27.7250   47.4640 C   0  0  0  0  0  3  0  0  0  0  0  0
   47.9670   27.4360   48.5140 H   0  0  0  0  0  0  0  0  0  0  0  0
   48.9710   27.9760   46.7810 O   0  0  0  0  0  0  0  0  0  0  0  0
   49.1300   29.3620   46.7440 C   0  0  0  0  0  3  0  0  0  0  0  0
   49.4880   29.7680   47.7020 H   0  0  0  0  0  0  0  0  0  0  0  0
  1  6  1  0  0  0  0
  2  8  1  0  0  0  0
  2  1  1  0  0  0  0
  3  2  1  0  0  0  0
  3  4  1  0  0  0  0
  4 12  1  0  0  0  0
  4  5  1  0  0  0  0
  5 13  1  0  0  0  0
  5 14  1  0  0  0  0
  6 15  1  6  0  0  0
  6  5  1  0  0  0  0
  6 31  1  0  0  0  0
  7  2  1  0  0  0  0
  9  3  1  0  0  0  0
 10  3  1  0  0  0  0
 11  4  1  0  0  0  0
 16  1  1  0  0  0  0
 16 17  1  0  0  0  0
 18 16  1  0  0  0  0
 19 21  1  0  0  0  0
 19 16  1  0  0  0  0
 20 19  1  0  0  0  0
 22 23  1  0  0  0  0
 23 24  2  0  0  0  0
 23 29  1  0  0  0  0
 24 19  1  0  0  0  0
 25 24  1  0  0  0  0
 26 25  2  0  0  0  0
 27 26  1  0  0  0  0
 27 22  2  0  0  0  0
 28 22  1  0  0  0  0
 30 26  1  0  0  0  0
 31 33  1  0  0  0  0
 33 32  2  6  0  0  0
 33 36  1  0  0  0  0
 33 34  1  0  0  0  0
 35 34  1  0  0  0  0
 37 43  1  0  0  0  0
 37 36  1  1  0  0  0
 37 38  1  0  0  0  0
 38 40  1  0  0  0  0
 39 38  1  0  0  0  0
 40 41  1  0  0  0  0
 42 40  1  0  0  0  0
 43 42  1  0  0  0  0
 43 44  1  0  0  0  0
M  END
>  <minimizedAffinity>
-4.19219017

>  <minimizedRMSD>
1.1026485

$$$$
