
 OpenBabel03252505493D

 21 22  0  0  1  0  0  0  0  0999 V2000
   44.7840   34.9980   45.1270 C   0  0  0  0  0  0  0  0  0  0  0  0
   45.4410   34.8650   43.9110 C   0  0  0  0  0  0  0  0  0  0  0  0
   46.4500   33.9170   43.8530 C   0  0  0  0  0  0  0  0  0  0  0  0
   46.7500   33.1810   44.9470 N   0  0  0  0  0  0  0  0  0  0  0  0
   46.0880   33.3420   46.1070 C   0  0  0  0  0  0  0  0  0  0  0  0
   45.1090   34.2400   46.2120 N   0  0  0  0  0  0  0  0  0  0  0  0
   43.9700   35.7180   45.2800 H   0  0  0  0  0  0  0  0  0  0  0  0
   46.9590   33.8150   42.9120 H   0  0  0  0  0  0  0  0  0  0  0  0
   45.0070   35.7410   42.7910 C   0  0  0  0  0  0  0  0  0  0  0  0
   45.3270   37.0310   43.1720 F   0  0  0  0  0  0  0  0  0  0  0  0
   43.6500   35.6120   42.6490 F   0  0  0  0  0  0  0  0  0  0  0  0
   45.6740   35.3190   41.6520 F   0  0  0  0  0  0  0  0  0  0  0  0
   46.3750   32.6010   47.2430 O   0  0  0  0  0  0  0  0  0  0  0  0
   47.4800   31.7510   47.3860 C   0  0  2  0  0  3  0  0  0  0  0  0
   47.0910   30.2880   47.2970 C   0  0  0  0  0  3  0  0  0  0  0  0
   46.1600   30.1290   47.8530 H   0  0  0  0  0  0  0  0  0  0  0  0
   48.2300   29.6740   48.0860 C   0  0  0  0  0  3  0  0  0  0  0  0
   48.0200   28.6360   48.3870 H   0  0  0  0  0  0  0  0  0  0  0  0
   48.2740   30.5070   49.2010 O   0  0  0  0  0  0  0  0  0  0  0  0
   48.1060   31.8020   48.7490 C   0  0  0  0  0  3  0  0  0  0  0  0
   49.1030   32.2900   48.7350 H   0  0  0  0  0  0  0  0  0  0  0  0
  1  7  1  0  0  0  0
  1  6  1  0  0  0  0
  2  1  2  0  0  0  0
  3  2  1  0  0  0  0
  3  4  2  0  0  0  0
  4  5  1  0  0  0  0
  5  6  2  0  0  0  0
  5 13  1  0  0  0  0
  8  3  1  0  0  0  0
  9 10  1  0  0  0  0
  9  2  1  0  0  0  0
 11  9  1  0  0  0  0
 12  9  1  0  0  0  0
 14 13  1  1  0  0  0
 14 20  1  0  0  0  0
 15 14  1  0  0  0  0
 15 16  1  0  0  0  0
 15 17  1  0  0  0  0
 17 18  1  0  0  0  0
 17 19  1  0  0  0  0
 20 19  1  0  0  0  0
 21 20  1  0  0  0  0
M  END
>  <minimizedAffinity>
-4.55309725

>  <minimizedRMSD>
1.13678062

$$$$
