
 OpenBabel03242523303D

 21 22  0  0  1  0  0  0  0  0999 V2000
   45.6080   33.2030   46.7780 C   0  0  0  0  0  0  0  0  0  0  0  0
   46.4320   33.6110   47.4120 H   0  0  0  0  0  0  0  0  0  0  0  0
   44.6540   33.0920   47.3320 H   0  0  0  0  0  0  0  0  0  0  0  0
   44.5810   35.9370   44.4670 C   0  0  0  0  0  0  0  0  0  0  0  0
   45.3420   35.6320   43.3290 C   0  0  0  0  0  0  0  0  0  0  0  0
   46.1740   34.5240   43.3710 C   0  0  0  0  0  0  0  0  0  0  0  0
   46.2320   33.7710   44.4930 N   0  0  0  0  0  0  0  0  0  0  0  0
   45.4790   34.0840   45.5970 C   0  0  0  0  0  0  0  0  0  0  0  0
   44.6870   35.1490   45.5410 N   0  0  0  0  0  0  0  0  0  0  0  0
   43.9440   36.8080   44.3970 H   0  0  0  0  0  0  0  0  0  0  0  0
   45.3500   36.1820   42.4030 H   0  0  0  0  0  0  0  0  0  0  0  0
   46.7810   34.2460   42.5210 H   0  0  0  0  0  0  0  0  0  0  0  0
   46.2200   31.5960   46.1660 S   0  0  0  0  0  0  0  0  0  0  0  0
   46.3180   30.4000   47.5540 C   0  0  2  0  0  3  0  0  0  0  0  0
   47.5430   29.5550   47.4260 C   0  0  0  0  0  3  0  0  0  0  0  0
   48.1500   29.9190   46.5590 H   0  0  0  0  0  0  0  0  0  0  0  0
   47.0290   28.1550   47.2390 C   0  0  0  0  0  3  0  0  0  0  0  0
   47.5930   27.4090   47.8400 H   0  0  0  0  0  0  0  0  0  0  0  0
   45.7110   28.1410   47.6710 O   0  0  0  0  0  0  0  0  0  0  0  0
   45.2020   29.4140   47.4320 C   0  0  0  0  0  3  0  0  0  0  0  0
   44.3370   29.5960   48.0800 H   0  0  0  0  0  0  0  0  0  0  0  0
  1  3  1  0  0  0  0
  1  2  1  0  0  0  0
  4  9  1  0  0  0  0
  5  6  1  0  0  0  0
  5  4  2  0  0  0  0
  6  7  2  0  0  0  0
  7  8  1  0  0  0  0
  8  1  1  0  0  0  0
  9  8  2  0  0  0  0
 10  4  1  0  0  0  0
 11  5  1  0  0  0  0
 12  6  1  0  0  0  0
 13  1  1  0  0  0  0
 14 13  1  6  0  0  0
 15 14  1  0  0  0  0
 16 15  1  0  0  0  0
 17 15  1  0  0  0  0
 17 19  1  0  0  0  0
 17 18  1  0  0  0  0
 20 14  1  0  0  0  0
 20 19  1  0  0  0  0
 20 21  1  0  0  0  0
M  END
>  <minimizedAffinity>
-3.61904836

>  <minimizedRMSD>
0.85046196

$$$$
