
 OpenBabel03242523543D

 44 47  0  0  1  0  0  0  0  0999 V2000
   42.8130   34.5300   38.7400 C   0  0  1  0  0  0  0  0  0  0  0  0
   42.9430   35.1810   40.1110 C   0  0  1  0  0  0  0  0  0  0  0  0
   41.6530   35.3830   40.6290 O   0  0  0  0  0  0  0  0  0  0  0  0
   40.7250   35.7260   39.6430 C   0  0  0  0  0  0  0  0  0  0  0  0
   40.4320   34.5650   38.7140 C   0  0  2  0  0  0  0  0  0  0  0  0
   41.6550   33.5910   38.8310 C   0  0  1  0  0  0  0  0  0  0  0  0
   43.7640   34.0300   38.4590 H   0  0  0  0  0  0  0  0  0  0  0  0
   43.5250   36.1080   40.0950 H   0  0  0  0  0  0  0  0  0  0  0  0
   41.0050   36.6550   39.1190 H   0  0  0  0  0  0  0  0  0  0  0  0
   39.7920   35.9390   40.1800 H   0  0  0  0  0  0  0  0  0  0  0  0
   39.5190   34.0180   38.9970 H   0  0  0  0  0  0  0  0  0  0  0  0
   41.4490   33.2900   39.9090 H   0  0  0  0  0  0  0  0  0  0  0  0
   42.5890   35.4980   37.7490 O   0  0  0  0  0  0  0  0  0  0  0  0
   43.4750   35.9230   37.6030 H   0  0  0  0  0  0  0  0  0  0  0  0
   40.4450   35.0050   37.3980 O   0  0  0  0  0  0  0  0  0  0  0  0
   40.7650   34.3580   36.7470 H   0  0  0  0  0  0  0  0  0  0  0  0
   43.4880   34.1900   40.9400 O   0  0  0  0  0  0  0  0  0  0  0  0
   44.5960   34.3300   41.6790 C   0  0  0  0  0  0  0  0  0  0  0  0
   45.8600   34.4320   41.0790 C   0  0  0  0  0  0  0  0  0  0  0  0
   46.9660   34.5760   41.9030 C   0  0  0  0  0  0  0  0  0  0  0  0
   46.7950   34.6150   43.2750 N   0  0  0  0  0  0  0  0  0  0  0  0
   45.5590   34.5140   43.8150 C   0  0  0  0  0  0  0  0  0  0  0  0
   44.4640   34.3720   43.0260 N   0  0  0  0  0  0  0  0  0  0  0  0
   45.9920   34.4000   40.0070 H   0  0  0  0  0  0  0  0  0  0  0  0
   45.5060   34.5520   44.8910 H   0  0  0  0  0  0  0  0  0  0  0  0
   48.3500   34.6750   41.3320 C   0  0  0  0  0  0  0  0  0  0  0  0
   49.0660   36.0130   41.5080 C   0  0  0  0  0  0  0  0  0  0  0  0
   49.4930   34.7000   42.1870 C   0  0  0  0  0  0  0  0  0  0  0  0
   48.3790   34.2810   40.2970 H   0  0  0  0  0  0  0  0  0  0  0  0
   49.6520   36.3660   40.6630 H   0  0  0  0  0  0  0  0  0  0  0  0
   48.5500   36.7150   42.1780 H   0  0  0  0  0  0  0  0  0  0  0  0
   49.3630   34.6400   43.2990 H   0  0  0  0  0  0  0  0  0  0  0  0
   50.4910   34.3510   41.8630 H   0  0  0  0  0  0  0  0  0  0  0  0
   41.5370   32.6710   37.8560 O   0  0  0  0  0  0  0  0  0  0  0  0
   40.9040   31.4750   37.8820 C   0  0  0  0  0  0  0  0  0  0  0  0
   39.6500   31.3630   37.5160 O   0  0  0  0  0  0  0  0  0  0  0  0
   41.0700   30.0240   38.1980 C   0  0  2  0  0  3  0  0  0  0  0  0
   42.5340   29.8250   38.6030 C   0  0  0  0  0  3  0  0  0  0  0  0
   42.7300   30.0620   39.6510 H   0  0  0  0  0  0  0  0  0  0  0  0
   42.6960   28.3390   38.3240 C   0  0  0  0  0  3  0  0  0  0  0  0
   43.7340   28.0690   38.0350 H   0  0  0  0  0  0  0  0  0  0  0  0
   41.8650   28.0490   37.2560 O   0  0  0  0  0  0  0  0  0  0  0  0
   40.9580   29.0750   37.0780 C   0  0  0  0  0  3  0  0  0  0  0  0
   39.9390   28.6630   36.9260 H   0  0  0  0  0  0  0  0  0  0  0  0
  1  7  1  6  0  0  0
  1  6  1  0  0  0  0
  1  2  1  0  0  0  0
  2  8  1  6  0  0  0
  2  3  1  0  0  0  0
  2 17  1  0  0  0  0
  4 10  1  0  0  0  0
  4  3  1  0  0  0  0
  5  6  1  0  0  0  0
  5 11  1  1  0  0  0
  5  4  1  0  0  0  0
  6 12  1  1  0  0  0
  9  4  1  0  0  0  0
 13  1  1  0  0  0  0
 14 13  1  0  0  0  0
 15  5  1  0  0  0  0
 16 15  1  0  0  0  0
 17 18  1  0  0  0  0
 18 23  1  0  0  0  0
 19 18  2  0  0  0  0
 19 20  1  0  0  0  0
 20 21  2  0  0  0  0
 21 22  1  0  0  0  0
 22 25  1  0  0  0  0
 23 22  2  0  0  0  0
 24 19  1  0  0  0  0
 26 27  1  0  0  0  0
 26 20  1  0  0  0  0
 26 28  1  0  0  0  0
 27 31  1  0  0  0  0
 27 28  1  0  0  0  0
 28 32  1  0  0  0  0
 29 26  1  0  0  0  0
 30 27  1  0  0  0  0
 33 28  1  0  0  0  0
 34 35  1  0  0  0  0
 34  6  1  0  0  0  0
 36 35  2  0  0  0  0
 37 35  1  6  0  0  0
 37 38  1  0  0  0  0
 38 39  1  0  0  0  0
 40 38  1  0  0  0  0
 41 40  1  0  0  0  0
 42 40  1  0  0  0  0
 43 42  1  0  0  0  0
 43 37  1  0  0  0  0
 44 43  1  0  0  0  0
M  END
>  <minimizedAffinity>
-5.59985924

>  <minimizedRMSD>
0.103707232

$$$$
