
 OpenBabel03242522493D

 23 24  0  0  1  0  0  0  0  0999 V2000
   45.7520   33.6790   40.2030 O   0  0  0  0  0  0  0  0  0  0  0  0
   47.0960   34.0650   40.8250 P   0  0  2  0  0  0  0  0  0  0  0  0
   47.6110   32.7250   41.7440 O   0  0  0  0  0  0  0  0  0  0  0  0
   48.5630   32.8060   41.9810 H   0  0  0  0  0  0  0  0  0  0  0  0
   46.8720   35.3790   41.9000 O   0  0  0  0  0  0  0  0  0  0  0  0
   44.5070   35.8540   44.6360 C   0  0  0  0  0  0  0  0  0  0  0  0
   45.1960   36.0750   43.4160 C   0  0  0  0  0  0  0  0  0  0  0  0
   46.1920   35.1680   43.0950 C   0  0  0  0  0  0  0  0  0  0  0  0
   46.4630   34.1250   43.9440 N   0  0  0  0  0  0  0  0  0  0  0  0
   45.7770   33.9570   45.0980 C   0  0  0  0  0  0  0  0  0  0  0  0
   44.8040   34.8120   45.4480 N   0  0  0  0  0  0  0  0  0  0  0  0
   43.7090   36.5290   44.9550 H   0  0  0  0  0  0  0  0  0  0  0  0
   44.8950   36.9250   42.8370 H   0  0  0  0  0  0  0  0  0  0  0  0
   46.1570   33.0780   45.6020 H   0  0  0  0  0  0  0  0  0  0  0  0
   48.2190   34.4750   39.6660 O   0  0  0  0  0  0  0  0  0  0  0  0
   47.9420   33.7890   38.5120 C   0  0  2  0  0  0  0  0  0  0  0  0
   48.8240   32.5440   38.3650 C   0  0  0  0  0  0  0  0  0  0  0  0
   49.8600   32.8520   38.4910 H   0  0  0  0  0  0  0  0  0  0  0  0
   48.5320   32.2850   36.8840 C   0  0  0  0  0  0  0  0  0  0  0  0
   49.2070   31.5410   36.4540 H   0  0  0  0  0  0  0  0  0  0  0  0
   48.6420   33.5380   36.2930 O   0  0  0  0  0  0  0  0  0  0  0  0
   48.2800   34.4870   37.2380 C   0  0  0  0  0  0  0  0  0  0  0  0
   47.4210   35.0610   36.7890 H   0  0  0  0  0  0  0  0  0  0  0  0
  2  1  2  6  0  0  0
  2  3  1  0  0  0  0
  2  5  1  0  0  0  0
  3  4  1  0  0  0  0
  5  8  1  0  0  0  0
  6 12  1  0  0  0  0
  6 11  1  0  0  0  0
  7  6  2  0  0  0  0
  8  7  1  0  0  0  0
  8  9  2  0  0  0  0
  9 10  1  0  0  0  0
 10 11  2  0  0  0  0
 10 14  1  0  0  0  0
 13  7  1  0  0  0  0
 15  2  1  0  0  0  0
 16 15  1  1  0  0  0
 17 18  1  0  0  0  0
 17 16  1  0  0  0  0
 19 17  1  0  0  0  0
 20 19  1  0  0  0  0
 21 19  1  0  0  0  0
 21 22  1  0  0  0  0
 22 16  1  0  0  0  0
 23 22  1  0  0  0  0
M  END
>  <minimizedAffinity>
-4.23109341

>  <minimizedRMSD>
2.13855362

$$$$
