
 OpenBabel03252509003D

 44 46  0  0  1  0  0  0  0  0999 V2000
   46.7960   34.3640   43.4970 N   0  0  0  0  0  0  0  0  0  0  0  0
   46.5120   34.9660   42.2450 C   0  0  0  0  0  0  0  0  0  0  0  0
   45.0500   35.0210   41.8680 C   0  0  0  0  0  0  0  0  0  0  0  0
   44.1190   35.1910   43.0390 C   0  0  0  0  0  0  0  0  0  0  0  0
   44.8670   35.3540   44.3370 C   0  0  0  0  0  0  0  0  0  0  0  0
   45.7790   34.0750   44.3930 C   0  0  2  0  0  0  0  0  0  0  0  0
   47.0530   34.5620   41.3840 H   0  0  0  0  0  0  0  0  0  0  0  0
   46.8460   36.0360   42.3160 H   0  0  0  0  0  0  0  0  0  0  0  0
   44.8860   35.8950   41.1860 H   0  0  0  0  0  0  0  0  0  0  0  0
   44.8330   34.1260   41.2550 H   0  0  0  0  0  0  0  0  0  0  0  0
   43.5240   34.2580   43.1420 H   0  0  0  0  0  0  0  0  0  0  0  0
   43.4380   36.0600   42.9420 H   0  0  0  0  0  0  0  0  0  0  0  0
   45.4950   36.2480   44.3860 H   0  0  0  0  0  0  0  0  0  0  0  0
   44.1630   35.2410   45.1790 H   0  0  0  0  0  0  0  0  0  0  0  0
   45.1120   33.2120   44.1790 H   0  0  0  0  0  0  0  0  0  0  0  0
   47.9780   33.5530   43.5050 C   0  0  0  0  0  0  0  0  0  0  0  0
   48.2430   33.2400   44.5390 H   0  0  0  0  0  0  0  0  0  0  0  0
   48.8180   34.1350   43.1200 H   0  0  0  0  0  0  0  0  0  0  0  0
   47.7150   32.3140   42.7040 C   0  0  0  0  0  0  0  0  0  0  0  0
   46.7880   32.4210   42.0930 H   0  0  0  0  0  0  0  0  0  0  0  0
   47.5560   31.4380   43.3440 H   0  0  0  0  0  0  0  0  0  0  0  0
   51.2200   32.1160   41.3660 C   0  0  0  0  0  0  0  0  0  0  0  0
   50.1280   32.3360   42.2230 C   0  0  0  0  0  0  0  0  0  0  0  0
   48.8570   32.0740   41.7820 C   0  0  0  0  0  0  0  0  0  0  0  0
   48.7160   31.6140   40.5340 N   0  0  0  0  0  0  0  0  0  0  0  0
   49.7640   31.4020   39.7140 C   0  0  0  0  0  0  0  0  0  0  0  0
   51.0120   31.6480   40.1130 N   0  0  0  0  0  0  0  0  0  0  0  0
   52.2130   32.3330   41.7460 H   0  0  0  0  0  0  0  0  0  0  0  0
   50.2660   32.7100   43.2310 H   0  0  0  0  0  0  0  0  0  0  0  0
   49.4650   31.0340   38.7570 H   0  0  0  0  0  0  0  0  0  0  0  0
   46.2240   34.1090   45.7080 O   0  0  0  0  0  0  0  0  0  0  0  0
   45.5220   31.5670   45.5730 O   0  0  0  0  0  0  0  0  0  0  0  0
   46.0140   32.6470   46.5090 P   0  0  2  0  0  0  0  0  0  0  0  0
   44.7410   32.8960   47.6260 O   0  0  0  0  0  0  0  0  0  0  0  0
   43.8660   32.8560   47.1420 H   0  0  0  0  0  0  0  0  0  0  0  0
   47.3850   32.2320   47.3590 O   0  0  0  0  0  0  0  0  0  0  0  0
   47.5080   30.9190   47.6840 C   0  0  2  0  0  3  0  0  0  0  0  0
   48.0520   30.1990   46.4560 C   0  0  0  0  0  3  0  0  0  0  0  0
   49.1590   30.1690   46.4640 H   0  0  0  0  0  0  0  0  0  0  0  0
   47.4160   28.8370   46.5830 C   0  0  0  0  0  3  0  0  0  0  0  0
   46.9110   28.5470   45.6460 H   0  0  0  0  0  0  0  0  0  0  0  0
   46.5540   28.8570   47.6660 O   0  0  0  0  0  0  0  0  0  0  0  0
   46.2050   30.1920   47.8820 C   0  0  0  0  0  3  0  0  0  0  0  0
   45.4580   30.5490   47.1580 H   0  0  0  0  0  0  0  0  0  0  0  0
  1 16  1  0  0  0  0
  1  6  1  0  0  0  0
  2  8  1  0  0  0  0
  2  1  1  0  0  0  0
  3  2  1  0  0  0  0
  3  4  1  0  0  0  0
  4 11  1  0  0  0  0
  4  5  1  0  0  0  0
  5 13  1  0  0  0  0
  5  6  1  0  0  0  0
  5 14  1  0  0  0  0
  6 15  1  6  0  0  0
  6 31  1  0  0  0  0
  7  2  1  0  0  0  0
  9  3  1  0  0  0  0
 10  3  1  0  0  0  0
 12  4  1  0  0  0  0
 16 17  1  0  0  0  0
 18 16  1  0  0  0  0
 19 21  1  0  0  0  0
 19 16  1  0  0  0  0
 20 19  1  0  0  0  0
 22 28  1  0  0  0  0
 22 23  1  0  0  0  0
 23 29  1  0  0  0  0
 24 23  2  0  0  0  0
 24 19  1  0  0  0  0
 25 24  1  0  0  0  0
 26 27  1  0  0  0  0
 26 25  2  0  0  0  0
 27 22  2  0  0  0  0
 30 26  1  0  0  0  0
 31 33  1  0  0  0  0
 33 32  2  6  0  0  0
 33 36  1  0  0  0  0
 33 34  1  0  0  0  0
 35 34  1  0  0  0  0
 37 36  1  6  0  0  0
 37 43  1  0  0  0  0
 38 39  1  0  0  0  0
 38 40  1  0  0  0  0
 38 37  1  0  0  0  0
 40 42  1  0  0  0  0
 41 40  1  0  0  0  0
 42 43  1  0  0  0  0
 44 43  1  0  0  0  0
M  END
>  <minimizedAffinity>
-4.59547234

>  <minimizedRMSD>
2.34560347

$$$$
