
 OpenBabel03242523543D

 44 47  0  0  1  0  0  0  0  0999 V2000
   42.8090   34.5440   38.7310 C   0  0  1  0  0  0  0  0  0  0  0  0
   42.9400   35.1860   40.1060 C   0  0  1  0  0  0  0  0  0  0  0  0
   41.6500   35.3840   40.6280 O   0  0  0  0  0  0  0  0  0  0  0  0
   40.7210   35.7320   39.6460 C   0  0  0  0  0  0  0  0  0  0  0  0
   40.4280   34.5770   38.7090 C   0  0  2  0  0  0  0  0  0  0  0  0
   41.6520   33.6040   38.8180 C   0  0  1  0  0  0  0  0  0  0  0  0
   43.7600   34.0470   38.4460 H   0  0  0  0  0  0  0  0  0  0  0  0
   43.5210   36.1140   40.0960 H   0  0  0  0  0  0  0  0  0  0  0  0
   40.9990   36.6650   39.1270 H   0  0  0  0  0  0  0  0  0  0  0  0
   39.7880   35.9400   40.1850 H   0  0  0  0  0  0  0  0  0  0  0  0
   39.5160   34.0270   38.9900 H   0  0  0  0  0  0  0  0  0  0  0  0
   41.4480   33.2950   39.8940 H   0  0  0  0  0  0  0  0  0  0  0  0
   42.5820   35.5180   37.7470 O   0  0  0  0  0  0  0  0  0  0  0  0
   43.4670   35.9450   37.6030 H   0  0  0  0  0  0  0  0  0  0  0  0
   40.4380   35.0260   37.3960 O   0  0  0  0  0  0  0  0  0  0  0  0
   40.7570   34.3840   36.7400 H   0  0  0  0  0  0  0  0  0  0  0  0
   43.4870   34.1910   40.9280 O   0  0  0  0  0  0  0  0  0  0  0  0
   44.5930   34.3290   41.6700 C   0  0  0  0  0  0  0  0  0  0  0  0
   45.8590   34.4290   41.0740 C   0  0  0  0  0  0  0  0  0  0  0  0
   46.9630   34.5710   41.9020 C   0  0  0  0  0  0  0  0  0  0  0  0
   46.7880   34.6100   43.2730 N   0  0  0  0  0  0  0  0  0  0  0  0
   45.5500   34.5100   43.8090 C   0  0  0  0  0  0  0  0  0  0  0  0
   44.4570   34.3700   43.0170 N   0  0  0  0  0  0  0  0  0  0  0  0
   45.9940   34.3980   40.0020 H   0  0  0  0  0  0  0  0  0  0  0  0
   45.4940   34.5480   44.8850 H   0  0  0  0  0  0  0  0  0  0  0  0
   48.3490   34.6690   41.3350 C   0  0  0  0  0  0  0  0  0  0  0  0
   49.0640   36.0080   41.5090 C   0  0  0  0  0  0  0  0  0  0  0  0
   49.4890   34.6960   42.1940 C   0  0  0  0  0  0  0  0  0  0  0  0
   48.3810   34.2720   40.3010 H   0  0  0  0  0  0  0  0  0  0  0  0
   49.6540   36.3580   40.6650 H   0  0  0  0  0  0  0  0  0  0  0  0
   48.5460   36.7110   42.1750 H   0  0  0  0  0  0  0  0  0  0  0  0
   49.3550   34.6400   43.3060 H   0  0  0  0  0  0  0  0  0  0  0  0
   50.4880   34.3470   41.8740 H   0  0  0  0  0  0  0  0  0  0  0  0
   41.5330   32.6900   37.8370 O   0  0  0  0  0  0  0  0  0  0  0  0
   40.8890   31.5000   37.8520 C   0  0  0  0  0  0  0  0  0  0  0  0
   39.6200   31.4110   37.5340 O   0  0  0  0  0  0  0  0  0  0  0  0
   41.0530   30.0380   38.1140 C   0  0  2  0  0  3  0  0  0  0  0  0
   42.4520   29.6530   37.6170 C   0  0  0  0  0  3  0  0  0  0  0  0
   43.2410   29.8590   38.3430 H   0  0  0  0  0  0  0  0  0  0  0  0
   42.2640   28.1610   37.3990 C   0  0  0  0  0  3  0  0  0  0  0  0
   42.9070   27.7630   36.5870 H   0  0  0  0  0  0  0  0  0  0  0  0
   40.9420   27.9830   37.0260 O   0  0  0  0  0  0  0  0  0  0  0  0
   40.2150   29.1160   37.3320 C   0  0  0  0  0  3  0  0  0  0  0  0
   39.2580   28.8360   37.8210 H   0  0  0  0  0  0  0  0  0  0  0  0
  1  7  1  6  0  0  0
  1  6  1  0  0  0  0
  1  2  1  0  0  0  0
  2  8  1  6  0  0  0
  2  3  1  0  0  0  0
  2 17  1  0  0  0  0
  4 10  1  0  0  0  0
  4  3  1  0  0  0  0
  5  6  1  0  0  0  0
  5 11  1  1  0  0  0
  5  4  1  0  0  0  0
  6 12  1  1  0  0  0
  9  4  1  0  0  0  0
 13  1  1  0  0  0  0
 14 13  1  0  0  0  0
 15  5  1  0  0  0  0
 16 15  1  0  0  0  0
 17 18  1  0  0  0  0
 18 23  1  0  0  0  0
 19 18  2  0  0  0  0
 19 20  1  0  0  0  0
 20 21  2  0  0  0  0
 21 22  1  0  0  0  0
 22 25  1  0  0  0  0
 23 22  2  0  0  0  0
 24 19  1  0  0  0  0
 26 27  1  0  0  0  0
 26 20  1  0  0  0  0
 26 28  1  0  0  0  0
 27 31  1  0  0  0  0
 27 28  1  0  0  0  0
 28 32  1  0  0  0  0
 29 26  1  0  0  0  0
 30 27  1  0  0  0  0
 33 28  1  0  0  0  0
 34 35  1  0  0  0  0
 34  6  1  0  0  0  0
 36 35  2  0  0  0  0
 37 35  1  6  0  0  0
 38 37  1  0  0  0  0
 38 39  1  0  0  0  0
 40 38  1  0  0  0  0
 41 40  1  0  0  0  0
 42 43  1  0  0  0  0
 42 40  1  0  0  0  0
 43 44  1  0  0  0  0
 43 37  1  0  0  0  0
M  END
>  <minimizedAffinity>
-5.63167238

>  <minimizedRMSD>
0.188257292

$$$$
