
 OpenBabel03252508113D

 46 49  0  0  1  0  0  0  0  0999 V2000
   37.8780   30.4610   38.0110 C   0  0  0  0  0  0  0  0  0  0  0  0
   37.9800   29.8020   39.2190 C   0  0  0  0  0  0  0  0  0  0  0  0
   36.9900   28.9690   39.6560 C   0  0  0  0  0  0  0  0  0  0  0  0
   35.8920   28.8360   38.8100 N   0  0  0  0  0  0  0  0  0  0  0  0
   35.7910   29.4650   37.6520 C   0  0  0  0  0  0  0  0  0  0  0  0
   36.7980   30.2820   37.2630 N   0  0  0  0  0  0  0  0  0  0  0  0
   38.6290   31.1280   37.6210 H   0  0  0  0  0  0  0  0  0  0  0  0
   34.9040   29.3180   37.0350 H   0  0  0  0  0  0  0  0  0  0  0  0
   36.9230   28.2300   40.8520 C   0  0  0  0  0  0  0  0  0  0  0  0
   36.8460   28.8440   42.1180 C   0  0  0  0  0  0  0  0  0  0  0  0
   36.8350   28.1580   43.3030 C   0  0  0  0  0  0  0  0  0  0  0  0
   36.9060   26.7770   43.2910 C   0  0  0  0  0  0  0  0  0  0  0  0
   36.9840   26.1410   42.0180 C   0  0  0  0  0  0  0  0  0  0  0  0
   37.0590   24.7730   41.9910 C   0  0  0  0  0  0  0  0  0  0  0  0
   37.1370   24.1000   40.7930 C   0  0  0  0  0  0  0  0  0  0  0  0
   37.1380   24.8310   39.5900 C   0  0  0  0  0  0  0  0  0  0  0  0
   37.0590   26.2390   39.6800 C   0  0  0  0  0  0  0  0  0  0  0  0
   36.9880   26.8720   40.8770 C   0  0  0  0  0  0  0  0  0  0  0  0
   36.7900   29.9290   42.1380 H   0  0  0  0  0  0  0  0  0  0  0  0
   36.7720   28.7360   44.2210 H   0  0  0  0  0  0  0  0  0  0  0  0
   36.9000   26.2290   44.2020 H   0  0  0  0  0  0  0  0  0  0  0  0
   37.0540   24.2430   42.9330 H   0  0  0  0  0  0  0  0  0  0  0  0
   37.1940   23.0220   40.8500 H   0  0  0  0  0  0  0  0  0  0  0  0
   37.1990   24.2060   38.7320 H   0  0  0  0  0  0  0  0  0  0  0  0
   37.0490   26.5800   38.6650 H   0  0  0  0  0  0  0  0  0  0  0  0
   39.1130   30.0130   39.9540 O   0  0  0  0  0  0  0  0  0  0  0  0
   39.5930   30.8920   42.3780 O   0  0  0  0  0  0  0  0  0  0  0  0
   39.3960   31.3230   40.9560 P   0  0  1  0  0  0  0  0  0  0  0  0
   40.7700   32.1910   40.5020 O   0  0  0  0  0  0  0  0  0  0  0  0
   41.0090   31.8330   39.1590 C   0  0  0  0  0  0  0  0  0  0  0  0
   40.3640   31.0240   38.8160 H   0  0  0  0  0  0  0  0  0  0  0  0
   42.0500   31.4450   39.1640 H   0  0  0  0  0  0  0  0  0  0  0  0
   41.0080   33.0430   38.2540 C   0  0  1  0  0  3  0  0  0  0  0  0
   41.5430   34.2470   39.0390 C   0  0  0  0  0  3  0  0  0  0  0  0
   41.2980   34.2200   40.0980 H   0  0  0  0  0  0  0  0  0  0  0  0
   43.0360   34.0510   38.7500 C   0  0  0  0  0  3  0  0  0  0  0  0
   43.6380   34.9160   39.0930 H   0  0  0  0  0  0  0  0  0  0  0  0
   42.9740   33.9610   37.3600 O   0  0  0  0  0  0  0  0  0  0  0  0
   42.0390   32.9440   37.1660 C   0  0  0  0  0  3  0  0  0  0  0  0
   41.5490   33.1570   36.1850 H   0  0  0  0  0  0  0  0  0  0  0  0
   38.0550   32.3460   40.8760 O   0  0  0  0  0  0  0  0  0  0  0  0
   38.0180   33.6540   40.4470 C   0  0  0  0  0  0  0  0  0  0  0  0
   37.3030   33.6730   39.4530 O   0  0  0  0  0  0  0  0  0  0  0  0
   38.8030   34.4990   41.2890 N   0  0  0  0  0  0  0  0  0  0  0  0
   39.6550   35.0940   41.4020 H   0  0  0  0  0  0  0  0  0  0  0  0
   38.6000   34.8000   42.2930 H   0  0  0  0  0  0  0  0  0  0  0  0
  1  2  1  0  0  0  0
  2  3  2  0  0  0  0
  2 26  1  0  0  0  0
  3  9  1  0  0  0  0
  4  3  1  0  0  0  0
  5  4  2  0  0  0  0
  6  5  1  0  0  0  0
  6  1  2  0  0  0  0
  7  1  1  0  0  0  0
  8  5  1  0  0  0  0
  9 18  2  0  0  0  0
  9 10  1  0  0  0  0
 10 19  1  0  0  0  0
 10 11  2  0  0  0  0
 11 20  1  0  0  0  0
 12 11  1  0  0  0  0
 12 21  1  0  0  0  0
 13 12  2  0  0  0  0
 14 13  1  0  0  0  0
 14 22  1  0  0  0  0
 15 23  1  0  0  0  0
 15 14  2  0  0  0  0
 16 17  2  0  0  0  0
 16 15  1  0  0  0  0
 17 18  1  0  0  0  0
 18 13  1  0  0  0  0
 24 16  1  0  0  0  0
 25 17  1  0  0  0  0
 26 28  1  0  0  0  0
 28 27  2  1  0  0  0
 29 28  1  0  0  0  0
 30 32  1  0  0  0  0
 30 29  1  0  0  0  0
 31 30  1  0  0  0  0
 33 34  1  0  0  0  0
 33 30  1  1  0  0  0
 34 35  1  0  0  0  0
 36 34  1  0  0  0  0
 36 37  1  0  0  0  0
 38 36  1  0  0  0  0
 39 38  1  0  0  0  0
 39 33  1  0  0  0  0
 40 39  1  0  0  0  0
 41 28  1  0  0  0  0
 42 41  1  0  0  0  0
 42 44  1  0  0  0  0
 43 42  2  0  0  0  0
 44 45  1  0  0  0  0
 44 46  1  0  0  0  0
M  END
>  <minimizedAffinity>
-6.20992231

$$$$

 OpenBabel03252508113D

 46 49  0  0  1  0  0  0  0  0999 V2000
   37.5850   30.0730   37.7060 C   0  0  0  0  0  0  0  0  0  0  0  0
   37.7880   29.4870   38.9390 C   0  0  0  0  0  0  0  0  0  0  0  0
   36.8000   28.7740   39.5550 C   0  0  0  0  0  0  0  0  0  0  0  0
   35.5970   28.6810   38.8610 N   0  0  0  0  0  0  0  0  0  0  0  0
   35.3970   29.2400   37.6810 C   0  0  0  0  0  0  0  0  0  0  0  0
   36.4070   29.9400   37.1110 N   0  0  0  0  0  0  0  0  0  0  0  0
   38.3290   30.6460   37.1780 H   0  0  0  0  0  0  0  0  0  0  0  0
   34.4300   29.1310   37.1890 H   0  0  0  0  0  0  0  0  0  0  0  0
   36.8290   28.1230   40.8020 C   0  0  0  0  0  0  0  0  0  0  0  0
   36.8000   28.8240   42.0240 C   0  0  0  0  0  0  0  0  0  0  0  0
   36.8830   28.2270   43.2530 C   0  0  0  0  0  0  0  0  0  0  0  0
   37.0060   26.8520   43.3360 C   0  0  0  0  0  0  0  0  0  0  0  0
   37.0370   26.1280   42.1080 C   0  0  0  0  0  0  0  0  0  0  0  0
   37.1630   24.7640   42.1750 C   0  0  0  0  0  0  0  0  0  0  0  0
   37.1990   24.0090   41.0260 C   0  0  0  0  0  0  0  0  0  0  0  0
   37.1040   24.6490   39.7760 C   0  0  0  0  0  0  0  0  0  0  0  0
   36.9760   26.0560   39.7690 C   0  0  0  0  0  0  0  0  0  0  0  0
   36.9480   26.7730   40.9200 C   0  0  0  0  0  0  0  0  0  0  0  0
   36.7030   29.9050   41.9690 H   0  0  0  0  0  0  0  0  0  0  0  0
   36.8490   28.8680   44.1300 H   0  0  0  0  0  0  0  0  0  0  0  0
   37.0730   26.3730   44.2820 H   0  0  0  0  0  0  0  0  0  0  0  0
   37.2320   24.3050   43.1500 H   0  0  0  0  0  0  0  0  0  0  0  0
   37.3010   22.9410   41.1560 H   0  0  0  0  0  0  0  0  0  0  0  0
   37.1410   23.9660   38.9620 H   0  0  0  0  0  0  0  0  0  0  0  0
   36.8960   26.3220   38.7350 H   0  0  0  0  0  0  0  0  0  0  0  0
   39.0190   29.6470   39.5120 O   0  0  0  0  0  0  0  0  0  0  0  0
   39.8770   30.4110   41.8700 O   0  0  0  0  0  0  0  0  0  0  0  0
   39.4730   30.9080   40.5150 P   0  0  1  0  0  0  0  0  0  0  0  0
   40.7740   31.7830   39.8940 O   0  0  0  0  0  0  0  0  0  0  0  0
   40.8220   31.4560   38.5220 C   0  0  0  0  0  0  0  0  0  0  0  0
   40.3770   32.2240   37.8890 H   0  0  0  0  0  0  0  0  0  0  0  0
   40.1840   30.5500   38.4390 H   0  0  0  0  0  0  0  0  0  0  0  0
   42.2120   31.0420   38.0980 C   0  0  1  0  0  3  0  0  0  0  0  0
   42.3420   29.5210   38.2530 C   0  0  0  0  0  3  0  0  0  0  0  0
   41.7590   29.1160   39.0760 H   0  0  0  0  0  0  0  0  0  0  0  0
   41.8150   29.1140   36.8710 C   0  0  0  0  0  3  0  0  0  0  0  0
   41.9620   28.0330   36.6770 H   0  0  0  0  0  0  0  0  0  0  0  0
   42.6410   29.9160   36.0850 O   0  0  0  0  0  0  0  0  0  0  0  0
   42.4250   31.1860   36.6180 C   0  0  0  0  0  3  0  0  0  0  0  0
   43.3670   31.7600   36.4450 H   0  0  0  0  0  0  0  0  0  0  0  0
   38.1500   31.9450   40.6860 O   0  0  0  0  0  0  0  0  0  0  0  0
   38.0590   33.2630   40.2950 C   0  0  0  0  0  0  0  0  0  0  0  0
   37.3270   33.2830   39.3140 O   0  0  0  0  0  0  0  0  0  0  0  0
   38.8260   34.1120   41.1490 N   0  0  0  0  0  0  0  0  0  0  0  0
   39.6560   34.7350   41.2670 H   0  0  0  0  0  0  0  0  0  0  0  0
   38.6280   34.3760   42.1640 H   0  0  0  0  0  0  0  0  0  0  0  0
  1  2  1  0  0  0  0
  2 26  1  0  0  0  0
  2  3  2  0  0  0  0
  3  9  1  0  0  0  0
  4  3  1  0  0  0  0
  5  4  2  0  0  0  0
  6  5  1  0  0  0  0
  6  1  2  0  0  0  0
  7  1  1  0  0  0  0
  8  5  1  0  0  0  0
  9 18  2  0  0  0  0
  9 10  1  0  0  0  0
 10 11  2  0  0  0  0
 11 12  1  0  0  0  0
 11 20  1  0  0  0  0
 12 21  1  0  0  0  0
 13 14  1  0  0  0  0
 13 12  2  0  0  0  0
 14 22  1  0  0  0  0
 15 23  1  0  0  0  0
 15 14  2  0  0  0  0
 16 15  1  0  0  0  0
 17 16  2  0  0  0  0
 17 18  1  0  0  0  0
 18 13  1  0  0  0  0
 19 10  1  0  0  0  0
 24 16  1  0  0  0  0
 25 17  1  0  0  0  0
 26 28  1  0  0  0  0
 28 41  1  0  0  0  0
 28 27  2  1  0  0  0
 29 28  1  0  0  0  0
 30 29  1  0  0  0  0
 31 30  1  0  0  0  0
 32 30  1  0  0  0  0
 33 34  1  0  0  0  0
 33 30  1  6  0  0  0
 34 35  1  0  0  0  0
 36 34  1  0  0  0  0
 37 36  1  0  0  0  0
 38 39  1  0  0  0  0
 38 36  1  0  0  0  0
 39 33  1  0  0  0  0
 40 39  1  0  0  0  0
 42 41  1  0  0  0  0
 42 44  1  0  0  0  0
 43 42  2  0  0  0  0
 44 45  1  0  0  0  0
 44 46  1  0  0  0  0
M  END
>  <minimizedAffinity>
-5.83422327

$$$$

 OpenBabel03252508113D

 46 49  0  0  1  0  0  0  0  0999 V2000
   42.0870   29.8080   41.7680 C   0  0  0  0  0  0  0  0  0  0  0  0
   40.7590   29.4410   41.8330 C   0  0  0  0  0  0  0  0  0  0  0  0
   40.3400   28.4480   42.6720 C   0  0  0  0  0  0  0  0  0  0  0  0
   41.3310   27.8470   43.4430 N   0  0  0  0  0  0  0  0  0  0  0  0
   42.6040   28.1960   43.3840 C   0  0  0  0  0  0  0  0  0  0  0  0
   42.9710   29.1840   42.5350 N   0  0  0  0  0  0  0  0  0  0  0  0
   42.4700   30.5830   41.1240 H   0  0  0  0  0  0  0  0  0  0  0  0
   43.3330   27.6850   44.0140 H   0  0  0  0  0  0  0  0  0  0  0  0
   39.0400   27.9430   42.8610 C   0  0  0  0  0  0  0  0  0  0  0  0
   38.0980   28.5710   43.6990 C   0  0  0  0  0  0  0  0  0  0  0  0
   36.8450   28.0790   43.9490 C   0  0  0  0  0  0  0  0  0  0  0  0
   36.4490   26.8920   43.3590 C   0  0  0  0  0  0  0  0  0  0  0  0
   37.3920   26.2440   42.5080 C   0  0  0  0  0  0  0  0  0  0  0  0
   37.0150   25.0640   41.9200 C   0  0  0  0  0  0  0  0  0  0  0  0
   37.8790   24.3900   41.0890 C   0  0  0  0  0  0  0  0  0  0  0  0
   39.1580   24.9240   40.8440 C   0  0  0  0  0  0  0  0  0  0  0  0
   39.4910   26.1420   41.4770 C   0  0  0  0  0  0  0  0  0  0  0  0
   38.6180   26.7800   42.2960 C   0  0  0  0  0  0  0  0  0  0  0  0
   38.3990   29.5040   44.1670 H   0  0  0  0  0  0  0  0  0  0  0  0
   36.2010   28.6490   44.6130 H   0  0  0  0  0  0  0  0  0  0  0  0
   35.4810   26.4950   43.5440 H   0  0  0  0  0  0  0  0  0  0  0  0
   36.0250   24.6830   42.1290 H   0  0  0  0  0  0  0  0  0  0  0  0
   37.5140   23.4670   40.6620 H   0  0  0  0  0  0  0  0  0  0  0  0
   39.7350   24.3190   40.1860 H   0  0  0  0  0  0  0  0  0  0  0  0
   40.4800   26.3710   41.1350 H   0  0  0  0  0  0  0  0  0  0  0  0
   39.8830   30.1140   41.0280 O   0  0  0  0  0  0  0  0  0  0  0  0
   40.3720   28.7420   38.8480 O   0  0  0  0  0  0  0  0  0  0  0  0
   39.8460   30.0500   39.3560 P   0  0  1  0  0  0  0  0  0  0  0  0
   38.2850   30.2340   38.7430 O   0  0  0  0  0  0  0  0  0  0  0  0
   37.4320   30.1410   39.8630 C   0  0  0  0  0  0  0  0  0  0  0  0
   36.7140   30.9600   39.9160 H   0  0  0  0  0  0  0  0  0  0  0  0
   38.1150   30.2450   40.7330 H   0  0  0  0  0  0  0  0  0  0  0  0
   36.8050   28.7700   39.9720 C   0  0  1  0  0  3  0  0  0  0  0  0
   35.3990   28.9170   40.5660 C   0  0  0  0  0  3  0  0  0  0  0  0
   35.3080   29.7380   41.2730 H   0  0  0  0  0  0  0  0  0  0  0  0
   34.6310   29.1480   39.2580 C   0  0  0  0  0  3  0  0  0  0  0  0
   33.5350   29.1250   39.4160 H   0  0  0  0  0  0  0  0  0  0  0  0
   35.0920   28.0420   38.5440 O   0  0  0  0  0  0  0  0  0  0  0  0
   36.4760   28.1840   38.6280 C   0  0  0  0  0  3  0  0  0  0  0  0
   36.8980   27.1510   38.5740 H   0  0  0  0  0  0  0  0  0  0  0  0
   40.8160   31.2980   38.7610 O   0  0  0  0  0  0  0  0  0  0  0  0
   40.4070   32.4590   38.1420 C   0  0  0  0  0  0  0  0  0  0  0  0
   40.6490   33.3700   38.9230 O   0  0  0  0  0  0  0  0  0  0  0  0
   39.8630   32.1950   36.8490 N   0  0  0  0  0  0  0  0  0  0  0  0
   39.0240   32.1700   36.2270 H   0  0  0  0  0  0  0  0  0  0  0  0
   40.3810   31.8820   35.9690 H   0  0  0  0  0  0  0  0  0  0  0  0
  1  2  2  0  0  0  0
  1  6  1  0  0  0  0
  2  3  1  0  0  0  0
  3  9  1  0  0  0  0
  3  4  2  0  0  0  0
  5  4  1  0  0  0  0
  5  8  1  0  0  0  0
  6  5  2  0  0  0  0
  7  1  1  0  0  0  0
  9 10  1  0  0  0  0
 10 11  2  0  0  0  0
 10 19  1  0  0  0  0
 11 20  1  0  0  0  0
 12 21  1  0  0  0  0
 12 11  1  0  0  0  0
 13 12  2  0  0  0  0
 14 22  1  0  0  0  0
 14 13  1  0  0  0  0
 15 14  2  0  0  0  0
 16 15  1  0  0  0  0
 16 17  2  0  0  0  0
 17 18  1  0  0  0  0
 18 13  1  0  0  0  0
 18  9  2  0  0  0  0
 23 15  1  0  0  0  0
 24 16  1  0  0  0  0
 25 17  1  0  0  0  0
 26  2  1  0  0  0  0
 28 27  2  6  0  0  0
 28 26  1  0  0  0  0
 29 28  1  0  0  0  0
 29 30  1  0  0  0  0
 30 31  1  0  0  0  0
 30 32  1  0  0  0  0
 33 30  1  6  0  0  0
 33 34  1  0  0  0  0
 34 35  1  0  0  0  0
 36 37  1  0  0  0  0
 36 34  1  0  0  0  0
 38 39  1  0  0  0  0
 38 36  1  0  0  0  0
 39 33  1  0  0  0  0
 40 39  1  0  0  0  0
 41 28  1  0  0  0  0
 42 41  1  0  0  0  0
 42 43  2  0  0  0  0
 44 42  1  0  0  0  0
 45 44  1  0  0  0  0
 46 44  1  0  0  0  0
M  END
>  <minimizedAffinity>
-5.8039279

$$$$

 OpenBabel03252508113D

 46 49  0  0  1  0  0  0  0  0999 V2000
   38.0100   29.8690   37.5330 C   0  0  0  0  0  0  0  0  0  0  0  0
   38.1970   29.3290   38.7890 C   0  0  0  0  0  0  0  0  0  0  0  0
   37.1390   28.9170   39.5480 C   0  0  0  0  0  0  0  0  0  0  0  0
   35.8810   29.0770   38.9710 N   0  0  0  0  0  0  0  0  0  0  0  0
   35.6970   29.5940   37.7700 C   0  0  0  0  0  0  0  0  0  0  0  0
   36.7780   29.9900   37.0570 N   0  0  0  0  0  0  0  0  0  0  0  0
   38.8090   30.2090   36.8960 H   0  0  0  0  0  0  0  0  0  0  0  0
   34.6860   29.6940   37.3750 H   0  0  0  0  0  0  0  0  0  0  0  0
   37.1440   28.3570   40.8380 C   0  0  0  0  0  0  0  0  0  0  0  0
   37.3380   29.1310   41.9990 C   0  0  0  0  0  0  0  0  0  0  0  0
   37.4040   28.6120   43.2650 C   0  0  0  0  0  0  0  0  0  0  0  0
   37.2780   27.2480   43.4490 C   0  0  0  0  0  0  0  0  0  0  0  0
   37.0810   26.4500   42.2840 C   0  0  0  0  0  0  0  0  0  0  0  0
   36.9590   25.0950   42.4510 C   0  0  0  0  0  0  0  0  0  0  0  0
   36.7680   24.2720   41.3660 C   0  0  0  0  0  0  0  0  0  0  0  0
   36.6960   24.8330   40.0780 C   0  0  0  0  0  0  0  0  0  0  0  0
   36.8290   26.2350   39.9660 C   0  0  0  0  0  0  0  0  0  0  0  0
   37.0210   27.0200   41.0560 C   0  0  0  0  0  0  0  0  0  0  0  0
   37.4380   30.2050   41.8650 H   0  0  0  0  0  0  0  0  0  0  0  0
   37.5560   29.3060   44.0880 H   0  0  0  0  0  0  0  0  0  0  0  0
   37.3290   26.8290   44.4250 H   0  0  0  0  0  0  0  0  0  0  0  0
   37.0180   24.6970   43.4540 H   0  0  0  0  0  0  0  0  0  0  0  0
   36.6810   23.2140   41.5750 H   0  0  0  0  0  0  0  0  0  0  0  0
   36.5440   24.1020   39.3210 H   0  0  0  0  0  0  0  0  0  0  0  0
   36.7190   26.4420   38.9210 H   0  0  0  0  0  0  0  0  0  0  0  0
   39.4840   29.2190   39.2380 O   0  0  0  0  0  0  0  0  0  0  0  0
   41.8960   30.0780   39.8070 O   0  0  0  0  0  0  0  0  0  0  0  0
   40.7370   30.2660   38.8750 P   0  0  1  0  0  0  0  0  0  0  0  0
   41.3170   30.0510   37.3060 O   0  0  0  0  0  0  0  0  0  0  0  0
   42.0980   28.8770   37.3550 C   0  0  0  0  0  0  0  0  0  0  0  0
   41.5250   28.0010   37.6610 H   0  0  0  0  0  0  0  0  0  0  0  0
   42.8410   29.0810   38.1560 H   0  0  0  0  0  0  0  0  0  0  0  0
   42.8850   28.6790   36.0800 C   0  0  1  0  0  3  0  0  0  0  0  0
   43.3150   30.0520   35.5490 C   0  0  0  0  0  3  0  0  0  0  0  0
   42.6030   30.8450   35.7640 H   0  0  0  0  0  0  0  0  0  0  0  0
   44.6320   30.1850   36.3230 C   0  0  0  0  0  3  0  0  0  0  0  0
   45.2260   31.0550   35.9780 H   0  0  0  0  0  0  0  0  0  0  0  0
   45.2110   28.9670   35.9680 O   0  0  0  0  0  0  0  0  0  0  0  0
   44.2250   28.0480   36.3280 C   0  0  0  0  0  3  0  0  0  0  0  0
   44.3460   27.1780   35.6390 H   0  0  0  0  0  0  0  0  0  0  0  0
   40.1620   31.8470   39.0310 O   0  0  0  0  0  0  0  0  0  0  0  0
   40.7330   33.0020   38.5420 C   0  0  0  0  0  0  0  0  0  0  0  0
   40.8700   33.7520   39.5000 O   0  0  0  0  0  0  0  0  0  0  0  0
   40.9550   32.9160   37.1350 N   0  0  0  0  0  0  0  0  0  0  0  0
   40.7010   33.2410   36.1750 H   0  0  0  0  0  0  0  0  0  0  0  0
   41.6720   32.3170   36.6180 H   0  0  0  0  0  0  0  0  0  0  0  0
  1  2  1  0  0  0  0
  2 26  1  0  0  0  0
  2  3  2  0  0  0  0
  3  9  1  0  0  0  0
  4  3  1  0  0  0  0
  5  4  2  0  0  0  0
  6  1  2  0  0  0  0
  6  5  1  0  0  0  0
  7  1  1  0  0  0  0
  8  5  1  0  0  0  0
  9 18  2  0  0  0  0
  9 10  1  0  0  0  0
 10 11  2  0  0  0  0
 11 12  1  0  0  0  0
 11 20  1  0  0  0  0
 12 21  1  0  0  0  0
 13 14  1  0  0  0  0
 13 12  2  0  0  0  0
 14 22  1  0  0  0  0
 15 23  1  0  0  0  0
 15 14  2  0  0  0  0
 16 15  1  0  0  0  0
 17 16  2  0  0  0  0
 17 18  1  0  0  0  0
 18 13  1  0  0  0  0
 19 10  1  0  0  0  0
 24 16  1  0  0  0  0
 25 17  1  0  0  0  0
 28 41  1  0  0  0  0
 28 26  1  0  0  0  0
 28 27  2  1  0  0  0
 29 30  1  0  0  0  0
 29 28  1  0  0  0  0
 30 31  1  0  0  0  0
 30 32  1  0  0  0  0
 33 39  1  0  0  0  0
 33 30  1  1  0  0  0
 34 35  1  0  0  0  0
 34 33  1  0  0  0  0
 34 36  1  0  0  0  0
 37 36  1  0  0  0  0
 38 36  1  0  0  0  0
 38 39  1  0  0  0  0
 40 39  1  0  0  0  0
 42 41  1  0  0  0  0
 42 43  2  0  0  0  0
 44 42  1  0  0  0  0
 45 44  1  0  0  0  0
 46 44  1  0  0  0  0
M  END
>  <minimizedAffinity>
-5.77206564

$$$$

 OpenBabel03252508113D

 46 49  0  0  1  0  0  0  0  0999 V2000
   41.2640   29.7660   39.3460 C   0  0  0  0  0  0  0  0  0  0  0  0
   40.0790   29.3300   39.9030 C   0  0  0  0  0  0  0  0  0  0  0  0
   40.0460   28.7770   41.1520 C   0  0  0  0  0  0  0  0  0  0  0  0
   41.2700   28.6900   41.8090 N   0  0  0  0  0  0  0  0  0  0  0  0
   42.4070   29.1060   41.2790 C   0  0  0  0  0  0  0  0  0  0  0  0
   42.3890   29.6450   40.0370 N   0  0  0  0  0  0  0  0  0  0  0  0
   41.3450   30.2080   38.3670 H   0  0  0  0  0  0  0  0  0  0  0  0
   43.3340   29.0090   41.8460 H   0  0  0  0  0  0  0  0  0  0  0  0
   38.9420   28.2770   41.8660 C   0  0  0  0  0  0  0  0  0  0  0  0
   38.3070   29.0090   42.8890 C   0  0  0  0  0  0  0  0  0  0  0  0
   37.2670   28.5320   43.6410 C   0  0  0  0  0  0  0  0  0  0  0  0
   36.7860   27.2560   43.4080 C   0  0  0  0  0  0  0  0  0  0  0  0
   37.4180   26.5030   42.3760 C   0  0  0  0  0  0  0  0  0  0  0  0
   36.9550   25.2350   42.1360 C   0  0  0  0  0  0  0  0  0  0  0  0
   37.5230   24.4580   41.1540 C   0  0  0  0  0  0  0  0  0  0  0  0
   38.5860   24.9770   40.3910 C   0  0  0  0  0  0  0  0  0  0  0  0
   39.0210   26.2890   40.6820 C   0  0  0  0  0  0  0  0  0  0  0  0
   38.4430   27.0290   41.6620 C   0  0  0  0  0  0  0  0  0  0  0  0
   38.6770   30.0130   43.0800 H   0  0  0  0  0  0  0  0  0  0  0  0
   36.8530   29.1860   44.4040 H   0  0  0  0  0  0  0  0  0  0  0  0
   35.9810   26.8700   43.9840 H   0  0  0  0  0  0  0  0  0  0  0  0
   36.1370   24.8680   42.7390 H   0  0  0  0  0  0  0  0  0  0  0  0
   37.1070   23.4680   41.0230 H   0  0  0  0  0  0  0  0  0  0  0  0
   38.9420   24.2890   39.6630 H   0  0  0  0  0  0  0  0  0  0  0  0
   39.8050   26.4840   39.9790 H   0  0  0  0  0  0  0  0  0  0  0  0
   38.9440   29.4790   39.1570 O   0  0  0  0  0  0  0  0  0  0  0  0
   38.2720   31.5530   37.7000 O   0  0  0  0  0  0  0  0  0  0  0  0
   38.0430   30.8820   39.0200 P   0  0  1  0  0  0  0  0  0  0  0  0
   36.3860   30.5950   39.1540 O   0  0  0  0  0  0  0  0  0  0  0  0
   36.2760   29.3070   39.7200 C   0  0  0  0  0  0  0  0  0  0  0  0
   36.0760   29.3320   40.7910 H   0  0  0  0  0  0  0  0  0  0  0  0
   37.2860   28.8660   39.5830 H   0  0  0  0  0  0  0  0  0  0  0  0
   35.3190   28.4370   38.9380 C   0  0  1  0  0  3  0  0  0  0  0  0
   35.2710   28.9370   37.4880 C   0  0  0  0  0  3  0  0  0  0  0  0
   35.4080   30.0110   37.3930 H   0  0  0  0  0  0  0  0  0  0  0  0
   36.4440   28.1180   36.9350 C   0  0  0  0  0  3  0  0  0  0  0  0
   36.5110   28.1910   35.8310 H   0  0  0  0  0  0  0  0  0  0  0  0
   36.0410   26.8540   37.3640 O   0  0  0  0  0  0  0  0  0  0  0  0
   35.8490   27.0470   38.7310 C   0  0  0  0  0  3  0  0  0  0  0  0
   35.0650   26.3140   39.0410 H   0  0  0  0  0  0  0  0  0  0  0  0
   38.5150   31.9320   40.2560 O   0  0  0  0  0  0  0  0  0  0  0  0
   38.2270   33.2740   40.3770 C   0  0  0  0  0  0  0  0  0  0  0  0
   39.1770   33.7810   40.9600 O   0  0  0  0  0  0  0  0  0  0  0  0
   36.9610   33.5880   39.7950 N   0  0  0  0  0  0  0  0  0  0  0  0
   35.9690   33.8830   39.9360 H   0  0  0  0  0  0  0  0  0  0  0  0
   36.6980   33.6010   38.7600 H   0  0  0  0  0  0  0  0  0  0  0  0
  1  2  2  0  0  0  0
  1  6  1  0  0  0  0
  2  3  1  0  0  0  0
  3  4  2  0  0  0  0
  3  9  1  0  0  0  0
  5  4  1  0  0  0  0
  5  8  1  0  0  0  0
  6  5  2  0  0  0  0
  7  1  1  0  0  0  0
  9 10  1  0  0  0  0
 10 19  1  0  0  0  0
 10 11  2  0  0  0  0
 11 20  1  0  0  0  0
 12 11  1  0  0  0  0
 12 21  1  0  0  0  0
 13 12  2  0  0  0  0
 14 13  1  0  0  0  0
 14 22  1  0  0  0  0
 15 14  2  0  0  0  0
 16 17  2  0  0  0  0
 16 15  1  0  0  0  0
 17 18  1  0  0  0  0
 18  9  2  0  0  0  0
 18 13  1  0  0  0  0
 23 15  1  0  0  0  0
 24 16  1  0  0  0  0
 25 17  1  0  0  0  0
 26  2  1  0  0  0  0
 28 27  2  6  0  0  0
 28 29  1  0  0  0  0
 28 26  1  0  0  0  0
 28 41  1  0  0  0  0
 29 30  1  0  0  0  0
 30 31  1  0  0  0  0
 32 30  1  0  0  0  0
 33 30  1  1  0  0  0
 34 33  1  0  0  0  0
 35 34  1  0  0  0  0
 36 38  1  0  0  0  0
 36 34  1  0  0  0  0
 37 36  1  0  0  0  0
 38 39  1  0  0  0  0
 39 33  1  0  0  0  0
 39 40  1  0  0  0  0
 41 42  1  0  0  0  0
 42 43  2  0  0  0  0
 44 45  1  0  0  0  0
 44 42  1  0  0  0  0
 46 44  1  0  0  0  0
M  END
>  <minimizedAffinity>
-5.65435266

$$$$

 OpenBabel03252508113D

 46 49  0  0  1  0  0  0  0  0999 V2000
   37.6130   29.4640   37.0750 C   0  0  0  0  0  0  0  0  0  0  0  0
   37.8680   29.0110   38.3530 C   0  0  0  0  0  0  0  0  0  0  0  0
   36.8510   28.7350   39.2220 C   0  0  0  0  0  0  0  0  0  0  0  0
   35.5640   28.9380   38.7330 N   0  0  0  0  0  0  0  0  0  0  0  0
   35.3150   29.3720   37.5100 C   0  0  0  0  0  0  0  0  0  0  0  0
   36.3560   29.6340   36.6860 N   0  0  0  0  0  0  0  0  0  0  0  0
   38.3770   29.6960   36.3520 H   0  0  0  0  0  0  0  0  0  0  0  0
   34.2820   29.5110   37.1870 H   0  0  0  0  0  0  0  0  0  0  0  0
   36.9270   28.2780   40.5510 C   0  0  0  0  0  0  0  0  0  0  0  0
   37.0840   29.1520   41.6450 C   0  0  0  0  0  0  0  0  0  0  0  0
   37.2170   28.7390   42.9430 C   0  0  0  0  0  0  0  0  0  0  0  0
   37.2010   27.3870   43.2330 C   0  0  0  0  0  0  0  0  0  0  0  0
   37.0420   26.4890   42.1370 C   0  0  0  0  0  0  0  0  0  0  0  0
   37.0290   25.1460   42.4090 C   0  0  0  0  0  0  0  0  0  0  0  0
   36.8790   24.2290   41.3950 C   0  0  0  0  0  0  0  0  0  0  0  0
   36.7370   24.6830   40.0700 C   0  0  0  0  0  0  0  0  0  0  0  0
   36.7580   26.0780   39.8500 C   0  0  0  0  0  0  0  0  0  0  0  0
   36.9130   26.9570   40.8720 C   0  0  0  0  0  0  0  0  0  0  0  0
   37.0980   30.2170   41.4270 H   0  0  0  0  0  0  0  0  0  0  0  0
   37.3320   29.5030   43.7080 H   0  0  0  0  0  0  0  0  0  0  0  0
   37.3050   27.0500   44.2360 H   0  0  0  0  0  0  0  0  0  0  0  0
   37.1390   24.8320   43.4370 H   0  0  0  0  0  0  0  0  0  0  0  0
   36.8790   23.1880   41.6840 H   0  0  0  0  0  0  0  0  0  0  0  0
   36.6260   23.8860   39.3750 H   0  0  0  0  0  0  0  0  0  0  0  0
   36.6110   26.1940   38.7960 H   0  0  0  0  0  0  0  0  0  0  0  0
   39.1780   28.8460   38.7090 O   0  0  0  0  0  0  0  0  0  0  0  0
   39.5240   31.2380   39.7270 O   0  0  0  0  0  0  0  0  0  0  0  0
   40.2410   30.0730   39.1150 P   0  0  1  0  0  0  0  0  0  0  0  0
   41.4100   29.5670   40.2210 O   0  0  0  0  0  0  0  0  0  0  0  0
   41.2510   28.1690   40.3170 C   0  0  0  0  0  0  0  0  0  0  0  0
   42.1870   27.6270   40.1830 H   0  0  0  0  0  0  0  0  0  0  0  0
   40.5950   27.9120   39.4580 H   0  0  0  0  0  0  0  0  0  0  0  0
   40.4920   27.7810   41.5650 C   0  0  1  0  0  3  0  0  0  0  0  0
   40.7650   26.3030   41.8690 C   0  0  0  0  0  3  0  0  0  0  0  0
   40.9180   25.6970   40.9790 H   0  0  0  0  0  0  0  0  0  0  0  0
   42.0330   26.4820   42.7130 C   0  0  0  0  0  3  0  0  0  0  0  0
   42.3430   25.5340   43.1950 H   0  0  0  0  0  0  0  0  0  0  0  0
   41.5480   27.4150   43.6290 O   0  0  0  0  0  0  0  0  0  0  0  0
   41.0570   28.4230   42.8000 C   0  0  0  0  0  3  0  0  0  0  0  0
   40.2250   28.9110   43.3650 H   0  0  0  0  0  0  0  0  0  0  0  0
   41.0120   30.5870   37.7030 O   0  0  0  0  0  0  0  0  0  0  0  0
   41.0800   31.8680   37.2000 C   0  0  0  0  0  0  0  0  0  0  0  0
   42.2630   32.1830   37.2140 O   0  0  0  0  0  0  0  0  0  0  0  0
   39.7850   32.3580   36.8500 N   0  0  0  0  0  0  0  0  0  0  0  0
   39.0040   33.0230   37.0490 H   0  0  0  0  0  0  0  0  0  0  0  0
   39.1620   32.0480   36.0400 H   0  0  0  0  0  0  0  0  0  0  0  0
  1  2  1  0  0  0  0
  2 26  1  0  0  0  0
  2  3  2  0  0  0  0
  3  9  1  0  0  0  0
  4  3  1  0  0  0  0
  5  4  2  0  0  0  0
  6  1  2  0  0  0  0
  6  5  1  0  0  0  0
  7  1  1  0  0  0  0
  8  5  1  0  0  0  0
  9 18  2  0  0  0  0
  9 10  1  0  0  0  0
 10 11  2  0  0  0  0
 11 12  1  0  0  0  0
 11 20  1  0  0  0  0
 12 21  1  0  0  0  0
 13 14  1  0  0  0  0
 13 12  2  0  0  0  0
 14 22  1  0  0  0  0
 15 23  1  0  0  0  0
 15 14  2  0  0  0  0
 16 15  1  0  0  0  0
 17 16  2  0  0  0  0
 17 18  1  0  0  0  0
 18 13  1  0  0  0  0
 19 10  1  0  0  0  0
 24 16  1  0  0  0  0
 25 17  1  0  0  0  0
 26 28  1  0  0  0  0
 28 27  2  1  0  0  0
 28 29  1  0  0  0  0
 29 30  1  0  0  0  0
 31 30  1  0  0  0  0
 32 30  1  0  0  0  0
 33 30  1  6  0  0  0
 33 34  1  0  0  0  0
 33 39  1  0  0  0  0
 34 36  1  0  0  0  0
 35 34  1  0  0  0  0
 36 37  1  0  0  0  0
 36 38  1  0  0  0  0
 39 40  1  0  0  0  0
 39 38  1  0  0  0  0
 41 28  1  0  0  0  0
 42 43  2  0  0  0  0
 42 41  1  0  0  0  0
 44 45  1  0  0  0  0
 44 42  1  0  0  0  0
 46 44  1  0  0  0  0
M  END
>  <minimizedAffinity>
-5.61651087

$$$$

 OpenBabel03252508113D

 46 49  0  0  1  0  0  0  0  0999 V2000
   37.6250   29.5840   37.1040 C   0  0  0  0  0  0  0  0  0  0  0  0
   37.8990   29.1220   38.3740 C   0  0  0  0  0  0  0  0  0  0  0  0
   36.8950   28.7890   39.2380 C   0  0  0  0  0  0  0  0  0  0  0  0
   35.6000   28.9450   38.7510 N   0  0  0  0  0  0  0  0  0  0  0  0
   35.3330   29.3880   37.5350 C   0  0  0  0  0  0  0  0  0  0  0  0
   36.3630   29.7070   36.7160 N   0  0  0  0  0  0  0  0  0  0  0  0
   38.3790   29.8610   36.3850 H   0  0  0  0  0  0  0  0  0  0  0  0
   34.2960   29.4890   37.2140 H   0  0  0  0  0  0  0  0  0  0  0  0
   36.9900   28.3140   40.5590 C   0  0  0  0  0  0  0  0  0  0  0  0
   37.2190   29.1670   41.6560 C   0  0  0  0  0  0  0  0  0  0  0  0
   37.3720   28.7340   42.9460 C   0  0  0  0  0  0  0  0  0  0  0  0
   37.3040   27.3810   43.2230 C   0  0  0  0  0  0  0  0  0  0  0  0
   37.0720   26.5040   42.1230 C   0  0  0  0  0  0  0  0  0  0  0  0
   37.0060   25.1590   42.3810 C   0  0  0  0  0  0  0  0  0  0  0  0
   36.7850   24.2620   41.3630 C   0  0  0  0  0  0  0  0  0  0  0  0
   36.6240   24.7360   40.0480 C   0  0  0  0  0  0  0  0  0  0  0  0
   36.7020   26.1320   39.8410 C   0  0  0  0  0  0  0  0  0  0  0  0
   36.9260   26.9910   40.8670 C   0  0  0  0  0  0  0  0  0  0  0  0
   37.2750   30.2320   41.4490 H   0  0  0  0  0  0  0  0  0  0  0  0
   37.5450   29.4830   43.7140 H   0  0  0  0  0  0  0  0  0  0  0  0
   37.4220   27.0280   44.2180 H   0  0  0  0  0  0  0  0  0  0  0  0
   37.1330   24.8290   43.4030 H   0  0  0  0  0  0  0  0  0  0  0  0
   36.7470   23.2180   41.6420 H   0  0  0  0  0  0  0  0  0  0  0  0
   36.4570   23.9530   39.3480 H   0  0  0  0  0  0  0  0  0  0  0  0
   36.5280   26.2670   38.7930 H   0  0  0  0  0  0  0  0  0  0  0  0
   39.2150   29.0070   38.7290 O   0  0  0  0  0  0  0  0  0  0  0  0
   39.4310   31.4500   39.6580 O   0  0  0  0  0  0  0  0  0  0  0  0
   40.2180   30.2680   39.1790 P   0  0  1  0  0  0  0  0  0  0  0  0
   41.2740   29.8340   40.4210 O   0  0  0  0  0  0  0  0  0  0  0  0
   42.4010   30.6660   40.2590 C   0  0  0  0  0  0  0  0  0  0  0  0
   42.1350   31.6990   40.0340 H   0  0  0  0  0  0  0  0  0  0  0  0
   42.9150   30.2550   39.3640 H   0  0  0  0  0  0  0  0  0  0  0  0
   43.3680   30.5220   41.4120 C   0  0  1  0  0  3  0  0  0  0  0  0
   44.1600   31.8280   41.5580 C   0  0  0  0  0  3  0  0  0  0  0  0
   44.3350   32.3380   40.6140 H   0  0  0  0  0  0  0  0  0  0  0  0
   43.1890   32.5700   42.4840 C   0  0  0  0  0  3  0  0  0  0  0  0
   43.6290   33.5110   42.8710 H   0  0  0  0  0  0  0  0  0  0  0  0
   43.0540   31.5970   43.4740 O   0  0  0  0  0  0  0  0  0  0  0  0
   42.6700   30.4740   42.7410 C   0  0  0  0  0  3  0  0  0  0  0  0
   43.0430   29.5890   43.3120 H   0  0  0  0  0  0  0  0  0  0  0  0
   41.1240   30.7260   37.8290 O   0  0  0  0  0  0  0  0  0  0  0  0
   41.1060   31.9390   37.1760 C   0  0  0  0  0  0  0  0  0  0  0  0
   42.2740   32.2930   37.0730 O   0  0  0  0  0  0  0  0  0  0  0  0
   39.7730   32.3400   36.8610 N   0  0  0  0  0  0  0  0  0  0  0  0
   38.9800   32.9980   37.0340 H   0  0  0  0  0  0  0  0  0  0  0  0
   39.1130   31.9160   36.1370 H   0  0  0  0  0  0  0  0  0  0  0  0
  1  2  1  0  0  0  0
  2 26  1  0  0  0  0
  2  3  2  0  0  0  0
  3  9  1  0  0  0  0
  4  3  1  0  0  0  0
  5  4  2  0  0  0  0
  6  1  2  0  0  0  0
  6  5  1  0  0  0  0
  7  1  1  0  0  0  0
  8  5  1  0  0  0  0
  9 18  2  0  0  0  0
  9 10  1  0  0  0  0
 10 11  2  0  0  0  0
 11 12  1  0  0  0  0
 11 20  1  0  0  0  0
 12 21  1  0  0  0  0
 13 14  1  0  0  0  0
 13 12  2  0  0  0  0
 14 22  1  0  0  0  0
 15 23  1  0  0  0  0
 15 14  2  0  0  0  0
 16 15  1  0  0  0  0
 17 16  2  0  0  0  0
 17 18  1  0  0  0  0
 18 13  1  0  0  0  0
 19 10  1  0  0  0  0
 24 16  1  0  0  0  0
 25 17  1  0  0  0  0
 26 28  1  0  0  0  0
 28 27  2  1  0  0  0
 28 29  1  0  0  0  0
 30 29  1  0  0  0  0
 31 30  1  0  0  0  0
 32 30  1  0  0  0  0
 33 30  1  6  0  0  0
 33 34  1  0  0  0  0
 33 39  1  0  0  0  0
 34 36  1  0  0  0  0
 35 34  1  0  0  0  0
 36 37  1  0  0  0  0
 36 38  1  0  0  0  0
 39 40  1  0  0  0  0
 39 38  1  0  0  0  0
 41 28  1  0  0  0  0
 42 41  1  0  0  0  0
 43 42  2  0  0  0  0
 44 45  1  0  0  0  0
 44 42  1  0  0  0  0
 46 44  1  0  0  0  0
M  END
>  <minimizedAffinity>
-5.60732746

$$$$

 OpenBabel03252508113D

 46 49  0  0  1  0  0  0  0  0999 V2000
   39.9480   30.6140   38.7470 C   0  0  0  0  0  0  0  0  0  0  0  0
   39.4230   29.6580   39.5920 C   0  0  0  0  0  0  0  0  0  0  0  0
   39.5400   29.7700   40.9480 C   0  0  0  0  0  0  0  0  0  0  0  0
   40.2140   30.8980   41.4060 N   0  0  0  0  0  0  0  0  0  0  0  0
   40.7190   31.8160   40.6010 C   0  0  0  0  0  0  0  0  0  0  0  0
   40.5790   31.6600   39.2640 N   0  0  0  0  0  0  0  0  0  0  0  0
   39.8840   30.5730   37.6720 H   0  0  0  0  0  0  0  0  0  0  0  0
   41.2370   32.6780   41.0240 H   0  0  0  0  0  0  0  0  0  0  0  0
   39.0770   28.8960   41.9480 C   0  0  0  0  0  0  0  0  0  0  0  0
   37.8950   29.1370   42.6770 C   0  0  0  0  0  0  0  0  0  0  0  0
   37.4450   28.3380   43.6940 C   0  0  0  0  0  0  0  0  0  0  0  0
   38.1720   27.2180   44.0540 C   0  0  0  0  0  0  0  0  0  0  0  0
   39.3710   26.9600   43.3260 C   0  0  0  0  0  0  0  0  0  0  0  0
   40.1040   25.8560   43.6740 C   0  0  0  0  0  0  0  0  0  0  0  0
   41.2700   25.5540   43.0100 C   0  0  0  0  0  0  0  0  0  0  0  0
   41.7050   26.3880   41.9640 C   0  0  0  0  0  0  0  0  0  0  0  0
   40.9090   27.5120   41.6490 C   0  0  0  0  0  0  0  0  0  0  0  0
   39.7660   27.7860   42.3260 C   0  0  0  0  0  0  0  0  0  0  0  0
   37.3160   30.0140   42.4020 H   0  0  0  0  0  0  0  0  0  0  0  0
   36.5180   28.6210   44.1860 H   0  0  0  0  0  0  0  0  0  0  0  0
   37.8370   26.5890   44.8420 H   0  0  0  0  0  0  0  0  0  0  0  0
   39.7410   25.2360   44.4810 H   0  0  0  0  0  0  0  0  0  0  0  0
   41.7960   24.6690   43.3410 H   0  0  0  0  0  0  0  0  0  0  0  0
   42.6140   26.0540   41.5250 H   0  0  0  0  0  0  0  0  0  0  0  0
   41.4040   27.9800   40.8230 H   0  0  0  0  0  0  0  0  0  0  0  0
   38.7770   28.5990   39.0150 O   0  0  0  0  0  0  0  0  0  0  0  0
   36.8330   27.9440   37.3810 O   0  0  0  0  0  0  0  0  0  0  0  0
   37.1290   28.4920   38.7440 P   0  0  1  0  0  0  0  0  0  0  0  0
   36.3600   27.4900   39.8630 O   0  0  0  0  0  0  0  0  0  0  0  0
   36.7810   26.1830   39.5430 C   0  0  0  0  0  0  0  0  0  0  0  0
   37.1750   26.1020   38.5300 H   0  0  0  0  0  0  0  0  0  0  0  0
   35.8480   25.5820   39.5830 H   0  0  0  0  0  0  0  0  0  0  0  0
   37.6990   25.6190   40.6030 C   0  0  1  0  0  3  0  0  0  0  0  0
   36.9100   24.6180   41.4560 C   0  0  0  0  0  3  0  0  0  0  0  0
   35.8590   24.8730   41.5660 H   0  0  0  0  0  0  0  0  0  0  0  0
   37.1510   23.3660   40.6040 C   0  0  0  0  0  3  0  0  0  0  0  0
   36.7980   22.4480   41.1140 H   0  0  0  0  0  0  0  0  0  0  0  0
   38.5410   23.4310   40.5200 O   0  0  0  0  0  0  0  0  0  0  0  0
   38.7530   24.7180   40.0270 C   0  0  0  0  0  3  0  0  0  0  0  0
   39.7510   25.0380   40.4140 H   0  0  0  0  0  0  0  0  0  0  0  0
   36.4750   30.0440   38.8630 O   0  0  0  0  0  0  0  0  0  0  0  0
   36.0610   30.6980   40.0030 C   0  0  0  0  0  0  0  0  0  0  0  0
   36.6840   31.7510   40.0430 O   0  0  0  0  0  0  0  0  0  0  0  0
   35.0810   29.9390   40.7110 N   0  0  0  0  0  0  0  0  0  0  0  0
   34.8350   29.3770   41.5570 H   0  0  0  0  0  0  0  0  0  0  0  0
   34.0700   29.7440   40.4290 H   0  0  0  0  0  0  0  0  0  0  0  0
  1  6  2  0  0  0  0
  1  2  1  0  0  0  0
  2  3  2  0  0  0  0
  3  4  1  0  0  0  0
  3  9  1  0  0  0  0
  5  8  1  0  0  0  0
  5  4  2  0  0  0  0
  6  5  1  0  0  0  0
  7  1  1  0  0  0  0
  9 18  2  0  0  0  0
  9 10  1  0  0  0  0
 10 11  2  0  0  0  0
 11 12  1  0  0  0  0
 11 20  1  0  0  0  0
 12 21  1  0  0  0  0
 13 14  1  0  0  0  0
 13 12  2  0  0  0  0
 14 22  1  0  0  0  0
 15 23  1  0  0  0  0
 15 14  2  0  0  0  0
 16 15  1  0  0  0  0
 17 16  2  0  0  0  0
 17 18  1  0  0  0  0
 18 13  1  0  0  0  0
 19 10  1  0  0  0  0
 24 16  1  0  0  0  0
 25 17  1  0  0  0  0
 26  2  1  0  0  0  0
 28 27  2  6  0  0  0
 28 41  1  0  0  0  0
 28 26  1  0  0  0  0
 28 29  1  0  0  0  0
 30 32  1  0  0  0  0
 30 29  1  0  0  0  0
 31 30  1  0  0  0  0
 33 30  1  6  0  0  0
 33 34  1  0  0  0  0
 34 35  1  0  0  0  0
 36 37  1  0  0  0  0
 36 34  1  0  0  0  0
 38 36  1  0  0  0  0
 39 40  1  0  0  0  0
 39 38  1  0  0  0  0
 39 33  1  0  0  0  0
 41 42  1  0  0  0  0
 42 43  2  0  0  0  0
 42 44  1  0  0  0  0
 44 45  1  0  0  0  0
 46 44  1  0  0  0  0
M  END
>  <minimizedAffinity>
-5.52076435

$$$$

 OpenBabel03252508113D

 46 49  0  0  1  0  0  0  0  0999 V2000
   37.2360   30.3730   39.1890 C   0  0  0  0  0  0  0  0  0  0  0  0
   38.1640   29.5370   39.7760 C   0  0  0  0  0  0  0  0  0  0  0  0
   38.1220   29.2630   41.1140 C   0  0  0  0  0  0  0  0  0  0  0  0
   37.0940   29.8730   41.8260 N   0  0  0  0  0  0  0  0  0  0  0  0
   36.2030   30.6740   41.2670 C   0  0  0  0  0  0  0  0  0  0  0  0
   36.2880   30.9180   39.9380 N   0  0  0  0  0  0  0  0  0  0  0  0
   37.2250   30.6220   38.1410 H   0  0  0  0  0  0  0  0  0  0  0  0
   35.4220   31.1230   41.8810 H   0  0  0  0  0  0  0  0  0  0  0  0
   38.9820   28.4490   41.8740 C   0  0  0  0  0  0  0  0  0  0  0  0
   40.1650   28.9400   42.4630 C   0  0  0  0  0  0  0  0  0  0  0  0
   41.0520   28.1650   43.1610 C   0  0  0  0  0  0  0  0  0  0  0  0
   40.8030   26.8140   43.3150 C   0  0  0  0  0  0  0  0  0  0  0  0
   39.6100   26.3020   42.7250 C   0  0  0  0  0  0  0  0  0  0  0  0
   39.3520   24.9630   42.8660 C   0  0  0  0  0  0  0  0  0  0  0  0
   38.2180   24.4090   42.3190 C   0  0  0  0  0  0  0  0  0  0  0  0
   37.3190   25.2300   41.6130 C   0  0  0  0  0  0  0  0  0  0  0  0
   37.6370   26.6020   41.5000 C   0  0  0  0  0  0  0  0  0  0  0  0
   38.7670   27.1180   42.0470 C   0  0  0  0  0  0  0  0  0  0  0  0
   40.3700   30.0000   42.3470 H   0  0  0  0  0  0  0  0  0  0  0  0
   41.9320   28.6510   43.5730 H   0  0  0  0  0  0  0  0  0  0  0  0
   41.4820   26.1980   43.8530 H   0  0  0  0  0  0  0  0  0  0  0  0
   40.0620   24.3620   43.4150 H   0  0  0  0  0  0  0  0  0  0  0  0
   38.0810   23.3470   42.4700 H   0  0  0  0  0  0  0  0  0  0  0  0
   36.4810   24.6930   41.2390 H   0  0  0  0  0  0  0  0  0  0  0  0
   36.8210   27.0320   40.9570 H   0  0  0  0  0  0  0  0  0  0  0  0
   39.1210   28.9940   38.9640 O   0  0  0  0  0  0  0  0  0  0  0  0
   41.7160   29.0000   39.3410 O   0  0  0  0  0  0  0  0  0  0  0  0
   40.6030   29.6840   38.6070 P   0  0  1  0  0  0  0  0  0  0  0  0
   40.9660   29.6030   36.9610 O   0  0  0  0  0  0  0  0  0  0  0  0
   42.3050   29.1640   36.8960 C   0  0  0  0  0  0  0  0  0  0  0  0
   42.3900   28.0980   36.6830 H   0  0  0  0  0  0  0  0  0  0  0  0
   42.6920   29.3260   37.9250 H   0  0  0  0  0  0  0  0  0  0  0  0
   43.1330   30.0390   35.9840 C   0  0  1  0  0  3  0  0  0  0  0  0
   43.3590   31.3920   36.6710 C   0  0  0  0  0  3  0  0  0  0  0  0
   42.5320   31.7020   37.3040 H   0  0  0  0  0  0  0  0  0  0  0  0
   44.6280   31.0320   37.4530 C   0  0  0  0  0  3  0  0  0  0  0  0
   45.0890   31.9240   37.9210 H   0  0  0  0  0  0  0  0  0  0  0  0
   45.3900   30.5270   36.4000 O   0  0  0  0  0  0  0  0  0  0  0  0
   44.5500   29.5550   35.8590 C   0  0  0  0  0  3  0  0  0  0  0  0
   44.8120   29.4870   34.7750 H   0  0  0  0  0  0  0  0  0  0  0  0
   40.5550   31.3060   39.0750 O   0  0  0  0  0  0  0  0  0  0  0  0
   39.9050   32.3440   38.4450 C   0  0  0  0  0  0  0  0  0  0  0  0
   39.4780   33.0730   39.3310 O   0  0  0  0  0  0  0  0  0  0  0  0
   39.9590   32.2070   37.0250 N   0  0  0  0  0  0  0  0  0  0  0  0
   39.4510   32.0190   36.1310 H   0  0  0  0  0  0  0  0  0  0  0  0
   40.8070   32.3200   36.3850 H   0  0  0  0  0  0  0  0  0  0  0  0
  1  2  2  0  0  0  0
  1  6  1  0  0  0  0
  2  3  1  0  0  0  0
  3  4  2  0  0  0  0
  3  9  1  0  0  0  0
  5  4  1  0  0  0  0
  5  8  1  0  0  0  0
  6  5  2  0  0  0  0
  7  1  1  0  0  0  0
  9 18  2  0  0  0  0
  9 10  1  0  0  0  0
 10 11  2  0  0  0  0
 11 12  1  0  0  0  0
 11 20  1  0  0  0  0
 12 21  1  0  0  0  0
 13 14  1  0  0  0  0
 13 12  2  0  0  0  0
 14 22  1  0  0  0  0
 15 23  1  0  0  0  0
 15 14  2  0  0  0  0
 16 15  1  0  0  0  0
 17 16  2  0  0  0  0
 17 18  1  0  0  0  0
 18 13  1  0  0  0  0
 19 10  1  0  0  0  0
 24 16  1  0  0  0  0
 25 17  1  0  0  0  0
 26  2  1  0  0  0  0
 28 26  1  0  0  0  0
 28 41  1  0  0  0  0
 28 27  2  1  0  0  0
 29 28  1  0  0  0  0
 30 29  1  0  0  0  0
 30 32  1  0  0  0  0
 31 30  1  0  0  0  0
 33 34  1  0  0  0  0
 33 30  1  1  0  0  0
 34 35  1  0  0  0  0
 34 36  1  0  0  0  0
 36 37  1  0  0  0  0
 38 36  1  0  0  0  0
 39 33  1  0  0  0  0
 39 38  1  0  0  0  0
 40 39  1  0  0  0  0
 42 41  1  0  0  0  0
 42 43  2  0  0  0  0
 44 42  1  0  0  0  0
 45 44  1  0  0  0  0
 46 44  1  0  0  0  0
M  END
>  <minimizedAffinity>
-5.51883745

$$$$
