
 OpenBabel03252505493D

 21 22  0  0  1  0  0  0  0  0999 V2000
   44.5640   35.6720   44.9970 C   0  0  0  0  0  0  0  0  0  0  0  0
   45.2380   35.2530   43.8580 C   0  0  0  0  0  0  0  0  0  0  0  0
   45.9360   34.0600   43.9550 C   0  0  0  0  0  0  0  0  0  0  0  0
   45.9370   33.3710   45.1190 N   0  0  0  0  0  0  0  0  0  0  0  0
   45.2720   33.8130   46.2000 C   0  0  0  0  0  0  0  0  0  0  0  0
   44.5850   34.9550   46.1550 N   0  0  0  0  0  0  0  0  0  0  0  0
   43.9810   36.6010   45.0280 H   0  0  0  0  0  0  0  0  0  0  0  0
   46.4570   33.7360   43.0730 H   0  0  0  0  0  0  0  0  0  0  0  0
   45.1490   36.1110   42.6470 C   0  0  0  0  0  0  0  0  0  0  0  0
   45.2980   37.4120   43.0920 F   0  0  0  0  0  0  0  0  0  0  0  0
   43.9070   35.9410   42.0920 F   0  0  0  0  0  0  0  0  0  0  0  0
   46.1480   35.7060   41.7770 F   0  0  0  0  0  0  0  0  0  0  0  0
   45.2560   33.1270   47.4050 O   0  0  0  0  0  0  0  0  0  0  0  0
   46.0180   31.9840   47.6830 C   0  0  2  0  0  3  0  0  0  0  0  0
   45.6590   31.3720   49.0230 C   0  0  0  0  0  3  0  0  0  0  0  0
   45.5210   32.1730   49.7600 H   0  0  0  0  0  0  0  0  0  0  0  0
   46.9600   30.6560   49.3310 C   0  0  0  0  0  3  0  0  0  0  0  0
   47.0330   30.3570   50.3890 H   0  0  0  0  0  0  0  0  0  0  0  0
   47.8950   31.6460   49.0390 O   0  0  0  0  0  0  0  0  0  0  0  0
   47.4790   32.2660   47.8760 C   0  0  0  0  0  3  0  0  0  0  0  0
   48.0970   31.8730   47.0390 H   0  0  0  0  0  0  0  0  0  0  0  0
  1  7  1  0  0  0  0
  1  6  1  0  0  0  0
  2  3  1  0  0  0  0
  2  1  2  0  0  0  0
  3  4  2  0  0  0  0
  4  5  1  0  0  0  0
  5 13  1  0  0  0  0
  6  5  2  0  0  0  0
  8  3  1  0  0  0  0
  9 10  1  0  0  0  0
  9  2  1  0  0  0  0
 11  9  1  0  0  0  0
 12  9  1  0  0  0  0
 14 13  1  1  0  0  0
 14 20  1  0  0  0  0
 14 15  1  0  0  0  0
 15 17  1  0  0  0  0
 15 16  1  0  0  0  0
 17 18  1  0  0  0  0
 19 17  1  0  0  0  0
 20 19  1  0  0  0  0
 21 20  1  0  0  0  0
M  END
>  <minimizedAffinity>
-4.69102907

>  <minimizedRMSD>
0.955543458

$$$$
