
 OpenBabel03242513453D

 45 48  0  0  1  0  0  0  0  0999 V2000
   41.4940   31.1920   40.3970 C   0  0  0  0  0  0  0  0  0  0  0  0
   41.1580   30.7530   41.6520 C   0  0  0  0  0  0  0  0  0  0  0  0
   41.8550   31.2640   42.7210 C   0  0  0  0  0  0  0  0  0  0  0  0
   42.8610   32.1860   42.5910 C   0  0  0  0  0  0  0  0  0  0  0  0
   43.7120   32.8640   43.4090 N   0  0  0  0  0  0  0  0  0  0  0  0
   44.5210   33.6740   42.6620 C   0  0  0  0  0  0  0  0  0  0  0  0
   44.1610   33.4890   41.3820 N   0  0  0  0  0  0  0  0  0  0  0  0
   43.1670   32.5980   41.3280 C   0  0  0  0  0  0  0  0  0  0  0  0
   42.5160   32.1330   40.2120 C   0  0  0  0  0  0  0  0  0  0  0  0
   40.9740   30.8170   39.5260 H   0  0  0  0  0  0  0  0  0  0  0  0
   41.6040   30.9300   43.7220 H   0  0  0  0  0  0  0  0  0  0  0  0
   43.7150   32.7530   44.4540 H   0  0  0  0  0  0  0  0  0  0  0  0
   45.2950   34.3330   43.0280 H   0  0  0  0  0  0  0  0  0  0  0  0
   38.2630   28.9860   43.0170 C   0  0  0  0  0  0  0  0  0  0  0  0
   38.1090   27.9030   42.1270 C   0  0  0  0  0  0  0  0  0  0  0  0
   39.0310   27.8260   41.0720 C   0  0  0  0  0  0  0  0  0  0  0  0
   40.0030   28.7620   40.9470 N   0  0  0  0  0  0  0  0  0  0  0  0
   40.0880   29.7690   41.8340 C   0  0  0  0  0  0  0  0  0  0  0  0
   39.2420   29.9050   42.8680 N   0  0  0  0  0  0  0  0  0  0  0  0
   37.5930   29.1010   43.8420 H   0  0  0  0  0  0  0  0  0  0  0  0
   38.8990   27.0040   40.4110 H   0  0  0  0  0  0  0  0  0  0  0  0
   37.0060   26.9500   42.3770 C   0  0  0  0  0  0  0  0  0  0  0  0
   36.3920   26.7850   41.1590 F   0  0  0  0  0  0  0  0  0  0  0  0
   36.1430   27.5030   43.2560 F   0  0  0  0  0  0  0  0  0  0  0  0
   37.5680   25.7720   42.8550 F   0  0  0  0  0  0  0  0  0  0  0  0
   42.8610   32.5810   38.9480 O   0  0  0  0  0  0  0  0  0  0  0  0
   42.0440   31.4380   36.7630 O   0  0  0  0  0  0  0  0  0  0  0  0
   41.8240   32.6730   37.6330 P   0  0  2  0  0  0  0  0  0  0  0  0
   42.3100   34.0090   36.7000 O   0  0  0  0  0  0  0  0  0  0  0  0
   42.9020   33.7420   35.9540 H   0  0  0  0  0  0  0  0  0  0  0  0
   40.1950   32.8120   38.0440 O   0  0  0  0  0  0  0  0  0  0  0  0
   39.4350   31.7310   37.7030 C   0  0  0  0  0  0  0  0  0  0  0  0
   39.8260   30.8440   38.2710 H   0  0  0  0  0  0  0  0  0  0  0  0
   39.4430   31.5180   36.6370 H   0  0  0  0  0  0  0  0  0  0  0  0
   38.0150   31.9990   38.2230 C   0  0  0  0  0  0  0  0  0  0  0  0
   37.8700   33.0560   38.4430 H   0  0  0  0  0  0  0  0  0  0  0  0
   37.3540   31.7620   37.3610 H   0  0  0  0  0  0  0  0  0  0  0  0
   37.6480   31.0570   39.3190 C   0  0  2  0  0  3  0  0  0  0  0  0
   36.4050   30.2940   38.8790 C   0  0  0  0  0  3  0  0  0  0  0  0
   35.7230   31.0200   38.3930 H   0  0  0  0  0  0  0  0  0  0  0  0
   35.8220   29.9650   40.2410 C   0  0  0  0  0  3  0  0  0  0  0  0
   34.7230   29.8180   40.1370 H   0  0  0  0  0  0  0  0  0  0  0  0
   36.1170   31.0120   41.0790 O   0  0  0  0  0  0  0  0  0  0  0  0
   37.1680   31.7420   40.5660 C   0  0  0  0  0  3  0  0  0  0  0  0
   36.8220   32.7620   40.3600 H   0  0  0  0  0  0  0  0  0  0  0  0
  1  2  1  0  0  0  0
  2 18  1  0  0  0  0
  2  3  2  0  0  0  0
  3 11  1  0  0  0  0
  4  3  1  0  0  0  0
  4  5  1  0  0  0  0
  5 12  1  0  0  0  0
  6 13  1  0  0  0  0
  6  5  1  0  0  0  0
  7  6  2  0  0  0  0
  8  7  1  0  0  0  0
  8  4  2  0  0  0  0
  9  1  2  0  0  0  0
  9  8  1  0  0  0  0
 10  1  1  0  0  0  0
 14 20  1  0  0  0  0
 15 22  1  0  0  0  0
 15 14  2  0  0  0  0
 16 15  1  0  0  0  0
 17 16  2  0  0  0  0
 17 18  1  0  0  0  0
 18 19  2  0  0  0  0
 19 14  1  0  0  0  0
 21 16  1  0  0  0  0
 22 25  1  0  0  0  0
 22 24  1  0  0  0  0
 23 22  1  0  0  0  0
 26  9  1  0  0  0  0
 28 27  2  6  0  0  0
 28 31  1  0  0  0  0
 28 26  1  0  0  0  0
 29 28  1  0  0  0  0
 30 29  1  0  0  0  0
 32 31  1  0  0  0  0
 32 35  1  0  0  0  0
 32 33  1  0  0  0  0
 34 32  1  0  0  0  0
 35 36  1  0  0  0  0
 37 35  1  0  0  0  0
 38 35  1  6  0  0  0
 38 44  1  0  0  0  0
 39 38  1  0  0  0  0
 39 41  1  0  0  0  0
 40 39  1  0  0  0  0
 41 43  1  0  0  0  0
 42 41  1  0  0  0  0
 44 43  1  0  0  0  0
 45 44  1  0  0  0  0
M  END
>  <minimizedAffinity>
-6.36359549

$$$$

 OpenBabel03242513453D

 45 48  0  0  1  0  0  0  0  0999 V2000
   39.0440   29.9910   38.4340 C   0  0  0  0  0  0  0  0  0  0  0  0
   40.3110   30.5070   38.3280 C   0  0  0  0  0  0  0  0  0  0  0  0
   40.5040   31.8200   38.6850 C   0  0  0  0  0  0  0  0  0  0  0  0
   39.4980   32.6310   39.1390 C   0  0  0  0  0  0  0  0  0  0  0  0
   39.3580   33.9200   39.5580 N   0  0  0  0  0  0  0  0  0  0  0  0
   38.0550   34.1550   39.8980 C   0  0  0  0  0  0  0  0  0  0  0  0
   37.3960   33.0040   39.6860 N   0  0  0  0  0  0  0  0  0  0  0  0
   38.2510   32.0840   39.2310 C   0  0  0  0  0  0  0  0  0  0  0  0
   37.9810   30.7810   38.8930 C   0  0  0  0  0  0  0  0  0  0  0  0
   38.8440   28.9640   38.1640 H   0  0  0  0  0  0  0  0  0  0  0  0
   41.4990   32.2460   38.6090 H   0  0  0  0  0  0  0  0  0  0  0  0
   40.1580   34.5990   39.5980 H   0  0  0  0  0  0  0  0  0  0  0  0
   37.6380   35.0820   40.2650 H   0  0  0  0  0  0  0  0  0  0  0  0
   42.9240   29.1010   36.1920 C   0  0  0  0  0  0  0  0  0  0  0  0
   43.4770   28.0870   37.0010 C   0  0  0  0  0  0  0  0  0  0  0  0
   42.9130   27.9270   38.2750 C   0  0  0  0  0  0  0  0  0  0  0  0
   41.8920   28.7240   38.6730 N   0  0  0  0  0  0  0  0  0  0  0  0
   41.4150   29.6730   37.8480 C   0  0  0  0  0  0  0  0  0  0  0  0
   41.9050   29.8820   36.6150 N   0  0  0  0  0  0  0  0  0  0  0  0
   43.3090   29.2740   35.2100 H   0  0  0  0  0  0  0  0  0  0  0  0
   43.3430   27.1580   38.8700 H   0  0  0  0  0  0  0  0  0  0  0  0
   44.5900   27.2860   36.4450 C   0  0  0  0  0  0  0  0  0  0  0  0
   45.1400   26.6390   37.5250 F   0  0  0  0  0  0  0  0  0  0  0  0
   45.4980   28.1230   35.8980 F   0  0  0  0  0  0  0  0  0  0  0  0
   44.0500   26.4060   35.5140 F   0  0  0  0  0  0  0  0  0  0  0  0
   36.6990   30.2690   39.0030 O   0  0  0  0  0  0  0  0  0  0  0  0
   34.6800   29.0070   40.0400 O   0  0  0  0  0  0  0  0  0  0  0  0
   36.0240   29.6330   40.4010 P   0  0  2  0  0  0  0  0  0  0  0  0
   35.6840   30.9380   41.4350 O   0  0  0  0  0  0  0  0  0  0  0  0
   34.7420   31.2320   41.3600 H   0  0  0  0  0  0  0  0  0  0  0  0
   36.9980   28.5050   41.1870 O   0  0  0  0  0  0  0  0  0  0  0  0
   36.8750   28.5060   42.5470 C   0  0  0  0  0  0  0  0  0  0  0  0
   35.9040   29.0110   42.8020 H   0  0  0  0  0  0  0  0  0  0  0  0
   37.6960   29.0070   43.0540 H   0  0  0  0  0  0  0  0  0  0  0  0
   36.7410   27.0410   42.9870 C   0  0  0  0  0  0  0  0  0  0  0  0
   36.9460   26.9300   44.0510 H   0  0  0  0  0  0  0  0  0  0  0  0
   35.6640   26.8050   42.8460 H   0  0  0  0  0  0  0  0  0  0  0  0
   37.5020   26.1280   42.0860 C   0  0  2  0  0  3  0  0  0  0  0  0
   36.8230   24.7660   42.1210 C   0  0  0  0  0  3  0  0  0  0  0  0
   36.5500   24.5570   43.1750 H   0  0  0  0  0  0  0  0  0  0  0  0
   38.0110   23.8870   41.7770 C   0  0  0  0  0  3  0  0  0  0  0  0
   37.8360   22.8680   42.1870 H   0  0  0  0  0  0  0  0  0  0  0  0
   39.1260   24.4710   42.3250 O   0  0  0  0  0  0  0  0  0  0  0  0
   38.8810   25.8020   42.5850 C   0  0  0  0  0  3  0  0  0  0  0  0
   38.9720   25.9740   43.6640 H   0  0  0  0  0  0  0  0  0  0  0  0
  1  9  1  0  0  0  0
  2  1  2  0  0  0  0
  2  3  1  0  0  0  0
  3  4  2  0  0  0  0
  4  8  1  0  0  0  0
  4  5  1  0  0  0  0
  5 12  1  0  0  0  0
  5  6  1  0  0  0  0
  6 13  1  0  0  0  0
  7  6  2  0  0  0  0
  8  7  1  0  0  0  0
  9 26  1  0  0  0  0
  9  8  2  0  0  0  0
 10  1  1  0  0  0  0
 11  3  1  0  0  0  0
 14 19  2  0  0  0  0
 14 15  1  0  0  0  0
 15 16  2  0  0  0  0
 16 17  1  0  0  0  0
 16 21  1  0  0  0  0
 18  2  1  0  0  0  0
 18 17  2  0  0  0  0
 19 18  1  0  0  0  0
 20 14  1  0  0  0  0
 22 15  1  0  0  0  0
 22 23  1  0  0  0  0
 24 22  1  0  0  0  0
 25 22  1  0  0  0  0
 26 28  1  0  0  0  0
 28 27  2  6  0  0  0
 28 31  1  0  0  0  0
 28 29  1  0  0  0  0
 30 29  1  0  0  0  0
 31 32  1  0  0  0  0
 32 33  1  0  0  0  0
 32 35  1  0  0  0  0
 32 34  1  0  0  0  0
 35 36  1  0  0  0  0
 37 35  1  0  0  0  0
 38 39  1  0  0  0  0
 38 44  1  0  0  0  0
 38 35  1  1  0  0  0
 39 40  1  0  0  0  0
 41 39  1  0  0  0  0
 41 42  1  0  0  0  0
 41 43  1  0  0  0  0
 43 44  1  0  0  0  0
 44 45  1  0  0  0  0
M  END
>  <minimizedAffinity>
-5.80879879

$$$$

 OpenBabel03242513453D

 45 48  0  0  1  0  0  0  0  0999 V2000
   39.6950   29.9570   39.7710 C   0  0  0  0  0  0  0  0  0  0  0  0
   38.4760   29.5970   40.2860 C   0  0  0  0  0  0  0  0  0  0  0  0
   37.5590   30.5920   40.5250 C   0  0  0  0  0  0  0  0  0  0  0  0
   37.8020   31.9160   40.2730 C   0  0  0  0  0  0  0  0  0  0  0  0
   37.1390   33.0990   40.3900 N   0  0  0  0  0  0  0  0  0  0  0  0
   37.9380   34.1210   39.9590 C   0  0  0  0  0  0  0  0  0  0  0  0
   39.0960   33.5570   39.5760 N   0  0  0  0  0  0  0  0  0  0  0  0
   39.0250   32.2360   39.7600 C   0  0  0  0  0  0  0  0  0  0  0  0
   39.9930   31.2980   39.4960 C   0  0  0  0  0  0  0  0  0  0  0  0
   40.4490   29.2090   39.5670 H   0  0  0  0  0  0  0  0  0  0  0  0
   36.5880   30.3270   40.9330 H   0  0  0  0  0  0  0  0  0  0  0  0
   36.1590   33.1730   40.7620 H   0  0  0  0  0  0  0  0  0  0  0  0
   37.6890   35.1720   39.9300 H   0  0  0  0  0  0  0  0  0  0  0  0
   38.5750   26.2570   41.7720 C   0  0  0  0  0  0  0  0  0  0  0  0
   37.5720   25.5680   41.0590 C   0  0  0  0  0  0  0  0  0  0  0  0
   36.8900   26.3000   40.0760 C   0  0  0  0  0  0  0  0  0  0  0  0
   37.2060   27.5980   39.8510 N   0  0  0  0  0  0  0  0  0  0  0  0
   38.1750   28.1910   40.5700 C   0  0  0  0  0  0  0  0  0  0  0  0
   38.8700   27.5530   41.5260 N   0  0  0  0  0  0  0  0  0  0  0  0
   39.1310   25.7560   42.5340 H   0  0  0  0  0  0  0  0  0  0  0  0
   36.1370   25.7640   39.5490 H   0  0  0  0  0  0  0  0  0  0  0  0
   37.3250   24.1500   41.4020 C   0  0  0  0  0  0  0  0  0  0  0  0
   38.0290   23.4280   40.4690 F   0  0  0  0  0  0  0  0  0  0  0  0
   36.0050   23.8970   41.2810 F   0  0  0  0  0  0  0  0  0  0  0  0
   37.7890   23.9450   42.6970 F   0  0  0  0  0  0  0  0  0  0  0  0
   41.2210   31.6710   38.9750 O   0  0  0  0  0  0  0  0  0  0  0  0
   42.2820   33.3870   37.3380 O   0  0  0  0  0  0  0  0  0  0  0  0
   41.5160   32.0670   37.3720 P   0  0  2  0  0  0  0  0  0  0  0  0
   40.0100   32.3680   36.6410 O   0  0  0  0  0  0  0  0  0  0  0  0
   39.7940   33.3330   36.6270 H   0  0  0  0  0  0  0  0  0  0  0  0
   42.3550   30.8860   36.5110 O   0  0  0  0  0  0  0  0  0  0  0  0
   42.4680   29.6910   37.1600 C   0  0  0  0  0  0  0  0  0  0  0  0
   42.3810   29.8900   38.2620 H   0  0  0  0  0  0  0  0  0  0  0  0
   43.4030   29.1750   36.9520 H   0  0  0  0  0  0  0  0  0  0  0  0
   41.2480   28.8470   36.7640 C   0  0  0  0  0  0  0  0  0  0  0  0
   40.3190   29.3480   37.0350 H   0  0  0  0  0  0  0  0  0  0  0  0
   41.2790   28.8170   35.6540 H   0  0  0  0  0  0  0  0  0  0  0  0
   41.3820   27.4390   37.2370 C   0  0  2  0  0  3  0  0  0  0  0  0
   39.9790   26.8820   37.4420 C   0  0  0  0  0  3  0  0  0  0  0  0
   39.3740   27.6740   37.9280 H   0  0  0  0  0  0  0  0  0  0  0  0
   40.2820   25.8310   38.4940 C   0  0  0  0  0  3  0  0  0  0  0  0
   39.3590   25.6390   39.0870 H   0  0  0  0  0  0  0  0  0  0  0  0
   41.2970   26.3170   39.2800 O   0  0  0  0  0  0  0  0  0  0  0  0
   41.9700   27.3190   38.6130 C   0  0  0  0  0  3  0  0  0  0  0  0
   41.8670   28.2510   39.1810 H   0  0  0  0  0  0  0  0  0  0  0  0
  1  2  1  0  0  0  0
  2  3  2  0  0  0  0
  2 18  1  0  0  0  0
  3 11  1  0  0  0  0
  4  5  1  0  0  0  0
  4  3  1  0  0  0  0
  5 12  1  0  0  0  0
  6  5  1  0  0  0  0
  7  8  1  0  0  0  0
  7  6  2  0  0  0  0
  8  4  2  0  0  0  0
  9  8  1  0  0  0  0
  9  1  2  0  0  0  0
 10  1  1  0  0  0  0
 13  6  1  0  0  0  0
 14 20  1  0  0  0  0
 15 22  1  0  0  0  0
 15 14  2  0  0  0  0
 16 15  1  0  0  0  0
 17 16  2  0  0  0  0
 17 18  1  0  0  0  0
 18 19  2  0  0  0  0
 19 14  1  0  0  0  0
 21 16  1  0  0  0  0
 22 25  1  0  0  0  0
 23 22  1  0  0  0  0
 24 22  1  0  0  0  0
 26  9  1  0  0  0  0
 28 27  2  6  0  0  0
 28 26  1  0  0  0  0
 29 28  1  0  0  0  0
 30 29  1  0  0  0  0
 31 32  1  0  0  0  0
 31 28  1  0  0  0  0
 32 33  1  0  0  0  0
 34 32  1  0  0  0  0
 35 36  1  0  0  0  0
 35 32  1  0  0  0  0
 37 35  1  0  0  0  0
 38 35  1  1  0  0  0
 38 39  1  0  0  0  0
 38 44  1  0  0  0  0
 39 40  1  0  0  0  0
 39 41  1  0  0  0  0
 41 42  1  0  0  0  0
 41 43  1  0  0  0  0
 44 45  1  0  0  0  0
 44 43  1  0  0  0  0
M  END
>  <minimizedAffinity>
-5.69811821

$$$$

 OpenBabel03242513453D

 45 48  0  0  1  0  0  0  0  0999 V2000
   36.6370   27.7520   39.4930 C   0  0  0  0  0  0  0  0  0  0  0  0
   36.7120   27.2680   38.2120 C   0  0  0  0  0  0  0  0  0  0  0  0
   36.9070   25.9170   38.0440 C   0  0  0  0  0  0  0  0  0  0  0  0
   37.0270   25.0390   39.0880 C   0  0  0  0  0  0  0  0  0  0  0  0
   37.2190   23.7020   39.2590 N   0  0  0  0  0  0  0  0  0  0  0  0
   37.2540   23.4080   40.5940 C   0  0  0  0  0  0  0  0  0  0  0  0
   37.0840   24.5720   41.2410 N   0  0  0  0  0  0  0  0  0  0  0  0
   36.9480   25.5570   40.3480 C   0  0  0  0  0  0  0  0  0  0  0  0
   36.7550   26.8940   40.5950 C   0  0  0  0  0  0  0  0  0  0  0  0
   36.4850   28.8060   39.6740 H   0  0  0  0  0  0  0  0  0  0  0  0
   36.9690   25.5150   37.0380 H   0  0  0  0  0  0  0  0  0  0  0  0
   37.3190   23.0300   38.4580 H   0  0  0  0  0  0  0  0  0  0  0  0
   37.3910   22.4330   41.0400 H   0  0  0  0  0  0  0  0  0  0  0  0
   36.8090   30.2810   36.1430 C   0  0  0  0  0  0  0  0  0  0  0  0
   36.3380   29.8190   34.8970 C   0  0  0  0  0  0  0  0  0  0  0  0
   36.0000   28.4600   34.8210 C   0  0  0  0  0  0  0  0  0  0  0  0
   36.1320   27.6630   35.9090 N   0  0  0  0  0  0  0  0  0  0  0  0
   36.5890   28.1730   37.0670 C   0  0  0  0  0  0  0  0  0  0  0  0
   36.9310   29.4640   37.2130 N   0  0  0  0  0  0  0  0  0  0  0  0
   37.0830   31.3060   36.2660 H   0  0  0  0  0  0  0  0  0  0  0  0
   35.6470   28.1300   33.8740 H   0  0  0  0  0  0  0  0  0  0  0  0
   36.2400   30.7930   33.7870 C   0  0  0  0  0  0  0  0  0  0  0  0
   36.9340   31.8970   34.2170 F   0  0  0  0  0  0  0  0  0  0  0  0
   34.9400   31.1100   33.6000 F   0  0  0  0  0  0  0  0  0  0  0  0
   36.8100   30.2070   32.6630 F   0  0  0  0  0  0  0  0  0  0  0  0
   36.6800   27.3730   41.8920 O   0  0  0  0  0  0  0  0  0  0  0  0
   38.5970   27.2250   43.6380 O   0  0  0  0  0  0  0  0  0  0  0  0
   37.9000   28.2000   42.6940 P   0  0  2  0  0  0  0  0  0  0  0  0
   37.1540   29.3690   43.6780 O   0  0  0  0  0  0  0  0  0  0  0  0
   37.0400   29.0510   44.6070 H   0  0  0  0  0  0  0  0  0  0  0  0
   39.0270   28.9290   41.6750 O   0  0  0  0  0  0  0  0  0  0  0  0
   38.7570   30.2350   41.3810 C   0  0  0  0  0  0  0  0  0  0  0  0
   39.4650   30.8740   41.9730 H   0  0  0  0  0  0  0  0  0  0  0  0
   37.7310   30.5220   41.5990 H   0  0  0  0  0  0  0  0  0  0  0  0
   39.1060   30.4420   39.9000 C   0  0  0  0  0  0  0  0  0  0  0  0
   40.0680   29.9930   39.6560 H   0  0  0  0  0  0  0  0  0  0  0  0
   38.3370   29.8590   39.3480 H   0  0  0  0  0  0  0  0  0  0  0  0
   38.9380   31.8670   39.4940 C   0  0  2  0  0  3  0  0  0  0  0  0
   39.4410   32.7390   40.6370 C   0  0  0  0  0  3  0  0  0  0  0  0
   39.0800   32.2880   41.5840 H   0  0  0  0  0  0  0  0  0  0  0  0
   38.6120   33.9840   40.3820 C   0  0  0  0  0  3  0  0  0  0  0  0
   38.4980   34.5430   41.3380 H   0  0  0  0  0  0  0  0  0  0  0  0
   37.3990   33.5760   39.8850 O   0  0  0  0  0  0  0  0  0  0  0  0
   37.5040   32.2970   39.3820 C   0  0  0  0  0  3  0  0  0  0  0  0
   36.8380   31.6370   39.9510 H   0  0  0  0  0  0  0  0  0  0  0  0
  1 10  1  0  0  0  0
  1  9  1  0  0  0  0
  2  1  2  0  0  0  0
  3  2  1  0  0  0  0
  3  4  2  0  0  0  0
  4  5  1  0  0  0  0
  4  8  1  0  0  0  0
  5  6  1  0  0  0  0
  6 13  1  0  0  0  0
  6  7  2  0  0  0  0
  8  9  2  0  0  0  0
  8  7  1  0  0  0  0
  9 26  1  0  0  0  0
 11  3  1  0  0  0  0
 12  5  1  0  0  0  0
 14 20  1  0  0  0  0
 14 19  1  0  0  0  0
 15 14  2  0  0  0  0
 16 15  1  0  0  0  0
 16 17  2  0  0  0  0
 17 18  1  0  0  0  0
 18 19  2  0  0  0  0
 18  2  1  0  0  0  0
 21 16  1  0  0  0  0
 22 23  1  0  0  0  0
 22 15  1  0  0  0  0
 24 22  1  0  0  0  0
 25 22  1  0  0  0  0
 26 28  1  0  0  0  0
 28 27  2  1  0  0  0
 28 29  1  0  0  0  0
 29 30  1  0  0  0  0
 31 28  1  0  0  0  0
 32 34  1  0  0  0  0
 32 31  1  0  0  0  0
 32 33  1  0  0  0  0
 35 32  1  0  0  0  0
 36 35  1  0  0  0  0
 37 35  1  0  0  0  0
 38 35  1  1  0  0  0
 38 39  1  0  0  0  0
 39 40  1  0  0  0  0
 41 39  1  0  0  0  0
 41 42  1  0  0  0  0
 43 41  1  0  0  0  0
 44 38  1  0  0  0  0
 44 43  1  0  0  0  0
 44 45  1  0  0  0  0
M  END
>  <minimizedAffinity>
-5.68301487

$$$$

 OpenBabel03242513453D

 45 48  0  0  1  0  0  0  0  0999 V2000
   37.4220   30.5030   39.3320 C   0  0  0  0  0  0  0  0  0  0  0  0
   37.1750   30.3950   37.9870 C   0  0  0  0  0  0  0  0  0  0  0  0
   38.0450   31.0120   37.1200 C   0  0  0  0  0  0  0  0  0  0  0  0
   39.1390   31.7230   37.5330 C   0  0  0  0  0  0  0  0  0  0  0  0
   40.1560   32.4250   36.9590 N   0  0  0  0  0  0  0  0  0  0  0  0
   40.9740   32.9300   37.9320 C   0  0  0  0  0  0  0  0  0  0  0  0
   40.4540   32.5340   39.1050 N   0  0  0  0  0  0  0  0  0  0  0  0
   39.3540   31.8100   38.8780 C   0  0  0  0  0  0  0  0  0  0  0  0
   38.5290   31.2220   39.8040 C   0  0  0  0  0  0  0  0  0  0  0  0
   36.7650   30.0360   40.0520 H   0  0  0  0  0  0  0  0  0  0  0  0
   37.8660   30.9370   36.0520 H   0  0  0  0  0  0  0  0  0  0  0  0
   40.2600   32.5380   35.9200 H   0  0  0  0  0  0  0  0  0  0  0  0
   41.8620   33.5270   37.7870 H   0  0  0  0  0  0  0  0  0  0  0  0
   34.8320   28.6740   35.7690 C   0  0  0  0  0  0  0  0  0  0  0  0
   33.8280   28.2330   36.6550 C   0  0  0  0  0  0  0  0  0  0  0  0
   34.0050   28.5550   38.0090 C   0  0  0  0  0  0  0  0  0  0  0  0
   35.0960   29.2540   38.4070 N   0  0  0  0  0  0  0  0  0  0  0  0
   36.0140   29.6420   37.5040 C   0  0  0  0  0  0  0  0  0  0  0  0
   35.9100   29.3700   36.1930 N   0  0  0  0  0  0  0  0  0  0  0  0
   34.7560   28.4620   34.7240 H   0  0  0  0  0  0  0  0  0  0  0  0
   33.2390   28.2140   38.6620 H   0  0  0  0  0  0  0  0  0  0  0  0
   32.6870   27.4790   36.0920 C   0  0  0  0  0  0  0  0  0  0  0  0
   31.5700   28.1820   36.4730 F   0  0  0  0  0  0  0  0  0  0  0  0
   32.6660   26.2460   36.6430 F   0  0  0  0  0  0  0  0  0  0  0  0
   32.8500   27.4400   34.7120 F   0  0  0  0  0  0  0  0  0  0  0  0
   38.7870   31.3370   41.1600 O   0  0  0  0  0  0  0  0  0  0  0  0
   40.7240   30.7670   42.7940 O   0  0  0  0  0  0  0  0  0  0  0  0
   39.5010   30.1570   42.1170 P   0  0  2  0  0  0  0  0  0  0  0  0
   40.0820   28.9470   41.0740 O   0  0  0  0  0  0  0  0  0  0  0  0
   41.0420   29.0680   40.8670 H   0  0  0  0  0  0  0  0  0  0  0  0
   38.4710   29.4860   43.2700 O   0  0  0  0  0  0  0  0  0  0  0  0
   37.2670   29.0730   42.7770 C   0  0  0  0  0  0  0  0  0  0  0  0
   37.3760   28.9520   41.6650 H   0  0  0  0  0  0  0  0  0  0  0  0
   36.4530   29.7600   42.9950 H   0  0  0  0  0  0  0  0  0  0  0  0
   37.0040   27.6730   43.3510 C   0  0  0  0  0  0  0  0  0  0  0  0
   37.5530   27.5200   44.2800 H   0  0  0  0  0  0  0  0  0  0  0  0
   35.9260   27.6800   43.6190 H   0  0  0  0  0  0  0  0  0  0  0  0
   37.1830   26.6150   42.3150 C   0  0  2  0  0  3  0  0  0  0  0  0
   38.6030   26.0780   42.4380 C   0  0  0  0  0  3  0  0  0  0  0  0
   39.2740   26.9460   42.6020 H   0  0  0  0  0  0  0  0  0  0  0  0
   38.8130   25.6040   41.0130 C   0  0  0  0  0  3  0  0  0  0  0  0
   39.9030   25.6010   40.7900 H   0  0  0  0  0  0  0  0  0  0  0  0
   38.1290   26.4630   40.1880 O   0  0  0  0  0  0  0  0  0  0  0  0
   37.1700   27.1420   40.9090 C   0  0  0  0  0  3  0  0  0  0  0  0
   37.3960   28.2140   40.8760 H   0  0  0  0  0  0  0  0  0  0  0  0
  1  9  1  0  0  0  0
  1 10  1  0  0  0  0
  2  1  2  0  0  0  0
  3  4  2  0  0  0  0
  3  2  1  0  0  0  0
  4  8  1  0  0  0  0
  5  4  1  0  0  0  0
  5  6  1  0  0  0  0
  6  7  2  0  0  0  0
  8  7  1  0  0  0  0
  8  9  2  0  0  0  0
  9 26  1  0  0  0  0
 11  3  1  0  0  0  0
 12  5  1  0  0  0  0
 13  6  1  0  0  0  0
 14 19  2  0  0  0  0
 14 15  1  0  0  0  0
 15 16  2  0  0  0  0
 16 17  1  0  0  0  0
 16 21  1  0  0  0  0
 18  2  1  0  0  0  0
 18 17  2  0  0  0  0
 19 18  1  0  0  0  0
 20 14  1  0  0  0  0
 22 23  1  0  0  0  0
 22 24  1  0  0  0  0
 22 15  1  0  0  0  0
 25 22  1  0  0  0  0
 26 28  1  0  0  0  0
 28 27  2  1  0  0  0
 28 31  1  0  0  0  0
 29 28  1  0  0  0  0
 30 29  1  0  0  0  0
 32 34  1  0  0  0  0
 32 31  1  0  0  0  0
 32 35  1  0  0  0  0
 33 32  1  0  0  0  0
 35 37  1  0  0  0  0
 35 36  1  0  0  0  0
 38 39  1  0  0  0  0
 38 35  1  1  0  0  0
 39 40  1  0  0  0  0
 41 39  1  0  0  0  0
 42 41  1  0  0  0  0
 43 44  1  0  0  0  0
 43 41  1  0  0  0  0
 44 38  1  0  0  0  0
 45 44  1  0  0  0  0
M  END
>  <minimizedAffinity>
-5.64872551

$$$$

 OpenBabel03242513453D

 45 48  0  0  1  0  0  0  0  0999 V2000
   36.5950   30.3930   39.8480 C   0  0  0  0  0  0  0  0  0  0  0  0
   35.8300   29.2740   39.6360 C   0  0  0  0  0  0  0  0  0  0  0  0
   35.8550   28.2860   40.5920 C   0  0  0  0  0  0  0  0  0  0  0  0
   36.6010   28.3670   41.7370 C   0  0  0  0  0  0  0  0  0  0  0  0
   36.8390   27.6000   42.8370 N   0  0  0  0  0  0  0  0  0  0  0  0
   37.7140   28.2440   43.6680 C   0  0  0  0  0  0  0  0  0  0  0  0
   38.0100   29.4100   43.0720 N   0  0  0  0  0  0  0  0  0  0  0  0
   37.3490   29.4950   41.9140 C   0  0  0  0  0  0  0  0  0  0  0  0
   37.3760   30.5220   41.0040 C   0  0  0  0  0  0  0  0  0  0  0  0
   36.6070   31.1960   39.1240 H   0  0  0  0  0  0  0  0  0  0  0  0
   35.2560   27.3940   40.4430 H   0  0  0  0  0  0  0  0  0  0  0  0
   36.3970   26.6590   42.9860 H   0  0  0  0  0  0  0  0  0  0  0  0
   38.0900   27.8880   44.6160 H   0  0  0  0  0  0  0  0  0  0  0  0
   34.8540   29.0260   36.1210 C   0  0  0  0  0  0  0  0  0  0  0  0
   33.4510   28.9100   36.1930 C   0  0  0  0  0  0  0  0  0  0  0  0
   32.8890   28.9230   37.4780 C   0  0  0  0  0  0  0  0  0  0  0  0
   33.6840   29.0420   38.5690 N   0  0  0  0  0  0  0  0  0  0  0  0
   35.0170   29.1480   38.4240 C   0  0  0  0  0  0  0  0  0  0  0  0
   35.6240   29.1430   37.2260 N   0  0  0  0  0  0  0  0  0  0  0  0
   35.3450   29.0230   35.1710 H   0  0  0  0  0  0  0  0  0  0  0  0
   31.8300   28.8350   37.5130 H   0  0  0  0  0  0  0  0  0  0  0  0
   32.6980   28.7870   34.9260 C   0  0  0  0  0  0  0  0  0  0  0  0
   31.4790   28.2630   35.2820 F   0  0  0  0  0  0  0  0  0  0  0  0
   33.3500   27.9270   34.1140 F   0  0  0  0  0  0  0  0  0  0  0  0
   32.5930   30.0590   34.3750 F   0  0  0  0  0  0  0  0  0  0  0  0
   38.1510   31.6480   41.2260 O   0  0  0  0  0  0  0  0  0  0  0  0
   39.3270   33.9190   40.7660 O   0  0  0  0  0  0  0  0  0  0  0  0
   38.4040   32.8870   40.1230 P   0  0  2  0  0  0  0  0  0  0  0  0
   36.9100   33.6620   39.8830 O   0  0  0  0  0  0  0  0  0  0  0  0
   36.8160   34.4650   40.4530 H   0  0  0  0  0  0  0  0  0  0  0  0
   39.0400   32.3790   38.6470 O   0  0  0  0  0  0  0  0  0  0  0  0
   40.3990   32.4680   38.5590 C   0  0  0  0  0  0  0  0  0  0  0  0
   40.7320   33.2990   39.2370 H   0  0  0  0  0  0  0  0  0  0  0  0
   40.7540   32.6530   37.5480 H   0  0  0  0  0  0  0  0  0  0  0  0
   40.9720   31.1660   39.1370 C   0  0  0  0  0  0  0  0  0  0  0  0
   41.1390   31.2520   40.2100 H   0  0  0  0  0  0  0  0  0  0  0  0
   40.1610   30.4200   39.0020 H   0  0  0  0  0  0  0  0  0  0  0  0
   42.1380   30.6820   38.3420 C   0  0  2  0  0  3  0  0  0  0  0  0
   43.3780   31.4100   38.8440 C   0  0  0  0  0  3  0  0  0  0  0  0
   43.0990   32.4720   39.0050 H   0  0  0  0  0  0  0  0  0  0  0  0
   44.2260   31.3500   37.5870 C   0  0  0  0  0  3  0  0  0  0  0  0
   44.9530   32.1930   37.6020 H   0  0  0  0  0  0  0  0  0  0  0  0
   43.3760   31.4330   36.5120 O   0  0  0  0  0  0  0  0  0  0  0  0
   42.0960   31.0970   36.8990 C   0  0  0  0  0  3  0  0  0  0  0  0
   41.4410   31.9630   36.7450 H   0  0  0  0  0  0  0  0  0  0  0  0
  1  9  1  0  0  0  0
  2  1  2  0  0  0  0
  2  3  1  0  0  0  0
  3  4  2  0  0  0  0
  4  8  1  0  0  0  0
  4  5  1  0  0  0  0
  5 12  1  0  0  0  0
  5  6  1  0  0  0  0
  6 13  1  0  0  0  0
  7  6  2  0  0  0  0
  8  7  1  0  0  0  0
  9 26  1  0  0  0  0
  9  8  2  0  0  0  0
 10  1  1  0  0  0  0
 11  3  1  0  0  0  0
 14 15  2  0  0  0  0
 14 19  1  0  0  0  0
 15 16  1  0  0  0  0
 16 21  1  0  0  0  0
 16 17  2  0  0  0  0
 18 17  1  0  0  0  0
 18  2  1  0  0  0  0
 19 18  2  0  0  0  0
 20 14  1  0  0  0  0
 22 23  1  0  0  0  0
 22 15  1  0  0  0  0
 24 22  1  0  0  0  0
 25 22  1  0  0  0  0
 28 27  2  1  0  0  0
 28 26  1  0  0  0  0
 29 28  1  0  0  0  0
 29 30  1  0  0  0  0
 31 28  1  0  0  0  0
 32 31  1  0  0  0  0
 32 35  1  0  0  0  0
 32 33  1  0  0  0  0
 34 32  1  0  0  0  0
 35 36  1  0  0  0  0
 37 35  1  0  0  0  0
 38 39  1  0  0  0  0
 38 35  1  1  0  0  0
 39 40  1  0  0  0  0
 41 42  1  0  0  0  0
 41 39  1  0  0  0  0
 43 44  1  0  0  0  0
 43 41  1  0  0  0  0
 44 38  1  0  0  0  0
 45 44  1  0  0  0  0
M  END
>  <minimizedAffinity>
-5.60245275

$$$$

 OpenBabel03242513453D

 45 48  0  0  1  0  0  0  0  0999 V2000
   37.1150   29.9730   39.1980 C   0  0  0  0  0  0  0  0  0  0  0  0
   35.9440   29.2710   39.3220 C   0  0  0  0  0  0  0  0  0  0  0  0
   35.6690   28.6860   40.5350 C   0  0  0  0  0  0  0  0  0  0  0  0
   36.5030   28.7720   41.6180 C   0  0  0  0  0  0  0  0  0  0  0  0
   36.5270   28.3300   42.9060 N   0  0  0  0  0  0  0  0  0  0  0  0
   37.6720   28.7560   43.5190 C   0  0  0  0  0  0  0  0  0  0  0  0
   38.3500   29.4630   42.6010 N   0  0  0  0  0  0  0  0  0  0  0  0
   37.6590   29.4790   41.4580 C   0  0  0  0  0  0  0  0  0  0  0  0
   38.0020   30.0900   40.2770 C   0  0  0  0  0  0  0  0  0  0  0  0
   37.3740   30.4500   38.2630 H   0  0  0  0  0  0  0  0  0  0  0  0
   34.7470   28.1260   40.6540 H   0  0  0  0  0  0  0  0  0  0  0  0
   35.7590   27.7490   43.3270 H   0  0  0  0  0  0  0  0  0  0  0  0
   37.9710   28.5650   44.5390 H   0  0  0  0  0  0  0  0  0  0  0  0
   32.8730   28.9700   37.3610 C   0  0  0  0  0  0  0  0  0  0  0  0
   33.3500   28.9380   36.0350 C   0  0  0  0  0  0  0  0  0  0  0  0
   34.7410   29.0230   35.8700 C   0  0  0  0  0  0  0  0  0  0  0  0
   35.5500   29.1290   36.9510 N   0  0  0  0  0  0  0  0  0  0  0  0
   35.0240   29.1540   38.1880 C   0  0  0  0  0  0  0  0  0  0  0  0
   33.7030   29.0770   38.4220 N   0  0  0  0  0  0  0  0  0  0  0  0
   31.8230   28.9090   37.5550 H   0  0  0  0  0  0  0  0  0  0  0  0
   35.0820   28.9970   34.8630 H   0  0  0  0  0  0  0  0  0  0  0  0
   32.3600   28.8180   34.9430 C   0  0  0  0  0  0  0  0  0  0  0  0
   32.3200   30.0600   34.3570 F   0  0  0  0  0  0  0  0  0  0  0  0
   31.1560   28.5220   35.4780 F   0  0  0  0  0  0  0  0  0  0  0  0
   32.8110   27.8310   34.0740 F   0  0  0  0  0  0  0  0  0  0  0  0
   39.1870   30.7980   40.1610 O   0  0  0  0  0  0  0  0  0  0  0  0
   38.1650   33.1550   40.5450 O   0  0  0  0  0  0  0  0  0  0  0  0
   39.3110   32.4390   39.8360 P   0  0  2  0  0  0  0  0  0  0  0  0
   39.0460   32.6440   38.1690 O   0  0  0  0  0  0  0  0  0  0  0  0
   38.1060   32.8840   37.9720 H   0  0  0  0  0  0  0  0  0  0  0  0
   40.7860   33.1230   40.2780 O   0  0  0  0  0  0  0  0  0  0  0  0
   41.3250   33.9550   39.3400 C   0  0  0  0  0  0  0  0  0  0  0  0
   40.8280   34.9570   39.4450 H   0  0  0  0  0  0  0  0  0  0  0  0
   41.2060   33.5900   38.3220 H   0  0  0  0  0  0  0  0  0  0  0  0
   42.8020   34.1510   39.7090 C   0  0  0  0  0  0  0  0  0  0  0  0
   42.9380   35.0340   40.3320 H   0  0  0  0  0  0  0  0  0  0  0  0
   43.0490   33.2740   40.3440 H   0  0  0  0  0  0  0  0  0  0  0  0
   43.6810   34.0710   38.5060 C   0  0  2  0  0  3  0  0  0  0  0  0
   43.5510   32.6670   37.9280 C   0  0  0  0  0  3  0  0  0  0  0  0
   43.5500   31.9560   38.7790 H   0  0  0  0  0  0  0  0  0  0  0  0
   44.9010   32.5560   37.2440 C   0  0  0  0  0  3  0  0  0  0  0  0
   45.1750   31.4800   37.1600 H   0  0  0  0  0  0  0  0  0  0  0  0
   45.8070   33.2520   38.0060 O   0  0  0  0  0  0  0  0  0  0  0  0
   45.1460   34.1430   38.8250 C   0  0  0  0  0  3  0  0  0  0  0  0
   45.3470   33.8780   39.8700 H   0  0  0  0  0  0  0  0  0  0  0  0
  1  2  2  0  0  0  0
  1  9  1  0  0  0  0
  2  3  1  0  0  0  0
  3 11  1  0  0  0  0
  3  4  2  0  0  0  0
  4  5  1  0  0  0  0
  5 12  1  0  0  0  0
  5  6  1  0  0  0  0
  6 13  1  0  0  0  0
  7  6  2  0  0  0  0
  8  4  1  0  0  0  0
  8  7  1  0  0  0  0
  9  8  2  0  0  0  0
 10  1  1  0  0  0  0
 14 20  1  0  0  0  0
 14 19  1  0  0  0  0
 15 14  2  0  0  0  0
 16 15  1  0  0  0  0
 16 17  2  0  0  0  0
 17 18  1  0  0  0  0
 18 19  2  0  0  0  0
 18  2  1  0  0  0  0
 21 16  1  0  0  0  0
 22 24  1  0  0  0  0
 22 15  1  0  0  0  0
 23 22  1  0  0  0  0
 25 22  1  0  0  0  0
 26  9  1  0  0  0  0
 28 26  1  0  0  0  0
 28 31  1  0  0  0  0
 28 27  2  1  0  0  0
 29 28  1  0  0  0  0
 30 29  1  0  0  0  0
 32 33  1  0  0  0  0
 32 35  1  0  0  0  0
 32 31  1  0  0  0  0
 34 32  1  0  0  0  0
 35 36  1  0  0  0  0
 35 37  1  0  0  0  0
 38 44  1  0  0  0  0
 38 35  1  1  0  0  0
 39 38  1  0  0  0  0
 39 40  1  0  0  0  0
 41 39  1  0  0  0  0
 41 43  1  0  0  0  0
 42 41  1  0  0  0  0
 43 44  1  0  0  0  0
 44 45  1  0  0  0  0
M  END
>  <minimizedAffinity>
-5.47225571

$$$$

 OpenBabel03242513453D

 45 48  0  0  1  0  0  0  0  0999 V2000
   40.3400   29.5580   39.7840 C   0  0  0  0  0  0  0  0  0  0  0  0
   40.1040   28.3940   39.0970 C   0  0  0  0  0  0  0  0  0  0  0  0
   40.6800   28.2490   37.8580 C   0  0  0  0  0  0  0  0  0  0  0  0
   41.4740   29.2050   37.2810 C   0  0  0  0  0  0  0  0  0  0  0  0
   42.1670   29.3680   36.1200 N   0  0  0  0  0  0  0  0  0  0  0  0
   42.7900   30.5850   36.1220 C   0  0  0  0  0  0  0  0  0  0  0  0
   42.4760   31.1670   37.2910 N   0  0  0  0  0  0  0  0  0  0  0  0
   41.6870   30.3490   37.9930 C   0  0  0  0  0  0  0  0  0  0  0  0
   41.1460   30.5660   39.2360 C   0  0  0  0  0  0  0  0  0  0  0  0
   39.9090   29.7170   40.7620 H   0  0  0  0  0  0  0  0  0  0  0  0
   40.5050   27.3350   37.2990 H   0  0  0  0  0  0  0  0  0  0  0  0
   42.1920   28.6420   35.3610 H   0  0  0  0  0  0  0  0  0  0  0  0
   43.4120   30.9960   35.3410 H   0  0  0  0  0  0  0  0  0  0  0  0
   37.8430   25.5390   39.4200 C   0  0  0  0  0  0  0  0  0  0  0  0
   37.7000   25.4100   40.8170 C   0  0  0  0  0  0  0  0  0  0  0  0
   38.4050   26.3320   41.6050 C   0  0  0  0  0  0  0  0  0  0  0  0
   39.1710   27.2830   41.0190 N   0  0  0  0  0  0  0  0  0  0  0  0
   39.2610   27.3470   39.6790 C   0  0  0  0  0  0  0  0  0  0  0  0
   38.6150   26.4980   38.8620 N   0  0  0  0  0  0  0  0  0  0  0  0
   37.3320   24.8670   38.7640 H   0  0  0  0  0  0  0  0  0  0  0  0
   38.2850   26.2190   42.6550 H   0  0  0  0  0  0  0  0  0  0  0  0
   36.8310   24.3270   41.3290 C   0  0  0  0  0  0  0  0  0  0  0  0
   37.6450   23.2240   41.4140 F   0  0  0  0  0  0  0  0  0  0  0  0
   35.8430   24.1040   40.4360 F   0  0  0  0  0  0  0  0  0  0  0  0
   36.3450   24.7300   42.5680 F   0  0  0  0  0  0  0  0  0  0  0  0
   41.3900   31.7440   39.9220 O   0  0  0  0  0  0  0  0  0  0  0  0
   40.9100   34.1610   40.7420 O   0  0  0  0  0  0  0  0  0  0  0  0
   40.2200   32.8390   40.4200 P   0  0  2  0  0  0  0  0  0  0  0  0
   39.5810   32.2610   41.8860 O   0  0  0  0  0  0  0  0  0  0  0  0
   40.0160   32.6820   42.6690 H   0  0  0  0  0  0  0  0  0  0  0  0
   38.9830   33.0850   39.3030 O   0  0  0  0  0  0  0  0  0  0  0  0
   37.7280   32.8740   39.7980 C   0  0  0  0  0  0  0  0  0  0  0  0
   37.1420   33.8230   39.6620 H   0  0  0  0  0  0  0  0  0  0  0  0
   37.7220   32.5830   40.8460 H   0  0  0  0  0  0  0  0  0  0  0  0
   37.0660   31.8140   38.9060 C   0  0  0  0  0  0  0  0  0  0  0  0
   36.1240   32.1760   38.4970 H   0  0  0  0  0  0  0  0  0  0  0  0
   37.7610   31.7000   38.0460 H   0  0  0  0  0  0  0  0  0  0  0  0
   37.0050   30.4880   39.5870 C   0  0  2  0  0  3  0  0  0  0  0  0
   36.1580   29.5610   38.7250 C   0  0  0  0  0  3  0  0  0  0  0  0
   35.2870   30.1450   38.3630 H   0  0  0  0  0  0  0  0  0  0  0  0
   35.6560   28.6150   39.7990 C   0  0  0  0  0  3  0  0  0  0  0  0
   34.6960   28.1630   39.4610 H   0  0  0  0  0  0  0  0  0  0  0  0
   35.4940   29.3460   40.9490 O   0  0  0  0  0  0  0  0  0  0  0  0
   36.2330   30.5080   40.8750 C   0  0  0  0  0  3  0  0  0  0  0  0
   35.5500   31.3650   40.9240 H   0  0  0  0  0  0  0  0  0  0  0  0
  1 10  1  0  0  0  0
  2 18  1  0  0  0  0
  2  1  2  0  0  0  0
  3  2  1  0  0  0  0
  4  3  2  0  0  0  0
  4  8  1  0  0  0  0
  5  6  1  0  0  0  0
  5  4  1  0  0  0  0
  6  7  2  0  0  0  0
  7  8  1  0  0  0  0
  8  9  2  0  0  0  0
  9  1  1  0  0  0  0
  9 26  1  0  0  0  0
 11  3  1  0  0  0  0
 12  5  1  0  0  0  0
 13  6  1  0  0  0  0
 14 15  1  0  0  0  0
 15 22  1  0  0  0  0
 15 16  2  0  0  0  0
 16 21  1  0  0  0  0
 17 16  1  0  0  0  0
 18 17  2  0  0  0  0
 19 14  2  0  0  0  0
 19 18  1  0  0  0  0
 20 14  1  0  0  0  0
 22 23  1  0  0  0  0
 22 25  1  0  0  0  0
 24 22  1  0  0  0  0
 26 28  1  0  0  0  0
 28 27  2  1  0  0  0
 28 29  1  0  0  0  0
 29 30  1  0  0  0  0
 31 32  1  0  0  0  0
 31 28  1  0  0  0  0
 32 34  1  0  0  0  0
 33 32  1  0  0  0  0
 35 32  1  0  0  0  0
 36 35  1  0  0  0  0
 37 35  1  0  0  0  0
 38 35  1  6  0  0  0
 38 44  1  0  0  0  0
 39 38  1  0  0  0  0
 39 41  1  0  0  0  0
 40 39  1  0  0  0  0
 41 43  1  0  0  0  0
 42 41  1  0  0  0  0
 44 45  1  0  0  0  0
 44 43  1  0  0  0  0
M  END
>  <minimizedAffinity>
-5.47138214

$$$$

 OpenBabel03242513453D

 45 48  0  0  1  0  0  0  0  0999 V2000
   37.4440   29.3470   38.2650 C   0  0  0  0  0  0  0  0  0  0  0  0
   37.4120   28.0250   37.9010 C   0  0  0  0  0  0  0  0  0  0  0  0
   37.1190   27.7240   36.5920 C   0  0  0  0  0  0  0  0  0  0  0  0
   36.8610   28.6750   35.6410 C   0  0  0  0  0  0  0  0  0  0  0  0
   36.5510   28.7120   34.3150 N   0  0  0  0  0  0  0  0  0  0  0  0
   36.4070   30.0100   33.9120 C   0  0  0  0  0  0  0  0  0  0  0  0
   36.6300   30.7690   34.9970 N   0  0  0  0  0  0  0  0  0  0  0  0
   36.9020   29.9800   36.0390 C   0  0  0  0  0  0  0  0  0  0  0  0
   37.1870   30.3580   37.3280 C   0  0  0  0  0  0  0  0  0  0  0  0
   37.6700   29.6320   39.2820 H   0  0  0  0  0  0  0  0  0  0  0  0
   37.0880   26.6840   36.2850 H   0  0  0  0  0  0  0  0  0  0  0  0
   36.4480   27.8480   33.7270 H   0  0  0  0  0  0  0  0  0  0  0  0
   36.1630   30.3580   32.9180 H   0  0  0  0  0  0  0  0  0  0  0  0
   39.1500   25.8720   40.2910 C   0  0  0  0  0  0  0  0  0  0  0  0
   38.1300   25.0010   40.7260 C   0  0  0  0  0  0  0  0  0  0  0  0
   36.8590   25.1970   40.1650 C   0  0  0  0  0  0  0  0  0  0  0  0
   36.6610   26.1820   39.2560 N   0  0  0  0  0  0  0  0  0  0  0  0
   37.6820   26.9760   38.8870 C   0  0  0  0  0  0  0  0  0  0  0  0
   38.9230   26.8460   39.3820 N   0  0  0  0  0  0  0  0  0  0  0  0
   40.1400   25.7750   40.6810 H   0  0  0  0  0  0  0  0  0  0  0  0
   36.1040   24.5310   40.5050 H   0  0  0  0  0  0  0  0  0  0  0  0
   38.4800   23.9660   41.7240 C   0  0  0  0  0  0  0  0  0  0  0  0
   38.3530   22.7710   41.0600 F   0  0  0  0  0  0  0  0  0  0  0  0
   37.5930   24.0250   42.7410 F   0  0  0  0  0  0  0  0  0  0  0  0
   39.7830   24.2100   42.1430 F   0  0  0  0  0  0  0  0  0  0  0  0
   37.2180   31.6950   37.6860 O   0  0  0  0  0  0  0  0  0  0  0  0
   36.4240   31.7760   40.1580 O   0  0  0  0  0  0  0  0  0  0  0  0
   37.5230   32.2810   39.2280 P   0  0  2  0  0  0  0  0  0  0  0  0
   37.3590   33.9720   39.1660 O   0  0  0  0  0  0  0  0  0  0  0  0
   36.4590   34.2660   39.4550 H   0  0  0  0  0  0  0  0  0  0  0  0
   39.0380   31.8660   39.8390 O   0  0  0  0  0  0  0  0  0  0  0  0
   39.0510   31.5990   41.1770 C   0  0  0  0  0  0  0  0  0  0  0  0
   38.0190   31.7930   41.5760 H   0  0  0  0  0  0  0  0  0  0  0  0
   39.7770   32.1930   41.7280 H   0  0  0  0  0  0  0  0  0  0  0  0
   39.3100   30.0930   41.3320 C   0  0  0  0  0  0  0  0  0  0  0  0
   39.2300   29.5800   40.3750 H   0  0  0  0  0  0  0  0  0  0  0  0
   40.3750   30.0240   41.6410 H   0  0  0  0  0  0  0  0  0  0  0  0
   38.5020   29.5120   42.4430 C   0  0  2  0  0  3  0  0  0  0  0  0
   39.2670   28.3190   43.0010 C   0  0  0  0  0  3  0  0  0  0  0  0
   39.6840   27.7580   42.1390 H   0  0  0  0  0  0  0  0  0  0  0  0
   38.1050   27.5130   43.5480 C   0  0  0  0  0  3  0  0  0  0  0  0
   38.3950   26.4390   43.5830 H   0  0  0  0  0  0  0  0  0  0  0  0
   37.0320   27.7210   42.7180 O   0  0  0  0  0  0  0  0  0  0  0  0
   37.2210   28.8740   41.9860 C   0  0  0  0  0  3  0  0  0  0  0  0
   37.2550   28.6150   40.9210 H   0  0  0  0  0  0  0  0  0  0  0  0
  1 10  1  0  0  0  0
  2  1  1  0  0  0  0
  2 18  1  0  0  0  0
  3  2  2  0  0  0  0
  4  8  2  0  0  0  0
  4  3  1  0  0  0  0
  5  4  1  0  0  0  0
  6  5  1  0  0  0  0
  6  7  2  0  0  0  0
  7  8  1  0  0  0  0
  8  9  1  0  0  0  0
  9 26  1  0  0  0  0
  9  1  2  0  0  0  0
 11  3  1  0  0  0  0
 12  5  1  0  0  0  0
 13  6  1  0  0  0  0
 14 20  1  0  0  0  0
 14 15  1  0  0  0  0
 15 22  1  0  0  0  0
 16 21  1  0  0  0  0
 16 15  2  0  0  0  0
 17 16  1  0  0  0  0
 18 17  2  0  0  0  0
 18 19  1  0  0  0  0
 19 14  2  0  0  0  0
 22 25  1  0  0  0  0
 22 24  1  0  0  0  0
 23 22  1  0  0  0  0
 26 28  1  0  0  0  0
 28 31  1  0  0  0  0
 28 27  2  1  0  0  0
 29 28  1  0  0  0  0
 29 30  1  0  0  0  0
 31 32  1  0  0  0  0
 32 35  1  0  0  0  0
 32 33  1  0  0  0  0
 32 34  1  0  0  0  0
 35 37  1  0  0  0  0
 36 35  1  0  0  0  0
 38 35  1  6  0  0  0
 38 39  1  0  0  0  0
 39 41  1  0  0  0  0
 40 39  1  0  0  0  0
 41 42  1  0  0  0  0
 43 41  1  0  0  0  0
 44 38  1  0  0  0  0
 44 43  1  0  0  0  0
 45 44  1  0  0  0  0
M  END
>  <minimizedAffinity>
-5.43417835

$$$$
