
 OpenBabel03252509003D

 44 46  0  0  1  0  0  0  0  0999 V2000
   46.5640   34.6010   43.5810 N   0  0  0  0  0  0  0  0  0  0  0  0
   46.0570   35.5600   42.6680 C   0  0  0  0  0  0  0  0  0  0  0  0
   44.5530   35.7040   42.6460 C   0  0  0  0  0  0  0  0  0  0  0  0
   43.8940   35.4800   43.9810 C   0  0  0  0  0  0  0  0  0  0  0  0
   44.9020   35.2410   45.0760 C   0  0  0  0  0  0  0  0  0  0  0  0
   45.7420   34.0260   44.5370 C   0  0  2  0  0  0  0  0  0  0  0  0
   46.3880   35.4580   41.6310 H   0  0  0  0  0  0  0  0  0  0  0  0
   46.4510   36.5600   42.9960 H   0  0  0  0  0  0  0  0  0  0  0  0
   44.2950   36.7450   42.3210 H   0  0  0  0  0  0  0  0  0  0  0  0
   44.1700   35.0430   41.8460 H   0  0  0  0  0  0  0  0  0  0  0  0
   43.2880   34.5510   43.9130 H   0  0  0  0  0  0  0  0  0  0  0  0
   43.2520   36.3230   44.3060 H   0  0  0  0  0  0  0  0  0  0  0  0
   45.5700   36.0850   45.2660 H   0  0  0  0  0  0  0  0  0  0  0  0
   44.3830   34.8560   45.9700 H   0  0  0  0  0  0  0  0  0  0  0  0
   45.0030   33.2620   44.2120 H   0  0  0  0  0  0  0  0  0  0  0  0
   47.6800   33.8510   43.0850 C   0  0  0  0  0  0  0  0  0  0  0  0
   48.2500   33.3810   43.9180 H   0  0  0  0  0  0  0  0  0  0  0  0
   48.3660   34.5240   42.5670 H   0  0  0  0  0  0  0  0  0  0  0  0
   47.1670   32.7520   42.2040 C   0  0  0  0  0  0  0  0  0  0  0  0
   46.0570   32.7980   42.1130 H   0  0  0  0  0  0  0  0  0  0  0  0
   47.3960   31.7600   42.6100 H   0  0  0  0  0  0  0  0  0  0  0  0
   49.1950   32.0630   39.1170 C   0  0  0  0  0  0  0  0  0  0  0  0
   48.6290   31.9430   40.3990 C   0  0  0  0  0  0  0  0  0  0  0  0
   47.7540   32.8980   40.8450 C   0  0  0  0  0  0  0  0  0  0  0  0
   47.4760   33.9170   40.0250 N   0  0  0  0  0  0  0  0  0  0  0  0
   48.0180   34.0300   38.7970 C   0  0  0  0  0  0  0  0  0  0  0  0
   48.8730   33.1180   38.3330 N   0  0  0  0  0  0  0  0  0  0  0  0
   49.8830   31.2900   38.7930 H   0  0  0  0  0  0  0  0  0  0  0  0
   48.8700   31.1070   41.0460 H   0  0  0  0  0  0  0  0  0  0  0  0
   47.6840   34.9050   38.2820 H   0  0  0  0  0  0  0  0  0  0  0  0
   46.4500   33.6530   45.6710 O   0  0  0  0  0  0  0  0  0  0  0  0
   45.6110   31.2550   44.9530 O   0  0  0  0  0  0  0  0  0  0  0  0
   46.2130   32.0440   46.0920 P   0  0  2  0  0  0  0  0  0  0  0  0
   45.0240   32.0460   47.3240 O   0  0  0  0  0  0  0  0  0  0  0  0
   44.1200   32.1600   46.9080 H   0  0  0  0  0  0  0  0  0  0  0  0
   47.6090   31.3800   46.7120 O   0  0  0  0  0  0  0  0  0  0  0  0
   47.4920   30.1320   47.2360 C   0  0  2  0  0  3  0  0  0  0  0  0
   48.6200   29.9580   48.2470 C   0  0  0  0  0  3  0  0  0  0  0  0
   48.3060   30.2740   49.2610 H   0  0  0  0  0  0  0  0  0  0  0  0
   48.9120   28.4830   48.1420 C   0  0  0  0  0  3  0  0  0  0  0  0
   49.9870   28.3020   47.9830 H   0  0  0  0  0  0  0  0  0  0  0  0
   48.1280   27.9540   47.1310 O   0  0  0  0  0  0  0  0  0  0  0  0
   47.7960   29.0120   46.2800 C   0  0  0  0  0  3  0  0  0  0  0  0
   48.6300   29.2930   45.6190 H   0  0  0  0  0  0  0  0  0  0  0  0
  1  6  1  0  0  0  0
  2  8  1  0  0  0  0
  2  1  1  0  0  0  0
  3  2  1  0  0  0  0
  3  4  1  0  0  0  0
  4 12  1  0  0  0  0
  4  5  1  0  0  0  0
  5 13  1  0  0  0  0
  5 14  1  0  0  0  0
  6 15  1  6  0  0  0
  6  5  1  0  0  0  0
  6 31  1  0  0  0  0
  7  2  1  0  0  0  0
  9  3  1  0  0  0  0
 10  3  1  0  0  0  0
 11  4  1  0  0  0  0
 16  1  1  0  0  0  0
 16 17  1  0  0  0  0
 18 16  1  0  0  0  0
 19 21  1  0  0  0  0
 19 16  1  0  0  0  0
 20 19  1  0  0  0  0
 22 23  1  0  0  0  0
 23 24  2  0  0  0  0
 23 29  1  0  0  0  0
 24 19  1  0  0  0  0
 25 24  1  0  0  0  0
 26 25  2  0  0  0  0
 27 26  1  0  0  0  0
 27 22  2  0  0  0  0
 28 22  1  0  0  0  0
 30 26  1  0  0  0  0
 31 33  1  0  0  0  0
 33 32  2  6  0  0  0
 33 36  1  0  0  0  0
 33 34  1  0  0  0  0
 35 34  1  0  0  0  0
 37 36  1  6  0  0  0
 37 38  1  0  0  0  0
 38 39  1  0  0  0  0
 40 38  1  0  0  0  0
 41 40  1  0  0  0  0
 42 40  1  0  0  0  0
 43 42  1  0  0  0  0
 43 37  1  0  0  0  0
 44 43  1  0  0  0  0
M  END
>  <minimizedAffinity>
-4.25913668

>  <minimizedRMSD>
1.20914936

$$$$
