
 OpenBabel03252500553D

 29 30  0  0  1  0  0  0  0  0999 V2000
   38.2360   26.9380   42.7270 C   0  0  0  0  0  0  0  0  0  0  0  0
   38.3800   28.3180   42.6740 C   0  0  0  0  0  0  0  0  0  0  0  0
   39.6730   28.8480   42.7980 C   0  0  0  0  0  0  0  0  0  0  0  0
   40.6960   27.9750   42.9620 N   0  0  0  0  0  0  0  0  0  0  0  0
   40.5170   26.6350   43.0080 C   0  0  0  0  0  0  0  0  0  0  0  0
   39.2920   26.1490   42.8890 N   0  0  0  0  0  0  0  0  0  0  0  0
   39.7620   29.9080   42.7550 H   0  0  0  0  0  0  0  0  0  0  0  0
   41.4160   26.0270   43.1440 H   0  0  0  0  0  0  0  0  0  0  0  0
   36.9120   26.3280   42.6020 C   0  0  0  0  0  0  0  0  0  0  0  0
   36.3010   26.3990   43.5410 H   0  0  0  0  0  0  0  0  0  0  0  0
   36.3180   26.8600   41.8240 H   0  0  0  0  0  0  0  0  0  0  0  0
   37.0650   24.8980   42.1490 C   0  0  0  0  0  0  0  0  0  0  0  0
   36.1950   24.3380   42.5330 H   0  0  0  0  0  0  0  0  0  0  0  0
   37.1840   24.8160   41.0660 H   0  0  0  0  0  0  0  0  0  0  0  0
   37.9890   24.4800   42.6170 H   0  0  0  0  0  0  0  0  0  0  0  0
   37.2230   29.0720   42.5010 O   0  0  0  0  0  0  0  0  0  0  0  0
   36.0510   28.7670   40.1720 O   0  0  0  0  0  0  0  0  0  0  0  0
   36.7100   29.8110   41.0730 P   0  0  1  0  0  0  0  0  0  0  0  0
   35.5610   30.9870   41.4710 O   0  0  0  0  0  0  0  0  0  0  0  0
   35.7350   31.8660   41.0760 H   0  0  0  0  0  0  0  0  0  0  0  0
   37.9780   30.5610   40.2350 O   0  0  0  0  0  0  0  0  0  0  0  0
   38.1180   31.8570   40.7100 C   0  0  1  0  0  3  0  0  0  0  0  0
   39.4900   32.2060   41.1720 C   0  0  0  0  0  3  0  0  0  0  0  0
   40.2430   31.5030   40.7590 H   0  0  0  0  0  0  0  0  0  0  0  0
   39.7030   33.5860   40.6270 C   0  0  0  0  0  3  0  0  0  0  0  0
   39.6660   34.3830   41.3740 H   0  0  0  0  0  0  0  0  0  0  0  0
   38.7940   33.8250   39.6270 O   0  0  0  0  0  0  0  0  0  0  0  0
   37.7930   32.8930   39.6730 C   0  0  0  0  0  3  0  0  0  0  0  0
   36.8380   33.4360   39.9320 H   0  0  0  0  0  0  0  0  0  0  0  0
  1  6  1  0  0  0  0
  2  1  2  0  0  0  0
  2  3  1  0  0  0  0
  3  4  2  0  0  0  0
  4  5  1  0  0  0  0
  5  8  1  0  0  0  0
  6  5  2  0  0  0  0
  7  3  1  0  0  0  0
  9  1  1  0  0  0  0
  9 10  1  0  0  0  0
 11  9  1  0  0  0  0
 12 13  1  0  0  0  0
 12  9  1  0  0  0  0
 12 15  1  0  0  0  0
 14 12  1  0  0  0  0
 16  2  1  0  0  0  0
 18 17  2  6  0  0  0
 18 19  1  0  0  0  0
 18 16  1  0  0  0  0
 20 19  1  0  0  0  0
 21 18  1  0  0  0  0
 22 21  1  6  0  0  0
 22 23  1  0  0  0  0
 24 23  1  0  0  0  0
 25 23  1  0  0  0  0
 25 26  1  0  0  0  0
 27 28  1  0  0  0  0
 27 25  1  0  0  0  0
 28 29  1  0  0  0  0
 28 22  1  0  0  0  0
M  END
>  <minimizedAffinity>
-4.74627924

$$$$

 OpenBabel03252500553D

 29 30  0  0  1  0  0  0  0  0999 V2000
   37.8310   26.7220   42.5150 C   0  0  0  0  0  0  0  0  0  0  0  0
   37.4910   28.0580   42.3460 C   0  0  0  0  0  0  0  0  0  0  0  0
   38.4500   29.0260   42.6780 C   0  0  0  0  0  0  0  0  0  0  0  0
   39.6470   28.5910   43.1410 N   0  0  0  0  0  0  0  0  0  0  0  0
   39.9420   27.2800   43.2930 C   0  0  0  0  0  0  0  0  0  0  0  0
   39.0280   26.3780   42.9760 N   0  0  0  0  0  0  0  0  0  0  0  0
   38.1700   30.0440   42.5410 H   0  0  0  0  0  0  0  0  0  0  0  0
   40.9390   27.0450   43.6760 H   0  0  0  0  0  0  0  0  0  0  0  0
   36.8710   25.6680   42.1860 C   0  0  0  0  0  0  0  0  0  0  0  0
   36.0050   25.6190   42.8980 H   0  0  0  0  0  0  0  0  0  0  0  0
   36.4190   25.8630   41.1860 H   0  0  0  0  0  0  0  0  0  0  0  0
   37.5940   24.3470   42.1010 C   0  0  0  0  0  0  0  0  0  0  0  0
   36.8660   23.5580   42.3570 H   0  0  0  0  0  0  0  0  0  0  0  0
   38.0680   24.1940   41.1290 H   0  0  0  0  0  0  0  0  0  0  0  0
   38.4040   24.3430   42.8700 H   0  0  0  0  0  0  0  0  0  0  0  0
   36.2170   28.3330   41.8580 O   0  0  0  0  0  0  0  0  0  0  0  0
   34.4620   29.0610   40.0460 O   0  0  0  0  0  0  0  0  0  0  0  0
   35.8250   29.4270   40.6330 P   0  0  1  0  0  0  0  0  0  0  0  0
   35.7260   30.9710   41.3170 O   0  0  0  0  0  0  0  0  0  0  0  0
   36.2440   31.6530   40.8420 H   0  0  0  0  0  0  0  0  0  0  0  0
   36.9830   29.4610   39.3960 O   0  0  0  0  0  0  0  0  0  0  0  0
   37.4800   30.7520   39.2890 C   0  0  1  0  0  3  0  0  0  0  0  0
   38.9340   30.8850   39.5820 C   0  0  0  0  0  3  0  0  0  0  0  0
   39.4500   29.9040   39.5100 H   0  0  0  0  0  0  0  0  0  0  0  0
   39.4230   31.8170   38.5150 C   0  0  0  0  0  3  0  0  0  0  0  0
   39.6550   32.8270   38.8610 H   0  0  0  0  0  0  0  0  0  0  0  0
   38.5060   31.8590   37.4930 O   0  0  0  0  0  0  0  0  0  0  0  0
   37.3180   31.3240   37.9100 C   0  0  0  0  0  3  0  0  0  0  0  0
   36.5540   32.1550   37.9070 H   0  0  0  0  0  0  0  0  0  0  0  0
  1  6  1  0  0  0  0
  2  1  2  0  0  0  0
  2  3  1  0  0  0  0
  3  4  2  0  0  0  0
  4  5  1  0  0  0  0
  5  8  1  0  0  0  0
  6  5  2  0  0  0  0
  7  3  1  0  0  0  0
  9  1  1  0  0  0  0
  9 10  1  0  0  0  0
 11  9  1  0  0  0  0
 12  9  1  0  0  0  0
 12 13  1  0  0  0  0
 12 15  1  0  0  0  0
 14 12  1  0  0  0  0
 16  2  1  0  0  0  0
 18 17  2  6  0  0  0
 18 19  1  0  0  0  0
 18 16  1  0  0  0  0
 20 19  1  0  0  0  0
 21 18  1  0  0  0  0
 22 21  1  6  0  0  0
 22 23  1  0  0  0  0
 24 23  1  0  0  0  0
 25 26  1  0  0  0  0
 25 23  1  0  0  0  0
 27 28  1  0  0  0  0
 27 25  1  0  0  0  0
 28 22  1  0  0  0  0
 29 28  1  0  0  0  0
M  END
>  <minimizedAffinity>
-4.7101655

$$$$

 OpenBabel03252500553D

 29 30  0  0  1  0  0  0  0  0999 V2000
   36.1470   28.9620   41.0530 C   0  0  0  0  0  0  0  0  0  0  0  0
   36.9360   30.0080   41.5130 C   0  0  0  0  0  0  0  0  0  0  0  0
   37.9540   29.7070   42.4310 C   0  0  0  0  0  0  0  0  0  0  0  0
   38.0990   28.4130   42.8060 N   0  0  0  0  0  0  0  0  0  0  0  0
   37.3100   27.4200   42.3360 C   0  0  0  0  0  0  0  0  0  0  0  0
   36.3540   27.7190   41.4710 N   0  0  0  0  0  0  0  0  0  0  0  0
   38.5470   30.5220   42.7710 H   0  0  0  0  0  0  0  0  0  0  0  0
   37.5170   26.4140   42.7090 H   0  0  0  0  0  0  0  0  0  0  0  0
   35.0700   29.2160   40.0950 C   0  0  0  0  0  0  0  0  0  0  0  0
   34.1150   28.6880   40.3520 H   0  0  0  0  0  0  0  0  0  0  0  0
   34.8150   30.3000   40.0870 H   0  0  0  0  0  0  0  0  0  0  0  0
   35.5450   28.8560   38.7090 C   0  0  0  0  0  0  0  0  0  0  0  0
   34.6560   28.5680   38.1230 H   0  0  0  0  0  0  0  0  0  0  0  0
   36.1220   29.6600   38.2460 H   0  0  0  0  0  0  0  0  0  0  0  0
   36.2180   27.9690   38.7900 H   0  0  0  0  0  0  0  0  0  0  0  0
   36.6540   31.2800   41.0260 O   0  0  0  0  0  0  0  0  0  0  0  0
   38.1120   31.5970   38.8660 O   0  0  0  0  0  0  0  0  0  0  0  0
   37.7060   32.2840   40.1690 P   0  0  1  0  0  0  0  0  0  0  0  0
   36.8840   33.7150   39.7950 O   0  0  0  0  0  0  0  0  0  0  0  0
   37.3690   34.5300   40.0360 H   0  0  0  0  0  0  0  0  0  0  0  0
   39.0950   32.6800   41.0560 O   0  0  0  0  0  0  0  0  0  0  0  0
   40.1720   32.7530   40.1850 C   0  0  1  0  0  3  0  0  0  0  0  0
   40.5140   34.1300   39.7320 C   0  0  0  0  0  3  0  0  0  0  0  0
   40.0800   34.8950   40.4100 H   0  0  0  0  0  0  0  0  0  0  0  0
   42.0110   34.1590   39.7950 C   0  0  0  0  0  3  0  0  0  0  0  0
   42.5100   34.1310   38.8230 H   0  0  0  0  0  0  0  0  0  0  0  0
   42.4520   33.1290   40.5890 O   0  0  0  0  0  0  0  0  0  0  0  0
   41.4430   32.2270   40.7870 C   0  0  0  0  0  3  0  0  0  0  0  0
   41.7520   31.2600   40.2930 H   0  0  0  0  0  0  0  0  0  0  0  0
  1  6  2  0  0  0  0
  1  2  1  0  0  0  0
  2  3  2  0  0  0  0
  3  7  1  0  0  0  0
  3  4  1  0  0  0  0
  5  8  1  0  0  0  0
  5  4  2  0  0  0  0
  6  5  1  0  0  0  0
  9 10  1  0  0  0  0
  9  1  1  0  0  0  0
 11  9  1  0  0  0  0
 12 15  1  0  0  0  0
 12  9  1  0  0  0  0
 13 12  1  0  0  0  0
 14 12  1  0  0  0  0
 16  2  1  0  0  0  0
 18 17  2  6  0  0  0
 18 16  1  0  0  0  0
 18 21  1  0  0  0  0
 19 20  1  0  0  0  0
 19 18  1  0  0  0  0
 22 28  1  0  0  0  0
 22 21  1  1  0  0  0
 23 25  1  0  0  0  0
 23 22  1  0  0  0  0
 23 24  1  0  0  0  0
 25 27  1  0  0  0  0
 26 25  1  0  0  0  0
 27 28  1  0  0  0  0
 29 28  1  0  0  0  0
M  END
>  <minimizedAffinity>
-4.6475482

$$$$

 OpenBabel03252500553D

 29 30  0  0  1  0  0  0  0  0999 V2000
   37.3180   26.6080   41.6350 C   0  0  0  0  0  0  0  0  0  0  0  0
   37.0640   27.2480   40.4290 C   0  0  0  0  0  0  0  0  0  0  0  0
   36.5970   26.4690   39.3590 C   0  0  0  0  0  0  0  0  0  0  0  0
   36.4260   25.1430   39.5750 N   0  0  0  0  0  0  0  0  0  0  0  0
   36.6840   24.5540   40.7660 C   0  0  0  0  0  0  0  0  0  0  0  0
   37.1240   25.3010   41.7660 N   0  0  0  0  0  0  0  0  0  0  0  0
   36.4080   26.9780   38.4430 H   0  0  0  0  0  0  0  0  0  0  0  0
   36.5100   23.4770   40.8260 H   0  0  0  0  0  0  0  0  0  0  0  0
   37.8060   27.3690   42.7850 C   0  0  0  0  0  0  0  0  0  0  0  0
   38.6180   26.8420   43.3530 H   0  0  0  0  0  0  0  0  0  0  0  0
   38.2590   28.3280   42.4440 H   0  0  0  0  0  0  0  0  0  0  0  0
   36.6420   27.7160   43.6800 C   0  0  0  0  0  0  0  0  0  0  0  0
   37.0350   27.8110   44.7060 H   0  0  0  0  0  0  0  0  0  0  0  0
   36.1080   28.6060   43.3400 H   0  0  0  0  0  0  0  0  0  0  0  0
   35.9180   26.8660   43.6560 H   0  0  0  0  0  0  0  0  0  0  0  0
   37.2930   28.6190   40.3750 O   0  0  0  0  0  0  0  0  0  0  0  0
   36.0740   30.0720   38.5600 O   0  0  0  0  0  0  0  0  0  0  0  0
   36.1460   29.8180   40.0650 P   0  0  1  0  0  0  0  0  0  0  0  0
   34.6400   29.2570   40.5940 O   0  0  0  0  0  0  0  0  0  0  0  0
   34.1600   29.8840   41.1720 H   0  0  0  0  0  0  0  0  0  0  0  0
   36.4900   31.2710   40.8680 O   0  0  0  0  0  0  0  0  0  0  0  0
   37.5500   31.8930   40.2260 C   0  0  1  0  0  3  0  0  0  0  0  0
   37.2540   33.2600   39.7160 C   0  0  0  0  0  3  0  0  0  0  0  0
   36.3600   33.6890   40.2140 H   0  0  0  0  0  0  0  0  0  0  0  0
   38.4820   34.0420   40.0720 C   0  0  0  0  0  3  0  0  0  0  0  0
   39.1300   34.2860   39.2260 H   0  0  0  0  0  0  0  0  0  0  0  0
   39.1870   33.3650   41.0360 O   0  0  0  0  0  0  0  0  0  0  0  0
   38.7450   32.0730   41.1180 C   0  0  0  0  0  3  0  0  0  0  0  0
   39.5940   31.4040   40.7940 H   0  0  0  0  0  0  0  0  0  0  0  0
  1  6  1  0  0  0  0
  1  9  1  0  0  0  0
  2  1  2  0  0  0  0
  3  4  2  0  0  0  0
  3  2  1  0  0  0  0
  4  5  1  0  0  0  0
  5  8  1  0  0  0  0
  5  6  2  0  0  0  0
  7  3  1  0  0  0  0
  9 10  1  0  0  0  0
  9 12  1  0  0  0  0
 11  9  1  0  0  0  0
 12 13  1  0  0  0  0
 14 12  1  0  0  0  0
 15 12  1  0  0  0  0
 16  2  1  0  0  0  0
 18 17  2  6  0  0  0
 18 16  1  0  0  0  0
 18 19  1  0  0  0  0
 18 21  1  0  0  0  0
 19 20  1  0  0  0  0
 22 21  1  1  0  0  0
 22 28  1  0  0  0  0
 23 25  1  0  0  0  0
 23 24  1  0  0  0  0
 23 22  1  0  0  0  0
 25 27  1  0  0  0  0
 26 25  1  0  0  0  0
 27 28  1  0  0  0  0
 29 28  1  0  0  0  0
M  END
>  <minimizedAffinity>
-4.61991024

$$$$

 OpenBabel03252500553D

 29 30  0  0  1  0  0  0  0  0999 V2000
   35.9860   28.6780   37.9140 C   0  0  0  0  0  0  0  0  0  0  0  0
   36.8910   29.7190   38.0790 C   0  0  0  0  0  0  0  0  0  0  0  0
   38.1250   29.6260   37.4190 C   0  0  0  0  0  0  0  0  0  0  0  0
   38.3510   28.5250   36.6630 N   0  0  0  0  0  0  0  0  0  0  0  0
   37.4450   27.5300   36.5260 C   0  0  0  0  0  0  0  0  0  0  0  0
   36.2850   27.6310   37.1540 N   0  0  0  0  0  0  0  0  0  0  0  0
   38.8040   30.4340   37.5580 H   0  0  0  0  0  0  0  0  0  0  0  0
   37.7350   26.6890   35.8910 H   0  0  0  0  0  0  0  0  0  0  0  0
   34.6830   28.7210   38.5790 C   0  0  0  0  0  0  0  0  0  0  0  0
   34.4990   27.8410   39.2500 H   0  0  0  0  0  0  0  0  0  0  0  0
   34.6210   29.6150   39.2410 H   0  0  0  0  0  0  0  0  0  0  0  0
   33.6000   28.8580   37.5380 C   0  0  0  0  0  0  0  0  0  0  0  0
   32.6870   28.3980   37.9520 H   0  0  0  0  0  0  0  0  0  0  0  0
   33.4540   29.8950   37.2250 H   0  0  0  0  0  0  0  0  0  0  0  0
   33.9090   28.2790   36.6340 H   0  0  0  0  0  0  0  0  0  0  0  0
   36.5000   30.7790   38.8920 O   0  0  0  0  0  0  0  0  0  0  0  0
   37.7280   32.3680   40.5830 O   0  0  0  0  0  0  0  0  0  0  0  0
   36.9690   31.0450   40.4910 P   0  0  1  0  0  0  0  0  0  0  0  0
   35.5720   31.1530   41.4390 O   0  0  0  0  0  0  0  0  0  0  0  0
   35.5820   30.5810   42.2340 H   0  0  0  0  0  0  0  0  0  0  0  0
   37.9370   29.7950   41.1020 O   0  0  0  0  0  0  0  0  0  0  0  0
   37.2160   29.1070   42.0670 C   0  0  1  0  0  3  0  0  0  0  0  0
   36.7500   27.7560   41.6510 C   0  0  0  0  0  3  0  0  0  0  0  0
   37.3270   27.3830   40.7790 H   0  0  0  0  0  0  0  0  0  0  0  0
   37.0120   26.9060   42.8580 C   0  0  0  0  0  3  0  0  0  0  0  0
   36.1190   26.6180   43.4170 H   0  0  0  0  0  0  0  0  0  0  0  0
   37.9060   27.5490   43.6790 O   0  0  0  0  0  0  0  0  0  0  0  0
   38.0070   28.8640   43.3210 C   0  0  0  0  0  3  0  0  0  0  0  0
   37.6050   29.4800   44.1760 H   0  0  0  0  0  0  0  0  0  0  0  0
  1  2  1  0  0  0  0
  1  9  1  0  0  0  0
  2 16  1  0  0  0  0
  3  7  1  0  0  0  0
  3  2  2  0  0  0  0
  4  3  1  0  0  0  0
  5  4  2  0  0  0  0
  5  6  1  0  0  0  0
  6  1  2  0  0  0  0
  8  5  1  0  0  0  0
  9 11  1  0  0  0  0
  9 10  1  0  0  0  0
 12 13  1  0  0  0  0
 12  9  1  0  0  0  0
 14 12  1  0  0  0  0
 15 12  1  0  0  0  0
 16 18  1  0  0  0  0
 18 17  2  1  0  0  0
 18 21  1  0  0  0  0
 18 19  1  0  0  0  0
 19 20  1  0  0  0  0
 22 21  1  6  0  0  0
 22 28  1  0  0  0  0
 23 22  1  0  0  0  0
 23 25  1  0  0  0  0
 24 23  1  0  0  0  0
 25 26  1  0  0  0  0
 25 27  1  0  0  0  0
 28 27  1  0  0  0  0
 28 29  1  0  0  0  0
M  END
>  <minimizedAffinity>
-4.59490681

$$$$

 OpenBabel03252500553D

 29 30  0  0  1  0  0  0  0  0999 V2000
   37.1050   30.4570   40.0060 C   0  0  0  0  0  0  0  0  0  0  0  0
   38.1300   30.1890   40.9040 C   0  0  0  0  0  0  0  0  0  0  0  0
   38.8810   31.2730   41.3840 C   0  0  0  0  0  0  0  0  0  0  0  0
   38.5540   32.5100   40.9380 N   0  0  0  0  0  0  0  0  0  0  0  0
   37.5470   32.7320   40.0610 C   0  0  0  0  0  0  0  0  0  0  0  0
   36.8480   31.7010   39.6170 N   0  0  0  0  0  0  0  0  0  0  0  0
   39.6610   31.0470   42.0710 H   0  0  0  0  0  0  0  0  0  0  0  0
   37.3740   33.7710   39.7700 H   0  0  0  0  0  0  0  0  0  0  0  0
   36.2880   29.3670   39.4710 C   0  0  0  0  0  0  0  0  0  0  0  0
   36.0760   29.4680   38.3750 H   0  0  0  0  0  0  0  0  0  0  0  0
   36.8280   28.3980   39.5790 H   0  0  0  0  0  0  0  0  0  0  0  0
   35.0150   29.2620   40.2740 C   0  0  0  0  0  0  0  0  0  0  0  0
   34.2420   28.8410   39.6080 H   0  0  0  0  0  0  0  0  0  0  0  0
   35.1490   28.6870   41.1930 H   0  0  0  0  0  0  0  0  0  0  0  0
   34.7030   30.2930   40.5700 H   0  0  0  0  0  0  0  0  0  0  0  0
   38.3330   28.8600   41.2600 O   0  0  0  0  0  0  0  0  0  0  0  0
   39.1750   27.6780   43.4470 O   0  0  0  0  0  0  0  0  0  0  0  0
   37.9090   28.1350   42.7240 P   0  0  1  0  0  0  0  0  0  0  0  0
   37.1270   29.2940   43.6790 O   0  0  0  0  0  0  0  0  0  0  0  0
   36.2720   28.9950   44.0510 H   0  0  0  0  0  0  0  0  0  0  0  0
   36.8650   26.8150   42.5200 O   0  0  0  0  0  0  0  0  0  0  0  0
   37.4720   25.8970   41.6750 C   0  0  1  0  0  3  0  0  0  0  0  0
   37.4590   24.4930   42.1700 C   0  0  0  0  0  3  0  0  0  0  0  0
   36.6870   24.3510   42.9560 H   0  0  0  0  0  0  0  0  0  0  0  0
   37.1190   23.6930   40.9490 C   0  0  0  0  0  3  0  0  0  0  0  0
   37.9540   23.1280   40.5260 H   0  0  0  0  0  0  0  0  0  0  0  0
   36.5730   24.5230   40.0010 O   0  0  0  0  0  0  0  0  0  0  0  0
   36.8180   25.8280   40.3260 C   0  0  0  0  0  3  0  0  0  0  0  0
   37.4940   26.2540   39.5290 H   0  0  0  0  0  0  0  0  0  0  0  0
  1  2  1  0  0  0  0
  2 16  1  0  0  0  0
  2  3  2  0  0  0  0
  3  7  1  0  0  0  0
  4  3  1  0  0  0  0
  5  4  2  0  0  0  0
  6  1  2  0  0  0  0
  6  5  1  0  0  0  0
  8  5  1  0  0  0  0
  9 11  1  0  0  0  0
  9  1  1  0  0  0  0
  9 12  1  0  0  0  0
 10  9  1  0  0  0  0
 12 15  1  0  0  0  0
 12 14  1  0  0  0  0
 13 12  1  0  0  0  0
 16 18  1  0  0  0  0
 18 17  2  1  0  0  0
 18 19  1  0  0  0  0
 19 20  1  0  0  0  0
 21 18  1  0  0  0  0
 22 23  1  0  0  0  0
 22 21  1  1  0  0  0
 23 24  1  0  0  0  0
 25 23  1  0  0  0  0
 26 25  1  0  0  0  0
 27 28  1  0  0  0  0
 27 25  1  0  0  0  0
 28 22  1  0  0  0  0
 29 28  1  0  0  0  0
M  END
>  <minimizedAffinity>
-4.56327391

$$$$

 OpenBabel03252500553D

 29 30  0  0  1  0  0  0  0  0999 V2000
   36.7550   30.2360   38.9680 C   0  0  0  0  0  0  0  0  0  0  0  0
   36.2560   29.9180   40.2250 C   0  0  0  0  0  0  0  0  0  0  0  0
   35.0370   29.2260   40.2900 C   0  0  0  0  0  0  0  0  0  0  0  0
   34.4280   28.9140   39.1200 N   0  0  0  0  0  0  0  0  0  0  0  0
   34.9460   29.2410   37.9140 C   0  0  0  0  0  0  0  0  0  0  0  0
   36.0960   29.8940   37.8670 N   0  0  0  0  0  0  0  0  0  0  0  0
   34.6710   28.9920   41.2610 H   0  0  0  0  0  0  0  0  0  0  0  0
   34.3680   28.9400   37.0360 H   0  0  0  0  0  0  0  0  0  0  0  0
   38.0220   30.9560   38.8390 C   0  0  0  0  0  0  0  0  0  0  0  0
   38.3250   31.4920   39.7760 H   0  0  0  0  0  0  0  0  0  0  0  0
   38.8490   30.2390   38.6290 H   0  0  0  0  0  0  0  0  0  0  0  0
   37.9380   31.8990   37.6650 C   0  0  0  0  0  0  0  0  0  0  0  0
   38.6220   32.7400   37.8710 H   0  0  0  0  0  0  0  0  0  0  0  0
   38.1460   31.4000   36.7150 H   0  0  0  0  0  0  0  0  0  0  0  0
   36.8960   32.2970   37.6090 H   0  0  0  0  0  0  0  0  0  0  0  0
   37.0070   30.3120   41.3270 O   0  0  0  0  0  0  0  0  0  0  0  0
   39.0950   30.0460   42.8970 O   0  0  0  0  0  0  0  0  0  0  0  0
   37.8690   29.3010   42.3690 P   0  0  1  0  0  0  0  0  0  0  0  0
   36.8660   28.9120   43.6750 O   0  0  0  0  0  0  0  0  0  0  0  0
   36.8140   27.9530   43.8670 H   0  0  0  0  0  0  0  0  0  0  0  0
   38.3600   27.8620   41.6220 O   0  0  0  0  0  0  0  0  0  0  0  0
   37.9550   26.7930   42.4070 C   0  0  1  0  0  3  0  0  0  0  0  0
   37.1460   25.7670   41.6930 C   0  0  0  0  0  3  0  0  0  0  0  0
   37.2780   25.8450   40.5940 H   0  0  0  0  0  0  0  0  0  0  0  0
   37.7000   24.4690   42.1990 C   0  0  0  0  0  3  0  0  0  0  0  0
   37.0500   23.9360   42.8980 H   0  0  0  0  0  0  0  0  0  0  0  0
   38.9320   24.6910   42.7640 O   0  0  0  0  0  0  0  0  0  0  0  0
   39.1090   26.0280   42.9880 C   0  0  0  0  0  3  0  0  0  0  0  0
   39.1700   26.1780   44.1050 H   0  0  0  0  0  0  0  0  0  0  0  0
  1  2  1  0  0  0  0
  2  3  2  0  0  0  0
  2 16  1  0  0  0  0
  3  7  1  0  0  0  0
  4  3  1  0  0  0  0
  5  4  2  0  0  0  0
  6  5  1  0  0  0  0
  6  1  2  0  0  0  0
  8  5  1  0  0  0  0
  9  1  1  0  0  0  0
  9 10  1  0  0  0  0
 11  9  1  0  0  0  0
 12 13  1  0  0  0  0
 12  9  1  0  0  0  0
 14 12  1  0  0  0  0
 15 12  1  0  0  0  0
 16 18  1  0  0  0  0
 18 17  2  1  0  0  0
 18 19  1  0  0  0  0
 19 20  1  0  0  0  0
 21 18  1  0  0  0  0
 22 21  1  6  0  0  0
 22 28  1  0  0  0  0
 23 25  1  0  0  0  0
 23 22  1  0  0  0  0
 24 23  1  0  0  0  0
 25 27  1  0  0  0  0
 25 26  1  0  0  0  0
 27 28  1  0  0  0  0
 28 29  1  0  0  0  0
M  END
>  <minimizedAffinity>
-4.45410204

$$$$

 OpenBabel03252500553D

 29 30  0  0  1  0  0  0  0  0999 V2000
   37.8480   26.6900   42.5360 C   0  0  0  0  0  0  0  0  0  0  0  0
   37.5290   28.0360   42.4090 C   0  0  0  0  0  0  0  0  0  0  0  0
   38.5200   28.9780   42.7250 C   0  0  0  0  0  0  0  0  0  0  0  0
   39.7240   28.5090   43.1340 N   0  0  0  0  0  0  0  0  0  0  0  0
   39.9980   27.1890   43.2460 C   0  0  0  0  0  0  0  0  0  0  0  0
   39.0540   26.3120   42.9440 N   0  0  0  0  0  0  0  0  0  0  0  0
   38.2560   30.0030   42.6200 H   0  0  0  0  0  0  0  0  0  0  0  0
   41.0030   26.9260   43.5860 H   0  0  0  0  0  0  0  0  0  0  0  0
   36.8540   25.6630   42.2200 C   0  0  0  0  0  0  0  0  0  0  0  0
   36.8100   24.8410   42.9810 H   0  0  0  0  0  0  0  0  0  0  0  0
   35.8340   26.1100   42.2090 H   0  0  0  0  0  0  0  0  0  0  0  0
   37.1220   25.1240   40.8370 C   0  0  0  0  0  0  0  0  0  0  0  0
   36.7480   24.0860   40.8120 H   0  0  0  0  0  0  0  0  0  0  0  0
   36.6930   25.7540   40.0550 H   0  0  0  0  0  0  0  0  0  0  0  0
   38.2280   25.1030   40.6780 H   0  0  0  0  0  0  0  0  0  0  0  0
   36.2440   28.3470   41.9750 O   0  0  0  0  0  0  0  0  0  0  0  0
   34.5100   28.9570   40.1000 O   0  0  0  0  0  0  0  0  0  0  0  0
   35.8350   29.4000   40.7200 P   0  0  1  0  0  0  0  0  0  0  0  0
   35.6380   30.9480   41.3730 O   0  0  0  0  0  0  0  0  0  0  0  0
   36.1350   31.6470   40.9020 H   0  0  0  0  0  0  0  0  0  0  0  0
   37.0260   29.4720   39.5160 O   0  0  0  0  0  0  0  0  0  0  0  0
   36.4430   29.1680   38.2950 C   0  0  1  0  0  3  0  0  0  0  0  0
   36.7460   30.1320   37.2020 C   0  0  0  0  0  3  0  0  0  0  0  0
   37.6430   30.7410   37.4420 H   0  0  0  0  0  0  0  0  0  0  0  0
   37.0090   29.2500   36.0190 C   0  0  0  0  0  3  0  0  0  0  0  0
   36.2140   29.2430   35.2690 H   0  0  0  0  0  0  0  0  0  0  0  0
   37.2690   27.9730   36.4540 O   0  0  0  0  0  0  0  0  0  0  0  0
   36.8820   27.8360   37.7580 C   0  0  0  0  0  3  0  0  0  0  0  0
   36.0330   27.0930   37.7830 H   0  0  0  0  0  0  0  0  0  0  0  0
  1  6  1  0  0  0  0
  2  1  2  0  0  0  0
  2  3  1  0  0  0  0
  3  4  2  0  0  0  0
  4  5  1  0  0  0  0
  5  8  1  0  0  0  0
  6  5  2  0  0  0  0
  7  3  1  0  0  0  0
  9  1  1  0  0  0  0
  9 10  1  0  0  0  0
 11  9  1  0  0  0  0
 12  9  1  0  0  0  0
 13 12  1  0  0  0  0
 14 12  1  0  0  0  0
 15 12  1  0  0  0  0
 16  2  1  0  0  0  0
 18 17  2  6  0  0  0
 18 19  1  0  0  0  0
 18 16  1  0  0  0  0
 20 19  1  0  0  0  0
 21 18  1  0  0  0  0
 22 21  1  1  0  0  0
 23 24  1  0  0  0  0
 23 22  1  0  0  0  0
 25 27  1  0  0  0  0
 25 23  1  0  0  0  0
 26 25  1  0  0  0  0
 27 28  1  0  0  0  0
 28 29  1  0  0  0  0
 28 22  1  0  0  0  0
M  END
>  <minimizedAffinity>
-4.4231534

$$$$

 OpenBabel03252500553D

 29 30  0  0  1  0  0  0  0  0999 V2000
   38.1890   27.1020   41.0910 C   0  0  0  0  0  0  0  0  0  0  0  0
   37.7350   28.3730   41.4220 C   0  0  0  0  0  0  0  0  0  0  0  0
   37.8550   28.7850   42.7580 C   0  0  0  0  0  0  0  0  0  0  0  0
   38.4070   27.9130   43.6360 N   0  0  0  0  0  0  0  0  0  0  0  0
   38.8380   26.6820   43.2760 C   0  0  0  0  0  0  0  0  0  0  0  0
   38.7190   26.3070   42.0130 N   0  0  0  0  0  0  0  0  0  0  0  0
   37.5020   29.7610   42.9910 H   0  0  0  0  0  0  0  0  0  0  0  0
   39.2660   26.0630   44.0690 H   0  0  0  0  0  0  0  0  0  0  0  0
   38.0900   26.6190   39.7130 C   0  0  0  0  0  0  0  0  0  0  0  0
   37.6240   27.3630   39.0150 H   0  0  0  0  0  0  0  0  0  0  0  0
   39.1070   26.4260   39.3020 H   0  0  0  0  0  0  0  0  0  0  0  0
   37.3440   25.3070   39.7010 C   0  0  0  0  0  0  0  0  0  0  0  0
   36.8510   25.2200   38.7170 H   0  0  0  0  0  0  0  0  0  0  0  0
   37.9930   24.4590   39.9320 H   0  0  0  0  0  0  0  0  0  0  0  0
   36.5550   25.3470   40.4890 H   0  0  0  0  0  0  0  0  0  0  0  0
   37.1940   29.1420   40.3970 O   0  0  0  0  0  0  0  0  0  0  0  0
   36.6130   31.2960   39.0130 O   0  0  0  0  0  0  0  0  0  0  0  0
   36.9190   30.8070   40.4280 P   0  0  1  0  0  0  0  0  0  0  0  0
   35.5710   31.1010   41.4070 O   0  0  0  0  0  0  0  0  0  0  0  0
   35.7140   31.7870   42.0920 H   0  0  0  0  0  0  0  0  0  0  0  0
   38.2350   31.6730   41.0540 O   0  0  0  0  0  0  0  0  0  0  0  0
   38.8540   32.3520   40.0140 C   0  0  1  0  0  3  0  0  0  0  0  0
   38.9360   33.8270   40.1960 C   0  0  0  0  0  3  0  0  0  0  0  0
   38.7990   34.1090   41.2610 H   0  0  0  0  0  0  0  0  0  0  0  0
   40.3250   34.1610   39.7390 C   0  0  0  0  0  3  0  0  0  0  0  0
   40.3780   34.6650   38.7710 H   0  0  0  0  0  0  0  0  0  0  0  0
   41.0850   33.0170   39.7260 O   0  0  0  0  0  0  0  0  0  0  0  0
   40.2750   31.9170   39.8010 C   0  0  0  0  0  3  0  0  0  0  0  0
   40.3820   31.3530   38.8290 H   0  0  0  0  0  0  0  0  0  0  0  0
  1  2  2  0  0  0  0
  1  6  1  0  0  0  0
  2  3  1  0  0  0  0
  3  7  1  0  0  0  0
  3  4  2  0  0  0  0
  5  4  1  0  0  0  0
  5  8  1  0  0  0  0
  6  5  2  0  0  0  0
  9  1  1  0  0  0  0
 10  9  1  0  0  0  0
 11  9  1  0  0  0  0
 12  9  1  0  0  0  0
 12 14  1  0  0  0  0
 12 15  1  0  0  0  0
 13 12  1  0  0  0  0
 16 18  1  0  0  0  0
 16  2  1  0  0  0  0
 18 17  2  6  0  0  0
 18 21  1  0  0  0  0
 18 19  1  0  0  0  0
 19 20  1  0  0  0  0
 22 23  1  0  0  0  0
 22 21  1  1  0  0  0
 23 24  1  0  0  0  0
 25 23  1  0  0  0  0
 26 25  1  0  0  0  0
 27 25  1  0  0  0  0
 27 28  1  0  0  0  0
 28 22  1  0  0  0  0
 29 28  1  0  0  0  0
M  END
>  <minimizedAffinity>
-4.33749866

$$$$
