
 OpenBabel03252503363D

 41 44  0  0  1  0  0  0  0  0999 V2000
   47.1300   30.7040   41.5490 C   0  0  0  0  0  0  0  0  0  0  0  0
   47.6160   31.4890   40.5870 C   0  0  0  0  0  0  0  0  0  0  0  0
   46.8250   31.8200   39.4590 N   0  0  0  0  0  0  0  0  0  0  0  0
   46.4260   32.7530   38.4750 C   0  0  0  0  0  0  0  0  0  0  0  0
   46.7900   33.9200   38.1270 O   0  0  0  0  0  0  0  0  0  0  0  0
   45.3750   31.9220   37.9140 C   0  0  1  0  0  0  0  0  0  0  0  0
   45.8950   30.8790   38.8720 C   0  0  2  0  0  0  0  0  0  0  0  0
   44.7700   30.3460   40.1620 S   0  0  0  0  0  0  0  0  0  0  0  0
   45.7790   30.0780   41.6210 C   0  0  0  0  0  0  0  0  0  0  0  0
   45.5170   31.5150   36.8880 H   0  0  0  0  0  0  0  0  0  0  0  0
   46.3990   30.0010   38.3920 H   0  0  0  0  0  0  0  0  0  0  0  0
   45.9380   28.9850   41.7230 H   0  0  0  0  0  0  0  0  0  0  0  0
   45.2720   30.4330   42.5400 H   0  0  0  0  0  0  0  0  0  0  0  0
   44.0330   32.4490   38.1770 C   0  0  0  0  0  0  0  0  0  0  0  0
   42.8990   32.0200   37.8900 O   0  0  0  0  0  0  0  0  0  0  0  0
   44.0380   33.6960   38.9050 N   0  0  0  0  0  0  0  0  0  0  0  0
   44.8000   34.2730   39.3230 H   0  0  0  0  0  0  0  0  0  0  0  0
   41.0340   35.8700   38.6430 C   0  0  0  0  0  0  0  0  0  0  0  0
   42.2300   35.2370   38.2760 C   0  0  0  0  0  0  0  0  0  0  0  0
   42.8320   34.3810   39.1810 C   0  0  0  0  0  0  0  0  0  0  0  0
   42.2510   34.1840   40.3830 N   0  0  0  0  0  0  0  0  0  0  0  0
   41.0850   34.8070   40.7280 C   0  0  0  0  0  0  0  0  0  0  0  0
   40.5000   35.6440   39.8370 N   0  0  0  0  0  0  0  0  0  0  0  0
   40.5310   36.5420   37.9770 H   0  0  0  0  0  0  0  0  0  0  0  0
   42.6790   35.4040   37.3220 H   0  0  0  0  0  0  0  0  0  0  0  0
   40.7230   34.5670   41.7160 H   0  0  0  0  0  0  0  0  0  0  0  0
   48.0630   30.4350   42.6710 C   0  0  0  0  0  0  0  0  0  0  0  0
   47.8140   29.4710   43.1670 H   0  0  0  0  0  0  0  0  0  0  0  0
   47.9540   31.2240   43.4440 H   0  0  0  0  0  0  0  0  0  0  0  0
   49.1180   30.3350   42.3240 H   0  0  0  0  0  0  0  0  0  0  0  0
   48.9630   32.0300   40.6560 C   0  0  0  0  0  0  0  0  0  0  0  0
   49.9620   31.4470   40.1550 O   0  0  0  0  0  0  0  0  0  0  0  0
   49.4890   33.1900   41.2180 O   0  0  0  0  0  0  0  0  0  0  0  0
   48.8310   33.9500   42.1780 C   0  0  1  0  0  0  0  0  0  0  0  0
   49.7700   35.0940   42.5510 C   0  0  0  0  0  0  0  0  0  0  0  0
   50.8320   34.7580   42.4070 H   0  0  0  0  0  0  0  0  0  0  0  0
   49.3700   36.1590   41.5820 C   0  0  0  0  0  0  0  0  0  0  0  0
   48.7370   36.9480   42.0460 H   0  0  0  0  0  0  0  0  0  0  0  0
   48.5600   35.5410   40.6150 O   0  0  0  0  0  0  0  0  0  0  0  0
   47.7490   34.7400   41.4290 C   0  0  0  0  0  0  0  0  0  0  0  0
   47.1360   34.0560   40.7810 H   0  0  0  0  0  0  0  0  0  0  0  0
  1  9  1  0  0  0  0
  1 27  1  0  0  0  0
  2 31  1  0  0  0  0
  2  1  2  0  0  0  0
  3  2  1  0  0  0  0
  4  3  1  0  0  0  0
  5  4  2  0  0  0  0
  6 10  1  6  0  0  0
  6 14  1  0  0  0  0
  6  4  1  0  0  0  0
  6  7  1  0  0  0  0
  7 11  1  6  0  0  0
  7  3  1  0  0  0  0
  7  8  1  0  0  0  0
  8  9  1  0  0  0  0
  9 12  1  0  0  0  0
  9 13  1  0  0  0  0
 14 16  1  0  0  0  0
 15 14  2  0  0  0  0
 16 20  1  0  0  0  0
 16 17  1  0  0  0  0
 18 23  1  0  0  0  0
 19 18  2  0  0  0  0
 19 20  1  0  0  0  0
 20 21  2  0  0  0  0
 21 22  1  0  0  0  0
 22 26  1  0  0  0  0
 23 22  2  0  0  0  0
 24 18  1  0  0  0  0
 25 19  1  0  0  0  0
 27 28  1  0  0  0  0
 27 29  1  0  0  0  0
 30 27  1  0  0  0  0
 31 33  1  0  0  0  0
 32 31  2  0  0  0  0
 34 33  1  6  0  0  0
 34 35  1  0  0  0  0
 36 35  1  0  0  0  0
 37 38  1  0  0  0  0
 37 35  1  0  0  0  0
 39 40  1  0  0  0  0
 39 37  1  0  0  0  0
 40 34  1  0  0  0  0
 41 40  1  0  0  0  0
M  END
>  <minimizedAffinity>
-4.62812614

>  <minimizedRMSD>
4.80013657

$$$$
