
 OpenBabel03252508503D

 27 29  0  0  1  0  0  0  0  0999 V2000
   45.9600   34.1790   41.0480 C   0  0  0  0  0  0  0  0  0  0  0  0
   46.5390   34.8080   42.1440 C   0  0  0  0  0  0  0  0  0  0  0  0
   47.8790   35.1820   42.0100 C   0  0  0  0  0  0  0  0  0  0  0  0
   48.5320   34.9200   40.8470 N   0  0  0  0  0  0  0  0  0  0  0  0
   47.9260   34.3080   39.8110 C   0  0  0  0  0  0  0  0  0  0  0  0
   46.6340   33.9360   39.9140 N   0  0  0  0  0  0  0  0  0  0  0  0
   48.3270   35.6710   42.8650 H   0  0  0  0  0  0  0  0  0  0  0  0
   48.5130   34.1360   38.9200 H   0  0  0  0  0  0  0  0  0  0  0  0
   45.7600   35.0450   43.3450 C   0  0  0  0  0  0  0  0  0  0  0  0
   45.0680   36.2340   43.5620 C   0  0  0  0  0  0  0  0  0  0  0  0
   44.4840   36.0220   44.8020 C   0  0  0  0  0  0  0  0  0  0  0  0
   44.8020   34.7940   45.2950 N   0  0  0  0  0  0  0  0  0  0  0  0
   45.5730   34.2360   44.3870 N   0  0  0  0  0  0  0  0  0  0  0  0
   44.9640   37.1310   42.9700 H   0  0  0  0  0  0  0  0  0  0  0  0
   43.8450   36.7640   45.3100 H   0  0  0  0  0  0  0  0  0  0  0  0
   44.4560   34.4490   46.2200 H   0  0  0  0  0  0  0  0  0  0  0  0
   44.6360   33.7940   41.1420 O   0  0  0  0  0  0  0  0  0  0  0  0
   43.5510   34.4380   40.6200 C   0  0  0  0  0  0  0  0  0  0  0  0
   43.3300   35.6930   40.5980 O   0  0  0  0  0  0  0  0  0  0  0  0
   42.2880   34.0000   39.9250 C   0  0  2  0  0  3  0  0  0  0  0  0
   41.7980   35.0210   38.9640 C   0  0  0  0  0  3  0  0  0  0  0  0
   42.0440   36.0590   39.1720 H   0  0  0  0  0  0  0  0  0  0  0  0
   40.2860   34.7650   39.0420 C   0  0  0  0  0  3  0  0  0  0  0  0
   39.7010   35.5910   38.6420 H   0  0  0  0  0  0  0  0  0  0  0  0
   40.1410   34.6850   40.4440 O   0  0  0  0  0  0  0  0  0  0  0  0
   41.1320   33.8290   40.8750 C   0  0  0  0  0  3  0  0  0  0  0  0
   41.4490   34.0480   41.9140 H   0  0  0  0  0  0  0  0  0  0  0  0
  1 17  1  0  0  0  0
  1  2  1  0  0  0  0
  2  9  1  0  0  0  0
  3  2  2  0  0  0  0
  3  7  1  0  0  0  0
  4  3  1  0  0  0  0
  5  6  1  0  0  0  0
  5  4  2  0  0  0  0
  6  1  2  0  0  0  0
  8  5  1  0  0  0  0
  9 10  1  0  0  0  0
  9 13  2  0  0  0  0
 10 11  2  0  0  0  0
 11 12  1  0  0  0  0
 11 15  1  0  0  0  0
 12 16  1  0  0  0  0
 13 12  1  0  0  0  0
 14 10  1  0  0  0  0
 18 17  1  0  0  0  0
 19 18  2  0  0  0  0
 20 18  1  1  0  0  0
 20 26  1  0  0  0  0
 21 23  1  0  0  0  0
 21 22  1  0  0  0  0
 21 20  1  0  0  0  0
 23 25  1  0  0  0  0
 24 23  1  0  0  0  0
 25 26  1  0  0  0  0
 26 27  1  0  0  0  0
M  END
>  <minimizedAffinity>
-5.2922349

>  <minimizedRMSD>
0.80852592

$$$$
