
 OpenBabel03242516163D

 42 46  0  0  1  0  0  0  0  0999 V2000
   48.0300   34.5510   41.5720 C   0  0  0  0  0  0  0  0  0  0  0  0
   48.9280   35.7680   41.3240 C   0  0  0  0  0  0  0  0  0  0  0  0
   49.4190   34.6040   42.0140 C   0  0  0  0  0  0  0  0  0  0  0  0
   48.6030   36.7090   41.8460 H   0  0  0  0  0  0  0  0  0  0  0  0
   49.2400   35.9970   40.2860 H   0  0  0  0  0  0  0  0  0  0  0  0
   50.1380   33.9440   41.4590 H   0  0  0  0  0  0  0  0  0  0  0  0
   49.7840   34.7790   43.0270 H   0  0  0  0  0  0  0  0  0  0  0  0
   47.6990   33.7910   40.3350 C   0  0  0  0  0  0  0  0  0  0  0  0
   48.2350   34.3990   39.0490 C   0  0  0  0  0  0  0  0  0  0  0  0
   47.8800   33.3720   37.9640 C   0  0  0  0  0  0  0  0  0  0  0  0
   46.5070   33.5290   37.7240 O   0  0  0  0  0  0  0  0  0  0  0  0
   45.9110   32.9310   38.8630 C   0  0  0  0  0  0  0  0  0  0  0  0
   46.1760   33.7700   40.0930 C   0  0  0  0  0  0  0  0  0  0  0  0
   48.0500   32.7440   40.3340 H   0  0  0  0  0  0  0  0  0  0  0  0
   49.3350   34.3870   39.1010 H   0  0  0  0  0  0  0  0  0  0  0  0
   47.7960   35.3730   38.8300 H   0  0  0  0  0  0  0  0  0  0  0  0
   48.0700   32.3680   38.3600 H   0  0  0  0  0  0  0  0  0  0  0  0
   48.3900   33.5840   37.0100 H   0  0  0  0  0  0  0  0  0  0  0  0
   44.8110   33.0060   38.6830 H   0  0  0  0  0  0  0  0  0  0  0  0
   46.2640   31.9030   39.0230 H   0  0  0  0  0  0  0  0  0  0  0  0
   45.7730   34.7810   39.9820 H   0  0  0  0  0  0  0  0  0  0  0  0
   45.7640   33.1900   40.9460 H   0  0  0  0  0  0  0  0  0  0  0  0
   46.2490   35.9520   42.6420 C   0  0  0  0  0  0  0  0  0  0  0  0
   46.9270   34.7490   42.5630 C   0  0  0  0  0  0  0  0  0  0  0  0
   46.5480   33.7460   43.4470 C   0  0  0  0  0  0  0  0  0  0  0  0
   45.5430   33.9610   44.3490 N   0  0  0  0  0  0  0  0  0  0  0  0
   44.9300   35.1500   44.3680 C   0  0  0  0  0  0  0  0  0  0  0  0
   45.2640   36.1250   43.5440 N   0  0  0  0  0  0  0  0  0  0  0  0
   43.8760   35.4460   45.2770 N   0  0  0  0  0  0  0  0  0  0  0  0
   46.5580   36.7170   41.9470 H   0  0  0  0  0  0  0  0  0  0  0  0
   42.9350   35.1130   45.0120 H   0  0  0  0  0  0  0  0  0  0  0  0
   44.3170   35.9700   46.0630 H   0  0  0  0  0  0  0  0  0  0  0  0
   47.2230   32.4690   43.5280 C   0  0  2  0  0  3  0  0  0  0  0  0
   48.2210   32.1220   44.2120 O   0  0  0  0  0  0  0  0  0  0  0  0
   47.4370   31.0550   43.1820 C   0  0  2  0  0  0  0  0  0  0  0  0
   46.6710   30.6380   41.9430 C   0  0  0  0  0  3  0  0  0  0  0  0
   47.1200   29.6410   41.6760 H   0  0  0  0  0  0  0  0  0  0  0  0
   45.3070   30.3660   42.4750 C   0  0  0  0  0  3  0  0  0  0  0  0
   44.9830   29.3070   42.2550 H   0  0  0  0  0  0  0  0  0  0  0  0
   45.3510   30.4400   43.8600 O   0  0  0  0  0  0  0  0  0  0  0  0
   46.6710   30.1520   44.1970 C   0  0  0  0  0  3  0  0  0  0  0  0
   46.9130   30.4520   45.2180 H   0  0  0  0  0  0  0  0  0  0  0  0
  1  3  1  0  0  0  0
  1 24  1  0  0  0  0
  2  1  1  0  0  0  0
  2  4  1  0  0  0  0
  2  3  1  0  0  0  0
  3  7  1  0  0  0  0
  5  2  1  0  0  0  0
  6  3  1  0  0  0  0
  8  1  1  0  0  0  0
  9 15  1  0  0  0  0
  9  8  1  0  0  0  0
 10 17  1  0  0  0  0
 10  9  1  0  0  0  0
 11 10  1  0  0  0  0
 11 12  1  0  0  0  0
 12 20  1  0  0  0  0
 12 13  1  0  0  0  0
 13  8  1  0  0  0  0
 13 22  1  0  0  0  0
 14  8  1  0  0  0  0
 16  9  1  0  0  0  0
 18 10  1  0  0  0  0
 19 12  1  0  0  0  0
 21 13  1  0  0  0  0
 23 28  1  0  0  0  0
 24 23  2  0  0  0  0
 24 25  1  0  0  0  0
 25 26  2  0  0  0  0
 26 27  1  0  0  0  0
 27 29  1  0  0  0  0
 28 27  2  0  0  0  0
 29 32  1  0  0  0  0
 30 23  1  0  0  0  0
 31 29  1  0  0  0  0
 33 25  1  6  0  0  0
 33 34  1  0  0  0  0
 35 36  1  6  0  0  0
 35 33  1  0  0  0  0
 35 41  1  0  0  0  0
 35 34  1  0  0  0  0
 36 38  1  0  0  0  0
 37 36  1  0  0  0  0
 38 40  1  0  0  0  0
 39 38  1  0  0  0  0
 40 41  1  0  0  0  0
 41 42  1  0  0  0  0
M  END
>  <minimizedAffinity>
-4.94395447

>  <minimizedRMSD>
1.82158315

$$$$
