
 OpenBabel03252501163D

 34 37  0  0  1  0  0  0  0  0999 V2000
   46.0110   30.8210   46.3330 C   0  0  1  0  0  0  0  0  0  0  0  0
   46.4620   31.8650   47.2750 C   0  0  0  0  0  0  0  0  0  0  0  0
   47.1460   31.6230   45.8780 C   0  0  2  0  0  0  0  0  0  0  0  0
   45.0230   30.9310   45.8120 H   0  0  0  0  0  0  0  0  0  0  0  0
   47.1220   31.6700   48.1160 H   0  0  0  0  0  0  0  0  0  0  0  0
   45.8650   32.7960   47.3680 H   0  0  0  0  0  0  0  0  0  0  0  0
   48.1580   31.2310   45.9320 H   0  0  0  0  0  0  0  0  0  0  0  0
   45.5160   27.4000   47.7920 C   0  0  0  0  0  0  0  0  0  0  0  0
   45.2080   28.6960   47.4080 C   0  0  0  0  0  0  0  0  0  0  0  0
   46.2190   29.4120   46.7850 C   0  0  0  0  0  0  0  0  0  0  0  0
   47.4300   28.8450   46.5800 N   0  0  0  0  0  0  0  0  0  0  0  0
   47.6840   27.5640   46.9770 C   0  0  0  0  0  0  0  0  0  0  0  0
   46.7120   26.8480   47.5870 N   0  0  0  0  0  0  0  0  0  0  0  0
   44.2430   29.1480   47.5710 H   0  0  0  0  0  0  0  0  0  0  0  0
   48.6660   27.1450   46.7960 H   0  0  0  0  0  0  0  0  0  0  0  0
   44.4380   26.5960   48.4560 C   0  0  0  0  0  0  0  0  0  0  0  0
   44.9150   25.3180   48.6240 F   0  0  0  0  0  0  0  0  0  0  0  0
   43.3690   26.5430   47.5850 F   0  0  0  0  0  0  0  0  0  0  0  0
   44.0960   27.1240   49.6720 F   0  0  0  0  0  0  0  0  0  0  0  0
   46.8260   32.7010   44.8900 C   0  0  0  0  0  0  0  0  0  0  0  0
   45.5860   33.2820   44.6410 C   0  0  0  0  0  0  0  0  0  0  0  0
   45.8880   34.1950   43.6510 C   0  0  0  0  0  0  0  0  0  0  0  0
   47.2350   34.1460   43.3420 C   0  0  0  0  0  0  0  0  0  0  0  0
   47.7350   33.2230   44.1290 O   0  0  0  0  0  0  0  0  0  0  0  0
   44.6570   33.0480   45.1230 H   0  0  0  0  0  0  0  0  0  0  0  0
   45.1710   34.8630   43.1760 H   0  0  0  0  0  0  0  0  0  0  0  0
   48.0290   34.9000   42.3800 C   0  0  1  0  0  3  0  0  0  0  0  0
   49.3880   34.1960   42.2690 C   0  0  0  0  0  3  0  0  0  0  0  0
   49.6970   33.9020   43.2750 H   0  0  0  0  0  0  0  0  0  0  0  0
   49.0140   33.0310   41.3700 C   0  0  0  0  0  3  0  0  0  0  0  0
   49.7590   32.8710   40.5720 H   0  0  0  0  0  0  0  0  0  0  0  0
   47.7740   33.2790   40.8410 O   0  0  0  0  0  0  0  0  0  0  0  0
   47.5000   34.6380   40.9840 C   0  0  0  0  0  3  0  0  0  0  0  0
   46.4290   34.8200   40.8700 H   0  0  0  0  0  0  0  0  0  0  0  0
  1  4  1  6  0  0  0
  1 10  1  0  0  0  0
  1  2  1  0  0  0  0
  2  6  1  0  0  0  0
  2  5  1  0  0  0  0
  3  7  1  6  0  0  0
  3  1  1  0  0  0  0
  3  2  1  0  0  0  0
  8 16  1  0  0  0  0
  9 14  1  0  0  0  0
  9  8  2  0  0  0  0
 10  9  1  0  0  0  0
 11 10  2  0  0  0  0
 11 12  1  0  0  0  0
 12 13  2  0  0  0  0
 13  8  1  0  0  0  0
 15 12  1  0  0  0  0
 16 17  1  0  0  0  0
 16 19  1  0  0  0  0
 18 16  1  0  0  0  0
 20  3  1  0  0  0  0
 21 20  2  0  0  0  0
 21 25  1  0  0  0  0
 22 21  1  0  0  0  0
 23 22  2  0  0  0  0
 23 24  1  0  0  0  0
 24 20  1  0  0  0  0
 26 22  1  0  0  0  0
 27 23  1  1  0  0  0
 28 27  1  0  0  0  0
 28 29  1  0  0  0  0
 30 28  1  0  0  0  0
 31 30  1  0  0  0  0
 32 33  1  0  0  0  0
 32 30  1  0  0  0  0
 33 27  1  0  0  0  0
 34 33  1  0  0  0  0
M  END
>  <minimizedAffinity>
-4.90875864

>  <minimizedRMSD>
3.57003999

$$$$
