
 OpenBabel03242511353D

 34 36  0  0  1  0  0  0  0  0999 V2000
   34.4680   29.1030   39.5490 C   0  0  0  0  0  3  0  0  0  0  0  0
   34.7190   29.0280   38.2470 C   0  0  0  0  0  3  0  0  0  0  0  0
   35.5980   29.3290   40.4490 C   0  0  0  0  0  0  0  0  0  0  0  0
   36.1790   30.6100   40.4360 C   0  0  0  0  0  0  0  0  0  0  0  0
   37.2600   30.9100   41.2640 C   0  0  0  0  0  0  0  0  0  0  0  0
   37.7070   29.9080   42.0630 N   0  0  0  0  0  0  0  0  0  0  0  0
   37.1360   28.6900   42.0580 C   0  0  0  0  0  0  0  0  0  0  0  0
   36.0950   28.3980   41.2630 N   0  0  0  0  0  0  0  0  0  0  0  0
   35.7990   31.3950   39.7840 H   0  0  0  0  0  0  0  0  0  0  0  0
   37.7310   31.8650   41.2880 H   0  0  0  0  0  0  0  0  0  0  0  0
   37.6710   27.6390   42.9540 C   0  0  2  0  0  3  0  0  0  0  0  0
   39.1250   27.8520   43.3250 C   0  0  0  0  0  3  0  0  0  0  0  0
   39.2620   28.5330   44.1880 H   0  0  0  0  0  0  0  0  0  0  0  0
   39.5060   26.4270   43.6770 C   0  0  0  0  0  3  0  0  0  0  0  0
   40.6000   26.2650   43.6160 H   0  0  0  0  0  0  0  0  0  0  0  0
   38.7550   25.5820   42.9060 O   0  0  0  0  0  0  0  0  0  0  0  0
   37.7680   26.2970   42.2540 C   0  0  0  0  0  3  0  0  0  0  0  0
   36.8020   25.7570   42.2060 H   0  0  0  0  0  0  0  0  0  0  0  0
   33.6620   28.8030   37.2510 C   0  0  0  0  0  0  0  0  0  0  0  0
   33.1520   29.7730   37.0410 H   0  0  0  0  0  0  0  0  0  0  0  0
   32.8960   28.1120   37.5960 H   0  0  0  0  0  0  0  0  0  0  0  0
   36.2350   28.3840   34.7550 C   0  0  1  0  0  0  0  0  0  0  0  0
   35.6310   27.8120   36.0470 C   0  0  0  0  0  0  0  0  0  0  0  0
   34.2180   28.2880   35.9250 C   0  0  2  0  0  0  0  0  0  0  0  0
   34.1400   29.2080   34.9200 O   0  0  0  0  0  0  0  0  0  0  0  0
   35.4080   29.6370   34.5800 C   0  0  0  0  0  0  0  0  0  0  0  0
   36.0310   27.7030   33.9090 H   0  0  0  0  0  0  0  0  0  0  0  0
   35.7150   26.6980   36.0010 H   0  0  0  0  0  0  0  0  0  0  0  0
   36.1230   28.1920   36.9430 H   0  0  0  0  0  0  0  0  0  0  0  0
   33.5870   27.3880   35.6910 H   0  0  0  0  0  0  0  0  0  0  0  0
   35.7690   30.4870   35.1880 H   0  0  0  0  0  0  0  0  0  0  0  0
   35.4020   29.9260   33.5060 H   0  0  0  0  0  0  0  0  0  0  0  0
   37.5840   28.6490   34.9250 O   0  0  0  0  0  0  0  0  0  0  0  0
   37.6690   29.3670   35.5970 H   0  0  0  0  0  0  0  0  0  0  0  0
  1  3  1  0  0  0  0
  2  1  2  0  0  0  0
  3  8  1  0  0  0  0
  4  3  2  0  0  0  0
  4  5  1  0  0  0  0
  5 10  1  0  0  0  0
  5  6  2  0  0  0  0
  7  6  1  0  0  0  0
  8  7  2  0  0  0  0
  9  4  1  0  0  0  0
 11  7  1  6  0  0  0
 11 12  1  0  0  0  0
 12 14  1  0  0  0  0
 12 13  1  0  0  0  0
 15 14  1  0  0  0  0
 16 14  1  0  0  0  0
 17 16  1  0  0  0  0
 17 11  1  0  0  0  0
 18 17  1  0  0  0  0
 19 21  1  0  0  0  0
 19  2  1  0  0  0  0
 20 19  1  0  0  0  0
 22 27  1  6  0  0  0
 22 33  1  0  0  0  0
 22 23  1  0  0  0  0
 23 29  1  0  0  0  0
 24 30  1  6  0  0  0
 24 23  1  0  0  0  0
 24 19  1  0  0  0  0
 25 24  1  0  0  0  0
 26 22  1  0  0  0  0
 26 25  1  0  0  0  0
 26 31  1  0  0  0  0
 28 23  1  0  0  0  0
 32 26  1  0  0  0  0
 33 34  1  0  0  0  0
M  END
>  <minimizedAffinity>
-5.24765396

$$$$

 OpenBabel03242511353D

 34 36  0  0  1  0  0  0  0  0999 V2000
   39.7860   29.6880   42.5250 C   0  0  0  0  0  3  0  0  0  0  0  0
   39.9100   30.3520   41.3820 C   0  0  0  0  0  3  0  0  0  0  0  0
   38.8090   28.6020   42.5800 C   0  0  0  0  0  0  0  0  0  0  0  0
   37.7630   28.7300   43.5110 C   0  0  0  0  0  0  0  0  0  0  0  0
   36.7880   27.7410   43.6280 C   0  0  0  0  0  0  0  0  0  0  0  0
   36.9130   26.6670   42.8060 N   0  0  0  0  0  0  0  0  0  0  0  0
   37.9230   26.5660   41.9230 C   0  0  0  0  0  0  0  0  0  0  0  0
   38.8620   27.5170   41.8070 N   0  0  0  0  0  0  0  0  0  0  0  0
   37.6870   29.6030   44.1580 H   0  0  0  0  0  0  0  0  0  0  0  0
   35.9780   27.7940   44.3180 H   0  0  0  0  0  0  0  0  0  0  0  0
   38.0030   25.3690   41.0530 C   0  0  2  0  0  3  0  0  0  0  0  0
   36.7200   25.0920   40.2960 C   0  0  0  0  0  3  0  0  0  0  0  0
   36.6370   25.6640   39.3510 H   0  0  0  0  0  0  0  0  0  0  0  0
   36.8980   23.6090   40.0340 C   0  0  0  0  0  3  0  0  0  0  0  0
   35.9320   23.1080   39.8290 H   0  0  0  0  0  0  0  0  0  0  0  0
   37.6150   23.0760   41.0700 O   0  0  0  0  0  0  0  0  0  0  0  0
   38.1160   24.0920   41.8630 C   0  0  0  0  0  3  0  0  0  0  0  0
   39.1440   23.8920   42.2250 H   0  0  0  0  0  0  0  0  0  0  0  0
   40.8590   31.4620   41.2130 C   0  0  0  0  0  0  0  0  0  0  0  0
   41.7190   31.1100   40.5960 H   0  0  0  0  0  0  0  0  0  0  0  0
   41.2710   31.8140   42.1560 H   0  0  0  0  0  0  0  0  0  0  0  0
   38.1010   33.3420   39.8420 C   0  0  1  0  0  0  0  0  0  0  0  0
   38.9420   33.0820   41.1000 C   0  0  0  0  0  0  0  0  0  0  0  0
   40.2340   32.6500   40.4830 C   0  0  2  0  0  0  0  0  0  0  0  0
   40.0390   32.4160   39.1520 O   0  0  0  0  0  0  0  0  0  0  0  0
   38.6870   32.3290   38.8870 C   0  0  0  0  0  0  0  0  0  0  0  0
   38.3060   34.3560   39.4540 H   0  0  0  0  0  0  0  0  0  0  0  0
   39.0340   34.0460   41.6580 H   0  0  0  0  0  0  0  0  0  0  0  0
   38.5090   32.3140   41.7420 H   0  0  0  0  0  0  0  0  0  0  0  0
   40.9680   33.4870   40.6370 H   0  0  0  0  0  0  0  0  0  0  0  0
   38.2720   31.3120   39.0190 H   0  0  0  0  0  0  0  0  0  0  0  0
   38.5150   32.6660   37.8420 H   0  0  0  0  0  0  0  0  0  0  0  0
   36.7570   33.1230   40.1020 O   0  0  0  0  0  0  0  0  0  0  0  0
   36.6410   32.1640   40.3030 H   0  0  0  0  0  0  0  0  0  0  0  0
  1  3  1  0  0  0  0
  2  1  2  0  0  0  0
  3  4  1  0  0  0  0
  4  5  2  0  0  0  0
  4  9  1  0  0  0  0
  5 10  1  0  0  0  0
  6  5  1  0  0  0  0
  7  6  2  0  0  0  0
  8  7  1  0  0  0  0
  8  3  2  0  0  0  0
 11 17  1  0  0  0  0
 11  7  1  1  0  0  0
 12 11  1  0  0  0  0
 13 12  1  0  0  0  0
 14 12  1  0  0  0  0
 14 16  1  0  0  0  0
 15 14  1  0  0  0  0
 16 17  1  0  0  0  0
 17 18  1  0  0  0  0
 19  2  1  0  0  0  0
 19 21  1  0  0  0  0
 20 19  1  0  0  0  0
 22 27  1  6  0  0  0
 22 33  1  0  0  0  0
 22 23  1  0  0  0  0
 23 28  1  0  0  0  0
 23 29  1  0  0  0  0
 24 30  1  1  0  0  0
 24 23  1  0  0  0  0
 24 19  1  0  0  0  0
 25 24  1  0  0  0  0
 26 31  1  0  0  0  0
 26 25  1  0  0  0  0
 26 22  1  0  0  0  0
 32 26  1  0  0  0  0
 33 34  1  0  0  0  0
M  END
>  <minimizedAffinity>
-5.13873434

$$$$

 OpenBabel03242511353D

 34 36  0  0  1  0  0  0  0  0999 V2000
   36.4970   29.5020   41.0130 C   0  0  0  0  0  3  0  0  0  0  0  0
   37.3070   30.4190   40.4960 C   0  0  0  0  0  3  0  0  0  0  0  0
   37.1060   28.3540   41.6820 C   0  0  0  0  0  0  0  0  0  0  0  0
   38.0110   28.6270   42.7230 C   0  0  0  0  0  0  0  0  0  0  0  0
   38.6360   27.5900   43.4140 C   0  0  0  0  0  0  0  0  0  0  0  0
   38.3250   26.3270   43.0230 N   0  0  0  0  0  0  0  0  0  0  0  0
   37.4570   26.0900   42.0230 C   0  0  0  0  0  0  0  0  0  0  0  0
   36.8530   27.0850   41.3570 N   0  0  0  0  0  0  0  0  0  0  0  0
   38.2420   29.6500   43.0160 H   0  0  0  0  0  0  0  0  0  0  0  0
   39.3280   27.7490   44.2090 H   0  0  0  0  0  0  0  0  0  0  0  0
   37.1590   24.6890   41.6440 C   0  0  2  0  0  3  0  0  0  0  0  0
   38.4020   23.8440   41.4510 C   0  0  0  0  0  3  0  0  0  0  0  0
   38.7900   23.4130   42.3950 H   0  0  0  0  0  0  0  0  0  0  0  0
   37.8380   22.7700   40.5420 C   0  0  0  0  0  3  0  0  0  0  0  0
   38.6330   22.2560   39.9670 H   0  0  0  0  0  0  0  0  0  0  0  0
   36.8500   23.3320   39.7810 O   0  0  0  0  0  0  0  0  0  0  0  0
   36.5560   24.5970   40.2560 C   0  0  0  0  0  3  0  0  0  0  0  0
   35.4730   24.8290   40.2320 H   0  0  0  0  0  0  0  0  0  0  0  0
   36.8050   31.6130   39.8010 C   0  0  0  0  0  0  0  0  0  0  0  0
   36.1680   32.1990   40.5060 H   0  0  0  0  0  0  0  0  0  0  0  0
   36.1850   31.3730   38.9410 H   0  0  0  0  0  0  0  0  0  0  0  0
   39.9190   33.3870   40.2250 C   0  0  1  0  0  0  0  0  0  0  0  0
   39.2780   32.0570   39.8030 C   0  0  0  0  0  0  0  0  0  0  0  0
   37.9360   32.5310   39.3420 C   0  0  2  0  0  0  0  0  0  0  0  0
   37.7620   33.8280   39.7310 O   0  0  0  0  0  0  0  0  0  0  0  0
   38.7050   34.1610   40.6830 C   0  0  0  0  0  0  0  0  0  0  0  0
   40.3510   33.8940   39.3440 H   0  0  0  0  0  0  0  0  0  0  0  0
   39.8900   31.6280   38.9720 H   0  0  0  0  0  0  0  0  0  0  0  0
   39.2080   31.3460   40.6270 H   0  0  0  0  0  0  0  0  0  0  0  0
   37.9240   32.4470   38.2220 H   0  0  0  0  0  0  0  0  0  0  0  0
   38.3980   33.9190   41.7180 H   0  0  0  0  0  0  0  0  0  0  0  0
   38.9120   35.2500   40.6030 H   0  0  0  0  0  0  0  0  0  0  0  0
   40.8410   33.1820   41.2390 O   0  0  0  0  0  0  0  0  0  0  0  0
   40.3510   32.8610   42.0330 H   0  0  0  0  0  0  0  0  0  0  0  0
  1  3  1  0  0  0  0
  2  1  2  0  0  0  0
  3  4  1  0  0  0  0
  4  9  1  0  0  0  0
  4  5  2  0  0  0  0
  5 10  1  0  0  0  0
  6  5  1  0  0  0  0
  7  6  2  0  0  0  0
  8  3  2  0  0  0  0
  8  7  1  0  0  0  0
 11  7  1  6  0  0  0
 12 11  1  0  0  0  0
 12 13  1  0  0  0  0
 14 12  1  0  0  0  0
 15 14  1  0  0  0  0
 16 17  1  0  0  0  0
 16 14  1  0  0  0  0
 17 11  1  0  0  0  0
 18 17  1  0  0  0  0
 19  2  1  0  0  0  0
 19 20  1  0  0  0  0
 21 19  1  0  0  0  0
 22 27  1  6  0  0  0
 22 26  1  0  0  0  0
 22 33  1  0  0  0  0
 23 22  1  0  0  0  0
 23 29  1  0  0  0  0
 24 30  1  6  0  0  0
 24 25  1  0  0  0  0
 24 19  1  0  0  0  0
 24 23  1  0  0  0  0
 25 26  1  0  0  0  0
 26 31  1  0  0  0  0
 28 23  1  0  0  0  0
 32 26  1  0  0  0  0
 33 34  1  0  0  0  0
M  END
>  <minimizedAffinity>
-5.06988049

$$$$

 OpenBabel03242511353D

 34 36  0  0  1  0  0  0  0  0999 V2000
   38.2940   27.7190   39.5580 C   0  0  0  0  0  3  0  0  0  0  0  0
   37.2570   27.0030   39.9780 C   0  0  0  0  0  3  0  0  0  0  0  0
   38.0200   28.9180   38.7690 C   0  0  0  0  0  0  0  0  0  0  0  0
   37.3380   28.7420   37.5520 C   0  0  0  0  0  0  0  0  0  0  0  0
   37.0360   29.8330   36.7390 C   0  0  0  0  0  0  0  0  0  0  0  0
   37.4360   31.0510   37.1870 N   0  0  0  0  0  0  0  0  0  0  0  0
   38.0890   31.1960   38.3550 C   0  0  0  0  0  0  0  0  0  0  0  0
   38.3800   30.1480   39.1390 N   0  0  0  0  0  0  0  0  0  0  0  0
   37.0280   27.7520   37.2180 H   0  0  0  0  0  0  0  0  0  0  0  0
   36.5210   29.7470   35.8100 H   0  0  0  0  0  0  0  0  0  0  0  0
   38.4990   32.5520   38.7870 C   0  0  2  0  0  3  0  0  0  0  0  0
   39.9350   32.6190   39.2670 C   0  0  0  0  0  3  0  0  0  0  0  0
   40.6660   32.7550   38.4460 H   0  0  0  0  0  0  0  0  0  0  0  0
   39.8500   33.8520   40.1460 C   0  0  0  0  0  3  0  0  0  0  0  0
   40.6660   33.8830   40.8930 H   0  0  0  0  0  0  0  0  0  0  0  0
   38.5870   33.9160   40.6680 O   0  0  0  0  0  0  0  0  0  0  0  0
   37.7760   32.9840   40.0480 C   0  0  0  0  0  3  0  0  0  0  0  0
   36.7510   33.3600   39.8580 H   0  0  0  0  0  0  0  0  0  0  0  0
   37.4140   25.7790   40.7770 C   0  0  0  0  0  0  0  0  0  0  0  0
   38.4110   25.3300   40.5550 H   0  0  0  0  0  0  0  0  0  0  0  0
   36.6680   25.0230   40.5440 H   0  0  0  0  0  0  0  0  0  0  0  0
   37.4330   27.9240   43.6790 C   0  0  1  0  0  0  0  0  0  0  0  0
   36.5510   27.2700   42.6060 C   0  0  0  0  0  0  0  0  0  0  0  0
   37.3680   26.0600   42.2770 C   0  0  2  0  0  0  0  0  0  0  0  0
   38.6070   26.1920   42.8350 O   0  0  0  0  0  0  0  0  0  0  0  0
   38.8090   27.5020   43.2190 C   0  0  0  0  0  0  0  0  0  0  0  0
   37.2330   27.4660   44.6640 H   0  0  0  0  0  0  0  0  0  0  0  0
   35.5710   27.0100   43.0780 H   0  0  0  0  0  0  0  0  0  0  0  0
   36.3950   27.9150   41.7410 H   0  0  0  0  0  0  0  0  0  0  0  0
   36.8300   25.1730   42.7090 H   0  0  0  0  0  0  0  0  0  0  0  0
   39.2170   28.1440   42.4160 H   0  0  0  0  0  0  0  0  0  0  0  0
   39.5050   27.5080   44.0860 H   0  0  0  0  0  0  0  0  0  0  0  0
   37.2620   29.2990   43.6760 O   0  0  0  0  0  0  0  0  0  0  0  0
   37.5960   29.6430   42.8140 H   0  0  0  0  0  0  0  0  0  0  0  0
  1  2  2  0  0  0  0
  2 19  1  0  0  0  0
  3  8  1  0  0  0  0
  3  1  1  0  0  0  0
  4  3  2  0  0  0  0
  5  6  2  0  0  0  0
  5  4  1  0  0  0  0
  6  7  1  0  0  0  0
  7  8  2  0  0  0  0
  9  4  1  0  0  0  0
 10  5  1  0  0  0  0
 11  7  1  1  0  0  0
 11 12  1  0  0  0  0
 11 17  1  0  0  0  0
 12 14  1  0  0  0  0
 13 12  1  0  0  0  0
 14 16  1  0  0  0  0
 14 15  1  0  0  0  0
 17 16  1  0  0  0  0
 18 17  1  0  0  0  0
 19 24  1  0  0  0  0
 20 19  1  0  0  0  0
 21 19  1  0  0  0  0
 22 27  1  1  0  0  0
 23 28  1  0  0  0  0
 23 22  1  0  0  0  0
 24 23  1  0  0  0  0
 24 30  1  1  0  0  0
 24 25  1  0  0  0  0
 25 26  1  0  0  0  0
 26 22  1  0  0  0  0
 26 32  1  0  0  0  0
 29 23  1  0  0  0  0
 31 26  1  0  0  0  0
 33 22  1  0  0  0  0
 34 33  1  0  0  0  0
M  END
>  <minimizedAffinity>
-4.94905519

$$$$

 OpenBabel03242511353D

 34 36  0  0  1  0  0  0  0  0999 V2000
   37.5520   29.1990   42.4810 C   0  0  0  0  0  3  0  0  0  0  0  0
   37.0790   29.4950   41.2760 C   0  0  0  0  0  3  0  0  0  0  0  0
   38.2500   27.9250   42.6460 C   0  0  0  0  0  0  0  0  0  0  0  0
   39.5240   27.9670   43.2390 C   0  0  0  0  0  0  0  0  0  0  0  0
   40.2590   26.7980   43.4340 C   0  0  0  0  0  0  0  0  0  0  0  0
   39.6780   25.6420   43.0200 N   0  0  0  0  0  0  0  0  0  0  0  0
   38.4580   25.6270   42.4540 C   0  0  0  0  0  0  0  0  0  0  0  0
   37.7480   26.7500   42.2660 N   0  0  0  0  0  0  0  0  0  0  0  0
   39.9660   28.9090   43.5620 H   0  0  0  0  0  0  0  0  0  0  0  0
   41.2270   26.7810   43.8790 H   0  0  0  0  0  0  0  0  0  0  0  0
   37.8790   24.3330   42.0230 C   0  0  2  0  0  3  0  0  0  0  0  0
   38.7520   23.5860   41.0340 C   0  0  0  0  0  3  0  0  0  0  0  0
   39.5370   22.9740   41.5170 H   0  0  0  0  0  0  0  0  0  0  0  0
   37.6980   22.7180   40.3740 C   0  0  0  0  0  3  0  0  0  0  0  0
   38.0200   22.3650   39.3750 H   0  0  0  0  0  0  0  0  0  0  0  0
   36.5130   23.4020   40.3880 O   0  0  0  0  0  0  0  0  0  0  0  0
   36.6300   24.5250   41.1850 C   0  0  0  0  0  3  0  0  0  0  0  0
   35.7230   24.7240   41.7900 H   0  0  0  0  0  0  0  0  0  0  0  0
   36.3610   30.7470   40.9960 C   0  0  0  0  0  0  0  0  0  0  0  0
   36.8720   31.5830   41.5290 H   0  0  0  0  0  0  0  0  0  0  0  0
   35.3320   30.7310   41.3460 H   0  0  0  0  0  0  0  0  0  0  0  0
   37.7650   30.7720   37.6710 C   0  0  1  0  0  0  0  0  0  0  0  0
   36.9030   29.9790   38.6660 C   0  0  0  0  0  0  0  0  0  0  0  0
   36.3610   31.0910   39.5080 C   0  0  2  0  0  0  0  0  0  0  0  0
   37.0430   32.2400   39.2250 O   0  0  0  0  0  0  0  0  0  0  0  0
   38.1960   31.9390   38.5280 C   0  0  0  0  0  0  0  0  0  0  0  0
   37.1360   31.1510   36.8450 H   0  0  0  0  0  0  0  0  0  0  0  0
   36.1060   29.4520   38.0860 H   0  0  0  0  0  0  0  0  0  0  0  0
   37.4860   29.2630   39.2460 H   0  0  0  0  0  0  0  0  0  0  0  0
   35.2730   31.2000   39.2480 H   0  0  0  0  0  0  0  0  0  0  0  0
   39.0620   31.7080   39.1770 H   0  0  0  0  0  0  0  0  0  0  0  0
   38.4430   32.8040   37.8740 H   0  0  0  0  0  0  0  0  0  0  0  0
   38.8310   30.0030   37.2320 O   0  0  0  0  0  0  0  0  0  0  0  0
   39.4160   29.8270   38.0070 H   0  0  0  0  0  0  0  0  0  0  0  0
  1  3  1  0  0  0  0
  2  1  2  0  0  0  0
  3  4  1  0  0  0  0
  4  5  2  0  0  0  0
  4  9  1  0  0  0  0
  5 10  1  0  0  0  0
  6  5  1  0  0  0  0
  7  6  2  0  0  0  0
  8  7  1  0  0  0  0
  8  3  2  0  0  0  0
 11  7  1  6  0  0  0
 12 13  1  0  0  0  0
 12 11  1  0  0  0  0
 14 16  1  0  0  0  0
 14 12  1  0  0  0  0
 15 14  1  0  0  0  0
 16 17  1  0  0  0  0
 17 18  1  0  0  0  0
 17 11  1  0  0  0  0
 19  2  1  0  0  0  0
 19 21  1  0  0  0  0
 19 20  1  0  0  0  0
 22 27  1  6  0  0  0
 22 26  1  0  0  0  0
 22 23  1  0  0  0  0
 23 29  1  0  0  0  0
 23 24  1  0  0  0  0
 24 30  1  6  0  0  0
 24 19  1  0  0  0  0
 25 24  1  0  0  0  0
 26 31  1  0  0  0  0
 26 25  1  0  0  0  0
 28 23  1  0  0  0  0
 32 26  1  0  0  0  0
 33 22  1  0  0  0  0
 33 34  1  0  0  0  0
M  END
>  <minimizedAffinity>
-4.93311262

$$$$

 OpenBabel03242511353D

 34 36  0  0  1  0  0  0  0  0999 V2000
   35.0650   28.4900   38.6200 C   0  0  0  0  0  3  0  0  0  0  0  0
   34.9920   29.2210   39.7270 C   0  0  0  0  0  3  0  0  0  0  0  0
   34.1610   28.8250   37.5210 C   0  0  0  0  0  0  0  0  0  0  0  0
   34.6560   28.6640   36.2150 C   0  0  0  0  0  0  0  0  0  0  0  0
   33.8610   28.9600   35.1090 C   0  0  0  0  0  0  0  0  0  0  0  0
   32.6050   29.4060   35.3690 N   0  0  0  0  0  0  0  0  0  0  0  0
   32.1530   29.5530   36.6280 C   0  0  0  0  0  0  0  0  0  0  0  0
   32.9160   29.2690   37.6940 N   0  0  0  0  0  0  0  0  0  0  0  0
   35.6680   28.3040   36.0360 H   0  0  0  0  0  0  0  0  0  0  0  0
   34.1930   28.8540   34.1020 H   0  0  0  0  0  0  0  0  0  0  0  0
   30.7720   30.0450   36.8450 C   0  0  2  0  0  3  0  0  0  0  0  0
   30.5800   31.4910   36.4330 C   0  0  0  0  0  3  0  0  0  0  0  0
   30.3590   31.6140   35.3550 H   0  0  0  0  0  0  0  0  0  0  0  0
   29.3760   31.8380   37.2880 C   0  0  0  0  0  3  0  0  0  0  0  0
   29.2830   32.9300   37.4450 H   0  0  0  0  0  0  0  0  0  0  0  0
   29.4410   31.0960   38.4360 O   0  0  0  0  0  0  0  0  0  0  0  0
   30.4330   30.1400   38.3200 C   0  0  0  0  0  3  0  0  0  0  0  0
   30.1520   29.1670   38.7690 H   0  0  0  0  0  0  0  0  0  0  0  0
   35.8510   28.9740   40.8940 C   0  0  0  0  0  0  0  0  0  0  0  0
   36.6760   28.2850   40.5940 H   0  0  0  0  0  0  0  0  0  0  0  0
   35.3220   28.4950   41.7140 H   0  0  0  0  0  0  0  0  0  0  0  0
   38.0050   31.8580   40.6380 C   0  0  1  0  0  0  0  0  0  0  0  0
   36.5950   31.3130   40.3620 C   0  0  0  0  0  0  0  0  0  0  0  0
   36.4980   30.2550   41.4150 C   0  0  2  0  0  0  0  0  0  0  0  0
   37.7330   30.0480   41.9570 O   0  0  0  0  0  0  0  0  0  0  0  0
   38.6990   30.6170   41.1520 C   0  0  0  0  0  0  0  0  0  0  0  0
   37.9680   32.6060   41.4500 H   0  0  0  0  0  0  0  0  0  0  0  0
   35.8680   32.1470   40.5230 H   0  0  0  0  0  0  0  0  0  0  0  0
   36.4920   30.9090   39.3550 H   0  0  0  0  0  0  0  0  0  0  0  0
   35.7800   30.6310   42.1940 H   0  0  0  0  0  0  0  0  0  0  0  0
   39.0560   29.9510   40.3440 H   0  0  0  0  0  0  0  0  0  0  0  0
   39.5560   30.9150   41.7930 H   0  0  0  0  0  0  0  0  0  0  0  0
   38.5720   32.3490   39.4730 O   0  0  0  0  0  0  0  0  0  0  0  0
   38.6980   31.5910   38.8550 H   0  0  0  0  0  0  0  0  0  0  0  0
  1  2  2  0  0  0  0
  2 19  1  0  0  0  0
  3  8  1  0  0  0  0
  3  1  1  0  0  0  0
  4  3  2  0  0  0  0
  5  6  2  0  0  0  0
  5  4  1  0  0  0  0
  6  7  1  0  0  0  0
  7  8  2  0  0  0  0
  9  4  1  0  0  0  0
 10  5  1  0  0  0  0
 11  7  1  1  0  0  0
 11 17  1  0  0  0  0
 12 11  1  0  0  0  0
 12 14  1  0  0  0  0
 13 12  1  0  0  0  0
 14 15  1  0  0  0  0
 14 16  1  0  0  0  0
 17 16  1  0  0  0  0
 17 18  1  0  0  0  0
 19 24  1  0  0  0  0
 19 21  1  0  0  0  0
 20 19  1  0  0  0  0
 22 26  1  0  0  0  0
 22 27  1  1  0  0  0
 23 28  1  0  0  0  0
 23 22  1  0  0  0  0
 23 24  1  0  0  0  0
 24 25  1  0  0  0  0
 24 30  1  1  0  0  0
 26 32  1  0  0  0  0
 26 25  1  0  0  0  0
 29 23  1  0  0  0  0
 31 26  1  0  0  0  0
 33 22  1  0  0  0  0
 34 33  1  0  0  0  0
M  END
>  <minimizedAffinity>
-4.88574696

$$$$

 OpenBabel03242511353D

 34 36  0  0  1  0  0  0  0  0999 V2000
   34.7270   29.0830   39.6860 C   0  0  0  0  0  3  0  0  0  0  0  0
   34.9000   29.1620   38.3710 C   0  0  0  0  0  3  0  0  0  0  0  0
   35.8820   29.3410   40.5430 C   0  0  0  0  0  0  0  0  0  0  0  0
   36.1330   28.4170   41.5720 C   0  0  0  0  0  0  0  0  0  0  0  0
   37.2150   28.5880   42.4350 C   0  0  0  0  0  0  0  0  0  0  0  0
   37.9920   29.6810   42.2230 N   0  0  0  0  0  0  0  0  0  0  0  0
   37.7310   30.5530   41.2320 C   0  0  0  0  0  0  0  0  0  0  0  0
   36.6920   30.3910   40.4000 N   0  0  0  0  0  0  0  0  0  0  0  0
   35.4930   27.5480   41.7190 H   0  0  0  0  0  0  0  0  0  0  0  0
   37.4440   27.9140   43.2280 H   0  0  0  0  0  0  0  0  0  0  0  0
   38.6170   31.7260   41.0530 C   0  0  2  0  0  3  0  0  0  0  0  0
   37.9550   32.8690   40.3100 C   0  0  0  0  0  3  0  0  0  0  0  0
   37.3580   33.5310   40.9670 H   0  0  0  0  0  0  0  0  0  0  0  0
   39.1890   33.5770   39.7840 C   0  0  0  0  0  3  0  0  0  0  0  0
   38.9570   34.2150   38.9100 H   0  0  0  0  0  0  0  0  0  0  0  0
   40.1600   32.6360   39.5690 O   0  0  0  0  0  0  0  0  0  0  0  0
   39.7670   31.4260   40.1110 C   0  0  0  0  0  3  0  0  0  0  0  0
   40.5990   30.8780   40.5950 H   0  0  0  0  0  0  0  0  0  0  0  0
   33.8100   28.9210   37.4150 C   0  0  0  0  0  0  0  0  0  0  0  0
   33.3320   29.8970   37.1610 H   0  0  0  0  0  0  0  0  0  0  0  0
   33.0280   28.2830   37.8180 H   0  0  0  0  0  0  0  0  0  0  0  0
   36.2560   28.3690   34.8200 C   0  0  1  0  0  0  0  0  0  0  0  0
   35.7480   27.8950   36.1900 C   0  0  0  0  0  0  0  0  0  0  0  0
   34.3120   28.3090   36.1090 C   0  0  2  0  0  0  0  0  0  0  0  0
   34.1440   29.1320   35.0330 O   0  0  0  0  0  0  0  0  0  0  0  0
   35.3730   29.5720   34.5840 C   0  0  0  0  0  0  0  0  0  0  0  0
   36.0330   27.6080   34.0500 H   0  0  0  0  0  0  0  0  0  0  0  0
   35.8720   26.7840   36.2370 H   0  0  0  0  0  0  0  0  0  0  0  0
   36.2730   28.3690   37.0190 H   0  0  0  0  0  0  0  0  0  0  0  0
   33.7050   27.3710   35.9910 H   0  0  0  0  0  0  0  0  0  0  0  0
   35.7330   30.4850   35.0940 H   0  0  0  0  0  0  0  0  0  0  0  0
   35.2970   29.7630   33.4920 H   0  0  0  0  0  0  0  0  0  0  0  0
   37.6020   28.6930   34.8880 O   0  0  0  0  0  0  0  0  0  0  0  0
   37.6960   29.4710   35.4880 H   0  0  0  0  0  0  0  0  0  0  0  0
  1  3  1  0  0  0  0
  2  1  2  0  0  0  0
  3  4  1  0  0  0  0
  4  9  1  0  0  0  0
  4  5  2  0  0  0  0
  5 10  1  0  0  0  0
  6  5  1  0  0  0  0
  7  6  2  0  0  0  0
  8  3  2  0  0  0  0
  8  7  1  0  0  0  0
 11  7  1  6  0  0  0
 12 13  1  0  0  0  0
 12 11  1  0  0  0  0
 14 12  1  0  0  0  0
 15 14  1  0  0  0  0
 16 14  1  0  0  0  0
 16 17  1  0  0  0  0
 17 18  1  0  0  0  0
 17 11  1  0  0  0  0
 19 21  1  0  0  0  0
 19  2  1  0  0  0  0
 20 19  1  0  0  0  0
 22 27  1  6  0  0  0
 22 33  1  0  0  0  0
 22 23  1  0  0  0  0
 23 28  1  0  0  0  0
 23 29  1  0  0  0  0
 24 30  1  6  0  0  0
 24 23  1  0  0  0  0
 24 19  1  0  0  0  0
 25 24  1  0  0  0  0
 26 22  1  0  0  0  0
 26 25  1  0  0  0  0
 26 31  1  0  0  0  0
 32 26  1  0  0  0  0
 33 34  1  0  0  0  0
M  END
>  <minimizedAffinity>
-4.85654259

$$$$

 OpenBabel03242511353D

 34 36  0  0  1  0  0  0  0  0999 V2000
   37.8020   28.7700   39.8300 C   0  0  0  0  0  3  0  0  0  0  0  0
   38.6800   29.7280   39.5550 C   0  0  0  0  0  3  0  0  0  0  0  0
   37.8210   28.1940   41.1730 C   0  0  0  0  0  0  0  0  0  0  0  0
   36.5930   28.1230   41.8550 C   0  0  0  0  0  0  0  0  0  0  0  0
   36.5220   27.5870   43.1400 C   0  0  0  0  0  0  0  0  0  0  0  0
   37.6880   27.1500   43.6800 N   0  0  0  0  0  0  0  0  0  0  0  0
   38.8520   27.2290   43.0080 C   0  0  0  0  0  0  0  0  0  0  0  0
   38.9240   27.7440   41.7720 N   0  0  0  0  0  0  0  0  0  0  0  0
   35.6720   28.4810   41.3970 H   0  0  0  0  0  0  0  0  0  0  0  0
   35.6150   27.5130   43.6940 H   0  0  0  0  0  0  0  0  0  0  0  0
   40.0900   26.7350   43.6530 C   0  0  2  0  0  3  0  0  0  0  0  0
   41.3250   27.5220   43.2610 C   0  0  0  0  0  3  0  0  0  0  0  0
   41.4760   28.4330   43.8720 H   0  0  0  0  0  0  0  0  0  0  0  0
   42.3890   26.4800   43.5460 C   0  0  0  0  0  3  0  0  0  0  0  0
   43.3250   26.6830   42.9900 H   0  0  0  0  0  0  0  0  0  0  0  0
   41.8450   25.2440   43.3250 O   0  0  0  0  0  0  0  0  0  0  0  0
   40.4790   25.3590   43.1460 C   0  0  0  0  0  3  0  0  0  0  0  0
   39.9080   24.5390   43.6240 H   0  0  0  0  0  0  0  0  0  0  0  0
   38.7520   30.3780   38.2380 C   0  0  0  0  0  0  0  0  0  0  0  0
   37.8440   30.1030   37.6500 H   0  0  0  0  0  0  0  0  0  0  0  0
   39.6130   30.0600   37.6560 H   0  0  0  0  0  0  0  0  0  0  0  0
   38.6120   33.5060   40.0340 C   0  0  1  0  0  0  0  0  0  0  0  0
   39.5310   32.3750   39.5490 C   0  0  0  0  0  0  0  0  0  0  0  0
   38.7760   31.9020   38.3470 C   0  0  2  0  0  0  0  0  0  0  0  0
   37.5290   32.4570   38.3550 O   0  0  0  0  0  0  0  0  0  0  0  0
   37.2610   32.9850   39.6020 C   0  0  0  0  0  0  0  0  0  0  0  0
   38.8300   34.4340   39.4760 H   0  0  0  0  0  0  0  0  0  0  0  0
   40.5200   32.8250   39.2850 H   0  0  0  0  0  0  0  0  0  0  0  0
   39.6600   31.5900   40.2960 H   0  0  0  0  0  0  0  0  0  0  0  0
   39.3550   32.2350   37.4430 H   0  0  0  0  0  0  0  0  0  0  0  0
   36.8270   32.2560   40.3110 H   0  0  0  0  0  0  0  0  0  0  0  0
   36.5620   33.8400   39.4750 H   0  0  0  0  0  0  0  0  0  0  0  0
   38.7160   33.6610   41.4070 O   0  0  0  0  0  0  0  0  0  0  0  0
   38.3700   32.8400   41.8310 H   0  0  0  0  0  0  0  0  0  0  0  0
  1  3  1  0  0  0  0
  2  1  2  0  0  0  0
  3  8  2  0  0  0  0
  3  4  1  0  0  0  0
  4  5  2  0  0  0  0
  5  6  1  0  0  0  0
  5 10  1  0  0  0  0
  7  6  2  0  0  0  0
  8  7  1  0  0  0  0
  9  4  1  0  0  0  0
 11  7  1  6  0  0  0
 12 14  1  0  0  0  0
 12 11  1  0  0  0  0
 12 13  1  0  0  0  0
 15 14  1  0  0  0  0
 16 14  1  0  0  0  0
 17 16  1  0  0  0  0
 17 18  1  0  0  0  0
 17 11  1  0  0  0  0
 19 24  1  0  0  0  0
 19  2  1  0  0  0  0
 20 19  1  0  0  0  0
 21 19  1  0  0  0  0
 22 27  1  6  0  0  0
 22 33  1  0  0  0  0
 23 22  1  0  0  0  0
 23 29  1  0  0  0  0
 24 30  1  6  0  0  0
 24 25  1  0  0  0  0
 24 23  1  0  0  0  0
 25 26  1  0  0  0  0
 26 22  1  0  0  0  0
 26 31  1  0  0  0  0
 28 23  1  0  0  0  0
 32 26  1  0  0  0  0
 33 34  1  0  0  0  0
M  END
>  <minimizedAffinity>
-4.84687853

$$$$

 OpenBabel03242511353D

 34 36  0  0  1  0  0  0  0  0999 V2000
   37.1200   31.5350   38.6290 C   0  0  0  0  0  3  0  0  0  0  0  0
   37.1290   32.2760   39.7320 C   0  0  0  0  0  3  0  0  0  0  0  0
   36.6430   30.1580   38.7370 C   0  0  0  0  0  0  0  0  0  0  0  0
   35.9480   29.6340   37.6320 C   0  0  0  0  0  0  0  0  0  0  0  0
   35.4590   28.3290   37.6510 C   0  0  0  0  0  0  0  0  0  0  0  0
   35.6890   27.6120   38.7810 N   0  0  0  0  0  0  0  0  0  0  0  0
   36.3560   28.1350   39.8270 C   0  0  0  0  0  0  0  0  0  0  0  0
   36.8290   29.3900   39.8110 N   0  0  0  0  0  0  0  0  0  0  0  0
   35.7770   30.2320   36.7380 H   0  0  0  0  0  0  0  0  0  0  0  0
   34.9270   27.8900   36.8390 H   0  0  0  0  0  0  0  0  0  0  0  0
   36.5750   27.3010   41.0310 C   0  0  2  0  0  3  0  0  0  0  0  0
   37.0190   28.0990   42.2400 C   0  0  0  0  0  3  0  0  0  0  0  0
   36.1770   28.5410   42.8080 H   0  0  0  0  0  0  0  0  0  0  0  0
   37.7050   27.0010   43.0300 C   0  0  0  0  0  3  0  0  0  0  0  0
   38.4280   27.4090   43.7630 H   0  0  0  0  0  0  0  0  0  0  0  0
   38.2300   26.1030   42.1410 O   0  0  0  0  0  0  0  0  0  0  0  0
   37.7680   26.3780   40.8680 C   0  0  0  0  0  3  0  0  0  0  0  0
   37.5390   25.4650   40.2830 H   0  0  0  0  0  0  0  0  0  0  0  0
   37.5890   33.6720   39.7410 C   0  0  0  0  0  0  0  0  0  0  0  0
   36.7920   34.3100   40.1930 H   0  0  0  0  0  0  0  0  0  0  0  0
   37.7780   34.0620   38.7440 H   0  0  0  0  0  0  0  0  0  0  0  0
   41.1060   33.2800   40.4490 C   0  0  1  0  0  0  0  0  0  0  0  0
   40.0550   34.1520   39.7460 C   0  0  0  0  0  0  0  0  0  0  0  0
   38.8490   33.8590   40.5830 C   0  0  2  0  0  0  0  0  0  0  0  0
   39.1150   32.7920   41.3920 O   0  0  0  0  0  0  0  0  0  0  0  0
   40.2480   32.1400   40.9490 C   0  0  0  0  0  0  0  0  0  0  0  0
   41.5230   33.8180   41.3190 H   0  0  0  0  0  0  0  0  0  0  0  0
   40.3840   35.2170   39.8260 H   0  0  0  0  0  0  0  0  0  0  0  0
   39.9130   33.8770   38.7010 H   0  0  0  0  0  0  0  0  0  0  0  0
   38.6410   34.7790   41.1940 H   0  0  0  0  0  0  0  0  0  0  0  0
   40.0490   31.3730   40.1780 H   0  0  0  0  0  0  0  0  0  0  0  0
   40.7420   31.6660   41.8250 H   0  0  0  0  0  0  0  0  0  0  0  0
   42.0760   32.8690   39.5490 O   0  0  0  0  0  0  0  0  0  0  0  0
   41.6440   32.2790   38.8870 H   0  0  0  0  0  0  0  0  0  0  0  0
  1  3  1  0  0  0  0
  1  2  2  0  0  0  0
  2 19  1  0  0  0  0
  3  8  1  0  0  0  0
  4  5  1  0  0  0  0
  4  3  2  0  0  0  0
  5  6  2  0  0  0  0
  6  7  1  0  0  0  0
  8  7  2  0  0  0  0
  9  4  1  0  0  0  0
 10  5  1  0  0  0  0
 11  7  1  6  0  0  0
 11 12  1  0  0  0  0
 12 13  1  0  0  0  0
 12 14  1  0  0  0  0
 14 15  1  0  0  0  0
 16 14  1  0  0  0  0
 17 11  1  0  0  0  0
 17 16  1  0  0  0  0
 18 17  1  0  0  0  0
 19 20  1  0  0  0  0
 19 24  1  0  0  0  0
 21 19  1  0  0  0  0
 22 26  1  0  0  0  0
 22 27  1  1  0  0  0
 23 28  1  0  0  0  0
 23 22  1  0  0  0  0
 23 24  1  0  0  0  0
 24 30  1  1  0  0  0
 24 25  1  0  0  0  0
 26 25  1  0  0  0  0
 26 32  1  0  0  0  0
 29 23  1  0  0  0  0
 31 26  1  0  0  0  0
 33 22  1  0  0  0  0
 34 33  1  0  0  0  0
M  END
>  <minimizedAffinity>
-4.80923128

$$$$
