
 OpenBabel03252509043D

 47 49  0  0  1  0  0  0  0  0999 V2000
   46.5520   34.6110   43.5530 N   0  0  0  0  0  0  0  0  0  0  0  0
   46.0360   35.5340   42.6180 C   0  0  0  0  0  0  0  0  0  0  0  0
   44.5220   35.6490   42.6050 C   0  0  0  0  0  0  0  0  0  0  0  0
   43.8710   35.4620   43.9520 C   0  0  0  0  0  0  0  0  0  0  0  0
   44.9050   35.2840   45.0490 C   0  0  0  0  0  0  0  0  0  0  0  0
   45.7650   34.0600   44.5420 C   0  0  2  0  0  0  0  0  0  0  0  0
   46.4090   36.5500   42.9070 H   0  0  0  0  0  0  0  0  0  0  0  0
   46.3420   35.4030   41.5720 H   0  0  0  0  0  0  0  0  0  0  0  0
   44.2740   36.6140   42.1400 H   0  0  0  0  0  0  0  0  0  0  0  0
   44.1450   34.8500   41.9260 H   0  0  0  0  0  0  0  0  0  0  0  0
   43.2050   36.3240   44.1540 H   0  0  0  0  0  0  0  0  0  0  0  0
   43.2160   34.5650   43.9900 H   0  0  0  0  0  0  0  0  0  0  0  0
   44.4020   34.9450   45.9610 H   0  0  0  0  0  0  0  0  0  0  0  0
   45.5630   36.1520   45.1510 H   0  0  0  0  0  0  0  0  0  0  0  0
   45.0160   33.2990   44.2440 H   0  0  0  0  0  0  0  0  0  0  0  0
   47.6680   33.8480   43.0630 C   0  0  0  0  0  0  0  0  0  0  0  0
   48.2220   33.4260   43.9380 H   0  0  0  0  0  0  0  0  0  0  0  0
   48.3490   34.5350   42.5080 H   0  0  0  0  0  0  0  0  0  0  0  0
   47.1630   32.7290   42.2090 C   0  0  0  0  0  0  0  0  0  0  0  0
   47.4100   31.7590   42.6340 H   0  0  0  0  0  0  0  0  0  0  0  0
   46.0610   32.7780   42.1070 H   0  0  0  0  0  0  0  0  0  0  0  0
   49.0820   31.9510   39.0650 C   0  0  0  0  0  0  0  0  0  0  0  0
   48.5230   31.8530   40.3600 C   0  0  0  0  0  0  0  0  0  0  0  0
   47.7380   32.8570   40.8430 C   0  0  0  0  0  0  0  0  0  0  0  0
   47.5290   33.9160   40.0480 N   0  0  0  0  0  0  0  0  0  0  0  0
   48.0490   34.0230   38.8250 C   0  0  0  0  0  0  0  0  0  0  0  0
   48.8260   33.0520   38.3200 N   0  0  0  0  0  0  0  0  0  0  0  0
   49.7030   31.1670   38.6710 H   0  0  0  0  0  0  0  0  0  0  0  0
   48.7190   30.9730   40.9750 H   0  0  0  0  0  0  0  0  0  0  0  0
   47.8180   34.9180   38.2650 H   0  0  0  0  0  0  0  0  0  0  0  0
   46.4760   33.7440   45.6780 O   0  0  0  0  0  0  0  0  0  0  0  0
   45.6620   31.2760   45.0850 O   0  0  0  0  0  0  0  0  0  0  0  0
   46.2230   32.1780   46.2050 P   0  0  2  0  0  0  0  0  0  0  0  0
   44.9390   32.2600   47.3430 O   0  0  0  0  0  0  0  0  0  0  0  0
   45.2840   32.6220   48.2020 H   0  0  0  0  0  0  0  0  0  0  0  0
   47.5160   31.4800   46.9650 O   0  0  0  0  0  0  0  0  0  0  0  0
   47.6600   30.1640   46.5730 C   0  0  0  0  0  0  0  0  0  0  0  0
   46.7920   29.7800   45.9870 H   0  0  0  0  0  0  0  0  0  0  0  0
   48.5510   30.0780   45.9210 H   0  0  0  0  0  0  0  0  0  0  0  0
   47.8250   29.2170   47.7350 C   0  0  1  0  0  3  0  0  0  0  0  0
   48.2760   27.8460   47.2780 C   0  0  0  0  0  3  0  0  0  0  0  0
   47.9770   27.0560   47.9930 H   0  0  0  0  0  0  0  0  0  0  0  0
   49.7960   27.9800   47.3270 C   0  0  0  0  0  3  0  0  0  0  0  0
   50.2610   27.6210   46.3740 H   0  0  0  0  0  0  0  0  0  0  0  0
   50.0530   29.3330   47.5410 O   0  0  0  0  0  0  0  0  0  0  0  0
   49.0840   29.6600   48.4910 C   0  0  0  0  0  3  0  0  0  0  0  0
   49.2720   28.9620   49.3540 H   0  0  0  0  0  0  0  0  0  0  0  0
  1  6  1  0  0  0  0
  2  7  1  0  0  0  0
  2  1  1  0  0  0  0
  3  2  1  0  0  0  0
  3  4  1  0  0  0  0
  4 12  1  0  0  0  0
  4 11  1  0  0  0  0
  4  5  1  0  0  0  0
  5 14  1  0  0  0  0
  5 13  1  0  0  0  0
  6 15  1  6  0  0  0
  6  5  1  0  0  0  0
  6 31  1  0  0  0  0
  8  2  1  0  0  0  0
  9  3  1  0  0  0  0
 10  3  1  0  0  0  0
 16  1  1  0  0  0  0
 16 17  1  0  0  0  0
 18 16  1  0  0  0  0
 19 20  1  0  0  0  0
 19 16  1  0  0  0  0
 21 19  1  0  0  0  0
 22 23  1  0  0  0  0
 23 24  2  0  0  0  0
 23 29  1  0  0  0  0
 24 19  1  0  0  0  0
 25 24  1  0  0  0  0
 26 25  2  0  0  0  0
 27 26  1  0  0  0  0
 27 22  2  0  0  0  0
 28 22  1  0  0  0  0
 30 26  1  0  0  0  0
 31 33  1  0  0  0  0
 33 32  2  6  0  0  0
 33 36  1  0  0  0  0
 33 34  1  0  0  0  0
 34 35  1  0  0  0  0
 37 36  1  0  0  0  0
 38 37  1  0  0  0  0
 39 37  1  0  0  0  0
 40 37  1  6  0  0  0
 40 46  1  0  0  0  0
 41 43  1  0  0  0  0
 41 40  1  0  0  0  0
 41 42  1  0  0  0  0
 43 45  1  0  0  0  0
 44 43  1  0  0  0  0
 45 46  1  0  0  0  0
 46 47  1  0  0  0  0
M  END
>  <minimizedAffinity>
-4.17002392

>  <minimizedRMSD>
1.42317319

$$$$
