
 OpenBabel03242516303D

 45 49  0  0  1  0  0  0  0  0999 V2000
   38.5790   26.3840   42.6590 C   0  0  0  0  0  0  0  0  0  0  0  0
   39.4750   25.6610   43.4060 N   0  0  0  0  0  0  0  0  0  0  0  0
   39.7880   24.4020   43.1540 C   0  0  0  0  0  0  0  0  0  0  0  0
   39.1930   23.8150   42.1090 N   0  0  0  0  0  0  0  0  0  0  0  0
   38.3080   24.4460   41.3290 C   0  0  0  0  0  0  0  0  0  0  0  0
   37.6870   23.8220   40.2500 C   0  0  0  0  0  0  0  0  0  0  0  0
   36.7700   24.4970   39.4780 C   0  0  0  0  0  0  0  0  0  0  0  0
   36.4620   25.8050   39.7770 C   0  0  0  0  0  0  0  0  0  0  0  0
   37.0610   26.4540   40.8360 C   0  0  0  0  0  0  0  0  0  0  0  0
   37.9760   25.7760   41.5990 C   0  0  0  0  0  0  0  0  0  0  0  0
   40.4990   23.8710   43.7690 H   0  0  0  0  0  0  0  0  0  0  0  0
   37.9990   22.8000   40.1040 H   0  0  0  0  0  0  0  0  0  0  0  0
   36.3630   23.9090   38.6790 H   0  0  0  0  0  0  0  0  0  0  0  0
   35.7230   26.1780   39.0850 H   0  0  0  0  0  0  0  0  0  0  0  0
   36.6460   27.8440   41.0430 C   0  0  0  0  0  0  0  0  0  0  0  0
   35.7040   27.9920   41.5610 H   0  0  0  0  0  0  0  0  0  0  0  0
   37.4890   28.5290   41.2740 H   0  0  0  0  0  0  0  0  0  0  0  0
   36.2450   28.5230   39.7110 C   0  0  1  0  0  3  0  0  0  0  0  0
   35.2590   29.6140   40.1740 C   0  0  0  0  0  3  0  0  0  0  0  0
   34.7110   29.2990   41.0850 H   0  0  0  0  0  0  0  0  0  0  0  0
   36.1530   30.7920   40.3620 C   0  0  0  0  0  3  0  0  0  0  0  0
   36.7270   30.7130   41.2940 H   0  0  0  0  0  0  0  0  0  0  0  0
   37.0140   30.7090   39.3060 O   0  0  0  0  0  0  0  0  0  0  0  0
   37.3280   29.3650   39.1360 C   0  0  0  0  0  3  0  0  0  0  0  0
   37.4860   29.2540   38.0360 H   0  0  0  0  0  0  0  0  0  0  0  0
   38.2470   28.0430   42.9980 S   0  0  0  0  0  0  0  0  0  0  0  0
   40.4250   31.1730   41.7760 C   0  0  0  0  0  0  0  0  0  0  0  0
   39.3730   30.3210   42.0770 C   0  0  0  0  0  0  0  0  0  0  0  0
   39.6120   29.0910   42.6620 C   0  0  0  0  0  0  0  0  0  0  0  0
   40.8950   28.6910   42.9580 C   0  0  0  0  0  0  0  0  0  0  0  0
   41.9520   29.4990   42.6770 C   0  0  0  0  0  0  0  0  0  0  0  0
   41.7010   30.7200   42.0960 C   0  0  0  0  0  0  0  0  0  0  0  0
   38.3850   30.6830   41.8260 H   0  0  0  0  0  0  0  0  0  0  0  0
   41.0290   27.7080   43.4220 H   0  0  0  0  0  0  0  0  0  0  0  0
   42.9580   29.1770   42.9130 H   0  0  0  0  0  0  0  0  0  0  0  0
   42.5440   31.3630   41.8720 H   0  0  0  0  0  0  0  0  0  0  0  0
   41.0850   34.3210   40.0680 C   0  0  0  0  0  0  0  0  0  0  0  0
   39.8150   34.9110   39.9630 C   0  0  0  0  0  0  0  0  0  0  0  0
   38.7110   34.2250   40.4840 C   0  0  0  0  0  0  0  0  0  0  0  0
   38.9050   32.9980   41.0810 N   0  0  0  0  0  0  0  0  0  0  0  0
   40.1640   32.4740   41.1540 C   0  0  0  0  0  0  0  0  0  0  0  0
   41.2510   33.1260   40.6530 N   0  0  0  0  0  0  0  0  0  0  0  0
   41.9880   34.8020   39.6830 H   0  0  0  0  0  0  0  0  0  0  0  0
   39.7500   35.8630   39.4860 H   0  0  0  0  0  0  0  0  0  0  0  0
   37.7420   34.6640   40.4090 H   0  0  0  0  0  0  0  0  0  0  0  0
  1 26  1  0  0  0  0
  1  2  1  0  0  0  0
  3  2  2  0  0  0  0
  3 11  1  0  0  0  0
  4  3  1  0  0  0  0
  5 10  1  0  0  0  0
  5  4  2  0  0  0  0
  6  5  1  0  0  0  0
  7  8  1  0  0  0  0
  7  6  2  0  0  0  0
  8  9  2  0  0  0  0
  9 15  1  0  0  0  0
  9 10  1  0  0  0  0
 10  1  2  0  0  0  0
 12  6  1  0  0  0  0
 13  7  1  0  0  0  0
 14  8  1  0  0  0  0
 15 17  1  0  0  0  0
 15 16  1  0  0  0  0
 18 19  1  0  0  0  0
 18 15  1  1  0  0  0
 19 21  1  0  0  0  0
 19 20  1  0  0  0  0
 21 22  1  0  0  0  0
 23 21  1  0  0  0  0
 24 23  1  0  0  0  0
 24 18  1  0  0  0  0
 25 24  1  0  0  0  0
 27 28  2  0  0  0  0
 27 32  1  0  0  0  0
 28 29  1  0  0  0  0
 29 30  2  0  0  0  0
 29 26  1  0  0  0  0
 30 34  1  0  0  0  0
 31 35  1  0  0  0  0
 31 30  1  0  0  0  0
 32 31  2  0  0  0  0
 33 28  1  0  0  0  0
 36 32  1  0  0  0  0
 37 42  1  0  0  0  0
 38 37  2  0  0  0  0
 38 39  1  0  0  0  0
 39 40  2  0  0  0  0
 40 41  1  0  0  0  0
 41 27  1  0  0  0  0
 42 41  2  0  0  0  0
 43 37  1  0  0  0  0
 44 38  1  0  0  0  0
 45 39  1  0  0  0  0
M  END
>  <minimizedAffinity>
-6.35750628

$$$$

 OpenBabel03242516303D

 45 49  0  0  1  0  0  0  0  0999 V2000
   36.8650   28.1920   41.5160 C   0  0  0  0  0  0  0  0  0  0  0  0
   37.1750   29.1000   42.4970 N   0  0  0  0  0  0  0  0  0  0  0  0
   37.9950   28.8390   43.5010 C   0  0  0  0  0  0  0  0  0  0  0  0
   38.5440   27.6200   43.5480 N   0  0  0  0  0  0  0  0  0  0  0  0
   38.2950   26.6760   42.6330 C   0  0  0  0  0  0  0  0  0  0  0  0
   38.8660   25.4070   42.6970 C   0  0  0  0  0  0  0  0  0  0  0  0
   38.5760   24.4540   41.7480 C   0  0  0  0  0  0  0  0  0  0  0  0
   37.7100   24.7600   40.7220 C   0  0  0  0  0  0  0  0  0  0  0  0
   37.1320   26.0080   40.6260 C   0  0  0  0  0  0  0  0  0  0  0  0
   37.4270   26.9530   41.5750 C   0  0  0  0  0  0  0  0  0  0  0  0
   38.2110   29.5840   44.2510 H   0  0  0  0  0  0  0  0  0  0  0  0
   39.5270   25.2720   43.5390 H   0  0  0  0  0  0  0  0  0  0  0  0
   39.0770   23.5200   41.9080 H   0  0  0  0  0  0  0  0  0  0  0  0
   37.5850   23.9050   40.0760 H   0  0  0  0  0  0  0  0  0  0  0  0
   36.2320   26.2030   39.4860 C   0  0  0  0  0  0  0  0  0  0  0  0
   35.2220   25.8200   39.5990 H   0  0  0  0  0  0  0  0  0  0  0  0
   36.3740   27.1760   38.9700 H   0  0  0  0  0  0  0  0  0  0  0  0
   36.6410   25.3200   38.2810 C   0  0  1  0  0  3  0  0  0  0  0  0
   35.2980   25.0980   37.5570 C   0  0  0  0  0  3  0  0  0  0  0  0
   34.4510   25.0980   38.2730 H   0  0  0  0  0  0  0  0  0  0  0  0
   35.2780   26.2160   36.5720 C   0  0  0  0  0  3  0  0  0  0  0  0
   35.0250   27.1700   37.0550 H   0  0  0  0  0  0  0  0  0  0  0  0
   36.5700   26.2750   36.1330 O   0  0  0  0  0  0  0  0  0  0  0  0
   37.3890   26.0680   37.2370 C   0  0  0  0  0  3  0  0  0  0  0  0
   38.2840   25.5440   36.8230 H   0  0  0  0  0  0  0  0  0  0  0  0
   35.8310   28.6030   40.1960 S   0  0  0  0  0  0  0  0  0  0  0  0
   37.8800   31.7180   38.7360 C   0  0  0  0  0  0  0  0  0  0  0  0
   37.2920   30.7930   39.5860 C   0  0  0  0  0  0  0  0  0  0  0  0
   36.5750   29.7270   39.0750 C   0  0  0  0  0  0  0  0  0  0  0  0
   36.4320   29.5630   37.7170 C   0  0  0  0  0  0  0  0  0  0  0  0
   36.9950   30.4490   36.8510 C   0  0  0  0  0  0  0  0  0  0  0  0
   37.7060   31.5050   37.3720 C   0  0  0  0  0  0  0  0  0  0  0  0
   37.4330   30.9670   40.6440 H   0  0  0  0  0  0  0  0  0  0  0  0
   35.8550   28.7010   37.3640 H   0  0  0  0  0  0  0  0  0  0  0  0
   36.8780   30.3120   35.7840 H   0  0  0  0  0  0  0  0  0  0  0  0
   38.1530   32.2100   36.6810 H   0  0  0  0  0  0  0  0  0  0  0  0
   40.7400   33.8120   39.5710 C   0  0  0  0  0  0  0  0  0  0  0  0
   40.1660   34.8930   40.2590 C   0  0  0  0  0  0  0  0  0  0  0  0
   38.7780   34.9110   40.4430 C   0  0  0  0  0  0  0  0  0  0  0  0
   38.0220   33.8710   39.9460 N   0  0  0  0  0  0  0  0  0  0  0  0
   38.6360   32.8460   39.2850 C   0  0  0  0  0  0  0  0  0  0  0  0
   39.9850   32.8110   39.0960 N   0  0  0  0  0  0  0  0  0  0  0  0
   41.8160   33.7350   39.3930 H   0  0  0  0  0  0  0  0  0  0  0  0
   40.8200   35.6580   40.6130 H   0  0  0  0  0  0  0  0  0  0  0  0
   38.3310   35.7280   40.9650 H   0  0  0  0  0  0  0  0  0  0  0  0
  1 10  2  0  0  0  0
  1  2  1  0  0  0  0
  2  3  2  0  0  0  0
  3  4  1  0  0  0  0
  3 11  1  0  0  0  0
  5  6  1  0  0  0  0
  5  4  2  0  0  0  0
  6 12  1  0  0  0  0
  7 13  1  0  0  0  0
  7  6  2  0  0  0  0
  8  7  1  0  0  0  0
  9  8  2  0  0  0  0
  9 10  1  0  0  0  0
 10  5  1  0  0  0  0
 14  8  1  0  0  0  0
 15 16  1  0  0  0  0
 15  9  1  0  0  0  0
 17 15  1  0  0  0  0
 18 15  1  1  0  0  0
 19 20  1  0  0  0  0
 19 18  1  0  0  0  0
 21 22  1  0  0  0  0
 21 19  1  0  0  0  0
 23 21  1  0  0  0  0
 23 24  1  0  0  0  0
 24 18  1  0  0  0  0
 25 24  1  0  0  0  0
 26  1  1  0  0  0  0
 27 41  1  0  0  0  0
 27 28  1  0  0  0  0
 28 33  1  0  0  0  0
 29 28  2  0  0  0  0
 29 26  1  0  0  0  0
 30 29  1  0  0  0  0
 31 32  1  0  0  0  0
 31 30  2  0  0  0  0
 32 27  2  0  0  0  0
 34 30  1  0  0  0  0
 35 31  1  0  0  0  0
 36 32  1  0  0  0  0
 37 38  1  0  0  0  0
 38 39  2  0  0  0  0
 38 44  1  0  0  0  0
 39 45  1  0  0  0  0
 40 39  1  0  0  0  0
 41 40  2  0  0  0  0
 42 41  1  0  0  0  0
 42 37  2  0  0  0  0
 43 37  1  0  0  0  0
M  END
>  <minimizedAffinity>
-6.32118797

$$$$

 OpenBabel03242516303D

 45 49  0  0  1  0  0  0  0  0999 V2000
   36.3740   28.8760   39.8100 C   0  0  0  0  0  0  0  0  0  0  0  0
   36.2530   30.2270   39.6050 N   0  0  0  0  0  0  0  0  0  0  0  0
   36.5830   31.1350   40.5070 C   0  0  0  0  0  0  0  0  0  0  0  0
   37.0600   30.6980   41.6770 N   0  0  0  0  0  0  0  0  0  0  0  0
   37.2090   29.3990   41.9600 C   0  0  0  0  0  0  0  0  0  0  0  0
   37.6990   28.9540   43.1860 C   0  0  0  0  0  0  0  0  0  0  0  0
   37.8250   27.6090   43.4490 C   0  0  0  0  0  0  0  0  0  0  0  0
   37.4630   26.6930   42.4890 C   0  0  0  0  0  0  0  0  0  0  0  0
   36.9790   27.0990   41.2630 C   0  0  0  0  0  0  0  0  0  0  0  0
   36.8580   28.4410   41.0070 C   0  0  0  0  0  0  0  0  0  0  0  0
   36.4710   32.1890   40.3020 H   0  0  0  0  0  0  0  0  0  0  0  0
   37.9520   29.7530   43.8660 H   0  0  0  0  0  0  0  0  0  0  0  0
   38.2120   27.3960   44.4260 H   0  0  0  0  0  0  0  0  0  0  0  0
   37.6140   25.6910   42.8580 H   0  0  0  0  0  0  0  0  0  0  0  0
   36.6320   26.0220   40.3300 C   0  0  0  0  0  0  0  0  0  0  0  0
   35.5900   25.7200   40.3110 H   0  0  0  0  0  0  0  0  0  0  0  0
   37.1860   26.0730   39.3690 H   0  0  0  0  0  0  0  0  0  0  0  0
   37.2200   24.6650   40.7850 C   0  0  1  0  0  3  0  0  0  0  0  0
   36.1850   23.6550   40.2510 C   0  0  0  0  0  3  0  0  0  0  0  0
   35.1680   24.0970   40.2270 H   0  0  0  0  0  0  0  0  0  0  0  0
   36.7420   23.3060   38.9130 C   0  0  0  0  0  3  0  0  0  0  0  0
   36.5550   24.1050   38.1820 H   0  0  0  0  0  0  0  0  0  0  0  0
   38.0860   23.2240   39.1400 O   0  0  0  0  0  0  0  0  0  0  0  0
   38.4200   24.2580   40.0070 C   0  0  0  0  0  3  0  0  0  0  0  0
   39.2660   23.8490   40.6120 H   0  0  0  0  0  0  0  0  0  0  0  0
   35.9800   27.7340   38.5770 S   0  0  0  0  0  0  0  0  0  0  0  0
   32.7330   29.1750   36.7310 C   0  0  0  0  0  0  0  0  0  0  0  0
   33.6090   28.6670   37.6790 C   0  0  0  0  0  0  0  0  0  0  0  0
   34.9230   28.3990   37.3470 C   0  0  0  0  0  0  0  0  0  0  0  0
   35.3880   28.6330   36.0730 C   0  0  0  0  0  0  0  0  0  0  0  0
   34.5590   29.1310   35.1170 C   0  0  0  0  0  0  0  0  0  0  0  0
   33.2530   29.3930   35.4600 C   0  0  0  0  0  0  0  0  0  0  0  0
   33.1940   28.5020   38.6650 H   0  0  0  0  0  0  0  0  0  0  0  0
   36.4380   28.4040   35.8620 H   0  0  0  0  0  0  0  0  0  0  0  0
   34.9330   29.3110   34.1170 H   0  0  0  0  0  0  0  0  0  0  0  0
   32.5940   29.7890   34.6970 H   0  0  0  0  0  0  0  0  0  0  0  0
   29.1070   29.3300   36.4280 C   0  0  0  0  0  0  0  0  0  0  0  0
   28.7000   29.9170   37.6370 C   0  0  0  0  0  0  0  0  0  0  0  0
   29.6780   30.2690   38.5740 C   0  0  0  0  0  0  0  0  0  0  0  0
   31.0040   30.0280   38.2830 N   0  0  0  0  0  0  0  0  0  0  0  0
   31.3400   29.4540   37.0910 C   0  0  0  0  0  0  0  0  0  0  0  0
   30.4030   29.1050   36.1650 N   0  0  0  0  0  0  0  0  0  0  0  0
   28.3960   29.0320   35.6520 H   0  0  0  0  0  0  0  0  0  0  0  0
   27.6550   30.0700   37.7850 H   0  0  0  0  0  0  0  0  0  0  0  0
   29.3810   30.7160   39.4970 H   0  0  0  0  0  0  0  0  0  0  0  0
  1 10  1  0  0  0  0
  2  1  2  0  0  0  0
  2  3  1  0  0  0  0
  3  4  2  0  0  0  0
  4  5  1  0  0  0  0
  5  6  1  0  0  0  0
  6  7  2  0  0  0  0
  6 12  1  0  0  0  0
  7 13  1  0  0  0  0
  8 14  1  0  0  0  0
  8  7  1  0  0  0  0
  9  8  2  0  0  0  0
 10  9  1  0  0  0  0
 10  5  2  0  0  0  0
 11  3  1  0  0  0  0
 15  9  1  0  0  0  0
 16 15  1  0  0  0  0
 17 15  1  0  0  0  0
 18 15  1  6  0  0  0
 19 18  1  0  0  0  0
 20 19  1  0  0  0  0
 21 23  1  0  0  0  0
 21 19  1  0  0  0  0
 22 21  1  0  0  0  0
 23 24  1  0  0  0  0
 24 25  1  0  0  0  0
 24 18  1  0  0  0  0
 26  1  1  0  0  0  0
 27 41  1  0  0  0  0
 27 28  1  0  0  0  0
 28 33  1  0  0  0  0
 29 28  2  0  0  0  0
 29 26  1  0  0  0  0
 30 29  1  0  0  0  0
 31 32  1  0  0  0  0
 31 30  2  0  0  0  0
 32 27  2  0  0  0  0
 34 30  1  0  0  0  0
 35 31  1  0  0  0  0
 36 32  1  0  0  0  0
 37 38  1  0  0  0  0
 38 44  1  0  0  0  0
 38 39  2  0  0  0  0
 39 45  1  0  0  0  0
 40 39  1  0  0  0  0
 41 40  2  0  0  0  0
 42 37  2  0  0  0  0
 42 41  1  0  0  0  0
 43 37  1  0  0  0  0
M  END
>  <minimizedAffinity>
-6.20033932

$$$$

 OpenBabel03242516303D

 45 49  0  0  1  0  0  0  0  0999 V2000
   38.2990   31.9110   40.6850 C   0  0  0  0  0  0  0  0  0  0  0  0
   38.3830   33.0370   39.9060 N   0  0  0  0  0  0  0  0  0  0  0  0
   39.4860   33.7540   39.7770 C   0  0  0  0  0  0  0  0  0  0  0  0
   40.5700   33.3460   40.4470 N   0  0  0  0  0  0  0  0  0  0  0  0
   40.5730   32.2600   41.2280 C   0  0  0  0  0  0  0  0  0  0  0  0
   41.7060   31.8500   41.9290 C   0  0  0  0  0  0  0  0  0  0  0  0
   41.6690   30.7360   42.7360 C   0  0  0  0  0  0  0  0  0  0  0  0
   40.5000   30.0200   42.8530 C   0  0  0  0  0  0  0  0  0  0  0  0
   39.3630   30.3960   42.1690 C   0  0  0  0  0  0  0  0  0  0  0  0
   39.4060   31.5050   41.3650 C   0  0  0  0  0  0  0  0  0  0  0  0
   39.5080   34.6350   39.1530 H   0  0  0  0  0  0  0  0  0  0  0  0
   42.5660   32.4800   41.7680 H   0  0  0  0  0  0  0  0  0  0  0  0
   42.6020   30.5250   43.2200 H   0  0  0  0  0  0  0  0  0  0  0  0
   40.6400   29.1890   43.5270 H   0  0  0  0  0  0  0  0  0  0  0  0
   38.1870   29.5460   42.3800 C   0  0  0  0  0  0  0  0  0  0  0  0
   37.4230   29.9380   43.0430 H   0  0  0  0  0  0  0  0  0  0  0  0
   37.8660   29.0000   41.4680 H   0  0  0  0  0  0  0  0  0  0  0  0
   38.5370   28.2860   43.2090 C   0  0  1  0  0  3  0  0  0  0  0  0
   37.3070   28.1360   44.1260 C   0  0  0  0  0  3  0  0  0  0  0  0
   36.8560   29.1220   44.3580 H   0  0  0  0  0  0  0  0  0  0  0  0
   36.4320   27.2220   43.3380 C   0  0  0  0  0  3  0  0  0  0  0  0
   35.9350   27.7550   42.5170 H   0  0  0  0  0  0  0  0  0  0  0  0
   37.3100   26.3200   42.8090 O   0  0  0  0  0  0  0  0  0  0  0  0
   38.4430   27.0270   42.4240 C   0  0  0  0  0  3  0  0  0  0  0  0
   39.2830   26.3060   42.5760 H   0  0  0  0  0  0  0  0  0  0  0  0
   36.8480   30.9790   40.7740 S   0  0  0  0  0  0  0  0  0  0  0  0
   36.1650   27.8210   38.4080 C   0  0  0  0  0  0  0  0  0  0  0  0
   36.3590   28.6400   39.5100 C   0  0  0  0  0  0  0  0  0  0  0  0
   36.5840   29.9950   39.3480 C   0  0  0  0  0  0  0  0  0  0  0  0
   36.6180   30.5550   38.0910 C   0  0  0  0  0  0  0  0  0  0  0  0
   36.4320   29.7840   36.9860 C   0  0  0  0  0  0  0  0  0  0  0  0
   36.2090   28.4380   37.1620 C   0  0  0  0  0  0  0  0  0  0  0  0
   36.3220   28.1510   40.4750 H   0  0  0  0  0  0  0  0  0  0  0  0
   36.7990   31.6330   38.0170 H   0  0  0  0  0  0  0  0  0  0  0  0
   36.4610   30.2320   36.0020 H   0  0  0  0  0  0  0  0  0  0  0  0
   36.0620   27.8250   36.2810 H   0  0  0  0  0  0  0  0  0  0  0  0
   34.8740   24.4770   37.7640 C   0  0  0  0  0  0  0  0  0  0  0  0
   35.4120   23.7100   38.8100 C   0  0  0  0  0  0  0  0  0  0  0  0
   36.2300   24.3420   39.7540 C   0  0  0  0  0  0  0  0  0  0  0  0
   36.4810   25.6920   39.6280 N   0  0  0  0  0  0  0  0  0  0  0  0
   35.9300   26.3860   38.5900 C   0  0  0  0  0  0  0  0  0  0  0  0
   35.1310   25.7890   37.6610 N   0  0  0  0  0  0  0  0  0  0  0  0
   34.2280   24.0470   36.9940 H   0  0  0  0  0  0  0  0  0  0  0  0
   35.1700   22.6720   38.8370 H   0  0  0  0  0  0  0  0  0  0  0  0
   36.6440   23.7690   40.5530 H   0  0  0  0  0  0  0  0  0  0  0  0
  1 26  1  0  0  0  0
  1 10  1  0  0  0  0
  2  1  2  0  0  0  0
  3  2  1  0  0  0  0
  3  4  2  0  0  0  0
  4  5  1  0  0  0  0
  5 10  2  0  0  0  0
  5  6  1  0  0  0  0
  6  7  2  0  0  0  0
  7  8  1  0  0  0  0
  7 13  1  0  0  0  0
  8 14  1  0  0  0  0
  9 15  1  0  0  0  0
  9  8  2  0  0  0  0
 10  9  1  0  0  0  0
 11  3  1  0  0  0  0
 12  6  1  0  0  0  0
 15 16  1  0  0  0  0
 17 15  1  0  0  0  0
 18 15  1  6  0  0  0
 18 19  1  0  0  0  0
 19 20  1  0  0  0  0
 21 19  1  0  0  0  0
 22 21  1  0  0  0  0
 23 21  1  0  0  0  0
 24 25  1  0  0  0  0
 24 23  1  0  0  0  0
 24 18  1  0  0  0  0
 27 41  1  0  0  0  0
 27 28  1  0  0  0  0
 28 33  1  0  0  0  0
 29 28  2  0  0  0  0
 29 26  1  0  0  0  0
 30 29  1  0  0  0  0
 31 32  1  0  0  0  0
 31 30  2  0  0  0  0
 32 27  2  0  0  0  0
 34 30  1  0  0  0  0
 35 31  1  0  0  0  0
 36 32  1  0  0  0  0
 37 38  1  0  0  0  0
 38 44  1  0  0  0  0
 38 39  2  0  0  0  0
 39 45  1  0  0  0  0
 40 39  1  0  0  0  0
 41 40  2  0  0  0  0
 42 37  2  0  0  0  0
 42 41  1  0  0  0  0
 43 37  1  0  0  0  0
M  END
>  <minimizedAffinity>
-6.19039583

$$$$

 OpenBabel03242516303D

 45 49  0  0  1  0  0  0  0  0999 V2000
   36.1830   26.3400   38.7710 C   0  0  0  0  0  0  0  0  0  0  0  0
   35.8610   25.9910   37.4840 N   0  0  0  0  0  0  0  0  0  0  0  0
   36.0550   24.7830   36.9840 C   0  0  0  0  0  0  0  0  0  0  0  0
   36.5940   23.8610   37.7900 N   0  0  0  0  0  0  0  0  0  0  0  0
   36.9380   24.1170   39.0570 C   0  0  0  0  0  0  0  0  0  0  0  0
   37.5070   23.1520   39.8850 C   0  0  0  0  0  0  0  0  0  0  0  0
   37.8640   23.4540   41.1790 C   0  0  0  0  0  0  0  0  0  0  0  0
   37.6540   24.7260   41.6610 C   0  0  0  0  0  0  0  0  0  0  0  0
   37.0890   25.7040   40.8700 C   0  0  0  0  0  0  0  0  0  0  0  0
   36.7340   25.3950   39.5820 C   0  0  0  0  0  0  0  0  0  0  0  0
   35.7860   24.5520   35.9640 H   0  0  0  0  0  0  0  0  0  0  0  0
   37.6280   22.1910   39.4090 H   0  0  0  0  0  0  0  0  0  0  0  0
   38.2910   22.6280   41.7120 H   0  0  0  0  0  0  0  0  0  0  0  0
   37.9970   24.7960   42.6820 H   0  0  0  0  0  0  0  0  0  0  0  0
   36.9190   27.0140   41.5070 C   0  0  0  0  0  0  0  0  0  0  0  0
   37.1820   27.8780   40.9050 H   0  0  0  0  0  0  0  0  0  0  0  0
   36.0230   27.0770   42.1590 H   0  0  0  0  0  0  0  0  0  0  0  0
   37.9570   27.2370   42.6340 C   0  0  1  0  0  3  0  0  0  0  0  0
   38.9280   28.2520   41.9990 C   0  0  0  0  0  3  0  0  0  0  0  0
   38.9860   28.1190   40.9000 H   0  0  0  0  0  0  0  0  0  0  0  0
   38.3560   29.5570   42.4370 C   0  0  0  0  0  3  0  0  0  0  0  0
   37.4670   29.8210   41.8480 H   0  0  0  0  0  0  0  0  0  0  0  0
   37.9740   29.3200   43.7270 O   0  0  0  0  0  0  0  0  0  0  0  0
   37.4250   28.0430   43.7640 C   0  0  0  0  0  3  0  0  0  0  0  0
   37.6800   27.6620   44.7830 H   0  0  0  0  0  0  0  0  0  0  0  0
   35.8570   27.9180   39.3900 S   0  0  0  0  0  0  0  0  0  0  0  0
   37.7730   31.2420   38.2450 C   0  0  0  0  0  0  0  0  0  0  0  0
   37.2440   30.2040   38.9970 C   0  0  0  0  0  0  0  0  0  0  0  0
   36.5250   29.1920   38.3880 C   0  0  0  0  0  0  0  0  0  0  0  0
   36.3220   29.1950   37.0270 C   0  0  0  0  0  0  0  0  0  0  0  0
   36.8250   30.1960   36.2570 C   0  0  0  0  0  0  0  0  0  0  0  0
   37.5390   31.1970   36.8740 C   0  0  0  0  0  0  0  0  0  0  0  0
   37.4320   30.2480   40.0620 H   0  0  0  0  0  0  0  0  0  0  0  0
   35.7460   28.3700   36.5950 H   0  0  0  0  0  0  0  0  0  0  0  0
   36.6610   30.1910   35.1870 H   0  0  0  0  0  0  0  0  0  0  0  0
   37.9390   31.9940   36.2590 H   0  0  0  0  0  0  0  0  0  0  0  0
   38.4600   34.1050   40.3880 C   0  0  0  0  0  0  0  0  0  0  0  0
   39.8290   34.3470   40.1860 C   0  0  0  0  0  0  0  0  0  0  0  0
   40.5330   33.5200   39.3020 C   0  0  0  0  0  0  0  0  0  0  0  0
   39.8640   32.4990   38.6610 N   0  0  0  0  0  0  0  0  0  0  0  0
   38.5320   32.3120   38.8980 C   0  0  0  0  0  0  0  0  0  0  0  0
   37.8290   33.1060   39.7540 N   0  0  0  0  0  0  0  0  0  0  0  0
   37.8520   34.7120   41.0640 H   0  0  0  0  0  0  0  0  0  0  0  0
   40.2720   35.1570   40.7200 H   0  0  0  0  0  0  0  0  0  0  0  0
   41.5730   33.6940   39.1400 H   0  0  0  0  0  0  0  0  0  0  0  0
  1 26  1  0  0  0  0
  1 10  1  0  0  0  0
  2  1  2  0  0  0  0
  3  2  1  0  0  0  0
  3  4  2  0  0  0  0
  4  5  1  0  0  0  0
  5 10  2  0  0  0  0
  5  6  1  0  0  0  0
  6  7  2  0  0  0  0
  7  8  1  0  0  0  0
  7 13  1  0  0  0  0
  8 14  1  0  0  0  0
  9 15  1  0  0  0  0
  9  8  2  0  0  0  0
 10  9  1  0  0  0  0
 11  3  1  0  0  0  0
 12  6  1  0  0  0  0
 15 17  1  0  0  0  0
 16 15  1  0  0  0  0
 18 15  1  6  0  0  0
 18 24  1  0  0  0  0
 19 21  1  0  0  0  0
 19 18  1  0  0  0  0
 20 19  1  0  0  0  0
 21 23  1  0  0  0  0
 22 21  1  0  0  0  0
 23 24  1  0  0  0  0
 24 25  1  0  0  0  0
 27 41  1  0  0  0  0
 27 28  1  0  0  0  0
 28 33  1  0  0  0  0
 29 28  2  0  0  0  0
 29 26  1  0  0  0  0
 30 29  1  0  0  0  0
 31 32  1  0  0  0  0
 31 30  2  0  0  0  0
 32 27  2  0  0  0  0
 34 30  1  0  0  0  0
 35 31  1  0  0  0  0
 36 32  1  0  0  0  0
 37 43  1  0  0  0  0
 38 37  1  0  0  0  0
 38 44  1  0  0  0  0
 39 38  2  0  0  0  0
 40 41  2  0  0  0  0
 40 39  1  0  0  0  0
 41 42  1  0  0  0  0
 42 37  2  0  0  0  0
 45 39  1  0  0  0  0
M  END
>  <minimizedAffinity>
-6.13916826

$$$$

 OpenBabel03242516303D

 45 49  0  0  1  0  0  0  0  0999 V2000
   37.2940   28.4550   41.0740 C   0  0  0  0  0  0  0  0  0  0  0  0
   37.4400   27.1950   41.5940 N   0  0  0  0  0  0  0  0  0  0  0  0
   37.0610   26.0960   40.9640 C   0  0  0  0  0  0  0  0  0  0  0  0
   36.5080   26.2380   39.7540 N   0  0  0  0  0  0  0  0  0  0  0  0
   36.3280   27.4300   39.1740 C   0  0  0  0  0  0  0  0  0  0  0  0
   35.7440   27.5660   37.9170 C   0  0  0  0  0  0  0  0  0  0  0  0
   35.5590   28.8100   37.3570 C   0  0  0  0  0  0  0  0  0  0  0  0
   35.9580   29.9310   38.0470 C   0  0  0  0  0  0  0  0  0  0  0  0
   36.5450   29.8310   39.2910 C   0  0  0  0  0  0  0  0  0  0  0  0
   36.7270   28.5890   39.8430 C   0  0  0  0  0  0  0  0  0  0  0  0
   37.1950   25.1230   41.4120 H   0  0  0  0  0  0  0  0  0  0  0  0
   35.4670   26.6270   37.4640 H   0  0  0  0  0  0  0  0  0  0  0  0
   35.0990   28.7810   36.3890 H   0  0  0  0  0  0  0  0  0  0  0  0
   35.7340   30.8180   37.4740 H   0  0  0  0  0  0  0  0  0  0  0  0
   36.9250   31.1020   39.9160 C   0  0  0  0  0  0  0  0  0  0  0  0
   36.1110   31.7190   40.2850 H   0  0  0  0  0  0  0  0  0  0  0  0
   37.8550   31.0390   40.5180 H   0  0  0  0  0  0  0  0  0  0  0  0
   37.4750   32.1060   38.8740 C   0  0  1  0  0  3  0  0  0  0  0  0
   37.2710   33.4630   39.5770 C   0  0  0  0  0  3  0  0  0  0  0  0
   36.3890   33.4400   40.2490 H   0  0  0  0  0  0  0  0  0  0  0  0
   38.5760   33.6610   40.2710 C   0  0  0  0  0  3  0  0  0  0  0  0
   38.6450   33.0400   41.1740 H   0  0  0  0  0  0  0  0  0  0  0  0
   39.4910   33.2160   39.3600 O   0  0  0  0  0  0  0  0  0  0  0  0
   38.9570   32.0800   38.7630 C   0  0  0  0  0  3  0  0  0  0  0  0
   39.3580   32.1000   37.7210 H   0  0  0  0  0  0  0  0  0  0  0  0
   37.8570   29.8530   41.9160 S   0  0  0  0  0  0  0  0  0  0  0  0
   41.6960   30.8780   42.4080 C   0  0  0  0  0  0  0  0  0  0  0  0
   40.3380   30.9050   42.1320 C   0  0  0  0  0  0  0  0  0  0  0  0
   39.5650   29.7710   42.3030 C   0  0  0  0  0  0  0  0  0  0  0  0
   40.1280   28.5980   42.7500 C   0  0  0  0  0  0  0  0  0  0  0  0
   41.4570   28.5330   43.0300 C   0  0  0  0  0  0  0  0  0  0  0  0
   42.2150   29.6680   42.8570 C   0  0  0  0  0  0  0  0  0  0  0  0
   39.9440   31.8500   41.7840 H   0  0  0  0  0  0  0  0  0  0  0  0
   39.4720   27.7290   42.8690 H   0  0  0  0  0  0  0  0  0  0  0  0
   41.8930   27.6060   43.3810 H   0  0  0  0  0  0  0  0  0  0  0  0
   43.2740   29.6150   43.0800 H   0  0  0  0  0  0  0  0  0  0  0  0
   42.8180   34.0400   40.9890 C   0  0  0  0  0  0  0  0  0  0  0  0
   43.9380   34.3710   41.7670 C   0  0  0  0  0  0  0  0  0  0  0  0
   44.3210   33.5020   42.7960 C   0  0  0  0  0  0  0  0  0  0  0  0
   43.5900   32.3530   43.0110 N   0  0  0  0  0  0  0  0  0  0  0  0
   42.5090   32.0840   42.2210 C   0  0  0  0  0  0  0  0  0  0  0  0
   42.1200   32.9170   41.2150 N   0  0  0  0  0  0  0  0  0  0  0  0
   42.4650   34.6730   40.1700 H   0  0  0  0  0  0  0  0  0  0  0  0
   44.4500   35.2780   41.5370 H   0  0  0  0  0  0  0  0  0  0  0  0
   45.1710   33.7430   43.3940 H   0  0  0  0  0  0  0  0  0  0  0  0
  1  2  1  0  0  0  0
  1 26  1  0  0  0  0
  3 11  1  0  0  0  0
  3  2  2  0  0  0  0
  4  3  1  0  0  0  0
  5  4  2  0  0  0  0
  5 10  1  0  0  0  0
  6  5  1  0  0  0  0
  7  6  2  0  0  0  0
  7  8  1  0  0  0  0
  8  9  2  0  0  0  0
  9 10  1  0  0  0  0
  9 15  1  0  0  0  0
 10  1  2  0  0  0  0
 12  6  1  0  0  0  0
 13  7  1  0  0  0  0
 14  8  1  0  0  0  0
 15 16  1  0  0  0  0
 15 17  1  0  0  0  0
 18 19  1  0  0  0  0
 18 15  1  1  0  0  0
 19 20  1  0  0  0  0
 19 21  1  0  0  0  0
 21 22  1  0  0  0  0
 23 21  1  0  0  0  0
 24 18  1  0  0  0  0
 24 23  1  0  0  0  0
 25 24  1  0  0  0  0
 26 29  1  0  0  0  0
 27 32  1  0  0  0  0
 28 29  1  0  0  0  0
 28 27  2  0  0  0  0
 29 30  2  0  0  0  0
 30 34  1  0  0  0  0
 30 31  1  0  0  0  0
 31 35  1  0  0  0  0
 32 31  2  0  0  0  0
 32 36  1  0  0  0  0
 33 28  1  0  0  0  0
 37 42  2  0  0  0  0
 37 38  1  0  0  0  0
 38 39  2  0  0  0  0
 39 40  1  0  0  0  0
 39 45  1  0  0  0  0
 41 27  1  0  0  0  0
 41 40  2  0  0  0  0
 42 41  1  0  0  0  0
 43 37  1  0  0  0  0
 44 38  1  0  0  0  0
M  END
>  <minimizedAffinity>
-6.07061481

$$$$

 OpenBabel03242516303D

 45 49  0  0  1  0  0  0  0  0999 V2000
   37.8300   29.6000   41.7310 C   0  0  0  0  0  0  0  0  0  0  0  0
   38.7630   29.7650   42.7230 N   0  0  0  0  0  0  0  0  0  0  0  0
   39.6200   30.7710   42.7590 C   0  0  0  0  0  0  0  0  0  0  0  0
   39.5610   31.6680   41.7670 N   0  0  0  0  0  0  0  0  0  0  0  0
   38.6830   31.5810   40.7620 C   0  0  0  0  0  0  0  0  0  0  0  0
   38.6370   32.5160   39.7300 C   0  0  0  0  0  0  0  0  0  0  0  0
   37.7310   32.3870   38.7030 C   0  0  0  0  0  0  0  0  0  0  0  0
   36.8600   31.3210   38.6950 C   0  0  0  0  0  0  0  0  0  0  0  0
   36.8760   30.3800   39.7030 C   0  0  0  0  0  0  0  0  0  0  0  0
   37.7800   30.5160   40.7250 C   0  0  0  0  0  0  0  0  0  0  0  0
   40.3380   30.8630   43.5590 H   0  0  0  0  0  0  0  0  0  0  0  0
   39.3610   33.3080   39.8320 H   0  0  0  0  0  0  0  0  0  0  0  0
   37.7950   33.1680   37.9710 H   0  0  0  0  0  0  0  0  0  0  0  0
   36.2290   31.3650   37.8210 H   0  0  0  0  0  0  0  0  0  0  0  0
   35.8950   29.2980   39.5760 C   0  0  0  0  0  0  0  0  0  0  0  0
   36.2690   28.2910   39.7300 H   0  0  0  0  0  0  0  0  0  0  0  0
   34.8940   29.5580   39.9780 H   0  0  0  0  0  0  0  0  0  0  0  0
   35.4380   29.1150   38.1080 C   0  0  1  0  0  3  0  0  0  0  0  0
   36.2690   27.9020   37.6470 C   0  0  0  0  0  3  0  0  0  0  0  0
   37.2460   27.8610   38.1710 H   0  0  0  0  0  0  0  0  0  0  0  0
   35.3580   26.7600   37.9430 C   0  0  0  0  0  3  0  0  0  0  0  0
   35.3460   26.5270   39.0160 H   0  0  0  0  0  0  0  0  0  0  0  0
   34.1290   27.2330   37.5820 O   0  0  0  0  0  0  0  0  0  0  0  0
   34.0640   28.5610   37.9900 C   0  0  0  0  0  3  0  0  0  0  0  0
   33.4140   29.0530   37.2270 H   0  0  0  0  0  0  0  0  0  0  0  0
   36.6970   28.2980   41.7630 S   0  0  0  0  0  0  0  0  0  0  0  0
   37.5410   24.4310   41.1580 C   0  0  0  0  0  0  0  0  0  0  0  0
   36.9730   25.6940   41.0930 C   0  0  0  0  0  0  0  0  0  0  0  0
   37.4690   26.7270   41.8660 C   0  0  0  0  0  0  0  0  0  0  0  0
   38.5340   26.5230   42.7120 C   0  0  0  0  0  0  0  0  0  0  0  0
   39.1180   25.2970   42.8040 C   0  0  0  0  0  0  0  0  0  0  0  0
   38.6150   24.2780   42.0290 C   0  0  0  0  0  0  0  0  0  0  0  0
   36.1390   25.8030   40.4120 H   0  0  0  0  0  0  0  0  0  0  0  0
   38.8890   27.3740   43.3020 H   0  0  0  0  0  0  0  0  0  0  0  0
   39.9550   25.1450   43.4720 H   0  0  0  0  0  0  0  0  0  0  0  0
   39.0810   23.3030   42.1030 H   0  0  0  0  0  0  0  0  0  0  0  0
   35.2260   22.5930   39.0300 C   0  0  0  0  0  0  0  0  0  0  0  0
   35.8970   21.3850   38.7810 C   0  0  0  0  0  0  0  0  0  0  0  0
   37.1620   21.1900   39.3480 C   0  0  0  0  0  0  0  0  0  0  0  0
   37.7070   22.1860   40.1300 N   0  0  0  0  0  0  0  0  0  0  0  0
   37.0080   23.3400   40.3370 C   0  0  0  0  0  0  0  0  0  0  0  0
   35.7750   23.5490   39.7940 N   0  0  0  0  0  0  0  0  0  0  0  0
   34.2370   22.8100   38.6190 H   0  0  0  0  0  0  0  0  0  0  0  0
   35.4060   20.6650   38.1650 H   0  0  0  0  0  0  0  0  0  0  0  0
   37.6810   20.2760   39.1650 H   0  0  0  0  0  0  0  0  0  0  0  0
  1 26  1  0  0  0  0
  1  2  1  0  0  0  0
  2  3  2  0  0  0  0
  3 11  1  0  0  0  0
  4  3  1  0  0  0  0
  5  4  2  0  0  0  0
  6 12  1  0  0  0  0
  6  5  1  0  0  0  0
  7  6  2  0  0  0  0
  8  7  1  0  0  0  0
  8  9  2  0  0  0  0
  9 10  1  0  0  0  0
 10  5  1  0  0  0  0
 10  1  2  0  0  0  0
 13  7  1  0  0  0  0
 14  8  1  0  0  0  0
 15  9  1  0  0  0  0
 15 16  1  0  0  0  0
 15 17  1  0  0  0  0
 18 15  1  1  0  0  0
 19 21  1  0  0  0  0
 19 18  1  0  0  0  0
 19 20  1  0  0  0  0
 21 22  1  0  0  0  0
 23 21  1  0  0  0  0
 23 24  1  0  0  0  0
 24 18  1  0  0  0  0
 25 24  1  0  0  0  0
 26 29  1  0  0  0  0
 27 32  1  0  0  0  0
 28 27  2  0  0  0  0
 28 29  1  0  0  0  0
 29 30  2  0  0  0  0
 30 31  1  0  0  0  0
 30 34  1  0  0  0  0
 31 35  1  0  0  0  0
 32 36  1  0  0  0  0
 32 31  2  0  0  0  0
 33 28  1  0  0  0  0
 37 42  1  0  0  0  0
 38 37  2  0  0  0  0
 38 39  1  0  0  0  0
 39 40  2  0  0  0  0
 40 41  1  0  0  0  0
 41 27  1  0  0  0  0
 42 41  2  0  0  0  0
 43 37  1  0  0  0  0
 44 38  1  0  0  0  0
 45 39  1  0  0  0  0
M  END
>  <minimizedAffinity>
-6.05458689

$$$$

 OpenBabel03242516303D

 45 49  0  0  1  0  0  0  0  0999 V2000
   37.1520   26.5890   38.2800 C   0  0  0  0  0  0  0  0  0  0  0  0
   36.7030   26.8860   37.0180 N   0  0  0  0  0  0  0  0  0  0  0  0
   35.7740   26.1860   36.3900 C   0  0  0  0  0  0  0  0  0  0  0  0
   35.2520   25.1360   37.0340 N   0  0  0  0  0  0  0  0  0  0  0  0
   35.6320   24.7770   38.2650 C   0  0  0  0  0  0  0  0  0  0  0  0
   35.0870   23.6770   38.9230 C   0  0  0  0  0  0  0  0  0  0  0  0
   35.5140   23.3270   40.1840 C   0  0  0  0  0  0  0  0  0  0  0  0
   36.4900   24.0750   40.8020 C   0  0  0  0  0  0  0  0  0  0  0  0
   37.0470   25.1730   40.1810 C   0  0  0  0  0  0  0  0  0  0  0  0
   36.6160   25.5170   38.9260 C   0  0  0  0  0  0  0  0  0  0  0  0
   35.4500   26.4550   35.3960 H   0  0  0  0  0  0  0  0  0  0  0  0
   34.3320   23.1610   38.3500 H   0  0  0  0  0  0  0  0  0  0  0  0
   35.0190   22.4630   40.5810 H   0  0  0  0  0  0  0  0  0  0  0  0
   36.7130   23.6610   41.7730 H   0  0  0  0  0  0  0  0  0  0  0  0
   38.0740   25.8820   40.9500 C   0  0  0  0  0  0  0  0  0  0  0  0
   39.0200   25.3660   41.0780 H   0  0  0  0  0  0  0  0  0  0  0  0
   38.0900   26.9770   40.7640 H   0  0  0  0  0  0  0  0  0  0  0  0
   37.6990   25.9770   42.4490 C   0  0  1  0  0  3  0  0  0  0  0  0
   38.9960   26.5120   43.0860 C   0  0  0  0  0  3  0  0  0  0  0  0
   39.8900   26.1710   42.5250 H   0  0  0  0  0  0  0  0  0  0  0  0
   38.7760   27.9860   43.0660 C   0  0  0  0  0  3  0  0  0  0  0  0
   38.9290   28.3990   42.0600 H   0  0  0  0  0  0  0  0  0  0  0  0
   37.4580   28.1150   43.3980 O   0  0  0  0  0  0  0  0  0  0  0  0
   36.7690   27.0970   42.7480 C   0  0  0  0  0  3  0  0  0  0  0  0
   35.9270   26.8480   43.4390 H   0  0  0  0  0  0  0  0  0  0  0  0
   38.3290   27.5700   39.0760 S   0  0  0  0  0  0  0  0  0  0  0  0
   38.0450   31.4530   40.0110 C   0  0  0  0  0  0  0  0  0  0  0  0
   38.5090   30.2190   39.5830 C   0  0  0  0  0  0  0  0  0  0  0  0
   37.6820   29.1110   39.6060 C   0  0  0  0  0  0  0  0  0  0  0  0
   36.3850   29.2120   40.0520 C   0  0  0  0  0  0  0  0  0  0  0  0
   35.8940   30.4060   40.4810 C   0  0  0  0  0  0  0  0  0  0  0  0
   36.7270   31.5010   40.4530 C   0  0  0  0  0  0  0  0  0  0  0  0
   39.5350   30.1920   39.2410 H   0  0  0  0  0  0  0  0  0  0  0  0
   35.7710   28.3060   40.0490 H   0  0  0  0  0  0  0  0  0  0  0  0
   34.8720   30.4770   40.8310 H   0  0  0  0  0  0  0  0  0  0  0  0
   36.3340   32.4500   40.7950 H   0  0  0  0  0  0  0  0  0  0  0  0
   39.1260   34.9100   40.3900 C   0  0  0  0  0  0  0  0  0  0  0  0
   40.4710   34.8800   39.9890 C   0  0  0  0  0  0  0  0  0  0  0  0
   41.0230   33.6600   39.5820 C   0  0  0  0  0  0  0  0  0  0  0  0
   40.2320   32.5310   39.5860 N   0  0  0  0  0  0  0  0  0  0  0  0
   38.9290   32.6210   39.9860 C   0  0  0  0  0  0  0  0  0  0  0  0
   38.3740   33.8000   40.3860 N   0  0  0  0  0  0  0  0  0  0  0  0
   38.6330   35.8290   40.7190 H   0  0  0  0  0  0  0  0  0  0  0  0
   41.0150   35.7970   40.0140 H   0  0  0  0  0  0  0  0  0  0  0  0
   42.0440   33.6250   39.2750 H   0  0  0  0  0  0  0  0  0  0  0  0
  1 10  1  0  0  0  0
  1 26  1  0  0  0  0
  2  1  2  0  0  0  0
  3  2  1  0  0  0  0
  3  4  2  0  0  0  0
  4  5  1  0  0  0  0
  5  6  2  0  0  0  0
  5 10  1  0  0  0  0
  6  7  1  0  0  0  0
  7 13  1  0  0  0  0
  7  8  2  0  0  0  0
  8 14  1  0  0  0  0
  9  8  1  0  0  0  0
  9 15  1  0  0  0  0
 10  9  2  0  0  0  0
 11  3  1  0  0  0  0
 12  6  1  0  0  0  0
 15 16  1  0  0  0  0
 17 15  1  0  0  0  0
 18 15  1  6  0  0  0
 18 24  1  0  0  0  0
 18 19  1  0  0  0  0
 20 19  1  0  0  0  0
 21 19  1  0  0  0  0
 21 23  1  0  0  0  0
 22 21  1  0  0  0  0
 24 23  1  0  0  0  0
 24 25  1  0  0  0  0
 26 29  1  0  0  0  0
 27 32  1  0  0  0  0
 28 29  1  0  0  0  0
 28 27  2  0  0  0  0
 29 30  2  0  0  0  0
 30 31  1  0  0  0  0
 31 35  1  0  0  0  0
 32 31  2  0  0  0  0
 32 36  1  0  0  0  0
 33 28  1  0  0  0  0
 34 30  1  0  0  0  0
 37 43  1  0  0  0  0
 38 44  1  0  0  0  0
 38 37  2  0  0  0  0
 39 40  2  0  0  0  0
 39 38  1  0  0  0  0
 40 41  1  0  0  0  0
 41 27  1  0  0  0  0
 41 42  2  0  0  0  0
 42 37  1  0  0  0  0
 45 39  1  0  0  0  0
M  END
>  <minimizedAffinity>
-6.05170393

$$$$

 OpenBabel03242516303D

 45 49  0  0  1  0  0  0  0  0999 V2000
   36.8110   28.8560   41.4820 C   0  0  0  0  0  0  0  0  0  0  0  0
   37.2630   29.2390   42.7190 N   0  0  0  0  0  0  0  0  0  0  0  0
   37.7390   28.3930   43.6170 C   0  0  0  0  0  0  0  0  0  0  0  0
   37.7760   27.0970   43.2840 N   0  0  0  0  0  0  0  0  0  0  0  0
   37.3550   26.6390   42.1000 C   0  0  0  0  0  0  0  0  0  0  0  0
   37.3910   25.2870   41.7680 C   0  0  0  0  0  0  0  0  0  0  0  0
   36.9350   24.8490   40.5460 C   0  0  0  0  0  0  0  0  0  0  0  0
   36.4380   25.7590   39.6410 C   0  0  0  0  0  0  0  0  0  0  0  0
   36.3930   27.1050   39.9360 C   0  0  0  0  0  0  0  0  0  0  0  0
   36.8510   27.5350   41.1550 C   0  0  0  0  0  0  0  0  0  0  0  0
   38.0840   28.7380   44.5800 H   0  0  0  0  0  0  0  0  0  0  0  0
   37.7970   24.6610   42.5480 H   0  0  0  0  0  0  0  0  0  0  0  0
   37.0150   23.7880   40.4120 H   0  0  0  0  0  0  0  0  0  0  0  0
   36.1170   25.2510   38.7450 H   0  0  0  0  0  0  0  0  0  0  0  0
   35.8440   27.9660   38.8840 C   0  0  0  0  0  0  0  0  0  0  0  0
   34.7680   27.9270   38.7450 H   0  0  0  0  0  0  0  0  0  0  0  0
   36.3520   28.9490   38.8050 H   0  0  0  0  0  0  0  0  0  0  0  0
   36.2400   27.4650   37.4740 C   0  0  1  0  0  3  0  0  0  0  0  0
   35.3980   28.3650   36.5490 C   0  0  0  0  0  3  0  0  0  0  0  0
   34.4450   28.6590   37.0330 H   0  0  0  0  0  0  0  0  0  0  0  0
   36.3290   29.4970   36.2730 C   0  0  0  0  0  3  0  0  0  0  0  0
   36.3870   30.1840   37.1280 H   0  0  0  0  0  0  0  0  0  0  0  0
   37.5390   28.8820   36.1190 O   0  0  0  0  0  0  0  0  0  0  0  0
   37.6120   27.8750   37.0740 C   0  0  0  0  0  3  0  0  0  0  0  0
   38.2260   27.0780   36.5880 H   0  0  0  0  0  0  0  0  0  0  0  0
   36.2510   30.0100   40.3260 S   0  0  0  0  0  0  0  0  0  0  0  0
   39.5650   31.5400   38.6790 C   0  0  0  0  0  0  0  0  0  0  0  0
   38.5480   30.6820   39.0700 C   0  0  0  0  0  0  0  0  0  0  0  0
   37.4970   31.1440   39.8400 C   0  0  0  0  0  0  0  0  0  0  0  0
   37.4390   32.4620   40.2320 C   0  0  0  0  0  0  0  0  0  0  0  0
   38.4180   33.3330   39.8690 C   0  0  0  0  0  0  0  0  0  0  0  0
   39.4580   32.8610   39.1020 C   0  0  0  0  0  0  0  0  0  0  0  0
   38.6400   29.6570   38.7350 H   0  0  0  0  0  0  0  0  0  0  0  0
   36.5850   32.7770   40.8400 H   0  0  0  0  0  0  0  0  0  0  0  0
   38.3650   34.3680   40.1810 H   0  0  0  0  0  0  0  0  0  0  0  0
   40.2370   33.5570   38.8140 H   0  0  0  0  0  0  0  0  0  0  0  0
   42.6520   31.5800   36.7480 C   0  0  0  0  0  0  0  0  0  0  0  0
   42.8060   30.2440   36.3450 C   0  0  0  0  0  0  0  0  0  0  0  0
   41.8400   29.3090   36.7380 C   0  0  0  0  0  0  0  0  0  0  0  0
   40.7730   29.7290   37.5040 N   0  0  0  0  0  0  0  0  0  0  0  0
   40.6770   31.0420   37.8650 C   0  0  0  0  0  0  0  0  0  0  0  0
   41.6060   31.9670   37.4930 N   0  0  0  0  0  0  0  0  0  0  0  0
   43.3680   32.3600   36.4760 H   0  0  0  0  0  0  0  0  0  0  0  0
   43.6590   30.0010   35.7530 H   0  0  0  0  0  0  0  0  0  0  0  0
   41.9470   28.2910   36.4380 H   0  0  0  0  0  0  0  0  0  0  0  0
  1  2  1  0  0  0  0
  2  3  2  0  0  0  0
  3 11  1  0  0  0  0
  4  3  1  0  0  0  0
  5  4  2  0  0  0  0
  6  5  1  0  0  0  0
  6 12  1  0  0  0  0
  7  6  2  0  0  0  0
  8  9  2  0  0  0  0
  8  7  1  0  0  0  0
  9 10  1  0  0  0  0
 10  1  2  0  0  0  0
 10  5  1  0  0  0  0
 13  7  1  0  0  0  0
 14  8  1  0  0  0  0
 15  9  1  0  0  0  0
 16 15  1  0  0  0  0
 17 15  1  0  0  0  0
 18 15  1  1  0  0  0
 19 20  1  0  0  0  0
 19 18  1  0  0  0  0
 21 19  1  0  0  0  0
 21 22  1  0  0  0  0
 23 21  1  0  0  0  0
 23 24  1  0  0  0  0
 24 18  1  0  0  0  0
 25 24  1  0  0  0  0
 26  1  1  0  0  0  0
 27 28  2  0  0  0  0
 27 32  1  0  0  0  0
 28 29  1  0  0  0  0
 29 30  2  0  0  0  0
 29 26  1  0  0  0  0
 30 34  1  0  0  0  0
 31 35  1  0  0  0  0
 31 30  1  0  0  0  0
 32 31  2  0  0  0  0
 33 28  1  0  0  0  0
 36 32  1  0  0  0  0
 37 42  1  0  0  0  0
 38 39  1  0  0  0  0
 38 37  2  0  0  0  0
 39 40  2  0  0  0  0
 40 41  1  0  0  0  0
 41 27  1  0  0  0  0
 42 41  2  0  0  0  0
 43 37  1  0  0  0  0
 44 38  1  0  0  0  0
 45 39  1  0  0  0  0
M  END
>  <minimizedAffinity>
-6.0182271

$$$$
