
 OpenBabel03252504273D

 21 22  0  0  1  0  0  0  0  0999 V2000
   43.7020   35.2650   41.3440 C   0  0  0  0  0  0  0  0  0  0  0  0
   43.6850   34.3900   40.6390 H   0  0  0  0  0  0  0  0  0  0  0  0
   44.3960   36.0010   40.8560 H   0  0  0  0  0  0  0  0  0  0  0  0
   44.2820   35.7520   43.6360 C   0  0  0  0  0  0  0  0  0  0  0  0
   44.2780   34.8220   42.6160 C   0  0  0  0  0  0  0  0  0  0  0  0
   44.8140   33.5710   42.8930 C   0  0  0  0  0  0  0  0  0  0  0  0
   45.2940   33.3620   44.1230 N   0  0  0  0  0  0  0  0  0  0  0  0
   45.2930   34.2740   45.1040 C   0  0  0  0  0  0  0  0  0  0  0  0
   44.7710   35.5310   44.8810 N   0  0  0  0  0  0  0  0  0  0  0  0
   43.8860   36.7750   43.5360 H   0  0  0  0  0  0  0  0  0  0  0  0
   44.8000   32.8590   42.0830 H   0  0  0  0  0  0  0  0  0  0  0  0
   45.6990   34.0350   46.0790 H   0  0  0  0  0  0  0  0  0  0  0  0
   42.4220   35.7760   41.4550 O   0  0  0  0  0  0  0  0  0  0  0  0
   41.5740   35.0850   40.5960 C   0  0  2  0  0  0  0  0  0  0  0  0
   40.3950   35.9620   40.1570 C   0  0  0  0  0  0  0  0  0  0  0  0
   40.6580   36.5600   39.2630 H   0  0  0  0  0  0  0  0  0  0  0  0
   39.3350   34.9310   39.9040 C   0  0  0  0  0  0  0  0  0  0  0  0
   39.3570   34.6790   38.8270 H   0  0  0  0  0  0  0  0  0  0  0  0
   39.6440   33.8020   40.6210 O   0  0  0  0  0  0  0  0  0  0  0  0
   40.7940   34.0220   41.3500 C   0  0  0  0  0  0  0  0  0  0  0  0
   41.3810   33.0830   41.4860 H   0  0  0  0  0  0  0  0  0  0  0  0
  1 13  1  0  0  0  0
  1  5  1  0  0  0  0
  2  1  1  0  0  0  0
  3  1  1  0  0  0  0
  4  9  1  0  0  0  0
  5  6  1  0  0  0  0
  5  4  2  0  0  0  0
  6  7  2  0  0  0  0
  7  8  1  0  0  0  0
  8 12  1  0  0  0  0
  9  8  2  0  0  0  0
 10  4  1  0  0  0  0
 11  6  1  0  0  0  0
 14 20  1  0  0  0  0
 14 13  1  1  0  0  0
 15 14  1  0  0  0  0
 16 15  1  0  0  0  0
 17 15  1  0  0  0  0
 17 19  1  0  0  0  0
 18 17  1  0  0  0  0
 19 20  1  0  0  0  0
 20 21  1  0  0  0  0
M  END
>  <minimizedAffinity>
-3.92078543

>  <minimizedRMSD>
2.34198594

$$$$
