
 OpenBabel03252509043D

 47 49  0  0  1  0  0  0  0  0999 V2000
   46.7810   34.4150   43.3290 N   0  0  0  0  0  0  0  0  0  0  0  0
   46.5150   34.8920   42.0280 C   0  0  0  0  0  0  0  0  0  0  0  0
   45.0560   34.8250   41.6110 C   0  0  0  0  0  0  0  0  0  0  0  0
   44.0750   35.0440   42.7340 C   0  0  0  0  0  0  0  0  0  0  0  0
   44.7850   35.3760   44.0340 C   0  0  0  0  0  0  0  0  0  0  0  0
   45.7700   34.1570   44.2310 C   0  0  2  0  0  0  0  0  0  0  0  0
   46.7790   35.9800   42.0070 H   0  0  0  0  0  0  0  0  0  0  0  0
   47.0880   34.4410   41.2070 H   0  0  0  0  0  0  0  0  0  0  0  0
   44.9230   35.5330   40.7810 H   0  0  0  0  0  0  0  0  0  0  0  0
   44.8860   33.8020   41.2000 H   0  0  0  0  0  0  0  0  0  0  0  0
   43.3650   35.8420   42.4420 H   0  0  0  0  0  0  0  0  0  0  0  0
   43.4500   34.1480   42.9380 H   0  0  0  0  0  0  0  0  0  0  0  0
   44.0650   35.3200   44.8570 H   0  0  0  0  0  0  0  0  0  0  0  0
   45.3770   36.2930   43.9680 H   0  0  0  0  0  0  0  0  0  0  0  0
   45.1400   33.2610   44.0610 H   0  0  0  0  0  0  0  0  0  0  0  0
   48.0010   33.6600   43.4350 C   0  0  0  0  0  0  0  0  0  0  0  0
   48.2390   33.5190   44.5180 H   0  0  0  0  0  0  0  0  0  0  0  0
   48.8220   34.2490   42.9630 H   0  0  0  0  0  0  0  0  0  0  0  0
   47.8090   32.3240   42.7900 C   0  0  0  0  0  0  0  0  0  0  0  0
   47.7720   31.5260   43.5270 H   0  0  0  0  0  0  0  0  0  0  0  0
   46.8620   32.2950   42.2170 H   0  0  0  0  0  0  0  0  0  0  0  0
   51.2680   32.0890   41.3220 C   0  0  0  0  0  0  0  0  0  0  0  0
   50.2000   32.3100   42.2200 C   0  0  0  0  0  0  0  0  0  0  0  0
   48.9160   32.0840   41.8240 C   0  0  0  0  0  0  0  0  0  0  0  0
   48.7210   31.6550   40.5690 N   0  0  0  0  0  0  0  0  0  0  0  0
   49.7190   31.4420   39.7100 C   0  0  0  0  0  0  0  0  0  0  0  0
   50.9940   31.6550   40.0690 N   0  0  0  0  0  0  0  0  0  0  0  0
   52.2870   32.2630   41.6200 H   0  0  0  0  0  0  0  0  0  0  0  0
   50.4010   32.6600   43.2340 H   0  0  0  0  0  0  0  0  0  0  0  0
   49.4550   31.0950   38.7210 H   0  0  0  0  0  0  0  0  0  0  0  0
   46.1610   34.3370   45.5390 O   0  0  0  0  0  0  0  0  0  0  0  0
   45.4430   31.7730   45.6630 O   0  0  0  0  0  0  0  0  0  0  0  0
   45.9850   32.9650   46.4780 P   0  0  2  0  0  0  0  0  0  0  0  0
   44.7220   33.3080   47.5900 O   0  0  0  0  0  0  0  0  0  0  0  0
   45.0670   33.9020   48.3080 H   0  0  0  0  0  0  0  0  0  0  0  0
   47.3220   32.5480   47.3600 O   0  0  0  0  0  0  0  0  0  0  0  0
   47.7310   31.2670   47.0500 C   0  0  0  0  0  0  0  0  0  0  0  0
   47.1480   30.8070   46.2160 H   0  0  0  0  0  0  0  0  0  0  0  0
   48.7890   31.2950   46.7240 H   0  0  0  0  0  0  0  0  0  0  0  0
   47.6140   30.3120   48.2110 C   0  0  1  0  0  3  0  0  0  0  0  0
   48.4090   29.0450   47.9760 C   0  0  0  0  0  3  0  0  0  0  0  0
   48.0020   28.1920   48.5490 H   0  0  0  0  0  0  0  0  0  0  0  0
   49.7670   29.4110   48.5680 C   0  0  0  0  0  3  0  0  0  0  0  0
   50.5950   29.1640   47.8560 H   0  0  0  0  0  0  0  0  0  0  0  0
   49.7130   30.7780   48.8340 O   0  0  0  0  0  0  0  0  0  0  0  0
   48.4290   30.9140   49.3640 C   0  0  0  0  0  3  0  0  0  0  0  0
   48.4000   30.2220   50.2480 H   0  0  0  0  0  0  0  0  0  0  0  0
  1 16  1  0  0  0  0
  1  6  1  0  0  0  0
  2  1  1  0  0  0  0
  3  2  1  0  0  0  0
  3  4  1  0  0  0  0
  4 12  1  0  0  0  0
  4  5  1  0  0  0  0
  5  6  1  0  0  0  0
  5 13  1  0  0  0  0
  6 15  1  6  0  0  0
  6 31  1  0  0  0  0
  7  2  1  0  0  0  0
  8  2  1  0  0  0  0
  9  3  1  0  0  0  0
 10  3  1  0  0  0  0
 11  4  1  0  0  0  0
 14  5  1  0  0  0  0
 16 17  1  0  0  0  0
 18 16  1  0  0  0  0
 19 16  1  0  0  0  0
 19 20  1  0  0  0  0
 21 19  1  0  0  0  0
 22 28  1  0  0  0  0
 22 23  1  0  0  0  0
 23 29  1  0  0  0  0
 24 23  2  0  0  0  0
 24 19  1  0  0  0  0
 25 24  1  0  0  0  0
 26 27  1  0  0  0  0
 26 25  2  0  0  0  0
 27 22  2  0  0  0  0
 30 26  1  0  0  0  0
 31 33  1  0  0  0  0
 33 32  2  6  0  0  0
 33 36  1  0  0  0  0
 33 34  1  0  0  0  0
 34 35  1  0  0  0  0
 37 36  1  0  0  0  0
 38 37  1  0  0  0  0
 39 37  1  0  0  0  0
 40 37  1  6  0  0  0
 40 46  1  0  0  0  0
 41 40  1  0  0  0  0
 41 42  1  0  0  0  0
 41 43  1  0  0  0  0
 43 45  1  0  0  0  0
 44 43  1  0  0  0  0
 45 46  1  0  0  0  0
 46 47  1  0  0  0  0
M  END
>  <minimizedAffinity>
-4.61037016

>  <minimizedRMSD>
2.6119647

$$$$
