
 OpenBabel03252500153D

 37 40  0  0  1  0  0  0  0  0999 V2000
   45.5260   32.3400   40.5100 Cl  0  0  0  0  0  0  0  0  0  0  0  0
   46.8120   33.4570   40.1660 C   0  0  0  0  0  0  0  0  0  0  0  0
   47.3860   34.2050   41.1600 C   0  0  0  0  0  0  0  0  0  0  0  0
   48.4160   35.1070   40.9130 C   0  0  0  0  0  0  0  0  0  0  0  0
   48.8270   35.2070   39.6070 C   0  0  0  0  0  0  0  0  0  0  0  0
   48.2560   34.4570   38.5930 C   0  0  0  0  0  0  0  0  0  0  0  0
   47.2600   33.5930   38.8650 C   0  0  0  0  0  0  0  0  0  0  0  0
   48.8650   35.6910   41.6880 H   0  0  0  0  0  0  0  0  0  0  0  0
   49.6250   35.9010   39.4050 H   0  0  0  0  0  0  0  0  0  0  0  0
   48.5960   34.5510   37.5730 H   0  0  0  0  0  0  0  0  0  0  0  0
   46.8900   32.8960   44.5720 C   0  0  0  0  0  0  0  0  0  0  0  0
   45.9500   33.8040   45.1200 C   0  0  0  0  0  0  0  0  0  0  0  0
   45.5080   34.8470   44.3050 C   0  0  0  0  0  0  0  0  0  0  0  0
   46.0030   34.9300   43.0340 N   0  0  0  0  0  0  0  0  0  0  0  0
   46.8970   34.0500   42.5410 C   0  0  0  0  0  0  0  0  0  0  0  0
   47.3260   33.0510   43.3100 N   0  0  0  0  0  0  0  0  0  0  0  0
   47.2140   32.0970   45.2330 H   0  0  0  0  0  0  0  0  0  0  0  0
   45.5430   33.7670   46.1110 H   0  0  0  0  0  0  0  0  0  0  0  0
   44.5190   35.8680   44.7680 C   0  0  0  0  0  0  0  0  0  0  0  0
   44.9790   37.1270   44.5450 F   0  0  0  0  0  0  0  0  0  0  0  0
   43.3420   35.6820   44.0690 F   0  0  0  0  0  0  0  0  0  0  0  0
   44.3070   35.6340   46.1030 F   0  0  0  0  0  0  0  0  0  0  0  0
   46.6410   32.7910   37.8130 C   0  0  0  0  0  0  0  0  0  0  0  0
   45.5630   33.2290   37.0310 C   0  0  0  0  0  0  0  0  0  0  0  0
   45.2370   32.2190   36.1410 C   0  0  0  0  0  0  0  0  0  0  0  0
   46.1490   31.2170   36.4400 C   0  0  0  0  0  0  0  0  0  0  0  0
   46.9560   31.5700   37.4180 O   0  0  0  0  0  0  0  0  0  0  0  0
   45.0750   34.1930   37.1140 H   0  0  0  0  0  0  0  0  0  0  0  0
   44.4790   32.1920   35.3990 H   0  0  0  0  0  0  0  0  0  0  0  0
   46.2410   29.9070   35.7810 C   0  0  1  0  0  3  0  0  0  0  0  0
   44.9740   29.5460   34.9930 C   0  0  0  0  0  3  0  0  0  0  0  0
   44.7050   30.3530   34.2980 H   0  0  0  0  0  0  0  0  0  0  0  0
   45.5770   28.4050   34.1630 C   0  0  0  0  0  3  0  0  0  0  0  0
   44.9390   28.1250   33.3120 H   0  0  0  0  0  0  0  0  0  0  0  0
   46.8480   28.8230   33.8190 O   0  0  0  0  0  0  0  0  0  0  0  0
   47.2470   29.8310   34.6710 C   0  0  0  0  0  3  0  0  0  0  0  0
   47.1930   30.7800   34.0960 H   0  0  0  0  0  0  0  0  0  0  0  0
  2  1  1  0  0  0  0
  2  3  1  0  0  0  0
  3 15  1  0  0  0  0
  4  3  2  0  0  0  0
  4  8  1  0  0  0  0
  5  4  1  0  0  0  0
  6  7  1  0  0  0  0
  6  5  2  0  0  0  0
  7  2  2  0  0  0  0
  9  5  1  0  0  0  0
 10  6  1  0  0  0  0
 11 12  1  0  0  0  0
 11 17  1  0  0  0  0
 12 18  1  0  0  0  0
 13 19  1  0  0  0  0
 13 12  2  0  0  0  0
 14 13  1  0  0  0  0
 15 14  2  0  0  0  0
 15 16  1  0  0  0  0
 16 11  2  0  0  0  0
 19 22  1  0  0  0  0
 20 19  1  0  0  0  0
 21 19  1  0  0  0  0
 23  7  1  0  0  0  0
 24 28  1  0  0  0  0
 24 23  2  0  0  0  0
 25 26  2  0  0  0  0
 25 24  1  0  0  0  0
 26 27  1  0  0  0  0
 27 23  1  0  0  0  0
 29 25  1  0  0  0  0
 30 26  1  6  0  0  0
 31 30  1  0  0  0  0
 32 31  1  0  0  0  0
 33 31  1  0  0  0  0
 34 33  1  0  0  0  0
 35 33  1  0  0  0  0
 35 36  1  0  0  0  0
 36 30  1  0  0  0  0
 37 36  1  0  0  0  0
M  END
>  <minimizedAffinity>
-5.72351742

>  <minimizedRMSD>
0.183003619

$$$$
