
 OpenBabel03242516233D

 28 30  0  0  1  0  0  0  0  0999 V2000
   45.9050   32.7850   47.0150 C   0  0  0  0  0  0  0  0  0  0  0  0
   47.1370   32.1590   47.1950 C   0  0  0  0  0  0  0  0  0  0  0  0
   47.3630   31.3150   48.2590 C   0  0  0  0  0  0  0  0  0  0  0  0
   46.3490   31.0720   49.1850 C   0  0  0  0  0  0  0  0  0  0  0  0
   45.1380   31.6850   49.0090 C   0  0  0  0  0  0  0  0  0  0  0  0
   44.9340   32.5300   47.9330 C   0  0  0  0  0  0  0  0  0  0  0  0
   47.8910   32.3860   46.4410 H   0  0  0  0  0  0  0  0  0  0  0  0
   46.4780   30.4230   50.0250 H   0  0  0  0  0  0  0  0  0  0  0  0
   44.3090   31.5370   49.6910 H   0  0  0  0  0  0  0  0  0  0  0  0
   43.9840   33.0010   47.8100 H   0  0  0  0  0  0  0  0  0  0  0  0
   44.5660   35.5330   45.0080 C   0  0  0  0  0  0  0  0  0  0  0  0
   45.2480   35.4270   43.7920 C   0  0  0  0  0  0  0  0  0  0  0  0
   46.1890   34.3930   43.6540 C   0  0  0  0  0  0  0  0  0  0  0  0
   46.3980   33.5400   44.6980 N   0  0  0  0  0  0  0  0  0  0  0  0
   45.7110   33.6820   45.8600 C   0  0  0  0  0  0  0  0  0  0  0  0
   44.8010   34.6730   46.0130 N   0  0  0  0  0  0  0  0  0  0  0  0
   43.8230   36.3220   45.1680 H   0  0  0  0  0  0  0  0  0  0  0  0
   45.0660   36.1130   42.9830 H   0  0  0  0  0  0  0  0  0  0  0  0
   46.7490   34.2600   42.7390 H   0  0  0  0  0  0  0  0  0  0  0  0
   48.9370   30.5370   48.4720 S   0  0  0  0  0  0  0  0  0  0  0  0
   49.6720   31.1100   50.0160 C   0  0  2  0  0  0  0  0  0  0  0  0
   50.9190   31.8730   49.7130 C   0  0  0  0  0  0  0  0  0  0  0  0
   50.9200   32.8060   50.3480 H   0  0  0  0  0  0  0  0  0  0  0  0
   51.9970   30.9400   50.2320 C   0  0  0  0  0  0  0  0  0  0  0  0
   52.1470   30.1330   49.4740 H   0  0  0  0  0  0  0  0  0  0  0  0
   51.4090   30.3790   51.3540 O   0  0  0  0  0  0  0  0  0  0  0  0
   50.1610   29.9660   50.8700 C   0  0  0  0  0  0  0  0  0  0  0  0
   49.4640   29.7920   51.7160 H   0  0  0  0  0  0  0  0  0  0  0  0
  1  2  2  0  0  0  0
  1  6  1  0  0  0  0
  2  3  1  0  0  0  0
  3 20  1  0  0  0  0
  3  4  2  0  0  0  0
  4  8  1  0  0  0  0
  5  4  1  0  0  0  0
  5  9  1  0  0  0  0
  6  5  2  0  0  0  0
  7  2  1  0  0  0  0
 10  6  1  0  0  0  0
 11 17  1  0  0  0  0
 11 16  1  0  0  0  0
 12 11  2  0  0  0  0
 13 12  1  0  0  0  0
 13 14  2  0  0  0  0
 14 15  1  0  0  0  0
 15 16  2  0  0  0  0
 15  1  1  0  0  0  0
 18 12  1  0  0  0  0
 19 13  1  0  0  0  0
 21 20  1  6  0  0  0
 21 27  1  0  0  0  0
 22 21  1  0  0  0  0
 22 24  1  0  0  0  0
 22 23  1  0  0  0  0
 24 26  1  0  0  0  0
 25 24  1  0  0  0  0
 27 26  1  0  0  0  0
 27 28  1  0  0  0  0
M  END
>  <minimizedAffinity>
-5.48803711

>  <minimizedRMSD>
1.01035821

$$$$
