
 OpenBabel03252509043D

 47 49  0  0  1  0  0  0  0  0999 V2000
   46.6940   34.5150   43.5520 N   0  0  0  0  0  0  0  0  0  0  0  0
   46.2250   35.5480   42.7120 C   0  0  0  0  0  0  0  0  0  0  0  0
   44.7170   35.7210   42.6960 C   0  0  0  0  0  0  0  0  0  0  0  0
   44.0400   35.4210   44.0090 C   0  0  0  0  0  0  0  0  0  0  0  0
   45.0510   35.0920   45.0920 C   0  0  0  0  0  0  0  0  0  0  0  0
   45.8740   33.8950   44.4710 C   0  0  2  0  0  0  0  0  0  0  0  0
   46.6300   36.5140   43.1080 H   0  0  0  0  0  0  0  0  0  0  0  0
   46.5400   35.5140   41.6610 H   0  0  0  0  0  0  0  0  0  0  0  0
   44.5110   36.7370   42.3300 H   0  0  0  0  0  0  0  0  0  0  0  0
   44.3210   35.0100   41.9330 H   0  0  0  0  0  0  0  0  0  0  0  0
   43.4030   36.2810   44.2920 H   0  0  0  0  0  0  0  0  0  0  0  0
   43.3530   34.5490   43.9470 H   0  0  0  0  0  0  0  0  0  0  0  0
   44.5240   34.6800   45.9590 H   0  0  0  0  0  0  0  0  0  0  0  0
   45.7390   35.9190   45.2910 H   0  0  0  0  0  0  0  0  0  0  0  0
   45.1020   33.1980   44.0880 H   0  0  0  0  0  0  0  0  0  0  0  0
   47.7890   33.7650   42.9980 C   0  0  0  0  0  0  0  0  0  0  0  0
   48.3710   33.3120   43.8370 H   0  0  0  0  0  0  0  0  0  0  0  0
   48.4520   34.4680   42.4410 H   0  0  0  0  0  0  0  0  0  0  0  0
   47.2480   32.6760   42.1260 C   0  0  0  0  0  0  0  0  0  0  0  0
   47.4980   31.6920   42.5140 H   0  0  0  0  0  0  0  0  0  0  0  0
   46.1440   32.7380   42.0570 H   0  0  0  0  0  0  0  0  0  0  0  0
   49.0790   31.9820   38.9110 C   0  0  0  0  0  0  0  0  0  0  0  0
   48.5570   31.8500   40.2180 C   0  0  0  0  0  0  0  0  0  0  0  0
   47.7850   32.8400   40.7480 C   0  0  0  0  0  0  0  0  0  0  0  0
   47.5520   33.9190   39.9870 N   0  0  0  0  0  0  0  0  0  0  0  0
   48.0380   34.0570   38.7530 C   0  0  0  0  0  0  0  0  0  0  0  0
   48.8010   33.1010   38.2010 N   0  0  0  0  0  0  0  0  0  0  0  0
   49.6900   31.2090   38.4790 H   0  0  0  0  0  0  0  0  0  0  0  0
   48.7700   30.9550   40.8040 H   0  0  0  0  0  0  0  0  0  0  0  0
   47.7910   34.9660   38.2220 H   0  0  0  0  0  0  0  0  0  0  0  0
   46.5570   33.4380   45.5750 O   0  0  0  0  0  0  0  0  0  0  0  0
   45.5530   31.1060   44.7600 O   0  0  0  0  0  0  0  0  0  0  0  0
   46.2410   31.8350   45.9330 P   0  0  2  0  0  0  0  0  0  0  0  0
   45.0420   31.8490   47.1640 O   0  0  0  0  0  0  0  0  0  0  0  0
   45.4640   32.0850   48.0310 H   0  0  0  0  0  0  0  0  0  0  0  0
   47.5360   30.9820   46.5110 O   0  0  0  0  0  0  0  0  0  0  0  0
   47.9810   30.0750   45.5710 C   0  0  0  0  0  0  0  0  0  0  0  0
   47.1900   29.3610   45.2370 H   0  0  0  0  0  0  0  0  0  0  0  0
   48.3180   30.6240   44.6710 H   0  0  0  0  0  0  0  0  0  0  0  0
   49.1220   29.2220   46.0670 C   0  0  1  0  0  3  0  0  0  0  0  0
   49.0210   28.9630   47.5550 C   0  0  0  0  0  3  0  0  0  0  0  0
   50.0110   28.7550   48.0030 H   0  0  0  0  0  0  0  0  0  0  0  0
   48.2000   27.6770   47.5970 C   0  0  0  0  0  3  0  0  0  0  0  0
   47.3500   27.7660   48.3180 H   0  0  0  0  0  0  0  0  0  0  0  0
   47.7450   27.4720   46.2950 O   0  0  0  0  0  0  0  0  0  0  0  0
   48.8740   27.8010   45.5430 C   0  0  0  0  0  3  0  0  0  0  0  0
   49.6840   27.1150   45.9140 H   0  0  0  0  0  0  0  0  0  0  0  0
  1  6  1  0  0  0  0
  2  7  1  0  0  0  0
  2  1  1  0  0  0  0
  3  2  1  0  0  0  0
  3  4  1  0  0  0  0
  4 11  1  0  0  0  0
  4  5  1  0  0  0  0
  5 14  1  0  0  0  0
  5 13  1  0  0  0  0
  6 15  1  6  0  0  0
  6  5  1  0  0  0  0
  6 31  1  0  0  0  0
  8  2  1  0  0  0  0
  9  3  1  0  0  0  0
 10  3  1  0  0  0  0
 12  4  1  0  0  0  0
 16  1  1  0  0  0  0
 16 17  1  0  0  0  0
 18 16  1  0  0  0  0
 19 20  1  0  0  0  0
 19 16  1  0  0  0  0
 21 19  1  0  0  0  0
 22 23  1  0  0  0  0
 23 24  2  0  0  0  0
 23 29  1  0  0  0  0
 24 19  1  0  0  0  0
 25 24  1  0  0  0  0
 26 25  2  0  0  0  0
 27 26  1  0  0  0  0
 27 22  2  0  0  0  0
 28 22  1  0  0  0  0
 30 26  1  0  0  0  0
 31 33  1  0  0  0  0
 33 32  2  6  0  0  0
 33 36  1  0  0  0  0
 33 34  1  0  0  0  0
 34 35  1  0  0  0  0
 37 36  1  0  0  0  0
 38 37  1  0  0  0  0
 39 37  1  0  0  0  0
 40 37  1  6  0  0  0
 40 41  1  0  0  0  0
 41 43  1  0  0  0  0
 41 42  1  0  0  0  0
 43 44  1  0  0  0  0
 45 43  1  0  0  0  0
 46 47  1  0  0  0  0
 46 40  1  0  0  0  0
 46 45  1  0  0  0  0
M  END
>  <minimizedAffinity>
-4.03591108

>  <minimizedRMSD>
0.977536738

$$$$
