
 OpenBabel03252503023D

 32 33  0  0  1  0  0  0  0  0999 V2000
   47.9350   34.3760   40.3040 S   0  0  0  0  0  0  0  0  0  0  0  0
   48.4340   34.3470   37.5750 C   0  0  0  0  0  0  0  0  0  0  0  0
   47.8430   33.6930   38.6360 C   0  0  0  0  0  0  0  0  0  0  0  0
   47.1610   32.4930   38.4610 C   0  0  0  0  0  0  0  0  0  0  0  0
   47.1010   31.9890   37.1890 N   0  0  0  0  0  0  0  0  0  0  0  0
   47.6920   32.6570   36.1760 C   0  0  0  0  0  0  0  0  0  0  0  0
   48.3370   33.7920   36.3390 N   0  0  0  0  0  0  0  0  0  0  0  0
   48.9590   35.2770   37.7300 H   0  0  0  0  0  0  0  0  0  0  0  0
   46.6760   31.9360   39.2620 H   0  0  0  0  0  0  0  0  0  0  0  0
   47.6770   32.1810   34.7580 C   0  0  1  0  0  3  0  0  0  0  0  0
   49.0010   32.4430   34.0690 C   0  0  0  0  0  3  0  0  0  0  0  0
   49.4020   33.3930   34.5210 H   0  0  0  0  0  0  0  0  0  0  0  0
   49.7970   31.2430   34.4580 C   0  0  0  0  0  3  0  0  0  0  0  0
   50.4430   31.4820   35.3410 H   0  0  0  0  0  0  0  0  0  0  0  0
   48.9530   30.2170   34.8130 O   0  0  0  0  0  0  0  0  0  0  0  0
   47.6560   30.6520   34.7160 C   0  0  0  0  0  3  0  0  0  0  0  0
   47.2740   30.3910   33.7060 H   0  0  0  0  0  0  0  0  0  0  0  0
   46.3090   34.3240   41.0720 C   0  0  0  0  0  0  0  0  0  0  0  0
   45.6490   35.1520   40.7720 H   0  0  0  0  0  0  0  0  0  0  0  0
   45.8070   33.3750   40.7860 H   0  0  0  0  0  0  0  0  0  0  0  0
   46.5090   34.2370   42.5110 N   0  0  0  0  0  0  0  0  0  0  0  0
   47.3790   34.7400   42.8330 H   0  0  0  0  0  0  0  0  0  0  0  0
   45.2250   34.9570   43.4050 S   0  0  0  0  0  0  0  0  0  0  0  0
   45.2220   36.4400   43.2660 O   0  0  0  0  0  0  0  0  0  0  0  0
   44.5290   36.9960   42.8400 H   0  0  0  0  0  0  0  0  0  0  0  0
   43.9480   34.3680   42.8240 O   0  0  0  0  0  0  0  0  0  0  0  0
   43.4970   33.5360   43.1200 H   0  0  0  0  0  0  0  0  0  0  0  0
   45.3060   34.4770   44.9970 O   0  0  0  0  0  0  0  0  0  0  0  0
   44.5250   35.2830   45.8200 C   0  0  0  0  0  0  0  0  0  0  0  0
   45.1410   36.1400   46.1390 H   0  0  0  0  0  0  0  0  0  0  0  0
   44.2530   34.7120   46.7500 H   0  0  0  0  0  0  0  0  0  0  0  0
   43.6150   35.6180   45.2540 H   0  0  0  0  0  0  0  0  0  0  0  0
  1 18  1  0  0  0  0
  2  8  1  0  0  0  0
  2  3  1  0  0  0  0
  3  1  1  0  0  0  0
  4  3  2  0  0  0  0
  4  9  1  0  0  0  0
  5  4  1  0  0  0  0
  6  7  1  0  0  0  0
  6  5  2  0  0  0  0
  7  2  2  0  0  0  0
 10  6  1  1  0  0  0
 11 13  1  0  0  0  0
 11 12  1  0  0  0  0
 11 10  1  0  0  0  0
 13 15  1  0  0  0  0
 13 14  1  0  0  0  0
 16 10  1  0  0  0  0
 16 15  1  0  0  0  0
 17 16  1  0  0  0  0
 18 21  1  0  0  0  0
 19 18  1  0  0  0  0
 20 18  1  0  0  0  0
 21 22  1  0  0  0  0
 21 23  1  0  0  0  0
 23 28  1  0  0  0  0
 24 23  1  0  0  0  0
 25 24  1  0  0  0  0
 26 27  1  0  0  0  0
 26 23  1  0  0  0  0
 28 29  1  0  0  0  0
 29 30  1  0  0  0  0
 29 31  1  0  0  0  0
 32 29  1  0  0  0  0
M  END
>  <minimizedAffinity>
-3.92130256

>  <minimizedRMSD>
8.49257565

$$$$
