
 OpenBabel03252508093D

 43 46  0  0  1  0  0  0  0  0999 V2000
   42.3640   29.1190   41.0920 C   0  0  0  0  0  0  0  0  0  0  0  0
   41.0060   28.8750   41.2290 C   0  0  0  0  0  0  0  0  0  0  0  0
   40.5350   28.2180   42.3380 C   0  0  0  0  0  0  0  0  0  0  0  0
   41.4690   27.8310   43.2780 N   0  0  0  0  0  0  0  0  0  0  0  0
   42.7720   28.0680   43.1410 C   0  0  0  0  0  0  0  0  0  0  0  0
   43.2050   28.7150   42.0390 N   0  0  0  0  0  0  0  0  0  0  0  0
   42.7350   29.6360   40.2180 H   0  0  0  0  0  0  0  0  0  0  0  0
   43.4600   27.7420   43.9090 H   0  0  0  0  0  0  0  0  0  0  0  0
   39.1890   27.8930   42.6260 C   0  0  0  0  0  0  0  0  0  0  0  0
   38.3200   28.7250   43.3390 C   0  0  0  0  0  0  0  0  0  0  0  0
   37.0350   28.3860   43.6780 C   0  0  0  0  0  0  0  0  0  0  0  0
   36.5350   27.1580   43.3100 C   0  0  0  0  0  0  0  0  0  0  0  0
   37.4030   26.2910   42.5790 C   0  0  0  0  0  0  0  0  0  0  0  0
   36.9170   25.0710   42.2100 C   0  0  0  0  0  0  0  0  0  0  0  0
   37.7040   24.1880   41.5010 C   0  0  0  0  0  0  0  0  0  0  0  0
   39.0160   24.5580   41.1580 C   0  0  0  0  0  0  0  0  0  0  0  0
   39.4690   25.8250   41.5630 C   0  0  0  0  0  0  0  0  0  0  0  0
   38.6660   26.6780   42.2700 C   0  0  0  0  0  0  0  0  0  0  0  0
   38.6970   29.6980   43.6390 H   0  0  0  0  0  0  0  0  0  0  0  0
   36.4320   29.1040   44.2360 H   0  0  0  0  0  0  0  0  0  0  0  0
   35.5280   26.8560   43.5600 H   0  0  0  0  0  0  0  0  0  0  0  0
   35.8920   24.7690   42.4710 H   0  0  0  0  0  0  0  0  0  0  0  0
   37.2670   23.2350   41.2360 H   0  0  0  0  0  0  0  0  0  0  0  0
   39.5400   23.8080   40.6100 H   0  0  0  0  0  0  0  0  0  0  0  0
   40.4670   25.9270   41.1940 H   0  0  0  0  0  0  0  0  0  0  0  0
   40.1870   29.3170   40.2260 O   0  0  0  0  0  0  0  0  0  0  0  0
   39.8150   31.6460   41.3650 O   0  0  0  0  0  0  0  0  0  0  0  0
   39.3440   30.7850   40.2480 P   0  0  1  0  0  0  0  0  0  0  0  0
   39.6060   31.6520   38.8160 O   0  0  0  0  0  0  0  0  0  0  0  0
   40.9500   32.0700   38.8940 C   0  0  2  0  0  3  0  0  0  0  0  0
   41.0530   33.5700   38.6810 C   0  0  0  0  0  3  0  0  0  0  0  0
   40.1350   34.0030   38.2170 H   0  0  0  0  0  0  0  0  0  0  0  0
   42.2210   33.6480   37.7060 C   0  0  0  0  0  3  0  0  0  0  0  0
   43.1300   33.6230   38.3360 H   0  0  0  0  0  0  0  0  0  0  0  0
   42.0340   32.5110   36.9380 O   0  0  0  0  0  0  0  0  0  0  0  0
   41.8260   31.4800   37.8440 C   0  0  0  0  0  3  0  0  0  0  0  0
   42.8330   31.2890   38.3190 H   0  0  0  0  0  0  0  0  0  0  0  0
   37.7060   30.4490   40.3850 O   0  0  0  0  0  0  0  0  0  0  0  0
   36.6970   31.3480   40.6910 C   0  0  0  0  0  0  0  0  0  0  0  0
   35.7700   30.6440   41.1350 O   0  0  0  0  0  0  0  0  0  0  0  0
   37.1010   32.6970   40.3850 N   0  0  0  0  0  0  0  0  0  0  0  0
   37.8790   33.1050   40.9780 H   0  0  0  0  0  0  0  0  0  0  0  0
   36.7240   33.3460   39.6410 H   0  0  0  0  0  0  0  0  0  0  0  0
  1  2  2  0  0  0  0
  1  6  1  0  0  0  0
  2  3  1  0  0  0  0
  3  9  1  0  0  0  0
  3  4  2  0  0  0  0
  5  4  1  0  0  0  0
  5  8  1  0  0  0  0
  6  5  2  0  0  0  0
  7  1  1  0  0  0  0
  9 10  1  0  0  0  0
 10 19  1  0  0  0  0
 10 11  2  0  0  0  0
 11 20  1  0  0  0  0
 12 21  1  0  0  0  0
 12 11  1  0  0  0  0
 13 12  2  0  0  0  0
 14 22  1  0  0  0  0
 14 13  1  0  0  0  0
 15 14  2  0  0  0  0
 16 15  1  0  0  0  0
 16 17  2  0  0  0  0
 17 18  1  0  0  0  0
 18 13  1  0  0  0  0
 18  9  2  0  0  0  0
 23 15  1  0  0  0  0
 24 16  1  0  0  0  0
 25 17  1  0  0  0  0
 26 28  1  0  0  0  0
 26  2  1  0  0  0  0
 28 38  1  0  0  0  0
 28 27  2  1  0  0  0
 29 28  1  0  0  0  0
 30 29  1  6  0  0  0
 31 30  1  0  0  0  0
 32 31  1  0  0  0  0
 33 34  1  0  0  0  0
 33 31  1  0  0  0  0
 35 33  1  0  0  0  0
 35 36  1  0  0  0  0
 36 37  1  0  0  0  0
 36 30  1  0  0  0  0
 38 39  1  0  0  0  0
 39 40  2  0  0  0  0
 41 39  1  0  0  0  0
 41 42  1  0  0  0  0
 43 41  1  0  0  0  0
M  END
>  <minimizedAffinity>
-6.09233522

$$$$

 OpenBabel03252508093D

 43 46  0  0  1  0  0  0  0  0999 V2000
   37.3530   29.8870   37.6430 C   0  0  0  0  0  0  0  0  0  0  0  0
   37.5760   29.2370   38.8480 C   0  0  0  0  0  0  0  0  0  0  0  0
   36.5790   28.4840   39.4160 C   0  0  0  0  0  0  0  0  0  0  0  0
   35.3810   28.4160   38.7320 N   0  0  0  0  0  0  0  0  0  0  0  0
   35.1730   29.0420   37.5760 C   0  0  0  0  0  0  0  0  0  0  0  0
   36.1720   29.7760   37.0430 N   0  0  0  0  0  0  0  0  0  0  0  0
   38.1380   30.4800   37.1960 H   0  0  0  0  0  0  0  0  0  0  0  0
   34.2140   28.9540   37.0840 H   0  0  0  0  0  0  0  0  0  0  0  0
   36.6440   27.7650   40.6320 C   0  0  0  0  0  0  0  0  0  0  0  0
   36.4800   28.3450   41.8930 C   0  0  0  0  0  0  0  0  0  0  0  0
   36.6090   27.6640   43.0760 C   0  0  0  0  0  0  0  0  0  0  0  0
   36.9180   26.3230   43.0610 C   0  0  0  0  0  0  0  0  0  0  0  0
   37.0890   25.7070   41.7840 C   0  0  0  0  0  0  0  0  0  0  0  0
   37.3970   24.3780   41.7580 C   0  0  0  0  0  0  0  0  0  0  0  0
   37.5720   23.7230   40.5560 C   0  0  0  0  0  0  0  0  0  0  0  0
   37.4300   24.4380   39.3550 C   0  0  0  0  0  0  0  0  0  0  0  0
   37.1130   25.8050   39.4370 C   0  0  0  0  0  0  0  0  0  0  0  0
   36.9490   26.4290   40.6440 C   0  0  0  0  0  0  0  0  0  0  0  0
   36.2360   29.4030   41.9260 H   0  0  0  0  0  0  0  0  0  0  0  0
   36.4610   28.2050   44.0130 H   0  0  0  0  0  0  0  0  0  0  0  0
   37.0290   25.7540   43.9730 H   0  0  0  0  0  0  0  0  0  0  0  0
   37.5100   23.8060   42.6900 H   0  0  0  0  0  0  0  0  0  0  0  0
   37.8160   22.6700   40.5960 H   0  0  0  0  0  0  0  0  0  0  0  0
   37.5830   23.8430   38.4840 H   0  0  0  0  0  0  0  0  0  0  0  0
   37.0270   26.1610   38.4320 H   0  0  0  0  0  0  0  0  0  0  0  0
   38.8110   29.3830   39.4180 O   0  0  0  0  0  0  0  0  0  0  0  0
   39.6300   30.0720   41.8080 O   0  0  0  0  0  0  0  0  0  0  0  0
   39.2370   30.6260   40.4860 P   0  0  1  0  0  0  0  0  0  0  0  0
   40.5700   31.4920   39.8990 O   0  0  0  0  0  0  0  0  0  0  0  0
   40.7190   31.0550   38.5670 C   0  0  2  0  0  3  0  0  0  0  0  0
   42.1640   30.6800   38.2910 C   0  0  0  0  0  3  0  0  0  0  0  0
   42.8690   31.0870   39.0540 H   0  0  0  0  0  0  0  0  0  0  0  0
   42.3920   31.3610   36.9480 C   0  0  0  0  0  3  0  0  0  0  0  0
   42.0090   30.6510   36.1900 H   0  0  0  0  0  0  0  0  0  0  0  0
   41.6370   32.5150   37.0740 O   0  0  0  0  0  0  0  0  0  0  0  0
   40.4020   32.0980   37.5520 C   0  0  0  0  0  3  0  0  0  0  0  0
   39.9030   31.5770   36.6840 H   0  0  0  0  0  0  0  0  0  0  0  0
   37.9310   31.6710   40.6240 O   0  0  0  0  0  0  0  0  0  0  0  0
   37.9010   33.0110   40.2740 C   0  0  0  0  0  0  0  0  0  0  0  0
   37.1440   33.0640   39.2870 O   0  0  0  0  0  0  0  0  0  0  0  0
   38.7290   33.7910   41.1590 N   0  0  0  0  0  0  0  0  0  0  0  0
   38.4060   33.8700   42.1660 H   0  0  0  0  0  0  0  0  0  0  0  0
   39.6280   34.3030   40.9410 H   0  0  0  0  0  0  0  0  0  0  0  0
  1  2  1  0  0  0  0
  2  3  2  0  0  0  0
  2 26  1  0  0  0  0
  3  9  1  0  0  0  0
  4  3  1  0  0  0  0
  5  4  2  0  0  0  0
  6  5  1  0  0  0  0
  6  1  2  0  0  0  0
  7  1  1  0  0  0  0
  8  5  1  0  0  0  0
  9 18  2  0  0  0  0
  9 10  1  0  0  0  0
 10 19  1  0  0  0  0
 10 11  2  0  0  0  0
 11 20  1  0  0  0  0
 12 11  1  0  0  0  0
 12 21  1  0  0  0  0
 13 12  2  0  0  0  0
 14 13  1  0  0  0  0
 14 22  1  0  0  0  0
 15 23  1  0  0  0  0
 15 14  2  0  0  0  0
 16 17  2  0  0  0  0
 16 15  1  0  0  0  0
 17 18  1  0  0  0  0
 18 13  1  0  0  0  0
 24 16  1  0  0  0  0
 25 17  1  0  0  0  0
 26 28  1  0  0  0  0
 28 38  1  0  0  0  0
 28 27  2  1  0  0  0
 29 28  1  0  0  0  0
 30 29  1  1  0  0  0
 31 30  1  0  0  0  0
 31 32  1  0  0  0  0
 33 35  1  0  0  0  0
 33 31  1  0  0  0  0
 34 33  1  0  0  0  0
 35 36  1  0  0  0  0
 36 30  1  0  0  0  0
 37 36  1  0  0  0  0
 39 38  1  0  0  0  0
 39 41  1  0  0  0  0
 40 39  2  0  0  0  0
 41 42  1  0  0  0  0
 43 41  1  0  0  0  0
M  END
>  <minimizedAffinity>
-5.98664808

$$$$

 OpenBabel03252508093D

 43 46  0  0  1  0  0  0  0  0999 V2000
   41.7880   29.5710   40.3290 C   0  0  0  0  0  0  0  0  0  0  0  0
   40.5010   29.3550   40.7990 C   0  0  0  0  0  0  0  0  0  0  0  0
   40.2410   28.2900   41.6250 C   0  0  0  0  0  0  0  0  0  0  0  0
   41.3090   27.4770   41.9500 N   0  0  0  0  0  0  0  0  0  0  0  0
   42.5420   27.6890   41.4960 C   0  0  0  0  0  0  0  0  0  0  0  0
   42.7660   28.7430   40.6840 N   0  0  0  0  0  0  0  0  0  0  0  0
   41.9920   30.4090   39.6780 H   0  0  0  0  0  0  0  0  0  0  0  0
   43.3420   27.0190   41.7830 H   0  0  0  0  0  0  0  0  0  0  0  0
   38.9930   27.9330   42.1850 C   0  0  0  0  0  0  0  0  0  0  0  0
   38.2810   28.7350   43.0830 C   0  0  0  0  0  0  0  0  0  0  0  0
   37.1030   28.3640   43.6790 C   0  0  0  0  0  0  0  0  0  0  0  0
   36.5560   27.1330   43.4000 C   0  0  0  0  0  0  0  0  0  0  0  0
   37.2640   26.2960   42.4840 C   0  0  0  0  0  0  0  0  0  0  0  0
   36.7300   25.0730   42.2010 C   0  0  0  0  0  0  0  0  0  0  0  0
   37.3630   24.2180   41.3230 C   0  0  0  0  0  0  0  0  0  0  0  0
   38.5660   24.6200   40.7170 C   0  0  0  0  0  0  0  0  0  0  0  0
   39.0740   25.8900   41.0430 C   0  0  0  0  0  0  0  0  0  0  0  0
   38.4260   26.7140   41.9220 C   0  0  0  0  0  0  0  0  0  0  0  0
   38.6980   29.7100   43.3160 H   0  0  0  0  0  0  0  0  0  0  0  0
   36.6210   29.0600   44.3680 H   0  0  0  0  0  0  0  0  0  0  0  0
   35.6310   26.8060   43.8520 H   0  0  0  0  0  0  0  0  0  0  0  0
   35.7890   24.7460   42.6660 H   0  0  0  0  0  0  0  0  0  0  0  0
   36.8950   23.2610   41.1370 H   0  0  0  0  0  0  0  0  0  0  0  0
   38.9740   23.8910   40.0550 H   0  0  0  0  0  0  0  0  0  0  0  0
   39.9690   26.0170   40.4730 H   0  0  0  0  0  0  0  0  0  0  0  0
   39.5350   30.2400   40.4050 O   0  0  0  0  0  0  0  0  0  0  0  0
   39.2700   30.6200   37.8270 O   0  0  0  0  0  0  0  0  0  0  0  0
   38.5770   30.0660   39.0200 P   0  0  1  0  0  0  0  0  0  0  0  0
   38.2760   28.4290   38.6980 O   0  0  0  0  0  0  0  0  0  0  0  0
   36.9170   28.3850   38.3270 C   0  0  2  0  0  3  0  0  0  0  0  0
   36.2040   27.2580   39.0540 C   0  0  0  0  0  3  0  0  0  0  0  0
   36.9110   26.5130   39.4910 H   0  0  0  0  0  0  0  0  0  0  0  0
   35.4140   26.6280   37.9140 C   0  0  0  0  0  3  0  0  0  0  0  0
   34.4890   27.2290   37.8320 H   0  0  0  0  0  0  0  0  0  0  0  0
   36.2800   26.7740   36.8440 O   0  0  0  0  0  0  0  0  0  0  0  0
   36.6970   28.0980   36.8820 C   0  0  0  0  0  3  0  0  0  0  0  0
   35.8030   28.7040   36.5540 H   0  0  0  0  0  0  0  0  0  0  0  0
   37.1140   30.8410   39.2920 O   0  0  0  0  0  0  0  0  0  0  0  0
   36.7520   31.5570   40.4220 C   0  0  0  0  0  0  0  0  0  0  0  0
   37.3950   32.6200   40.3420 O   0  0  0  0  0  0  0  0  0  0  0  0
   35.8070   30.8160   41.2180 N   0  0  0  0  0  0  0  0  0  0  0  0
   34.8460   30.6650   40.7960 H   0  0  0  0  0  0  0  0  0  0  0  0
   35.9410   30.3950   42.1790 H   0  0  0  0  0  0  0  0  0  0  0  0
  1  6  2  0  0  0  0
  1  2  1  0  0  0  0
  2  3  2  0  0  0  0
  3  4  1  0  0  0  0
  3  9  1  0  0  0  0
  5  8  1  0  0  0  0
  5  4  2  0  0  0  0
  6  5  1  0  0  0  0
  7  1  1  0  0  0  0
  9 10  1  0  0  0  0
 10 19  1  0  0  0  0
 10 11  2  0  0  0  0
 11 20  1  0  0  0  0
 12 11  1  0  0  0  0
 12 21  1  0  0  0  0
 13 12  2  0  0  0  0
 14 13  1  0  0  0  0
 14 22  1  0  0  0  0
 15 14  2  0  0  0  0
 16 17  2  0  0  0  0
 16 15  1  0  0  0  0
 17 18  1  0  0  0  0
 18  9  2  0  0  0  0
 18 13  1  0  0  0  0
 23 15  1  0  0  0  0
 24 16  1  0  0  0  0
 25 17  1  0  0  0  0
 26  2  1  0  0  0  0
 28 27  2  6  0  0  0
 28 38  1  0  0  0  0
 28 26  1  0  0  0  0
 29 28  1  0  0  0  0
 30 29  1  6  0  0  0
 30 31  1  0  0  0  0
 31 32  1  0  0  0  0
 33 31  1  0  0  0  0
 34 33  1  0  0  0  0
 35 36  1  0  0  0  0
 35 33  1  0  0  0  0
 36 30  1  0  0  0  0
 37 36  1  0  0  0  0
 38 39  1  0  0  0  0
 39 41  1  0  0  0  0
 40 39  2  0  0  0  0
 41 43  1  0  0  0  0
 42 41  1  0  0  0  0
M  END
>  <minimizedAffinity>
-5.76299477

$$$$

 OpenBabel03252508093D

 43 46  0  0  1  0  0  0  0  0999 V2000
   37.3430   29.3270   36.9820 C   0  0  0  0  0  0  0  0  0  0  0  0
   37.6330   28.8490   38.2520 C   0  0  0  0  0  0  0  0  0  0  0  0
   36.6150   28.5690   39.1290 C   0  0  0  0  0  0  0  0  0  0  0  0
   35.3270   28.7830   38.6800 N   0  0  0  0  0  0  0  0  0  0  0  0
   35.0540   29.2410   37.4610 C   0  0  0  0  0  0  0  0  0  0  0  0
   36.0760   29.5090   36.6210 N   0  0  0  0  0  0  0  0  0  0  0  0
   38.1440   29.5480   36.2920 H   0  0  0  0  0  0  0  0  0  0  0  0
   34.0260   29.3900   37.1620 H   0  0  0  0  0  0  0  0  0  0  0  0
   36.7420   28.0810   40.4500 C   0  0  0  0  0  0  0  0  0  0  0  0
   36.8560   28.8980   41.5780 C   0  0  0  0  0  0  0  0  0  0  0  0
   37.0460   28.4300   42.8530 C   0  0  0  0  0  0  0  0  0  0  0  0
   37.1340   27.0750   43.0750 C   0  0  0  0  0  0  0  0  0  0  0  0
   37.0180   26.2180   41.9380 C   0  0  0  0  0  0  0  0  0  0  0  0
   37.1040   24.8720   42.1470 C   0  0  0  0  0  0  0  0  0  0  0  0
   36.9970   23.9910   41.0920 C   0  0  0  0  0  0  0  0  0  0  0  0
   36.7970   24.4920   39.7940 C   0  0  0  0  0  0  0  0  0  0  0  0
   36.7160   25.8860   39.6320 C   0  0  0  0  0  0  0  0  0  0  0  0
   36.8300   26.7360   40.6990 C   0  0  0  0  0  0  0  0  0  0  0  0
   36.7910   29.9710   41.4240 H   0  0  0  0  0  0  0  0  0  0  0  0
   37.1240   29.1480   43.6720 H   0  0  0  0  0  0  0  0  0  0  0  0
   37.2840   26.6690   44.0650 H   0  0  0  0  0  0  0  0  0  0  0  0
   37.2600   24.4660   43.1570 H   0  0  0  0  0  0  0  0  0  0  0  0
   37.0740   22.9360   41.3160 H   0  0  0  0  0  0  0  0  0  0  0  0
   36.7260   23.7320   39.0500 H   0  0  0  0  0  0  0  0  0  0  0  0
   36.5430   26.0650   38.5930 H   0  0  0  0  0  0  0  0  0  0  0  0
   38.9530   28.6770   38.5680 O   0  0  0  0  0  0  0  0  0  0  0  0
   39.2380   31.0030   39.7380 O   0  0  0  0  0  0  0  0  0  0  0  0
   39.9950   29.9170   39.0610 P   0  0  1  0  0  0  0  0  0  0  0  0
   41.1320   29.3400   40.1770 O   0  0  0  0  0  0  0  0  0  0  0  0
   40.3690   28.6280   41.1250 C   0  0  2  0  0  3  0  0  0  0  0  0
   40.6810   29.1130   42.5300 C   0  0  0  0  0  3  0  0  0  0  0  0
   41.6310   29.6970   42.5830 H   0  0  0  0  0  0  0  0  0  0  0  0
   40.8350   27.7910   43.2690 C   0  0  0  0  0  3  0  0  0  0  0  0
   39.8070   27.4890   43.5460 H   0  0  0  0  0  0  0  0  0  0  0  0
   41.4200   26.9850   42.3060 O   0  0  0  0  0  0  0  0  0  0  0  0
   40.6610   27.1680   41.1590 C   0  0  0  0  0  3  0  0  0  0  0  0
   39.6840   26.6380   41.3560 H   0  0  0  0  0  0  0  0  0  0  0  0
   40.8070   30.4890   37.7080 O   0  0  0  0  0  0  0  0  0  0  0  0
   40.8650   31.8020   37.2690 C   0  0  0  0  0  0  0  0  0  0  0  0
   42.0660   32.1170   37.3690 O   0  0  0  0  0  0  0  0  0  0  0  0
   39.5580   32.2720   36.8840 N   0  0  0  0  0  0  0  0  0  0  0  0
   39.1260   31.8240   36.0260 H   0  0  0  0  0  0  0  0  0  0  0  0
   38.9610   33.0130   37.3450 H   0  0  0  0  0  0  0  0  0  0  0  0
  1  2  1  0  0  0  0
  2 26  1  0  0  0  0
  2  3  2  0  0  0  0
  3  9  1  0  0  0  0
  4  3  1  0  0  0  0
  5  4  2  0  0  0  0
  6  1  2  0  0  0  0
  6  5  1  0  0  0  0
  7  1  1  0  0  0  0
  8  5  1  0  0  0  0
  9 18  2  0  0  0  0
  9 10  1  0  0  0  0
 10 11  2  0  0  0  0
 11 12  1  0  0  0  0
 11 20  1  0  0  0  0
 12 21  1  0  0  0  0
 13 14  1  0  0  0  0
 13 12  2  0  0  0  0
 14 22  1  0  0  0  0
 15 23  1  0  0  0  0
 15 14  2  0  0  0  0
 16 15  1  0  0  0  0
 17 16  2  0  0  0  0
 17 18  1  0  0  0  0
 18 13  1  0  0  0  0
 19 10  1  0  0  0  0
 24 16  1  0  0  0  0
 25 17  1  0  0  0  0
 26 28  1  0  0  0  0
 28 27  2  1  0  0  0
 28 29  1  0  0  0  0
 30 29  1  6  0  0  0
 30 36  1  0  0  0  0
 30 31  1  0  0  0  0
 31 32  1  0  0  0  0
 31 33  1  0  0  0  0
 33 34  1  0  0  0  0
 35 33  1  0  0  0  0
 36 37  1  0  0  0  0
 36 35  1  0  0  0  0
 38 28  1  0  0  0  0
 39 40  2  0  0  0  0
 39 38  1  0  0  0  0
 41 39  1  0  0  0  0
 41 43  1  0  0  0  0
 42 41  1  0  0  0  0
M  END
>  <minimizedAffinity>
-5.74131346

$$$$

 OpenBabel03252508093D

 43 46  0  0  1  0  0  0  0  0999 V2000
   36.8710   29.9220   37.4330 C   0  0  0  0  0  0  0  0  0  0  0  0
   37.1810   29.3920   38.6760 C   0  0  0  0  0  0  0  0  0  0  0  0
   36.4080   28.3900   39.2080 C   0  0  0  0  0  0  0  0  0  0  0  0
   35.3390   27.9570   38.4490 N   0  0  0  0  0  0  0  0  0  0  0  0
   35.0460   28.4690   37.2560 C   0  0  0  0  0  0  0  0  0  0  0  0
   35.8240   29.4540   36.7600 N   0  0  0  0  0  0  0  0  0  0  0  0
   37.4790   30.7110   37.0150 H   0  0  0  0  0  0  0  0  0  0  0  0
   34.1960   28.0910   36.7040 H   0  0  0  0  0  0  0  0  0  0  0  0
   36.5880   27.7480   40.4550 C   0  0  0  0  0  0  0  0  0  0  0  0
   36.2210   28.3080   41.6820 C   0  0  0  0  0  0  0  0  0  0  0  0
   36.4550   27.7180   42.8980 C   0  0  0  0  0  0  0  0  0  0  0  0
   37.0870   26.4970   42.9530 C   0  0  0  0  0  0  0  0  0  0  0  0
   37.4700   25.9030   41.7110 C   0  0  0  0  0  0  0  0  0  0  0  0
   38.0980   24.6930   41.7550 C   0  0  0  0  0  0  0  0  0  0  0  0
   38.4910   24.0650   40.5910 C   0  0  0  0  0  0  0  0  0  0  0  0
   38.2360   24.6850   39.3550 C   0  0  0  0  0  0  0  0  0  0  0  0
   37.5870   25.9310   39.3660 C   0  0  0  0  0  0  0  0  0  0  0  0
   37.2130   26.5320   40.5370 C   0  0  0  0  0  0  0  0  0  0  0  0
   35.7220   29.2720   41.6600 H   0  0  0  0  0  0  0  0  0  0  0  0
   36.1310   28.2340   43.8040 H   0  0  0  0  0  0  0  0  0  0  0  0
   37.2890   26.0020   43.8920 H   0  0  0  0  0  0  0  0  0  0  0  0
   38.3020   24.1960   42.7140 H   0  0  0  0  0  0  0  0  0  0  0  0
   38.9850   23.1080   40.6850 H   0  0  0  0  0  0  0  0  0  0  0  0
   38.5770   24.1200   38.5170 H   0  0  0  0  0  0  0  0  0  0  0  0
   37.4670   26.2230   38.3440 H   0  0  0  0  0  0  0  0  0  0  0  0
   38.2710   29.9080   39.3210 O   0  0  0  0  0  0  0  0  0  0  0  0
   36.8460   31.7080   40.5810 O   0  0  0  0  0  0  0  0  0  0  0  0
   38.2440   31.2840   40.3080 P   0  0  1  0  0  0  0  0  0  0  0  0
   38.9630   30.9620   41.8090 O   0  0  0  0  0  0  0  0  0  0  0  0
   39.9950   30.0460   41.5190 C   0  0  2  0  0  3  0  0  0  0  0  0
   39.9600   28.8830   42.4940 C   0  0  0  0  0  3  0  0  0  0  0  0
   39.3550   29.1030   43.4060 H   0  0  0  0  0  0  0  0  0  0  0  0
   41.4340   28.7630   42.8590 C   0  0  0  0  0  3  0  0  0  0  0  0
   41.8840   28.1450   42.0580 H   0  0  0  0  0  0  0  0  0  0  0  0
   41.8450   30.0860   42.8510 O   0  0  0  0  0  0  0  0  0  0  0  0
   41.3630   30.6160   41.6620 C   0  0  0  0  0  3  0  0  0  0  0  0
   42.0000   30.1610   40.8490 H   0  0  0  0  0  0  0  0  0  0  0  0
   39.1130   32.4980   39.5410 O   0  0  0  0  0  0  0  0  0  0  0  0
   39.5530   33.6850   40.1040 C   0  0  0  0  0  0  0  0  0  0  0  0
   40.4750   34.0660   39.3590 O   0  0  0  0  0  0  0  0  0  0  0  0
   38.7980   34.0020   41.2900 N   0  0  0  0  0  0  0  0  0  0  0  0
   37.7760   34.2470   41.1510 H   0  0  0  0  0  0  0  0  0  0  0  0
   39.1260   34.0230   42.2950 H   0  0  0  0  0  0  0  0  0  0  0  0
  1  2  1  0  0  0  0
  2  3  2  0  0  0  0
  2 26  1  0  0  0  0
  3  9  1  0  0  0  0
  4  3  1  0  0  0  0
  5  4  2  0  0  0  0
  6  5  1  0  0  0  0
  6  1  2  0  0  0  0
  7  1  1  0  0  0  0
  8  5  1  0  0  0  0
  9 18  2  0  0  0  0
  9 10  1  0  0  0  0
 10 11  2  0  0  0  0
 11 12  1  0  0  0  0
 11 20  1  0  0  0  0
 12 21  1  0  0  0  0
 13 14  1  0  0  0  0
 13 12  2  0  0  0  0
 14 22  1  0  0  0  0
 15 23  1  0  0  0  0
 15 14  2  0  0  0  0
 16 17  2  0  0  0  0
 16 15  1  0  0  0  0
 17 18  1  0  0  0  0
 18 13  1  0  0  0  0
 19 10  1  0  0  0  0
 24 16  1  0  0  0  0
 25 17  1  0  0  0  0
 26 28  1  0  0  0  0
 28 27  2  1  0  0  0
 28 29  1  0  0  0  0
 30 36  1  0  0  0  0
 30 29  1  1  0  0  0
 30 31  1  0  0  0  0
 31 33  1  0  0  0  0
 31 32  1  0  0  0  0
 34 33  1  0  0  0  0
 35 33  1  0  0  0  0
 36 35  1  0  0  0  0
 37 36  1  0  0  0  0
 38 39  1  0  0  0  0
 38 28  1  0  0  0  0
 39 41  1  0  0  0  0
 40 39  2  0  0  0  0
 41 43  1  0  0  0  0
 42 41  1  0  0  0  0
M  END
>  <minimizedAffinity>
-5.71976614

$$$$

 OpenBabel03252508093D

 43 46  0  0  1  0  0  0  0  0999 V2000
   40.2430   28.7130   37.9450 C   0  0  0  0  0  0  0  0  0  0  0  0
   39.2720   28.5260   38.9180 C   0  0  0  0  0  0  0  0  0  0  0  0
   39.6410   28.2560   40.2130 C   0  0  0  0  0  0  0  0  0  0  0  0
   40.9950   28.1880   40.4750 N   0  0  0  0  0  0  0  0  0  0  0  0
   41.9220   28.3680   39.5370 C   0  0  0  0  0  0  0  0  0  0  0  0
   41.5280   28.6310   38.2730 N   0  0  0  0  0  0  0  0  0  0  0  0
   39.9520   28.9250   36.9260 H   0  0  0  0  0  0  0  0  0  0  0  0
   42.9690   28.3030   39.7990 H   0  0  0  0  0  0  0  0  0  0  0  0
   38.7810   28.0410   41.3140 C   0  0  0  0  0  0  0  0  0  0  0  0
   38.5630   28.9750   42.3300 C   0  0  0  0  0  0  0  0  0  0  0  0
   37.7820   28.7460   43.4340 C   0  0  0  0  0  0  0  0  0  0  0  0
   37.1560   27.5290   43.5850 C   0  0  0  0  0  0  0  0  0  0  0  0
   37.3610   26.5580   42.5580 C   0  0  0  0  0  0  0  0  0  0  0  0
   36.7450   25.3480   42.6980 C   0  0  0  0  0  0  0  0  0  0  0  0
   36.9010   24.3680   41.7400 C   0  0  0  0  0  0  0  0  0  0  0  0
   37.7010   24.6260   40.6140 C   0  0  0  0  0  0  0  0  0  0  0  0
   38.3140   25.8880   40.5180 C   0  0  0  0  0  0  0  0  0  0  0  0
   38.1440   26.8390   41.4860 C   0  0  0  0  0  0  0  0  0  0  0  0
   39.0490   29.9420   42.2300 H   0  0  0  0  0  0  0  0  0  0  0  0
   37.6720   29.5390   44.1750 H   0  0  0  0  0  0  0  0  0  0  0  0
   36.5340   27.3120   44.4410 H   0  0  0  0  0  0  0  0  0  0  0  0
   36.1160   25.1330   43.5740 H   0  0  0  0  0  0  0  0  0  0  0  0
   36.3910   23.4290   41.9040 H   0  0  0  0  0  0  0  0  0  0  0  0
   37.7560   23.8070   39.9340 H   0  0  0  0  0  0  0  0  0  0  0  0
   38.8530   25.8970   39.5950 H   0  0  0  0  0  0  0  0  0  0  0  0
   37.9660   28.6260   38.5250 O   0  0  0  0  0  0  0  0  0  0  0  0
   37.9540   31.2310   38.7940 O   0  0  0  0  0  0  0  0  0  0  0  0
   37.1280   30.0850   38.3330 P   0  0  1  0  0  0  0  0  0  0  0  0
   36.7680   30.3620   36.7010 O   0  0  0  0  0  0  0  0  0  0  0  0
   36.3290   29.1130   36.2170 C   0  0  2  0  0  3  0  0  0  0  0  0
   36.8930   28.8530   34.8310 C   0  0  0  0  0  3  0  0  0  0  0  0
   37.2790   29.7790   34.3420 H   0  0  0  0  0  0  0  0  0  0  0  0
   35.6540   28.3500   34.1010 C   0  0  0  0  0  3  0  0  0  0  0  0
   35.5940   27.2710   34.3350 H   0  0  0  0  0  0  0  0  0  0  0  0
   34.6490   29.1110   34.6750 O   0  0  0  0  0  0  0  0  0  0  0  0
   34.8520   29.0200   36.0450 C   0  0  0  0  0  3  0  0  0  0  0  0
   34.5500   27.9690   36.3250 H   0  0  0  0  0  0  0  0  0  0  0  0
   35.6900   29.9820   39.1930 O   0  0  0  0  0  0  0  0  0  0  0  0
   35.5520   29.8480   40.5650 C   0  0  0  0  0  0  0  0  0  0  0  0
   35.2300   28.6580   40.7360 O   0  0  0  0  0  0  0  0  0  0  0  0
   35.8230   31.0960   41.2330 N   0  0  0  0  0  0  0  0  0  0  0  0
   36.8240   31.4470   41.1950 H   0  0  0  0  0  0  0  0  0  0  0  0
   35.1550   31.7210   41.7620 H   0  0  0  0  0  0  0  0  0  0  0  0
  1  6  2  0  0  0  0
  1  2  1  0  0  0  0
  2  3  2  0  0  0  0
  3  4  1  0  0  0  0
  3  9  1  0  0  0  0
  5  8  1  0  0  0  0
  5  4  2  0  0  0  0
  6  5  1  0  0  0  0
  7  1  1  0  0  0  0
  9 18  2  0  0  0  0
  9 10  1  0  0  0  0
 10 11  2  0  0  0  0
 11 12  1  0  0  0  0
 11 20  1  0  0  0  0
 12 21  1  0  0  0  0
 13 14  1  0  0  0  0
 13 12  2  0  0  0  0
 14 22  1  0  0  0  0
 15 23  1  0  0  0  0
 15 14  2  0  0  0  0
 16 15  1  0  0  0  0
 17 16  2  0  0  0  0
 17 18  1  0  0  0  0
 18 13  1  0  0  0  0
 19 10  1  0  0  0  0
 24 16  1  0  0  0  0
 25 17  1  0  0  0  0
 26  2  1  0  0  0  0
 28 26  1  0  0  0  0
 28 27  2  1  0  0  0
 28 38  1  0  0  0  0
 29 28  1  0  0  0  0
 30 29  1  6  0  0  0
 31 30  1  0  0  0  0
 32 31  1  0  0  0  0
 33 34  1  0  0  0  0
 33 35  1  0  0  0  0
 33 31  1  0  0  0  0
 35 36  1  0  0  0  0
 36 30  1  0  0  0  0
 36 37  1  0  0  0  0
 38 39  1  0  0  0  0
 39 40  2  0  0  0  0
 39 41  1  0  0  0  0
 41 43  1  0  0  0  0
 42 41  1  0  0  0  0
M  END
>  <minimizedAffinity>
-5.66233253

$$$$

 OpenBabel03252508093D

 43 46  0  0  1  0  0  0  0  0999 V2000
   36.4880   25.2330   38.3050 C   0  0  0  0  0  0  0  0  0  0  0  0
   36.5610   26.2070   39.2890 C   0  0  0  0  0  0  0  0  0  0  0  0
   37.3470   26.0080   40.3960 C   0  0  0  0  0  0  0  0  0  0  0  0
   38.0400   24.8150   40.4630 N   0  0  0  0  0  0  0  0  0  0  0  0
   37.9670   23.8840   39.5150 C   0  0  0  0  0  0  0  0  0  0  0  0
   37.1850   24.1080   38.4390 N   0  0  0  0  0  0  0  0  0  0  0  0
   35.8690   25.3910   37.4340 H   0  0  0  0  0  0  0  0  0  0  0  0
   38.5320   22.9670   39.6190 H   0  0  0  0  0  0  0  0  0  0  0  0
   37.5280   26.8950   41.4820 C   0  0  0  0  0  0  0  0  0  0  0  0
   36.7630   26.8650   42.6520 C   0  0  0  0  0  0  0  0  0  0  0  0
   36.8900   27.7660   43.6790 C   0  0  0  0  0  0  0  0  0  0  0  0
   37.8190   28.7760   43.5870 C   0  0  0  0  0  0  0  0  0  0  0  0
   38.6150   28.8270   42.4020 C   0  0  0  0  0  0  0  0  0  0  0  0
   39.5400   29.8250   42.3020 C   0  0  0  0  0  0  0  0  0  0  0  0
   40.3410   29.9280   41.1840 C   0  0  0  0  0  0  0  0  0  0  0  0
   40.1990   28.9910   40.1460 C   0  0  0  0  0  0  0  0  0  0  0  0
   39.2310   27.9830   40.2980 C   0  0  0  0  0  0  0  0  0  0  0  0
   38.4480   27.9090   41.4180 C   0  0  0  0  0  0  0  0  0  0  0  0
   36.0230   26.0750   42.7420 H   0  0  0  0  0  0  0  0  0  0  0  0
   36.2460   27.6600   44.5530 H   0  0  0  0  0  0  0  0  0  0  0  0
   37.9480   29.5040   44.3760 H   0  0  0  0  0  0  0  0  0  0  0  0
   39.6630   30.5640   43.1070 H   0  0  0  0  0  0  0  0  0  0  0  0
   41.0550   30.7400   41.1580 H   0  0  0  0  0  0  0  0  0  0  0  0
   40.8640   29.1570   39.3290 H   0  0  0  0  0  0  0  0  0  0  0  0
   39.2910   27.3670   39.4270 H   0  0  0  0  0  0  0  0  0  0  0  0
   35.8280   27.3460   39.0960 O   0  0  0  0  0  0  0  0  0  0  0  0
   35.1520   28.1000   36.6810 O   0  0  0  0  0  0  0  0  0  0  0  0
   36.0530   28.4310   37.8160 P   0  0  1  0  0  0  0  0  0  0  0  0
   35.6790   30.0130   38.2950 O   0  0  0  0  0  0  0  0  0  0  0  0
   36.8690   30.4990   38.8750 C   0  0  2  0  0  3  0  0  0  0  0  0
   36.6080   30.9930   40.2870 C   0  0  0  0  0  3  0  0  0  0  0  0
   35.5240   31.1630   40.4900 H   0  0  0  0  0  0  0  0  0  0  0  0
   37.3540   32.3210   40.2750 C   0  0  0  0  0  3  0  0  0  0  0  0
   38.4070   32.0670   40.5030 H   0  0  0  0  0  0  0  0  0  0  0  0
   37.1470   32.7590   38.9780 O   0  0  0  0  0  0  0  0  0  0  0  0
   37.4480   31.6730   38.1670 C   0  0  0  0  0  3  0  0  0  0  0  0
   38.5720   31.5680   38.2100 H   0  0  0  0  0  0  0  0  0  0  0  0
   37.6650   28.3720   37.3550 O   0  0  0  0  0  0  0  0  0  0  0  0
   38.1680   27.9050   36.1510 C   0  0  0  0  0  0  0  0  0  0  0  0
   39.0230   27.0590   36.4720 O   0  0  0  0  0  0  0  0  0  0  0  0
   37.5260   28.5600   35.0390 N   0  0  0  0  0  0  0  0  0  0  0  0
   36.4990   28.3460   34.8900 H   0  0  0  0  0  0  0  0  0  0  0  0
   37.9440   29.2350   34.3410 H   0  0  0  0  0  0  0  0  0  0  0  0
  1  6  2  0  0  0  0
  1  2  1  0  0  0  0
  2  3  2  0  0  0  0
  3  4  1  0  0  0  0
  3  9  1  0  0  0  0
  5  8  1  0  0  0  0
  5  4  2  0  0  0  0
  6  5  1  0  0  0  0
  7  1  1  0  0  0  0
  9 10  1  0  0  0  0
 10 19  1  0  0  0  0
 10 11  2  0  0  0  0
 11 20  1  0  0  0  0
 12 11  1  0  0  0  0
 12 21  1  0  0  0  0
 13 12  2  0  0  0  0
 14 13  1  0  0  0  0
 14 22  1  0  0  0  0
 15 14  2  0  0  0  0
 16 17  2  0  0  0  0
 16 15  1  0  0  0  0
 17 18  1  0  0  0  0
 18  9  2  0  0  0  0
 18 13  1  0  0  0  0
 23 15  1  0  0  0  0
 24 16  1  0  0  0  0
 25 17  1  0  0  0  0
 26  2  1  0  0  0  0
 28 27  2  6  0  0  0
 28 29  1  0  0  0  0
 28 26  1  0  0  0  0
 30 29  1  6  0  0  0
 30 31  1  0  0  0  0
 31 32  1  0  0  0  0
 33 31  1  0  0  0  0
 33 34  1  0  0  0  0
 35 33  1  0  0  0  0
 36 37  1  0  0  0  0
 36 30  1  0  0  0  0
 36 35  1  0  0  0  0
 38 28  1  0  0  0  0
 39 40  2  0  0  0  0
 39 38  1  0  0  0  0
 41 39  1  0  0  0  0
 42 41  1  0  0  0  0
 43 41  1  0  0  0  0
M  END
>  <minimizedAffinity>
-5.65424156

$$$$

 OpenBabel03252508093D

 43 46  0  0  1  0  0  0  0  0999 V2000
   36.6110   30.3050   38.1690 C   0  0  0  0  0  0  0  0  0  0  0  0
   37.0490   29.9750   39.4430 C   0  0  0  0  0  0  0  0  0  0  0  0
   37.0230   28.6680   39.8610 C   0  0  0  0  0  0  0  0  0  0  0  0
   36.5510   27.7330   38.9600 N   0  0  0  0  0  0  0  0  0  0  0  0
   36.1320   28.0560   37.7390 C   0  0  0  0  0  0  0  0  0  0  0  0
   36.1690   29.3500   37.3570 N   0  0  0  0  0  0  0  0  0  0  0  0
   36.6320   31.3340   37.8410 H   0  0  0  0  0  0  0  0  0  0  0  0
   35.7720   27.2830   37.0740 H   0  0  0  0  0  0  0  0  0  0  0  0
   37.4300   28.1690   41.1200 C   0  0  0  0  0  0  0  0  0  0  0  0
   36.5600   27.9460   42.1910 C   0  0  0  0  0  0  0  0  0  0  0  0
   36.9600   27.5270   43.4340 C   0  0  0  0  0  0  0  0  0  0  0  0
   38.2940   27.2990   43.6800 C   0  0  0  0  0  0  0  0  0  0  0  0
   39.2040   27.5180   42.6000 C   0  0  0  0  0  0  0  0  0  0  0  0
   40.5290   27.2960   42.8330 C   0  0  0  0  0  0  0  0  0  0  0  0
   41.4590   27.4860   41.8320 C   0  0  0  0  0  0  0  0  0  0  0  0
   41.0270   27.9110   40.5630 C   0  0  0  0  0  0  0  0  0  0  0  0
   39.6500   28.1260   40.3760 C   0  0  0  0  0  0  0  0  0  0  0  0
   38.7520   27.9330   41.3900 C   0  0  0  0  0  0  0  0  0  0  0  0
   35.5020   28.1210   42.0170 H   0  0  0  0  0  0  0  0  0  0  0  0
   36.2040   27.3800   44.2080 H   0  0  0  0  0  0  0  0  0  0  0  0
   38.6470   26.9690   44.6460 H   0  0  0  0  0  0  0  0  0  0  0  0
   40.8810   26.9620   43.8200 H   0  0  0  0  0  0  0  0  0  0  0  0
   42.4950   27.2960   42.0740 H   0  0  0  0  0  0  0  0  0  0  0  0
   41.8200   28.0270   39.8600 H   0  0  0  0  0  0  0  0  0  0  0  0
   39.5220   28.4190   39.3560 H   0  0  0  0  0  0  0  0  0  0  0  0
   37.4980   30.9970   40.2340 O   0  0  0  0  0  0  0  0  0  0  0  0
   38.0010   33.3430   39.1850 O   0  0  0  0  0  0  0  0  0  0  0  0
   38.6550   32.1410   39.7650 P   0  0  1  0  0  0  0  0  0  0  0  0
   39.5570   32.6660   41.1000 O   0  0  0  0  0  0  0  0  0  0  0  0
   40.5760   31.7020   41.2410 C   0  0  2  0  0  3  0  0  0  0  0  0
   40.4900   31.0350   42.6020 C   0  0  0  0  0  3  0  0  0  0  0  0
   39.8650   31.6100   43.3260 H   0  0  0  0  0  0  0  0  0  0  0  0
   41.9510   31.0590   43.0330 C   0  0  0  0  0  3  0  0  0  0  0  0
   42.4080   30.1660   42.5670 H   0  0  0  0  0  0  0  0  0  0  0  0
   42.3900   32.2610   42.5040 O   0  0  0  0  0  0  0  0  0  0  0  0
   41.9520   32.2680   41.1870 C   0  0  0  0  0  3  0  0  0  0  0  0
   42.6010   31.5170   40.6500 H   0  0  0  0  0  0  0  0  0  0  0  0
   39.6920   31.4170   38.6620 O   0  0  0  0  0  0  0  0  0  0  0  0
   40.2080   31.9880   37.5090 C   0  0  0  0  0  0  0  0  0  0  0  0
   41.4360   32.0440   37.7060 O   0  0  0  0  0  0  0  0  0  0  0  0
   39.1560   32.2830   36.5690 N   0  0  0  0  0  0  0  0  0  0  0  0
   38.6560   31.4530   36.1390 H   0  0  0  0  0  0  0  0  0  0  0  0
   38.8080   33.2270   36.2430 H   0  0  0  0  0  0  0  0  0  0  0  0
  1  2  1  0  0  0  0
  2  3  2  0  0  0  0
  2 26  1  0  0  0  0
  3  9  1  0  0  0  0
  4  3  1  0  0  0  0
  5  4  2  0  0  0  0
  6  5  1  0  0  0  0
  6  1  2  0  0  0  0
  7  1  1  0  0  0  0
  8  5  1  0  0  0  0
  9 18  2  0  0  0  0
  9 10  1  0  0  0  0
 10 11  2  0  0  0  0
 11 12  1  0  0  0  0
 11 20  1  0  0  0  0
 12 21  1  0  0  0  0
 13 14  1  0  0  0  0
 13 12  2  0  0  0  0
 14 22  1  0  0  0  0
 15 23  1  0  0  0  0
 15 14  2  0  0  0  0
 16 15  1  0  0  0  0
 17 16  2  0  0  0  0
 17 18  1  0  0  0  0
 18 13  1  0  0  0  0
 19 10  1  0  0  0  0
 24 16  1  0  0  0  0
 25 17  1  0  0  0  0
 28 27  2  6  0  0  0
 28 26  1  0  0  0  0
 28 29  1  0  0  0  0
 30 29  1  1  0  0  0
 30 31  1  0  0  0  0
 31 33  1  0  0  0  0
 31 32  1  0  0  0  0
 34 33  1  0  0  0  0
 35 33  1  0  0  0  0
 36 30  1  0  0  0  0
 36 35  1  0  0  0  0
 37 36  1  0  0  0  0
 38 28  1  0  0  0  0
 39 40  2  0  0  0  0
 39 38  1  0  0  0  0
 41 39  1  0  0  0  0
 42 41  1  0  0  0  0
 43 41  1  0  0  0  0
M  END
>  <minimizedAffinity>
-5.65324402

$$$$

 OpenBabel03252508093D

 43 46  0  0  1  0  0  0  0  0999 V2000
   42.4490   28.6510   40.8050 C   0  0  0  0  0  0  0  0  0  0  0  0
   41.0950   28.4040   40.9780 C   0  0  0  0  0  0  0  0  0  0  0  0
   40.6060   28.1000   42.2230 C   0  0  0  0  0  0  0  0  0  0  0  0
   41.5170   28.0600   43.2600 N   0  0  0  0  0  0  0  0  0  0  0  0
   42.8160   28.2980   43.0890 C   0  0  0  0  0  0  0  0  0  0  0  0
   43.2670   28.5940   41.8520 N   0  0  0  0  0  0  0  0  0  0  0  0
   42.8340   28.8900   39.8240 H   0  0  0  0  0  0  0  0  0  0  0  0
   43.4850   28.2540   43.9370 H   0  0  0  0  0  0  0  0  0  0  0  0
   39.2620   27.8220   42.5640 C   0  0  0  0  0  0  0  0  0  0  0  0
   38.4380   28.7020   43.2720 C   0  0  0  0  0  0  0  0  0  0  0  0
   37.1560   28.4100   43.6630 C   0  0  0  0  0  0  0  0  0  0  0  0
   36.6120   27.1840   43.3560 C   0  0  0  0  0  0  0  0  0  0  0  0
   37.4340   26.2680   42.6300 C   0  0  0  0  0  0  0  0  0  0  0  0
   36.9040   25.0490   42.3210 C   0  0  0  0  0  0  0  0  0  0  0  0
   37.6450   24.1210   41.6200 C   0  0  0  0  0  0  0  0  0  0  0  0
   38.9550   24.4420   41.2240 C   0  0  0  0  0  0  0  0  0  0  0  0
   39.4540   25.7110   41.5690 C   0  0  0  0  0  0  0  0  0  0  0  0
   38.6960   26.6100   42.2680 C   0  0  0  0  0  0  0  0  0  0  0  0
   38.8490   29.6750   43.5250 H   0  0  0  0  0  0  0  0  0  0  0  0
   36.5890   29.1640   44.2130 H   0  0  0  0  0  0  0  0  0  0  0  0
   35.6060   26.9190   43.6470 H   0  0  0  0  0  0  0  0  0  0  0  0
   35.8810   24.7850   42.6240 H   0  0  0  0  0  0  0  0  0  0  0  0
   37.1750   23.1710   41.4040 H   0  0  0  0  0  0  0  0  0  0  0  0
   39.4420   23.6600   40.6880 H   0  0  0  0  0  0  0  0  0  0  0  0
   40.4420   25.7720   41.1660 H   0  0  0  0  0  0  0  0  0  0  0  0
   40.2990   28.4810   39.8670 O   0  0  0  0  0  0  0  0  0  0  0  0
   40.6440   30.0070   37.7670 O   0  0  0  0  0  0  0  0  0  0  0  0
   39.9140   29.9180   39.0580 P   0  0  1  0  0  0  0  0  0  0  0  0
   38.2600   29.9770   38.6930 O   0  0  0  0  0  0  0  0  0  0  0  0
   37.6190   29.5770   39.8830 C   0  0  2  0  0  3  0  0  0  0  0  0
   36.6720   28.4220   39.6130 C   0  0  0  0  0  3  0  0  0  0  0  0
   36.4310   28.3050   38.5290 H   0  0  0  0  0  0  0  0  0  0  0  0
   35.4350   28.8720   40.3800 C   0  0  0  0  0  3  0  0  0  0  0  0
   35.6070   28.5530   41.4260 H   0  0  0  0  0  0  0  0  0  0  0  0
   35.4610   30.2440   40.1950 O   0  0  0  0  0  0  0  0  0  0  0  0
   36.7610   30.6330   40.4890 C   0  0  0  0  0  3  0  0  0  0  0  0
   36.8570   30.5390   41.6100 H   0  0  0  0  0  0  0  0  0  0  0  0
   40.2910   31.2060   40.0650 O   0  0  0  0  0  0  0  0  0  0  0  0
   40.0210   32.5460   39.8350 C   0  0  0  0  0  0  0  0  0  0  0  0
   40.3620   33.1220   40.8850 O   0  0  0  0  0  0  0  0  0  0  0  0
   39.4690   32.7390   38.5190 N   0  0  0  0  0  0  0  0  0  0  0  0
   40.1160   32.5530   37.7000 H   0  0  0  0  0  0  0  0  0  0  0  0
   38.4930   33.0450   38.2510 H   0  0  0  0  0  0  0  0  0  0  0  0
  1  2  2  0  0  0  0
  1  6  1  0  0  0  0
  2  3  1  0  0  0  0
  3  9  1  0  0  0  0
  3  4  2  0  0  0  0
  5  4  1  0  0  0  0
  5  8  1  0  0  0  0
  6  5  2  0  0  0  0
  7  1  1  0  0  0  0
  9 10  1  0  0  0  0
 10 19  1  0  0  0  0
 10 11  2  0  0  0  0
 11 20  1  0  0  0  0
 12 21  1  0  0  0  0
 12 11  1  0  0  0  0
 13 12  2  0  0  0  0
 14 22  1  0  0  0  0
 14 13  1  0  0  0  0
 15 14  2  0  0  0  0
 16 17  2  0  0  0  0
 16 15  1  0  0  0  0
 17 18  1  0  0  0  0
 18  9  2  0  0  0  0
 18 13  1  0  0  0  0
 23 15  1  0  0  0  0
 24 16  1  0  0  0  0
 25 17  1  0  0  0  0
 26  2  1  0  0  0  0
 28 27  2  6  0  0  0
 28 26  1  0  0  0  0
 28 38  1  0  0  0  0
 29 28  1  0  0  0  0
 30 29  1  6  0  0  0
 30 36  1  0  0  0  0
 31 30  1  0  0  0  0
 31 33  1  0  0  0  0
 32 31  1  0  0  0  0
 33 34  1  0  0  0  0
 35 33  1  0  0  0  0
 35 36  1  0  0  0  0
 36 37  1  0  0  0  0
 39 38  1  0  0  0  0
 39 40  2  0  0  0  0
 41 39  1  0  0  0  0
 42 41  1  0  0  0  0
 43 41  1  0  0  0  0
M  END
>  <minimizedAffinity>
-5.61747217

$$$$
