
 OpenBabel03252504373D

 22 23  0  0  1  0  0  0  0  0999 V2000
   36.7040   30.2480   40.8780 C   0  0  0  0  0  3  0  0  0  0  0  0
   37.1250   29.2620   41.6430 C   0  0  0  0  0  3  0  0  0  0  0  0
   37.5710   31.4080   40.7160 C   0  0  0  0  0  0  0  0  0  0  0  0
   37.0750   32.5100   39.9960 C   0  0  0  0  0  0  0  0  0  0  0  0
   37.8870   33.6440   39.8220 C   0  0  0  0  0  0  0  0  0  0  0  0
   39.1300   33.6120   40.3680 N   0  0  0  0  0  0  0  0  0  0  0  0
   39.5740   32.5360   41.0540 C   0  0  0  0  0  0  0  0  0  0  0  0
   38.8130   31.4560   41.2250 N   0  0  0  0  0  0  0  0  0  0  0  0
   36.0740   32.5010   39.5710 H   0  0  0  0  0  0  0  0  0  0  0  0
   37.4730   34.4680   39.2650 H   0  0  0  0  0  0  0  0  0  0  0  0
   40.5850   32.6180   41.4490 H   0  0  0  0  0  0  0  0  0  0  0  0
   36.3520   28.0290   41.8940 C   0  0  0  0  0  0  0  0  0  0  0  0
   35.3700   28.3150   42.3380 H   0  0  0  0  0  0  0  0  0  0  0  0
   36.1870   27.4620   40.9610 H   0  0  0  0  0  0  0  0  0  0  0  0
   37.0290   27.1220   42.8980 C   0  0  2  0  0  3  0  0  0  0  0  0
   38.1600   27.8370   43.6090 C   0  0  0  0  0  3  0  0  0  0  0  0
   37.8720   28.2280   44.5980 H   0  0  0  0  0  0  0  0  0  0  0  0
   39.2440   26.7880   43.6800 C   0  0  0  0  0  3  0  0  0  0  0  0
   40.2380   27.2900   43.7350 H   0  0  0  0  0  0  0  0  0  0  0  0
   39.1020   26.1460   42.4570 O   0  0  0  0  0  0  0  0  0  0  0  0
   37.7550   25.9910   42.2130 C   0  0  0  0  0  3  0  0  0  0  0  0
   37.5990   26.1030   41.1190 H   0  0  0  0  0  0  0  0  0  0  0  0
  1  2  2  0  0  0  0
  2 12  1  0  0  0  0
  3  1  1  0  0  0  0
  3  8  1  0  0  0  0
  4  3  2  0  0  0  0
  5  4  1  0  0  0  0
  5  6  2  0  0  0  0
  6  7  1  0  0  0  0
  7  8  2  0  0  0  0
  7 11  1  0  0  0  0
  9  4  1  0  0  0  0
 10  5  1  0  0  0  0
 12 13  1  0  0  0  0
 14 12  1  0  0  0  0
 15 12  1  6  0  0  0
 15 16  1  0  0  0  0
 16 18  1  0  0  0  0
 16 17  1  0  0  0  0
 18 19  1  0  0  0  0
 20 18  1  0  0  0  0
 21 20  1  0  0  0  0
 21 15  1  0  0  0  0
 22 21  1  0  0  0  0
M  END
>  <minimizedAffinity>
-4.20478821

$$$$

 OpenBabel03252504373D

 22 23  0  0  1  0  0  0  0  0999 V2000
   36.6530   30.7750   40.9270 C   0  0  0  0  0  3  0  0  0  0  0  0
   37.0870   29.5800   41.2700 C   0  0  0  0  0  3  0  0  0  0  0  0
   37.6400   31.8180   40.6810 C   0  0  0  0  0  0  0  0  0  0  0  0
   38.9740   31.5680   41.0530 C   0  0  0  0  0  0  0  0  0  0  0  0
   39.9500   32.5550   40.8280 C   0  0  0  0  0  0  0  0  0  0  0  0
   39.5440   33.7160   40.2530 N   0  0  0  0  0  0  0  0  0  0  0  0
   38.2540   33.9220   39.9080 C   0  0  0  0  0  0  0  0  0  0  0  0
   37.3210   32.9940   40.1160 N   0  0  0  0  0  0  0  0  0  0  0  0
   39.2640   30.6260   41.5130 H   0  0  0  0  0  0  0  0  0  0  0  0
   40.9600   32.3280   41.1270 H   0  0  0  0  0  0  0  0  0  0  0  0
   38.0390   34.8870   39.4540 H   0  0  0  0  0  0  0  0  0  0  0  0
   36.2000   28.4320   41.5470 C   0  0  0  0  0  0  0  0  0  0  0  0
   35.2060   28.8250   41.8630 H   0  0  0  0  0  0  0  0  0  0  0  0
   36.0800   27.7930   40.6540 H   0  0  0  0  0  0  0  0  0  0  0  0
   36.7070   27.5780   42.6870 C   0  0  2  0  0  3  0  0  0  0  0  0
   37.8510   28.2540   43.4150 C   0  0  0  0  0  3  0  0  0  0  0  0
   37.5340   28.7740   44.3330 H   0  0  0  0  0  0  0  0  0  0  0  0
   38.8150   27.1220   43.6770 C   0  0  0  0  0  3  0  0  0  0  0  0
   39.8480   27.5300   43.7640 H   0  0  0  0  0  0  0  0  0  0  0  0
   38.6960   26.3690   42.5180 O   0  0  0  0  0  0  0  0  0  0  0  0
   37.3610   26.3160   42.1800 C   0  0  0  0  0  3  0  0  0  0  0  0
   37.2960   26.3250   41.0710 H   0  0  0  0  0  0  0  0  0  0  0  0
  1  2  2  0  0  0  0
  2 12  1  0  0  0  0
  3  1  1  0  0  0  0
  3  4  1  0  0  0  0
  4  9  1  0  0  0  0
  5  4  2  0  0  0  0
  5 10  1  0  0  0  0
  6  5  1  0  0  0  0
  7  8  1  0  0  0  0
  7  6  2  0  0  0  0
  8  3  2  0  0  0  0
 11  7  1  0  0  0  0
 12 13  1  0  0  0  0
 14 12  1  0  0  0  0
 15 12  1  6  0  0  0
 15 16  1  0  0  0  0
 16 18  1  0  0  0  0
 16 17  1  0  0  0  0
 18 19  1  0  0  0  0
 20 18  1  0  0  0  0
 21 20  1  0  0  0  0
 21 15  1  0  0  0  0
 22 21  1  0  0  0  0
M  END
>  <minimizedAffinity>
-4.18873644

$$$$

 OpenBabel03252504373D

 22 23  0  0  1  0  0  0  0  0999 V2000
   36.6650   27.7230   42.3730 C   0  0  0  0  0  3  0  0  0  0  0  0
   36.4410   28.0060   41.1070 C   0  0  0  0  0  3  0  0  0  0  0  0
   37.7350   26.7850   42.6870 C   0  0  0  0  0  0  0  0  0  0  0  0
   37.6240   25.4680   42.2040 C   0  0  0  0  0  0  0  0  0  0  0  0
   38.6400   24.5390   42.4900 C   0  0  0  0  0  0  0  0  0  0  0  0
   39.6910   24.9730   43.2320 N   0  0  0  0  0  0  0  0  0  0  0  0
   39.7660   26.2460   43.6790 C   0  0  0  0  0  0  0  0  0  0  0  0
   38.8090   27.1340   43.4130 N   0  0  0  0  0  0  0  0  0  0  0  0
   36.7660   25.1550   41.6130 H   0  0  0  0  0  0  0  0  0  0  0  0
   38.5200   23.5410   42.1050 H   0  0  0  0  0  0  0  0  0  0  0  0
   40.6520   26.4850   44.2640 H   0  0  0  0  0  0  0  0  0  0  0  0
   35.3930   28.9390   40.6450 C   0  0  0  0  0  0  0  0  0  0  0  0
   34.7680   28.4140   39.8850 H   0  0  0  0  0  0  0  0  0  0  0  0
   34.7570   29.2740   41.4830 H   0  0  0  0  0  0  0  0  0  0  0  0
   35.9710   30.1560   39.9580 C   0  0  2  0  0  3  0  0  0  0  0  0
   37.1850   29.7950   39.1270 C   0  0  0  0  0  3  0  0  0  0  0  0
   36.9550   29.6650   38.0570 H   0  0  0  0  0  0  0  0  0  0  0  0
   38.1400   30.9340   39.3930 C   0  0  0  0  0  3  0  0  0  0  0  0
   39.1860   30.5790   39.2450 H   0  0  0  0  0  0  0  0  0  0  0  0
   37.9110   31.1910   40.7380 O   0  0  0  0  0  0  0  0  0  0  0  0
   36.5530   31.1250   40.9580 C   0  0  0  0  0  3  0  0  0  0  0  0
   36.3990   30.6970   41.9720 H   0  0  0  0  0  0  0  0  0  0  0  0
  1  3  1  0  0  0  0
  2  1  2  0  0  0  0
  3  8  1  0  0  0  0
  4  5  1  0  0  0  0
  4  3  2  0  0  0  0
  5  6  2  0  0  0  0
  6  7  1  0  0  0  0
  7 11  1  0  0  0  0
  8  7  2  0  0  0  0
  9  4  1  0  0  0  0
 10  5  1  0  0  0  0
 12  2  1  0  0  0  0
 12 14  1  0  0  0  0
 13 12  1  0  0  0  0
 15 12  1  1  0  0  0
 15 21  1  0  0  0  0
 16 18  1  0  0  0  0
 16 15  1  0  0  0  0
 17 16  1  0  0  0  0
 18 20  1  0  0  0  0
 19 18  1  0  0  0  0
 20 21  1  0  0  0  0
 21 22  1  0  0  0  0
M  END
>  <minimizedAffinity>
-4.13608408

$$$$

 OpenBabel03252504373D

 22 23  0  0  1  0  0  0  0  0999 V2000
   36.9490   27.0810   42.4400 C   0  0  0  0  0  3  0  0  0  0  0  0
   37.1410   26.0430   41.6530 C   0  0  0  0  0  3  0  0  0  0  0  0
   36.7750   28.3880   41.8210 C   0  0  0  0  0  0  0  0  0  0  0  0
   35.7010   28.5600   40.9300 C   0  0  0  0  0  0  0  0  0  0  0  0
   35.5050   29.8110   40.3160 C   0  0  0  0  0  0  0  0  0  0  0  0
   36.3820   30.8000   40.6240 N   0  0  0  0  0  0  0  0  0  0  0  0
   37.4030   30.6000   41.4850 C   0  0  0  0  0  0  0  0  0  0  0  0
   37.5970   29.4200   42.0730 N   0  0  0  0  0  0  0  0  0  0  0  0
   35.0180   27.7440   40.7050 H   0  0  0  0  0  0  0  0  0  0  0  0
   34.6730   29.9040   39.6390 H   0  0  0  0  0  0  0  0  0  0  0  0
   38.0440   31.4620   41.6600 H   0  0  0  0  0  0  0  0  0  0  0  0
   37.3300   24.6630   42.1430 C   0  0  0  0  0  0  0  0  0  0  0  0
   37.1220   24.6480   43.2390 H   0  0  0  0  0  0  0  0  0  0  0  0
   36.6540   23.9580   41.6270 H   0  0  0  0  0  0  0  0  0  0  0  0
   38.7530   24.1820   41.9700 C   0  0  2  0  0  3  0  0  0  0  0  0
   39.5900   24.4860   43.1970 C   0  0  0  0  0  3  0  0  0  0  0  0
   39.6920   23.6240   43.8760 H   0  0  0  0  0  0  0  0  0  0  0  0
   40.9060   24.9430   42.6160 C   0  0  0  0  0  3  0  0  0  0  0  0
   41.4150   25.6170   43.3430 H   0  0  0  0  0  0  0  0  0  0  0  0
   40.4950   25.6640   41.5040 O   0  0  0  0  0  0  0  0  0  0  0  0
   39.4710   24.9660   40.9000 C   0  0  0  0  0  3  0  0  0  0  0  0
   38.7560   25.7110   40.4900 H   0  0  0  0  0  0  0  0  0  0  0  0
  2 12  1  0  0  0  0
  2  1  2  0  0  0  0
  3  8  1  0  0  0  0
  3  1  1  0  0  0  0
  4  3  2  0  0  0  0
  5  6  2  0  0  0  0
  5  4  1  0  0  0  0
  6  7  1  0  0  0  0
  7 11  1  0  0  0  0
  7  8  2  0  0  0  0
  9  4  1  0  0  0  0
 10  5  1  0  0  0  0
 12 13  1  0  0  0  0
 14 12  1  0  0  0  0
 15 12  1  1  0  0  0
 15 16  1  0  0  0  0
 16 17  1  0  0  0  0
 18 16  1  0  0  0  0
 18 19  1  0  0  0  0
 20 18  1  0  0  0  0
 21 20  1  0  0  0  0
 21 15  1  0  0  0  0
 22 21  1  0  0  0  0
M  END
>  <minimizedAffinity>
-4.10859346

$$$$

 OpenBabel03252504373D

 22 23  0  0  1  0  0  0  0  0999 V2000
   37.2600   29.1980   41.2320 C   0  0  0  0  0  3  0  0  0  0  0  0
   37.2660   28.7810   42.4810 C   0  0  0  0  0  3  0  0  0  0  0  0
   37.6560   30.5740   40.9650 C   0  0  0  0  0  0  0  0  0  0  0  0
   38.8970   31.0130   41.4600 C   0  0  0  0  0  0  0  0  0  0  0  0
   39.3090   32.3360   41.2190 C   0  0  0  0  0  0  0  0  0  0  0  0
   38.4670   33.1310   40.5100 N   0  0  0  0  0  0  0  0  0  0  0  0
   37.2810   32.6770   40.0500 C   0  0  0  0  0  0  0  0  0  0  0  0
   36.8820   31.4250   40.2720 N   0  0  0  0  0  0  0  0  0  0  0  0
   39.5470   30.3470   42.0250 H   0  0  0  0  0  0  0  0  0  0  0  0
   40.2650   32.6360   41.6130 H   0  0  0  0  0  0  0  0  0  0  0  0
   36.6870   33.3990   39.4940 H   0  0  0  0  0  0  0  0  0  0  0  0
   36.8910   27.4140   42.8950 C   0  0  0  0  0  0  0  0  0  0  0  0
   37.3320   27.2190   43.9000 H   0  0  0  0  0  0  0  0  0  0  0  0
   35.7940   27.2960   42.9410 H   0  0  0  0  0  0  0  0  0  0  0  0
   37.4530   26.3590   41.9680 C   0  0  2  0  0  3  0  0  0  0  0  0
   36.7830   25.0190   42.1900 C   0  0  0  0  0  3  0  0  0  0  0  0
   35.9800   24.8090   41.4640 H   0  0  0  0  0  0  0  0  0  0  0  0
   37.9280   24.0390   42.1060 C   0  0  0  0  0  3  0  0  0  0  0  0
   37.6770   23.1270   42.6960 H   0  0  0  0  0  0  0  0  0  0  0  0
   38.9520   24.7400   42.7270 O   0  0  0  0  0  0  0  0  0  0  0  0
   38.8920   26.0490   42.2980 C   0  0  0  0  0  3  0  0  0  0  0  0
   39.1890   26.6940   43.1520 H   0  0  0  0  0  0  0  0  0  0  0  0
  1  2  2  0  0  0  0
  2 12  1  0  0  0  0
  3  1  1  0  0  0  0
  3  4  1  0  0  0  0
  4  9  1  0  0  0  0
  5  4  2  0  0  0  0
  5 10  1  0  0  0  0
  6  5  1  0  0  0  0
  7  8  1  0  0  0  0
  7  6  2  0  0  0  0
  8  3  2  0  0  0  0
 11  7  1  0  0  0  0
 12 14  1  0  0  0  0
 12 13  1  0  0  0  0
 15 16  1  0  0  0  0
 15 21  1  0  0  0  0
 15 12  1  1  0  0  0
 17 16  1  0  0  0  0
 18 16  1  0  0  0  0
 18 19  1  0  0  0  0
 18 20  1  0  0  0  0
 21 20  1  0  0  0  0
 21 22  1  0  0  0  0
M  END
>  <minimizedAffinity>
-3.98689866

$$$$

 OpenBabel03252504373D

 22 23  0  0  1  0  0  0  0  0999 V2000
   39.3120   30.1020   42.5740 C   0  0  0  0  0  3  0  0  0  0  0  0
   38.0850   29.6340   42.6790 C   0  0  0  0  0  3  0  0  0  0  0  0
   39.5400   31.2380   41.6920 C   0  0  0  0  0  0  0  0  0  0  0  0
   38.4370   31.7710   41.0000 C   0  0  0  0  0  0  0  0  0  0  0  0
   38.6240   32.8680   40.1410 C   0  0  0  0  0  0  0  0  0  0  0  0
   39.8840   33.3600   40.0230 N   0  0  0  0  0  0  0  0  0  0  0  0
   40.9210   32.8230   40.7020 C   0  0  0  0  0  0  0  0  0  0  0  0
   40.7540   31.7840   41.5200 N   0  0  0  0  0  0  0  0  0  0  0  0
   37.4400   31.3510   41.1180 H   0  0  0  0  0  0  0  0  0  0  0  0
   37.7570   33.2480   39.6280 H   0  0  0  0  0  0  0  0  0  0  0  0
   41.8860   33.2960   40.5330 H   0  0  0  0  0  0  0  0  0  0  0  0
   37.7100   28.4920   43.5360 C   0  0  0  0  0  0  0  0  0  0  0  0
   38.6380   27.9340   43.8030 H   0  0  0  0  0  0  0  0  0  0  0  0
   37.2030   28.8310   44.4570 H   0  0  0  0  0  0  0  0  0  0  0  0
   36.8090   27.5100   42.8220 C   0  0  2  0  0  3  0  0  0  0  0  0
   37.5670   26.2610   42.4180 C   0  0  0  0  0  3  0  0  0  0  0  0
   37.4300   25.4240   43.1220 H   0  0  0  0  0  0  0  0  0  0  0  0
   37.0390   25.9650   41.0350 C   0  0  0  0  0  3  0  0  0  0  0  0
   37.8080   25.3990   40.4610 H   0  0  0  0  0  0  0  0  0  0  0  0
   36.8920   27.2390   40.5050 O   0  0  0  0  0  0  0  0  0  0  0  0
   36.3600   28.0480   41.4860 C   0  0  0  0  0  3  0  0  0  0  0  0
   36.8050   29.0590   41.3630 H   0  0  0  0  0  0  0  0  0  0  0  0
  1  2  2  0  0  0  0
  2 12  1  0  0  0  0
  3  1  1  0  0  0  0
  4  9  1  0  0  0  0
  4  3  2  0  0  0  0
  5  4  1  0  0  0  0
  6  5  2  0  0  0  0
  6  7  1  0  0  0  0
  7  8  2  0  0  0  0
  8  3  1  0  0  0  0
 10  5  1  0  0  0  0
 11  7  1  0  0  0  0
 12 13  1  0  0  0  0
 12 14  1  0  0  0  0
 15 12  1  6  0  0  0
 16 15  1  0  0  0  0
 16 17  1  0  0  0  0
 18 16  1  0  0  0  0
 19 18  1  0  0  0  0
 20 18  1  0  0  0  0
 20 21  1  0  0  0  0
 21 15  1  0  0  0  0
 22 21  1  0  0  0  0
M  END
>  <minimizedAffinity>
-3.94155955

$$$$

 OpenBabel03252504373D

 22 23  0  0  1  0  0  0  0  0999 V2000
   36.6770   27.5010   42.4230 C   0  0  0  0  0  3  0  0  0  0  0  0
   37.1820   26.4600   41.7950 C   0  0  0  0  0  3  0  0  0  0  0  0
   36.9230   28.8240   41.8660 C   0  0  0  0  0  0  0  0  0  0  0  0
   38.2000   29.3890   42.0420 C   0  0  0  0  0  0  0  0  0  0  0  0
   38.4690   30.6650   41.5160 C   0  0  0  0  0  0  0  0  0  0  0  0
   37.4640   31.2930   40.8550 N   0  0  0  0  0  0  0  0  0  0  0  0
   36.2490   30.7200   40.7040 C   0  0  0  0  0  0  0  0  0  0  0  0
   35.9830   29.5120   41.1980 N   0  0  0  0  0  0  0  0  0  0  0  0
   38.9830   28.8570   42.5790 H   0  0  0  0  0  0  0  0  0  0  0  0
   39.4570   31.0650   41.6720 H   0  0  0  0  0  0  0  0  0  0  0  0
   35.5170   31.3120   40.1570 H   0  0  0  0  0  0  0  0  0  0  0  0
   37.0100   25.0640   42.2450 C   0  0  0  0  0  0  0  0  0  0  0  0
   37.9860   24.7010   42.6440 H   0  0  0  0  0  0  0  0  0  0  0  0
   36.2360   24.9880   43.0300 H   0  0  0  0  0  0  0  0  0  0  0  0
   36.6390   24.1360   41.1100 C   0  0  2  0  0  3  0  0  0  0  0  0
   37.7580   23.1610   40.8090 C   0  0  0  0  0  3  0  0  0  0  0  0
   37.6090   22.1730   41.2740 H   0  0  0  0  0  0  0  0  0  0  0  0
   37.7780   23.1080   39.3000 C   0  0  0  0  0  3  0  0  0  0  0  0
   38.8000   22.8270   38.9550 H   0  0  0  0  0  0  0  0  0  0  0  0
   37.5070   24.4260   38.9630 O   0  0  0  0  0  0  0  0  0  0  0  0
   36.5180   24.8860   39.8060 C   0  0  0  0  0  3  0  0  0  0  0  0
   36.7260   25.9580   40.0120 H   0  0  0  0  0  0  0  0  0  0  0  0
  2 12  1  0  0  0  0
  2  1  2  0  0  0  0
  3  4  1  0  0  0  0
  3  1  1  0  0  0  0
  4  9  1  0  0  0  0
  5 10  1  0  0  0  0
  5  4  2  0  0  0  0
  6  5  1  0  0  0  0
  7  6  2  0  0  0  0
  7  8  1  0  0  0  0
  8  3  2  0  0  0  0
 11  7  1  0  0  0  0
 12 13  1  0  0  0  0
 12 14  1  0  0  0  0
 15 12  1  1  0  0  0
 16 15  1  0  0  0  0
 16 17  1  0  0  0  0
 18 16  1  0  0  0  0
 19 18  1  0  0  0  0
 20 18  1  0  0  0  0
 20 21  1  0  0  0  0
 21 22  1  0  0  0  0
 21 15  1  0  0  0  0
M  END
>  <minimizedAffinity>
-3.92303538

$$$$

 OpenBabel03252504373D

 22 23  0  0  1  0  0  0  0  0999 V2000
   36.3850   27.3800   39.8390 C   0  0  0  0  0  3  0  0  0  0  0  0
   35.9990   28.3330   40.6610 C   0  0  0  0  0  3  0  0  0  0  0  0
   36.7910   26.1040   40.4130 C   0  0  0  0  0  0  0  0  0  0  0  0
   36.5090   24.9320   39.6870 C   0  0  0  0  0  0  0  0  0  0  0  0
   36.8890   23.6840   40.2140 C   0  0  0  0  0  0  0  0  0  0  0  0
   37.5180   23.6800   41.4160 N   0  0  0  0  0  0  0  0  0  0  0  0
   37.7740   24.8250   42.0860 C   0  0  0  0  0  0  0  0  0  0  0  0
   37.4190   26.0130   41.5960 N   0  0  0  0  0  0  0  0  0  0  0  0
   36.0020   24.9720   38.7260 H   0  0  0  0  0  0  0  0  0  0  0  0
   36.6550   22.8100   39.6300 H   0  0  0  0  0  0  0  0  0  0  0  0
   38.2840   24.7060   43.0410 H   0  0  0  0  0  0  0  0  0  0  0  0
   35.5600   29.6730   40.2190 C   0  0  0  0  0  0  0  0  0  0  0  0
   35.8250   29.7910   39.1420 H   0  0  0  0  0  0  0  0  0  0  0  0
   34.4700   29.8000   40.3490 H   0  0  0  0  0  0  0  0  0  0  0  0
   36.2690   30.7830   40.9610 C   0  0  2  0  0  3  0  0  0  0  0  0
   36.9190   31.7580   40.0010 C   0  0  0  0  0  3  0  0  0  0  0  0
   36.3130   32.6620   39.8240 H   0  0  0  0  0  0  0  0  0  0  0  0
   38.2490   32.0540   40.6520 C   0  0  0  0  0  3  0  0  0  0  0  0
   38.9830   32.3540   39.8700 H   0  0  0  0  0  0  0  0  0  0  0  0
   38.5920   30.8170   41.1780 O   0  0  0  0  0  0  0  0  0  0  0  0
   37.4580   30.2590   41.7270 C   0  0  0  0  0  3  0  0  0  0  0  0
   37.5100   29.1620   41.5600 H   0  0  0  0  0  0  0  0  0  0  0  0
  1  3  1  0  0  0  0
  1  2  2  0  0  0  0
  3  8  1  0  0  0  0
  4  5  1  0  0  0  0
  4  3  2  0  0  0  0
  5  6  2  0  0  0  0
  6  7  1  0  0  0  0
  7 11  1  0  0  0  0
  8  7  2  0  0  0  0
  9  4  1  0  0  0  0
 10  5  1  0  0  0  0
 12 14  1  0  0  0  0
 12  2  1  0  0  0  0
 13 12  1  0  0  0  0
 15 12  1  6  0  0  0
 15 21  1  0  0  0  0
 16 18  1  0  0  0  0
 16 15  1  0  0  0  0
 17 16  1  0  0  0  0
 18 20  1  0  0  0  0
 19 18  1  0  0  0  0
 20 21  1  0  0  0  0
 22 21  1  0  0  0  0
M  END
>  <minimizedAffinity>
-3.80614853

$$$$

 OpenBabel03252504373D

 22 23  0  0  1  0  0  0  0  0999 V2000
   36.5620   27.4910   40.5190 C   0  0  0  0  0  3  0  0  0  0  0  0
   36.5180   28.1690   41.6460 C   0  0  0  0  0  3  0  0  0  0  0  0
   36.4450   28.2300   39.2690 C   0  0  0  0  0  0  0  0  0  0  0  0
   35.1540   28.5050   38.7820 C   0  0  0  0  0  0  0  0  0  0  0  0
   35.0070   29.2170   37.5780 C   0  0  0  0  0  0  0  0  0  0  0  0
   36.1400   29.6050   36.9400 N   0  0  0  0  0  0  0  0  0  0  0  0
   37.3650   29.3240   37.4370 C   0  0  0  0  0  0  0  0  0  0  0  0
   37.5160   28.6510   38.5770 N   0  0  0  0  0  0  0  0  0  0  0  0
   34.2670   28.1780   39.3190 H   0  0  0  0  0  0  0  0  0  0  0  0
   34.0040   29.4080   37.2360 H   0  0  0  0  0  0  0  0  0  0  0  0
   38.2050   29.6830   36.8440 H   0  0  0  0  0  0  0  0  0  0  0  0
   36.6270   27.5520   42.9840 C   0  0  0  0  0  0  0  0  0  0  0  0
   35.8660   28.0220   43.6490 H   0  0  0  0  0  0  0  0  0  0  0  0
   36.4570   26.4610   42.9360 H   0  0  0  0  0  0  0  0  0  0  0  0
   37.9730   27.8030   43.6240 C   0  0  2  0  0  3  0  0  0  0  0  0
   38.6490   29.0190   43.0240 C   0  0  0  0  0  3  0  0  0  0  0  0
   38.5190   29.9310   43.6300 H   0  0  0  0  0  0  0  0  0  0  0  0
   40.0920   28.5910   42.9010 C   0  0  0  0  0  3  0  0  0  0  0  0
   40.5780   29.1660   42.0800 H   0  0  0  0  0  0  0  0  0  0  0  0
   39.9640   27.2580   42.5370 O   0  0  0  0  0  0  0  0  0  0  0  0
   38.9530   26.7050   43.2930 C   0  0  0  0  0  3  0  0  0  0  0  0
   38.4260   25.9640   42.6550 H   0  0  0  0  0  0  0  0  0  0  0  0
  1  2  2  0  0  0  0
  2 12  1  0  0  0  0
  3  1  1  0  0  0  0
  4  3  1  0  0  0  0
  4  9  1  0  0  0  0
  5  4  2  0  0  0  0
  6  7  2  0  0  0  0
  6  5  1  0  0  0  0
  7  8  1  0  0  0  0
  8  3  2  0  0  0  0
 10  5  1  0  0  0  0
 11  7  1  0  0  0  0
 12 13  1  0  0  0  0
 14 12  1  0  0  0  0
 15 12  1  6  0  0  0
 16 15  1  0  0  0  0
 16 17  1  0  0  0  0
 18 16  1  0  0  0  0
 19 18  1  0  0  0  0
 20 18  1  0  0  0  0
 20 21  1  0  0  0  0
 21 15  1  0  0  0  0
 22 21  1  0  0  0  0
M  END
>  <minimizedAffinity>
-3.7753613

$$$$
