
 OpenBabel03252505583D

 35 37  0  0  1  0  0  0  0  0999 V2000
   44.7290   35.1770   45.5520 C   0  0  0  0  0  0  0  0  0  0  0  0
   45.2490   34.7160   44.3240 C   0  0  0  0  0  0  0  0  0  0  0  0
   45.8620   33.4700   44.3270 C   0  0  0  0  0  0  0  0  0  0  0  0
   45.9220   32.7830   45.4890 N   0  0  0  0  0  0  0  0  0  0  0  0
   45.4180   33.2510   46.6320 C   0  0  0  0  0  0  0  0  0  0  0  0
   44.8250   34.4390   46.6680 N   0  0  0  0  0  0  0  0  0  0  0  0
   44.2490   36.1470   45.5590 H   0  0  0  0  0  0  0  0  0  0  0  0
   46.4550   32.8050   43.1840 C   0  0  2  0  0  3  0  0  0  0  0  0
   46.0860   31.3130   43.2960 C   0  0  0  0  0  3  0  0  0  0  0  0
   45.4290   30.9800   42.4690 H   0  0  0  0  0  0  0  0  0  0  0  0
   47.3710   30.5540   43.2440 C   0  0  0  0  0  3  0  0  0  0  0  0
   47.3600   29.6180   43.8270 H   0  0  0  0  0  0  0  0  0  0  0  0
   48.2220   31.4380   43.9080 O   0  0  0  0  0  0  0  0  0  0  0  0
   47.9660   32.6740   43.3180 C   0  0  0  0  0  3  0  0  0  0  0  0
   48.3930   32.6630   42.2960 H   0  0  0  0  0  0  0  0  0  0  0  0
   45.1240   35.5580   43.1140 C   0  0  0  0  0  0  0  0  0  0  0  0
   44.7230   36.8010   43.6060 F   0  0  0  0  0  0  0  0  0  0  0  0
   44.0500   35.0500   42.3820 F   0  0  0  0  0  0  0  0  0  0  0  0
   46.2750   35.6420   42.4590 F   0  0  0  0  0  0  0  0  0  0  0  0
   45.4830   32.5390   47.8270 O   0  0  0  0  0  0  0  0  0  0  0  0
   45.0870   31.1820   47.8740 C   0  0  0  0  0  0  0  0  0  0  0  0
   44.5870   31.0240   48.8600 H   0  0  0  0  0  0  0  0  0  0  0  0
   44.3500   30.9110   47.0990 H   0  0  0  0  0  0  0  0  0  0  0  0
   46.3120   30.3650   47.8580 C   0  0  0  0  0  0  0  0  0  0  0  0
   46.5640   29.1440   47.2460 C   0  0  0  0  0  0  0  0  0  0  0  0
   47.8000   28.5990   47.3950 C   0  0  0  0  0  0  0  0  0  0  0  0
   48.7630   29.1920   48.0980 N   0  0  0  0  0  0  0  0  0  0  0  0
   48.5140   30.3700   48.6850 C   0  0  0  0  0  0  0  0  0  0  0  0
   47.2890   30.9700   48.5740 N   0  0  0  0  0  0  0  0  0  0  0  0
   45.7180   28.7740   46.7160 H   0  0  0  0  0  0  0  0  0  0  0  0
   47.9290   27.6430   46.8890 H   0  0  0  0  0  0  0  0  0  0  0  0
   49.6450   30.9500   49.4440 C   0  0  0  0  0  0  0  0  0  0  0  0
   49.6490   32.3280   49.3710 F   0  0  0  0  0  0  0  0  0  0  0  0
   50.8570   30.4800   48.9330 F   0  0  0  0  0  0  0  0  0  0  0  0
   49.6110   30.6040   50.7800 F   0  0  0  0  0  0  0  0  0  0  0  0
  1  7  1  0  0  0  0
  1  6  1  0  0  0  0
  2  3  1  0  0  0  0
  2  1  2  0  0  0  0
  3  4  2  0  0  0  0
  4  5  1  0  0  0  0
  5  6  2  0  0  0  0
  5 20  1  0  0  0  0
  8  9  1  0  0  0  0
  8 14  1  0  0  0  0
  8  3  1  1  0  0  0
 10  9  1  0  0  0  0
 11  9  1  0  0  0  0
 11 12  1  0  0  0  0
 11 13  1  0  0  0  0
 14 13  1  0  0  0  0
 15 14  1  0  0  0  0
 16 17  1  0  0  0  0
 16  2  1  0  0  0  0
 18 16  1  0  0  0  0
 19 16  1  0  0  0  0
 20 21  1  0  0  0  0
 21 22  1  0  0  0  0
 23 21  1  0  0  0  0
 24 21  1  0  0  0  0
 24 29  1  0  0  0  0
 25 26  1  0  0  0  0
 25 24  2  0  0  0  0
 26 27  2  0  0  0  0
 27 28  1  0  0  0  0
 28 32  1  0  0  0  0
 29 28  2  0  0  0  0
 30 25  1  0  0  0  0
 31 26  1  0  0  0  0
 32 35  1  0  0  0  0
 33 32  1  0  0  0  0
 34 32  1  0  0  0  0
M  END
>  <minimizedAffinity>
-5.41014481

>  <minimizedRMSD>
0.753885448

$$$$
