
 OpenBabel03252509043D

 47 49  0  0  1  0  0  0  0  0999 V2000
   46.6950   34.5790   43.4550 N   0  0  0  0  0  0  0  0  0  0  0  0
   46.2060   35.6300   42.6510 C   0  0  0  0  0  0  0  0  0  0  0  0
   44.6950   35.7780   42.6450 C   0  0  0  0  0  0  0  0  0  0  0  0
   44.0290   35.4250   43.9500 C   0  0  0  0  0  0  0  0  0  0  0  0
   45.0500   35.0780   45.0190 C   0  0  0  0  0  0  0  0  0  0  0  0
   45.8890   33.9160   44.3560 C   0  0  2  0  0  0  0  0  0  0  0  0
   46.5970   36.5890   43.0770 H   0  0  0  0  0  0  0  0  0  0  0  0
   46.5180   35.6350   41.5980 H   0  0  0  0  0  0  0  0  0  0  0  0
   44.4710   36.8020   42.3130 H   0  0  0  0  0  0  0  0  0  0  0  0
   44.3080   35.0870   41.8610 H   0  0  0  0  0  0  0  0  0  0  0  0
   43.3790   36.2650   44.2630 H   0  0  0  0  0  0  0  0  0  0  0  0
   43.3560   34.5440   43.8630 H   0  0  0  0  0  0  0  0  0  0  0  0
   44.5320   34.6300   45.8730 H   0  0  0  0  0  0  0  0  0  0  0  0
   45.7250   35.9090   45.2410 H   0  0  0  0  0  0  0  0  0  0  0  0
   45.1270   33.2180   43.9540 H   0  0  0  0  0  0  0  0  0  0  0  0
   47.8000   33.8650   42.8730 C   0  0  0  0  0  0  0  0  0  0  0  0
   48.4120   33.4220   43.6970 H   0  0  0  0  0  0  0  0  0  0  0  0
   48.4320   34.5920   42.3100 H   0  0  0  0  0  0  0  0  0  0  0  0
   47.2730   32.7690   42.0020 C   0  0  0  0  0  0  0  0  0  0  0  0
   47.5250   31.7880   42.3980 H   0  0  0  0  0  0  0  0  0  0  0  0
   46.1700   32.8240   41.9220 H   0  0  0  0  0  0  0  0  0  0  0  0
   49.1240   32.0570   38.8010 C   0  0  0  0  0  0  0  0  0  0  0  0
   48.5890   31.9300   40.1040 C   0  0  0  0  0  0  0  0  0  0  0  0
   47.8230   32.9280   40.6280 C   0  0  0  0  0  0  0  0  0  0  0  0
   47.6080   34.0090   39.8660 N   0  0  0  0  0  0  0  0  0  0  0  0
   48.1050   34.1440   38.6360 C   0  0  0  0  0  0  0  0  0  0  0  0
   48.8630   33.1800   38.0900 N   0  0  0  0  0  0  0  0  0  0  0  0
   49.7300   31.2780   38.3740 H   0  0  0  0  0  0  0  0  0  0  0  0
   48.7890   31.0320   40.6910 H   0  0  0  0  0  0  0  0  0  0  0  0
   47.8720   35.0550   38.1040 H   0  0  0  0  0  0  0  0  0  0  0  0
   46.5840   33.4340   45.4420 O   0  0  0  0  0  0  0  0  0  0  0  0
   45.5410   31.1330   44.5920 O   0  0  0  0  0  0  0  0  0  0  0  0
   46.2900   31.8180   45.7540 P   0  0  2  0  0  0  0  0  0  0  0  0
   45.1600   31.7800   47.0470 O   0  0  0  0  0  0  0  0  0  0  0  0
   45.6290   31.9830   47.8990 H   0  0  0  0  0  0  0  0  0  0  0  0
   47.6160   30.9470   46.2270 O   0  0  0  0  0  0  0  0  0  0  0  0
   47.8270   29.8810   45.3770 C   0  0  0  0  0  0  0  0  0  0  0  0
   46.9730   29.6930   44.6830 H   0  0  0  0  0  0  0  0  0  0  0  0
   48.7120   30.0920   44.7470 H   0  0  0  0  0  0  0  0  0  0  0  0
   48.0600   28.5810   46.1060 C   0  0  1  0  0  3  0  0  0  0  0  0
   47.4660   28.6070   47.4990 C   0  0  0  0  0  3  0  0  0  0  0  0
   47.9840   27.9050   48.1790 H   0  0  0  0  0  0  0  0  0  0  0  0
   46.0560   28.0780   47.2510 C   0  0  0  0  0  3  0  0  0  0  0  0
   45.2890   28.7390   47.7290 H   0  0  0  0  0  0  0  0  0  0  0  0
   45.9010   28.0350   45.8660 O   0  0  0  0  0  0  0  0  0  0  0  0
   47.1400   27.5380   45.4570 C   0  0  0  0  0  3  0  0  0  0  0  0
   47.2520   26.5530   45.9880 H   0  0  0  0  0  0  0  0  0  0  0  0
  1  6  1  0  0  0  0
  2  7  1  0  0  0  0
  2  1  1  0  0  0  0
  3  2  1  0  0  0  0
  3  4  1  0  0  0  0
  4 11  1  0  0  0  0
  4  5  1  0  0  0  0
  5 14  1  0  0  0  0
  5 13  1  0  0  0  0
  6 15  1  6  0  0  0
  6  5  1  0  0  0  0
  6 31  1  0  0  0  0
  8  2  1  0  0  0  0
  9  3  1  0  0  0  0
 10  3  1  0  0  0  0
 12  4  1  0  0  0  0
 16  1  1  0  0  0  0
 16 17  1  0  0  0  0
 18 16  1  0  0  0  0
 19 20  1  0  0  0  0
 19 16  1  0  0  0  0
 21 19  1  0  0  0  0
 22 23  1  0  0  0  0
 23 24  2  0  0  0  0
 23 29  1  0  0  0  0
 24 19  1  0  0  0  0
 25 24  1  0  0  0  0
 26 25  2  0  0  0  0
 27 26  1  0  0  0  0
 27 22  2  0  0  0  0
 28 22  1  0  0  0  0
 30 26  1  0  0  0  0
 31 33  1  0  0  0  0
 33 32  2  6  0  0  0
 33 36  1  0  0  0  0
 33 34  1  0  0  0  0
 34 35  1  0  0  0  0
 37 36  1  0  0  0  0
 38 37  1  0  0  0  0
 39 37  1  0  0  0  0
 40 37  1  6  0  0  0
 40 41  1  0  0  0  0
 41 42  1  0  0  0  0
 43 41  1  0  0  0  0
 43 44  1  0  0  0  0
 45 43  1  0  0  0  0
 46 45  1  0  0  0  0
 46 47  1  0  0  0  0
 46 40  1  0  0  0  0
M  END
>  <minimizedAffinity>
-3.99169159

>  <minimizedRMSD>
1.07978654

$$$$
