
 OpenBabel03252504333D

 39 41  0  0  1  0  0  0  0  0999 V2000
   42.3060   35.3970   40.6680 O   0  0  0  0  0  0  0  0  0  0  0  0
   41.1370   35.3830   41.3540 C   0  0  0  0  0  0  0  0  0  0  0  0
   40.5100   36.2650   40.9660 H   0  0  0  0  0  0  0  0  0  0  0  0
   41.1410   35.4740   42.4390 H   0  0  0  0  0  0  0  0  0  0  0  0
   40.6200   33.0100   41.5590 C   0  0  0  0  0  0  0  0  0  0  0  0
   40.2350   34.2270   41.0150 C   0  0  0  0  0  0  0  0  0  0  0  0
   39.1020   34.2860   40.2630 C   0  0  0  0  0  0  0  0  0  0  0  0
   38.4420   33.1530   40.1070 N   0  0  0  0  0  0  0  0  0  0  0  0
   38.7860   31.9740   40.6170 C   0  0  0  0  0  0  0  0  0  0  0  0
   39.9390   31.8680   41.3920 N   0  0  0  0  0  0  0  0  0  0  0  0
   41.5160   32.9180   42.1650 H   0  0  0  0  0  0  0  0  0  0  0  0
   38.8370   35.2310   39.8610 H   0  0  0  0  0  0  0  0  0  0  0  0
   38.0410   30.6950   40.4420 C   0  0  1  0  0  3  0  0  0  0  0  0
   39.0370   29.5300   40.4560 C   0  0  0  0  0  3  0  0  0  0  0  0
   39.9320   29.8260   41.0470 H   0  0  0  0  0  0  0  0  0  0  0  0
   38.2140   28.5050   41.2170 C   0  0  0  0  0  3  0  0  0  0  0  0
   37.5710   27.9420   40.5020 H   0  0  0  0  0  0  0  0  0  0  0  0
   37.4660   29.2340   42.1360 O   0  0  0  0  0  0  0  0  0  0  0  0
   37.0740   30.4130   41.5420 C   0  0  0  0  0  3  0  0  0  0  0  0
   36.0320   30.2780   41.1360 H   0  0  0  0  0  0  0  0  0  0  0  0
   43.6090   35.4030   41.1510 C   0  0  0  0  0  3  0  0  0  0  0  0
   43.7200   35.5040   42.4740 C   0  0  0  0  0  3  0  0  0  0  0  0
   45.0200   35.5380   43.2420 C   0  0  0  0  0  0  0  0  0  0  0  0
   45.7660   35.1290   42.4980 H   0  0  0  0  0  0  0  0  0  0  0  0
   45.3080   36.5660   43.5090 H   0  0  0  0  0  0  0  0  0  0  0  0
   44.9190   34.6810   44.3090 O   0  0  0  0  0  0  0  0  0  0  0  0
   45.6550   32.5780   42.8460 O   0  0  0  0  0  0  0  0  0  0  0  0
   45.9520   33.3630   44.1020 P   0  0  1  0  0  0  0  0  0  0  0  0
   47.5650   33.9060   43.9850 O   0  0  0  0  0  0  0  0  0  0  0  0
   47.6240   34.7590   44.4510 H   0  0  0  0  0  0  0  0  0  0  0  0
   45.8730   32.3510   45.4490 O   0  0  0  0  0  0  0  0  0  0  0  0
   46.1530   33.0110   46.6270 C   0  0  0  0  0  0  0  0  0  0  0  0
   47.0550   32.3610   47.6300 C   0  0  0  0  0  0  0  0  0  0  0  0
   45.5550   32.3930   47.8670 C   0  0  0  0  0  0  0  0  0  0  0  0
   46.1530   34.1090   46.5590 H   0  0  0  0  0  0  0  0  0  0  0  0
   47.5550   31.4330   47.3320 H   0  0  0  0  0  0  0  0  0  0  0  0
   47.6510   33.0590   48.2420 H   0  0  0  0  0  0  0  0  0  0  0  0
   45.1510   33.0380   48.6630 H   0  0  0  0  0  0  0  0  0  0  0  0
   45.0990   31.3750   47.7870 H   0  0  0  0  0  0  0  0  0  0  0  0
  1 21  1  0  0  0  0
  1  2  1  0  0  0  0
  2  4  1  0  0  0  0
  3  2  1  0  0  0  0
  5 11  1  0  0  0  0
  6  2  1  0  0  0  0
  6  5  2  0  0  0  0
  7  6  1  0  0  0  0
  8  7  2  0  0  0  0
  8  9  1  0  0  0  0
  9 10  2  0  0  0  0
 10  5  1  0  0  0  0
 12  7  1  0  0  0  0
 13 14  1  0  0  0  0
 13  9  1  1  0  0  0
 13 19  1  0  0  0  0
 14 15  1  0  0  0  0
 14 16  1  0  0  0  0
 16 18  1  0  0  0  0
 17 16  1  0  0  0  0
 19 18  1  0  0  0  0
 20 19  1  0  0  0  0
 21 22  2  0  0  0  0
 22 23  1  0  0  0  0
 23 25  1  0  0  0  0
 23 26  1  0  0  0  0
 24 23  1  0  0  0  0
 28 27  2  6  0  0  0
 28 26  1  0  0  0  0
 28 31  1  0  0  0  0
 29 28  1  0  0  0  0
 29 30  1  0  0  0  0
 31 32  1  0  0  0  0
 32 33  1  0  0  0  0
 32 34  1  0  0  0  0
 33 34  1  0  0  0  0
 33 37  1  0  0  0  0
 34 38  1  0  0  0  0
 35 32  1  0  0  0  0
 36 33  1  0  0  0  0
 39 34  1  0  0  0  0
M  END
>  <minimizedAffinity>
-5.03948402

>  <minimizedRMSD>
0.875912547

$$$$
