
 OpenBabel03242516123D

 38 41  0  0  1  0  0  0  0  0999 V2000
   35.7650   29.1190   39.3490 C   0  0  0  0  0  0  0  0  0  0  0  0
   34.8180   28.4260   38.3990 C   0  0  0  0  0  0  0  0  0  0  0  0
   34.3020   29.1520   39.5650 C   0  0  0  0  0  0  0  0  0  0  0  0
   34.6730   28.7530   37.3710 H   0  0  0  0  0  0  0  0  0  0  0  0
   34.7890   27.3040   38.4800 H   0  0  0  0  0  0  0  0  0  0  0  0
   33.9440   28.6080   40.4690 H   0  0  0  0  0  0  0  0  0  0  0  0
   33.8060   30.1610   39.4740 H   0  0  0  0  0  0  0  0  0  0  0  0
   36.4010   30.3620   38.7950 C   0  0  0  0  0  0  0  0  0  0  0  0
   37.7590   30.1570   38.1810 C   0  0  0  0  0  0  0  0  0  0  0  0
   38.1610   31.5120   37.5920 C   0  0  0  0  0  0  0  0  0  0  0  0
   38.4600   32.3550   38.6470 O   0  0  0  0  0  0  0  0  0  0  0  0
   37.2380   32.6350   39.2810 C   0  0  0  0  0  0  0  0  0  0  0  0
   36.6880   31.3710   39.9280 C   0  0  0  0  0  0  0  0  0  0  0  0
   35.7670   30.8830   38.0590 H   0  0  0  0  0  0  0  0  0  0  0  0
   37.6360   29.5030   37.2920 H   0  0  0  0  0  0  0  0  0  0  0  0
   38.5350   29.8370   38.8900 H   0  0  0  0  0  0  0  0  0  0  0  0
   37.4140   31.8800   36.8880 H   0  0  0  0  0  0  0  0  0  0  0  0
   39.1370   31.3100   37.0630 H   0  0  0  0  0  0  0  0  0  0  0  0
   37.3000   33.4490   40.0110 H   0  0  0  0  0  0  0  0  0  0  0  0
   36.5300   32.8640   38.4350 H   0  0  0  0  0  0  0  0  0  0  0  0
   35.6860   31.6540   40.3430 H   0  0  0  0  0  0  0  0  0  0  0  0
   37.3480   30.9630   40.6920 H   0  0  0  0  0  0  0  0  0  0  0  0
   36.3870   28.2770   41.5990 C   0  0  0  0  0  0  0  0  0  0  0  0
   36.6040   28.2510   40.2330 C   0  0  0  0  0  0  0  0  0  0  0  0
   37.6270   27.3900   39.7090 C   0  0  0  0  0  0  0  0  0  0  0  0
   38.3220   26.6490   40.6140 N   0  0  0  0  0  0  0  0  0  0  0  0
   38.0720   26.7140   41.9230 C   0  0  0  0  0  0  0  0  0  0  0  0
   37.1270   27.5050   42.4270 N   0  0  0  0  0  0  0  0  0  0  0  0
   35.6290   28.9080   42.0450 H   0  0  0  0  0  0  0  0  0  0  0  0
   37.7320   27.4260   38.6520 H   0  0  0  0  0  0  0  0  0  0  0  0
   38.9040   25.8500   42.8160 C   0  0  2  0  0  3  0  0  0  0  0  0
   39.8530   26.6230   43.6770 C   0  0  0  0  0  3  0  0  0  0  0  0
   39.5000   26.6680   44.7460 H   0  0  0  0  0  0  0  0  0  0  0  0
   41.1510   25.8500   43.5750 C   0  0  0  0  0  3  0  0  0  0  0  0
   41.9270   26.4260   43.0320 H   0  0  0  0  0  0  0  0  0  0  0  0
   40.8630   24.6960   42.8560 O   0  0  0  0  0  0  0  0  0  0  0  0
   39.8660   25.0350   41.9490 C   0  0  0  0  0  3  0  0  0  0  0  0
   39.2870   24.1170   41.6570 H   0  0  0  0  0  0  0  0  0  0  0  0
  1  3  1  0  0  0  0
  1 24  1  0  0  0  0
  2  5  1  0  0  0  0
  2  1  1  0  0  0  0
  2  3  1  0  0  0  0
  3  6  1  0  0  0  0
  4  2  1  0  0  0  0
  7  3  1  0  0  0  0
  8  1  1  0  0  0  0
  8 13  1  0  0  0  0
  9  8  1  0  0  0  0
  9 16  1  0  0  0  0
 10  9  1  0  0  0  0
 10 11  1  0  0  0  0
 11 12  1  0  0  0  0
 12 13  1  0  0  0  0
 12 19  1  0  0  0  0
 13 21  1  0  0  0  0
 13 22  1  0  0  0  0
 14  8  1  0  0  0  0
 15  9  1  0  0  0  0
 17 10  1  0  0  0  0
 18 10  1  0  0  0  0
 20 12  1  0  0  0  0
 23 29  1  0  0  0  0
 23 28  1  0  0  0  0
 24 23  2  0  0  0  0
 25 24  1  0  0  0  0
 25 26  2  0  0  0  0
 26 27  1  0  0  0  0
 27 28  2  0  0  0  0
 30 25  1  0  0  0  0
 31 27  1  6  0  0  0
 31 32  1  0  0  0  0
 32 33  1  0  0  0  0
 34 32  1  0  0  0  0
 35 34  1  0  0  0  0
 36 34  1  0  0  0  0
 37 31  1  0  0  0  0
 37 36  1  0  0  0  0
 38 37  1  0  0  0  0
M  END
>  <minimizedAffinity>
-5.20121193

$$$$

 OpenBabel03242516123D

 38 41  0  0  1  0  0  0  0  0999 V2000
   37.7430   27.8600   42.3910 C   0  0  0  0  0  0  0  0  0  0  0  0
   38.1790   28.9770   43.3080 C   0  0  0  0  0  0  0  0  0  0  0  0
   37.0480   28.1170   43.6710 C   0  0  0  0  0  0  0  0  0  0  0  0
   39.1350   28.9710   43.8280 H   0  0  0  0  0  0  0  0  0  0  0  0
   37.9040   30.0140   42.9690 H   0  0  0  0  0  0  0  0  0  0  0  0
   35.9980   28.4760   43.5780 H   0  0  0  0  0  0  0  0  0  0  0  0
   37.1330   27.3110   44.4560 H   0  0  0  0  0  0  0  0  0  0  0  0
   38.6820   26.6890   42.3470 C   0  0  0  0  0  0  0  0  0  0  0  0
   38.0130   25.3450   42.2500 C   0  0  0  0  0  0  0  0  0  0  0  0
   39.1440   24.3240   42.1080 C   0  0  0  0  0  0  0  0  0  0  0  0
   39.7780   24.2270   43.3340 O   0  0  0  0  0  0  0  0  0  0  0  0
   40.4660   25.4390   43.5130 C   0  0  0  0  0  0  0  0  0  0  0  0
   39.4720   26.5820   43.6700 C   0  0  0  0  0  0  0  0  0  0  0  0
   39.4280   26.7610   41.5370 H   0  0  0  0  0  0  0  0  0  0  0  0
   37.4840   25.2980   41.2750 H   0  0  0  0  0  0  0  0  0  0  0  0
   37.4030   25.0770   43.1230 H   0  0  0  0  0  0  0  0  0  0  0  0
   39.7880   24.5540   41.2580 H   0  0  0  0  0  0  0  0  0  0  0  0
   38.6160   23.3400   41.9490 H   0  0  0  0  0  0  0  0  0  0  0  0
   41.1720   25.4230   44.3500 H   0  0  0  0  0  0  0  0  0  0  0  0
   40.9710   25.6230   42.5230 H   0  0  0  0  0  0  0  0  0  0  0  0
   40.0900   27.5160   43.7310 H   0  0  0  0  0  0  0  0  0  0  0  0
   38.8210   26.4640   44.5340 H   0  0  0  0  0  0  0  0  0  0  0  0
   35.7280   28.6020   41.1450 C   0  0  0  0  0  0  0  0  0  0  0  0
   37.0650   28.2480   41.1140 C   0  0  0  0  0  0  0  0  0  0  0  0
   37.7590   28.2660   39.8560 C   0  0  0  0  0  0  0  0  0  0  0  0
   37.0340   28.6370   38.7660 N   0  0  0  0  0  0  0  0  0  0  0  0
   35.7440   28.9680   38.8530 C   0  0  0  0  0  0  0  0  0  0  0  0
   35.0850   28.9580   40.0100 N   0  0  0  0  0  0  0  0  0  0  0  0
   35.1600   28.6040   42.0660 H   0  0  0  0  0  0  0  0  0  0  0  0
   38.7810   27.9830   39.9150 H   0  0  0  0  0  0  0  0  0  0  0  0
   35.0570   29.3580   37.5840 C   0  0  2  0  0  3  0  0  0  0  0  0
   33.8310   28.5490   37.2970 C   0  0  0  0  0  3  0  0  0  0  0  0
   32.8910   29.1370   37.4960 H   0  0  0  0  0  0  0  0  0  0  0  0
   33.9500   28.2140   35.8250 C   0  0  0  0  0  3  0  0  0  0  0  0
   34.1200   27.1310   35.6660 H   0  0  0  0  0  0  0  0  0  0  0  0
   35.0530   28.9160   35.3530 O   0  0  0  0  0  0  0  0  0  0  0  0
   35.9580   28.9820   36.4060 C   0  0  0  0  0  3  0  0  0  0  0  0
   36.6400   29.8650   36.2680 H   0  0  0  0  0  0  0  0  0  0  0  0
  1  2  1  0  0  0  0
  1  3  1  0  0  0  0
  2  3  1  0  0  0  0
  2  4  1  0  0  0  0
  3  7  1  0  0  0  0
  5  2  1  0  0  0  0
  6  3  1  0  0  0  0
  8  1  1  0  0  0  0
  8 13  1  0  0  0  0
  9  8  1  0  0  0  0
  9 16  1  0  0  0  0
 10  9  1  0  0  0  0
 10 11  1  0  0  0  0
 11 12  1  0  0  0  0
 12 13  1  0  0  0  0
 12 19  1  0  0  0  0
 13 21  1  0  0  0  0
 13 22  1  0  0  0  0
 14  8  1  0  0  0  0
 15  9  1  0  0  0  0
 17 10  1  0  0  0  0
 18 10  1  0  0  0  0
 20 12  1  0  0  0  0
 23 29  1  0  0  0  0
 24 23  1  0  0  0  0
 24  1  1  0  0  0  0
 25 30  1  0  0  0  0
 25 24  2  0  0  0  0
 26 27  2  0  0  0  0
 26 25  1  0  0  0  0
 27 28  1  0  0  0  0
 28 23  2  0  0  0  0
 31 27  1  1  0  0  0
 32 33  1  0  0  0  0
 32 31  1  0  0  0  0
 34 32  1  0  0  0  0
 35 34  1  0  0  0  0
 36 34  1  0  0  0  0
 36 37  1  0  0  0  0
 37 31  1  0  0  0  0
 38 37  1  0  0  0  0
M  END
>  <minimizedAffinity>
-5.16847801

$$$$

 OpenBabel03242516123D

 38 41  0  0  1  0  0  0  0  0999 V2000
   36.2350   29.0520   40.2500 C   0  0  0  0  0  0  0  0  0  0  0  0
   34.7840   29.2890   39.9080 C   0  0  0  0  0  0  0  0  0  0  0  0
   35.6130   28.4200   39.0660 C   0  0  0  0  0  0  0  0  0  0  0  0
   33.9670   28.9280   40.5300 H   0  0  0  0  0  0  0  0  0  0  0  0
   34.5510   30.3000   39.4710 H   0  0  0  0  0  0  0  0  0  0  0  0
   36.0010   28.7710   38.0820 H   0  0  0  0  0  0  0  0  0  0  0  0
   35.5220   27.2960   39.0890 H   0  0  0  0  0  0  0  0  0  0  0  0
   36.4560   28.1800   41.4530 C   0  0  0  0  0  0  0  0  0  0  0  0
   37.3250   28.7860   42.5210 C   0  0  0  0  0  0  0  0  0  0  0  0
   37.3210   27.7850   43.6800 C   0  0  0  0  0  0  0  0  0  0  0  0
   38.0780   26.6930   43.2940 O   0  0  0  0  0  0  0  0  0  0  0  0
   37.3330   26.0330   42.3030 C   0  0  0  0  0  0  0  0  0  0  0  0
   37.2350   26.9060   41.0600 C   0  0  0  0  0  0  0  0  0  0  0  0
   35.5160   27.8450   41.9240 H   0  0  0  0  0  0  0  0  0  0  0  0
   36.7960   29.6720   42.9290 H   0  0  0  0  0  0  0  0  0  0  0  0
   38.3640   28.9640   42.2130 H   0  0  0  0  0  0  0  0  0  0  0  0
   36.3070   27.5640   44.0150 H   0  0  0  0  0  0  0  0  0  0  0  0
   37.9040   28.3000   44.4970 H   0  0  0  0  0  0  0  0  0  0  0  0
   37.7230   25.0410   42.0500 H   0  0  0  0  0  0  0  0  0  0  0  0
   36.2870   25.9950   42.7180 H   0  0  0  0  0  0  0  0  0  0  0  0
   36.5690   26.3500   40.3500 H   0  0  0  0  0  0  0  0  0  0  0  0
   38.2060   27.1310   40.6200 H   0  0  0  0  0  0  0  0  0  0  0  0
   38.3370   29.9810   39.3100 C   0  0  0  0  0  0  0  0  0  0  0  0
   37.1820   30.1920   40.0420 C   0  0  0  0  0  0  0  0  0  0  0  0
   36.9300   31.5010   40.5790 C   0  0  0  0  0  0  0  0  0  0  0  0
   37.8660   32.4550   40.3220 N   0  0  0  0  0  0  0  0  0  0  0  0
   38.9640   32.1950   39.6090 C   0  0  0  0  0  0  0  0  0  0  0  0
   39.2140   30.9900   39.1040 N   0  0  0  0  0  0  0  0  0  0  0  0
   38.5740   29.0140   38.8850 H   0  0  0  0  0  0  0  0  0  0  0  0
   36.0240   31.5830   41.1280 H   0  0  0  0  0  0  0  0  0  0  0  0
   39.9170   33.3280   39.3960 C   0  0  2  0  0  3  0  0  0  0  0  0
   40.9460   33.0510   38.3460 C   0  0  0  0  0  3  0  0  0  0  0  0
   40.7240   33.6070   37.3910 H   0  0  0  0  0  0  0  0  0  0  0  0
   42.2390   33.5420   38.9620 C   0  0  0  0  0  3  0  0  0  0  0  0
   42.9300   32.7040   39.1800 H   0  0  0  0  0  0  0  0  0  0  0  0
   41.8910   34.1610   40.1570 O   0  0  0  0  0  0  0  0  0  0  0  0
   40.7850   33.4780   40.6470 C   0  0  0  0  0  3  0  0  0  0  0  0
   40.1950   34.1480   41.3310 H   0  0  0  0  0  0  0  0  0  0  0  0
  1  8  1  0  0  0  0
  2  1  1  0  0  0  0
  2  4  1  0  0  0  0
  3  7  1  0  0  0  0
  3  2  1  0  0  0  0
  3  1  1  0  0  0  0
  5  2  1  0  0  0  0
  6  3  1  0  0  0  0
  8 14  1  0  0  0  0
  8  9  1  0  0  0  0
  9 15  1  0  0  0  0
  9 10  1  0  0  0  0
 10 17  1  0  0  0  0
 10 18  1  0  0  0  0
 11 10  1  0  0  0  0
 12 20  1  0  0  0  0
 12 11  1  0  0  0  0
 13  8  1  0  0  0  0
 13 12  1  0  0  0  0
 16  9  1  0  0  0  0
 19 12  1  0  0  0  0
 21 13  1  0  0  0  0
 22 13  1  0  0  0  0
 23 24  1  0  0  0  0
 24  1  1  0  0  0  0
 24 25  2  0  0  0  0
 25 30  1  0  0  0  0
 26 25  1  0  0  0  0
 27 26  2  0  0  0  0
 28 23  2  0  0  0  0
 28 27  1  0  0  0  0
 29 23  1  0  0  0  0
 31 27  1  1  0  0  0
 31 37  1  0  0  0  0
 32 34  1  0  0  0  0
 32 31  1  0  0  0  0
 33 32  1  0  0  0  0
 34 35  1  0  0  0  0
 34 36  1  0  0  0  0
 36 37  1  0  0  0  0
 37 38  1  0  0  0  0
M  END
>  <minimizedAffinity>
-5.07464218

$$$$

 OpenBabel03242516123D

 38 41  0  0  1  0  0  0  0  0999 V2000
   37.8720   27.6380   42.7400 C   0  0  0  0  0  0  0  0  0  0  0  0
   36.7000   27.7890   43.6790 C   0  0  0  0  0  0  0  0  0  0  0  0
   36.5740   26.9860   42.4590 C   0  0  0  0  0  0  0  0  0  0  0  0
   36.6940   27.3690   44.6840 H   0  0  0  0  0  0  0  0  0  0  0  0
   36.1860   28.7900   43.6510 H   0  0  0  0  0  0  0  0  0  0  0  0
   36.0310   27.3750   41.5670 H   0  0  0  0  0  0  0  0  0  0  0  0
   36.5660   25.8580   42.4790 H   0  0  0  0  0  0  0  0  0  0  0  0
   38.9760   26.7630   43.2600 C   0  0  0  0  0  0  0  0  0  0  0  0
   40.3660   27.2630   42.9730 C   0  0  0  0  0  0  0  0  0  0  0  0
   41.3140   26.2900   43.6800 C   0  0  0  0  0  0  0  0  0  0  0  0
   41.2980   25.1010   42.9740 O   0  0  0  0  0  0  0  0  0  0  0  0
   40.0340   24.5310   43.1990 C   0  0  0  0  0  0  0  0  0  0  0  0
   38.9550   25.3900   42.5540 C   0  0  0  0  0  0  0  0  0  0  0  0
   38.9000   26.5650   44.3420 H   0  0  0  0  0  0  0  0  0  0  0  0
   40.5050   28.2190   43.5200 H   0  0  0  0  0  0  0  0  0  0  0  0
   40.6260   27.2950   41.9060 H   0  0  0  0  0  0  0  0  0  0  0  0
   41.0890   26.2130   44.7440 H   0  0  0  0  0  0  0  0  0  0  0  0
   42.3400   26.7350   43.5240 H   0  0  0  0  0  0  0  0  0  0  0  0
   39.9550   23.4920   42.8620 H   0  0  0  0  0  0  0  0  0  0  0  0
   39.8720   24.6410   44.3080 H   0  0  0  0  0  0  0  0  0  0  0  0
   37.9790   24.9170   42.8390 H   0  0  0  0  0  0  0  0  0  0  0  0
   39.0690   25.4750   41.4740 H   0  0  0  0  0  0  0  0  0  0  0  0
   38.1170   28.8000   40.5600 C   0  0  0  0  0  0  0  0  0  0  0  0
   38.2640   28.8370   41.9350 C   0  0  0  0  0  0  0  0  0  0  0  0
   38.7870   30.0280   42.5450 C   0  0  0  0  0  0  0  0  0  0  0  0
   39.1060   31.0520   41.7080 N   0  0  0  0  0  0  0  0  0  0  0  0
   38.9450   30.9610   40.3860 C   0  0  0  0  0  0  0  0  0  0  0  0
   38.4620   29.8670   39.8030 N   0  0  0  0  0  0  0  0  0  0  0  0
   37.7280   27.9270   40.0510 H   0  0  0  0  0  0  0  0  0  0  0  0
   38.8690   29.9790   43.6030 H   0  0  0  0  0  0  0  0  0  0  0  0
   39.3330   32.1540   39.5730 C   0  0  2  0  0  3  0  0  0  0  0  0
   40.6600   32.0090   38.8970 C   0  0  0  0  0  3  0  0  0  0  0  0
   40.5430   31.8150   37.7930 H   0  0  0  0  0  0  0  0  0  0  0  0
   41.3410   33.3400   39.1370 C   0  0  0  0  0  3  0  0  0  0  0  0
   42.2120   33.2350   39.8140 H   0  0  0  0  0  0  0  0  0  0  0  0
   40.3950   34.1580   39.7440 O   0  0  0  0  0  0  0  0  0  0  0  0
   39.5950   33.3270   40.5200 C   0  0  0  0  0  3  0  0  0  0  0  0
   38.5890   33.8040   40.6770 H   0  0  0  0  0  0  0  0  0  0  0  0
  1  8  1  0  0  0  0
  1  2  1  0  0  0  0
  2  4  1  0  0  0  0
  3  7  1  0  0  0  0
  3  1  1  0  0  0  0
  3  2  1  0  0  0  0
  5  2  1  0  0  0  0
  6  3  1  0  0  0  0
  8 14  1  0  0  0  0
  9  8  1  0  0  0  0
  9 15  1  0  0  0  0
  9 10  1  0  0  0  0
 10 17  1  0  0  0  0
 11 12  1  0  0  0  0
 11 10  1  0  0  0  0
 12 20  1  0  0  0  0
 13 21  1  0  0  0  0
 13 12  1  0  0  0  0
 13  8  1  0  0  0  0
 16  9  1  0  0  0  0
 18 10  1  0  0  0  0
 19 12  1  0  0  0  0
 22 13  1  0  0  0  0
 23 24  1  0  0  0  0
 24 25  2  0  0  0  0
 24  1  1  0  0  0  0
 25 30  1  0  0  0  0
 26 25  1  0  0  0  0
 27 26  2  0  0  0  0
 28 27  1  0  0  0  0
 28 23  2  0  0  0  0
 29 23  1  0  0  0  0
 31 27  1  1  0  0  0
 31 37  1  0  0  0  0
 32 34  1  0  0  0  0
 32 31  1  0  0  0  0
 33 32  1  0  0  0  0
 34 36  1  0  0  0  0
 34 35  1  0  0  0  0
 36 37  1  0  0  0  0
 37 38  1  0  0  0  0
M  END
>  <minimizedAffinity>
-5.02951145

$$$$

 OpenBabel03242516123D

 38 41  0  0  1  0  0  0  0  0999 V2000
   37.6020   27.3310   42.2500 C   0  0  0  0  0  0  0  0  0  0  0  0
   38.0630   27.1800   43.6790 C   0  0  0  0  0  0  0  0  0  0  0  0
   36.6390   27.3480   43.3720 C   0  0  0  0  0  0  0  0  0  0  0  0
   38.4940   26.2570   44.0640 H   0  0  0  0  0  0  0  0  0  0  0  0
   38.5690   28.0830   44.1210 H   0  0  0  0  0  0  0  0  0  0  0  0
   36.1240   28.3220   43.5410 H   0  0  0  0  0  0  0  0  0  0  0  0
   35.9080   26.4900   43.4160 H   0  0  0  0  0  0  0  0  0  0  0  0
   37.6800   26.0720   41.4350 C   0  0  0  0  0  0  0  0  0  0  0  0
   37.1610   26.1970   40.0290 C   0  0  0  0  0  0  0  0  0  0  0  0
   37.4360   24.8470   39.3610 C   0  0  0  0  0  0  0  0  0  0  0  0
   36.5550   23.9250   39.8980 O   0  0  0  0  0  0  0  0  0  0  0  0
   36.9730   23.7140   41.2230 C   0  0  0  0  0  0  0  0  0  0  0  0
   36.7680   24.9820   42.0400 C   0  0  0  0  0  0  0  0  0  0  0  0
   38.6960   25.6460   41.3900 H   0  0  0  0  0  0  0  0  0  0  0  0
   37.8180   26.9050   39.4840 H   0  0  0  0  0  0  0  0  0  0  0  0
   36.0860   26.4120   39.9590 H   0  0  0  0  0  0  0  0  0  0  0  0
   38.4920   24.5810   39.4150 H   0  0  0  0  0  0  0  0  0  0  0  0
   37.1200   24.9950   38.2880 H   0  0  0  0  0  0  0  0  0  0  0  0
   36.4870   22.8590   41.7050 H   0  0  0  0  0  0  0  0  0  0  0  0
   38.0900   23.5910   41.1480 H   0  0  0  0  0  0  0  0  0  0  0  0
   37.1910   24.7610   43.0550 H   0  0  0  0  0  0  0  0  0  0  0  0
   35.7250   25.2920   42.0900 H   0  0  0  0  0  0  0  0  0  0  0  0
   36.9300   29.5680   41.4090 C   0  0  0  0  0  0  0  0  0  0  0  0
   37.9260   28.6190   41.5600 C   0  0  0  0  0  0  0  0  0  0  0  0
   39.2380   28.9030   41.0490 C   0  0  0  0  0  0  0  0  0  0  0  0
   39.4090   30.1090   40.4420 N   0  0  0  0  0  0  0  0  0  0  0  0
   38.4110   30.9880   40.3230 C   0  0  0  0  0  0  0  0  0  0  0  0
   37.1890   30.7430   40.7900 N   0  0  0  0  0  0  0  0  0  0  0  0
   35.9250   29.4040   41.7750 H   0  0  0  0  0  0  0  0  0  0  0  0
   39.9460   28.1260   41.2040 H   0  0  0  0  0  0  0  0  0  0  0  0
   38.7230   32.2780   39.6350 C   0  0  2  0  0  3  0  0  0  0  0  0
   39.8550   32.1760   38.6620 C   0  0  0  0  0  3  0  0  0  0  0  0
   39.4860   32.1800   37.5970 H   0  0  0  0  0  0  0  0  0  0  0  0
   40.6910   33.4070   38.9420 C   0  0  0  0  0  3  0  0  0  0  0  0
   41.6740   33.1410   39.3790 H   0  0  0  0  0  0  0  0  0  0  0  0
   39.9780   34.1610   39.8660 O   0  0  0  0  0  0  0  0  0  0  0  0
   39.2900   33.2560   40.6670 C   0  0  0  0  0  3  0  0  0  0  0  0
   38.3900   33.7550   41.1200 H   0  0  0  0  0  0  0  0  0  0  0  0
  1  3  1  0  0  0  0
  1  2  1  0  0  0  0
  2  4  1  0  0  0  0
  2  5  1  0  0  0  0
  3  7  1  0  0  0  0
  3  6  1  0  0  0  0
  3  2  1  0  0  0  0
  8 13  1  0  0  0  0
  8  1  1  0  0  0  0
  9  8  1  0  0  0  0
 10 17  1  0  0  0  0
 10 11  1  0  0  0  0
 10  9  1  0  0  0  0
 11 12  1  0  0  0  0
 12 19  1  0  0  0  0
 12 13  1  0  0  0  0
 13 22  1  0  0  0  0
 13 21  1  0  0  0  0
 14  8  1  0  0  0  0
 15  9  1  0  0  0  0
 16  9  1  0  0  0  0
 18 10  1  0  0  0  0
 20 12  1  0  0  0  0
 23 24  1  0  0  0  0
 23 29  1  0  0  0  0
 24  1  1  0  0  0  0
 25 30  1  0  0  0  0
 25 24  2  0  0  0  0
 26 25  1  0  0  0  0
 27 26  2  0  0  0  0
 27 28  1  0  0  0  0
 28 23  2  0  0  0  0
 31 27  1  1  0  0  0
 31 37  1  0  0  0  0
 32 34  1  0  0  0  0
 32 31  1  0  0  0  0
 33 32  1  0  0  0  0
 34 35  1  0  0  0  0
 34 36  1  0  0  0  0
 36 37  1  0  0  0  0
 37 38  1  0  0  0  0
M  END
>  <minimizedAffinity>
-4.9227953

$$$$

 OpenBabel03242516123D

 38 41  0  0  1  0  0  0  0  0999 V2000
   37.0270   30.5750   39.0120 C   0  0  0  0  0  0  0  0  0  0  0  0
   36.9450   32.0650   39.2450 C   0  0  0  0  0  0  0  0  0  0  0  0
   37.9620   31.5090   38.3460 C   0  0  0  0  0  0  0  0  0  0  0  0
   36.1030   32.6670   38.9070 H   0  0  0  0  0  0  0  0  0  0  0  0
   37.3270   32.4190   40.2420 H   0  0  0  0  0  0  0  0  0  0  0  0
   39.0260   31.4220   38.6640 H   0  0  0  0  0  0  0  0  0  0  0  0
   37.8780   31.5840   37.2230 H   0  0  0  0  0  0  0  0  0  0  0  0
   35.9110   30.0150   38.1770 C   0  0  0  0  0  0  0  0  0  0  0  0
   35.1430   28.8930   38.8210 C   0  0  0  0  0  0  0  0  0  0  0  0
   34.0050   28.5570   37.8540 C   0  0  0  0  0  0  0  0  0  0  0  0
   34.5580   27.9190   36.7590 O   0  0  0  0  0  0  0  0  0  0  0  0
   35.2860   28.8980   36.0640 C   0  0  0  0  0  0  0  0  0  0  0  0
   36.4740   29.3540   36.9000 C   0  0  0  0  0  0  0  0  0  0  0  0
   35.1900   30.7800   37.8470 H   0  0  0  0  0  0  0  0  0  0  0  0
   34.6260   29.3020   39.7140 H   0  0  0  0  0  0  0  0  0  0  0  0
   35.7320   27.9830   39.0010 H   0  0  0  0  0  0  0  0  0  0  0  0
   33.3950   29.4350   37.6330 H   0  0  0  0  0  0  0  0  0  0  0  0
   33.3950   27.7790   38.3980 H   0  0  0  0  0  0  0  0  0  0  0  0
   35.6130   28.5780   35.0690 H   0  0  0  0  0  0  0  0  0  0  0  0
   34.5950   29.7870   36.0270 H   0  0  0  0  0  0  0  0  0  0  0  0
   36.9570   30.1810   36.3170 H   0  0  0  0  0  0  0  0  0  0  0  0
   37.1720   28.5480   37.1210 H   0  0  0  0  0  0  0  0  0  0  0  0
   38.5460   28.8230   39.8970 C   0  0  0  0  0  0  0  0  0  0  0  0
   37.5330   29.7340   40.1400 C   0  0  0  0  0  0  0  0  0  0  0  0
   37.0020   29.8410   41.4710 C   0  0  0  0  0  0  0  0  0  0  0  0
   37.5450   29.0220   42.4120 N   0  0  0  0  0  0  0  0  0  0  0  0
   38.5220   28.1600   42.1210 C   0  0  0  0  0  0  0  0  0  0  0  0
   39.0270   28.0460   40.8950 N   0  0  0  0  0  0  0  0  0  0  0  0
   38.9800   28.7030   38.9130 H   0  0  0  0  0  0  0  0  0  0  0  0
   36.2290   30.5620   41.5780 H   0  0  0  0  0  0  0  0  0  0  0  0
   39.0350   27.3140   43.2420 C   0  0  2  0  0  3  0  0  0  0  0  0
   40.5090   27.4470   43.4620 C   0  0  0  0  0  3  0  0  0  0  0  0
   40.7370   28.0630   44.3770 H   0  0  0  0  0  0  0  0  0  0  0  0
   40.9820   26.0200   43.6460 C   0  0  0  0  0  3  0  0  0  0  0  0
   41.6210   25.6900   42.8040 H   0  0  0  0  0  0  0  0  0  0  0  0
   39.8380   25.2310   43.6770 O   0  0  0  0  0  0  0  0  0  0  0  0
   38.9140   25.8430   42.8380 C   0  0  0  0  0  3  0  0  0  0  0  0
   37.8720   25.5450   43.1360 H   0  0  0  0  0  0  0  0  0  0  0  0
  1  2  1  0  0  0  0
  1 24  1  0  0  0  0
  2  5  1  0  0  0  0
  3  6  1  0  0  0  0
  3  1  1  0  0  0  0
  3  2  1  0  0  0  0
  4  2  1  0  0  0  0
  7  3  1  0  0  0  0
  8  9  1  0  0  0  0
  8  1  1  0  0  0  0
  9 16  1  0  0  0  0
  9 15  1  0  0  0  0
 10 18  1  0  0  0  0
 10  9  1  0  0  0  0
 11 10  1  0  0  0  0
 12 11  1  0  0  0  0
 12 13  1  0  0  0  0
 13 22  1  0  0  0  0
 13  8  1  0  0  0  0
 14  8  1  0  0  0  0
 17 10  1  0  0  0  0
 19 12  1  0  0  0  0
 20 12  1  0  0  0  0
 21 13  1  0  0  0  0
 23 24  2  0  0  0  0
 23 28  1  0  0  0  0
 24 25  1  0  0  0  0
 25 30  1  0  0  0  0
 25 26  2  0  0  0  0
 27 26  1  0  0  0  0
 28 27  2  0  0  0  0
 29 23  1  0  0  0  0
 31 27  1  6  0  0  0
 31 32  1  0  0  0  0
 32 34  1  0  0  0  0
 32 33  1  0  0  0  0
 34 36  1  0  0  0  0
 35 34  1  0  0  0  0
 37 38  1  0  0  0  0
 37 31  1  0  0  0  0
 37 36  1  0  0  0  0
M  END
>  <minimizedAffinity>
-4.87678671

$$$$

 OpenBabel03242516123D

 38 41  0  0  1  0  0  0  0  0999 V2000
   37.2470   27.7690   42.2410 C   0  0  0  0  0  0  0  0  0  0  0  0
   36.4120   27.2900   43.4040 C   0  0  0  0  0  0  0  0  0  0  0  0
   37.2730   26.3540   42.6740 C   0  0  0  0  0  0  0  0  0  0  0  0
   36.5940   27.6070   44.4290 H   0  0  0  0  0  0  0  0  0  0  0  0
   35.3100   27.1900   43.1960 H   0  0  0  0  0  0  0  0  0  0  0  0
   36.8470   25.6280   41.9450 H   0  0  0  0  0  0  0  0  0  0  0  0
   38.2490   25.9790   43.0980 H   0  0  0  0  0  0  0  0  0  0  0  0
   38.4200   28.6230   42.6300 C   0  0  0  0  0  0  0  0  0  0  0  0
   38.4730   29.9670   41.9560 C   0  0  0  0  0  0  0  0  0  0  0  0
   39.6680   30.6980   42.5740 C   0  0  0  0  0  0  0  0  0  0  0  0
   40.8200   30.1030   42.0920 O   0  0  0  0  0  0  0  0  0  0  0  0
   40.8810   28.8330   42.6900 C   0  0  0  0  0  0  0  0  0  0  0  0
   39.7410   27.9630   42.1780 C   0  0  0  0  0  0  0  0  0  0  0  0
   38.5000   28.7810   43.7180 H   0  0  0  0  0  0  0  0  0  0  0  0
   37.5940   30.5540   42.2950 H   0  0  0  0  0  0  0  0  0  0  0  0
   38.6120   29.9240   40.8670 H   0  0  0  0  0  0  0  0  0  0  0  0
   39.5830   30.7570   43.6600 H   0  0  0  0  0  0  0  0  0  0  0  0
   39.6320   31.7300   42.1190 H   0  0  0  0  0  0  0  0  0  0  0  0
   41.8440   28.3300   42.5520 H   0  0  0  0  0  0  0  0  0  0  0  0
   40.6420   29.0220   43.7740 H   0  0  0  0  0  0  0  0  0  0  0  0
   39.8110   27.0020   42.7510 H   0  0  0  0  0  0  0  0  0  0  0  0
   39.7790   27.8010   41.1020 H   0  0  0  0  0  0  0  0  0  0  0  0
   36.8670   27.4730   39.8060 C   0  0  0  0  0  0  0  0  0  0  0  0
   36.5250   28.1220   40.9800 C   0  0  0  0  0  0  0  0  0  0  0  0
   35.4870   29.1150   40.9460 C   0  0  0  0  0  0  0  0  0  0  0  0
   34.9040   29.3480   39.7390 N   0  0  0  0  0  0  0  0  0  0  0  0
   35.2750   28.6910   38.6370 C   0  0  0  0  0  0  0  0  0  0  0  0
   36.2340   27.7680   38.6480 N   0  0  0  0  0  0  0  0  0  0  0  0
   37.6410   26.7180   39.7770 H   0  0  0  0  0  0  0  0  0  0  0  0
   35.2830   29.5670   41.8850 H   0  0  0  0  0  0  0  0  0  0  0  0
   34.5590   29.0360   37.3700 C   0  0  2  0  0  3  0  0  0  0  0  0
   33.6470   27.9530   36.8860 C   0  0  0  0  0  3  0  0  0  0  0  0
   32.5660   28.2080   37.0750 H   0  0  0  0  0  0  0  0  0  0  0  0
   33.9260   27.8770   35.4000 C   0  0  0  0  0  3  0  0  0  0  0  0
   34.4200   26.9230   35.1270 H   0  0  0  0  0  0  0  0  0  0  0  0
   34.7870   28.9280   35.1100 O   0  0  0  0  0  0  0  0  0  0  0  0
   35.5830   29.1080   36.2350 C   0  0  0  0  0  3  0  0  0  0  0  0
   35.9730   30.1620   36.2620 H   0  0  0  0  0  0  0  0  0  0  0  0
  1  8  1  0  0  0  0
  1  3  1  0  0  0  0
  1  2  1  0  0  0  0
  2  4  1  0  0  0  0
  3  7  1  0  0  0  0
  3  2  1  0  0  0  0
  5  2  1  0  0  0  0
  6  3  1  0  0  0  0
  8 14  1  0  0  0  0
  9 15  1  0  0  0  0
  9 10  1  0  0  0  0
  9  8  1  0  0  0  0
 10 17  1  0  0  0  0
 11 10  1  0  0  0  0
 11 12  1  0  0  0  0
 12 20  1  0  0  0  0
 13  8  1  0  0  0  0
 13 12  1  0  0  0  0
 13 21  1  0  0  0  0
 16  9  1  0  0  0  0
 18 10  1  0  0  0  0
 19 12  1  0  0  0  0
 22 13  1  0  0  0  0
 23 24  1  0  0  0  0
 24  1  1  0  0  0  0
 25 24  2  0  0  0  0
 25 30  1  0  0  0  0
 26 25  1  0  0  0  0
 27 28  1  0  0  0  0
 27 26  2  0  0  0  0
 28 23  2  0  0  0  0
 29 23  1  0  0  0  0
 31 27  1  1  0  0  0
 32 33  1  0  0  0  0
 32 31  1  0  0  0  0
 34 32  1  0  0  0  0
 35 34  1  0  0  0  0
 36 34  1  0  0  0  0
 36 37  1  0  0  0  0
 37 38  1  0  0  0  0
 37 31  1  0  0  0  0
M  END
>  <minimizedAffinity>
-4.83659363

$$$$

 OpenBabel03242516123D

 38 41  0  0  1  0  0  0  0  0999 V2000
   38.1850   31.4090   39.6820 C   0  0  0  0  0  0  0  0  0  0  0  0
   37.3120   31.4460   38.4520 C   0  0  0  0  0  0  0  0  0  0  0  0
   36.9450   32.2150   39.6460 C   0  0  0  0  0  0  0  0  0  0  0  0
   37.6340   31.9000   37.5160 H   0  0  0  0  0  0  0  0  0  0  0  0
   36.6970   30.5220   38.2680 H   0  0  0  0  0  0  0  0  0  0  0  0
   36.1340   31.8690   40.3270 H   0  0  0  0  0  0  0  0  0  0  0  0
   37.0750   33.3340   39.7040 H   0  0  0  0  0  0  0  0  0  0  0  0
   39.4850   32.1480   39.5450 C   0  0  0  0  0  0  0  0  0  0  0  0
   40.6920   31.4020   40.0450 C   0  0  0  0  0  0  0  0  0  0  0  0
   41.8970   32.2850   39.7090 C   0  0  0  0  0  0  0  0  0  0  0  0
   41.8720   33.3730   40.5630 O   0  0  0  0  0  0  0  0  0  0  0  0
   40.7810   34.1600   40.1590 C   0  0  0  0  0  0  0  0  0  0  0  0
   39.4790   33.4170   40.4250 C   0  0  0  0  0  0  0  0  0  0  0  0
   39.6890   32.4790   38.5130 H   0  0  0  0  0  0  0  0  0  0  0  0
   40.8280   30.5060   39.4050 H   0  0  0  0  0  0  0  0  0  0  0  0
   40.6890   31.2070   41.1260 H   0  0  0  0  0  0  0  0  0  0  0  0
   41.9380   32.5180   38.6440 H   0  0  0  0  0  0  0  0  0  0  0  0
   42.7910   31.6660   40.0120 H   0  0  0  0  0  0  0  0  0  0  0  0
   40.7620   35.1530   40.6220 H   0  0  0  0  0  0  0  0  0  0  0  0
   40.8690   34.2060   39.0380 H   0  0  0  0  0  0  0  0  0  0  0  0
   38.6670   34.0700   40.0110 H   0  0  0  0  0  0  0  0  0  0  0  0
   39.3250   33.1910   41.4790 H   0  0  0  0  0  0  0  0  0  0  0  0
   37.8070   30.1750   41.8040 C   0  0  0  0  0  0  0  0  0  0  0  0
   38.1950   30.1400   40.4750 C   0  0  0  0  0  0  0  0  0  0  0  0
   38.5930   28.8840   39.9020 C   0  0  0  0  0  0  0  0  0  0  0  0
   38.5590   27.8000   40.7250 N   0  0  0  0  0  0  0  0  0  0  0  0
   38.1770   27.8930   42.0000 C   0  0  0  0  0  0  0  0  0  0  0  0
   37.8040   29.0470   42.5490 N   0  0  0  0  0  0  0  0  0  0  0  0
   37.4990   31.0950   42.2830 H   0  0  0  0  0  0  0  0  0  0  0  0
   38.8750   28.9390   38.8800 H   0  0  0  0  0  0  0  0  0  0  0  0
   38.1830   26.6300   42.8020 C   0  0  2  0  0  3  0  0  0  0  0  0
   39.4730   26.3850   43.5190 C   0  0  0  0  0  3  0  0  0  0  0  0
   39.3790   26.5940   44.6230 H   0  0  0  0  0  0  0  0  0  0  0  0
   39.7550   24.9180   43.2740 C   0  0  0  0  0  3  0  0  0  0  0  0
   40.6420   24.7770   42.6250 H   0  0  0  0  0  0  0  0  0  0  0  0
   38.6370   24.4090   42.6240 O   0  0  0  0  0  0  0  0  0  0  0  0
   38.1330   25.4410   41.8410 C   0  0  0  0  0  3  0  0  0  0  0  0
   37.0390   25.2710   41.6450 H   0  0  0  0  0  0  0  0  0  0  0  0
  1 24  1  0  0  0  0
  2  3  1  0  0  0  0
  2  1  1  0  0  0  0
  3  1  1  0  0  0  0
  3  7  1  0  0  0  0
  3  6  1  0  0  0  0
  4  2  1  0  0  0  0
  5  2  1  0  0  0  0
  8  1  1  0  0  0  0
  8  9  1  0  0  0  0
  8 13  1  0  0  0  0
  9 16  1  0  0  0  0
 10 18  1  0  0  0  0
 10  9  1  0  0  0  0
 10 11  1  0  0  0  0
 12 13  1  0  0  0  0
 12 11  1  0  0  0  0
 12 19  1  0  0  0  0
 13 22  1  0  0  0  0
 14  8  1  0  0  0  0
 15  9  1  0  0  0  0
 17 10  1  0  0  0  0
 20 12  1  0  0  0  0
 21 13  1  0  0  0  0
 23 29  1  0  0  0  0
 23 28  1  0  0  0  0
 24 23  2  0  0  0  0
 25 24  1  0  0  0  0
 25 26  2  0  0  0  0
 26 27  1  0  0  0  0
 27 28  2  0  0  0  0
 30 25  1  0  0  0  0
 31 27  1  6  0  0  0
 31 32  1  0  0  0  0
 32 33  1  0  0  0  0
 34 32  1  0  0  0  0
 35 34  1  0  0  0  0
 36 34  1  0  0  0  0
 37 36  1  0  0  0  0
 37 31  1  0  0  0  0
 38 37  1  0  0  0  0
M  END
>  <minimizedAffinity>
-4.77730465

$$$$

 OpenBabel03242516123D

 38 41  0  0  1  0  0  0  0  0999 V2000
   37.8400   25.4480   41.7220 C   0  0  0  0  0  0  0  0  0  0  0  0
   36.8070   24.7270   42.5530 C   0  0  0  0  0  0  0  0  0  0  0  0
   37.1540   24.2400   41.2140 C   0  0  0  0  0  0  0  0  0  0  0  0
   37.0560   24.1990   43.4720 H   0  0  0  0  0  0  0  0  0  0  0  0
   35.8090   25.2410   42.6340 H   0  0  0  0  0  0  0  0  0  0  0  0
   36.4760   24.4100   40.3460 H   0  0  0  0  0  0  0  0  0  0  0  0
   37.7990   23.3290   41.0530 H   0  0  0  0  0  0  0  0  0  0  0  0
   39.2530   25.2790   42.2030 C   0  0  0  0  0  0  0  0  0  0  0  0
   39.6780   26.2530   43.2680 C   0  0  0  0  0  0  0  0  0  0  0  0
   41.0910   25.8320   43.6800 C   0  0  0  0  0  0  0  0  0  0  0  0
   41.9470   26.1640   42.6450 O   0  0  0  0  0  0  0  0  0  0  0  0
   41.6470   25.2820   41.5930 C   0  0  0  0  0  0  0  0  0  0  0  0
   40.2500   25.5670   41.0590 C   0  0  0  0  0  0  0  0  0  0  0  0
   39.4690   24.2600   42.5640 H   0  0  0  0  0  0  0  0  0  0  0  0
   39.0650   26.0600   44.1720 H   0  0  0  0  0  0  0  0  0  0  0  0
   39.7050   27.3020   42.9400 H   0  0  0  0  0  0  0  0  0  0  0  0
   41.1200   24.7900   44.0040 H   0  0  0  0  0  0  0  0  0  0  0  0
   41.3510   26.5190   44.5360 H   0  0  0  0  0  0  0  0  0  0  0  0
   42.3830   25.3010   40.7820 H   0  0  0  0  0  0  0  0  0  0  0  0
   41.5720   24.2730   42.0870 H   0  0  0  0  0  0  0  0  0  0  0  0
   40.0550   24.7820   40.2830 H   0  0  0  0  0  0  0  0  0  0  0  0
   40.1450   26.5740   40.6590 H   0  0  0  0  0  0  0  0  0  0  0  0
   37.1540   26.8830   39.8160 C   0  0  0  0  0  0  0  0  0  0  0  0
   37.4580   26.7820   41.1620 C   0  0  0  0  0  0  0  0  0  0  0  0
   37.3950   27.9630   41.9780 C   0  0  0  0  0  0  0  0  0  0  0  0
   37.0340   29.1170   41.3530 N   0  0  0  0  0  0  0  0  0  0  0  0
   36.7520   29.1570   40.0490 C   0  0  0  0  0  0  0  0  0  0  0  0
   36.8040   28.0740   39.2780 N   0  0  0  0  0  0  0  0  0  0  0  0
   37.1860   26.0240   39.1580 H   0  0  0  0  0  0  0  0  0  0  0  0
   37.6420   27.8040   42.9990 H   0  0  0  0  0  0  0  0  0  0  0  0
   36.3680   30.4850   39.4790 C   0  0  2  0  0  3  0  0  0  0  0  0
   37.1060   30.8310   38.2250 C   0  0  0  0  0  3  0  0  0  0  0  0
   36.4510   30.7190   37.3150 H   0  0  0  0  0  0  0  0  0  0  0  0
   37.5050   32.2780   38.4220 C   0  0  0  0  0  3  0  0  0  0  0  0
   38.6030   32.3880   38.5290 H   0  0  0  0  0  0  0  0  0  0  0  0
   36.8950   32.6940   39.6000 O   0  0  0  0  0  0  0  0  0  0  0  0
   36.8470   31.5820   40.4330 C   0  0  0  0  0  3  0  0  0  0  0  0
   36.0160   31.7010   41.1800 H   0  0  0  0  0  0  0  0  0  0  0  0
  1  8  1  0  0  0  0
  1  2  1  0  0  0  0
  2  5  1  0  0  0  0
  2  4  1  0  0  0  0
  3  1  1  0  0  0  0
  3  2  1  0  0  0  0
  6  3  1  0  0  0  0
  7  3  1  0  0  0  0
  8 14  1  0  0  0  0
  8  9  1  0  0  0  0
  9 10  1  0  0  0  0
  9 15  1  0  0  0  0
 10 17  1  0  0  0  0
 10 18  1  0  0  0  0
 11 10  1  0  0  0  0
 12 20  1  0  0  0  0
 12 11  1  0  0  0  0
 13 12  1  0  0  0  0
 13  8  1  0  0  0  0
 16  9  1  0  0  0  0
 19 12  1  0  0  0  0
 21 13  1  0  0  0  0
 22 13  1  0  0  0  0
 23 24  1  0  0  0  0
 24  1  1  0  0  0  0
 24 25  2  0  0  0  0
 25 30  1  0  0  0  0
 26 25  1  0  0  0  0
 27 26  2  0  0  0  0
 28 23  2  0  0  0  0
 28 27  1  0  0  0  0
 29 23  1  0  0  0  0
 31 27  1  1  0  0  0
 31 37  1  0  0  0  0
 32 34  1  0  0  0  0
 32 31  1  0  0  0  0
 33 32  1  0  0  0  0
 34 35  1  0  0  0  0
 34 36  1  0  0  0  0
 36 37  1  0  0  0  0
 37 38  1  0  0  0  0
M  END
>  <minimizedAffinity>
-4.73443985

$$$$
