
 OpenBabel03252507083D

 23 24  0  0  1  0  0  0  0  0999 V2000
   44.5680   35.7880   44.6450 C   0  0  0  0  0  0  0  0  0  0  0  0
   45.1770   35.8010   43.3660 C   0  0  0  0  0  0  0  0  0  0  0  0
   46.1430   34.8440   43.0860 C   0  0  0  0  0  0  0  0  0  0  0  0
   46.4550   33.9400   44.0620 N   0  0  0  0  0  0  0  0  0  0  0  0
   45.8650   33.9480   45.2640 C   0  0  0  0  0  0  0  0  0  0  0  0
   44.9180   34.8740   45.5600 N   0  0  0  0  0  0  0  0  0  0  0  0
   43.8270   36.5800   44.7520 H   0  0  0  0  0  0  0  0  0  0  0  0
   44.9170   36.5250   42.6030 H   0  0  0  0  0  0  0  0  0  0  0  0
   46.2000   32.9760   46.3160 C   0  0  1  0  0  3  0  0  0  0  0  0
   45.2070   33.0360   47.4840 C   0  0  0  0  0  3  0  0  0  0  0  0
   45.4680   33.9170   48.1080 H   0  0  0  0  0  0  0  0  0  0  0  0
   45.6010   31.7250   48.1350 C   0  0  0  0  0  3  0  0  0  0  0  0
   44.8550   31.3390   48.8420 H   0  0  0  0  0  0  0  0  0  0  0  0
   45.9540   30.8560   47.1200 O   0  0  0  0  0  0  0  0  0  0  0  0
   46.0420   31.5420   45.9360 C   0  0  0  0  0  3  0  0  0  0  0  0
   45.0640   31.3830   45.3980 H   0  0  0  0  0  0  0  0  0  0  0  0
   46.7270   34.8670   41.8380 O   0  0  0  0  0  0  0  0  0  0  0  0
   48.6790   33.2390   41.1090 O   0  0  0  0  0  0  0  0  0  0  0  0
   48.4220   34.6340   41.6920 P   0  0  0  0  0  0  0  0  0  0  0  0
   49.0740   35.8390   40.7530 O   0  0  0  0  0  0  0  0  0  0  0  0
   49.9010   36.1950   41.1920 H   0  0  0  0  0  0  0  0  0  0  0  0
   49.0670   34.6430   43.2700 O   0  0  0  0  0  0  0  0  0  0  0  0
   48.9900   33.7320   43.6160 H   0  0  0  0  0  0  0  0  0  0  0  0
  1  7  1  0  0  0  0
  1  6  1  0  0  0  0
  2  1  2  0  0  0  0
  3  2  1  0  0  0  0
  3  4  2  0  0  0  0
  4  5  1  0  0  0  0
  5  6  2  0  0  0  0
  8  2  1  0  0  0  0
  9  5  1  6  0  0  0
  9 10  1  0  0  0  0
 10 11  1  0  0  0  0
 10 12  1  0  0  0  0
 12 13  1  0  0  0  0
 14 12  1  0  0  0  0
 15  9  1  0  0  0  0
 15 14  1  0  0  0  0
 16 15  1  0  0  0  0
 17  3  1  0  0  0  0
 18 19  2  0  0  0  0
 19 17  1  0  0  0  0
 19 22  1  0  0  0  0
 20 21  1  0  0  0  0
 20 19  1  0  0  0  0
 22 23  1  0  0  0  0
M  END
>  <minimizedAffinity>
-5.36666107

>  <minimizedRMSD>
0.3255831

$$$$
