
 OpenBabel03252502173D

 23 24  0  0  1  0  0  0  0  0999 V2000
   45.2360   34.2870   40.7420 C   0  0  0  0  0  0  0  0  0  0  0  0
   46.5130   33.9780   41.2620 C   0  0  0  0  0  0  0  0  0  0  0  0
   46.8770   34.5340   42.5090 C   0  0  0  0  0  0  0  0  0  0  0  0
   45.9920   35.3340   43.1470 N   0  0  0  0  0  0  0  0  0  0  0  0
   44.7770   35.5990   42.6030 C   0  0  0  0  0  0  0  0  0  0  0  0
   44.3890   35.0920   41.4190 N   0  0  0  0  0  0  0  0  0  0  0  0
   44.9500   33.8710   39.7960 H   0  0  0  0  0  0  0  0  0  0  0  0
   44.1350   36.2400   43.1670 H   0  0  0  0  0  0  0  0  0  0  0  0
   48.2270   34.1880   43.0290 C   0  0  2  0  0  3  0  0  0  0  0  0
   49.3130   34.9950   42.3440 C   0  0  0  0  0  3  0  0  0  0  0  0
   49.4800   35.9810   42.7990 H   0  0  0  0  0  0  0  0  0  0  0  0
   50.4890   34.0540   42.5070 C   0  0  0  0  0  3  0  0  0  0  0  0
   50.8370   34.1610   43.5480 H   0  0  0  0  0  0  0  0  0  0  0  0
   49.9340   32.8300   42.1980 O   0  0  0  0  0  0  0  0  0  0  0  0
   48.6480   32.7960   42.6700 C   0  0  0  0  0  3  0  0  0  0  0  0
   48.6470   32.1860   43.6110 H   0  0  0  0  0  0  0  0  0  0  0  0
   47.3120   33.1510   40.5070 O   0  0  0  0  0  0  0  0  0  0  0  0
   48.9280   32.6670   38.4680 O   0  0  0  0  0  0  0  0  0  0  0  0
   47.9610   33.6630   39.0010 P   0  0  0  0  0  0  0  0  0  0  0  0
   46.7210   33.8440   37.8610 O   0  0  0  0  0  0  0  0  0  0  0  0
   46.3750   32.9200   37.6830 H   0  0  0  0  0  0  0  0  0  0  0  0
   48.7460   35.1450   39.1800 O   0  0  0  0  0  0  0  0  0  0  0  0
   48.3500   35.7120   39.8760 H   0  0  0  0  0  0  0  0  0  0  0  0
  1  2  2  0  0  0  0
  1  6  1  0  0  0  0
  2  3  1  0  0  0  0
  3  4  2  0  0  0  0
  5  4  1  0  0  0  0
  5  8  1  0  0  0  0
  6  5  2  0  0  0  0
  7  1  1  0  0  0  0
  9  3  1  6  0  0  0
 10 12  1  0  0  0  0
 10 11  1  0  0  0  0
 10  9  1  0  0  0  0
 12 13  1  0  0  0  0
 14 12  1  0  0  0  0
 14 15  1  0  0  0  0
 15  9  1  0  0  0  0
 15 16  1  0  0  0  0
 17  2  1  0  0  0  0
 18 19  2  0  0  0  0
 19 22  1  0  0  0  0
 19 17  1  0  0  0  0
 20 19  1  0  0  0  0
 21 20  1  0  0  0  0
 22 23  1  0  0  0  0
M  END
>  <minimizedAffinity>
-4.45766258

>  <minimizedRMSD>
3.12319875

$$$$
