
 OpenBabel03252509043D

 47 49  0  0  1  0  0  0  0  0999 V2000
   46.6630   34.3930   43.4960 N   0  0  0  0  0  0  0  0  0  0  0  0
   46.4490   34.9490   42.2160 C   0  0  0  0  0  0  0  0  0  0  0  0
   44.9940   35.0210   41.7880 C   0  0  0  0  0  0  0  0  0  0  0  0
   44.0240   35.2700   42.9140 C   0  0  0  0  0  0  0  0  0  0  0  0
   44.7460   35.4820   44.2320 C   0  0  0  0  0  0  0  0  0  0  0  0
   45.6260   34.1780   44.3790 C   0  0  2  0  0  0  0  0  0  0  0  0
   46.8030   36.0110   42.2480 H   0  0  0  0  0  0  0  0  0  0  0  0
   46.9920   34.4900   41.3790 H   0  0  0  0  0  0  0  0  0  0  0  0
   44.9280   35.7760   40.9910 H   0  0  0  0  0  0  0  0  0  0  0  0
   44.7450   34.0360   41.3290 H   0  0  0  0  0  0  0  0  0  0  0  0
   43.3840   36.1360   42.6550 H   0  0  0  0  0  0  0  0  0  0  0  0
   43.3250   34.4200   43.0730 H   0  0  0  0  0  0  0  0  0  0  0  0
   44.0160   35.4480   45.0480 H   0  0  0  0  0  0  0  0  0  0  0  0
   45.4120   36.3490   44.2130 H   0  0  0  0  0  0  0  0  0  0  0  0
   44.9260   33.3460   44.1630 H   0  0  0  0  0  0  0  0  0  0  0  0
   47.8150   33.5360   43.5730 C   0  0  0  0  0  0  0  0  0  0  0  0
   47.9400   33.2020   44.6330 H   0  0  0  0  0  0  0  0  0  0  0  0
   48.7140   34.1250   43.2770 H   0  0  0  0  0  0  0  0  0  0  0  0
   47.6000   32.3410   42.6990 C   0  0  0  0  0  0  0  0  0  0  0  0
   47.3770   31.4520   43.2840 H   0  0  0  0  0  0  0  0  0  0  0  0
   46.7510   32.5080   42.0070 H   0  0  0  0  0  0  0  0  0  0  0  0
   51.1940   32.3000   41.5780 C   0  0  0  0  0  0  0  0  0  0  0  0
   50.0270   32.4990   42.3510 C   0  0  0  0  0  0  0  0  0  0  0  0
   48.8120   32.1200   41.8640 C   0  0  0  0  0  0  0  0  0  0  0  0
   48.7790   31.5650   40.6450 N   0  0  0  0  0  0  0  0  0  0  0  0
   49.8710   31.3710   39.9040 C   0  0  0  0  0  0  0  0  0  0  0  0
   51.0820   31.7320   40.3540 N   0  0  0  0  0  0  0  0  0  0  0  0
   52.1600   32.5940   41.9500 H   0  0  0  0  0  0  0  0  0  0  0  0
   50.0980   32.9550   43.3400 H   0  0  0  0  0  0  0  0  0  0  0  0
   49.7360   30.9140   38.9340 H   0  0  0  0  0  0  0  0  0  0  0  0
   46.0170   34.2650   45.6950 O   0  0  0  0  0  0  0  0  0  0  0  0
   45.5130   31.6500   45.5780 O   0  0  0  0  0  0  0  0  0  0  0  0
   45.9680   32.8000   46.5000 P   0  0  2  0  0  0  0  0  0  0  0  0
   44.6970   32.9300   47.6480 O   0  0  0  0  0  0  0  0  0  0  0  0
   45.0030   33.4790   48.4170 H   0  0  0  0  0  0  0  0  0  0  0  0
   47.3480   32.4130   47.3290 O   0  0  0  0  0  0  0  0  0  0  0  0
   47.7880   31.1530   46.9800 C   0  0  0  0  0  0  0  0  0  0  0  0
   47.2760   30.7390   46.0790 H   0  0  0  0  0  0  0  0  0  0  0  0
   48.8680   31.2020   46.7410 H   0  0  0  0  0  0  0  0  0  0  0  0
   47.5870   30.1330   48.0730 C   0  0  1  0  0  3  0  0  0  0  0  0
   47.4190   28.7370   47.5120 C   0  0  0  0  0  3  0  0  0  0  0  0
   46.8460   28.0850   48.1970 H   0  0  0  0  0  0  0  0  0  0  0  0
   48.8600   28.2360   47.4740 C   0  0  0  0  0  3  0  0  0  0  0  0
   49.1060   27.7940   46.4760 H   0  0  0  0  0  0  0  0  0  0  0  0
   49.6580   29.3450   47.7490 O   0  0  0  0  0  0  0  0  0  0  0  0
   48.9410   29.9640   48.7760 C   0  0  0  0  0  3  0  0  0  0  0  0
   48.8530   29.1860   49.5830 H   0  0  0  0  0  0  0  0  0  0  0  0
  1 16  1  0  0  0  0
  1  6  1  0  0  0  0
  2  7  1  0  0  0  0
  2  1  1  0  0  0  0
  3  2  1  0  0  0  0
  3  4  1  0  0  0  0
  4 12  1  0  0  0  0
  4  5  1  0  0  0  0
  5  6  1  0  0  0  0
  5 13  1  0  0  0  0
  6 15  1  6  0  0  0
  6 31  1  0  0  0  0
  8  2  1  0  0  0  0
  9  3  1  0  0  0  0
 10  3  1  0  0  0  0
 11  4  1  0  0  0  0
 14  5  1  0  0  0  0
 16 17  1  0  0  0  0
 18 16  1  0  0  0  0
 19 20  1  0  0  0  0
 19 16  1  0  0  0  0
 21 19  1  0  0  0  0
 22 28  1  0  0  0  0
 22 23  1  0  0  0  0
 23 29  1  0  0  0  0
 24 23  2  0  0  0  0
 24 19  1  0  0  0  0
 25 24  1  0  0  0  0
 26 27  1  0  0  0  0
 26 25  2  0  0  0  0
 27 22  2  0  0  0  0
 30 26  1  0  0  0  0
 31 33  1  0  0  0  0
 33 32  2  6  0  0  0
 33 36  1  0  0  0  0
 33 34  1  0  0  0  0
 34 35  1  0  0  0  0
 37 36  1  0  0  0  0
 38 37  1  0  0  0  0
 39 37  1  0  0  0  0
 40 37  1  6  0  0  0
 40 46  1  0  0  0  0
 41 40  1  0  0  0  0
 41 42  1  0  0  0  0
 43 41  1  0  0  0  0
 43 45  1  0  0  0  0
 44 43  1  0  0  0  0
 45 46  1  0  0  0  0
 46 47  1  0  0  0  0
M  END
>  <minimizedAffinity>
-4.46676302

>  <minimizedRMSD>
2.81413937

$$$$
