
 OpenBabel03252509043D

 47 49  0  0  1  0  0  0  0  0999 V2000
   46.8700   34.3230   43.5480 N   0  0  0  0  0  0  0  0  0  0  0  0
   46.5390   35.0310   42.3730 C   0  0  0  0  0  0  0  0  0  0  0  0
   45.0580   35.0520   42.0390 C   0  0  0  0  0  0  0  0  0  0  0  0
   44.1470   35.0710   43.2400 C   0  0  0  0  0  0  0  0  0  0  0  0
   44.9370   35.1550   44.5330 C   0  0  0  0  0  0  0  0  0  0  0  0
   45.9090   33.9130   44.4470 C   0  0  2  0  0  0  0  0  0  0  0  0
   46.8220   36.1020   42.5340 H   0  0  0  0  0  0  0  0  0  0  0  0
   47.0560   34.7330   41.4510 H   0  0  0  0  0  0  0  0  0  0  0  0
   44.8900   35.9010   41.3600 H   0  0  0  0  0  0  0  0  0  0  0  0
   44.8460   34.1230   41.4600 H   0  0  0  0  0  0  0  0  0  0  0  0
   43.4360   35.9140   43.1400 H   0  0  0  0  0  0  0  0  0  0  0  0
   43.5180   34.1580   43.3150 H   0  0  0  0  0  0  0  0  0  0  0  0
   44.2640   34.9550   45.3750 H   0  0  0  0  0  0  0  0  0  0  0  0
   45.5410   36.0640   44.6000 H   0  0  0  0  0  0  0  0  0  0  0  0
   45.2540   33.0680   44.1550 H   0  0  0  0  0  0  0  0  0  0  0  0
   48.0800   33.5520   43.4410 C   0  0  0  0  0  0  0  0  0  0  0  0
   48.4130   33.2690   44.4700 H   0  0  0  0  0  0  0  0  0  0  0  0
   48.8660   34.1910   42.9750 H   0  0  0  0  0  0  0  0  0  0  0  0
   47.8050   32.3120   42.6500 C   0  0  0  0  0  0  0  0  0  0  0  0
   47.6550   31.4510   43.2960 H   0  0  0  0  0  0  0  0  0  0  0  0
   46.8920   32.4320   42.0350 H   0  0  0  0  0  0  0  0  0  0  0  0
   51.3020   32.0790   41.2740 C   0  0  0  0  0  0  0  0  0  0  0  0
   50.2090   32.3050   42.1430 C   0  0  0  0  0  0  0  0  0  0  0  0
   48.9370   32.0670   41.7160 C   0  0  0  0  0  0  0  0  0  0  0  0
   48.7780   31.6210   40.4620 N   0  0  0  0  0  0  0  0  0  0  0  0
   49.7980   31.4040   39.6310 C   0  0  0  0  0  0  0  0  0  0  0  0
   51.0620   31.6280   40.0200 N   0  0  0  0  0  0  0  0  0  0  0  0
   52.3110   32.2620   41.5970 H   0  0  0  0  0  0  0  0  0  0  0  0
   50.3830   32.6680   43.1570 H   0  0  0  0  0  0  0  0  0  0  0  0
   49.5610   31.0430   38.6400 H   0  0  0  0  0  0  0  0  0  0  0  0
   46.3770   33.8480   45.7390 O   0  0  0  0  0  0  0  0  0  0  0  0
   45.7490   31.2790   45.4080 O   0  0  0  0  0  0  0  0  0  0  0  0
   46.1990   32.3380   46.4350 P   0  0  2  0  0  0  0  0  0  0  0  0
   44.8610   32.4630   47.5060 O   0  0  0  0  0  0  0  0  0  0  0  0
   45.1410   32.9420   48.3290 H   0  0  0  0  0  0  0  0  0  0  0  0
   47.4970   31.8210   47.3220 O   0  0  0  0  0  0  0  0  0  0  0  0
   47.4330   30.4580   47.5300 C   0  0  0  0  0  0  0  0  0  0  0  0
   47.5290   30.1700   48.6040 H   0  0  0  0  0  0  0  0  0  0  0  0
   46.4490   30.0870   47.1850 H   0  0  0  0  0  0  0  0  0  0  0  0
   48.5130   29.6990   46.8000 C   0  0  1  0  0  3  0  0  0  0  0  0
   49.5410   29.1320   47.7560 C   0  0  0  0  0  3  0  0  0  0  0  0
   50.5200   28.9840   47.2640 H   0  0  0  0  0  0  0  0  0  0  0  0
   48.9550   27.7580   48.0730 C   0  0  0  0  0  3  0  0  0  0  0  0
   48.9350   27.5760   49.1770 H   0  0  0  0  0  0  0  0  0  0  0  0
   47.6710   27.7570   47.5310 O   0  0  0  0  0  0  0  0  0  0  0  0
   47.8770   28.3930   46.3050 C   0  0  0  0  0  3  0  0  0  0  0  0
   48.6520   27.7710   45.7790 H   0  0  0  0  0  0  0  0  0  0  0  0
  1  6  1  0  0  0  0
  2  7  1  0  0  0  0
  2  1  1  0  0  0  0
  3  2  1  0  0  0  0
  3  4  1  0  0  0  0
  4 12  1  0  0  0  0
  4  5  1  0  0  0  0
  5 14  1  0  0  0  0
  5 13  1  0  0  0  0
  6 15  1  6  0  0  0
  6  5  1  0  0  0  0
  6 31  1  0  0  0  0
  8  2  1  0  0  0  0
  9  3  1  0  0  0  0
 10  3  1  0  0  0  0
 11  4  1  0  0  0  0
 16  1  1  0  0  0  0
 16 17  1  0  0  0  0
 18 16  1  0  0  0  0
 19 20  1  0  0  0  0
 19 16  1  0  0  0  0
 21 19  1  0  0  0  0
 22 28  1  0  0  0  0
 22 23  1  0  0  0  0
 23 29  1  0  0  0  0
 24 23  2  0  0  0  0
 24 19  1  0  0  0  0
 25 24  1  0  0  0  0
 26 27  1  0  0  0  0
 26 25  2  0  0  0  0
 27 22  2  0  0  0  0
 30 26  1  0  0  0  0
 31 33  1  0  0  0  0
 33 32  2  6  0  0  0
 33 36  1  0  0  0  0
 33 34  1  0  0  0  0
 34 35  1  0  0  0  0
 36 37  1  0  0  0  0
 37 38  1  0  0  0  0
 39 37  1  0  0  0  0
 40 37  1  1  0  0  0
 40 41  1  0  0  0  0
 41 43  1  0  0  0  0
 42 41  1  0  0  0  0
 43 44  1  0  0  0  0
 45 43  1  0  0  0  0
 46 40  1  0  0  0  0
 46 45  1  0  0  0  0
 47 46  1  0  0  0  0
M  END
>  <minimizedAffinity>
-4.37002802

>  <minimizedRMSD>
2.10989451

$$$$
