
 OpenBabel03242511153D

 43 47  0  0  1  0  0  0  0  0999 V2000
   37.2460   31.5540   39.1960 C   0  0  1  0  0  0  0  0  0  0  0  0
   37.2290   30.8470   37.8690 C   0  0  0  0  0  0  0  0  0  0  0  0
   37.6320   30.1420   39.1950 C   0  0  2  0  0  0  0  0  0  0  0  0
   36.2690   31.7920   39.6090 H   0  0  0  0  0  0  0  0  0  0  0  0
   38.0350   31.1330   37.1860 H   0  0  0  0  0  0  0  0  0  0  0  0
   36.2570   30.5310   37.4400 H   0  0  0  0  0  0  0  0  0  0  0  0
   38.6990   29.8390   39.2290 H   0  0  0  0  0  0  0  0  0  0  0  0
   38.8510   34.7240   40.2450 C   0  0  0  0  0  0  0  0  0  0  0  0
   40.2120   34.5120   39.8210 C   0  0  0  0  0  0  0  0  0  0  0  0
   40.5320   33.2860   39.1960 C   0  0  0  0  0  0  0  0  0  0  0  0
   39.5730   32.3840   39.0250 N   0  0  0  0  0  0  0  0  0  0  0  0
   38.2960   32.6110   39.4350 C   0  0  0  0  0  0  0  0  0  0  0  0
   37.9110   33.7870   40.0530 N   0  0  0  0  0  0  0  0  0  0  0  0
   38.6640   35.6660   40.7110 H   0  0  0  0  0  0  0  0  0  0  0  0
   40.9530   35.2910   39.9890 H   0  0  0  0  0  0  0  0  0  0  0  0
   41.9360   33.0750   38.7630 C   0  0  2  0  0  3  0  0  0  0  0  0
   42.9560   33.5960   39.7340 C   0  0  0  0  0  3  0  0  0  0  0  0
   42.6590   34.5190   40.2430 H   0  0  0  0  0  0  0  0  0  0  0  0
   44.0930   33.9620   38.7840 C   0  0  0  0  0  3  0  0  0  0  0  0
   44.7860   33.1060   38.6660 H   0  0  0  0  0  0  0  0  0  0  0  0
   43.5380   34.3240   37.5890 O   0  0  0  0  0  0  0  0  0  0  0  0
   42.2450   33.8840   37.5290 C   0  0  0  0  0  3  0  0  0  0  0  0
   42.0170   33.2520   36.6320 H   0  0  0  0  0  0  0  0  0  0  0  0
   36.7090   29.1780   39.7080 N   0  0  0  0  0  0  0  0  0  0  0  0
   35.9090   29.2010   39.0470 H   0  0  0  0  0  0  0  0  0  0  0  0
   36.9610   28.4550   40.8830 C   0  0  0  0  0  0  0  0  0  0  0  0
   37.2230   29.1340   42.0500 C   0  0  0  0  0  0  0  0  0  0  0  0
   37.4030   28.4970   43.2700 C   0  0  0  0  0  0  0  0  0  0  0  0
   37.3270   27.1320   43.3630 C   0  0  0  0  0  0  0  0  0  0  0  0
   37.0680   26.4230   42.2050 C   0  0  0  0  0  0  0  0  0  0  0  0
   36.9890   25.0480   42.2810 C   0  0  0  0  0  0  0  0  0  0  0  0
   36.7420   24.2780   41.1830 C   0  0  0  0  0  0  0  0  0  0  0  0
   36.5750   24.9460   39.9770 C   0  0  0  0  0  0  0  0  0  0  0  0
   36.6560   26.3180   39.9250 C   0  0  0  0  0  0  0  0  0  0  0  0
   36.8980   27.0880   41.0200 C   0  0  0  0  0  0  0  0  0  0  0  0
   37.3050   30.2180   42.0920 H   0  0  0  0  0  0  0  0  0  0  0  0
   37.6090   29.0380   44.1830 H   0  0  0  0  0  0  0  0  0  0  0  0
   37.4590   26.5890   44.2920 H   0  0  0  0  0  0  0  0  0  0  0  0
   37.1210   24.5220   43.2210 H   0  0  0  0  0  0  0  0  0  0  0  0
   36.6770   23.2110   41.2210 H   0  0  0  0  0  0  0  0  0  0  0  0
   36.3790   24.3620   39.0820 H   0  0  0  0  0  0  0  0  0  0  0  0
   36.4920   26.9320   38.7050 O   0  0  0  0  0  0  0  0  0  0  0  0
   37.2200   26.7980   38.0100 H   0  0  0  0  0  0  0  0  0  0  0  0
  1 12  1  0  0  0  0
  1  4  1  1  0  0  0
  2  3  1  0  0  0  0
  2  1  1  0  0  0  0
  3  1  1  0  0  0  0
  3  7  1  1  0  0  0
  3 24  1  0  0  0  0
  5  2  1  0  0  0  0
  6  2  1  0  0  0  0
  8 14  1  0  0  0  0
  9 15  1  0  0  0  0
  9  8  2  0  0  0  0
 10  9  1  0  0  0  0
 11 10  2  0  0  0  0
 11 12  1  0  0  0  0
 12 13  2  0  0  0  0
 13  8  1  0  0  0  0
 16 10  1  1  0  0  0
 16 17  1  0  0  0  0
 17 18  1  0  0  0  0
 19 17  1  0  0  0  0
 20 19  1  0  0  0  0
 21 19  1  0  0  0  0
 22 21  1  0  0  0  0
 22 16  1  0  0  0  0
 23 22  1  0  0  0  0
 24 26  1  0  0  0  0
 25 24  1  0  0  0  0
 26 35  2  0  0  0  0
 26 27  1  0  0  0  0
 27 36  1  0  0  0  0
 27 28  2  0  0  0  0
 28 29  1  0  0  0  0
 28 37  1  0  0  0  0
 29 38  1  0  0  0  0
 30 31  1  0  0  0  0
 30 29  2  0  0  0  0
 31 39  1  0  0  0  0
 32 40  1  0  0  0  0
 32 31  2  0  0  0  0
 33 32  1  0  0  0  0
 34 33  2  0  0  0  0
 34 35  1  0  0  0  0
 35 30  1  0  0  0  0
 41 33  1  0  0  0  0
 42 34  1  0  0  0  0
 43 42  1  0  0  0  0
M  END
>  <minimizedAffinity>
-6.78522444

$$$$

 OpenBabel03242511153D

 43 47  0  0  1  0  0  0  0  0999 V2000
   37.1480   27.4390   42.6920 C   0  0  1  0  0  0  0  0  0  0  0  0
   36.5870   27.9910   43.9720 C   0  0  0  0  0  0  0  0  0  0  0  0
   37.4560   28.8370   42.9980 C   0  0  2  0  0  0  0  0  0  0  0  0
   36.4210   27.2600   41.9040 H   0  0  0  0  0  0  0  0  0  0  0  0
   37.0690   27.6200   44.8830 H   0  0  0  0  0  0  0  0  0  0  0  0
   35.5150   28.2690   44.0150 H   0  0  0  0  0  0  0  0  0  0  0  0
   38.4390   29.1290   43.4210 H   0  0  0  0  0  0  0  0  0  0  0  0
   38.9570   24.2210   42.3760 C   0  0  0  0  0  0  0  0  0  0  0  0
   40.2300   24.5470   42.9660 C   0  0  0  0  0  0  0  0  0  0  0  0
   40.4250   25.8610   43.4470 C   0  0  0  0  0  0  0  0  0  0  0  0
   39.4340   26.7380   43.3350 N   0  0  0  0  0  0  0  0  0  0  0  0
   38.2420   26.4020   42.7730 C   0  0  0  0  0  0  0  0  0  0  0  0
   37.9810   25.1360   42.2830 N   0  0  0  0  0  0  0  0  0  0  0  0
   38.8630   23.2150   42.0300 H   0  0  0  0  0  0  0  0  0  0  0  0
   41.0030   23.7830   43.0290 H   0  0  0  0  0  0  0  0  0  0  0  0
   41.7400   26.1900   44.0530 C   0  0  2  0  0  3  0  0  0  0  0  0
   42.1240   27.6360   43.9220 C   0  0  0  0  0  3  0  0  0  0  0  0
   41.8090   28.1000   42.9820 H   0  0  0  0  0  0  0  0  0  0  0  0
   43.6450   27.5220   43.8700 C   0  0  0  0  0  3  0  0  0  0  0  0
   44.0720   27.6020   44.8880 H   0  0  0  0  0  0  0  0  0  0  0  0
   43.9550   26.3230   43.2910 O   0  0  0  0  0  0  0  0  0  0  0  0
   42.8590   25.5060   43.3110 C   0  0  0  0  0  3  0  0  0  0  0  0
   43.0390   24.5100   43.7940 H   0  0  0  0  0  0  0  0  0  0  0  0
   36.7760   29.8640   42.2710 N   0  0  0  0  0  0  0  0  0  0  0  0
   35.9880   30.1450   42.8840 H   0  0  0  0  0  0  0  0  0  0  0  0
   37.1910   30.2730   40.9950 C   0  0  0  0  0  0  0  0  0  0  0  0
   38.3770   30.9560   40.8570 C   0  0  0  0  0  0  0  0  0  0  0  0
   38.8970   31.3250   39.6240 C   0  0  0  0  0  0  0  0  0  0  0  0
   38.2330   31.0180   38.4660 C   0  0  0  0  0  0  0  0  0  0  0  0
   37.0360   30.3340   38.5750 C   0  0  0  0  0  0  0  0  0  0  0  0
   36.3540   30.0180   37.4170 C   0  0  0  0  0  0  0  0  0  0  0  0
   35.1650   29.3510   37.4410 C   0  0  0  0  0  0  0  0  0  0  0  0
   34.6690   29.0020   38.6910 C   0  0  0  0  0  0  0  0  0  0  0  0
   35.3670   29.3270   39.8310 C   0  0  0  0  0  0  0  0  0  0  0  0
   36.5560   29.9890   39.8090 C   0  0  0  0  0  0  0  0  0  0  0  0
   38.9860   31.2500   41.7090 H   0  0  0  0  0  0  0  0  0  0  0  0
   39.8300   31.8620   39.5250 H   0  0  0  0  0  0  0  0  0  0  0  0
   38.5980   31.2830   37.4800 H   0  0  0  0  0  0  0  0  0  0  0  0
   36.7370   30.2900   36.4390 H   0  0  0  0  0  0  0  0  0  0  0  0
   34.6210   29.0960   36.5560 H   0  0  0  0  0  0  0  0  0  0  0  0
   33.7230   28.4710   38.7450 H   0  0  0  0  0  0  0  0  0  0  0  0
   34.8290   28.9680   41.0450 O   0  0  0  0  0  0  0  0  0  0  0  0
   33.9870   29.4490   41.3460 H   0  0  0  0  0  0  0  0  0  0  0  0
  1  4  1  6  0  0  0
  1 12  1  0  0  0  0
  1  3  1  0  0  0  0
  1  2  1  0  0  0  0
  2  6  1  0  0  0  0
  2  5  1  0  0  0  0
  3  7  1  1  0  0  0
  3  2  1  0  0  0  0
  8  9  1  0  0  0  0
  9 15  1  0  0  0  0
  9 10  2  0  0  0  0
 11 10  1  0  0  0  0
 12 11  2  0  0  0  0
 13  8  2  0  0  0  0
 13 12  1  0  0  0  0
 14  8  1  0  0  0  0
 16 10  1  6  0  0  0
 17 16  1  0  0  0  0
 18 17  1  0  0  0  0
 19 17  1  0  0  0  0
 19 20  1  0  0  0  0
 21 22  1  0  0  0  0
 21 19  1  0  0  0  0
 22 23  1  0  0  0  0
 22 16  1  0  0  0  0
 24 25  1  0  0  0  0
 24  3  1  0  0  0  0
 26 24  1  0  0  0  0
 27 26  1  0  0  0  0
 27 36  1  0  0  0  0
 28 27  2  0  0  0  0
 29 30  2  0  0  0  0
 29 28  1  0  0  0  0
 30 35  1  0  0  0  0
 31 32  2  0  0  0  0
 31 30  1  0  0  0  0
 32 33  1  0  0  0  0
 33 41  1  0  0  0  0
 33 34  2  0  0  0  0
 34 42  1  0  0  0  0
 35 34  1  0  0  0  0
 35 26  2  0  0  0  0
 37 28  1  0  0  0  0
 38 29  1  0  0  0  0
 39 31  1  0  0  0  0
 40 32  1  0  0  0  0
 42 43  1  0  0  0  0
M  END
>  <minimizedAffinity>
-6.71404934

$$$$

 OpenBabel03242511153D

 43 47  0  0  1  0  0  0  0  0999 V2000
   37.7310   32.0090   39.2610 C   0  0  1  0  0  0  0  0  0  0  0  0
   37.1410   33.3620   39.5430 C   0  0  0  0  0  0  0  0  0  0  0  0
   38.6270   33.0110   39.8390 C   0  0  2  0  0  0  0  0  0  0  0  0
   37.8760   31.7740   38.2090 H   0  0  0  0  0  0  0  0  0  0  0  0
   36.4530   33.3940   40.3930 H   0  0  0  0  0  0  0  0  0  0  0  0
   36.9790   34.0650   38.7010 H   0  0  0  0  0  0  0  0  0  0  0  0
   38.8730   33.0040   40.9210 H   0  0  0  0  0  0  0  0  0  0  0  0
   35.6600   29.2430   40.5960 C   0  0  0  0  0  0  0  0  0  0  0  0
   36.4940   28.7470   41.6620 C   0  0  0  0  0  0  0  0  0  0  0  0
   37.7400   29.3750   41.8800 C   0  0  0  0  0  0  0  0  0  0  0  0
   38.0920   30.3910   41.1000 N   0  0  0  0  0  0  0  0  0  0  0  0
   37.2830   30.8380   40.1020 C   0  0  0  0  0  0  0  0  0  0  0  0
   36.0520   30.2720   39.8310 N   0  0  0  0  0  0  0  0  0  0  0  0
   34.7300   28.7320   40.4760 H   0  0  0  0  0  0  0  0  0  0  0  0
   36.1500   27.9100   42.2680 H   0  0  0  0  0  0  0  0  0  0  0  0
   38.5940   28.8580   42.9790 C   0  0  2  0  0  3  0  0  0  0  0  0
   39.8780   28.2380   42.5090 C   0  0  0  0  0  3  0  0  0  0  0  0
   39.7940   27.6950   41.5620 H   0  0  0  0  0  0  0  0  0  0  0  0
   40.1050   27.1940   43.5990 C   0  0  0  0  0  3  0  0  0  0  0  0
   40.7220   27.6170   44.4150 H   0  0  0  0  0  0  0  0  0  0  0  0
   38.8810   26.7930   44.0550 O   0  0  0  0  0  0  0  0  0  0  0  0
   37.9290   27.6990   43.6750 C   0  0  0  0  0  3  0  0  0  0  0  0
   37.3210   28.1060   44.5240 H   0  0  0  0  0  0  0  0  0  0  0  0
   39.6050   33.6260   38.9970 N   0  0  0  0  0  0  0  0  0  0  0  0
   39.0630   34.0050   38.1960 H   0  0  0  0  0  0  0  0  0  0  0  0
   40.9730   33.6100   39.3060 C   0  0  0  0  0  0  0  0  0  0  0  0
   41.4080   34.2020   40.4690 C   0  0  0  0  0  0  0  0  0  0  0  0
   42.7310   34.1610   40.8880 C   0  0  0  0  0  0  0  0  0  0  0  0
   43.6800   33.5140   40.1410 C   0  0  0  0  0  0  0  0  0  0  0  0
   43.2710   32.9130   38.9650 C   0  0  0  0  0  0  0  0  0  0  0  0
   44.2150   32.2580   38.2000 C   0  0  0  0  0  0  0  0  0  0  0  0
   43.8910   31.6460   37.0250 C   0  0  0  0  0  0  0  0  0  0  0  0
   42.5620   31.7120   36.6310 C   0  0  0  0  0  0  0  0  0  0  0  0
   41.6380   32.3690   37.4110 C   0  0  0  0  0  0  0  0  0  0  0  0
   41.9570   32.9770   38.5850 C   0  0  0  0  0  0  0  0  0  0  0  0
   40.7410   34.7410   41.1380 H   0  0  0  0  0  0  0  0  0  0  0  0
   43.0650   34.6280   41.8030 H   0  0  0  0  0  0  0  0  0  0  0  0
   44.7240   33.4530   40.4260 H   0  0  0  0  0  0  0  0  0  0  0  0
   45.2550   32.2050   38.5030 H   0  0  0  0  0  0  0  0  0  0  0  0
   44.6080   31.1330   36.4180 H   0  0  0  0  0  0  0  0  0  0  0  0
   42.2710   31.2360   35.6990 H   0  0  0  0  0  0  0  0  0  0  0  0
   40.3340   32.4140   36.9730 O   0  0  0  0  0  0  0  0  0  0  0  0
   40.1360   32.9750   36.1500 H   0  0  0  0  0  0  0  0  0  0  0  0
  1  4  1  6  0  0  0
  1  2  1  0  0  0  0
  1  3  1  0  0  0  0
  1 12  1  0  0  0  0
  2  3  1  0  0  0  0
  2  5  1  0  0  0  0
  3  7  1  1  0  0  0
  6  2  1  0  0  0  0
  8  9  1  0  0  0  0
  9 10  2  0  0  0  0
  9 15  1  0  0  0  0
 11 10  1  0  0  0  0
 12 11  2  0  0  0  0
 13 12  1  0  0  0  0
 13  8  2  0  0  0  0
 14  8  1  0  0  0  0
 16 10  1  6  0  0  0
 16 22  1  0  0  0  0
 17 16  1  0  0  0  0
 17 19  1  0  0  0  0
 18 17  1  0  0  0  0
 19 21  1  0  0  0  0
 19 20  1  0  0  0  0
 22 21  1  0  0  0  0
 22 23  1  0  0  0  0
 24 26  1  0  0  0  0
 24  3  1  0  0  0  0
 25 24  1  0  0  0  0
 26 27  1  0  0  0  0
 27 28  2  0  0  0  0
 27 36  1  0  0  0  0
 28 37  1  0  0  0  0
 29 38  1  0  0  0  0
 29 28  1  0  0  0  0
 30 29  2  0  0  0  0
 31 39  1  0  0  0  0
 31 30  1  0  0  0  0
 32 31  2  0  0  0  0
 33 32  1  0  0  0  0
 33 34  2  0  0  0  0
 34 35  1  0  0  0  0
 35 30  1  0  0  0  0
 35 26  2  0  0  0  0
 40 32  1  0  0  0  0
 41 33  1  0  0  0  0
 42 34  1  0  0  0  0
 43 42  1  0  0  0  0
M  END
>  <minimizedAffinity>
-6.50884581

$$$$

 OpenBabel03242511153D

 43 47  0  0  1  0  0  0  0  0999 V2000
   37.0920   27.5700   42.7670 C   0  0  1  0  0  0  0  0  0  0  0  0
   36.8380   28.3060   44.0530 C   0  0  0  0  0  0  0  0  0  0  0  0
   37.5350   28.9640   42.8280 C   0  0  2  0  0  0  0  0  0  0  0  0
   36.2090   27.3650   42.1660 H   0  0  0  0  0  0  0  0  0  0  0  0
   37.4750   28.0010   44.8900 H   0  0  0  0  0  0  0  0  0  0  0  0
   35.8150   28.6730   44.2710 H   0  0  0  0  0  0  0  0  0  0  0  0
   38.5990   29.2200   43.0090 H   0  0  0  0  0  0  0  0  0  0  0  0
   40.0650   25.5430   43.6480 C   0  0  0  0  0  0  0  0  0  0  0  0
   39.9700   24.4640   42.6980 C   0  0  0  0  0  0  0  0  0  0  0  0
   38.8840   24.4670   41.7930 C   0  0  0  0  0  0  0  0  0  0  0  0
   38.0020   25.4570   41.8530 N   0  0  0  0  0  0  0  0  0  0  0  0
   38.1170   26.4640   42.7610 C   0  0  0  0  0  0  0  0  0  0  0  0
   39.1520   26.5250   43.6750 N   0  0  0  0  0  0  0  0  0  0  0  0
   40.9030   25.4920   44.3070 H   0  0  0  0  0  0  0  0  0  0  0  0
   40.7250   23.6810   42.6970 H   0  0  0  0  0  0  0  0  0  0  0  0
   38.7920   23.3510   40.8180 C   0  0  2  0  0  3  0  0  0  0  0  0
   39.3900   23.6660   39.4770 C   0  0  0  0  0  3  0  0  0  0  0  0
   39.2500   24.7030   39.1560 H   0  0  0  0  0  0  0  0  0  0  0  0
   38.5200   22.8020   38.5680 C   0  0  0  0  0  3  0  0  0  0  0  0
   38.9800   21.8040   38.4290 H   0  0  0  0  0  0  0  0  0  0  0  0
   37.2830   22.7060   39.1410 O   0  0  0  0  0  0  0  0  0  0  0  0
   37.3560   23.0720   40.4570 C   0  0  0  0  0  3  0  0  0  0  0  0
   36.9620   22.3010   41.1680 H   0  0  0  0  0  0  0  0  0  0  0  0
   36.7810   29.9550   42.1260 N   0  0  0  0  0  0  0  0  0  0  0  0
   36.0280   30.2310   42.7850 H   0  0  0  0  0  0  0  0  0  0  0  0
   37.0980   30.3450   40.8160 C   0  0  0  0  0  0  0  0  0  0  0  0
   38.2490   31.0610   40.5850 C   0  0  0  0  0  0  0  0  0  0  0  0
   38.6750   31.4150   39.3120 C   0  0  0  0  0  0  0  0  0  0  0  0
   37.9470   31.0570   38.2080 C   0  0  0  0  0  0  0  0  0  0  0  0
   36.7840   30.3380   38.4110 C   0  0  0  0  0  0  0  0  0  0  0  0
   36.0400   29.9710   37.3090 C   0  0  0  0  0  0  0  0  0  0  0  0
   34.8780   29.2670   37.4270 C   0  0  0  0  0  0  0  0  0  0  0  0
   34.4750   28.9350   38.7140 C   0  0  0  0  0  0  0  0  0  0  0  0
   35.2350   29.3110   39.7970 C   0  0  0  0  0  0  0  0  0  0  0  0
   36.3960   30.0100   39.6820 C   0  0  0  0  0  0  0  0  0  0  0  0
   38.9010   31.3970   41.3880 H   0  0  0  0  0  0  0  0  0  0  0  0
   39.5810   31.9790   39.1390 H   0  0  0  0  0  0  0  0  0  0  0  0
   38.2390   31.3080   37.1940 H   0  0  0  0  0  0  0  0  0  0  0  0
   36.3490   30.2290   36.3020 H   0  0  0  0  0  0  0  0  0  0  0  0
   34.2860   28.9720   36.5850 H   0  0  0  0  0  0  0  0  0  0  0  0
   33.5530   28.3760   38.8430 H   0  0  0  0  0  0  0  0  0  0  0  0
   34.7900   28.9660   41.0530 O   0  0  0  0  0  0  0  0  0  0  0  0
   33.9530   29.4280   41.3960 H   0  0  0  0  0  0  0  0  0  0  0  0
  1  4  1  6  0  0  0
  1  3  1  0  0  0  0
  1  2  1  0  0  0  0
  2  6  1  0  0  0  0
  2  5  1  0  0  0  0
  3  7  1  1  0  0  0
  3  2  1  0  0  0  0
  8 13  1  0  0  0  0
  8 14  1  0  0  0  0
  9  8  2  0  0  0  0
 10 11  2  0  0  0  0
 10  9  1  0  0  0  0
 11 12  1  0  0  0  0
 12  1  1  0  0  0  0
 12 13  2  0  0  0  0
 15  9  1  0  0  0  0
 16 10  1  1  0  0  0
 17 16  1  0  0  0  0
 18 17  1  0  0  0  0
 19 21  1  0  0  0  0
 19 17  1  0  0  0  0
 20 19  1  0  0  0  0
 21 22  1  0  0  0  0
 22 16  1  0  0  0  0
 22 23  1  0  0  0  0
 24 25  1  0  0  0  0
 24  3  1  0  0  0  0
 26 24  1  0  0  0  0
 27 26  1  0  0  0  0
 27 36  1  0  0  0  0
 28 27  2  0  0  0  0
 29 30  2  0  0  0  0
 29 28  1  0  0  0  0
 30 35  1  0  0  0  0
 31 32  2  0  0  0  0
 31 30  1  0  0  0  0
 32 33  1  0  0  0  0
 33 41  1  0  0  0  0
 33 34  2  0  0  0  0
 34 42  1  0  0  0  0
 35 34  1  0  0  0  0
 35 26  2  0  0  0  0
 37 28  1  0  0  0  0
 38 29  1  0  0  0  0
 39 31  1  0  0  0  0
 40 32  1  0  0  0  0
 42 43  1  0  0  0  0
M  END
>  <minimizedAffinity>
-6.4827733

$$$$

 OpenBabel03242511153D

 43 47  0  0  1  0  0  0  0  0999 V2000
   37.1340   31.4550   40.8000 C   0  0  1  0  0  0  0  0  0  0  0  0
   36.5490   30.7670   39.5990 C   0  0  0  0  0  0  0  0  0  0  0  0
   37.5090   30.0550   40.5950 C   0  0  2  0  0  0  0  0  0  0  0  0
   36.4330   31.6590   41.6070 H   0  0  0  0  0  0  0  0  0  0  0  0
   36.9670   31.0860   38.6390 H   0  0  0  0  0  0  0  0  0  0  0  0
   35.4940   30.4280   39.6320 H   0  0  0  0  0  0  0  0  0  0  0  0
   38.4880   29.7830   40.1490 H   0  0  0  0  0  0  0  0  0  0  0  0
   38.6470   34.7240   39.9350 C   0  0  0  0  0  0  0  0  0  0  0  0
   40.0460   34.4640   40.1660 C   0  0  0  0  0  0  0  0  0  0  0  0
   40.4190   33.1780   40.6170 C   0  0  0  0  0  0  0  0  0  0  0  0
   39.4730   32.2670   40.8090 N   0  0  0  0  0  0  0  0  0  0  0  0
   38.1600   32.5390   40.5810 C   0  0  0  0  0  0  0  0  0  0  0  0
   37.7230   33.7750   40.1390 N   0  0  0  0  0  0  0  0  0  0  0  0
   38.4210   35.7100   39.5940 H   0  0  0  0  0  0  0  0  0  0  0  0
   40.7740   35.2530   39.9900 H   0  0  0  0  0  0  0  0  0  0  0  0
   41.8610   32.9190   40.8550 C   0  0  2  0  0  3  0  0  0  0  0  0
   42.1300   32.0040   42.0150 C   0  0  0  0  0  3  0  0  0  0  0  0
   41.4380   32.1290   42.8540 H   0  0  0  0  0  0  0  0  0  0  0  0
   43.4860   32.5270   42.4810 C   0  0  0  0  0  3  0  0  0  0  0  0
   44.3050   31.9740   41.9810 H   0  0  0  0  0  0  0  0  0  0  0  0
   43.5400   33.8620   42.1950 O   0  0  0  0  0  0  0  0  0  0  0  0
   42.5690   34.1770   41.2840 C   0  0  0  0  0  3  0  0  0  0  0  0
   42.9540   34.6910   40.3650 H   0  0  0  0  0  0  0  0  0  0  0  0
   36.9240   29.0570   41.4360 N   0  0  0  0  0  0  0  0  0  0  0  0
   36.3650   29.5900   42.1290 H   0  0  0  0  0  0  0  0  0  0  0  0
   37.1740   27.6890   41.2540 C   0  0  0  0  0  0  0  0  0  0  0  0
   36.5890   27.0310   40.1980 C   0  0  0  0  0  0  0  0  0  0  0  0
   36.8470   25.6990   39.9020 C   0  0  0  0  0  0  0  0  0  0  0  0
   37.7170   24.9690   40.6690 C   0  0  0  0  0  0  0  0  0  0  0  0
   38.3180   25.6060   41.7400 C   0  0  0  0  0  0  0  0  0  0  0  0
   39.1950   24.8840   42.5230 C   0  0  0  0  0  0  0  0  0  0  0  0
   39.8230   25.4380   43.5990 C   0  0  0  0  0  0  0  0  0  0  0  0
   39.5370   26.7690   43.8730 C   0  0  0  0  0  0  0  0  0  0  0  0
   38.6600   27.4690   43.0760 C   0  0  0  0  0  0  0  0  0  0  0  0
   38.0350   26.9190   42.0000 C   0  0  0  0  0  0  0  0  0  0  0  0
   35.8840   27.5130   39.5250 H   0  0  0  0  0  0  0  0  0  0  0  0
   36.3830   25.1890   39.0700 H   0  0  0  0  0  0  0  0  0  0  0  0
   37.9520   23.9280   40.4780 H   0  0  0  0  0  0  0  0  0  0  0  0
   39.4200   23.8440   42.3140 H   0  0  0  0  0  0  0  0  0  0  0  0
   40.5070   24.8970   44.2190 H   0  0  0  0  0  0  0  0  0  0  0  0
   40.0190   27.2410   44.7240 H   0  0  0  0  0  0  0  0  0  0  0  0
   38.4030   28.7830   43.3940 O   0  0  0  0  0  0  0  0  0  0  0  0
   37.8790   28.9660   44.2440 H   0  0  0  0  0  0  0  0  0  0  0  0
  1  4  1  1  0  0  0
  2  6  1  0  0  0  0
  2  3  1  0  0  0  0
  2  1  1  0  0  0  0
  3  7  1  6  0  0  0
  3  1  1  0  0  0  0
  3 24  1  0  0  0  0
  5  2  1  0  0  0  0
  8 13  2  0  0  0  0
  8  9  1  0  0  0  0
  9 10  2  0  0  0  0
 10 11  1  0  0  0  0
 12  1  1  0  0  0  0
 12 11  2  0  0  0  0
 13 12  1  0  0  0  0
 14  8  1  0  0  0  0
 15  9  1  0  0  0  0
 16 10  1  1  0  0  0
 16 22  1  0  0  0  0
 16 17  1  0  0  0  0
 17 19  1  0  0  0  0
 17 18  1  0  0  0  0
 20 19  1  0  0  0  0
 21 19  1  0  0  0  0
 22 21  1  0  0  0  0
 23 22  1  0  0  0  0
 24 25  1  0  0  0  0
 26 24  1  0  0  0  0
 26 35  1  0  0  0  0
 27 26  2  0  0  0  0
 28 27  1  0  0  0  0
 28 29  2  0  0  0  0
 29 30  1  0  0  0  0
 30 35  2  0  0  0  0
 30 31  1  0  0  0  0
 31 32  2  0  0  0  0
 32 33  1  0  0  0  0
 32 40  1  0  0  0  0
 33 41  1  0  0  0  0
 34 42  1  0  0  0  0
 34 33  2  0  0  0  0
 35 34  1  0  0  0  0
 36 27  1  0  0  0  0
 37 28  1  0  0  0  0
 38 29  1  0  0  0  0
 39 31  1  0  0  0  0
 42 43  1  0  0  0  0
M  END
>  <minimizedAffinity>
-6.4801178

$$$$

 OpenBabel03242511153D

 43 47  0  0  1  0  0  0  0  0999 V2000
   36.8460   27.2220   42.3430 C   0  0  1  0  0  0  0  0  0  0  0  0
   36.3010   27.3740   43.7360 C   0  0  0  0  0  0  0  0  0  0  0  0
   37.6060   28.0730   43.2590 C   0  0  2  0  0  0  0  0  0  0  0  0
   36.2790   27.7270   41.5640 H   0  0  0  0  0  0  0  0  0  0  0  0
   36.4080   26.4870   44.3690 H   0  0  0  0  0  0  0  0  0  0  0  0
   35.4370   28.0460   43.9060 H   0  0  0  0  0  0  0  0  0  0  0  0
   38.5200   27.6980   43.7660 H   0  0  0  0  0  0  0  0  0  0  0  0
   39.0440   24.2440   42.1840 C   0  0  0  0  0  0  0  0  0  0  0  0
   38.4150   23.4770   41.1380 C   0  0  0  0  0  0  0  0  0  0  0  0
   37.2550   24.0060   40.5300 C   0  0  0  0  0  0  0  0  0  0  0  0
   36.7930   25.1810   40.9420 N   0  0  0  0  0  0  0  0  0  0  0  0
   37.4080   25.8840   41.9310 C   0  0  0  0  0  0  0  0  0  0  0  0
   38.5460   25.4270   42.5710 N   0  0  0  0  0  0  0  0  0  0  0  0
   39.9160   23.7980   42.6080 H   0  0  0  0  0  0  0  0  0  0  0  0
   38.8420   22.5200   40.8440 H   0  0  0  0  0  0  0  0  0  0  0  0
   36.6110   23.2100   39.4540 C   0  0  2  0  0  3  0  0  0  0  0  0
   36.8070   23.7790   38.0780 C   0  0  0  0  0  3  0  0  0  0  0  0
   36.8070   24.8730   38.0420 H   0  0  0  0  0  0  0  0  0  0  0  0
   35.5240   23.3150   37.3940 C   0  0  0  0  0  3  0  0  0  0  0  0
   35.6820   22.3340   36.9050 H   0  0  0  0  0  0  0  0  0  0  0  0
   34.5450   23.2460   38.3450 O   0  0  0  0  0  0  0  0  0  0  0  0
   35.1110   23.2400   39.5890 C   0  0  0  0  0  3  0  0  0  0  0  0
   34.8020   22.3720   40.2280 H   0  0  0  0  0  0  0  0  0  0  0  0
   37.5410   29.4910   43.0920 N   0  0  0  0  0  0  0  0  0  0  0  0
   36.6790   29.7780   43.5950 H   0  0  0  0  0  0  0  0  0  0  0  0
   38.4990   30.2000   42.3520 C   0  0  0  0  0  0  0  0  0  0  0  0
   39.8260   30.1060   42.7010 C   0  0  0  0  0  0  0  0  0  0  0  0
   40.8430   30.7100   41.9730 C   0  0  0  0  0  0  0  0  0  0  0  0
   40.5580   31.4430   40.8510 C   0  0  0  0  0  0  0  0  0  0  0  0
   39.2310   31.5560   40.4790 C   0  0  0  0  0  0  0  0  0  0  0  0
   38.9270   32.2920   39.3520 C   0  0  0  0  0  0  0  0  0  0  0  0
   37.6430   32.4560   38.9230 C   0  0  0  0  0  0  0  0  0  0  0  0
   36.6490   31.8460   39.6780 C   0  0  0  0  0  0  0  0  0  0  0  0
   36.9770   31.1160   40.7970 C   0  0  0  0  0  0  0  0  0  0  0  0
   38.2570   30.9480   41.2240 C   0  0  0  0  0  0  0  0  0  0  0  0
   40.1650   29.5490   43.5720 H   0  0  0  0  0  0  0  0  0  0  0  0
   41.8830   30.6310   42.2540 H   0  0  0  0  0  0  0  0  0  0  0  0
   41.3150   31.9320   40.2490 H   0  0  0  0  0  0  0  0  0  0  0  0
   39.7000   32.7720   38.7610 H   0  0  0  0  0  0  0  0  0  0  0  0
   37.3860   33.0220   38.0520 H   0  0  0  0  0  0  0  0  0  0  0  0
   35.6150   31.9580   39.3650 H   0  0  0  0  0  0  0  0  0  0  0  0
   35.9560   30.5380   41.5160 O   0  0  0  0  0  0  0  0  0  0  0  0
   35.3300   31.1570   42.0220 H   0  0  0  0  0  0  0  0  0  0  0  0
  1  4  1  6  0  0  0
  1  3  1  0  0  0  0
  1  2  1  0  0  0  0
  2  6  1  0  0  0  0
  2  5  1  0  0  0  0
  3  2  1  0  0  0  0
  3  7  1  1  0  0  0
  8 13  1  0  0  0  0
  8 14  1  0  0  0  0
  9  8  2  0  0  0  0
 10 11  2  0  0  0  0
 10  9  1  0  0  0  0
 11 12  1  0  0  0  0
 12  1  1  0  0  0  0
 12 13  2  0  0  0  0
 15  9  1  0  0  0  0
 16 22  1  0  0  0  0
 16 10  1  1  0  0  0
 17 16  1  0  0  0  0
 18 17  1  0  0  0  0
 19 17  1  0  0  0  0
 19 21  1  0  0  0  0
 20 19  1  0  0  0  0
 21 22  1  0  0  0  0
 22 23  1  0  0  0  0
 24  3  1  0  0  0  0
 24 25  1  0  0  0  0
 26 27  1  0  0  0  0
 26 24  1  0  0  0  0
 27 36  1  0  0  0  0
 28 37  1  0  0  0  0
 28 27  2  0  0  0  0
 29 28  1  0  0  0  0
 30 29  2  0  0  0  0
 30 35  1  0  0  0  0
 31 30  1  0  0  0  0
 32 31  2  0  0  0  0
 32 33  1  0  0  0  0
 33 34  2  0  0  0  0
 34 35  1  0  0  0  0
 34 42  1  0  0  0  0
 35 26  2  0  0  0  0
 38 29  1  0  0  0  0
 39 31  1  0  0  0  0
 40 32  1  0  0  0  0
 41 33  1  0  0  0  0
 42 43  1  0  0  0  0
M  END
>  <minimizedAffinity>
-6.42026377

$$$$

 OpenBabel03242511153D

 43 47  0  0  1  0  0  0  0  0999 V2000
   34.9190   28.9790   37.3540 C   0  0  1  0  0  0  0  0  0  0  0  0
   34.6600   27.5170   37.5880 C   0  0  0  0  0  0  0  0  0  0  0  0
   33.6100   28.6200   37.9030 C   0  0  2  0  0  0  0  0  0  0  0  0
   34.9420   29.2870   36.3110 H   0  0  0  0  0  0  0  0  0  0  0  0
   35.2050   27.0840   38.4340 H   0  0  0  0  0  0  0  0  0  0  0  0
   34.4200   26.8670   36.7230 H   0  0  0  0  0  0  0  0  0  0  0  0
   33.3930   28.7290   38.9860 H   0  0  0  0  0  0  0  0  0  0  0  0
   37.6530   31.2310   38.4390 C   0  0  0  0  0  0  0  0  0  0  0  0
   37.7540   30.9080   39.8400 C   0  0  0  0  0  0  0  0  0  0  0  0
   36.8750   29.9340   40.3640 C   0  0  0  0  0  0  0  0  0  0  0  0
   35.9970   29.3580   39.5510 N   0  0  0  0  0  0  0  0  0  0  0  0
   35.9250   29.6820   38.2310 C   0  0  0  0  0  0  0  0  0  0  0  0
   36.7530   30.6250   37.6510 N   0  0  0  0  0  0  0  0  0  0  0  0
   38.3410   31.9720   38.0960 H   0  0  0  0  0  0  0  0  0  0  0  0
   38.4950   31.4140   40.4550 H   0  0  0  0  0  0  0  0  0  0  0  0
   36.9840   29.6070   41.8080 C   0  0  2  0  0  3  0  0  0  0  0  0
   38.3950   29.5960   42.3230 C   0  0  0  0  0  3  0  0  0  0  0  0
   39.1310   29.2180   41.6060 H   0  0  0  0  0  0  0  0  0  0  0  0
   38.2840   28.5540   43.4330 C   0  0  0  0  0  3  0  0  0  0  0  0
   38.0390   29.0430   44.3960 H   0  0  0  0  0  0  0  0  0  0  0  0
   37.3190   27.6580   43.0690 O   0  0  0  0  0  0  0  0  0  0  0  0
   36.5490   28.1890   42.0710 C   0  0  0  0  0  3  0  0  0  0  0  0
   35.4510   28.1970   42.2970 H   0  0  0  0  0  0  0  0  0  0  0  0
   32.4680   28.6730   37.0450 N   0  0  0  0  0  0  0  0  0  0  0  0
   32.5820   27.8650   36.4030 H   0  0  0  0  0  0  0  0  0  0  0  0
   31.5000   29.6820   37.1530 C   0  0  0  0  0  0  0  0  0  0  0  0
   30.8380   29.8580   38.3460 C   0  0  0  0  0  0  0  0  0  0  0  0
   29.9250   30.8820   38.5590 C   0  0  0  0  0  0  0  0  0  0  0  0
   29.6400   31.7810   37.5650 C   0  0  0  0  0  0  0  0  0  0  0  0
   30.2900   31.6270   36.3540 C   0  0  0  0  0  0  0  0  0  0  0  0
   30.0130   32.5240   35.3430 C   0  0  0  0  0  0  0  0  0  0  0  0
   30.6080   32.4350   34.1190 C   0  0  0  0  0  0  0  0  0  0  0  0
   31.5090   31.3950   33.9350 C   0  0  0  0  0  0  0  0  0  0  0  0
   31.7700   30.5140   34.9590 C   0  0  0  0  0  0  0  0  0  0  0  0
   31.1810   30.6030   36.1830 C   0  0  0  0  0  0  0  0  0  0  0  0
   30.9870   29.2030   39.2010 H   0  0  0  0  0  0  0  0  0  0  0  0
   29.4090   31.0130   39.4990 H   0  0  0  0  0  0  0  0  0  0  0  0
   28.9380   32.5990   37.6830 H   0  0  0  0  0  0  0  0  0  0  0  0
   29.3080   33.3370   35.4810 H   0  0  0  0  0  0  0  0  0  0  0  0
   30.4070   33.1200   33.3220 H   0  0  0  0  0  0  0  0  0  0  0  0
   31.9990   31.2950   32.9720 H   0  0  0  0  0  0  0  0  0  0  0  0
   32.6650   29.4940   34.7260 O   0  0  0  0  0  0  0  0  0  0  0  0
   32.3830   28.7630   34.0800 H   0  0  0  0  0  0  0  0  0  0  0  0
  1  4  1  6  0  0  0
  1  2  1  0  0  0  0
  1  3  1  0  0  0  0
  1 12  1  0  0  0  0
  2  3  1  0  0  0  0
  2  5  1  0  0  0  0
  3  7  1  1  0  0  0
  6  2  1  0  0  0  0
  8  9  1  0  0  0  0
  9 10  2  0  0  0  0
  9 15  1  0  0  0  0
 11 10  1  0  0  0  0
 12 11  2  0  0  0  0
 13 12  1  0  0  0  0
 13  8  2  0  0  0  0
 14  8  1  0  0  0  0
 16 10  1  6  0  0  0
 16 22  1  0  0  0  0
 16 17  1  0  0  0  0
 17 19  1  0  0  0  0
 18 17  1  0  0  0  0
 19 20  1  0  0  0  0
 21 19  1  0  0  0  0
 22 23  1  0  0  0  0
 22 21  1  0  0  0  0
 24 26  1  0  0  0  0
 24  3  1  0  0  0  0
 25 24  1  0  0  0  0
 26 27  1  0  0  0  0
 27 28  2  0  0  0  0
 27 36  1  0  0  0  0
 28 37  1  0  0  0  0
 29 38  1  0  0  0  0
 29 28  1  0  0  0  0
 30 29  2  0  0  0  0
 31 39  1  0  0  0  0
 31 30  1  0  0  0  0
 32 31  2  0  0  0  0
 33 32  1  0  0  0  0
 33 34  2  0  0  0  0
 34 35  1  0  0  0  0
 35 30  1  0  0  0  0
 35 26  2  0  0  0  0
 40 32  1  0  0  0  0
 41 33  1  0  0  0  0
 42 34  1  0  0  0  0
 43 42  1  0  0  0  0
M  END
>  <minimizedAffinity>
-6.40541649

$$$$

 OpenBabel03242511153D

 43 47  0  0  1  0  0  0  0  0999 V2000
   38.1870   32.7720   40.2750 C   0  0  1  0  0  0  0  0  0  0  0  0
   37.0430   33.3320   39.4770 C   0  0  0  0  0  0  0  0  0  0  0  0
   37.4320   31.8260   39.4520 C   0  0  2  0  0  0  0  0  0  0  0  0
   38.0240   32.7230   41.3500 H   0  0  0  0  0  0  0  0  0  0  0  0
   37.3380   33.9410   38.6170 H   0  0  0  0  0  0  0  0  0  0  0  0
   36.0900   33.5670   39.9920 H   0  0  0  0  0  0  0  0  0  0  0  0
   37.8190   31.4840   38.4700 H   0  0  0  0  0  0  0  0  0  0  0  0
   41.5230   34.3820   40.2950 C   0  0  0  0  0  0  0  0  0  0  0  0
   42.1210   33.8220   39.1100 C   0  0  0  0  0  0  0  0  0  0  0  0
   41.3600   32.9050   38.3490 C   0  0  0  0  0  0  0  0  0  0  0  0
   40.1330   32.5990   38.7540 N   0  0  0  0  0  0  0  0  0  0  0  0
   39.5930   33.1460   39.8770 C   0  0  0  0  0  0  0  0  0  0  0  0
   40.2800   34.0480   40.6690 N   0  0  0  0  0  0  0  0  0  0  0  0
   42.1410   35.0690   40.8310 H   0  0  0  0  0  0  0  0  0  0  0  0
   43.1320   34.1120   38.8290 H   0  0  0  0  0  0  0  0  0  0  0  0
   41.9830   32.3300   37.1300 C   0  0  2  0  0  3  0  0  0  0  0  0
   41.8180   30.8430   37.0090 C   0  0  0  0  0  3  0  0  0  0  0  0
   41.8560   30.3080   37.9640 H   0  0  0  0  0  0  0  0  0  0  0  0
   43.0890   30.4770   36.2460 C   0  0  0  0  0  3  0  0  0  0  0  0
   42.9000   30.4890   35.1560 H   0  0  0  0  0  0  0  0  0  0  0  0
   44.0570   31.3750   36.5950 O   0  0  0  0  0  0  0  0  0  0  0  0
   43.4820   32.4710   37.1770 C   0  0  0  0  0  3  0  0  0  0  0  0
   43.7560   33.4430   36.6920 H   0  0  0  0  0  0  0  0  0  0  0  0
   36.5270   30.9260   40.0970 N   0  0  0  0  0  0  0  0  0  0  0  0
   36.0270   31.5090   40.7960 H   0  0  0  0  0  0  0  0  0  0  0  0
   36.4660   29.5650   39.7650 C   0  0  0  0  0  0  0  0  0  0  0  0
   36.2810   29.1980   38.4520 C   0  0  0  0  0  0  0  0  0  0  0  0
   36.2900   27.8750   38.0300 C   0  0  0  0  0  0  0  0  0  0  0  0
   36.4850   26.8570   38.9260 C   0  0  0  0  0  0  0  0  0  0  0  0
   36.6700   27.1970   40.2530 C   0  0  0  0  0  0  0  0  0  0  0  0
   36.8680   26.1840   41.1680 C   0  0  0  0  0  0  0  0  0  0  0  0
   37.0520   26.4370   42.4950 C   0  0  0  0  0  0  0  0  0  0  0  0
   37.0300   27.7690   42.8860 C   0  0  0  0  0  0  0  0  0  0  0  0
   36.8330   28.7630   41.9560 C   0  0  0  0  0  0  0  0  0  0  0  0
   36.6540   28.5130   40.6300 C   0  0  0  0  0  0  0  0  0  0  0  0
   36.1170   29.9230   37.6580 H   0  0  0  0  0  0  0  0  0  0  0  0
   36.1440   27.5950   36.9960 H   0  0  0  0  0  0  0  0  0  0  0  0
   36.5020   25.8100   38.6450 H   0  0  0  0  0  0  0  0  0  0  0  0
   36.8840   25.1410   40.8680 H   0  0  0  0  0  0  0  0  0  0  0  0
   37.2070   25.6660   43.2210 H   0  0  0  0  0  0  0  0  0  0  0  0
   37.1720   28.0060   43.9370 H   0  0  0  0  0  0  0  0  0  0  0  0
   36.8120   30.0680   42.3940 O   0  0  0  0  0  0  0  0  0  0  0  0
   36.0240   30.3570   42.9660 H   0  0  0  0  0  0  0  0  0  0  0  0
  1  4  1  1  0  0  0
  2  6  1  0  0  0  0
  2  1  1  0  0  0  0
  3  7  1  6  0  0  0
  3  2  1  0  0  0  0
  3 24  1  0  0  0  0
  3  1  1  0  0  0  0
  5  2  1  0  0  0  0
  8 13  1  0  0  0  0
  8 14  1  0  0  0  0
  9  8  2  0  0  0  0
 10 11  2  0  0  0  0
 10  9  1  0  0  0  0
 11 12  1  0  0  0  0
 12  1  1  0  0  0  0
 12 13  2  0  0  0  0
 15  9  1  0  0  0  0
 16 22  1  0  0  0  0
 16 10  1  1  0  0  0
 17 16  1  0  0  0  0
 17 18  1  0  0  0  0
 19 21  1  0  0  0  0
 19 17  1  0  0  0  0
 20 19  1  0  0  0  0
 21 22  1  0  0  0  0
 23 22  1  0  0  0  0
 24 25  1  0  0  0  0
 26 24  1  0  0  0  0
 26 35  1  0  0  0  0
 27 26  2  0  0  0  0
 28 27  1  0  0  0  0
 28 29  2  0  0  0  0
 29 30  1  0  0  0  0
 30 35  2  0  0  0  0
 30 31  1  0  0  0  0
 31 32  2  0  0  0  0
 32 33  1  0  0  0  0
 32 40  1  0  0  0  0
 33 41  1  0  0  0  0
 34 42  1  0  0  0  0
 34 33  2  0  0  0  0
 35 34  1  0  0  0  0
 36 27  1  0  0  0  0
 37 28  1  0  0  0  0
 38 29  1  0  0  0  0
 39 31  1  0  0  0  0
 42 43  1  0  0  0  0
M  END
>  <minimizedAffinity>
-6.36023998

$$$$

 OpenBabel03242511153D

 43 47  0  0  1  0  0  0  0  0999 V2000
   35.6730   28.6630   39.1770 C   0  0  1  0  0  0  0  0  0  0  0  0
   34.3050   29.2830   39.2430 C   0  0  0  0  0  0  0  0  0  0  0  0
   35.2140   29.1090   40.4940 C   0  0  2  0  0  0  0  0  0  0  0  0
   36.4370   29.2700   38.6960 H   0  0  0  0  0  0  0  0  0  0  0  0
   33.4760   28.5780   39.1220 H   0  0  0  0  0  0  0  0  0  0  0  0
   34.1700   30.3270   38.8970 H   0  0  0  0  0  0  0  0  0  0  0  0
   34.8120   28.3870   41.2360 H   0  0  0  0  0  0  0  0  0  0  0  0
   35.2490   25.3760   37.5220 C   0  0  0  0  0  0  0  0  0  0  0  0
   35.9710   24.5070   38.4170 C   0  0  0  0  0  0  0  0  0  0  0  0
   36.5840   25.0820   39.5530 C   0  0  0  0  0  0  0  0  0  0  0  0
   36.4710   26.3900   39.7500 N   0  0  0  0  0  0  0  0  0  0  0  0
   35.7810   27.1860   38.8890 C   0  0  0  0  0  0  0  0  0  0  0  0
   35.1570   26.6930   37.7580 N   0  0  0  0  0  0  0  0  0  0  0  0
   34.8060   24.8900   36.6810 H   0  0  0  0  0  0  0  0  0  0  0  0
   36.0280   23.4420   38.2010 H   0  0  0  0  0  0  0  0  0  0  0  0
   37.3280   24.1810   40.4700 C   0  0  2  0  0  3  0  0  0  0  0  0
   37.1930   24.5460   41.9200 C   0  0  0  0  0  3  0  0  0  0  0  0
   37.1470   25.6230   42.1090 H   0  0  0  0  0  0  0  0  0  0  0  0
   38.5350   24.0600   42.4610 C   0  0  0  0  0  3  0  0  0  0  0  0
   38.4520   23.0150   42.8170 H   0  0  0  0  0  0  0  0  0  0  0  0
   39.4550   24.1740   41.4570 O   0  0  0  0  0  0  0  0  0  0  0  0
   38.8140   24.3080   40.2570 C   0  0  0  0  0  3  0  0  0  0  0  0
   39.1210   23.5530   39.4880 H   0  0  0  0  0  0  0  0  0  0  0  0
   35.7690   30.3050   41.0460 N   0  0  0  0  0  0  0  0  0  0  0  0
   35.0240   31.0190   40.9360 H   0  0  0  0  0  0  0  0  0  0  0  0
   37.0720   30.3520   41.5620 C   0  0  0  0  0  0  0  0  0  0  0  0
   37.4710   29.4060   42.4780 C   0  0  0  0  0  0  0  0  0  0  0  0
   38.7650   29.3360   42.9760 C   0  0  0  0  0  0  0  0  0  0  0  0
   39.7200   30.2280   42.5660 C   0  0  0  0  0  0  0  0  0  0  0  0
   39.3470   31.1920   41.6480 C   0  0  0  0  0  0  0  0  0  0  0  0
   40.2980   32.0980   41.2260 C   0  0  0  0  0  0  0  0  0  0  0  0
   40.0060   33.0820   40.3270 C   0  0  0  0  0  0  0  0  0  0  0  0
   38.7010   33.1300   39.8550 C   0  0  0  0  0  0  0  0  0  0  0  0
   37.7710   32.2140   40.2890 C   0  0  0  0  0  0  0  0  0  0  0  0
   38.0600   31.2300   41.1820 C   0  0  0  0  0  0  0  0  0  0  0  0
   36.7950   28.6500   42.8710 H   0  0  0  0  0  0  0  0  0  0  0  0
   39.0700   28.5890   43.6960 H   0  0  0  0  0  0  0  0  0  0  0  0
   40.7440   30.2130   42.9240 H   0  0  0  0  0  0  0  0  0  0  0  0
   41.3180   32.0660   41.5940 H   0  0  0  0  0  0  0  0  0  0  0  0
   40.7280   33.7950   39.9870 H   0  0  0  0  0  0  0  0  0  0  0  0
   38.4350   33.9030   39.1390 H   0  0  0  0  0  0  0  0  0  0  0  0
   36.4890   32.3090   39.7980 O   0  0  0  0  0  0  0  0  0  0  0  0
   35.9340   33.1090   40.0880 H   0  0  0  0  0  0  0  0  0  0  0  0
  1  4  1  6  0  0  0
  1  2  1  0  0  0  0
  1  3  1  0  0  0  0
  2  3  1  0  0  0  0
  3 24  1  0  0  0  0
  3  7  1  1  0  0  0
  5  2  1  0  0  0  0
  6  2  1  0  0  0  0
  8 13  2  0  0  0  0
  8  9  1  0  0  0  0
  9 10  2  0  0  0  0
 10 11  1  0  0  0  0
 12  1  1  0  0  0  0
 12 11  2  0  0  0  0
 13 12  1  0  0  0  0
 14  8  1  0  0  0  0
 15  9  1  0  0  0  0
 16 10  1  6  0  0  0
 16 17  1  0  0  0  0
 17 18  1  0  0  0  0
 17 19  1  0  0  0  0
 19 20  1  0  0  0  0
 21 19  1  0  0  0  0
 22 16  1  0  0  0  0
 22 21  1  0  0  0  0
 23 22  1  0  0  0  0
 24 26  1  0  0  0  0
 25 24  1  0  0  0  0
 26 27  1  0  0  0  0
 27 36  1  0  0  0  0
 27 28  2  0  0  0  0
 28 37  1  0  0  0  0
 29 38  1  0  0  0  0
 29 28  1  0  0  0  0
 30 29  2  0  0  0  0
 31 39  1  0  0  0  0
 31 30  1  0  0  0  0
 32 31  2  0  0  0  0
 33 34  2  0  0  0  0
 33 32  1  0  0  0  0
 34 35  1  0  0  0  0
 35 26  2  0  0  0  0
 35 30  1  0  0  0  0
 40 32  1  0  0  0  0
 41 33  1  0  0  0  0
 42 43  1  0  0  0  0
 42 34  1  0  0  0  0
M  END
>  <minimizedAffinity>
-6.34501505

$$$$
