
 OpenBabel03242522363D

 42 45  0  0  1  0  0  0  0  0999 V2000
   36.4800   31.2090   39.6710 C   0  0  0  0  0  0  0  0  0  0  0  0
   37.2700   32.1830   39.1240 C   0  0  0  0  0  0  0  0  0  0  0  0
   37.7250   31.9870   37.8540 C   0  0  0  0  0  0  0  0  0  0  0  0
   37.4460   30.8680   37.0770 C   0  0  0  0  0  0  0  0  0  0  0  0
   36.6450   29.8890   37.6440 C   0  0  0  0  0  0  0  0  0  0  0  0
   36.1700   30.0750   38.9450 C   0  0  0  0  0  0  0  0  0  0  0  0
   38.3540   32.7260   37.3710 H   0  0  0  0  0  0  0  0  0  0  0  0
   37.8270   30.7620   36.0850 H   0  0  0  0  0  0  0  0  0  0  0  0
   36.4070   29.0040   37.0660 H   0  0  0  0  0  0  0  0  0  0  0  0
   37.6280   33.4070   39.8600 C   0  0  0  0  0  0  0  0  0  0  0  0
   37.0160   33.5980   40.7350 H   0  0  0  0  0  0  0  0  0  0  0  0
   37.4370   34.2760   39.1700 H   0  0  0  0  0  0  0  0  0  0  0  0
   41.1400   34.5360   40.1310 C   0  0  0  0  0  0  0  0  0  0  0  0
   41.7450   33.4570   40.7810 C   0  0  0  0  0  0  0  0  0  0  0  0
   40.9360   32.3680   41.1100 C   0  0  0  0  0  0  0  0  0  0  0  0
   39.6270   32.4120   40.7890 N   0  0  0  0  0  0  0  0  0  0  0  0
   39.0710   33.4740   40.1590 C   0  0  0  0  0  0  0  0  0  0  0  0
   39.8360   34.5170   39.8410 N   0  0  0  0  0  0  0  0  0  0  0  0
   41.7810   35.3830   39.8760 H   0  0  0  0  0  0  0  0  0  0  0  0
   42.7940   33.3980   41.0490 H   0  0  0  0  0  0  0  0  0  0  0  0
   41.3570   31.5100   41.6140 H   0  0  0  0  0  0  0  0  0  0  0  0
   35.9830   31.3390   40.9530 O   0  0  0  0  0  0  0  0  0  0  0  0
   35.0340   31.5670   41.2030 H   0  0  0  0  0  0  0  0  0  0  0  0
   35.3730   29.0860   39.4940 O   0  0  0  0  0  0  0  0  0  0  0  0
   35.8790   27.8010   39.5410 C   0  0  0  0  0  0  0  0  0  0  0  0
   35.7030   27.0230   38.3980 C   0  0  0  0  0  0  0  0  0  0  0  0
   36.1930   25.7250   38.3980 C   0  0  0  0  0  0  0  0  0  0  0  0
   36.8490   25.2080   39.5180 C   0  0  0  0  0  0  0  0  0  0  0  0
   36.9890   26.0330   40.6190 C   0  0  0  0  0  0  0  0  0  0  0  0
   36.5200   27.3360   40.6770 C   0  0  0  0  0  0  0  0  0  0  0  0
   35.1980   27.4110   37.5270 H   0  0  0  0  0  0  0  0  0  0  0  0
   36.0370   25.1600   37.4960 H   0  0  0  0  0  0  0  0  0  0  0  0
   37.2100   24.2000   39.4680 H   0  0  0  0  0  0  0  0  0  0  0  0
   37.5050   25.5480   41.4310 H   0  0  0  0  0  0  0  0  0  0  0  0
   36.7030   28.1400   41.8780 C   0  0  1  0  0  3  0  0  0  0  0  0
   36.7570   27.2620   43.1350 C   0  0  0  0  0  3  0  0  0  0  0  0
   36.6470   26.2010   42.8360 H   0  0  0  0  0  0  0  0  0  0  0  0
   38.0960   27.5820   43.7150 C   0  0  0  0  0  3  0  0  0  0  0  0
   38.4780   26.7880   44.3750 H   0  0  0  0  0  0  0  0  0  0  0  0
   38.8880   27.7560   42.5640 O   0  0  0  0  0  0  0  0  0  0  0  0
   38.1290   28.6880   41.8730 C   0  0  0  0  0  3  0  0  0  0  0  0
   38.4920   28.9350   40.8740 H   0  0  0  0  0  0  0  0  0  0  0  0
  1 22  1  0  0  0  0
  2  1  1  0  0  0  0
  2 10  1  0  0  0  0
  3  2  2  0  0  0  0
  4  5  2  0  0  0  0
  4  3  1  0  0  0  0
  5  6  1  0  0  0  0
  6 24  1  0  0  0  0
  6  1  2  0  0  0  0
  7  3  1  0  0  0  0
  8  4  1  0  0  0  0
  9  5  1  0  0  0  0
 10 17  1  0  0  0  0
 10 11  1  0  0  0  0
 12 10  1  0  0  0  0
 13 14  1  0  0  0  0
 14 20  1  0  0  0  0
 14 15  2  0  0  0  0
 15 21  1  0  0  0  0
 16 15  1  0  0  0  0
 17 16  2  0  0  0  0
 18 13  2  0  0  0  0
 18 17  1  0  0  0  0
 19 13  1  0  0  0  0
 22 23  1  0  0  0  0
 24 25  1  0  0  0  0
 25 30  1  0  0  0  0
 26 25  2  0  0  0  0
 27 26  1  0  0  0  0
 27 28  2  0  0  0  0
 28 29  1  0  0  0  0
 29 30  2  0  0  0  0
 29 34  1  0  0  0  0
 31 26  1  0  0  0  0
 32 27  1  0  0  0  0
 33 28  1  0  0  0  0
 35 30  1  6  0  0  0
 35 36  1  0  0  0  0
 36 38  1  0  0  0  0
 37 36  1  0  0  0  0
 38 39  1  0  0  0  0
 40 38  1  0  0  0  0
 41 35  1  0  0  0  0
 41 40  1  0  0  0  0
 42 41  1  0  0  0  0
M  END
>  <minimizedAffinity>
-6.7472744

$$$$

 OpenBabel03242522363D

 42 45  0  0  1  0  0  0  0  0999 V2000
   37.0240   28.4370   42.2570 C   0  0  0  0  0  0  0  0  0  0  0  0
   37.6340   27.3280   42.7760 C   0  0  0  0  0  0  0  0  0  0  0  0
   38.9430   27.4400   43.1400 C   0  0  0  0  0  0  0  0  0  0  0  0
   39.7010   28.5990   43.0210 C   0  0  0  0  0  0  0  0  0  0  0  0
   39.0700   29.7150   42.4940 C   0  0  0  0  0  0  0  0  0  0  0  0
   37.7280   29.6170   42.1160 C   0  0  0  0  0  0  0  0  0  0  0  0
   39.4760   26.5930   43.5560 H   0  0  0  0  0  0  0  0  0  0  0  0
   40.7250   28.6360   43.3220 H   0  0  0  0  0  0  0  0  0  0  0  0
   39.6320   30.6370   42.3870 H   0  0  0  0  0  0  0  0  0  0  0  0
   36.9250   26.0490   42.9440 C   0  0  0  0  0  0  0  0  0  0  0  0
   35.8700   26.1490   43.1790 H   0  0  0  0  0  0  0  0  0  0  0  0
   37.3770   25.5340   43.8370 H   0  0  0  0  0  0  0  0  0  0  0  0
   38.1070   23.2270   40.8670 C   0  0  0  0  0  0  0  0  0  0  0  0
   37.5160   23.5040   39.6310 C   0  0  0  0  0  0  0  0  0  0  0  0
   36.7270   24.6520   39.5390 C   0  0  0  0  0  0  0  0  0  0  0  0
   36.5760   25.4250   40.6330 N   0  0  0  0  0  0  0  0  0  0  0  0
   37.1630   25.1270   41.8170 C   0  0  0  0  0  0  0  0  0  0  0  0
   37.9180   24.0340   41.9130 N   0  0  0  0  0  0  0  0  0  0  0  0
   38.7230   22.3270   40.9290 H   0  0  0  0  0  0  0  0  0  0  0  0
   37.6220   22.8990   38.7380 H   0  0  0  0  0  0  0  0  0  0  0  0
   36.2480   24.9100   38.6060 H   0  0  0  0  0  0  0  0  0  0  0  0
   35.6990   28.3970   41.8660 O   0  0  0  0  0  0  0  0  0  0  0  0
   34.9210   28.7990   42.3630 H   0  0  0  0  0  0  0  0  0  0  0  0
   37.1170   30.7410   41.5900 O   0  0  0  0  0  0  0  0  0  0  0  0
   37.3360   31.0330   40.2580 C   0  0  0  0  0  0  0  0  0  0  0  0
   36.6850   30.2230   39.3300 C   0  0  0  0  0  0  0  0  0  0  0  0
   36.8740   30.4770   37.9790 C   0  0  0  0  0  0  0  0  0  0  0  0
   37.6990   31.5230   37.5570 C   0  0  0  0  0  0  0  0  0  0  0  0
   38.3160   32.2890   38.5300 C   0  0  0  0  0  0  0  0  0  0  0  0
   38.1640   32.0810   39.8920 C   0  0  0  0  0  0  0  0  0  0  0  0
   36.0450   29.4120   39.6440 H   0  0  0  0  0  0  0  0  0  0  0  0
   36.3530   29.8280   37.2970 H   0  0  0  0  0  0  0  0  0  0  0  0
   37.8130   31.6790   36.5030 H   0  0  0  0  0  0  0  0  0  0  0  0
   38.9300   33.0670   38.1100 H   0  0  0  0  0  0  0  0  0  0  0  0
   38.8540   32.9300   40.8540 C   0  0  1  0  0  3  0  0  0  0  0  0
   40.3690   32.6870   40.8300 C   0  0  0  0  0  3  0  0  0  0  0  0
   40.5950   31.9120   40.0700 H   0  0  0  0  0  0  0  0  0  0  0  0
   40.9230   34.0320   40.4920 C   0  0  0  0  0  3  0  0  0  0  0  0
   41.9290   33.9820   40.0490 H   0  0  0  0  0  0  0  0  0  0  0  0
   39.9620   34.5360   39.5950 O   0  0  0  0  0  0  0  0  0  0  0  0
   38.8060   34.3690   40.3430 C   0  0  0  0  0  3  0  0  0  0  0  0
   37.8760   34.6110   39.8240 H   0  0  0  0  0  0  0  0  0  0  0  0
  1  2  1  0  0  0  0
  2 10  1  0  0  0  0
  2  3  2  0  0  0  0
  3  7  1  0  0  0  0
  4  3  1  0  0  0  0
  4  8  1  0  0  0  0
  5  4  2  0  0  0  0
  6  1  2  0  0  0  0
  6  5  1  0  0  0  0
  9  5  1  0  0  0  0
 10 11  1  0  0  0  0
 10 12  1  0  0  0  0
 13 19  1  0  0  0  0
 13 18  1  0  0  0  0
 14 13  2  0  0  0  0
 15 14  1  0  0  0  0
 15 16  2  0  0  0  0
 16 17  1  0  0  0  0
 17 18  2  0  0  0  0
 17 10  1  0  0  0  0
 20 14  1  0  0  0  0
 21 15  1  0  0  0  0
 22  1  1  0  0  0  0
 22 23  1  0  0  0  0
 24  6  1  0  0  0  0
 25 24  1  0  0  0  0
 26 31  1  0  0  0  0
 26 25  2  0  0  0  0
 27 26  1  0  0  0  0
 28 27  2  0  0  0  0
 28 29  1  0  0  0  0
 29 30  2  0  0  0  0
 30 25  1  0  0  0  0
 32 27  1  0  0  0  0
 33 28  1  0  0  0  0
 34 29  1  0  0  0  0
 35 30  1  6  0  0  0
 36 35  1  0  0  0  0
 37 36  1  0  0  0  0
 38 36  1  0  0  0  0
 39 38  1  0  0  0  0
 40 41  1  0  0  0  0
 40 38  1  0  0  0  0
 41 35  1  0  0  0  0
 42 41  1  0  0  0  0
M  END
>  <minimizedAffinity>
-6.21519232

$$$$

 OpenBabel03242522363D

 42 45  0  0  1  0  0  0  0  0999 V2000
   36.7480   29.5910   41.2970 C   0  0  0  0  0  0  0  0  0  0  0  0
   36.7500   30.4890   40.2650 C   0  0  0  0  0  0  0  0  0  0  0  0
   36.6030   29.9970   39.0020 C   0  0  0  0  0  0  0  0  0  0  0  0
   36.4520   28.6500   38.6890 C   0  0  0  0  0  0  0  0  0  0  0  0
   36.4510   27.7530   39.7450 C   0  0  0  0  0  0  0  0  0  0  0  0
   36.6010   28.2410   41.0460 C   0  0  0  0  0  0  0  0  0  0  0  0
   36.5970   30.6620   38.1460 H   0  0  0  0  0  0  0  0  0  0  0  0
   36.3390   28.3160   37.6810 H   0  0  0  0  0  0  0  0  0  0  0  0
   36.3350   26.6950   39.5380 H   0  0  0  0  0  0  0  0  0  0  0  0
   36.9050   31.9360   40.4830 C   0  0  0  0  0  0  0  0  0  0  0  0
   36.3890   32.3140   41.3600 H   0  0  0  0  0  0  0  0  0  0  0  0
   36.4210   32.4570   39.6100 H   0  0  0  0  0  0  0  0  0  0  0  0
   40.0400   33.7330   39.6970 C   0  0  0  0  0  0  0  0  0  0  0  0
   40.9800   33.0280   40.4540 C   0  0  0  0  0  0  0  0  0  0  0  0
   40.5170   31.9540   41.2160 C   0  0  0  0  0  0  0  0  0  0  0  0
   39.2030   31.6540   41.1830 N   0  0  0  0  0  0  0  0  0  0  0  0
   38.3180   32.3580   40.4380 C   0  0  0  0  0  0  0  0  0  0  0  0
   38.7520   33.3840   39.7080 N   0  0  0  0  0  0  0  0  0  0  0  0
   40.4120   34.5710   39.1040 H   0  0  0  0  0  0  0  0  0  0  0  0
   42.0410   33.2490   40.4960 H   0  0  0  0  0  0  0  0  0  0  0  0
   41.2040   31.3770   41.8180 H   0  0  0  0  0  0  0  0  0  0  0  0
   36.8920   30.0170   42.6040 O   0  0  0  0  0  0  0  0  0  0  0  0
   36.1620   30.0750   43.2950 H   0  0  0  0  0  0  0  0  0  0  0  0
   36.5990   27.3290   42.0860 O   0  0  0  0  0  0  0  0  0  0  0  0
   37.3990   26.2090   41.9660 C   0  0  0  0  0  0  0  0  0  0  0  0
   36.8050   25.0800   41.4070 C   0  0  0  0  0  0  0  0  0  0  0  0
   37.5680   23.9290   41.2660 C   0  0  0  0  0  0  0  0  0  0  0  0
   38.9040   23.9040   41.6740 C   0  0  0  0  0  0  0  0  0  0  0  0
   39.4330   25.0590   42.2210 C   0  0  0  0  0  0  0  0  0  0  0  0
   38.7190   26.2350   42.3870 C   0  0  0  0  0  0  0  0  0  0  0  0
   35.7740   25.0870   41.0880 H   0  0  0  0  0  0  0  0  0  0  0  0
   37.0700   23.0810   40.8300 H   0  0  0  0  0  0  0  0  0  0  0  0
   39.4520   22.9910   41.5440 H   0  0  0  0  0  0  0  0  0  0  0  0
   40.4640   24.9420   42.5060 H   0  0  0  0  0  0  0  0  0  0  0  0
   39.3470   27.4090   42.9780 C   0  0  1  0  0  3  0  0  0  0  0  0
   40.5350   27.0200   43.8670 C   0  0  0  0  0  3  0  0  0  0  0  0
   40.6470   25.9180   43.8530 H   0  0  0  0  0  0  0  0  0  0  0  0
   41.6810   27.7440   43.2390 C   0  0  0  0  0  3  0  0  0  0  0  0
   42.6550   27.2930   43.4790 H   0  0  0  0  0  0  0  0  0  0  0  0
   41.3700   27.6640   41.8680 O   0  0  0  0  0  0  0  0  0  0  0  0
   40.0780   28.1670   41.8710 C   0  0  0  0  0  3  0  0  0  0  0  0
   39.5620   28.1300   40.9100 H   0  0  0  0  0  0  0  0  0  0  0  0
  1 22  1  0  0  0  0
  2 10  1  0  0  0  0
  2  1  2  0  0  0  0
  3  2  1  0  0  0  0
  4  3  2  0  0  0  0
  4  5  1  0  0  0  0
  5  6  2  0  0  0  0
  6  1  1  0  0  0  0
  6 24  1  0  0  0  0
  7  3  1  0  0  0  0
  8  4  1  0  0  0  0
  9  5  1  0  0  0  0
 10 11  1  0  0  0  0
 12 10  1  0  0  0  0
 13 18  2  0  0  0  0
 13 14  1  0  0  0  0
 14 20  1  0  0  0  0
 14 15  2  0  0  0  0
 15 21  1  0  0  0  0
 16 15  1  0  0  0  0
 17 10  1  0  0  0  0
 17 16  2  0  0  0  0
 18 17  1  0  0  0  0
 19 13  1  0  0  0  0
 22 23  1  0  0  0  0
 25 24  1  0  0  0  0
 25 30  1  0  0  0  0
 26 25  2  0  0  0  0
 27 26  1  0  0  0  0
 27 28  2  0  0  0  0
 28 29  1  0  0  0  0
 29 30  2  0  0  0  0
 29 34  1  0  0  0  0
 31 26  1  0  0  0  0
 32 27  1  0  0  0  0
 33 28  1  0  0  0  0
 35 30  1  6  0  0  0
 35 36  1  0  0  0  0
 37 36  1  0  0  0  0
 38 39  1  0  0  0  0
 38 36  1  0  0  0  0
 40 41  1  0  0  0  0
 40 38  1  0  0  0  0
 41 35  1  0  0  0  0
 42 41  1  0  0  0  0
M  END
>  <minimizedAffinity>
-6.11078358

$$$$

 OpenBabel03242522363D

 42 45  0  0  1  0  0  0  0  0999 V2000
   36.7950   29.8710   41.0380 C   0  0  0  0  0  0  0  0  0  0  0  0
   37.0290   30.8340   40.0950 C   0  0  0  0  0  0  0  0  0  0  0  0
   37.2500   30.4220   38.8140 C   0  0  0  0  0  0  0  0  0  0  0  0
   37.2560   29.0950   38.3990 C   0  0  0  0  0  0  0  0  0  0  0  0
   37.0180   28.1300   39.3650 C   0  0  0  0  0  0  0  0  0  0  0  0
   36.7900   28.5360   40.6830 C   0  0  0  0  0  0  0  0  0  0  0  0
   37.4400   31.1420   38.0260 H   0  0  0  0  0  0  0  0  0  0  0  0
   37.4340   28.8240   37.3810 H   0  0  0  0  0  0  0  0  0  0  0  0
   37.0150   27.0850   39.0770 H   0  0  0  0  0  0  0  0  0  0  0  0
   37.0460   32.2680   40.4250 C   0  0  0  0  0  0  0  0  0  0  0  0
   36.4830   32.5290   41.3150 H   0  0  0  0  0  0  0  0  0  0  0  0
   36.5320   32.8090   39.5820 H   0  0  0  0  0  0  0  0  0  0  0  0
   39.9570   34.5320   40.1450 C   0  0  0  0  0  0  0  0  0  0  0  0
   41.0120   33.7030   40.5350 C   0  0  0  0  0  0  0  0  0  0  0  0
   40.7010   32.3870   40.8850 C   0  0  0  0  0  0  0  0  0  0  0  0
   39.4140   31.9880   40.8300 N   0  0  0  0  0  0  0  0  0  0  0  0
   38.4150   32.8180   40.4470 C   0  0  0  0  0  0  0  0  0  0  0  0
   38.7040   34.0740   40.1110 N   0  0  0  0  0  0  0  0  0  0  0  0
   40.2110   35.5590   39.8730 H   0  0  0  0  0  0  0  0  0  0  0  0
   42.0540   33.9990   40.5880 H   0  0  0  0  0  0  0  0  0  0  0  0
   41.4810   31.7070   41.1940 H   0  0  0  0  0  0  0  0  0  0  0  0
   36.5640   30.2140   42.3560 O   0  0  0  0  0  0  0  0  0  0  0  0
   35.6730   30.2010   42.8260 H   0  0  0  0  0  0  0  0  0  0  0  0
   36.5560   27.5570   41.6330 O   0  0  0  0  0  0  0  0  0  0  0  0
   37.6480   26.9070   42.1740 C   0  0  0  0  0  0  0  0  0  0  0  0
   38.4010   27.6260   43.1010 C   0  0  0  0  0  0  0  0  0  0  0  0
   39.5080   27.0150   43.6720 C   0  0  0  0  0  0  0  0  0  0  0  0
   39.8610   25.7090   43.3260 C   0  0  0  0  0  0  0  0  0  0  0  0
   39.0720   25.0520   42.4000 C   0  0  0  0  0  0  0  0  0  0  0  0
   37.9560   25.6110   41.7970 C   0  0  0  0  0  0  0  0  0  0  0  0
   38.1380   28.6360   43.3760 H   0  0  0  0  0  0  0  0  0  0  0  0
   40.0610   27.6050   44.3820 H   0  0  0  0  0  0  0  0  0  0  0  0
   40.7260   25.2810   43.7960 H   0  0  0  0  0  0  0  0  0  0  0  0
   39.4220   24.0540   42.1980 H   0  0  0  0  0  0  0  0  0  0  0  0
   37.1790   24.8540   40.8250 C   0  0  1  0  0  3  0  0  0  0  0  0
   37.8020   24.9360   39.4250 C   0  0  0  0  0  3  0  0  0  0  0  0
   38.7170   25.5590   39.4770 H   0  0  0  0  0  0  0  0  0  0  0  0
   38.0720   23.5060   39.0890 C   0  0  0  0  0  3  0  0  0  0  0  0
   38.8560   23.3860   38.3260 H   0  0  0  0  0  0  0  0  0  0  0  0
   38.4460   22.9710   40.3370 O   0  0  0  0  0  0  0  0  0  0  0  0
   37.3690   23.3670   41.1160 C   0  0  0  0  0  3  0  0  0  0  0  0
   37.4570   23.1430   42.1810 H   0  0  0  0  0  0  0  0  0  0  0  0
  1 22  1  0  0  0  0
  2 10  1  0  0  0  0
  2  1  2  0  0  0  0
  3  2  1  0  0  0  0
  4  3  2  0  0  0  0
  4  5  1  0  0  0  0
  5  6  2  0  0  0  0
  6  1  1  0  0  0  0
  6 24  1  0  0  0  0
  7  3  1  0  0  0  0
  8  4  1  0  0  0  0
  9  5  1  0  0  0  0
 10 17  1  0  0  0  0
 10 11  1  0  0  0  0
 12 10  1  0  0  0  0
 13 14  1  0  0  0  0
 14 20  1  0  0  0  0
 14 15  2  0  0  0  0
 15 21  1  0  0  0  0
 16 15  1  0  0  0  0
 17 16  2  0  0  0  0
 18 13  2  0  0  0  0
 18 17  1  0  0  0  0
 19 13  1  0  0  0  0
 22 23  1  0  0  0  0
 24 25  1  0  0  0  0
 25 26  1  0  0  0  0
 26 31  1  0  0  0  0
 26 27  2  0  0  0  0
 27 32  1  0  0  0  0
 28 27  1  0  0  0  0
 28 33  1  0  0  0  0
 29 28  2  0  0  0  0
 30 25  2  0  0  0  0
 30 29  1  0  0  0  0
 34 29  1  0  0  0  0
 35 41  1  0  0  0  0
 35 30  1  1  0  0  0
 36 37  1  0  0  0  0
 36 35  1  0  0  0  0
 38 36  1  0  0  0  0
 38 40  1  0  0  0  0
 39 38  1  0  0  0  0
 40 41  1  0  0  0  0
 41 42  1  0  0  0  0
M  END
>  <minimizedAffinity>
-6.0752964

$$$$

 OpenBabel03242522363D

 42 45  0  0  1  0  0  0  0  0999 V2000
   37.6460   31.1910   41.0900 C   0  0  0  0  0  0  0  0  0  0  0  0
   38.7640   31.9790   41.1270 C   0  0  0  0  0  0  0  0  0  0  0  0
   39.8270   31.5330   41.8550 C   0  0  0  0  0  0  0  0  0  0  0  0
   39.8550   30.3360   42.5630 C   0  0  0  0  0  0  0  0  0  0  0  0
   38.7160   29.5480   42.5170 C   0  0  0  0  0  0  0  0  0  0  0  0
   37.6180   29.9910   41.7740 C   0  0  0  0  0  0  0  0  0  0  0  0
   40.7380   32.1160   41.9180 H   0  0  0  0  0  0  0  0  0  0  0  0
   40.7150   30.0310   43.1180 H   0  0  0  0  0  0  0  0  0  0  0  0
   38.7040   28.6080   43.0570 H   0  0  0  0  0  0  0  0  0  0  0  0
   38.8410   33.2650   40.4150 C   0  0  0  0  0  0  0  0  0  0  0  0
   38.9110   34.1320   41.0630 H   0  0  0  0  0  0  0  0  0  0  0  0
   37.8720   33.3930   39.8550 H   0  0  0  0  0  0  0  0  0  0  0  0
   40.8920   32.3940   37.4630 C   0  0  0  0  0  0  0  0  0  0  0  0
   41.8800   33.3800   37.4910 C   0  0  0  0  0  0  0  0  0  0  0  0
   41.8210   34.3210   38.5210 C   0  0  0  0  0  0  0  0  0  0  0  0
   40.8250   34.2320   39.4250 N   0  0  0  0  0  0  0  0  0  0  0  0
   39.8820   33.2610   39.3690 C   0  0  0  0  0  0  0  0  0  0  0  0
   39.9310   32.3600   38.3900 N   0  0  0  0  0  0  0  0  0  0  0  0
   40.9470   31.6620   36.6540 H   0  0  0  0  0  0  0  0  0  0  0  0
   42.6910   33.4740   36.7760 H   0  0  0  0  0  0  0  0  0  0  0  0
   42.5620   35.1050   38.5860 H   0  0  0  0  0  0  0  0  0  0  0  0
   36.5310   31.5780   40.3730 O   0  0  0  0  0  0  0  0  0  0  0  0
   36.2330   31.2010   39.4880 H   0  0  0  0  0  0  0  0  0  0  0  0
   36.4900   29.1910   41.7430 O   0  0  0  0  0  0  0  0  0  0  0  0
   36.6520   27.8560   41.4250 C   0  0  0  0  0  0  0  0  0  0  0  0
   36.8310   26.9810   42.4940 C   0  0  0  0  0  0  0  0  0  0  0  0
   36.9990   25.6300   42.2250 C   0  0  0  0  0  0  0  0  0  0  0  0
   36.9880   25.1570   40.9100 C   0  0  0  0  0  0  0  0  0  0  0  0
   36.8070   26.0780   39.8950 C   0  0  0  0  0  0  0  0  0  0  0  0
   36.6350   27.4380   40.1040 C   0  0  0  0  0  0  0  0  0  0  0  0
   36.8410   27.3350   43.5140 H   0  0  0  0  0  0  0  0  0  0  0  0
   37.1330   24.9900   43.0790 H   0  0  0  0  0  0  0  0  0  0  0  0
   37.1220   24.1040   40.7550 H   0  0  0  0  0  0  0  0  0  0  0  0
   36.8140   25.6210   38.9210 H   0  0  0  0  0  0  0  0  0  0  0  0
   36.4550   28.3460   38.9800 C   0  0  1  0  0  3  0  0  0  0  0  0
   36.7250   27.6420   37.6440 C   0  0  0  0  0  3  0  0  0  0  0  0
   36.9960   26.5870   37.8430 H   0  0  0  0  0  0  0  0  0  0  0  0
   35.4330   27.7980   36.9100 C   0  0  0  0  0  3  0  0  0  0  0  0
   35.2940   27.0420   36.1230 H   0  0  0  0  0  0  0  0  0  0  0  0
   34.4850   27.6810   37.9450 O   0  0  0  0  0  0  0  0  0  0  0  0
   34.9610   28.6340   38.8330 C   0  0  0  0  0  3  0  0  0  0  0  0
   34.4360   28.6830   39.7890 H   0  0  0  0  0  0  0  0  0  0  0  0
  1  2  2  0  0  0  0
  1  6  1  0  0  0  0
  2  3  1  0  0  0  0
  3  7  1  0  0  0  0
  3  4  2  0  0  0  0
  4  8  1  0  0  0  0
  5  4  1  0  0  0  0
  5  9  1  0  0  0  0
  6  5  2  0  0  0  0
 10 11  1  0  0  0  0
 10  2  1  0  0  0  0
 12 10  1  0  0  0  0
 13 14  2  0  0  0  0
 13 18  1  0  0  0  0
 14 15  1  0  0  0  0
 15 21  1  0  0  0  0
 15 16  2  0  0  0  0
 17 16  1  0  0  0  0
 17 10  1  0  0  0  0
 18 17  2  0  0  0  0
 19 13  1  0  0  0  0
 20 14  1  0  0  0  0
 22  1  1  0  0  0  0
 23 22  1  0  0  0  0
 24  6  1  0  0  0  0
 25 24  1  0  0  0  0
 25 26  1  0  0  0  0
 26 31  1  0  0  0  0
 27 26  2  0  0  0  0
 27 32  1  0  0  0  0
 28 27  1  0  0  0  0
 29 30  1  0  0  0  0
 29 28  2  0  0  0  0
 30 25  2  0  0  0  0
 33 28  1  0  0  0  0
 34 29  1  0  0  0  0
 35 30  1  1  0  0  0
 36 37  1  0  0  0  0
 36 35  1  0  0  0  0
 38 36  1  0  0  0  0
 38 40  1  0  0  0  0
 39 38  1  0  0  0  0
 40 41  1  0  0  0  0
 41 35  1  0  0  0  0
 41 42  1  0  0  0  0
M  END
>  <minimizedAffinity>
-6.06055355

$$$$

 OpenBabel03242522363D

 42 45  0  0  1  0  0  0  0  0999 V2000
   34.9420   29.5110   39.0070 C   0  0  0  0  0  0  0  0  0  0  0  0
   34.8050   29.0410   37.7290 C   0  0  0  0  0  0  0  0  0  0  0  0
   35.8250   29.2810   36.8570 C   0  0  0  0  0  0  0  0  0  0  0  0
   36.9910   29.9690   37.1720 C   0  0  0  0  0  0  0  0  0  0  0  0
   37.1160   30.4400   38.4700 C   0  0  0  0  0  0  0  0  0  0  0  0
   36.0790   30.2020   39.3770 C   0  0  0  0  0  0  0  0  0  0  0  0
   35.7710   28.9310   35.8320 H   0  0  0  0  0  0  0  0  0  0  0  0
   37.7620   30.1310   36.4510 H   0  0  0  0  0  0  0  0  0  0  0  0
   38.0120   30.9810   38.7500 H   0  0  0  0  0  0  0  0  0  0  0  0
   33.6120   28.3000   37.2890 C   0  0  0  0  0  0  0  0  0  0  0  0
   33.2240   27.6010   38.0220 H   0  0  0  0  0  0  0  0  0  0  0  0
   33.9200   27.6670   36.4110 H   0  0  0  0  0  0  0  0  0  0  0  0
   31.5350   30.3800   35.0440 C   0  0  0  0  0  0  0  0  0  0  0  0
   30.5590   30.8680   35.9170 C   0  0  0  0  0  0  0  0  0  0  0  0
   30.6350   30.4730   37.2540 C   0  0  0  0  0  0  0  0  0  0  0  0
   31.6350   29.6510   37.6310 N   0  0  0  0  0  0  0  0  0  0  0  0
   32.5660   29.1960   36.7590 C   0  0  0  0  0  0  0  0  0  0  0  0
   32.5000   29.5680   35.4820 N   0  0  0  0  0  0  0  0  0  0  0  0
   31.4670   30.6950   34.0000 H   0  0  0  0  0  0  0  0  0  0  0  0
   29.7460   31.5300   35.6380 H   0  0  0  0  0  0  0  0  0  0  0  0
   29.9040   30.8240   37.9680 H   0  0  0  0  0  0  0  0  0  0  0  0
   33.9490   29.3050   39.9450 O   0  0  0  0  0  0  0  0  0  0  0  0
   33.9760   28.6440   40.7050 H   0  0  0  0  0  0  0  0  0  0  0  0
   36.2220   30.6810   40.6670 O   0  0  0  0  0  0  0  0  0  0  0  0
   37.4280   30.4700   41.3060 C   0  0  0  0  0  0  0  0  0  0  0  0
   38.3630   31.4990   41.2210 C   0  0  0  0  0  0  0  0  0  0  0  0
   39.5910   31.3330   41.8470 C   0  0  0  0  0  0  0  0  0  0  0  0
   39.8830   30.1600   42.5470 C   0  0  0  0  0  0  0  0  0  0  0  0
   38.9110   29.1770   42.5920 C   0  0  0  0  0  0  0  0  0  0  0  0
   37.6690   29.2880   41.9860 C   0  0  0  0  0  0  0  0  0  0  0  0
   38.1490   32.4100   40.6830 H   0  0  0  0  0  0  0  0  0  0  0  0
   40.2830   32.1520   41.7570 H   0  0  0  0  0  0  0  0  0  0  0  0
   40.8460   30.0800   43.0130 H   0  0  0  0  0  0  0  0  0  0  0  0
   39.2270   28.3140   43.1510 H   0  0  0  0  0  0  0  0  0  0  0  0
   36.7000   28.2040   42.0750 C   0  0  1  0  0  3  0  0  0  0  0  0
   36.9840   27.1130   41.0340 C   0  0  0  0  0  3  0  0  0  0  0  0
   37.8770   27.4030   40.4460 H   0  0  0  0  0  0  0  0  0  0  0  0
   37.1890   25.8920   41.8680 C   0  0  0  0  0  3  0  0  0  0  0  0
   37.7780   25.1170   41.3550 H   0  0  0  0  0  0  0  0  0  0  0  0
   37.8470   26.4100   43.0010 O   0  0  0  0  0  0  0  0  0  0  0  0
   36.9720   27.4240   43.3600 C   0  0  0  0  0  3  0  0  0  0  0  0
   37.3060   28.0560   44.1850 H   0  0  0  0  0  0  0  0  0  0  0  0
  1  6  1  0  0  0  0
  1 22  1  0  0  0  0
  2  1  2  0  0  0  0
  3  4  2  0  0  0  0
  3  2  1  0  0  0  0
  4  5  1  0  0  0  0
  5  9  1  0  0  0  0
  5  6  2  0  0  0  0
  6 24  1  0  0  0  0
  7  3  1  0  0  0  0
  8  4  1  0  0  0  0
 10  2  1  0  0  0  0
 10 11  1  0  0  0  0
 12 10  1  0  0  0  0
 13 18  2  0  0  0  0
 13 14  1  0  0  0  0
 14 15  2  0  0  0  0
 15 16  1  0  0  0  0
 15 21  1  0  0  0  0
 17 10  1  0  0  0  0
 17 16  2  0  0  0  0
 18 17  1  0  0  0  0
 19 13  1  0  0  0  0
 20 14  1  0  0  0  0
 22 23  1  0  0  0  0
 24 25  1  0  0  0  0
 25 30  1  0  0  0  0
 26 25  2  0  0  0  0
 26 27  1  0  0  0  0
 27 28  2  0  0  0  0
 28 29  1  0  0  0  0
 28 33  1  0  0  0  0
 29 34  1  0  0  0  0
 30 29  2  0  0  0  0
 31 26  1  0  0  0  0
 32 27  1  0  0  0  0
 35 30  1  6  0  0  0
 35 41  1  0  0  0  0
 36 38  1  0  0  0  0
 36 35  1  0  0  0  0
 37 36  1  0  0  0  0
 38 40  1  0  0  0  0
 39 38  1  0  0  0  0
 40 41  1  0  0  0  0
 41 42  1  0  0  0  0
M  END
>  <minimizedAffinity>
-5.95724058

$$$$

 OpenBabel03242522363D

 42 45  0  0  1  0  0  0  0  0999 V2000
   38.2660   29.5250   42.5280 C   0  0  0  0  0  0  0  0  0  0  0  0
   38.4870   28.2550   42.9870 C   0  0  0  0  0  0  0  0  0  0  0  0
   39.7810   27.8590   43.1510 C   0  0  0  0  0  0  0  0  0  0  0  0
   40.8920   28.6530   42.8840 C   0  0  0  0  0  0  0  0  0  0  0  0
   40.6530   29.9370   42.4200 C   0  0  0  0  0  0  0  0  0  0  0  0
   39.3320   30.3580   42.2470 C   0  0  0  0  0  0  0  0  0  0  0  0
   40.0150   26.8640   43.5120 H   0  0  0  0  0  0  0  0  0  0  0  0
   41.8880   28.2960   43.0300 H   0  0  0  0  0  0  0  0  0  0  0  0
   41.4960   30.5840   42.2030 H   0  0  0  0  0  0  0  0  0  0  0  0
   37.3840   27.3310   43.2990 C   0  0  0  0  0  0  0  0  0  0  0  0
   36.4880   27.8140   43.6720 H   0  0  0  0  0  0  0  0  0  0  0  0
   37.7340   26.6700   44.1410 H   0  0  0  0  0  0  0  0  0  0  0  0
   36.7820   24.2820   41.2950 C   0  0  0  0  0  0  0  0  0  0  0  0
   36.5640   24.8080   40.0190 C   0  0  0  0  0  0  0  0  0  0  0  0
   36.6280   26.1950   39.8760 C   0  0  0  0  0  0  0  0  0  0  0  0
   36.8940   26.9480   40.9620 N   0  0  0  0  0  0  0  0  0  0  0  0
   37.1010   26.4060   42.1850 C   0  0  0  0  0  0  0  0  0  0  0  0
   37.0420   25.0830   42.3300 N   0  0  0  0  0  0  0  0  0  0  0  0
   36.7310   23.1960   41.3970 H   0  0  0  0  0  0  0  0  0  0  0  0
   36.3480   24.2240   39.1310 H   0  0  0  0  0  0  0  0  0  0  0  0
   36.4650   26.6510   38.9090 H   0  0  0  0  0  0  0  0  0  0  0  0
   36.9810   29.9940   42.3380 O   0  0  0  0  0  0  0  0  0  0  0  0
   36.4920   30.6460   42.9300 H   0  0  0  0  0  0  0  0  0  0  0  0
   39.1150   31.6430   41.7810 O   0  0  0  0  0  0  0  0  0  0  0  0
   39.8060   32.0480   40.6560 C   0  0  0  0  0  0  0  0  0  0  0  0
   41.0140   32.7070   40.8750 C   0  0  0  0  0  0  0  0  0  0  0  0
   41.7460   33.1340   39.7750 C   0  0  0  0  0  0  0  0  0  0  0  0
   41.2810   32.9090   38.4770 C   0  0  0  0  0  0  0  0  0  0  0  0
   40.0750   32.2490   38.3300 C   0  0  0  0  0  0  0  0  0  0  0  0
   39.3030   31.8000   39.3900 C   0  0  0  0  0  0  0  0  0  0  0  0
   41.3830   32.8880   41.8730 H   0  0  0  0  0  0  0  0  0  0  0  0
   42.6720   33.6390   39.9890 H   0  0  0  0  0  0  0  0  0  0  0  0
   41.8830   33.2580   37.6610 H   0  0  0  0  0  0  0  0  0  0  0  0
   39.8010   32.1220   37.2970 H   0  0  0  0  0  0  0  0  0  0  0  0
   38.0380   31.1180   39.1520 C   0  0  1  0  0  3  0  0  0  0  0  0
   37.3920   31.5790   37.8390 C   0  0  0  0  0  3  0  0  0  0  0  0
   38.0480   32.3350   37.3630 H   0  0  0  0  0  0  0  0  0  0  0  0
   37.2750   30.3130   37.0550 C   0  0  0  0  0  3  0  0  0  0  0  0
   37.2090   30.4860   35.9700 H   0  0  0  0  0  0  0  0  0  0  0  0
   38.4470   29.6240   37.4220 O   0  0  0  0  0  0  0  0  0  0  0  0
   38.3400   29.6610   38.8040 C   0  0  0  0  0  3  0  0  0  0  0  0
   39.1960   29.2560   39.3480 H   0  0  0  0  0  0  0  0  0  0  0  0
  1  2  1  0  0  0  0
  2  3  2  0  0  0  0
  2 10  1  0  0  0  0
  3  7  1  0  0  0  0
  4  8  1  0  0  0  0
  4  3  1  0  0  0  0
  5  4  2  0  0  0  0
  6  5  1  0  0  0  0
  6  1  2  0  0  0  0
  9  5  1  0  0  0  0
 10 11  1  0  0  0  0
 10 12  1  0  0  0  0
 13 19  1  0  0  0  0
 13 18  1  0  0  0  0
 14 13  2  0  0  0  0
 15 14  1  0  0  0  0
 15 16  2  0  0  0  0
 16 17  1  0  0  0  0
 17 18  2  0  0  0  0
 17 10  1  0  0  0  0
 20 14  1  0  0  0  0
 21 15  1  0  0  0  0
 22  1  1  0  0  0  0
 22 23  1  0  0  0  0
 24  6  1  0  0  0  0
 25 26  1  0  0  0  0
 25 24  1  0  0  0  0
 26 31  1  0  0  0  0
 27 32  1  0  0  0  0
 27 26  2  0  0  0  0
 28 27  1  0  0  0  0
 29 28  2  0  0  0  0
 29 30  1  0  0  0  0
 30 25  2  0  0  0  0
 33 28  1  0  0  0  0
 34 29  1  0  0  0  0
 35 30  1  6  0  0  0
 36 35  1  0  0  0  0
 37 36  1  0  0  0  0
 38 40  1  0  0  0  0
 38 36  1  0  0  0  0
 39 38  1  0  0  0  0
 40 41  1  0  0  0  0
 41 35  1  0  0  0  0
 41 42  1  0  0  0  0
M  END
>  <minimizedAffinity>
-5.9432416

$$$$

 OpenBabel03242522363D

 42 45  0  0  1  0  0  0  0  0999 V2000
   39.6260   32.3610   39.5200 C   0  0  0  0  0  0  0  0  0  0  0  0
   39.6230   33.6340   40.0230 C   0  0  0  0  0  0  0  0  0  0  0  0
   38.4400   34.3120   40.0150 C   0  0  0  0  0  0  0  0  0  0  0  0
   37.2390   33.8030   39.5320 C   0  0  0  0  0  0  0  0  0  0  0  0
   37.2580   32.5130   39.0260 C   0  0  0  0  0  0  0  0  0  0  0  0
   38.4630   31.8040   39.0270 C   0  0  0  0  0  0  0  0  0  0  0  0
   38.3790   35.3220   40.4010 H   0  0  0  0  0  0  0  0  0  0  0  0
   36.3380   34.3760   39.5490 H   0  0  0  0  0  0  0  0  0  0  0  0
   36.3390   32.0850   38.6410 H   0  0  0  0  0  0  0  0  0  0  0  0
   40.8380   34.2690   40.5580 C   0  0  0  0  0  0  0  0  0  0  0  0
   41.0850   33.9780   41.5740 H   0  0  0  0  0  0  0  0  0  0  0  0
   40.6380   35.3760   40.6100 H   0  0  0  0  0  0  0  0  0  0  0  0
   43.0010   34.3400   37.5600 C   0  0  0  0  0  0  0  0  0  0  0  0
   44.2050   33.8320   38.0550 C   0  0  0  0  0  0  0  0  0  0  0  0
   44.2470   33.4780   39.4040 C   0  0  0  0  0  0  0  0  0  0  0  0
   43.1380   33.6410   40.1530 N   0  0  0  0  0  0  0  0  0  0  0  0
   41.9860   34.1360   39.6420 C   0  0  0  0  0  0  0  0  0  0  0  0
   41.9370   34.4770   38.3550 N   0  0  0  0  0  0  0  0  0  0  0  0
   42.9780   34.6140   36.5030 H   0  0  0  0  0  0  0  0  0  0  0  0
   45.1100   33.6920   37.4730 H   0  0  0  0  0  0  0  0  0  0  0  0
   45.1550   33.0810   39.8350 H   0  0  0  0  0  0  0  0  0  0  0  0
   40.7880   31.6140   39.4960 O   0  0  0  0  0  0  0  0  0  0  0  0
   41.0170   30.8500   40.1110 H   0  0  0  0  0  0  0  0  0  0  0  0
   38.4610   30.5190   38.5160 O   0  0  0  0  0  0  0  0  0  0  0  0
   37.2980   29.7810   38.6240 C   0  0  0  0  0  0  0  0  0  0  0  0
   36.3790   29.9140   37.5850 C   0  0  0  0  0  0  0  0  0  0  0  0
   35.1950   29.1930   37.6490 C   0  0  0  0  0  0  0  0  0  0  0  0
   34.9290   28.3520   38.7320 C   0  0  0  0  0  0  0  0  0  0  0  0
   35.8820   28.2660   39.7300 C   0  0  0  0  0  0  0  0  0  0  0  0
   37.0810   28.9610   39.7200 C   0  0  0  0  0  0  0  0  0  0  0  0
   36.5740   30.5610   36.7430 H   0  0  0  0  0  0  0  0  0  0  0  0
   34.5150   29.3260   36.8260 H   0  0  0  0  0  0  0  0  0  0  0  0
   34.0000   27.8170   38.7350 H   0  0  0  0  0  0  0  0  0  0  0  0
   35.5890   27.5960   40.5200 H   0  0  0  0  0  0  0  0  0  0  0  0
   38.0320   28.8210   40.8140 C   0  0  1  0  0  3  0  0  0  0  0  0
   37.7150   29.7910   41.9590 C   0  0  0  0  0  3  0  0  0  0  0  0
   36.8180   30.3830   41.6890 H   0  0  0  0  0  0  0  0  0  0  0  0
   37.4990   28.8820   43.1250 C   0  0  0  0  0  3  0  0  0  0  0  0
   36.8900   29.3400   43.9180 H   0  0  0  0  0  0  0  0  0  0  0  0
   36.8670   27.7740   42.5280 O   0  0  0  0  0  0  0  0  0  0  0  0
   37.7640   27.4880   41.5100 C   0  0  0  0  0  3  0  0  0  0  0  0
   37.4540   26.6980   40.8240 H   0  0  0  0  0  0  0  0  0  0  0  0
  1  2  1  0  0  0  0
  2 10  1  0  0  0  0
  3  2  2  0  0  0  0
  3  7  1  0  0  0  0
  4  8  1  0  0  0  0
  4  3  1  0  0  0  0
  5  6  1  0  0  0  0
  5  4  2  0  0  0  0
  6  1  2  0  0  0  0
  9  5  1  0  0  0  0
 10 12  1  0  0  0  0
 10 11  1  0  0  0  0
 13 14  2  0  0  0  0
 13 18  1  0  0  0  0
 14 15  1  0  0  0  0
 15 21  1  0  0  0  0
 15 16  2  0  0  0  0
 17 16  1  0  0  0  0
 17 10  1  0  0  0  0
 18 17  2  0  0  0  0
 19 13  1  0  0  0  0
 20 14  1  0  0  0  0
 22  1  1  0  0  0  0
 22 23  1  0  0  0  0
 24 25  1  0  0  0  0
 24  6  1  0  0  0  0
 25 30  1  0  0  0  0
 26 27  1  0  0  0  0
 26 25  2  0  0  0  0
 27 28  2  0  0  0  0
 28 33  1  0  0  0  0
 28 29  1  0  0  0  0
 29 34  1  0  0  0  0
 30 29  2  0  0  0  0
 31 26  1  0  0  0  0
 32 27  1  0  0  0  0
 35 30  1  6  0  0  0
 35 41  1  0  0  0  0
 35 36  1  0  0  0  0
 36 38  1  0  0  0  0
 37 36  1  0  0  0  0
 38 39  1  0  0  0  0
 40 38  1  0  0  0  0
 41 40  1  0  0  0  0
 42 41  1  0  0  0  0
M  END
>  <minimizedAffinity>
-5.91003036

$$$$

 OpenBabel03242522363D

 42 45  0  0  1  0  0  0  0  0999 V2000
   34.1720   28.7780   36.9190 C   0  0  0  0  0  0  0  0  0  0  0  0
   33.3850   29.0080   35.8240 C   0  0  0  0  0  0  0  0  0  0  0  0
   33.9970   29.4450   34.6870 C   0  0  0  0  0  0  0  0  0  0  0  0
   35.3630   29.6740   34.5610 C   0  0  0  0  0  0  0  0  0  0  0  0
   36.1490   29.4370   35.6790 C   0  0  0  0  0  0  0  0  0  0  0  0
   35.5360   28.9880   36.8520 C   0  0  0  0  0  0  0  0  0  0  0  0
   33.4230   29.6430   33.7890 H   0  0  0  0  0  0  0  0  0  0  0  0
   35.7950   30.0160   33.6460 H   0  0  0  0  0  0  0  0  0  0  0  0
   37.2180   29.6050   35.6160 H   0  0  0  0  0  0  0  0  0  0  0  0
   31.9280   28.7990   35.8470 C   0  0  0  0  0  0  0  0  0  0  0  0
   31.6190   27.8470   36.2660 H   0  0  0  0  0  0  0  0  0  0  0  0
   31.5780   28.7780   34.7770 H   0  0  0  0  0  0  0  0  0  0  0  0
   30.3600   32.1000   36.4150 C   0  0  0  0  0  0  0  0  0  0  0  0
   29.8600   31.9680   37.7130 C   0  0  0  0  0  0  0  0  0  0  0  0
   30.0720   30.7510   38.3630 C   0  0  0  0  0  0  0  0  0  0  0  0
   30.7400   29.7760   37.7140 N   0  0  0  0  0  0  0  0  0  0  0  0
   31.2120   29.9370   36.4550 C   0  0  0  0  0  0  0  0  0  0  0  0
   31.0140   31.0950   35.8280 N   0  0  0  0  0  0  0  0  0  0  0  0
   30.1900   33.0560   35.9150 H   0  0  0  0  0  0  0  0  0  0  0  0
   29.3210   32.7360   38.2560 H   0  0  0  0  0  0  0  0  0  0  0  0
   29.7050   30.5990   39.3680 H   0  0  0  0  0  0  0  0  0  0  0  0
   33.6210   28.3350   38.1050 O   0  0  0  0  0  0  0  0  0  0  0  0
   33.6770   27.3990   38.4740 H   0  0  0  0  0  0  0  0  0  0  0  0
   36.3370   28.7590   37.9570 O   0  0  0  0  0  0  0  0  0  0  0  0
   36.5540   29.8100   38.8270 C   0  0  0  0  0  0  0  0  0  0  0  0
   36.9590   31.0150   38.2570 C   0  0  0  0  0  0  0  0  0  0  0  0
   37.1900   32.0990   39.0920 C   0  0  0  0  0  0  0  0  0  0  0  0
   37.0200   31.9860   40.4730 C   0  0  0  0  0  0  0  0  0  0  0  0
   36.6160   30.7620   40.9750 C   0  0  0  0  0  0  0  0  0  0  0  0
   36.3710   29.6460   40.1910 C   0  0  0  0  0  0  0  0  0  0  0  0
   37.0940   31.1140   37.1910 H   0  0  0  0  0  0  0  0  0  0  0  0
   37.5010   33.0100   38.6100 H   0  0  0  0  0  0  0  0  0  0  0  0
   37.2100   32.8530   41.0750 H   0  0  0  0  0  0  0  0  0  0  0  0
   36.5130   30.7720   42.0460 H   0  0  0  0  0  0  0  0  0  0  0  0
   35.9540   28.3890   40.7960 C   0  0  1  0  0  3  0  0  0  0  0  0
   36.6830   27.1950   40.1660 C   0  0  0  0  0  3  0  0  0  0  0  0
   37.3730   27.5690   39.3840 H   0  0  0  0  0  0  0  0  0  0  0  0
   37.3810   26.5700   41.3290 C   0  0  0  0  0  3  0  0  0  0  0  0
   38.2480   25.9610   41.0310 H   0  0  0  0  0  0  0  0  0  0  0  0
   37.7480   27.6920   42.0960 O   0  0  0  0  0  0  0  0  0  0  0  0
   36.5220   28.3300   42.2130 C   0  0  0  0  0  3  0  0  0  0  0  0
   36.5480   29.3030   42.7080 H   0  0  0  0  0  0  0  0  0  0  0  0
  1 22  1  0  0  0  0
  2 10  1  0  0  0  0
  2  1  2  0  0  0  0
  3  2  1  0  0  0  0
  4  3  2  0  0  0  0
  4  5  1  0  0  0  0
  5  6  2  0  0  0  0
  6  1  1  0  0  0  0
  6 24  1  0  0  0  0
  7  3  1  0  0  0  0
  8  4  1  0  0  0  0
  9  5  1  0  0  0  0
 10 11  1  0  0  0  0
 10 17  1  0  0  0  0
 12 10  1  0  0  0  0
 13 14  1  0  0  0  0
 14 20  1  0  0  0  0
 14 15  2  0  0  0  0
 15 21  1  0  0  0  0
 16 15  1  0  0  0  0
 17 16  2  0  0  0  0
 18 13  2  0  0  0  0
 18 17  1  0  0  0  0
 19 13  1  0  0  0  0
 22 23  1  0  0  0  0
 24 25  1  0  0  0  0
 25 30  1  0  0  0  0
 26 25  2  0  0  0  0
 26 27  1  0  0  0  0
 27 28  2  0  0  0  0
 28 29  1  0  0  0  0
 28 33  1  0  0  0  0
 29 34  1  0  0  0  0
 30 29  2  0  0  0  0
 31 26  1  0  0  0  0
 32 27  1  0  0  0  0
 35 30  1  6  0  0  0
 35 41  1  0  0  0  0
 36 35  1  0  0  0  0
 36 38  1  0  0  0  0
 37 36  1  0  0  0  0
 38 40  1  0  0  0  0
 39 38  1  0  0  0  0
 40 41  1  0  0  0  0
 41 42  1  0  0  0  0
M  END
>  <minimizedAffinity>
-5.86543226

$$$$
