
 OpenBabel03252502173D

 23 24  0  0  1  0  0  0  0  0999 V2000
   45.7270   34.8450   43.2570 C   0  0  0  0  0  0  0  0  0  0  0  0
   45.9980   33.7820   44.1460 C   0  0  0  0  0  0  0  0  0  0  0  0
   45.4890   33.8670   45.4620 C   0  0  0  0  0  0  0  0  0  0  0  0
   44.7680   34.9570   45.8100 N   0  0  0  0  0  0  0  0  0  0  0  0
   44.5360   35.9530   44.9160 C   0  0  0  0  0  0  0  0  0  0  0  0
   45.0010   35.9130   43.6550 N   0  0  0  0  0  0  0  0  0  0  0  0
   46.1090   34.7910   42.2570 H   0  0  0  0  0  0  0  0  0  0  0  0
   43.9600   36.7810   45.2670 H   0  0  0  0  0  0  0  0  0  0  0  0
   45.7910   32.7310   46.3730 C   0  0  2  0  0  3  0  0  0  0  0  0
   45.0660   32.8700   47.6980 C   0  0  0  0  0  3  0  0  0  0  0  0
   44.0410   32.4750   47.6800 H   0  0  0  0  0  0  0  0  0  0  0  0
   45.9940   32.0770   48.5950 C   0  0  0  0  0  3  0  0  0  0  0  0
   45.7860   31.0120   48.4040 H   0  0  0  0  0  0  0  0  0  0  0  0
   47.2390   32.5120   48.1900 O   0  0  0  0  0  0  0  0  0  0  0  0
   47.2150   32.7220   46.8360 C   0  0  0  0  0  3  0  0  0  0  0  0
   47.7280   31.8520   46.3470 H   0  0  0  0  0  0  0  0  0  0  0  0
   46.7440   32.7340   43.6590 O   0  0  0  0  0  0  0  0  0  0  0  0
   49.1210   31.8250   42.9320 O   0  0  0  0  0  0  0  0  0  0  0  0
   48.2170   33.0000   42.8150 P   0  0  0  0  0  0  0  0  0  0  0  0
   47.9090   33.2560   41.1680 O   0  0  0  0  0  0  0  0  0  0  0  0
   47.5710   32.3810   40.8140 H   0  0  0  0  0  0  0  0  0  0  0  0
   49.0040   34.3580   43.4310 O   0  0  0  0  0  0  0  0  0  0  0  0
   48.3880   35.0410   43.7740 H   0  0  0  0  0  0  0  0  0  0  0  0
  1  6  2  0  0  0  0
  1  2  1  0  0  0  0
  2  3  2  0  0  0  0
  3  4  1  0  0  0  0
  5  8  1  0  0  0  0
  5  4  2  0  0  0  0
  6  5  1  0  0  0  0
  7  1  1  0  0  0  0
  9  3  1  6  0  0  0
  9 15  1  0  0  0  0
  9 10  1  0  0  0  0
 10 12  1  0  0  0  0
 11 10  1  0  0  0  0
 13 12  1  0  0  0  0
 14 12  1  0  0  0  0
 15 14  1  0  0  0  0
 16 15  1  0  0  0  0
 17  2  1  0  0  0  0
 19 18  2  0  0  0  0
 19 22  1  0  0  0  0
 19 17  1  0  0  0  0
 20 19  1  0  0  0  0
 21 20  1  0  0  0  0
 22 23  1  0  0  0  0
M  END
>  <minimizedAffinity>
-4.51901054

>  <minimizedRMSD>
1.83252704

$$$$
