
 OpenBabel03242522353D

 42 45  0  0  1  0  0  0  0  0999 V2000
   40.9350   34.4600   40.8400 C   0  0  0  0  0  0  0  0  0  0  0  0
   40.1240   34.5640   39.7430 C   0  0  0  0  0  0  0  0  0  0  0  0
   40.6960   34.9660   38.5720 C   0  0  0  0  0  0  0  0  0  0  0  0
   42.0420   35.2780   38.4140 C   0  0  0  0  0  0  0  0  0  0  0  0
   42.8510   35.1670   39.5340 C   0  0  0  0  0  0  0  0  0  0  0  0
   42.2810   34.7560   40.7420 C   0  0  0  0  0  0  0  0  0  0  0  0
   40.1020   35.0660   37.6710 H   0  0  0  0  0  0  0  0  0  0  0  0
   42.4420   35.5880   37.4730 H   0  0  0  0  0  0  0  0  0  0  0  0
   43.9060   35.4020   39.4470 H   0  0  0  0  0  0  0  0  0  0  0  0
   38.6850   34.2600   39.7990 C   0  0  0  0  0  0  0  0  0  0  0  0
   38.0940   34.7490   39.0310 H   0  0  0  0  0  0  0  0  0  0  0  0
   38.2970   34.6690   40.7740 H   0  0  0  0  0  0  0  0  0  0  0  0
   37.9200   30.8540   41.0200 C   0  0  0  0  0  0  0  0  0  0  0  0
   37.9620   30.1040   39.8420 C   0  0  0  0  0  0  0  0  0  0  0  0
   38.2520   30.7830   38.6570 C   0  0  0  0  0  0  0  0  0  0  0  0
   38.4730   32.1110   38.7080 N   0  0  0  0  0  0  0  0  0  0  0  0
   38.4250   32.8090   39.8680 C   0  0  0  0  0  0  0  0  0  0  0  0
   38.1500   32.1690   41.0030 N   0  0  0  0  0  0  0  0  0  0  0  0
   37.6930   30.3140   41.9420 H   0  0  0  0  0  0  0  0  0  0  0  0
   37.7880   29.0350   39.7750 H   0  0  0  0  0  0  0  0  0  0  0  0
   38.2950   30.2470   37.7200 H   0  0  0  0  0  0  0  0  0  0  0  0
   40.4250   34.0590   42.0590 O   0  0  0  0  0  0  0  0  0  0  0  0
   40.5480   33.1550   42.4870 H   0  0  0  0  0  0  0  0  0  0  0  0
   43.1050   34.6540   41.8480 O   0  0  0  0  0  0  0  0  0  0  0  0
   43.8330   33.4920   42.0070 C   0  0  0  0  0  0  0  0  0  0  0  0
   43.3620   32.3670   41.3320 C   0  0  0  0  0  0  0  0  0  0  0  0
   44.0600   31.1750   41.4610 C   0  0  0  0  0  0  0  0  0  0  0  0
   45.2110   31.1030   42.2500 C   0  0  0  0  0  0  0  0  0  0  0  0
   45.6240   32.2550   42.8940 C   0  0  0  0  0  0  0  0  0  0  0  0
   44.9680   33.4720   42.8020 C   0  0  0  0  0  0  0  0  0  0  0  0
   42.4740   32.4110   40.7190 H   0  0  0  0  0  0  0  0  0  0  0  0
   43.6620   30.3330   40.9230 H   0  0  0  0  0  0  0  0  0  0  0  0
   45.7150   30.1580   42.3180 H   0  0  0  0  0  0  0  0  0  0  0  0
   46.5160   32.1010   43.4770 H   0  0  0  0  0  0  0  0  0  0  0  0
   45.4640   34.6400   43.5170 C   0  0  1  0  0  0  0  0  0  0  0  0
   44.3130   35.4620   44.1130 C   0  0  0  0  0  0  0  0  0  0  0  0
   43.3540   34.9680   43.8620 H   0  0  0  0  0  0  0  0  0  0  0  0
   44.6190   35.4640   45.5750 C   0  0  0  0  0  0  0  0  0  0  0  0
   43.7310   35.6510   46.1970 H   0  0  0  0  0  0  0  0  0  0  0  0
   45.1540   34.1760   45.7710 O   0  0  0  0  0  0  0  0  0  0  0  0
   46.1430   34.1620   44.7990 C   0  0  0  0  0  0  0  0  0  0  0  0
   46.6670   33.2120   44.6810 H   0  0  0  0  0  0  0  0  0  0  0  0
  1 22  1  0  0  0  0
  2 10  1  0  0  0  0
  2  1  2  0  0  0  0
  3  2  1  0  0  0  0
  4  3  2  0  0  0  0
  4  5  1  0  0  0  0
  5  6  2  0  0  0  0
  6  1  1  0  0  0  0
  6 24  1  0  0  0  0
  7  3  1  0  0  0  0
  8  4  1  0  0  0  0
  9  5  1  0  0  0  0
 10 17  1  0  0  0  0
 10 12  1  0  0  0  0
 11 10  1  0  0  0  0
 13 19  1  0  0  0  0
 14 13  2  0  0  0  0
 15 16  2  0  0  0  0
 15 14  1  0  0  0  0
 16 17  1  0  0  0  0
 17 18  2  0  0  0  0
 18 13  1  0  0  0  0
 20 14  1  0  0  0  0
 21 15  1  0  0  0  0
 22 23  1  0  0  0  0
 24 25  1  0  0  0  0
 25 30  1  0  0  0  0
 26 27  1  0  0  0  0
 26 25  2  0  0  0  0
 27 28  2  0  0  0  0
 28 33  1  0  0  0  0
 28 29  1  0  0  0  0
 29 34  1  0  0  0  0
 30 29  2  0  0  0  0
 31 26  1  0  0  0  0
 32 27  1  0  0  0  0
 35 30  1  1  0  0  0
 35 36  1  0  0  0  0
 35 41  1  0  0  0  0
 36 38  1  0  0  0  0
 37 36  1  0  0  0  0
 38 40  1  0  0  0  0
 38 39  1  0  0  0  0
 41 40  1  0  0  0  0
 42 41  1  0  0  0  0
M  END
>  <minimizedAffinity>
-6.08695745

>  <minimizedRMSD>
3.71719146

$$$$
