
 OpenBabel03252504283D

 21 22  0  0  1  0  0  0  0  0999 V2000
   36.8320   27.8220   42.4790 C   0  0  0  0  0  0  0  0  0  0  0  0
   35.9450   27.6090   43.1340 H   0  0  0  0  0  0  0  0  0  0  0  0
   36.4490   27.6670   41.4350 H   0  0  0  0  0  0  0  0  0  0  0  0
   37.6780   25.5750   42.2300 C   0  0  0  0  0  0  0  0  0  0  0  0
   37.8700   26.8310   42.7700 C   0  0  0  0  0  0  0  0  0  0  0  0
   39.0160   27.0280   43.5290 C   0  0  0  0  0  0  0  0  0  0  0  0
   39.8450   25.9900   43.6790 N   0  0  0  0  0  0  0  0  0  0  0  0
   39.6460   24.7760   43.1500 C   0  0  0  0  0  0  0  0  0  0  0  0
   38.5240   24.5280   42.3880 N   0  0  0  0  0  0  0  0  0  0  0  0
   36.8090   25.2990   41.6120 H   0  0  0  0  0  0  0  0  0  0  0  0
   39.1480   28.0160   43.9410 H   0  0  0  0  0  0  0  0  0  0  0  0
   40.3620   23.9800   43.3140 H   0  0  0  0  0  0  0  0  0  0  0  0
   37.2330   29.1300   42.6800 O   0  0  0  0  0  0  0  0  0  0  0  0
   37.4130   29.7530   41.4490 C   0  0  2  0  0  3  0  0  0  0  0  0
   38.5530   30.7770   41.5070 C   0  0  0  0  0  3  0  0  0  0  0  0
   39.5280   30.2960   41.2990 H   0  0  0  0  0  0  0  0  0  0  0  0
   38.1260   31.7560   40.4550 C   0  0  0  0  0  3  0  0  0  0  0  0
   38.6240   31.4760   39.5080 H   0  0  0  0  0  0  0  0  0  0  0  0
   36.7690   31.6470   40.2820 O   0  0  0  0  0  0  0  0  0  0  0  0
   36.2680   30.7070   41.1570 C   0  0  0  0  0  3  0  0  0  0  0  0
   35.3790   30.1840   40.7350 H   0  0  0  0  0  0  0  0  0  0  0  0
  1 13  1  0  0  0  0
  1  5  1  0  0  0  0
  1  2  1  0  0  0  0
  3  1  1  0  0  0  0
  4  9  2  0  0  0  0
  4  5  1  0  0  0  0
  5  6  2  0  0  0  0
  6  7  1  0  0  0  0
  6 11  1  0  0  0  0
  8 12  1  0  0  0  0
  8  7  2  0  0  0  0
  9  8  1  0  0  0  0
 10  4  1  0  0  0  0
 14 15  1  0  0  0  0
 14 13  1  1  0  0  0
 16 15  1  0  0  0  0
 17 15  1  0  0  0  0
 18 17  1  0  0  0  0
 19 17  1  0  0  0  0
 19 20  1  0  0  0  0
 20 14  1  0  0  0  0
 21 20  1  0  0  0  0
M  END
>  <minimizedAffinity>
-3.71504378

$$$$

 OpenBabel03252504283D

 21 22  0  0  1  0  0  0  0  0999 V2000
   37.4400   28.1000   43.0270 C   0  0  0  0  0  0  0  0  0  0  0  0
   38.1880   28.8560   43.3910 H   0  0  0  0  0  0  0  0  0  0  0  0
   36.6680   28.0610   43.8410 H   0  0  0  0  0  0  0  0  0  0  0  0
   39.2780   26.6630   43.6470 C   0  0  0  0  0  0  0  0  0  0  0  0
   38.1080   26.8010   42.9270 C   0  0  0  0  0  0  0  0  0  0  0  0
   37.6860   25.7060   42.1850 C   0  0  0  0  0  0  0  0  0  0  0  0
   38.4400   24.6040   42.2230 N   0  0  0  0  0  0  0  0  0  0  0  0
   39.5740   24.4830   42.9260 C   0  0  0  0  0  0  0  0  0  0  0  0
   40.0380   25.5410   43.6800 N   0  0  0  0  0  0  0  0  0  0  0  0
   39.7130   27.4600   44.2710 H   0  0  0  0  0  0  0  0  0  0  0  0
   36.7700   25.8340   41.6290 H   0  0  0  0  0  0  0  0  0  0  0  0
   40.1360   23.5580   42.9100 H   0  0  0  0  0  0  0  0  0  0  0  0
   36.8980   28.5460   41.8360 O   0  0  0  0  0  0  0  0  0  0  0  0
   36.9630   29.9350   41.7900 C   0  0  2  0  0  3  0  0  0  0  0  0
   36.2020   30.4860   40.5780 C   0  0  0  0  0  3  0  0  0  0  0  0
   35.1320   30.6390   40.8180 H   0  0  0  0  0  0  0  0  0  0  0  0
   36.9490   31.7580   40.3110 C   0  0  0  0  0  3  0  0  0  0  0  0
   36.4190   32.5790   40.8310 H   0  0  0  0  0  0  0  0  0  0  0  0
   38.2080   31.6460   40.8470 O   0  0  0  0  0  0  0  0  0  0  0  0
   38.3590   30.3950   41.4070 C   0  0  0  0  0  3  0  0  0  0  0  0
   39.0510   30.4160   42.2810 H   0  0  0  0  0  0  0  0  0  0  0  0
  1  2  1  0  0  0  0
  1  3  1  0  0  0  0
  4  9  1  0  0  0  0
  4 10  1  0  0  0  0
  5  1  1  0  0  0  0
  5  4  2  0  0  0  0
  6  7  2  0  0  0  0
  6  5  1  0  0  0  0
  7  8  1  0  0  0  0
  8  9  2  0  0  0  0
 11  6  1  0  0  0  0
 12  8  1  0  0  0  0
 13  1  1  0  0  0  0
 14 13  1  6  0  0  0
 15 16  1  0  0  0  0
 15 14  1  0  0  0  0
 17 15  1  0  0  0  0
 17 18  1  0  0  0  0
 17 19  1  0  0  0  0
 19 20  1  0  0  0  0
 20 14  1  0  0  0  0
 20 21  1  0  0  0  0
M  END
>  <minimizedAffinity>
-3.7121172

$$$$

 OpenBabel03252504283D

 21 22  0  0  1  0  0  0  0  0999 V2000
   37.9800   30.1050   41.1030 C   0  0  0  0  0  0  0  0  0  0  0  0
   38.9450   29.8630   41.6250 H   0  0  0  0  0  0  0  0  0  0  0  0
   37.9820   29.4440   40.1960 H   0  0  0  0  0  0  0  0  0  0  0  0
   39.1120   32.2360   41.1140 C   0  0  0  0  0  0  0  0  0  0  0  0
   38.0220   31.5080   40.6850 C   0  0  0  0  0  0  0  0  0  0  0  0
   37.0800   32.1700   39.9070 C   0  0  0  0  0  0  0  0  0  0  0  0
   37.3000   33.4600   39.6340 N   0  0  0  0  0  0  0  0  0  0  0  0
   38.3630   34.1550   40.0580 C   0  0  0  0  0  0  0  0  0  0  0  0
   39.3280   33.5450   40.8320 N   0  0  0  0  0  0  0  0  0  0  0  0
   39.9230   31.8220   41.7350 H   0  0  0  0  0  0  0  0  0  0  0  0
   36.2360   31.5830   39.5810 H   0  0  0  0  0  0  0  0  0  0  0  0
   38.4770   35.2000   39.7970 H   0  0  0  0  0  0  0  0  0  0  0  0
   36.9270   29.8030   41.9460 O   0  0  0  0  0  0  0  0  0  0  0  0
   37.3380   28.8540   42.8770 C   0  0  2  0  0  3  0  0  0  0  0  0
   38.8660   28.8270   43.0020 C   0  0  0  0  0  3  0  0  0  0  0  0
   39.2160   29.5690   43.7450 H   0  0  0  0  0  0  0  0  0  0  0  0
   39.1060   27.4030   43.4100 C   0  0  0  0  0  3  0  0  0  0  0  0
   39.1630   27.3720   44.5150 H   0  0  0  0  0  0  0  0  0  0  0  0
   38.0330   26.6480   43.0080 O   0  0  0  0  0  0  0  0  0  0  0  0
   37.1320   27.4480   42.3390 C   0  0  0  0  0  3  0  0  0  0  0  0
   36.0840   27.0930   42.4770 H   0  0  0  0  0  0  0  0  0  0  0  0
  1  2  1  0  0  0  0
  1 13  1  0  0  0  0
  3  1  1  0  0  0  0
  4 10  1  0  0  0  0
  5  1  1  0  0  0  0
  5  4  2  0  0  0  0
  6  5  1  0  0  0  0
  7  6  2  0  0  0  0
  7  8  1  0  0  0  0
  8  9  2  0  0  0  0
  9  4  1  0  0  0  0
 11  6  1  0  0  0  0
 12  8  1  0  0  0  0
 14 13  1  6  0  0  0
 14 15  1  0  0  0  0
 15 17  1  0  0  0  0
 15 16  1  0  0  0  0
 17 18  1  0  0  0  0
 19 17  1  0  0  0  0
 20 21  1  0  0  0  0
 20 14  1  0  0  0  0
 20 19  1  0  0  0  0
M  END
>  <minimizedAffinity>
-3.71184945

$$$$

 OpenBabel03252504283D

 21 22  0  0  1  0  0  0  0  0999 V2000
   37.1320   29.0330   42.0390 C   0  0  0  0  0  0  0  0  0  0  0  0
   37.6710   28.2290   41.4680 H   0  0  0  0  0  0  0  0  0  0  0  0
   36.0450   28.8410   41.8290 H   0  0  0  0  0  0  0  0  0  0  0  0
   38.8150   30.7310   41.7120 C   0  0  0  0  0  0  0  0  0  0  0  0
   37.5140   30.3320   41.4810 C   0  0  0  0  0  0  0  0  0  0  0  0
   36.7050   31.1920   40.7490 C   0  0  0  0  0  0  0  0  0  0  0  0
   37.2450   32.3390   40.3260 N   0  0  0  0  0  0  0  0  0  0  0  0
   38.5090   32.7150   40.5580 C   0  0  0  0  0  0  0  0  0  0  0  0
   39.3540   31.8980   41.2790 N   0  0  0  0  0  0  0  0  0  0  0  0
   39.5490   30.1370   42.2780 H   0  0  0  0  0  0  0  0  0  0  0  0
   35.6930   30.8600   40.5780 H   0  0  0  0  0  0  0  0  0  0  0  0
   38.8790   33.6610   40.1840 H   0  0  0  0  0  0  0  0  0  0  0  0
   37.4180   28.8950   43.3840 O   0  0  0  0  0  0  0  0  0  0  0  0
   37.7920   27.5800   43.6440 C   0  0  2  0  0  3  0  0  0  0  0  0
   39.2970   27.3790   43.4320 C   0  0  0  0  0  3  0  0  0  0  0  0
   39.8620   27.6210   44.3530 H   0  0  0  0  0  0  0  0  0  0  0  0
   39.3530   25.9300   43.0520 C   0  0  0  0  0  3  0  0  0  0  0  0
   39.5550   25.3460   43.9700 H   0  0  0  0  0  0  0  0  0  0  0  0
   38.1270   25.5590   42.5610 O   0  0  0  0  0  0  0  0  0  0  0  0
   37.2860   26.6520   42.5530 C   0  0  0  0  0  3  0  0  0  0  0  0
   36.2230   26.3550   42.7100 H   0  0  0  0  0  0  0  0  0  0  0  0
  1 13  1  0  0  0  0
  2  1  1  0  0  0  0
  3  1  1  0  0  0  0
  4 10  1  0  0  0  0
  5  4  1  0  0  0  0
  5  1  1  0  0  0  0
  6  5  2  0  0  0  0
  7  8  2  0  0  0  0
  7  6  1  0  0  0  0
  8  9  1  0  0  0  0
  9  4  2  0  0  0  0
 11  6  1  0  0  0  0
 12  8  1  0  0  0  0
 14 13  1  6  0  0  0
 15 14  1  0  0  0  0
 15 16  1  0  0  0  0
 17 15  1  0  0  0  0
 17 18  1  0  0  0  0
 19 17  1  0  0  0  0
 20 19  1  0  0  0  0
 20 21  1  0  0  0  0
 20 14  1  0  0  0  0
M  END
>  <minimizedAffinity>
-3.69867682

$$$$

 OpenBabel03252504283D

 21 22  0  0  1  0  0  0  0  0999 V2000
   35.6280   28.9860   40.7280 C   0  0  0  0  0  0  0  0  0  0  0  0
   34.6290   28.9390   41.2410 H   0  0  0  0  0  0  0  0  0  0  0  0
   35.5440   28.2470   39.8880 H   0  0  0  0  0  0  0  0  0  0  0  0
   36.9490   27.1880   41.6490 C   0  0  0  0  0  0  0  0  0  0  0  0
   36.6530   28.5360   41.6730 C   0  0  0  0  0  0  0  0  0  0  0  0
   37.3480   29.3240   42.5810 C   0  0  0  0  0  0  0  0  0  0  0  0
   38.2490   28.7200   43.3620 N   0  0  0  0  0  0  0  0  0  0  0  0
   38.5270   27.4110   43.3290 C   0  0  0  0  0  0  0  0  0  0  0  0
   37.8650   26.5840   42.4460 N   0  0  0  0  0  0  0  0  0  0  0  0
   36.4650   26.4640   40.9740 H   0  0  0  0  0  0  0  0  0  0  0  0
   37.1030   30.3740   42.5830 H   0  0  0  0  0  0  0  0  0  0  0  0
   39.2710   26.9880   43.9930 H   0  0  0  0  0  0  0  0  0  0  0  0
   35.8280   30.2700   40.2540 O   0  0  0  0  0  0  0  0  0  0  0  0
   36.7810   30.2440   39.2400 C   0  0  2  0  0  3  0  0  0  0  0  0
   37.2010   31.6630   38.8390 C   0  0  0  0  0  3  0  0  0  0  0  0
   38.0290   32.0270   39.4780 H   0  0  0  0  0  0  0  0  0  0  0  0
   37.5870   31.4640   37.4040 C   0  0  0  0  0  3  0  0  0  0  0  0
   38.6800   31.2900   37.3680 H   0  0  0  0  0  0  0  0  0  0  0  0
   36.9520   30.3430   36.9320 O   0  0  0  0  0  0  0  0  0  0  0  0
   36.1540   29.8160   37.9250 C   0  0  0  0  0  3  0  0  0  0  0  0
   36.0690   28.7070   37.8390 H   0  0  0  0  0  0  0  0  0  0  0  0
  1  2  1  0  0  0  0
  1  5  1  0  0  0  0
  3  1  1  0  0  0  0
  4  5  2  0  0  0  0
  4  9  1  0  0  0  0
  5  6  1  0  0  0  0
  6 11  1  0  0  0  0
  6  7  2  0  0  0  0
  8  7  1  0  0  0  0
  8 12  1  0  0  0  0
  9  8  2  0  0  0  0
 10  4  1  0  0  0  0
 13  1  1  0  0  0  0
 14 13  1  1  0  0  0
 15 14  1  0  0  0  0
 15 16  1  0  0  0  0
 17 15  1  0  0  0  0
 18 17  1  0  0  0  0
 19 17  1  0  0  0  0
 19 20  1  0  0  0  0
 20 14  1  0  0  0  0
 21 20  1  0  0  0  0
M  END
>  <minimizedAffinity>
-3.58252096

$$$$

 OpenBabel03252504283D

 21 22  0  0  1  0  0  0  0  0999 V2000
   38.2590   29.9700   41.4620 C   0  0  0  0  0  0  0  0  0  0  0  0
   39.1190   29.7810   42.1600 H   0  0  0  0  0  0  0  0  0  0  0  0
   38.4490   29.2830   40.5950 H   0  0  0  0  0  0  0  0  0  0  0  0
   37.2790   31.7980   40.2290 C   0  0  0  0  0  0  0  0  0  0  0  0
   38.3310   31.3600   41.0070 C   0  0  0  0  0  0  0  0  0  0  0  0
   39.3440   32.2710   41.2790 C   0  0  0  0  0  0  0  0  0  0  0  0
   39.2250   33.5000   40.7670 N   0  0  0  0  0  0  0  0  0  0  0  0
   38.1980   33.9120   40.0120 C   0  0  0  0  0  0  0  0  0  0  0  0
   37.1660   33.0480   39.7130 N   0  0  0  0  0  0  0  0  0  0  0  0
   36.4200   31.1700   39.9460 H   0  0  0  0  0  0  0  0  0  0  0  0
   40.1560   31.9090   41.8890 H   0  0  0  0  0  0  0  0  0  0  0  0
   38.1680   34.9250   39.6310 H   0  0  0  0  0  0  0  0  0  0  0  0
   37.0790   29.6520   42.1090 O   0  0  0  0  0  0  0  0  0  0  0  0
   36.7230   28.3420   41.8040 C   0  0  2  0  0  3  0  0  0  0  0  0
   36.8510   27.4330   43.0330 C   0  0  0  0  0  3  0  0  0  0  0  0
   35.9200   27.4450   43.6320 H   0  0  0  0  0  0  0  0  0  0  0  0
   37.1400   26.1080   42.3930 C   0  0  0  0  0  3  0  0  0  0  0  0
   36.1800   25.5700   42.2780 H   0  0  0  0  0  0  0  0  0  0  0  0
   37.6660   26.3310   41.1450 O   0  0  0  0  0  0  0  0  0  0  0  0
   37.7800   27.6880   40.9310 C   0  0  0  0  0  3  0  0  0  0  0  0
   37.6560   27.9460   39.8530 H   0  0  0  0  0  0  0  0  0  0  0  0
  1 13  1  0  0  0  0
  1  2  1  0  0  0  0
  3  1  1  0  0  0  0
  4  5  1  0  0  0  0
  5  6  2  0  0  0  0
  5  1  1  0  0  0  0
  6 11  1  0  0  0  0
  7  6  1  0  0  0  0
  8  7  2  0  0  0  0
  9  8  1  0  0  0  0
  9  4  2  0  0  0  0
 10  4  1  0  0  0  0
 12  8  1  0  0  0  0
 14 13  1  1  0  0  0
 14 15  1  0  0  0  0
 15 16  1  0  0  0  0
 17 15  1  0  0  0  0
 18 17  1  0  0  0  0
 19 17  1  0  0  0  0
 20 19  1  0  0  0  0
 20 14  1  0  0  0  0
 21 20  1  0  0  0  0
M  END
>  <minimizedAffinity>
-3.54446459

$$$$

 OpenBabel03252504283D

 21 22  0  0  1  0  0  0  0  0999 V2000
   39.0270   30.5180   41.0150 C   0  0  0  0  0  0  0  0  0  0  0  0
   40.1030   30.1940   41.0110 H   0  0  0  0  0  0  0  0  0  0  0  0
   39.0370   31.5070   41.5470 H   0  0  0  0  0  0  0  0  0  0  0  0
   37.2570   28.8810   41.1250 C   0  0  0  0  0  0  0  0  0  0  0  0
   38.2580   29.5500   41.8000 C   0  0  0  0  0  0  0  0  0  0  0  0
   38.4340   29.2430   43.1430 C   0  0  0  0  0  0  0  0  0  0  0  0
   37.6230   28.3260   43.6800 N   0  0  0  0  0  0  0  0  0  0  0  0
   36.6550   27.6840   43.0130 C   0  0  0  0  0  0  0  0  0  0  0  0
   36.4390   27.9510   41.6770 N   0  0  0  0  0  0  0  0  0  0  0  0
   37.0220   29.0390   40.0600 H   0  0  0  0  0  0  0  0  0  0  0  0
   39.2210   29.7760   43.6520 H   0  0  0  0  0  0  0  0  0  0  0  0
   36.0350   26.9510   43.5130 H   0  0  0  0  0  0  0  0  0  0  0  0
   38.5950   30.6510   39.7090 O   0  0  0  0  0  0  0  0  0  0  0  0
   38.5900   31.9980   39.3590 C   0  0  2  0  0  3  0  0  0  0  0  0
   39.1470   32.8670   40.4930 C   0  0  0  0  0  3  0  0  0  0  0  0
   40.2490   32.9500   40.4240 H   0  0  0  0  0  0  0  0  0  0  0  0
   38.4270   34.1610   40.2570 C   0  0  0  0  0  3  0  0  0  0  0  0
   39.0820   34.8060   39.6400 H   0  0  0  0  0  0  0  0  0  0  0  0
   37.2810   33.9000   39.5480 O   0  0  0  0  0  0  0  0  0  0  0  0
   37.1730   32.5430   39.3350 C   0  0  0  0  0  3  0  0  0  0  0  0
   36.6500   32.3170   38.3760 H   0  0  0  0  0  0  0  0  0  0  0  0
  1  3  1  0  0  0  0
  1  5  1  0  0  0  0
  2  1  1  0  0  0  0
  4  9  2  0  0  0  0
  4  5  1  0  0  0  0
  5  6  2  0  0  0  0
  6 11  1  0  0  0  0
  6  7  1  0  0  0  0
  8 12  1  0  0  0  0
  8  7  2  0  0  0  0
  9  8  1  0  0  0  0
 10  4  1  0  0  0  0
 13  1  1  0  0  0  0
 14 13  1  1  0  0  0
 14 15  1  0  0  0  0
 16 15  1  0  0  0  0
 17 15  1  0  0  0  0
 18 17  1  0  0  0  0
 19 17  1  0  0  0  0
 20 14  1  0  0  0  0
 20 19  1  0  0  0  0
 21 20  1  0  0  0  0
M  END
>  <minimizedAffinity>
-3.52629232

$$$$

 OpenBabel03252504283D

 21 22  0  0  1  0  0  0  0  0999 V2000
   35.9610   29.3020   40.8430 C   0  0  0  0  0  0  0  0  0  0  0  0
   34.8700   29.3330   41.1090 H   0  0  0  0  0  0  0  0  0  0  0  0
   35.9780   29.4260   39.7280 H   0  0  0  0  0  0  0  0  0  0  0  0
   36.5000   27.0450   40.1790 C   0  0  0  0  0  0  0  0  0  0  0  0
   36.4830   27.9790   41.1940 C   0  0  0  0  0  0  0  0  0  0  0  0
   36.9580   27.5770   42.4360 C   0  0  0  0  0  0  0  0  0  0  0  0
   37.3940   26.3200   42.5550 N   0  0  0  0  0  0  0  0  0  0  0  0
   37.4040   25.4220   41.5610 C   0  0  0  0  0  0  0  0  0  0  0  0
   36.9450   25.7700   40.3080 N   0  0  0  0  0  0  0  0  0  0  0  0
   36.1510   27.2450   39.1530 H   0  0  0  0  0  0  0  0  0  0  0  0
   36.9360   28.3220   43.2160 H   0  0  0  0  0  0  0  0  0  0  0  0
   37.7730   24.4180   41.7290 H   0  0  0  0  0  0  0  0  0  0  0  0
   36.6060   30.3460   41.4790 O   0  0  0  0  0  0  0  0  0  0  0  0
   36.6670   31.4410   40.6220 C   0  0  2  0  0  3  0  0  0  0  0  0
   36.7360   30.9950   39.1560 C   0  0  0  0  0  3  0  0  0  0  0  0
   35.7210   30.8450   38.7400 H   0  0  0  0  0  0  0  0  0  0  0  0
   37.4830   32.1360   38.5330 C   0  0  0  0  0  3  0  0  0  0  0  0
   36.7390   32.8480   38.1270 H   0  0  0  0  0  0  0  0  0  0  0  0
   38.2040   32.7720   39.5120 O   0  0  0  0  0  0  0  0  0  0  0  0
   38.0220   32.1210   40.7130 C   0  0  0  0  0  3  0  0  0  0  0  0
   38.0840   32.8240   41.5770 H   0  0  0  0  0  0  0  0  0  0  0  0
  1  2  1  0  0  0  0
  1  5  1  0  0  0  0
  1 13  1  0  0  0  0
  3  1  1  0  0  0  0
  4  9  2  0  0  0  0
  4  5  1  0  0  0  0
  5  6  2  0  0  0  0
  6  7  1  0  0  0  0
  6 11  1  0  0  0  0
  8 12  1  0  0  0  0
  8  7  2  0  0  0  0
  9  8  1  0  0  0  0
 10  4  1  0  0  0  0
 14 20  1  0  0  0  0
 14 13  1  1  0  0  0
 15 14  1  0  0  0  0
 16 15  1  0  0  0  0
 17 15  1  0  0  0  0
 17 19  1  0  0  0  0
 18 17  1  0  0  0  0
 19 20  1  0  0  0  0
 20 21  1  0  0  0  0
M  END
>  <minimizedAffinity>
-3.48428011

$$$$

 OpenBabel03252504283D

 21 22  0  0  1  0  0  0  0  0999 V2000
   37.1260   26.5020   40.9630 C   0  0  0  0  0  0  0  0  0  0  0  0
   38.1540   26.3270   40.5440 H   0  0  0  0  0  0  0  0  0  0  0  0
   36.4350   26.0840   40.1840 H   0  0  0  0  0  0  0  0  0  0  0  0
   35.8400   28.4590   40.3820 C   0  0  0  0  0  0  0  0  0  0  0  0
   36.9140   27.9460   41.0800 C   0  0  0  0  0  0  0  0  0  0  0  0
   37.6800   28.8410   41.8150 C   0  0  0  0  0  0  0  0  0  0  0  0
   37.3220   30.1280   41.7920 N   0  0  0  0  0  0  0  0  0  0  0  0
   36.2770   30.6130   41.1090 C   0  0  0  0  0  0  0  0  0  0  0  0
   35.4830   29.7670   40.3630 N   0  0  0  0  0  0  0  0  0  0  0  0
   35.1610   27.8500   39.7640 H   0  0  0  0  0  0  0  0  0  0  0  0
   38.5150   28.4200   42.3540 H   0  0  0  0  0  0  0  0  0  0  0  0
   36.0440   31.6700   41.1360 H   0  0  0  0  0  0  0  0  0  0  0  0
   37.0090   25.8200   42.1610 O   0  0  0  0  0  0  0  0  0  0  0  0
   37.1600   24.4550   41.9310 C   0  0  2  0  0  3  0  0  0  0  0  0
   38.5790   24.1270   41.4530 C   0  0  0  0  0  3  0  0  0  0  0  0
   39.2580   23.9600   42.3110 H   0  0  0  0  0  0  0  0  0  0  0  0
   38.3370   22.8980   40.6270 C   0  0  0  0  0  3  0  0  0  0  0  0
   38.5090   22.0160   41.2720 H   0  0  0  0  0  0  0  0  0  0  0  0
   37.0250   22.8940   40.2250 O   0  0  0  0  0  0  0  0  0  0  0  0
   36.4000   24.0330   40.6860 C   0  0  0  0  0  3  0  0  0  0  0  0
   35.3180   23.8550   40.8910 H   0  0  0  0  0  0  0  0  0  0  0  0
  1  5  1  0  0  0  0
  1 13  1  0  0  0  0
  2  1  1  0  0  0  0
  3  1  1  0  0  0  0
  4  5  1  0  0  0  0
  5  6  2  0  0  0  0
  6 11  1  0  0  0  0
  7  6  1  0  0  0  0
  8 12  1  0  0  0  0
  8  7  2  0  0  0  0
  9  4  2  0  0  0  0
  9  8  1  0  0  0  0
 10  4  1  0  0  0  0
 14 13  1  6  0  0  0
 15 14  1  0  0  0  0
 15 16  1  0  0  0  0
 17 18  1  0  0  0  0
 17 15  1  0  0  0  0
 19 17  1  0  0  0  0
 19 20  1  0  0  0  0
 20 21  1  0  0  0  0
 20 14  1  0  0  0  0
M  END
>  <minimizedAffinity>
-3.44046426

$$$$
