
 OpenBabel03252501463D

 22 23  0  0  1  0  0  0  0  0999 V2000
   38.0750   30.1520   41.7520 C   0  0  0  0  0  0  0  0  0  0  0  0
   36.9330   30.3720   40.9870 C   0  0  0  0  0  0  0  0  0  0  0  0
   35.9990   29.3560   40.8980 C   0  0  0  0  0  0  0  0  0  0  0  0
   36.2270   28.1730   41.5590 N   0  0  0  0  0  0  0  0  0  0  0  0
   37.3510   27.9960   42.2950 C   0  0  0  0  0  0  0  0  0  0  0  0
   38.2610   28.9820   42.3840 N   0  0  0  0  0  0  0  0  0  0  0  0
   38.8020   30.9490   41.8190 H   0  0  0  0  0  0  0  0  0  0  0  0
   35.1090   29.4890   40.3180 H   0  0  0  0  0  0  0  0  0  0  0  0
   37.6390   26.7530   43.0190 C   0  0  2  0  0  3  0  0  0  0  0  0
   39.0470   26.8800   43.5910 C   0  0  0  0  0  3  0  0  0  0  0  0
   39.5770   27.7690   43.2280 H   0  0  0  0  0  0  0  0  0  0  0  0
   39.7030   25.6200   43.0710 C   0  0  0  0  0  3  0  0  0  0  0  0
   40.2810   25.2030   43.9340 H   0  0  0  0  0  0  0  0  0  0  0  0
   38.6710   24.7470   42.6990 O   0  0  0  0  0  0  0  0  0  0  0  0
   37.6630   25.5300   42.1470 C   0  0  0  0  0  3  0  0  0  0  0  0
   36.7280   24.9280   42.1910 H   0  0  0  0  0  0  0  0  0  0  0  0
   36.7020   31.6220   40.2920 C   0  0  0  0  0  3  0  0  0  0  0  0
   37.5600   32.6090   40.1400 C   0  0  0  0  0  3  0  0  0  0  0  0
   37.2250   33.8680   39.4010 C   0  0  0  0  0  0  0  0  0  0  0  0
   37.9030   34.6500   39.8380 H   0  0  0  0  0  0  0  0  0  0  0  0
   37.3570   33.7650   38.3170 H   0  0  0  0  0  0  0  0  0  0  0  0
   36.1860   34.2050   39.6690 H   0  0  0  0  0  0  0  0  0  0  0  0
  1  7  1  0  0  0  0
  1  6  1  0  0  0  0
  2  1  2  0  0  0  0
  3  2  1  0  0  0  0
  3  4  2  0  0  0  0
  4  5  1  0  0  0  0
  5  6  2  0  0  0  0
  8  3  1  0  0  0  0
  9  5  1  6  0  0  0
  9 10  1  0  0  0  0
 11 10  1  0  0  0  0
 12 10  1  0  0  0  0
 12 13  1  0  0  0  0
 14 12  1  0  0  0  0
 15 16  1  0  0  0  0
 15 14  1  0  0  0  0
 15  9  1  0  0  0  0
 17  2  1  0  0  0  0
 18 17  2  0  0  0  0
 19 22  1  0  0  0  0
 19 20  1  0  0  0  0
 19 18  1  0  0  0  0
 21 19  1  0  0  0  0
M  END
>  <minimizedAffinity>
-4.38867712

$$$$

 OpenBabel03252501463D

 22 23  0  0  1  0  0  0  0  0999 V2000
   36.0720   28.1450   40.9200 C   0  0  0  0  0  0  0  0  0  0  0  0
   35.4790   29.2810   40.3760 C   0  0  0  0  0  0  0  0  0  0  0  0
   36.0020   30.5170   40.7130 C   0  0  0  0  0  0  0  0  0  0  0  0
   37.0780   30.5830   41.5650 N   0  0  0  0  0  0  0  0  0  0  0  0
   37.6280   29.4530   42.0730 C   0  0  0  0  0  0  0  0  0  0  0  0
   37.1230   28.2510   41.7480 N   0  0  0  0  0  0  0  0  0  0  0  0
   35.6600   27.1820   40.6530 H   0  0  0  0  0  0  0  0  0  0  0  0
   35.5710   31.4130   40.3150 H   0  0  0  0  0  0  0  0  0  0  0  0
   38.7770   29.4710   42.9860 C   0  0  2  0  0  3  0  0  0  0  0  0
   39.6520   30.6540   42.5840 C   0  0  0  0  0  3  0  0  0  0  0  0
   39.3300   31.1260   41.6480 H   0  0  0  0  0  0  0  0  0  0  0  0
   41.0010   29.9920   42.4100 C   0  0  0  0  0  3  0  0  0  0  0  0
   41.7380   30.6750   42.9030 H   0  0  0  0  0  0  0  0  0  0  0  0
   40.9400   28.7620   43.0800 O   0  0  0  0  0  0  0  0  0  0  0  0
   39.6600   28.2590   42.8810 C   0  0  0  0  0  3  0  0  0  0  0  0
   39.4830   27.5050   43.6800 H   0  0  0  0  0  0  0  0  0  0  0  0
   34.3440   29.2030   39.4790 C   0  0  0  0  0  3  0  0  0  0  0  0
   34.3750   28.9250   38.1930 C   0  0  0  0  0  3  0  0  0  0  0  0
   33.1420   28.8670   37.3460 C   0  0  0  0  0  0  0  0  0  0  0  0
   33.4940   29.0960   36.3040 H   0  0  0  0  0  0  0  0  0  0  0  0
   32.6360   27.8950   37.4080 H   0  0  0  0  0  0  0  0  0  0  0  0
   32.4540   29.7170   37.6110 H   0  0  0  0  0  0  0  0  0  0  0  0
  1  6  1  0  0  0  0
  2  3  1  0  0  0  0
  2  1  2  0  0  0  0
  3  4  2  0  0  0  0
  4  5  1  0  0  0  0
  6  5  2  0  0  0  0
  7  1  1  0  0  0  0
  8  3  1  0  0  0  0
  9  5  1  6  0  0  0
 10  9  1  0  0  0  0
 11 10  1  0  0  0  0
 12 10  1  0  0  0  0
 12 13  1  0  0  0  0
 12 14  1  0  0  0  0
 15  9  1  0  0  0  0
 15 14  1  0  0  0  0
 15 16  1  0  0  0  0
 17  2  1  0  0  0  0
 18 17  2  0  0  0  0
 19 21  1  0  0  0  0
 19 22  1  0  0  0  0
 19 18  1  0  0  0  0
 20 19  1  0  0  0  0
M  END
>  <minimizedAffinity>
-4.13877583

$$$$

 OpenBabel03252501463D

 22 23  0  0  1  0  0  0  0  0999 V2000
   37.3700   29.0870   42.4010 C   0  0  0  0  0  0  0  0  0  0  0  0
   36.9460   29.5260   41.1500 C   0  0  0  0  0  0  0  0  0  0  0  0
   36.5860   28.5750   40.2110 C   0  0  0  0  0  0  0  0  0  0  0  0
   36.6590   27.2430   40.5400 N   0  0  0  0  0  0  0  0  0  0  0  0
   37.0760   26.8560   41.7700 C   0  0  0  0  0  0  0  0  0  0  0  0
   37.4260   27.7760   42.6850 N   0  0  0  0  0  0  0  0  0  0  0  0
   37.6500   29.8330   43.1320 H   0  0  0  0  0  0  0  0  0  0  0  0
   36.2560   28.8750   39.2370 H   0  0  0  0  0  0  0  0  0  0  0  0
   37.1700   25.4460   42.1680 C   0  0  2  0  0  3  0  0  0  0  0  0
   38.6320   25.1680   42.4980 C   0  0  0  0  0  3  0  0  0  0  0  0
   39.2960   26.0000   42.2340 H   0  0  0  0  0  0  0  0  0  0  0  0
   38.9180   23.9630   41.6300 C   0  0  0  0  0  3  0  0  0  0  0  0
   39.4950   23.2550   42.2770 H   0  0  0  0  0  0  0  0  0  0  0  0
   37.6780   23.4120   41.2770 O   0  0  0  0  0  0  0  0  0  0  0  0
   36.8080   24.4780   41.0780 C   0  0  0  0  0  3  0  0  0  0  0  0
   35.7760   24.0700   41.1630 H   0  0  0  0  0  0  0  0  0  0  0  0
   36.8740   30.9330   40.8100 C   0  0  0  0  0  3  0  0  0  0  0  0
   37.2130   31.4840   39.6650 C   0  0  0  0  0  3  0  0  0  0  0  0
   37.1020   32.9550   39.4080 C   0  0  0  0  0  0  0  0  0  0  0  0
   37.8690   33.1720   38.6170 H   0  0  0  0  0  0  0  0  0  0  0  0
   36.0920   33.2510   39.0980 H   0  0  0  0  0  0  0  0  0  0  0  0
   37.4500   33.5290   40.3110 H   0  0  0  0  0  0  0  0  0  0  0  0
  1  6  1  0  0  0  0
  1  7  1  0  0  0  0
  2  1  2  0  0  0  0
  3  4  2  0  0  0  0
  3  2  1  0  0  0  0
  4  5  1  0  0  0  0
  5  6  2  0  0  0  0
  8  3  1  0  0  0  0
  9  5  1  6  0  0  0
  9 10  1  0  0  0  0
 11 10  1  0  0  0  0
 12 13  1  0  0  0  0
 12 10  1  0  0  0  0
 14 12  1  0  0  0  0
 15 16  1  0  0  0  0
 15 14  1  0  0  0  0
 15  9  1  0  0  0  0
 17  2  1  0  0  0  0
 18 17  2  0  0  0  0
 19 18  1  0  0  0  0
 19 22  1  0  0  0  0
 20 19  1  0  0  0  0
 21 19  1  0  0  0  0
M  END
>  <minimizedAffinity>
-4.08710861

$$$$

 OpenBabel03252501463D

 22 23  0  0  1  0  0  0  0  0999 V2000
   36.2170   27.1920   39.2730 C   0  0  0  0  0  0  0  0  0  0  0  0
   35.4660   28.3600   39.1790 C   0  0  0  0  0  0  0  0  0  0  0  0
   35.3570   29.1590   40.3030 C   0  0  0  0  0  0  0  0  0  0  0  0
   35.9840   28.7770   41.4650 N   0  0  0  0  0  0  0  0  0  0  0  0
   36.7060   27.6310   41.5160 C   0  0  0  0  0  0  0  0  0  0  0  0
   36.8160   26.8530   40.4260 N   0  0  0  0  0  0  0  0  0  0  0  0
   36.3000   26.5710   38.3920 H   0  0  0  0  0  0  0  0  0  0  0  0
   34.7870   30.0660   40.2690 H   0  0  0  0  0  0  0  0  0  0  0  0
   37.3940   27.1810   42.7320 C   0  0  2  0  0  3  0  0  0  0  0  0
   38.3150   28.3140   43.1730 C   0  0  0  0  0  3  0  0  0  0  0  0
   38.3770   29.1250   42.4380 H   0  0  0  0  0  0  0  0  0  0  0  0
   39.6430   27.6000   43.2920 C   0  0  0  0  0  3  0  0  0  0  0  0
   40.0980   27.9650   44.2470 H   0  0  0  0  0  0  0  0  0  0  0  0
   39.3630   26.2290   43.3700 O   0  0  0  0  0  0  0  0  0  0  0  0
   38.2860   25.9900   42.5230 C   0  0  0  0  0  3  0  0  0  0  0  0
   37.8310   25.0270   42.8450 H   0  0  0  0  0  0  0  0  0  0  0  0
   34.8070   28.7560   37.9510 C   0  0  0  0  0  3  0  0  0  0  0  0
   33.5100   28.8330   37.7440 C   0  0  0  0  0  3  0  0  0  0  0  0
   32.9220   29.2540   36.4330 C   0  0  0  0  0  0  0  0  0  0  0  0
   31.9060   28.7750   36.4020 H   0  0  0  0  0  0  0  0  0  0  0  0
   32.8680   30.3450   36.3290 H   0  0  0  0  0  0  0  0  0  0  0  0
   33.4900   28.7780   35.5870 H   0  0  0  0  0  0  0  0  0  0  0  0
  1  6  1  0  0  0  0
  2  1  2  0  0  0  0
  2  3  1  0  0  0  0
  3  4  2  0  0  0  0
  4  5  1  0  0  0  0
  6  5  2  0  0  0  0
  7  1  1  0  0  0  0
  8  3  1  0  0  0  0
  9  5  1  6  0  0  0
  9 10  1  0  0  0  0
 10 12  1  0  0  0  0
 11 10  1  0  0  0  0
 12 14  1  0  0  0  0
 12 13  1  0  0  0  0
 15  9  1  0  0  0  0
 15 16  1  0  0  0  0
 15 14  1  0  0  0  0
 17  2  1  0  0  0  0
 18 17  2  0  0  0  0
 19 18  1  0  0  0  0
 20 19  1  0  0  0  0
 21 19  1  0  0  0  0
 22 19  1  0  0  0  0
M  END
>  <minimizedAffinity>
-4.03393412

$$$$

 OpenBabel03252501463D

 22 23  0  0  1  0  0  0  0  0999 V2000
   38.3530   29.1040   41.5230 C   0  0  0  0  0  0  0  0  0  0  0  0
   37.0590   28.5900   41.5420 C   0  0  0  0  0  0  0  0  0  0  0  0
   36.0340   29.3810   41.0550 C   0  0  0  0  0  0  0  0  0  0  0  0
   36.3220   30.6360   40.5730 N   0  0  0  0  0  0  0  0  0  0  0  0
   37.5950   31.1000   40.5710 C   0  0  0  0  0  0  0  0  0  0  0  0
   38.5940   30.3340   41.0440 N   0  0  0  0  0  0  0  0  0  0  0  0
   39.1510   28.4820   41.9050 H   0  0  0  0  0  0  0  0  0  0  0  0
   35.0260   29.0200   41.0540 H   0  0  0  0  0  0  0  0  0  0  0  0
   37.9530   32.4320   40.0680 C   0  0  2  0  0  3  0  0  0  0  0  0
   38.7480   32.2280   38.7830 C   0  0  0  0  0  3  0  0  0  0  0  0
   39.0010   31.1770   38.5990 H   0  0  0  0  0  0  0  0  0  0  0  0
   39.9960   33.0350   39.0640 C   0  0  0  0  0  3  0  0  0  0  0  0
   40.2040   33.6080   38.1250 H   0  0  0  0  0  0  0  0  0  0  0  0
   39.6890   33.9060   40.1190 O   0  0  0  0  0  0  0  0  0  0  0  0
   38.8550   33.2090   40.9850 C   0  0  0  0  0  3  0  0  0  0  0  0
   38.3230   33.9690   41.6000 H   0  0  0  0  0  0  0  0  0  0  0  0
   36.7640   27.2670   42.0520 C   0  0  0  0  0  3  0  0  0  0  0  0
   37.2710   26.1290   41.6280 C   0  0  0  0  0  3  0  0  0  0  0  0
   36.9020   24.8050   42.2220 C   0  0  0  0  0  0  0  0  0  0  0  0
   37.0780   24.0580   41.4010 H   0  0  0  0  0  0  0  0  0  0  0  0
   37.4830   24.5740   43.1240 H   0  0  0  0  0  0  0  0  0  0  0  0
   35.7940   24.7660   42.4130 H   0  0  0  0  0  0  0  0  0  0  0  0
  1  2  1  0  0  0  0
  1  7  1  0  0  0  0
  2 17  1  0  0  0  0
  3  2  2  0  0  0  0
  4  3  1  0  0  0  0
  5  4  2  0  0  0  0
  5  6  1  0  0  0  0
  6  1  2  0  0  0  0
  8  3  1  0  0  0  0
  9  5  1  1  0  0  0
  9 15  1  0  0  0  0
 10 12  1  0  0  0  0
 10  9  1  0  0  0  0
 11 10  1  0  0  0  0
 12 14  1  0  0  0  0
 13 12  1  0  0  0  0
 14 15  1  0  0  0  0
 15 16  1  0  0  0  0
 18 17  2  0  0  0  0
 18 19  1  0  0  0  0
 19 22  1  0  0  0  0
 19 21  1  0  0  0  0
 20 19  1  0  0  0  0
M  END
>  <minimizedAffinity>
-3.98166323

$$$$

 OpenBabel03252501463D

 22 23  0  0  1  0  0  0  0  0999 V2000
   39.0990   28.7140   41.3800 C   0  0  0  0  0  0  0  0  0  0  0  0
   38.3590   27.7760   42.0930 C   0  0  0  0  0  0  0  0  0  0  0  0
   36.9840   27.9210   42.1330 C   0  0  0  0  0  0  0  0  0  0  0  0
   36.3990   28.9770   41.4750 N   0  0  0  0  0  0  0  0  0  0  0  0
   37.1550   29.8700   40.7910 C   0  0  0  0  0  0  0  0  0  0  0  0
   38.4910   29.7310   40.7490 N   0  0  0  0  0  0  0  0  0  0  0  0
   40.1740   28.5960   41.3510 H   0  0  0  0  0  0  0  0  0  0  0  0
   36.3810   27.2190   42.6720 H   0  0  0  0  0  0  0  0  0  0  0  0
   36.5770   31.0120   40.0720 C   0  0  2  0  0  3  0  0  0  0  0  0
   36.7350   30.7320   38.5810 C   0  0  0  0  0  3  0  0  0  0  0  0
   37.3520   29.8500   38.3750 H   0  0  0  0  0  0  0  0  0  0  0  0
   37.4260   31.9900   38.1050 C   0  0  0  0  0  3  0  0  0  0  0  0
   36.9100   32.2780   37.1550 H   0  0  0  0  0  0  0  0  0  0  0  0
   37.2260   32.9640   39.0930 O   0  0  0  0  0  0  0  0  0  0  0  0
   37.2900   32.3120   40.3190 C   0  0  0  0  0  3  0  0  0  0  0  0
   36.7820   32.9690   41.0600 H   0  0  0  0  0  0  0  0  0  0  0  0
   38.9830   26.6660   42.7850 C   0  0  0  0  0  3  0  0  0  0  0  0
   38.9960   25.4070   42.4010 C   0  0  0  0  0  3  0  0  0  0  0  0
   39.6710   24.3270   43.1880 C   0  0  0  0  0  0  0  0  0  0  0  0
   39.1280   23.3830   42.9130 H   0  0  0  0  0  0  0  0  0  0  0  0
   40.7460   24.2630   42.9750 H   0  0  0  0  0  0  0  0  0  0  0  0
   39.4670   24.4670   44.2850 H   0  0  0  0  0  0  0  0  0  0  0  0
  1  2  1  0  0  0  0
  2  3  2  0  0  0  0
  2 17  1  0  0  0  0
  3  8  1  0  0  0  0
  4  3  1  0  0  0  0
  5  4  2  0  0  0  0
  6  5  1  0  0  0  0
  6  1  2  0  0  0  0
  7  1  1  0  0  0  0
  9 15  1  0  0  0  0
  9  5  1  1  0  0  0
 10  9  1  0  0  0  0
 11 10  1  0  0  0  0
 12 10  1  0  0  0  0
 12 14  1  0  0  0  0
 13 12  1  0  0  0  0
 14 15  1  0  0  0  0
 15 16  1  0  0  0  0
 18 17  2  0  0  0  0
 18 19  1  0  0  0  0
 19 22  1  0  0  0  0
 20 19  1  0  0  0  0
 21 19  1  0  0  0  0
M  END
>  <minimizedAffinity>
-3.97991085

$$$$

 OpenBabel03252501463D

 22 23  0  0  1  0  0  0  0  0999 V2000
   38.4370   28.8670   40.5340 C   0  0  0  0  0  0  0  0  0  0  0  0
   38.5100   30.0790   41.2160 C   0  0  0  0  0  0  0  0  0  0  0  0
   38.6860   30.0470   42.5880 C   0  0  0  0  0  0  0  0  0  0  0  0
   38.7810   28.8340   43.2270 N   0  0  0  0  0  0  0  0  0  0  0  0
   38.7060   27.6760   42.5270 C   0  0  0  0  0  0  0  0  0  0  0  0
   38.5350   27.7030   41.1940 N   0  0  0  0  0  0  0  0  0  0  0  0
   38.2990   28.8970   39.4620 H   0  0  0  0  0  0  0  0  0  0  0  0
   38.7470   30.9590   43.1460 H   0  0  0  0  0  0  0  0  0  0  0  0
   38.8020   26.3570   43.1640 C   0  0  2  0  0  3  0  0  0  0  0  0
   40.2300   26.2090   43.6780 C   0  0  0  0  0  3  0  0  0  0  0  0
   40.8900   27.0190   43.3450 H   0  0  0  0  0  0  0  0  0  0  0  0
   40.6450   24.8940   43.0570 C   0  0  0  0  0  3  0  0  0  0  0  0
   41.1730   24.3300   43.8670 H   0  0  0  0  0  0  0  0  0  0  0  0
   39.4670   24.2330   42.6800 O   0  0  0  0  0  0  0  0  0  0  0  0
   38.5890   25.2070   42.2200 C   0  0  0  0  0  3  0  0  0  0  0  0
   37.5670   24.7680   42.2710 H   0  0  0  0  0  0  0  0  0  0  0  0
   38.4080   31.3530   40.5350 C   0  0  0  0  0  3  0  0  0  0  0  0
   37.3000   31.9890   40.2170 C   0  0  0  0  0  3  0  0  0  0  0  0
   37.2970   33.3090   39.5100 C   0  0  0  0  0  0  0  0  0  0  0  0
   36.3120   33.3480   38.9700 H   0  0  0  0  0  0  0  0  0  0  0  0
   37.4260   34.1530   40.1980 H   0  0  0  0  0  0  0  0  0  0  0  0
   38.0720   33.3090   38.6940 H   0  0  0  0  0  0  0  0  0  0  0  0
  1  6  2  0  0  0  0
  1  2  1  0  0  0  0
  2  3  2  0  0  0  0
  3  8  1  0  0  0  0
  3  4  1  0  0  0  0
  5  4  2  0  0  0  0
  6  5  1  0  0  0  0
  7  1  1  0  0  0  0
  9  5  1  6  0  0  0
  9 10  1  0  0  0  0
 11 10  1  0  0  0  0
 12 10  1  0  0  0  0
 12 13  1  0  0  0  0
 14 12  1  0  0  0  0
 15 16  1  0  0  0  0
 15 14  1  0  0  0  0
 15  9  1  0  0  0  0
 17  2  1  0  0  0  0
 18 17  2  0  0  0  0
 19 21  1  0  0  0  0
 19 18  1  0  0  0  0
 20 19  1  0  0  0  0
 22 19  1  0  0  0  0
M  END
>  <minimizedAffinity>
-3.93082976

$$$$

 OpenBabel03252501463D

 22 23  0  0  1  0  0  0  0  0999 V2000
   39.3710   30.0840   41.8290 C   0  0  0  0  0  0  0  0  0  0  0  0
   37.9970   30.2200   41.6570 C   0  0  0  0  0  0  0  0  0  0  0  0
   37.1720   29.2370   42.1740 C   0  0  0  0  0  0  0  0  0  0  0  0
   37.7300   28.1690   42.8340 N   0  0  0  0  0  0  0  0  0  0  0  0
   39.0740   28.0720   42.9820 C   0  0  0  0  0  0  0  0  0  0  0  0
   39.8780   29.0260   42.4810 N   0  0  0  0  0  0  0  0  0  0  0  0
   40.0120   30.8550   41.4240 H   0  0  0  0  0  0  0  0  0  0  0  0
   36.1090   29.3080   42.0600 H   0  0  0  0  0  0  0  0  0  0  0  0
   39.7160   26.9520   43.6790 C   0  0  2  0  0  3  0  0  0  0  0  0
   41.2170   27.2230   43.6790 C   0  0  0  0  0  3  0  0  0  0  0  0
   41.4960   28.0810   43.0560 H   0  0  0  0  0  0  0  0  0  0  0  0
   41.7600   25.9390   43.0930 C   0  0  0  0  0  3  0  0  0  0  0  0
   42.6450   25.6700   43.7230 H   0  0  0  0  0  0  0  0  0  0  0  0
   40.7510   24.9750   43.2180 O   0  0  0  0  0  0  0  0  0  0  0  0
   39.5430   25.6260   42.9920 C   0  0  0  0  0  3  0  0  0  0  0  0
   38.7470   24.9900   43.4390 H   0  0  0  0  0  0  0  0  0  0  0  0
   37.4160   31.3500   40.9590 C   0  0  0  0  0  3  0  0  0  0  0  0
   38.0640   32.2690   40.2750 C   0  0  0  0  0  3  0  0  0  0  0  0
   37.3730   33.4040   39.5850 C   0  0  0  0  0  0  0  0  0  0  0  0
   38.1400   34.2220   39.5300 H   0  0  0  0  0  0  0  0  0  0  0  0
   36.9950   33.1230   38.5940 H   0  0  0  0  0  0  0  0  0  0  0  0
   36.5600   33.8150   40.2440 H   0  0  0  0  0  0  0  0  0  0  0  0
  1  6  1  0  0  0  0
  2  1  2  0  0  0  0
  2  3  1  0  0  0  0
  3  4  2  0  0  0  0
  4  5  1  0  0  0  0
  6  5  2  0  0  0  0
  7  1  1  0  0  0  0
  8  3  1  0  0  0  0
  9  5  1  6  0  0  0
  9 10  1  0  0  0  0
 11 10  1  0  0  0  0
 12 14  1  0  0  0  0
 12 10  1  0  0  0  0
 12 13  1  0  0  0  0
 15 14  1  0  0  0  0
 15 16  1  0  0  0  0
 15  9  1  0  0  0  0
 17  2  1  0  0  0  0
 18 17  2  0  0  0  0
 19 22  1  0  0  0  0
 19 18  1  0  0  0  0
 20 19  1  0  0  0  0
 21 19  1  0  0  0  0
M  END
>  <minimizedAffinity>
-3.90174651

$$$$

 OpenBabel03252501463D

 22 23  0  0  1  0  0  0  0  0999 V2000
   37.6290   26.7460   40.4190 C   0  0  0  0  0  0  0  0  0  0  0  0
   37.2710   25.8980   41.4630 C   0  0  0  0  0  0  0  0  0  0  0  0
   36.8840   26.4660   42.6640 C   0  0  0  0  0  0  0  0  0  0  0  0
   36.8670   27.8350   42.7860 N   0  0  0  0  0  0  0  0  0  0  0  0
   37.2230   28.6270   41.7450 C   0  0  0  0  0  0  0  0  0  0  0  0
   37.5980   28.0780   40.5770 N   0  0  0  0  0  0  0  0  0  0  0  0
   37.9300   26.2970   39.4820 H   0  0  0  0  0  0  0  0  0  0  0  0
   36.6020   25.8460   43.4900 H   0  0  0  0  0  0  0  0  0  0  0  0
   37.2210   30.0930   41.8270 C   0  0  2  0  0  3  0  0  0  0  0  0
   36.1230   30.5930   40.8930 C   0  0  0  0  0  3  0  0  0  0  0  0
   35.6920   29.7970   40.2750 H   0  0  0  0  0  0  0  0  0  0  0  0
   36.8790   31.5830   40.0360 C   0  0  0  0  0  3  0  0  0  0  0  0
   36.2160   32.4810   39.9530 H   0  0  0  0  0  0  0  0  0  0  0  0
   38.0590   31.9010   40.7240 O   0  0  0  0  0  0  0  0  0  0  0  0
   38.4910   30.7330   41.3410 C   0  0  0  0  0  3  0  0  0  0  0  0
   39.1810   31.0380   42.1590 H   0  0  0  0  0  0  0  0  0  0  0  0
   37.2920   24.4560   41.3260 C   0  0  0  0  0  3  0  0  0  0  0  0
   37.8980   23.7640   40.3840 C   0  0  0  0  0  3  0  0  0  0  0  0
   37.8620   22.2680   40.3270 C   0  0  0  0  0  0  0  0  0  0  0  0
   38.0120   22.0140   39.2430 H   0  0  0  0  0  0  0  0  0  0  0  0
   38.6230   21.8060   40.9700 H   0  0  0  0  0  0  0  0  0  0  0  0
   36.8270   21.8990   40.5690 H   0  0  0  0  0  0  0  0  0  0  0  0
  1  6  2  0  0  0  0
  1  2  1  0  0  0  0
  2  3  2  0  0  0  0
  3  4  1  0  0  0  0
  3  8  1  0  0  0  0
  5  4  2  0  0  0  0
  6  5  1  0  0  0  0
  7  1  1  0  0  0  0
  9  5  1  6  0  0  0
 10  9  1  0  0  0  0
 11 10  1  0  0  0  0
 12 14  1  0  0  0  0
 12 10  1  0  0  0  0
 13 12  1  0  0  0  0
 14 15  1  0  0  0  0
 15  9  1  0  0  0  0
 15 16  1  0  0  0  0
 17  2  1  0  0  0  0
 18 17  2  0  0  0  0
 19 18  1  0  0  0  0
 19 22  1  0  0  0  0
 19 21  1  0  0  0  0
 20 19  1  0  0  0  0
M  END
>  <minimizedAffinity>
-3.89743972

$$$$
