
 OpenBabel03252505583D

 35 37  0  0  1  0  0  0  0  0999 V2000
   44.9030   35.0950   45.1800 C   0  0  0  0  0  0  0  0  0  0  0  0
   45.6540   34.7700   44.0300 C   0  0  0  0  0  0  0  0  0  0  0  0
   46.4590   33.6400   44.1020 C   0  0  0  0  0  0  0  0  0  0  0  0
   46.4750   32.9310   45.2520 N   0  0  0  0  0  0  0  0  0  0  0  0
   45.7500   33.2690   46.3190 C   0  0  0  0  0  0  0  0  0  0  0  0
   44.9680   34.3420   46.2890 N   0  0  0  0  0  0  0  0  0  0  0  0
   44.2720   35.9730   45.1330 H   0  0  0  0  0  0  0  0  0  0  0  0
   47.3040   33.1230   43.0440 C   0  0  2  0  0  3  0  0  0  0  0  0
   46.4070   32.2470   42.1470 C   0  0  0  0  0  3  0  0  0  0  0  0
   46.3040   32.6630   41.1260 H   0  0  0  0  0  0  0  0  0  0  0  0
   47.0620   30.9070   42.0720 C   0  0  0  0  0  3  0  0  0  0  0  0
   46.3520   30.0700   41.9620 H   0  0  0  0  0  0  0  0  0  0  0  0
   47.6090   30.8130   43.3520 O   0  0  0  0  0  0  0  0  0  0  0  0
   48.2470   32.0380   43.5460 C   0  0  0  0  0  3  0  0  0  0  0  0
   49.1510   32.0590   42.9070 H   0  0  0  0  0  0  0  0  0  0  0  0
   45.5550   35.6230   42.8260 C   0  0  0  0  0  0  0  0  0  0  0  0
   44.9800   36.8050   43.2940 F   0  0  0  0  0  0  0  0  0  0  0  0
   44.6140   35.0240   41.9870 F   0  0  0  0  0  0  0  0  0  0  0  0
   46.7470   35.8410   42.2850 F   0  0  0  0  0  0  0  0  0  0  0  0
   45.7710   32.5340   47.5020 O   0  0  0  0  0  0  0  0  0  0  0  0
   45.3100   31.1980   47.5230 C   0  0  0  0  0  0  0  0  0  0  0  0
   44.6980   31.0800   48.4500 H   0  0  0  0  0  0  0  0  0  0  0  0
   44.6510   30.9450   46.6740 H   0  0  0  0  0  0  0  0  0  0  0  0
   46.4910   30.3260   47.6540 C   0  0  0  0  0  0  0  0  0  0  0  0
   46.7340   29.0660   47.1230 C   0  0  0  0  0  0  0  0  0  0  0  0
   47.9250   28.4750   47.4060 C   0  0  0  0  0  0  0  0  0  0  0  0
   48.8510   29.0590   48.1640 N   0  0  0  0  0  0  0  0  0  0  0  0
   48.6100   30.2750   48.6720 C   0  0  0  0  0  0  0  0  0  0  0  0
   47.4300   30.9220   48.4250 N   0  0  0  0  0  0  0  0  0  0  0  0
   45.9200   28.7090   46.5380 H   0  0  0  0  0  0  0  0  0  0  0  0
   48.0500   27.4900   46.9590 H   0  0  0  0  0  0  0  0  0  0  0  0
   49.6980   30.8410   49.5010 C   0  0  0  0  0  0  0  0  0  0  0  0
   49.6710   32.2210   49.4970 F   0  0  0  0  0  0  0  0  0  0  0  0
   50.9390   30.4250   49.0140 F   0  0  0  0  0  0  0  0  0  0  0  0
   49.6240   30.4270   50.8160 F   0  0  0  0  0  0  0  0  0  0  0  0
  1  6  1  0  0  0  0
  2  3  1  0  0  0  0
  2  1  2  0  0  0  0
  3  4  2  0  0  0  0
  4  5  1  0  0  0  0
  5 20  1  0  0  0  0
  6  5  2  0  0  0  0
  7  1  1  0  0  0  0
  8 14  1  0  0  0  0
  8  3  1  1  0  0  0
  9  8  1  0  0  0  0
 10  9  1  0  0  0  0
 11  9  1  0  0  0  0
 11 13  1  0  0  0  0
 12 11  1  0  0  0  0
 13 14  1  0  0  0  0
 15 14  1  0  0  0  0
 16 17  1  0  0  0  0
 16  2  1  0  0  0  0
 18 16  1  0  0  0  0
 19 16  1  0  0  0  0
 20 21  1  0  0  0  0
 21 24  1  0  0  0  0
 21 22  1  0  0  0  0
 23 21  1  0  0  0  0
 24 29  1  0  0  0  0
 25 26  1  0  0  0  0
 25 24  2  0  0  0  0
 26 27  2  0  0  0  0
 27 28  1  0  0  0  0
 28 32  1  0  0  0  0
 29 28  2  0  0  0  0
 30 25  1  0  0  0  0
 31 26  1  0  0  0  0
 32 35  1  0  0  0  0
 33 32  1  0  0  0  0
 34 32  1  0  0  0  0
M  END
>  <minimizedAffinity>
-5.47082901

>  <minimizedRMSD>
0.332488388

$$$$
