
 OpenBabel03242511223D

 38 41  0  0  1  0  0  0  0  0999 V2000
   36.5470   29.4320   38.3850 C   0  0  0  0  0  0  0  0  0  0  0  0
   35.9300   30.2510   38.7430 H   0  0  0  0  0  0  0  0  0  0  0  0
   36.0740   28.9210   37.4990 H   0  0  0  0  0  0  0  0  0  0  0  0
   36.9280   28.4120   39.3500 C   0  0  0  0  0  0  0  0  0  0  0  0
   36.8280   28.6330   40.6180 C   0  0  0  0  0  0  0  0  0  0  0  0
   37.1850   27.6600   41.5710 N   0  0  0  0  0  0  0  0  0  0  0  0
   36.8440   26.9500   42.7740 C   0  0  0  0  0  0  0  0  0  0  0  0
   36.1470   27.1990   43.8040 O   0  0  0  0  0  0  0  0  0  0  0  0
   37.6900   25.8270   42.2160 C   0  0  0  0  0  0  0  0  0  0  0  0
   38.4550   26.9000   41.4790 C   0  0  1  0  0  0  0  0  0  0  0  0
   38.8490   26.5940   39.7630 S   0  0  0  0  0  0  0  0  0  0  0  0
   37.4280   27.1330   38.7740 C   0  0  0  0  0  0  0  0  0  0  0  0
   37.1000   25.2090   41.4900 H   0  0  0  0  0  0  0  0  0  0  0  0
   38.2140   25.2790   42.9990 H   0  0  0  0  0  0  0  0  0  0  0  0
   39.2380   27.3540   42.1160 H   0  0  0  0  0  0  0  0  0  0  0  0
   36.6280   26.3810   38.9200 H   0  0  0  0  0  0  0  0  0  0  0  0
   37.7760   27.2190   37.7460 H   0  0  0  0  0  0  0  0  0  0  0  0
   36.3270   29.9320   41.0940 C   0  0  0  0  0  0  0  0  0  0  0  0
   37.0180   30.7810   41.7410 O   0  0  0  0  0  0  0  0  0  0  0  0
   35.5800   31.0350   41.3910 O   0  0  0  0  0  0  0  0  0  0  0  0
   34.5690   31.0600   41.5510 H   0  0  0  0  0  0  0  0  0  0  0  0
   38.0450   30.2530   37.6950 S   0  0  0  0  0  0  0  0  0  0  0  0
   37.4020   33.8040   39.5480 C   0  0  0  0  0  0  0  0  0  0  0  0
   37.1850   32.6180   38.8040 C   0  0  0  0  0  0  0  0  0  0  0  0
   38.2780   31.7510   38.6230 C   0  0  0  0  0  0  0  0  0  0  0  0
   39.4690   32.0980   39.1670 N   0  0  0  0  0  0  0  0  0  0  0  0
   39.6280   33.2260   39.8620 C   0  0  0  0  0  0  0  0  0  0  0  0
   38.6210   34.0850   40.0620 N   0  0  0  0  0  0  0  0  0  0  0  0
   36.5280   34.4360   39.6570 H   0  0  0  0  0  0  0  0  0  0  0  0
   36.2040   32.4030   38.3960 H   0  0  0  0  0  0  0  0  0  0  0  0
   40.9620   33.4890   40.3990 C   0  0  2  0  0  3  0  0  0  0  0  0
   41.8310   34.3460   39.4700 C   0  0  0  0  0  3  0  0  0  0  0  0
   41.7940   33.8840   38.4690 H   0  0  0  0  0  0  0  0  0  0  0  0
   43.1730   34.0780   40.1640 C   0  0  0  0  0  3  0  0  0  0  0  0
   44.0210   34.3820   39.5520 H   0  0  0  0  0  0  0  0  0  0  0  0
   43.1490   32.7570   40.5480 O   0  0  0  0  0  0  0  0  0  0  0  0
   41.8470   32.2940   40.5490 C   0  0  0  0  0  3  0  0  0  0  0  0
   41.7550   31.5600   39.7300 H   0  0  0  0  0  0  0  0  0  0  0  0
  1  2  1  0  0  0  0
  1  4  1  0  0  0  0
  3  1  1  0  0  0  0
  4  5  2  0  0  0  0
  5 18  1  0  0  0  0
  5  6  1  0  0  0  0
  6  7  1  0  0  0  0
  7  8  2  0  0  0  0
  9  7  1  0  0  0  0
  9 14  1  0  0  0  0
 10  6  1  0  0  0  0
 10 15  1  1  0  0  0
 10  9  1  0  0  0  0
 11 10  1  0  0  0  0
 12 16  1  0  0  0  0
 12  4  1  0  0  0  0
 12 11  1  0  0  0  0
 13  9  1  0  0  0  0
 17 12  1  0  0  0  0
 18 20  1  0  0  0  0
 18 19  2  0  0  0  0
 20 21  1  0  0  0  0
 22  1  1  0  0  0  0
 22 25  1  0  0  0  0
 23 29  1  0  0  0  0
 23 28  1  0  0  0  0
 24 23  2  0  0  0  0
 25 24  1  0  0  0  0
 25 26  2  0  0  0  0
 26 27  1  0  0  0  0
 27 28  2  0  0  0  0
 30 24  1  0  0  0  0
 31 27  1  6  0  0  0
 31 37  1  0  0  0  0
 32 34  1  0  0  0  0
 32 31  1  0  0  0  0
 33 32  1  0  0  0  0
 34 36  1  0  0  0  0
 35 34  1  0  0  0  0
 36 37  1  0  0  0  0
 38 37  1  0  0  0  0
M  END
>  <minimizedAffinity>
-5.83965302

$$$$

 OpenBabel03242511223D

 38 41  0  0  1  0  0  0  0  0999 V2000
   38.9250   29.8670   42.6640 C   0  0  0  0  0  0  0  0  0  0  0  0
   38.9980   30.6750   43.3870 H   0  0  0  0  0  0  0  0  0  0  0  0
   39.8940   29.2940   42.5940 H   0  0  0  0  0  0  0  0  0  0  0  0
   38.5010   30.2130   41.3160 C   0  0  0  0  0  0  0  0  0  0  0  0
   39.1160   31.1270   40.6450 C   0  0  0  0  0  0  0  0  0  0  0  0
   38.7270   31.4770   39.3380 N   0  0  0  0  0  0  0  0  0  0  0  0
   39.1190   31.7510   37.9820 C   0  0  0  0  0  0  0  0  0  0  0  0
   40.1620   32.1980   37.4160 O   0  0  0  0  0  0  0  0  0  0  0  0
   37.7380   31.2650   37.6040 C   0  0  0  0  0  0  0  0  0  0  0  0
   37.3090   31.7160   38.9790 C   0  0  1  0  0  0  0  0  0  0  0  0
   36.2570   30.6130   39.9130 S   0  0  0  0  0  0  0  0  0  0  0  0
   37.3350   29.4490   40.7920 C   0  0  0  0  0  0  0  0  0  0  0  0
   37.7150   30.1460   37.5420 H   0  0  0  0  0  0  0  0  0  0  0  0
   37.3340   31.8010   36.7450 H   0  0  0  0  0  0  0  0  0  0  0  0
   37.0700   32.7970   38.9970 H   0  0  0  0  0  0  0  0  0  0  0  0
   37.7290   28.7400   40.0370 H   0  0  0  0  0  0  0  0  0  0  0  0
   36.7280   28.9840   41.5660 H   0  0  0  0  0  0  0  0  0  0  0  0
   40.2570   31.8330   41.2510 C   0  0  0  0  0  0  0  0  0  0  0  0
   40.6910   32.9660   40.8720 O   0  0  0  0  0  0  0  0  0  0  0  0
   41.3230   32.2190   42.0100 O   0  0  0  0  0  0  0  0  0  0  0  0
   42.0060   31.6020   42.4590 H   0  0  0  0  0  0  0  0  0  0  0  0
   37.7420   28.6750   43.4240 S   0  0  0  0  0  0  0  0  0  0  0  0
   40.2180   25.4650   43.5550 C   0  0  0  0  0  0  0  0  0  0  0  0
   39.6930   26.7650   43.7540 C   0  0  0  0  0  0  0  0  0  0  0  0
   38.4340   27.0550   43.1960 C   0  0  0  0  0  0  0  0  0  0  0  0
   37.8000   26.0780   42.5040 N   0  0  0  0  0  0  0  0  0  0  0  0
   38.3330   24.8650   42.3410 C   0  0  0  0  0  0  0  0  0  0  0  0
   39.5270   24.5400   42.8520 N   0  0  0  0  0  0  0  0  0  0  0  0
   41.1900   25.2960   44.0050 H   0  0  0  0  0  0  0  0  0  0  0  0
   40.2560   27.5000   44.3200 H   0  0  0  0  0  0  0  0  0  0  0  0
   37.5510   23.8970   41.5750 C   0  0  2  0  0  3  0  0  0  0  0  0
   38.4100   23.0070   40.6680 C   0  0  0  0  0  3  0  0  0  0  0  0
   39.0660   23.6730   40.0830 H   0  0  0  0  0  0  0  0  0  0  0  0
   37.2670   22.4480   39.8110 C   0  0  0  0  0  3  0  0  0  0  0  0
   37.6310   21.9590   38.9090 H   0  0  0  0  0  0  0  0  0  0  0  0
   36.3870   23.4880   39.6200 O   0  0  0  0  0  0  0  0  0  0  0  0
   36.6200   24.4760   40.5590 C   0  0  0  0  0  3  0  0  0  0  0  0
   37.0250   25.3530   40.0240 H   0  0  0  0  0  0  0  0  0  0  0  0
  1  2  1  0  0  0  0
  1 22  1  0  0  0  0
  3  1  1  0  0  0  0
  4  1  1  0  0  0  0
  5 18  1  0  0  0  0
  5  4  2  0  0  0  0
  6  5  1  0  0  0  0
  7  6  1  0  0  0  0
  8  7  2  0  0  0  0
  9  7  1  0  0  0  0
  9 10  1  0  0  0  0
 10 15  1  1  0  0  0
 10  6  1  0  0  0  0
 10 11  1  0  0  0  0
 11 12  1  0  0  0  0
 12  4  1  0  0  0  0
 12 17  1  0  0  0  0
 13  9  1  0  0  0  0
 14  9  1  0  0  0  0
 16 12  1  0  0  0  0
 18 20  1  0  0  0  0
 19 18  2  0  0  0  0
 20 21  1  0  0  0  0
 23 24  1  0  0  0  0
 23 29  1  0  0  0  0
 24 30  1  0  0  0  0
 25 22  1  0  0  0  0
 25 24  2  0  0  0  0
 26 25  1  0  0  0  0
 27 26  2  0  0  0  0
 27 28  1  0  0  0  0
 28 23  2  0  0  0  0
 31 27  1  6  0  0  0
 32 31  1  0  0  0  0
 33 32  1  0  0  0  0
 34 32  1  0  0  0  0
 35 34  1  0  0  0  0
 36 34  1  0  0  0  0
 36 37  1  0  0  0  0
 37 31  1  0  0  0  0
 38 37  1  0  0  0  0
M  END
>  <minimizedAffinity>
-5.75953627

$$$$

 OpenBabel03242511223D

 38 41  0  0  1  0  0  0  0  0999 V2000
   38.5780   30.8630   39.3820 C   0  0  0  0  0  0  0  0  0  0  0  0
   37.5400   31.0850   39.1510 H   0  0  0  0  0  0  0  0  0  0  0  0
   39.1560   30.6020   38.4500 H   0  0  0  0  0  0  0  0  0  0  0  0
   38.8350   29.8380   40.3810 C   0  0  0  0  0  0  0  0  0  0  0  0
   37.9410   29.5330   41.2600 C   0  0  0  0  0  0  0  0  0  0  0  0
   38.1640   28.5420   42.2340 N   0  0  0  0  0  0  0  0  0  0  0  0
   37.6720   27.3820   42.9270 C   0  0  0  0  0  0  0  0  0  0  0  0
   36.5280   26.9290   43.2320 O   0  0  0  0  0  0  0  0  0  0  0  0
   39.1280   27.0060   43.0960 C   0  0  0  0  0  0  0  0  0  0  0  0
   39.4170   28.4860   43.0230 C   0  0  1  0  0  0  0  0  0  0  0  0
   40.7930   29.0030   42.0050 S   0  0  0  0  0  0  0  0  0  0  0  0
   40.1750   29.1900   40.3110 C   0  0  0  0  0  0  0  0  0  0  0  0
   39.5140   26.4940   42.1760 H   0  0  0  0  0  0  0  0  0  0  0  0
   39.3140   26.4980   44.0420 H   0  0  0  0  0  0  0  0  0  0  0  0
   39.2910   28.9750   44.0080 H   0  0  0  0  0  0  0  0  0  0  0  0
   40.0160   28.1690   39.9100 H   0  0  0  0  0  0  0  0  0  0  0  0
   40.9180   29.7720   39.7690 H   0  0  0  0  0  0  0  0  0  0  0  0
   36.6450   30.2330   41.2540 C   0  0  0  0  0  0  0  0  0  0  0  0
   35.5860   29.7910   40.7060 O   0  0  0  0  0  0  0  0  0  0  0  0
   35.6140   31.1110   41.4220 O   0  0  0  0  0  0  0  0  0  0  0  0
   35.6890   32.1290   41.5030 H   0  0  0  0  0  0  0  0  0  0  0  0
   39.2840   32.4770   39.9210 S   0  0  0  0  0  0  0  0  0  0  0  0
   42.3170   34.3410   37.9770 C   0  0  0  0  0  0  0  0  0  0  0  0
   41.2190   34.1050   38.8390 C   0  0  0  0  0  0  0  0  0  0  0  0
   40.6640   32.8120   38.8530 C   0  0  0  0  0  0  0  0  0  0  0  0
   41.2090   31.8720   38.0440 N   0  0  0  0  0  0  0  0  0  0  0  0
   42.2460   32.1390   37.2470 C   0  0  0  0  0  0  0  0  0  0  0  0
   42.8100   33.3520   37.1970 N   0  0  0  0  0  0  0  0  0  0  0  0
   42.7060   35.3530   38.0050 H   0  0  0  0  0  0  0  0  0  0  0  0
   40.8320   34.9060   39.4600 H   0  0  0  0  0  0  0  0  0  0  0  0
   42.7450   31.0410   36.4220 C   0  0  2  0  0  3  0  0  0  0  0  0
   42.1100   29.6880   36.7660 C   0  0  0  0  0  3  0  0  0  0  0  0
   42.1960   29.5530   37.8570 H   0  0  0  0  0  0  0  0  0  0  0  0
   43.1130   28.8080   36.0080 C   0  0  0  0  0  3  0  0  0  0  0  0
   43.0330   27.7590   36.2890 H   0  0  0  0  0  0  0  0  0  0  0  0
   44.3460   29.3890   36.1900 O   0  0  0  0  0  0  0  0  0  0  0  0
   44.1890   30.6990   36.6030 C   0  0  0  0  0  3  0  0  0  0  0  0
   44.5390   30.7620   37.6480 H   0  0  0  0  0  0  0  0  0  0  0  0
  1 22  1  0  0  0  0
  1  4  1  0  0  0  0
  2  1  1  0  0  0  0
  3  1  1  0  0  0  0
  4  5  2  0  0  0  0
  5  6  1  0  0  0  0
  6  7  1  0  0  0  0
  6 10  1  0  0  0  0
  7  9  1  0  0  0  0
  7  8  2  0  0  0  0
  9 14  1  0  0  0  0
 10  9  1  0  0  0  0
 10 15  1  1  0  0  0
 11 10  1  0  0  0  0
 12  4  1  0  0  0  0
 12 11  1  0  0  0  0
 13  9  1  0  0  0  0
 16 12  1  0  0  0  0
 17 12  1  0  0  0  0
 18  5  1  0  0  0  0
 18 20  1  0  0  0  0
 19 18  2  0  0  0  0
 20 21  1  0  0  0  0
 23 29  1  0  0  0  0
 23 24  1  0  0  0  0
 24 25  2  0  0  0  0
 24 30  1  0  0  0  0
 25 22  1  0  0  0  0
 26 25  1  0  0  0  0
 27 26  2  0  0  0  0
 28 27  1  0  0  0  0
 28 23  2  0  0  0  0
 31 37  1  0  0  0  0
 31 32  1  0  0  0  0
 31 27  1  1  0  0  0
 32 33  1  0  0  0  0
 34 36  1  0  0  0  0
 34 35  1  0  0  0  0
 34 32  1  0  0  0  0
 36 37  1  0  0  0  0
 37 38  1  0  0  0  0
M  END
>  <minimizedAffinity>
-5.61817169

$$$$

 OpenBabel03242511223D

 38 41  0  0  1  0  0  0  0  0999 V2000
   35.5430   29.2270   38.3740 C   0  0  0  0  0  0  0  0  0  0  0  0
   36.1170   30.1450   38.2950 H   0  0  0  0  0  0  0  0  0  0  0  0
   34.4670   29.4400   38.6330 H   0  0  0  0  0  0  0  0  0  0  0  0
   36.0380   28.2050   39.2830 C   0  0  0  0  0  0  0  0  0  0  0  0
   36.3040   28.4890   40.5130 C   0  0  0  0  0  0  0  0  0  0  0  0
   36.7800   27.5170   41.4130 N   0  0  0  0  0  0  0  0  0  0  0  0
   36.6860   26.9100   42.7140 C   0  0  0  0  0  0  0  0  0  0  0  0
   36.3210   27.2940   43.8660 O   0  0  0  0  0  0  0  0  0  0  0  0
   37.2120   25.6600   42.0430 C   0  0  0  0  0  0  0  0  0  0  0  0
   37.8790   26.5880   41.0560 C   0  0  1  0  0  0  0  0  0  0  0  0
   37.7650   26.1600   39.3240 S   0  0  0  0  0  0  0  0  0  0  0  0
   36.2090   26.8470   38.6950 C   0  0  0  0  0  0  0  0  0  0  0  0
   36.3810   25.0990   41.5420 H   0  0  0  0  0  0  0  0  0  0  0  0
   37.8530   25.0780   42.7050 H   0  0  0  0  0  0  0  0  0  0  0  0
   38.8520   26.9560   41.4350 H   0  0  0  0  0  0  0  0  0  0  0  0
   35.3910   26.2180   39.0990 H   0  0  0  0  0  0  0  0  0  0  0  0
   36.2810   26.8420   37.6100 H   0  0  0  0  0  0  0  0  0  0  0  0
   36.1080   29.8640   41.0030 C   0  0  0  0  0  0  0  0  0  0  0  0
   36.9480   30.5080   41.7060 O   0  0  0  0  0  0  0  0  0  0  0  0
   35.6360   31.1100   41.2950 O   0  0  0  0  0  0  0  0  0  0  0  0
   34.6540   31.3780   41.4070 H   0  0  0  0  0  0  0  0  0  0  0  0
   35.4790   28.5760   36.6510 S   0  0  0  0  0  0  0  0  0  0  0  0
   32.0100   26.8120   35.5090 C   0  0  0  0  0  0  0  0  0  0  0  0
   33.3810   27.0170   35.7950 C   0  0  0  0  0  0  0  0  0  0  0  0
   33.7660   28.2800   36.2810 C   0  0  0  0  0  0  0  0  0  0  0  0
   32.8080   29.2230   36.4470 N   0  0  0  0  0  0  0  0  0  0  0  0
   31.5250   28.9850   36.1650 C   0  0  0  0  0  0  0  0  0  0  0  0
   31.1070   27.8010   35.7000 N   0  0  0  0  0  0  0  0  0  0  0  0
   31.7680   25.8230   35.1370 H   0  0  0  0  0  0  0  0  0  0  0  0
   34.0960   26.2170   35.6380 H   0  0  0  0  0  0  0  0  0  0  0  0
   30.5850   30.0820   36.3870 C   0  0  2  0  0  3  0  0  0  0  0  0
   30.9450   31.3540   35.6090 C   0  0  0  0  0  3  0  0  0  0  0  0
   32.0050   31.5750   35.8140 H   0  0  0  0  0  0  0  0  0  0  0  0
   30.0140   32.3100   36.3660 C   0  0  0  0  0  3  0  0  0  0  0  0
   30.2500   33.3550   36.1690 H   0  0  0  0  0  0  0  0  0  0  0  0
   30.0540   31.9200   37.6840 O   0  0  0  0  0  0  0  0  0  0  0  0
   30.5490   30.6340   37.7760 C   0  0  0  0  0  3  0  0  0  0  0  0
   31.5380   30.6930   38.2630 H   0  0  0  0  0  0  0  0  0  0  0  0
  1  3  1  0  0  0  0
  1  4  1  0  0  0  0
  2  1  1  0  0  0  0
  4  5  2  0  0  0  0
  5 18  1  0  0  0  0
  5  6  1  0  0  0  0
  6  7  1  0  0  0  0
  7  8  2  0  0  0  0
  9 14  1  0  0  0  0
  9  7  1  0  0  0  0
 10  6  1  0  0  0  0
 10 15  1  1  0  0  0
 10  9  1  0  0  0  0
 11 10  1  0  0  0  0
 12 16  1  0  0  0  0
 12  4  1  0  0  0  0
 12 11  1  0  0  0  0
 13  9  1  0  0  0  0
 17 12  1  0  0  0  0
 18 20  1  0  0  0  0
 18 19  2  0  0  0  0
 20 21  1  0  0  0  0
 22  1  1  0  0  0  0
 23 28  2  0  0  0  0
 23 24  1  0  0  0  0
 24 25  2  0  0  0  0
 25 26  1  0  0  0  0
 25 22  1  0  0  0  0
 27 26  2  0  0  0  0
 28 27  1  0  0  0  0
 29 23  1  0  0  0  0
 30 24  1  0  0  0  0
 31 27  1  1  0  0  0
 31 37  1  0  0  0  0
 32 33  1  0  0  0  0
 32 34  1  0  0  0  0
 32 31  1  0  0  0  0
 34 36  1  0  0  0  0
 35 34  1  0  0  0  0
 36 37  1  0  0  0  0
 37 38  1  0  0  0  0
M  END
>  <minimizedAffinity>
-5.57526588

$$$$

 OpenBabel03242511223D

 38 41  0  0  1  0  0  0  0  0999 V2000
   37.6860   28.9460   43.1290 C   0  0  0  0  0  0  0  0  0  0  0  0
   36.6480   29.0300   42.8210 H   0  0  0  0  0  0  0  0  0  0  0  0
   37.8290   29.3170   44.1840 H   0  0  0  0  0  0  0  0  0  0  0  0
   38.6870   29.5760   42.2830 C   0  0  0  0  0  0  0  0  0  0  0  0
   38.3450   30.4400   41.3880 C   0  0  0  0  0  0  0  0  0  0  0  0
   39.2960   31.0670   40.5600 N   0  0  0  0  0  0  0  0  0  0  0  0
   39.7920   32.2860   39.9800 C   0  0  0  0  0  0  0  0  0  0  0  0
   39.2870   33.4020   39.6530 O   0  0  0  0  0  0  0  0  0  0  0  0
   41.1380   31.5960   39.9620 C   0  0  0  0  0  0  0  0  0  0  0  0
   40.3650   30.3030   39.8740 C   0  0  1  0  0  0  0  0  0  0  0  0
   40.9030   28.9530   40.9160 S   0  0  0  0  0  0  0  0  0  0  0  0
   40.0950   29.1550   42.5270 C   0  0  0  0  0  0  0  0  0  0  0  0
   41.6380   31.6770   40.9620 H   0  0  0  0  0  0  0  0  0  0  0  0
   41.7380   31.8880   39.1000 H   0  0  0  0  0  0  0  0  0  0  0  0
   40.0800   30.0680   38.8300 H   0  0  0  0  0  0  0  0  0  0  0  0
   40.5980   30.0000   43.0370 H   0  0  0  0  0  0  0  0  0  0  0  0
   40.1870   28.2020   43.0440 H   0  0  0  0  0  0  0  0  0  0  0  0
   36.9250   30.7890   41.2160 C   0  0  0  0  0  0  0  0  0  0  0  0
   36.4500   31.4190   40.2190 O   0  0  0  0  0  0  0  0  0  0  0  0
   35.5780   30.9570   41.3510 O   0  0  0  0  0  0  0  0  0  0  0  0
   35.0610   31.0480   42.2300 H   0  0  0  0  0  0  0  0  0  0  0  0
   37.9880   27.1310   43.2380 S   0  0  0  0  0  0  0  0  0  0  0  0
   36.5950   24.4850   40.4990 C   0  0  0  0  0  0  0  0  0  0  0  0
   37.1210   25.0250   41.6970 C   0  0  0  0  0  0  0  0  0  0  0  0
   37.3280   26.4150   41.7520 C   0  0  0  0  0  0  0  0  0  0  0  0
   37.0140   27.1540   40.6600 N   0  0  0  0  0  0  0  0  0  0  0  0
   36.5190   26.6010   39.5500 C   0  0  0  0  0  0  0  0  0  0  0  0
   36.3040   25.2840   39.4470 N   0  0  0  0  0  0  0  0  0  0  0  0
   36.4560   23.4090   40.5100 H   0  0  0  0  0  0  0  0  0  0  0  0
   37.3510   24.3740   42.5330 H   0  0  0  0  0  0  0  0  0  0  0  0
   36.2190   27.5040   38.4400 C   0  0  2  0  0  3  0  0  0  0  0  0
   37.3210   28.5400   38.1870 C   0  0  0  0  0  3  0  0  0  0  0  0
   37.5480   29.0190   39.1540 H   0  0  0  0  0  0  0  0  0  0  0  0
   36.5060   29.4670   37.2770 C   0  0  0  0  0  3  0  0  0  0  0  0
   36.9860   30.4350   37.1400 H   0  0  0  0  0  0  0  0  0  0  0  0
   35.2330   29.4930   37.7970 O   0  0  0  0  0  0  0  0  0  0  0  0
   35.0520   28.4150   38.6430 C   0  0  0  0  0  3  0  0  0  0  0  0
   34.9630   28.8110   39.6700 H   0  0  0  0  0  0  0  0  0  0  0  0
  1 22  1  0  0  0  0
  1  3  1  0  0  0  0
  2  1  1  0  0  0  0
  4 12  1  0  0  0  0
  4  1  1  0  0  0  0
  5  4  2  0  0  0  0
  6  5  1  0  0  0  0
  7  6  1  0  0  0  0
  8  7  2  0  0  0  0
  9  7  1  0  0  0  0
  9 13  1  0  0  0  0
 10 15  1  6  0  0  0
 10  9  1  0  0  0  0
 10  6  1  0  0  0  0
 10 11  1  0  0  0  0
 11 12  1  0  0  0  0
 12 16  1  0  0  0  0
 12 17  1  0  0  0  0
 14  9  1  0  0  0  0
 18 20  1  0  0  0  0
 18  5  1  0  0  0  0
 19 18  2  0  0  0  0
 20 21  1  0  0  0  0
 23 29  1  0  0  0  0
 23 24  1  0  0  0  0
 24 25  2  0  0  0  0
 24 30  1  0  0  0  0
 25 22  1  0  0  0  0
 26 25  1  0  0  0  0
 27 26  2  0  0  0  0
 28 27  1  0  0  0  0
 28 23  2  0  0  0  0
 31 37  1  0  0  0  0
 31 27  1  1  0  0  0
 32 31  1  0  0  0  0
 32 33  1  0  0  0  0
 34 36  1  0  0  0  0
 34 32  1  0  0  0  0
 35 34  1  0  0  0  0
 36 37  1  0  0  0  0
 37 38  1  0  0  0  0
M  END
>  <minimizedAffinity>
-5.57141018

$$$$

 OpenBabel03242511223D

 38 41  0  0  1  0  0  0  0  0999 V2000
   38.6790   30.8850   39.8520 C   0  0  0  0  0  0  0  0  0  0  0  0
   38.0650   31.3770   40.6000 H   0  0  0  0  0  0  0  0  0  0  0  0
   39.3920   31.6110   39.3680 H   0  0  0  0  0  0  0  0  0  0  0  0
   37.9910   30.1510   38.8010 C   0  0  0  0  0  0  0  0  0  0  0  0
   36.7510   29.8190   38.9310 C   0  0  0  0  0  0  0  0  0  0  0  0
   36.0620   29.1140   37.9260 N   0  0  0  0  0  0  0  0  0  0  0  0
   34.8790   28.9880   37.1170 C   0  0  0  0  0  0  0  0  0  0  0  0
   33.6570   29.2990   37.2500 O   0  0  0  0  0  0  0  0  0  0  0  0
   35.7850   28.3380   36.0950 C   0  0  0  0  0  0  0  0  0  0  0  0
   36.6440   27.9210   37.2640 C   0  0  1  0  0  0  0  0  0  0  0  0
   38.4110   28.1280   37.0980 S   0  0  0  0  0  0  0  0  0  0  0  0
   38.8090   29.8250   37.6000 C   0  0  0  0  0  0  0  0  0  0  0  0
   36.3170   29.1140   35.4850 H   0  0  0  0  0  0  0  0  0  0  0  0
   35.2760   27.5540   35.5340 H   0  0  0  0  0  0  0  0  0  0  0  0
   36.2740   26.9870   37.7290 H   0  0  0  0  0  0  0  0  0  0  0  0
   38.4640   30.4930   36.7850 H   0  0  0  0  0  0  0  0  0  0  0  0
   39.8830   29.8560   37.7760 H   0  0  0  0  0  0  0  0  0  0  0  0
   36.0240   30.1820   40.1590 C   0  0  0  0  0  0  0  0  0  0  0  0
   35.3150   29.3790   40.8440 O   0  0  0  0  0  0  0  0  0  0  0  0
   35.4830   30.8180   41.2380 O   0  0  0  0  0  0  0  0  0  0  0  0
   35.2270   31.8080   41.2950 H   0  0  0  0  0  0  0  0  0  0  0  0
   39.7640   29.7530   40.8190 S   0  0  0  0  0  0  0  0  0  0  0  0
   37.3940   28.4190   43.8280 C   0  0  0  0  0  0  0  0  0  0  0  0
   38.2480   29.2440   43.0560 C   0  0  0  0  0  0  0  0  0  0  0  0
   38.6910   28.7470   41.8170 C   0  0  0  0  0  0  0  0  0  0  0  0
   38.2780   27.5150   41.4350 N   0  0  0  0  0  0  0  0  0  0  0  0
   37.4720   26.7710   42.1950 C   0  0  0  0  0  0  0  0  0  0  0  0
   37.0230   27.1980   43.3820 N   0  0  0  0  0  0  0  0  0  0  0  0
   37.0830   28.8490   44.7730 H   0  0  0  0  0  0  0  0  0  0  0  0
   38.5400   30.2220   43.4240 H   0  0  0  0  0  0  0  0  0  0  0  0
   37.0960   25.4590   41.6740 C   0  0  2  0  0  3  0  0  0  0  0  0
   38.1580   24.3810   41.9240 C   0  0  0  0  0  3  0  0  0  0  0  0
   39.1230   24.7840   41.5740 H   0  0  0  0  0  0  0  0  0  0  0  0
   37.5990   23.3330   40.9520 C   0  0  0  0  0  3  0  0  0  0  0  0
   38.3150   22.5380   40.7500 H   0  0  0  0  0  0  0  0  0  0  0  0
   37.1450   24.0300   39.8570 O   0  0  0  0  0  0  0  0  0  0  0  0
   36.9790   25.3620   40.1870 C   0  0  0  0  0  3  0  0  0  0  0  0
   37.7420   25.9380   39.6360 H   0  0  0  0  0  0  0  0  0  0  0  0
  1  2  1  0  0  0  0
  1 22  1  0  0  0  0
  3  1  1  0  0  0  0
  4  5  2  0  0  0  0
  4  1  1  0  0  0  0
  5 18  1  0  0  0  0
  6  5  1  0  0  0  0
  7  8  2  0  0  0  0
  7  6  1  0  0  0  0
  9  7  1  0  0  0  0
  9 10  1  0  0  0  0
 10 15  1  1  0  0  0
 10  6  1  0  0  0  0
 11 10  1  0  0  0  0
 11 12  1  0  0  0  0
 12 17  1  0  0  0  0
 12  4  1  0  0  0  0
 13  9  1  0  0  0  0
 14  9  1  0  0  0  0
 16 12  1  0  0  0  0
 18 19  2  0  0  0  0
 18 20  1  0  0  0  0
 20 21  1  0  0  0  0
 22 25  1  0  0  0  0
 23 29  1  0  0  0  0
 24 30  1  0  0  0  0
 24 23  2  0  0  0  0
 25 24  1  0  0  0  0
 26 25  2  0  0  0  0
 26 27  1  0  0  0  0
 27 28  2  0  0  0  0
 28 23  1  0  0  0  0
 31 32  1  0  0  0  0
 31 27  1  6  0  0  0
 33 32  1  0  0  0  0
 34 32  1  0  0  0  0
 35 34  1  0  0  0  0
 36 37  1  0  0  0  0
 36 34  1  0  0  0  0
 37 31  1  0  0  0  0
 38 37  1  0  0  0  0
M  END
>  <minimizedAffinity>
-5.56040192

$$$$

 OpenBabel03242511223D

 38 41  0  0  1  0  0  0  0  0999 V2000
   36.7120   30.2150   38.1250 C   0  0  0  0  0  0  0  0  0  0  0  0
   36.2200   30.8860   37.4250 H   0  0  0  0  0  0  0  0  0  0  0  0
   36.0190   29.9210   38.9630 H   0  0  0  0  0  0  0  0  0  0  0  0
   37.9690   30.6620   38.7050 C   0  0  0  0  0  0  0  0  0  0  0  0
   38.0360   31.0110   39.9460 C   0  0  0  0  0  0  0  0  0  0  0  0
   39.2410   31.4430   40.5310 N   0  0  0  0  0  0  0  0  0  0  0  0
   40.1580   31.3590   41.6360 C   0  0  0  0  0  0  0  0  0  0  0  0
   40.0620   31.0860   42.8710 O   0  0  0  0  0  0  0  0  0  0  0  0
   41.2240   31.7390   40.6330 C   0  0  0  0  0  0  0  0  0  0  0  0
   40.1220   32.4360   39.8730 C   0  0  1  0  0  0  0  0  0  0  0  0
   40.0740   32.2020   38.1010 S   0  0  0  0  0  0  0  0  0  0  0  0
   39.1350   30.6840   37.7790 C   0  0  0  0  0  0  0  0  0  0  0  0
   41.5730   30.8380   40.0640 H   0  0  0  0  0  0  0  0  0  0  0  0
   42.0040   32.3580   41.0770 H   0  0  0  0  0  0  0  0  0  0  0  0
   39.9370   33.4550   40.2650 H   0  0  0  0  0  0  0  0  0  0  0  0
   39.7870   29.8340   38.0640 H   0  0  0  0  0  0  0  0  0  0  0  0
   38.8620   30.7030   36.7260 H   0  0  0  0  0  0  0  0  0  0  0  0
   36.8260   30.9610   40.7830 C   0  0  0  0  0  0  0  0  0  0  0  0
   36.7340   30.3320   41.8840 O   0  0  0  0  0  0  0  0  0  0  0  0
   35.5800   31.1090   41.3190 O   0  0  0  0  0  0  0  0  0  0  0  0
   34.7070   31.2430   40.8010 H   0  0  0  0  0  0  0  0  0  0  0  0
   36.9640   28.6590   37.1700 S   0  0  0  0  0  0  0  0  0  0  0  0
   36.0880   25.0920   38.8890 C   0  0  0  0  0  0  0  0  0  0  0  0
   36.1770   26.1400   37.9400 C   0  0  0  0  0  0  0  0  0  0  0  0
   36.8310   27.3220   38.3320 C   0  0  0  0  0  0  0  0  0  0  0  0
   37.3350   27.3900   39.5880 N   0  0  0  0  0  0  0  0  0  0  0  0
   37.2270   26.3770   40.4500 C   0  0  0  0  0  0  0  0  0  0  0  0
   36.6150   25.2310   40.1260 N   0  0  0  0  0  0  0  0  0  0  0  0
   35.5740   24.2050   38.5360 H   0  0  0  0  0  0  0  0  0  0  0  0
   35.7510   26.0170   36.9510 H   0  0  0  0  0  0  0  0  0  0  0  0
   37.8120   26.5710   41.7750 C   0  0  2  0  0  3  0  0  0  0  0  0
   36.8150   27.1270   42.8010 C   0  0  0  0  0  3  0  0  0  0  0  0
   36.3360   28.0100   42.3470 H   0  0  0  0  0  0  0  0  0  0  0  0
   37.8430   27.5280   43.8670 C   0  0  0  0  0  3  0  0  0  0  0  0
   37.4150   28.1830   44.6240 H   0  0  0  0  0  0  0  0  0  0  0  0
   38.9290   28.0230   43.1850 O   0  0  0  0  0  0  0  0  0  0  0  0
   38.8790   27.6130   41.8660 C   0  0  0  0  0  3  0  0  0  0  0  0
   38.6900   28.5080   41.2470 H   0  0  0  0  0  0  0  0  0  0  0  0
  1  4  1  0  0  0  0
  1  3  1  0  0  0  0
  2  1  1  0  0  0  0
  4  5  2  0  0  0  0
  5  6  1  0  0  0  0
  5 18  1  0  0  0  0
  6  7  1  0  0  0  0
  7  8  2  0  0  0  0
  9 14  1  0  0  0  0
  9  7  1  0  0  0  0
 10 15  1  1  0  0  0
 10  6  1  0  0  0  0
 10  9  1  0  0  0  0
 11 10  1  0  0  0  0
 12 16  1  0  0  0  0
 12 11  1  0  0  0  0
 12  4  1  0  0  0  0
 13  9  1  0  0  0  0
 17 12  1  0  0  0  0
 18 20  1  0  0  0  0
 18 19  2  0  0  0  0
 21 20  1  0  0  0  0
 22  1  1  0  0  0  0
 22 25  1  0  0  0  0
 23 28  1  0  0  0  0
 24 25  1  0  0  0  0
 24 23  2  0  0  0  0
 25 26  2  0  0  0  0
 26 27  1  0  0  0  0
 28 27  2  0  0  0  0
 29 23  1  0  0  0  0
 30 24  1  0  0  0  0
 31 27  1  6  0  0  0
 31 37  1  0  0  0  0
 31 32  1  0  0  0  0
 32 34  1  0  0  0  0
 33 32  1  0  0  0  0
 34 35  1  0  0  0  0
 36 34  1  0  0  0  0
 37 36  1  0  0  0  0
 38 37  1  0  0  0  0
M  END
>  <minimizedAffinity>
-5.5392108

$$$$

 OpenBabel03242511223D

 38 41  0  0  1  0  0  0  0  0999 V2000
   35.7890   28.6580   40.5750 C   0  0  0  0  0  0  0  0  0  0  0  0
   35.7440   29.3940   41.3740 H   0  0  0  0  0  0  0  0  0  0  0  0
   34.8210   28.0850   40.4940 H   0  0  0  0  0  0  0  0  0  0  0  0
   36.8840   27.7020   40.6090 C   0  0  0  0  0  0  0  0  0  0  0  0
   37.6890   27.6550   41.6170 C   0  0  0  0  0  0  0  0  0  0  0  0
   38.7530   26.7350   41.6760 N   0  0  0  0  0  0  0  0  0  0  0  0
   39.4800   25.7590   42.4420 C   0  0  0  0  0  0  0  0  0  0  0  0
   39.7000   25.5600   43.6750 O   0  0  0  0  0  0  0  0  0  0  0  0
   39.8220   25.1330   41.1090 C   0  0  0  0  0  0  0  0  0  0  0  0
   39.6670   26.5180   40.5290 C   0  0  1  0  0  0  0  0  0  0  0  0
   38.7560   26.6690   38.9980 S   0  0  0  0  0  0  0  0  0  0  0  0
   36.9990   26.8090   39.4220 C   0  0  0  0  0  0  0  0  0  0  0  0
   38.9880   24.4730   40.7540 H   0  0  0  0  0  0  0  0  0  0  0  0
   40.8180   24.6910   41.1060 H   0  0  0  0  0  0  0  0  0  0  0  0
   40.5940   27.1130   40.6400 H   0  0  0  0  0  0  0  0  0  0  0  0
   36.6620   25.8040   39.7430 H   0  0  0  0  0  0  0  0  0  0  0  0
   36.4920   27.1870   38.5360 H   0  0  0  0  0  0  0  0  0  0  0  0
   37.4990   28.5820   42.7450 C   0  0  0  0  0  0  0  0  0  0  0  0
   38.2680   29.5580   43.0160 O   0  0  0  0  0  0  0  0  0  0  0  0
   37.0550   29.2530   43.8470 O   0  0  0  0  0  0  0  0  0  0  0  0
   36.5380   28.8530   44.6360 H   0  0  0  0  0  0  0  0  0  0  0  0
   35.8600   29.6600   39.0310 S   0  0  0  0  0  0  0  0  0  0  0  0
   38.1630   32.6470   40.5220 C   0  0  0  0  0  0  0  0  0  0  0  0
   37.1130   31.7090   40.3700 C   0  0  0  0  0  0  0  0  0  0  0  0
   37.1590   30.8510   39.2560 C   0  0  0  0  0  0  0  0  0  0  0  0
   38.1990   30.9730   38.3950 N   0  0  0  0  0  0  0  0  0  0  0  0
   39.1670   31.8730   38.5780 C   0  0  0  0  0  0  0  0  0  0  0  0
   39.1700   32.7110   39.6220 N   0  0  0  0  0  0  0  0  0  0  0  0
   38.0790   33.2830   41.3960 H   0  0  0  0  0  0  0  0  0  0  0  0
   36.3110   31.6670   41.0980 H   0  0  0  0  0  0  0  0  0  0  0  0
   40.2350   31.9060   37.5810 C   0  0  2  0  0  3  0  0  0  0  0  0
   41.1470   30.6730   37.6290 C   0  0  0  0  0  3  0  0  0  0  0  0
   41.4650   30.5410   38.6770 H   0  0  0  0  0  0  0  0  0  0  0  0
   42.2800   31.2390   36.7630 C   0  0  0  0  0  3  0  0  0  0  0  0
   43.1880   30.6430   36.8330 H   0  0  0  0  0  0  0  0  0  0  0  0
   42.4000   32.5650   37.1090 O   0  0  0  0  0  0  0  0  0  0  0  0
   41.2540   32.9850   37.7590 C   0  0  0  0  0  3  0  0  0  0  0  0
   41.5230   33.1820   38.8110 H   0  0  0  0  0  0  0  0  0  0  0  0
  1  4  1  0  0  0  0
  1  2  1  0  0  0  0
  3  1  1  0  0  0  0
  4  5  2  0  0  0  0
  5  6  1  0  0  0  0
  5 18  1  0  0  0  0
  6  7  1  0  0  0  0
  7  8  2  0  0  0  0
  9  7  1  0  0  0  0
 10 15  1  1  0  0  0
 10  9  1  0  0  0  0
 10  6  1  0  0  0  0
 11 12  1  0  0  0  0
 11 10  1  0  0  0  0
 12 16  1  0  0  0  0
 12  4  1  0  0  0  0
 13  9  1  0  0  0  0
 14  9  1  0  0  0  0
 17 12  1  0  0  0  0
 18 19  2  0  0  0  0
 18 20  1  0  0  0  0
 20 21  1  0  0  0  0
 22 25  1  0  0  0  0
 22  1  1  0  0  0  0
 23 29  1  0  0  0  0
 24 23  1  0  0  0  0
 24 30  1  0  0  0  0
 25 24  2  0  0  0  0
 26 27  2  0  0  0  0
 26 25  1  0  0  0  0
 27 28  1  0  0  0  0
 28 23  2  0  0  0  0
 31 32  1  0  0  0  0
 31 37  1  0  0  0  0
 31 27  1  1  0  0  0
 32 33  1  0  0  0  0
 34 35  1  0  0  0  0
 34 36  1  0  0  0  0
 34 32  1  0  0  0  0
 36 37  1  0  0  0  0
 37 38  1  0  0  0  0
M  END
>  <minimizedAffinity>
-5.50936079

$$$$

 OpenBabel03242511223D

 38 41  0  0  1  0  0  0  0  0999 V2000
   36.8540   31.3220   38.9910 C   0  0  0  0  0  0  0  0  0  0  0  0
   37.0050   30.3770   38.4770 H   0  0  0  0  0  0  0  0  0  0  0  0
   35.9880   31.8920   38.5500 H   0  0  0  0  0  0  0  0  0  0  0  0
   37.9940   32.2210   39.0830 C   0  0  0  0  0  0  0  0  0  0  0  0
   39.1480   31.8750   38.6220 C   0  0  0  0  0  0  0  0  0  0  0  0
   40.2640   32.7290   38.6950 N   0  0  0  0  0  0  0  0  0  0  0  0
   41.3910   33.3230   38.0260 C   0  0  0  0  0  0  0  0  0  0  0  0
   42.1450   32.9940   37.0610 O   0  0  0  0  0  0  0  0  0  0  0  0
   41.2240   34.4650   39.0040 C   0  0  0  0  0  0  0  0  0  0  0  0
   40.6230   33.4470   39.9410 C   0  0  1  0  0  0  0  0  0  0  0  0
   39.1350   33.9150   40.8150 S   0  0  0  0  0  0  0  0  0  0  0  0
   37.7280   33.5340   39.7350 C   0  0  0  0  0  0  0  0  0  0  0  0
   40.4330   35.1770   38.6500 H   0  0  0  0  0  0  0  0  0  0  0  0
   42.1790   34.9100   39.2820 H   0  0  0  0  0  0  0  0  0  0  0  0
   41.4030   32.9010   40.5060 H   0  0  0  0  0  0  0  0  0  0  0  0
   37.7220   34.2960   38.9310 H   0  0  0  0  0  0  0  0  0  0  0  0
   36.8400   33.5430   40.3640 H   0  0  0  0  0  0  0  0  0  0  0  0
   39.3160   30.5520   37.9980 C   0  0  0  0  0  0  0  0  0  0  0  0
   39.7790   29.5260   38.5890 O   0  0  0  0  0  0  0  0  0  0  0  0
   39.3450   29.4810   37.1530 O   0  0  0  0  0  0  0  0  0  0  0  0
   39.4690   29.5100   36.1370 H   0  0  0  0  0  0  0  0  0  0  0  0
   36.2780   30.8420   40.6740 S   0  0  0  0  0  0  0  0  0  0  0  0
   39.3570   28.9290   42.4920 C   0  0  0  0  0  0  0  0  0  0  0  0
   38.4900   29.9550   42.0460 C   0  0  0  0  0  0  0  0  0  0  0  0
   37.3890   29.5830   41.2530 C   0  0  0  0  0  0  0  0  0  0  0  0
   37.2230   28.2690   40.9630 N   0  0  0  0  0  0  0  0  0  0  0  0
   38.0660   27.3350   41.4060 C   0  0  0  0  0  0  0  0  0  0  0  0
   39.1280   27.6370   42.1630 N   0  0  0  0  0  0  0  0  0  0  0  0
   40.1890   29.2700   43.0980 H   0  0  0  0  0  0  0  0  0  0  0  0
   38.6830   30.9880   42.3160 H   0  0  0  0  0  0  0  0  0  0  0  0
   37.7800   25.9520   41.0260 C   0  0  2  0  0  3  0  0  0  0  0  0
   36.7180   25.8350   39.9260 C   0  0  0  0  0  3  0  0  0  0  0  0
   35.8520   26.4410   40.2400 H   0  0  0  0  0  0  0  0  0  0  0  0
   36.4420   24.3340   40.0860 C   0  0  0  0  0  3  0  0  0  0  0  0
   35.5320   24.0260   39.5750 H   0  0  0  0  0  0  0  0  0  0  0  0
   36.4920   24.0780   41.4370 O   0  0  0  0  0  0  0  0  0  0  0  0
   37.1470   25.1080   42.0850 C   0  0  0  0  0  3  0  0  0  0  0  0
   36.4010   25.6400   42.7000 H   0  0  0  0  0  0  0  0  0  0  0  0
  1  4  1  0  0  0  0
  1 22  1  0  0  0  0
  2  1  1  0  0  0  0
  3  1  1  0  0  0  0
  4 12  1  0  0  0  0
  5  6  1  0  0  0  0
  5  4  2  0  0  0  0
  6 10  1  0  0  0  0
  7  6  1  0  0  0  0
  7  9  1  0  0  0  0
  8  7  2  0  0  0  0
  9 14  1  0  0  0  0
  9 10  1  0  0  0  0
 10 15  1  1  0  0  0
 10 11  1  0  0  0  0
 12 17  1  0  0  0  0
 12 11  1  0  0  0  0
 13  9  1  0  0  0  0
 16 12  1  0  0  0  0
 18 19  2  0  0  0  0
 18  5  1  0  0  0  0
 20 18  1  0  0  0  0
 21 20  1  0  0  0  0
 22 25  1  0  0  0  0
 23 29  1  0  0  0  0
 24 30  1  0  0  0  0
 24 23  2  0  0  0  0
 25 24  1  0  0  0  0
 26 25  2  0  0  0  0
 26 27  1  0  0  0  0
 27 28  2  0  0  0  0
 28 23  1  0  0  0  0
 31 27  1  1  0  0  0
 31 37  1  0  0  0  0
 32 34  1  0  0  0  0
 32 33  1  0  0  0  0
 32 31  1  0  0  0  0
 34 36  1  0  0  0  0
 35 34  1  0  0  0  0
 36 37  1  0  0  0  0
 37 38  1  0  0  0  0
M  END
>  <minimizedAffinity>
-5.45277834

$$$$
