
 OpenBabel03252501453D

 22 23  0  0  1  0  0  0  0  0999 V2000
   44.3950   35.6950   43.7180 C   0  0  0  0  0  0  0  0  0  0  0  0
   44.1990   34.9100   42.5850 C   0  0  0  0  0  0  0  0  0  0  0  0
   44.6310   33.5960   42.6170 C   0  0  0  0  0  0  0  0  0  0  0  0
   45.2340   33.1130   43.7530 N   0  0  0  0  0  0  0  0  0  0  0  0
   45.4070   33.9090   44.8360 C   0  0  0  0  0  0  0  0  0  0  0  0
   44.9880   35.1860   44.8090 N   0  0  0  0  0  0  0  0  0  0  0  0
   44.0550   36.7210   43.6880 H   0  0  0  0  0  0  0  0  0  0  0  0
   44.4970   32.9620   41.7640 H   0  0  0  0  0  0  0  0  0  0  0  0
   46.0450   33.4400   46.0720 C   0  0  2  0  0  3  0  0  0  0  0  0
   46.4690   31.9940   45.8390 C   0  0  0  0  0  3  0  0  0  0  0  0
   46.0890   31.5840   44.8950 H   0  0  0  0  0  0  0  0  0  0  0  0
   45.8310   31.2940   47.0190 C   0  0  0  0  0  3  0  0  0  0  0  0
   46.6090   30.5920   47.4100 H   0  0  0  0  0  0  0  0  0  0  0  0
   45.5340   32.2820   47.9670 O   0  0  0  0  0  0  0  0  0  0  0  0
   45.1250   33.4070   47.2600 C   0  0  0  0  0  3  0  0  0  0  0  0
   45.2430   34.2780   47.9430 H   0  0  0  0  0  0  0  0  0  0  0  0
   43.5620   35.4270   41.3900 C   0  0  0  0  0  3  0  0  0  0  0  0
   42.9060   34.7320   40.4850 C   0  0  0  0  0  3  0  0  0  0  0  0
   42.2800   35.3600   39.2780 C   0  0  0  0  0  0  0  0  0  0  0  0
   42.2460   34.5420   38.5090 H   0  0  0  0  0  0  0  0  0  0  0  0
   41.2850   35.7710   39.4890 H   0  0  0  0  0  0  0  0  0  0  0  0
   42.9720   36.1340   38.8450 H   0  0  0  0  0  0  0  0  0  0  0  0
  1  6  1  0  0  0  0
  2  3  1  0  0  0  0
  2  1  2  0  0  0  0
  3  4  2  0  0  0  0
  4  5  1  0  0  0  0
  6  5  2  0  0  0  0
  7  1  1  0  0  0  0
  8  3  1  0  0  0  0
  9  5  1  6  0  0  0
  9 15  1  0  0  0  0
 10  9  1  0  0  0  0
 10 12  1  0  0  0  0
 11 10  1  0  0  0  0
 12 13  1  0  0  0  0
 12 14  1  0  0  0  0
 15 16  1  0  0  0  0
 15 14  1  0  0  0  0
 17  2  1  0  0  0  0
 18 17  2  0  0  0  0
 19 21  1  0  0  0  0
 19 18  1  0  0  0  0
 20 19  1  0  0  0  0
 22 19  1  0  0  0  0
M  END
>  <minimizedAffinity>
-4.12528324

>  <minimizedRMSD>
0.827604294

$$$$
