
 OpenBabel03252500143D

 37 40  0  0  1  0  0  0  0  0999 V2000
   45.4970   32.3220   40.5630 Cl  0  0  0  0  0  0  0  0  0  0  0  0
   46.7850   33.4300   40.2010 C   0  0  0  0  0  0  0  0  0  0  0  0
   47.3710   34.1820   41.1850 C   0  0  0  0  0  0  0  0  0  0  0  0
   48.4030   35.0770   40.9240 C   0  0  0  0  0  0  0  0  0  0  0  0
   48.8050   35.1650   39.6140 C   0  0  0  0  0  0  0  0  0  0  0  0
   48.2230   34.4110   38.6100 C   0  0  0  0  0  0  0  0  0  0  0  0
   47.2250   33.5530   38.8960 C   0  0  0  0  0  0  0  0  0  0  0  0
   48.8610   35.6650   41.6910 H   0  0  0  0  0  0  0  0  0  0  0  0
   49.6050   35.8540   39.4010 H   0  0  0  0  0  0  0  0  0  0  0  0
   48.5550   34.4950   37.5870 H   0  0  0  0  0  0  0  0  0  0  0  0
   46.9040   32.9090   44.6150 C   0  0  0  0  0  0  0  0  0  0  0  0
   45.9630   33.8190   45.1590 C   0  0  0  0  0  0  0  0  0  0  0  0
   45.5090   34.8500   44.3350 C   0  0  0  0  0  0  0  0  0  0  0  0
   45.9960   34.9210   43.0600 N   0  0  0  0  0  0  0  0  0  0  0  0
   46.8910   34.0400   42.5710 C   0  0  0  0  0  0  0  0  0  0  0  0
   47.3310   33.0530   43.3490 N   0  0  0  0  0  0  0  0  0  0  0  0
   47.2370   32.1200   45.2830 H   0  0  0  0  0  0  0  0  0  0  0  0
   45.5620   33.7910   46.1530 H   0  0  0  0  0  0  0  0  0  0  0  0
   44.5170   35.8710   44.7930 C   0  0  0  0  0  0  0  0  0  0  0  0
   44.9740   37.1290   44.5640 F   0  0  0  0  0  0  0  0  0  0  0  0
   43.3410   35.6780   44.0940 F   0  0  0  0  0  0  0  0  0  0  0  0
   44.3050   35.6420   46.1290 F   0  0  0  0  0  0  0  0  0  0  0  0
   46.5930   32.7470   37.8550 C   0  0  0  0  0  0  0  0  0  0  0  0
   45.6040   33.2300   36.9870 C   0  0  0  0  0  0  0  0  0  0  0  0
   45.2360   32.2010   36.1360 C   0  0  0  0  0  0  0  0  0  0  0  0
   46.0350   31.1420   36.5450 C   0  0  0  0  0  0  0  0  0  0  0  0
   46.8170   31.4810   37.5480 O   0  0  0  0  0  0  0  0  0  0  0  0
   45.2020   34.2360   36.9870 H   0  0  0  0  0  0  0  0  0  0  0  0
   44.5210   32.1960   35.3520 H   0  0  0  0  0  0  0  0  0  0  0  0
   46.0440   29.7920   35.9660 C   0  0  1  0  0  3  0  0  0  0  0  0
   47.4600   29.2780   35.6740 C   0  0  0  0  0  3  0  0  0  0  0  0
   48.0950   29.3610   36.5660 H   0  0  0  0  0  0  0  0  0  0  0  0
   47.1010   27.7970   35.5010 C   0  0  0  0  0  3  0  0  0  0  0  0
   47.9880   27.1460   35.5330 H   0  0  0  0  0  0  0  0  0  0  0  0
   46.1510   27.5260   36.4660 O   0  0  0  0  0  0  0  0  0  0  0  0
   45.5780   28.7070   36.8900 C   0  0  0  0  0  3  0  0  0  0  0  0
   45.9890   28.9200   37.9000 H   0  0  0  0  0  0  0  0  0  0  0  0
  2  1  1  0  0  0  0
  2  3  1  0  0  0  0
  3 15  1  0  0  0  0
  4  3  2  0  0  0  0
  4  8  1  0  0  0  0
  5  4  1  0  0  0  0
  6  7  1  0  0  0  0
  6  5  2  0  0  0  0
  7  2  2  0  0  0  0
  9  5  1  0  0  0  0
 10  6  1  0  0  0  0
 11 12  1  0  0  0  0
 11 17  1  0  0  0  0
 12 18  1  0  0  0  0
 13 19  1  0  0  0  0
 13 12  2  0  0  0  0
 14 13  1  0  0  0  0
 15 14  2  0  0  0  0
 15 16  1  0  0  0  0
 16 11  2  0  0  0  0
 19 22  1  0  0  0  0
 20 19  1  0  0  0  0
 21 19  1  0  0  0  0
 23  7  1  0  0  0  0
 24 28  1  0  0  0  0
 24 23  2  0  0  0  0
 25 26  2  0  0  0  0
 25 24  1  0  0  0  0
 26 27  1  0  0  0  0
 27 23  1  0  0  0  0
 29 25  1  0  0  0  0
 30 26  1  1  0  0  0
 30 36  1  0  0  0  0
 31 30  1  0  0  0  0
 31 32  1  0  0  0  0
 33 34  1  0  0  0  0
 33 31  1  0  0  0  0
 33 35  1  0  0  0  0
 35 36  1  0  0  0  0
 36 37  1  0  0  0  0
M  END
>  <minimizedAffinity>
-5.52010298

>  <minimizedRMSD>
0.0318701528

$$$$
