
 OpenBabel03252507083D

 23 24  0  0  1  0  0  0  0  0999 V2000
   44.6470   35.9280   44.6070 C   0  0  0  0  0  0  0  0  0  0  0  0
   45.2860   35.9810   43.3430 C   0  0  0  0  0  0  0  0  0  0  0  0
   46.1100   34.9250   42.9770 C   0  0  0  0  0  0  0  0  0  0  0  0
   46.2610   33.8910   43.8570 N   0  0  0  0  0  0  0  0  0  0  0  0
   45.6460   33.8640   45.0470 C   0  0  0  0  0  0  0  0  0  0  0  0
   44.8360   34.8840   45.4260 N   0  0  0  0  0  0  0  0  0  0  0  0
   44.0270   36.8060   44.7870 H   0  0  0  0  0  0  0  0  0  0  0  0
   45.1550   36.8080   42.6570 H   0  0  0  0  0  0  0  0  0  0  0  0
   45.8070   32.7520   45.9960 C   0  0  1  0  0  3  0  0  0  0  0  0
   46.1280   31.4330   45.2790 C   0  0  0  0  0  3  0  0  0  0  0  0
   45.1810   31.0380   44.8550 H   0  0  0  0  0  0  0  0  0  0  0  0
   46.5870   30.6610   46.5010 C   0  0  0  0  0  3  0  0  0  0  0  0
   47.1690   29.7620   46.2620 H   0  0  0  0  0  0  0  0  0  0  0  0
   47.2130   31.5620   47.3400 O   0  0  0  0  0  0  0  0  0  0  0  0
   46.9970   32.8400   46.8890 C   0  0  0  0  0  3  0  0  0  0  0  0
   47.9130   33.1310   46.2980 H   0  0  0  0  0  0  0  0  0  0  0  0
   46.7250   34.9880   41.7450 O   0  0  0  0  0  0  0  0  0  0  0  0
   48.6360   33.3380   40.9600 O   0  0  0  0  0  0  0  0  0  0  0  0
   48.4140   34.7000   41.6280 P   0  0  0  0  0  0  0  0  0  0  0  0
   49.1350   35.9390   40.7870 O   0  0  0  0  0  0  0  0  0  0  0  0
   49.9620   36.2330   41.2690 H   0  0  0  0  0  0  0  0  0  0  0  0
   49.0150   34.5810   43.2180 O   0  0  0  0  0  0  0  0  0  0  0  0
   48.8960   33.6540   43.5010 H   0  0  0  0  0  0  0  0  0  0  0  0
  1  7  1  0  0  0  0
  1  6  1  0  0  0  0
  2  1  2  0  0  0  0
  3  2  1  0  0  0  0
  3  4  2  0  0  0  0
  4  5  1  0  0  0  0
  5  6  2  0  0  0  0
  8  2  1  0  0  0  0
  9  5  1  6  0  0  0
  9 15  1  0  0  0  0
 10  9  1  0  0  0  0
 10 12  1  0  0  0  0
 11 10  1  0  0  0  0
 12 14  1  0  0  0  0
 13 12  1  0  0  0  0
 15 14  1  0  0  0  0
 16 15  1  0  0  0  0
 17  3  1  0  0  0  0
 18 19  2  0  0  0  0
 19 17  1  0  0  0  0
 19 22  1  0  0  0  0
 20 21  1  0  0  0  0
 20 19  1  0  0  0  0
 22 23  1  0  0  0  0
M  END
>  <minimizedAffinity>
-5.09090376

>  <minimizedRMSD>
0.42937395

$$$$
