
 OpenBabel03252509043D

 47 49  0  0  1  0  0  0  0  0999 V2000
   46.8850   34.3480   43.5200 N   0  0  0  0  0  0  0  0  0  0  0  0
   46.5400   35.0680   42.3560 C   0  0  0  0  0  0  0  0  0  0  0  0
   45.0570   35.0710   42.0260 C   0  0  0  0  0  0  0  0  0  0  0  0
   44.1510   35.0600   43.2300 C   0  0  0  0  0  0  0  0  0  0  0  0
   44.9430   35.1360   44.5220 C   0  0  0  0  0  0  0  0  0  0  0  0
   45.9330   33.9110   44.4150 C   0  0  2  0  0  0  0  0  0  0  0  0
   46.8070   36.1410   42.5320 H   0  0  0  0  0  0  0  0  0  0  0  0
   47.0580   34.7900   41.4290 H   0  0  0  0  0  0  0  0  0  0  0  0
   44.8750   35.9270   41.3610 H   0  0  0  0  0  0  0  0  0  0  0  0
   44.8580   34.1480   41.4350 H   0  0  0  0  0  0  0  0  0  0  0  0
   43.4260   35.8930   43.1450 H   0  0  0  0  0  0  0  0  0  0  0  0
   43.5350   34.1360   43.2940 H   0  0  0  0  0  0  0  0  0  0  0  0
   44.2760   34.9150   45.3630 H   0  0  0  0  0  0  0  0  0  0  0  0
   45.5330   36.0530   44.6000 H   0  0  0  0  0  0  0  0  0  0  0  0
   45.2890   33.0600   44.1130 H   0  0  0  0  0  0  0  0  0  0  0  0
   48.1060   33.5970   43.3980 C   0  0  0  0  0  0  0  0  0  0  0  0
   48.5330   33.4440   44.4200 H   0  0  0  0  0  0  0  0  0  0  0  0
   48.8290   34.1940   42.7950 H   0  0  0  0  0  0  0  0  0  0  0  0
   47.8060   32.2670   42.7820 C   0  0  0  0  0  0  0  0  0  0  0  0
   47.9950   31.4530   43.4780 H   0  0  0  0  0  0  0  0  0  0  0  0
   46.7440   32.2050   42.4760 H   0  0  0  0  0  0  0  0  0  0  0  0
   50.7740   31.7160   40.5320 C   0  0  0  0  0  0  0  0  0  0  0  0
   49.9690   31.8790   41.6830 C   0  0  0  0  0  0  0  0  0  0  0  0
   48.6300   32.0990   41.5550 C   0  0  0  0  0  0  0  0  0  0  0  0
   48.1270   32.1540   40.3130 N   0  0  0  0  0  0  0  0  0  0  0  0
   48.8730   32.0030   39.2190 C   0  0  0  0  0  0  0  0  0  0  0  0
   50.1940   31.7840   39.3100 N   0  0  0  0  0  0  0  0  0  0  0  0
   51.8310   31.5410   40.6170 H   0  0  0  0  0  0  0  0  0  0  0  0
   50.4180   31.8270   42.6760 H   0  0  0  0  0  0  0  0  0  0  0  0
   48.3700   32.0640   38.2640 H   0  0  0  0  0  0  0  0  0  0  0  0
   46.4060   33.8350   45.7050 O   0  0  0  0  0  0  0  0  0  0  0  0
   45.6610   31.2940   45.3940 O   0  0  0  0  0  0  0  0  0  0  0  0
   46.1800   32.3340   46.4080 P   0  0  2  0  0  0  0  0  0  0  0  0
   44.8760   32.5160   47.5110 O   0  0  0  0  0  0  0  0  0  0  0  0
   45.1970   32.9840   48.3260 H   0  0  0  0  0  0  0  0  0  0  0  0
   47.4770   31.7620   47.2630 O   0  0  0  0  0  0  0  0  0  0  0  0
   47.7770   30.4690   46.8870 C   0  0  0  0  0  0  0  0  0  0  0  0
   46.9380   29.9580   46.3560 H   0  0  0  0  0  0  0  0  0  0  0  0
   48.6350   30.4870   46.1880 H   0  0  0  0  0  0  0  0  0  0  0  0
   48.1290   29.5810   48.0540 C   0  0  1  0  0  3  0  0  0  0  0  0
   48.3740   28.1520   47.6160 C   0  0  0  0  0  3  0  0  0  0  0  0
   48.1880   27.4330   48.4340 H   0  0  0  0  0  0  0  0  0  0  0  0
   49.8740   28.1640   47.3250 C   0  0  0  0  0  3  0  0  0  0  0  0
   50.0920   27.7130   46.3260 H   0  0  0  0  0  0  0  0  0  0  0  0
   50.2620   29.5020   47.3770 O   0  0  0  0  0  0  0  0  0  0  0  0
   49.5510   29.9630   48.4870 C   0  0  0  0  0  3  0  0  0  0  0  0
   49.8760   29.3040   49.3390 H   0  0  0  0  0  0  0  0  0  0  0  0
  1  6  1  0  0  0  0
  2  7  1  0  0  0  0
  2  1  1  0  0  0  0
  3  2  1  0  0  0  0
  3  4  1  0  0  0  0
  4 12  1  0  0  0  0
  4  5  1  0  0  0  0
  5 14  1  0  0  0  0
  5 13  1  0  0  0  0
  6 15  1  6  0  0  0
  6  5  1  0  0  0  0
  6 31  1  0  0  0  0
  8  2  1  0  0  0  0
  9  3  1  0  0  0  0
 10  3  1  0  0  0  0
 11  4  1  0  0  0  0
 16  1  1  0  0  0  0
 16 17  1  0  0  0  0
 18 16  1  0  0  0  0
 19 16  1  0  0  0  0
 19 20  1  0  0  0  0
 21 19  1  0  0  0  0
 22 28  1  0  0  0  0
 22 23  1  0  0  0  0
 23 29  1  0  0  0  0
 24 23  2  0  0  0  0
 24 19  1  0  0  0  0
 25 24  1  0  0  0  0
 26 27  1  0  0  0  0
 26 25  2  0  0  0  0
 27 22  2  0  0  0  0
 30 26  1  0  0  0  0
 31 33  1  0  0  0  0
 33 32  2  6  0  0  0
 33 36  1  0  0  0  0
 33 34  1  0  0  0  0
 34 35  1  0  0  0  0
 37 36  1  0  0  0  0
 38 37  1  0  0  0  0
 39 37  1  0  0  0  0
 40 37  1  6  0  0  0
 40 46  1  0  0  0  0
 41 40  1  0  0  0  0
 41 42  1  0  0  0  0
 43 45  1  0  0  0  0
 43 41  1  0  0  0  0
 44 43  1  0  0  0  0
 45 46  1  0  0  0  0
 46 47  1  0  0  0  0
M  END
>  <minimizedAffinity>
-4.26160812

>  <minimizedRMSD>
2.00651574

$$$$
