
 OpenBabel03242510483D

 38 40  0  0  1  0  0  0  0  0999 V2000
   45.7820   34.4530   41.1730 C   0  0  1  0  0  0  0  0  0  0  0  0
   44.5650   34.9980   41.8060 C   0  0  2  0  0  0  0  0  0  0  0  0
   44.8080   35.3650   43.1690 O   0  0  0  0  0  0  0  0  0  0  0  0
   44.9600   34.1500   43.8480 C   0  0  0  0  0  0  0  0  0  0  0  0
   46.2850   33.5130   43.4740 C   0  0  1  0  0  0  0  0  0  0  0  0
   46.8410   34.0800   42.1930 C   0  0  1  0  0  0  0  0  0  0  0  0
   46.2720   35.1970   40.4910 H   0  0  0  0  0  0  0  0  0  0  0  0
   44.2770   35.9860   41.3610 H   0  0  0  0  0  0  0  0  0  0  0  0
   44.1810   33.4000   43.5230 H   0  0  0  0  0  0  0  0  0  0  0  0
   44.8890   34.3190   44.9340 H   0  0  0  0  0  0  0  0  0  0  0  0
   46.2220   32.4080   43.4420 H   0  0  0  0  0  0  0  0  0  0  0  0
   47.5340   34.9220   42.3720 H   0  0  0  0  0  0  0  0  0  0  0  0
   45.4780   33.3480   40.3520 O   0  0  0  0  0  0  0  0  0  0  0  0
   45.5600   32.4950   40.8240 H   0  0  0  0  0  0  0  0  0  0  0  0
   47.1680   33.8430   44.5190 O   0  0  0  0  0  0  0  0  0  0  0  0
   47.6860   34.6380   44.2430 H   0  0  0  0  0  0  0  0  0  0  0  0
   43.4340   34.1380   41.8260 O   0  0  0  0  0  0  0  0  0  0  0  0
   40.7640   34.3320   39.4430 C   0  0  0  0  0  0  0  0  0  0  0  0
   40.0280   35.4510   39.8590 C   0  0  0  0  0  0  0  0  0  0  0  0
   40.4750   36.1460   40.9870 C   0  0  0  0  0  0  0  0  0  0  0  0
   41.5930   35.7020   41.6170 N   0  0  0  0  0  0  0  0  0  0  0  0
   42.2790   34.6370   41.2090 C   0  0  0  0  0  0  0  0  0  0  0  0
   41.8720   33.9400   40.1160 N   0  0  0  0  0  0  0  0  0  0  0  0
   39.1420   35.7550   39.3120 H   0  0  0  0  0  0  0  0  0  0  0  0
   39.9340   37.0030   41.3270 H   0  0  0  0  0  0  0  0  0  0  0  0
   40.2750   33.5900   38.2340 C   0  0  0  0  0  0  0  0  0  0  0  0
   41.2600   32.8250   37.6870 F   0  0  0  0  0  0  0  0  0  0  0  0
   39.1680   32.8420   38.6050 F   0  0  0  0  0  0  0  0  0  0  0  0
   39.7790   34.5240   37.2990 F   0  0  0  0  0  0  0  0  0  0  0  0
   47.6430   33.0720   41.6190 O   0  0  0  0  0  0  0  0  0  0  0  0
   48.7390   33.5910   40.9690 C   0  0  2  0  0  0  0  0  0  0  0  0
   49.7690   32.4840   40.8480 C   0  0  0  0  0  0  0  0  0  0  0  0
   49.3660   31.5490   40.4330 H   0  0  0  0  0  0  0  0  0  0  0  0
   50.1420   32.3730   42.3220 C   0  0  0  0  0  0  0  0  0  0  0  0
   51.0350   31.7710   42.4820 H   0  0  0  0  0  0  0  0  0  0  0  0
   50.3460   33.6970   42.6730 O   0  0  0  0  0  0  0  0  0  0  0  0
   49.4720   34.4870   41.9530 C   0  0  0  0  0  0  0  0  0  0  0  0
   50.1000   35.2250   41.3710 H   0  0  0  0  0  0  0  0  0  0  0  0
  1  7  1  6  0  0  0
  1  2  1  0  0  0  0
  1  6  1  0  0  0  0
  2  8  1  6  0  0  0
  2 17  1  0  0  0  0
  2  3  1  0  0  0  0
  3  4  1  0  0  0  0
  4 10  1  0  0  0  0
  5 11  1  6  0  0  0
  5  4  1  0  0  0  0
  5 15  1  0  0  0  0
  6 12  1  1  0  0  0
  6  5  1  0  0  0  0
  9  4  1  0  0  0  0
 13 14  1  0  0  0  0
 13  1  1  0  0  0  0
 16 15  1  0  0  0  0
 18 19  2  0  0  0  0
 18 23  1  0  0  0  0
 19 20  1  0  0  0  0
 20 25  1  0  0  0  0
 20 21  2  0  0  0  0
 22 21  1  0  0  0  0
 22 17  1  0  0  0  0
 23 22  2  0  0  0  0
 24 19  1  0  0  0  0
 26 28  1  0  0  0  0
 26 18  1  0  0  0  0
 27 26  1  0  0  0  0
 29 26  1  0  0  0  0
 30  6  1  0  0  0  0
 31 30  1  1  0  0  0
 31 37  1  0  0  0  0
 32 31  1  0  0  0  0
 32 34  1  0  0  0  0
 33 32  1  0  0  0  0
 34 35  1  0  0  0  0
 34 36  1  0  0  0  0
 37 36  1  0  0  0  0
 38 37  1  0  0  0  0
M  END
>  <minimizedAffinity>
-5.70532465

>  <minimizedRMSD>
7.15601635

$$$$
