
 OpenBabel03252507123D

 23 24  0  0  1  0  0  0  0  0999 V2000
   37.6420   26.6200   42.2770 C   0  0  0  0  0  0  0  0  0  0  0  0
   37.2760   27.9870   42.2080 C   0  0  0  0  0  0  0  0  0  0  0  0
   38.1730   29.0080   42.6610 C   0  0  0  0  0  0  0  0  0  0  0  0
   39.3650   28.6090   43.1580 N   0  0  0  0  0  0  0  0  0  0  0  0
   39.6740   27.3080   43.2140 C   0  0  0  0  0  0  0  0  0  0  0  0
   38.8440   26.3350   42.7880 N   0  0  0  0  0  0  0  0  0  0  0  0
   37.6550   29.9360   42.4900 H   0  0  0  0  0  0  0  0  0  0  0  0
   40.6860   27.2670   43.6590 H   0  0  0  0  0  0  0  0  0  0  0  0
   37.1460   25.2670   41.9160 C   0  0  2  0  0  3  0  0  0  0  0  0
   38.1670   24.1960   41.9160 C   0  0  0  0  0  3  0  0  0  0  0  0
   37.6920   23.2130   42.0850 H   0  0  0  0  0  0  0  0  0  0  0  0
   38.7200   24.2310   40.4850 C   0  0  0  0  0  3  0  0  0  0  0  0
   38.5900   23.2430   39.9790 H   0  0  0  0  0  0  0  0  0  0  0  0
   37.9620   25.1770   39.7960 O   0  0  0  0  0  0  0  0  0  0  0  0
   36.7200   25.1940   40.4120 C   0  0  0  0  0  3  0  0  0  0  0  0
   36.2210   24.2390   40.2700 H   0  0  0  0  0  0  0  0  0  0  0  0
   35.9930   28.1800   41.6810 O   0  0  0  0  0  0  0  0  0  0  0  0
   36.6740   29.4810   39.4760 O   0  0  0  0  0  0  0  0  0  0  0  0
   35.6760   29.4700   40.5930 P   0  0  0  0  0  0  0  0  0  0  0  0
   34.1490   29.3020   39.9190 O   0  0  0  0  0  0  0  0  0  0  0  0
   33.6500   30.1400   39.7990 H   0  0  0  0  0  0  0  0  0  0  0  0
   35.6610   30.9710   41.3590 O   0  0  0  0  0  0  0  0  0  0  0  0
   36.6150   31.2200   41.5060 H   0  0  0  0  0  0  0  0  0  0  0  0
  1  6  1  0  0  0  0
  2  1  2  0  0  0  0
  2  3  1  0  0  0  0
  3  4  2  0  0  0  0
  4  5  1  0  0  0  0
  5  8  1  0  0  0  0
  6  5  2  0  0  0  0
  7  3  1  0  0  0  0
  9  1  1  6  0  0  0
 10  9  1  0  0  0  0
 10 11  1  0  0  0  0
 12 10  1  0  0  0  0
 13 12  1  0  0  0  0
 14 15  1  0  0  0  0
 14 12  1  0  0  0  0
 15  9  1  0  0  0  0
 16 15  1  0  0  0  0
 17  2  1  0  0  0  0
 18 19  2  0  0  0  0
 19 22  1  0  0  0  0
 19 17  1  0  0  0  0
 20 19  1  0  0  0  0
 21 20  1  0  0  0  0
 22 23  1  0  0  0  0
M  END
>  <minimizedAffinity>
-4.89439583

$$$$

 OpenBabel03252507123D

 23 24  0  0  1  0  0  0  0  0999 V2000
   39.2720   28.6500   41.4400 C   0  0  0  0  0  0  0  0  0  0  0  0
   39.0860   29.7350   40.5490 C   0  0  0  0  0  0  0  0  0  0  0  0
   39.6080   29.6840   39.2150 C   0  0  0  0  0  0  0  0  0  0  0  0
   40.2830   28.5690   38.8570 N   0  0  0  0  0  0  0  0  0  0  0  0
   40.4460   27.5670   39.7290 C   0  0  0  0  0  0  0  0  0  0  0  0
   39.9580   27.5970   40.9850 N   0  0  0  0  0  0  0  0  0  0  0  0
   39.3210   30.6180   38.7630 H   0  0  0  0  0  0  0  0  0  0  0  0
   41.0280   26.7980   39.1850 H   0  0  0  0  0  0  0  0  0  0  0  0
   38.9140   28.2000   42.8100 C   0  0  2  0  0  3  0  0  0  0  0  0
   38.4960   26.7850   42.9240 C   0  0  0  0  0  3  0  0  0  0  0  0
   38.6780   26.4120   43.9480 H   0  0  0  0  0  0  0  0  0  0  0  0
   36.9810   26.8410   42.6870 C   0  0  0  0  0  3  0  0  0  0  0  0
   36.4210   26.4230   43.5590 H   0  0  0  0  0  0  0  0  0  0  0  0
   36.6530   28.1910   42.5670 O   0  0  0  0  0  0  0  0  0  0  0  0
   37.5980   28.8810   43.3120 C   0  0  0  0  0  3  0  0  0  0  0  0
   37.4940   28.6340   44.3650 H   0  0  0  0  0  0  0  0  0  0  0  0
   38.3780   30.7970   41.1250 O   0  0  0  0  0  0  0  0  0  0  0  0
   36.6630   30.6990   39.1090 O   0  0  0  0  0  0  0  0  0  0  0  0
   36.9030   31.3440   40.4390 P   0  0  0  0  0  0  0  0  0  0  0  0
   35.6140   30.9560   41.4400 O   0  0  0  0  0  0  0  0  0  0  0  0
   34.9110   31.6390   41.5010 H   0  0  0  0  0  0  0  0  0  0  0  0
   36.8490   33.0200   40.2760 O   0  0  0  0  0  0  0  0  0  0  0  0
   37.4000   33.2430   39.4750 H   0  0  0  0  0  0  0  0  0  0  0  0
  2 17  1  0  0  0  0
  2  1  2  0  0  0  0
  3  2  1  0  0  0  0
  4  3  2  0  0  0  0
  4  5  1  0  0  0  0
  5  6  2  0  0  0  0
  6  1  1  0  0  0  0
  7  3  1  0  0  0  0
  8  5  1  0  0  0  0
  9  1  1  6  0  0  0
  9 10  1  0  0  0  0
  9 15  1  0  0  0  0
 10 11  1  0  0  0  0
 12 10  1  0  0  0  0
 12 13  1  0  0  0  0
 14 12  1  0  0  0  0
 14 15  1  0  0  0  0
 15 16  1  0  0  0  0
 18 19  2  0  0  0  0
 19 17  1  0  0  0  0
 19 20  1  0  0  0  0
 20 21  1  0  0  0  0
 22 19  1  0  0  0  0
 23 22  1  0  0  0  0
M  END
>  <minimizedAffinity>
-4.83256578

$$$$

 OpenBabel03252507123D

 23 24  0  0  1  0  0  0  0  0999 V2000
   37.2290   26.5170   41.2490 C   0  0  0  0  0  0  0  0  0  0  0  0
   36.6110   27.2870   40.2340 C   0  0  0  0  0  0  0  0  0  0  0  0
   36.7540   26.9280   38.8530 C   0  0  0  0  0  0  0  0  0  0  0  0
   37.5040   25.8400   38.5710 N   0  0  0  0  0  0  0  0  0  0  0  0
   38.0790   25.1400   39.5560 C   0  0  0  0  0  0  0  0  0  0  0  0
   37.9510   25.4610   40.8590 N   0  0  0  0  0  0  0  0  0  0  0  0
   36.1870   27.6640   38.3100 H   0  0  0  0  0  0  0  0  0  0  0  0
   38.6260   24.3210   39.0520 H   0  0  0  0  0  0  0  0  0  0  0  0
   37.3440   26.4250   42.7270 C   0  0  2  0  0  3  0  0  0  0  0  0
   36.5590   27.4220   43.4870 C   0  0  0  0  0  3  0  0  0  0  0  0
   36.3320   27.0420   44.4990 H   0  0  0  0  0  0  0  0  0  0  0  0
   37.5220   28.6100   43.6170 C   0  0  0  0  0  3  0  0  0  0  0  0
   37.7050   28.8650   44.6900 H   0  0  0  0  0  0  0  0  0  0  0  0
   38.7290   28.1980   43.0550 O   0  0  0  0  0  0  0  0  0  0  0  0
   38.7760   26.8210   43.2170 C   0  0  0  0  0  3  0  0  0  0  0  0
   38.8300   26.5730   44.2740 H   0  0  0  0  0  0  0  0  0  0  0  0
   35.8990   28.3820   40.7390 O   0  0  0  0  0  0  0  0  0  0  0  0
   36.0920   30.3510   38.9780 O   0  0  0  0  0  0  0  0  0  0  0  0
   36.3990   29.9890   40.3980 P   0  0  0  0  0  0  0  0  0  0  0  0
   35.5950   31.0730   41.3930 O   0  0  0  0  0  0  0  0  0  0  0  0
   36.1370   31.8260   41.7170 H   0  0  0  0  0  0  0  0  0  0  0  0
   38.0370   30.2330   40.7070 O   0  0  0  0  0  0  0  0  0  0  0  0
   38.5310   29.8290   39.9400 H   0  0  0  0  0  0  0  0  0  0  0  0
  2 17  1  0  0  0  0
  2  1  2  0  0  0  0
  3  2  1  0  0  0  0
  4  3  2  0  0  0  0
  4  5  1  0  0  0  0
  5  6  2  0  0  0  0
  6  1  1  0  0  0  0
  7  3  1  0  0  0  0
  8  5  1  0  0  0  0
  9  1  1  6  0  0  0
  9 15  1  0  0  0  0
  9 10  1  0  0  0  0
 10 12  1  0  0  0  0
 10 11  1  0  0  0  0
 12 13  1  0  0  0  0
 14 15  1  0  0  0  0
 14 12  1  0  0  0  0
 15 16  1  0  0  0  0
 18 19  2  0  0  0  0
 19 22  1  0  0  0  0
 19 17  1  0  0  0  0
 19 20  1  0  0  0  0
 20 21  1  0  0  0  0
 23 22  1  0  0  0  0
M  END
>  <minimizedAffinity>
-4.67289114

$$$$

 OpenBabel03252507123D

 23 24  0  0  1  0  0  0  0  0999 V2000
   39.0170   28.4800   42.9410 C   0  0  0  0  0  0  0  0  0  0  0  0
   38.6930   29.7710   42.4570 C   0  0  0  0  0  0  0  0  0  0  0  0
   39.7260   30.7100   42.1310 C   0  0  0  0  0  0  0  0  0  0  0  0
   41.0050   30.3120   42.3130 N   0  0  0  0  0  0  0  0  0  0  0  0
   41.2720   29.0870   42.7800 C   0  0  0  0  0  0  0  0  0  0  0  0
   40.3140   28.1900   43.0870 N   0  0  0  0  0  0  0  0  0  0  0  0
   39.2100   31.5890   41.7860 H   0  0  0  0  0  0  0  0  0  0  0  0
   42.3760   29.0300   42.8350 H   0  0  0  0  0  0  0  0  0  0  0  0
   38.3810   27.1990   43.3450 C   0  0  2  0  0  3  0  0  0  0  0  0
   39.0770   25.9750   42.8920 C   0  0  0  0  0  3  0  0  0  0  0  0
   38.8390   25.1280   43.5610 H   0  0  0  0  0  0  0  0  0  0  0  0
   38.4560   25.6990   41.5160 C   0  0  0  0  0  3  0  0  0  0  0  0
   37.9830   24.6870   41.4840 H   0  0  0  0  0  0  0  0  0  0  0  0
   37.4550   26.6530   41.3410 O   0  0  0  0  0  0  0  0  0  0  0  0
   37.0140   26.9830   42.6150 C   0  0  0  0  0  3  0  0  0  0  0  0
   36.5390   26.1230   43.0780 H   0  0  0  0  0  0  0  0  0  0  0  0
   37.3130   29.9860   42.3610 O   0  0  0  0  0  0  0  0  0  0  0  0
   37.3280   29.8560   39.7150 O   0  0  0  0  0  0  0  0  0  0  0  0
   36.5990   30.4630   40.8740 P   0  0  0  0  0  0  0  0  0  0  0  0
   35.0030   29.9520   40.8040 O   0  0  0  0  0  0  0  0  0  0  0  0
   34.3780   30.5850   40.3860 H   0  0  0  0  0  0  0  0  0  0  0  0
   36.5380   32.1370   40.6960 O   0  0  0  0  0  0  0  0  0  0  0  0
   37.4580   32.4260   40.4420 H   0  0  0  0  0  0  0  0  0  0  0  0
  1  6  1  0  0  0  0
  2  1  2  0  0  0  0
  3  4  2  0  0  0  0
  3  2  1  0  0  0  0
  4  5  1  0  0  0  0
  5  8  1  0  0  0  0
  5  6  2  0  0  0  0
  7  3  1  0  0  0  0
  9  1  1  6  0  0  0
 10  9  1  0  0  0  0
 10 11  1  0  0  0  0
 12 10  1  0  0  0  0
 13 12  1  0  0  0  0
 14 12  1  0  0  0  0
 14 15  1  0  0  0  0
 15 16  1  0  0  0  0
 15  9  1  0  0  0  0
 17  2  1  0  0  0  0
 18 19  2  0  0  0  0
 19 17  1  0  0  0  0
 20 19  1  0  0  0  0
 21 20  1  0  0  0  0
 22 19  1  0  0  0  0
 23 22  1  0  0  0  0
M  END
>  <minimizedAffinity>
-4.63358307

$$$$

 OpenBabel03252507123D

 23 24  0  0  1  0  0  0  0  0999 V2000
   37.2970   30.3050   40.9950 C   0  0  0  0  0  0  0  0  0  0  0  0
   38.6370   30.7640   40.9550 C   0  0  0  0  0  0  0  0  0  0  0  0
   39.5690   30.3870   41.9770 C   0  0  0  0  0  0  0  0  0  0  0  0
   39.1110   29.5910   42.9690 N   0  0  0  0  0  0  0  0  0  0  0  0
   37.8370   29.1840   42.9770 C   0  0  0  0  0  0  0  0  0  0  0  0
   36.9490   29.5250   42.0230 N   0  0  0  0  0  0  0  0  0  0  0  0
   40.4960   30.8590   41.7010 H   0  0  0  0  0  0  0  0  0  0  0  0
   37.7350   28.5620   43.8870 H   0  0  0  0  0  0  0  0  0  0  0  0
   36.0330   30.3490   40.2150 C   0  0  2  0  0  3  0  0  0  0  0  0
   35.1770   29.1470   40.3270 C   0  0  0  0  0  3  0  0  0  0  0  0
   34.1230   29.4060   40.1180 H   0  0  0  0  0  0  0  0  0  0  0  0
   35.6890   28.2390   39.2000 C   0  0  0  0  0  3  0  0  0  0  0  0
   34.8690   27.9860   38.4840 H   0  0  0  0  0  0  0  0  0  0  0  0
   36.6550   28.9730   38.5150 O   0  0  0  0  0  0  0  0  0  0  0  0
   36.3080   30.3070   38.6750 C   0  0  0  0  0  3  0  0  0  0  0  0
   35.3620   30.5070   38.1790 H   0  0  0  0  0  0  0  0  0  0  0  0
   38.8970   31.5910   39.8560 O   0  0  0  0  0  0  0  0  0  0  0  0
   37.3120   33.6760   39.4610 O   0  0  0  0  0  0  0  0  0  0  0  0
   38.6690   33.2890   39.9610 P   0  0  0  0  0  0  0  0  0  0  0  0
   38.7950   33.7970   41.5550 O   0  0  0  0  0  0  0  0  0  0  0  0
   39.2530   34.6560   41.6870 H   0  0  0  0  0  0  0  0  0  0  0  0
   39.8520   34.1520   39.1270 O   0  0  0  0  0  0  0  0  0  0  0  0
   39.6100   34.0960   38.1600 H   0  0  0  0  0  0  0  0  0  0  0  0
  1  6  1  0  0  0  0
  2  1  2  0  0  0  0
  2  3  1  0  0  0  0
  3  4  2  0  0  0  0
  4  5  1  0  0  0  0
  5  8  1  0  0  0  0
  6  5  2  0  0  0  0
  7  3  1  0  0  0  0
  9 10  1  0  0  0  0
  9  1  1  1  0  0  0
 11 10  1  0  0  0  0
 12 10  1  0  0  0  0
 13 12  1  0  0  0  0
 14 15  1  0  0  0  0
 14 12  1  0  0  0  0
 15  9  1  0  0  0  0
 16 15  1  0  0  0  0
 17 19  1  0  0  0  0
 17  2  1  0  0  0  0
 18 19  2  0  0  0  0
 19 20  1  0  0  0  0
 20 21  1  0  0  0  0
 22 19  1  0  0  0  0
 23 22  1  0  0  0  0
M  END
>  <minimizedAffinity>
-4.61213303

$$$$

 OpenBabel03252507123D

 23 24  0  0  1  0  0  0  0  0999 V2000
   37.2480   28.0670   40.9960 C   0  0  0  0  0  0  0  0  0  0  0  0
   37.9460   29.1590   41.5680 C   0  0  0  0  0  0  0  0  0  0  0  0
   38.3110   29.1480   42.9540 C   0  0  0  0  0  0  0  0  0  0  0  0
   37.9550   28.0650   43.6790 N   0  0  0  0  0  0  0  0  0  0  0  0
   37.2890   27.0550   43.1070 C   0  0  0  0  0  0  0  0  0  0  0  0
   36.9420   27.0480   41.8040 N   0  0  0  0  0  0  0  0  0  0  0  0
   38.8280   30.0780   43.1170 H   0  0  0  0  0  0  0  0  0  0  0  0
   37.1250   26.3180   43.9150 H   0  0  0  0  0  0  0  0  0  0  0  0
   36.7190   27.5820   39.6950 C   0  0  2  0  0  3  0  0  0  0  0  0
   36.6420   26.1120   39.5500 C   0  0  0  0  0  3  0  0  0  0  0  0
   35.8700   25.8390   38.8080 H   0  0  0  0  0  0  0  0  0  0  0  0
   38.0180   25.7370   38.9830 C   0  0  0  0  0  3  0  0  0  0  0  0
   37.9180   25.2090   38.0020 H   0  0  0  0  0  0  0  0  0  0  0  0
   38.6910   26.9370   38.7650 O   0  0  0  0  0  0  0  0  0  0  0  0
   37.7100   27.8880   38.5230 C   0  0  0  0  0  3  0  0  0  0  0  0
   37.1890   27.6570   37.5980 H   0  0  0  0  0  0  0  0  0  0  0  0
   38.1980   30.1850   40.6490 O   0  0  0  0  0  0  0  0  0  0  0  0
   36.5690   31.3230   38.8980 O   0  0  0  0  0  0  0  0  0  0  0  0
   37.0150   31.3860   40.3260 P   0  0  0  0  0  0  0  0  0  0  0  0
   35.6680   31.1540   41.2980 O   0  0  0  0  0  0  0  0  0  0  0  0
   35.2510   31.9750   41.6400 H   0  0  0  0  0  0  0  0  0  0  0  0
   37.5580   32.9400   40.6850 O   0  0  0  0  0  0  0  0  0  0  0  0
   38.1560   33.2090   39.9330 H   0  0  0  0  0  0  0  0  0  0  0  0
  1  2  2  0  0  0  0
  1  6  1  0  0  0  0
  2  3  1  0  0  0  0
  3  7  1  0  0  0  0
  3  4  2  0  0  0  0
  5  4  1  0  0  0  0
  5  8  1  0  0  0  0
  6  5  2  0  0  0  0
  9  1  1  1  0  0  0
 10  9  1  0  0  0  0
 11 10  1  0  0  0  0
 12 10  1  0  0  0  0
 13 12  1  0  0  0  0
 14 12  1  0  0  0  0
 15 14  1  0  0  0  0
 15  9  1  0  0  0  0
 16 15  1  0  0  0  0
 17  2  1  0  0  0  0
 18 19  2  0  0  0  0
 19 17  1  0  0  0  0
 19 22  1  0  0  0  0
 19 20  1  0  0  0  0
 20 21  1  0  0  0  0
 23 22  1  0  0  0  0
M  END
>  <minimizedAffinity>
-4.54010487

$$$$

 OpenBabel03252507123D

 23 24  0  0  1  0  0  0  0  0999 V2000
   36.9350   29.5440   41.1960 C   0  0  0  0  0  0  0  0  0  0  0  0
   37.3600   30.2850   40.0650 C   0  0  0  0  0  0  0  0  0  0  0  0
   36.6040   30.2590   38.8480 C   0  0  0  0  0  0  0  0  0  0  0  0
   35.4870   29.4990   38.8290 N   0  0  0  0  0  0  0  0  0  0  0  0
   35.1200   28.8070   39.9140 C   0  0  0  0  0  0  0  0  0  0  0  0
   35.8170   28.8240   41.0680 N   0  0  0  0  0  0  0  0  0  0  0  0
   37.1380   30.9020   38.1700 H   0  0  0  0  0  0  0  0  0  0  0  0
   34.1910   28.2800   39.6240 H   0  0  0  0  0  0  0  0  0  0  0  0
   37.2920   29.2870   42.6150 C   0  0  2  0  0  3  0  0  0  0  0  0
   38.7050   29.5480   42.9700 C   0  0  0  0  0  3  0  0  0  0  0  0
   38.7940   29.7700   44.0490 H   0  0  0  0  0  0  0  0  0  0  0  0
   39.3970   28.2080   42.6890 C   0  0  0  0  0  3  0  0  0  0  0  0
   39.8940   27.8110   43.6070 H   0  0  0  0  0  0  0  0  0  0  0  0
   38.3900   27.3170   42.3190 O   0  0  0  0  0  0  0  0  0  0  0  0
   37.2370   27.7600   42.9520 C   0  0  0  0  0  3  0  0  0  0  0  0
   37.3470   27.6690   44.0290 H   0  0  0  0  0  0  0  0  0  0  0  0
   38.5510   30.9860   40.2910 O   0  0  0  0  0  0  0  0  0  0  0  0
   39.6790   33.3050   40.9000 O   0  0  0  0  0  0  0  0  0  0  0  0
   38.6360   32.6800   40.0250 P   0  0  0  0  0  0  0  0  0  0  0  0
   39.0420   33.0000   38.4290 O   0  0  0  0  0  0  0  0  0  0  0  0
   38.5810   33.7680   38.0250 H   0  0  0  0  0  0  0  0  0  0  0  0
   37.1550   33.4460   40.2680 O   0  0  0  0  0  0  0  0  0  0  0  0
   37.0380   33.5240   41.2560 H   0  0  0  0  0  0  0  0  0  0  0  0
  2 17  1  0  0  0  0
  2  1  2  0  0  0  0
  3  2  1  0  0  0  0
  4  3  2  0  0  0  0
  4  5  1  0  0  0  0
  5  6  2  0  0  0  0
  6  1  1  0  0  0  0
  7  3  1  0  0  0  0
  8  5  1  0  0  0  0
  9  1  1  6  0  0  0
  9 15  1  0  0  0  0
  9 10  1  0  0  0  0
 10 11  1  0  0  0  0
 12 10  1  0  0  0  0
 12 13  1  0  0  0  0
 14 12  1  0  0  0  0
 14 15  1  0  0  0  0
 15 16  1  0  0  0  0
 19 22  1  0  0  0  0
 19 17  1  0  0  0  0
 19 18  2  0  0  0  0
 20 19  1  0  0  0  0
 21 20  1  0  0  0  0
 22 23  1  0  0  0  0
M  END
>  <minimizedAffinity>
-4.51738548

$$$$

 OpenBabel03252507123D

 23 24  0  0  1  0  0  0  0  0999 V2000
   38.8030   29.3200   42.0390 C   0  0  0  0  0  0  0  0  0  0  0  0
   39.4520   29.8350   40.8900 C   0  0  0  0  0  0  0  0  0  0  0  0
   40.8700   29.7010   40.7310 C   0  0  0  0  0  0  0  0  0  0  0  0
   41.5480   29.0780   41.7200 N   0  0  0  0  0  0  0  0  0  0  0  0
   40.9020   28.6120   42.7940 C   0  0  0  0  0  0  0  0  0  0  0  0
   39.5690   28.7250   42.9580 N   0  0  0  0  0  0  0  0  0  0  0  0
   41.0930   30.1640   39.7850 H   0  0  0  0  0  0  0  0  0  0  0  0
   41.6850   28.1620   43.4350 H   0  0  0  0  0  0  0  0  0  0  0  0
   37.4490   29.1530   42.6280 C   0  0  2  0  0  3  0  0  0  0  0  0
   37.3180   28.0560   43.6130 C   0  0  0  0  0  3  0  0  0  0  0  0
   36.4810   28.2610   44.3060 H   0  0  0  0  0  0  0  0  0  0  0  0
   36.9490   26.8430   42.7490 C   0  0  0  0  0  3  0  0  0  0  0  0
   35.9720   26.4030   43.0680 H   0  0  0  0  0  0  0  0  0  0  0  0
   36.8070   27.3200   41.4460 O   0  0  0  0  0  0  0  0  0  0  0  0
   36.4190   28.6460   41.5650 C   0  0  0  0  0  3  0  0  0  0  0  0
   35.4350   28.7070   42.0220 H   0  0  0  0  0  0  0  0  0  0  0  0
   38.5700   30.4590   40.0000 O   0  0  0  0  0  0  0  0  0  0  0  0
   39.0430   32.7700   41.2040 O   0  0  0  0  0  0  0  0  0  0  0  0
   38.1620   32.1160   40.1850 P   0  0  0  0  0  0  0  0  0  0  0  0
   38.3590   32.9320   38.7330 O   0  0  0  0  0  0  0  0  0  0  0  0
   37.6780   33.6120   38.5380 H   0  0  0  0  0  0  0  0  0  0  0  0
   36.5450   32.3390   40.6030 O   0  0  0  0  0  0  0  0  0  0  0  0
   36.4740   32.1280   41.5760 H   0  0  0  0  0  0  0  0  0  0  0  0
  1  6  1  0  0  0  0
  2  1  2  0  0  0  0
  3  2  1  0  0  0  0
  3  4  2  0  0  0  0
  4  5  1  0  0  0  0
  5  6  2  0  0  0  0
  5  8  1  0  0  0  0
  7  3  1  0  0  0  0
  9  1  1  6  0  0  0
  9 10  1  0  0  0  0
 10 11  1  0  0  0  0
 12 13  1  0  0  0  0
 12 10  1  0  0  0  0
 14 15  1  0  0  0  0
 14 12  1  0  0  0  0
 15 16  1  0  0  0  0
 15  9  1  0  0  0  0
 17 19  1  0  0  0  0
 17  2  1  0  0  0  0
 19 22  1  0  0  0  0
 19 18  2  0  0  0  0
 20 19  1  0  0  0  0
 21 20  1  0  0  0  0
 22 23  1  0  0  0  0
M  END
>  <minimizedAffinity>
-4.45808697

$$$$

 OpenBabel03252507123D

 23 24  0  0  1  0  0  0  0  0999 V2000
   38.5560   28.2990   41.0020 C   0  0  0  0  0  0  0  0  0  0  0  0
   38.2700   29.3930   41.8550 C   0  0  0  0  0  0  0  0  0  0  0  0
   37.9580   29.1800   43.2380 C   0  0  0  0  0  0  0  0  0  0  0  0
   37.9430   27.9030   43.6800 N   0  0  0  0  0  0  0  0  0  0  0  0
   38.2110   26.8940   42.8430 C   0  0  0  0  0  0  0  0  0  0  0  0
   38.5110   27.0770   41.5420 N   0  0  0  0  0  0  0  0  0  0  0  0
   37.7940   30.1630   43.6450 H   0  0  0  0  0  0  0  0  0  0  0  0
   38.1250   25.9760   43.4550 H   0  0  0  0  0  0  0  0  0  0  0  0
   38.9660   27.9920   39.6070 C   0  0  2  0  0  3  0  0  0  0  0  0
   39.8580   26.8220   39.4520 C   0  0  0  0  0  3  0  0  0  0  0  0
   39.7590   26.3960   38.4370 H   0  0  0  0  0  0  0  0  0  0  0  0
   41.2630   27.4230   39.5940 C   0  0  0  0  0  3  0  0  0  0  0  0
   41.8800   27.2240   38.6830 H   0  0  0  0  0  0  0  0  0  0  0  0
   41.0890   28.8010   39.7090 O   0  0  0  0  0  0  0  0  0  0  0  0
   39.9140   29.0960   39.0320 C   0  0  0  0  0  3  0  0  0  0  0  0
   40.0340   28.8900   37.9720 H   0  0  0  0  0  0  0  0  0  0  0  0
   38.3200   30.6260   41.1940 O   0  0  0  0  0  0  0  0  0  0  0  0
   36.6730   30.7280   39.1220 O   0  0  0  0  0  0  0  0  0  0  0  0
   36.9100   31.3010   40.4850 P   0  0  0  0  0  0  0  0  0  0  0  0
   35.5640   30.9630   41.4280 O   0  0  0  0  0  0  0  0  0  0  0  0
   34.9070   31.6900   41.4960 H   0  0  0  0  0  0  0  0  0  0  0  0
   36.9760   32.9820   40.3920 O   0  0  0  0  0  0  0  0  0  0  0  0
   37.5680   33.1980   39.6190 H   0  0  0  0  0  0  0  0  0  0  0  0
  1  6  2  0  0  0  0
  1  2  1  0  0  0  0
  2  3  2  0  0  0  0
  3  7  1  0  0  0  0
  3  4  1  0  0  0  0
  5  8  1  0  0  0  0
  5  4  2  0  0  0  0
  6  5  1  0  0  0  0
  9  1  1  1  0  0  0
 10 12  1  0  0  0  0
 10  9  1  0  0  0  0
 11 10  1  0  0  0  0
 12 14  1  0  0  0  0
 13 12  1  0  0  0  0
 15  9  1  0  0  0  0
 15 14  1  0  0  0  0
 16 15  1  0  0  0  0
 17  2  1  0  0  0  0
 18 19  2  0  0  0  0
 19 17  1  0  0  0  0
 19 20  1  0  0  0  0
 20 21  1  0  0  0  0
 22 19  1  0  0  0  0
 23 22  1  0  0  0  0
M  END
>  <minimizedAffinity>
-4.43751144

$$$$
