
 OpenBabel03252505303D

 26 27  0  0  1  0  0  0  0  0999 V2000
   46.9420   31.9370   48.2870 O   0  0  0  0  0  0  0  0  0  0  0  0
   45.8870   32.3160   47.2400 P   0  0  1  0  0  0  0  0  0  0  0  0
   44.6790   33.2660   47.9100 O   0  0  0  0  0  0  0  0  0  0  0  0
   44.9990   33.8350   48.6630 H   0  0  0  0  0  0  0  0  0  0  0  0
   46.6860   33.1400   46.0000 O   0  0  0  0  0  0  0  0  0  0  0  0
   44.4990   35.6230   44.7430 C   0  0  0  0  0  0  0  0  0  0  0  0
   44.9040   35.8220   43.4090 C   0  0  0  0  0  0  0  0  0  0  0  0
   45.9990   35.0330   42.9590 C   0  0  0  0  0  0  0  0  0  0  0  0
   46.5640   34.1540   43.8460 N   0  0  0  0  0  0  0  0  0  0  0  0
   46.1280   34.0170   45.1020 C   0  0  0  0  0  0  0  0  0  0  0  0
   45.1030   34.7440   45.5520 N   0  0  0  0  0  0  0  0  0  0  0  0
   43.6590   36.2130   45.1270 H   0  0  0  0  0  0  0  0  0  0  0  0
   44.4380   36.5160   42.7480 H   0  0  0  0  0  0  0  0  0  0  0  0
   46.3770   35.1180   41.9530 H   0  0  0  0  0  0  0  0  0  0  0  0
   45.1990   30.8740   46.7250 O   0  0  0  0  0  0  0  0  0  0  0  0
   45.5380   29.8740   47.5870 C   0  0  0  0  0  0  0  0  0  0  0  0
   46.5480   29.9120   47.9930 H   0  0  0  0  0  0  0  0  0  0  0  0
   44.8490   29.9550   48.4690 H   0  0  0  0  0  0  0  0  0  0  0  0
   45.3180   28.4880   47.0360 C   0  0  2  0  0  3  0  0  0  0  0  0
   44.0830   28.3850   46.1610 C   0  0  0  0  0  3  0  0  0  0  0  0
   44.3600   28.6460   45.1320 H   0  0  0  0  0  0  0  0  0  0  0  0
   43.7980   26.8870   46.3260 C   0  0  0  0  0  3  0  0  0  0  0  0
   42.7700   26.6200   46.0230 H   0  0  0  0  0  0  0  0  0  0  0  0
   43.9890   26.6860   47.6690 O   0  0  0  0  0  0  0  0  0  0  0  0
   44.9550   27.5390   48.1450 C   0  0  0  0  0  3  0  0  0  0  0  0
   44.5930   28.0910   49.0600 H   0  0  0  0  0  0  0  0  0  0  0  0
  2  3  1  0  0  0  0
  2  1  2  1  0  0  0
  3  4  1  0  0  0  0
  5  2  1  0  0  0  0
  6 12  1  0  0  0  0
  6 11  1  0  0  0  0
  7  6  2  0  0  0  0
  8  7  1  0  0  0  0
  8  9  2  0  0  0  0
  9 10  1  0  0  0  0
 10 11  2  0  0  0  0
 10  5  1  0  0  0  0
 13  7  1  0  0  0  0
 14  8  1  0  0  0  0
 15  2  1  0  0  0  0
 15 16  1  0  0  0  0
 16 17  1  0  0  0  0
 16 18  1  0  0  0  0
 19 16  1  1  0  0  0
 19 25  1  0  0  0  0
 20 22  1  0  0  0  0
 20 19  1  0  0  0  0
 21 20  1  0  0  0  0
 22 24  1  0  0  0  0
 23 22  1  0  0  0  0
 24 25  1  0  0  0  0
 25 26  1  0  0  0  0
M  END
>  <minimizedAffinity>
-4.41838741

>  <minimizedRMSD>
0.96979785

$$$$
