
 OpenBabel03252505313D

 26 27  0  0  1  0  0  0  0  0999 V2000
   46.7350   31.6540   48.6850 O   0  0  0  0  0  0  0  0  0  0  0  0
   45.8000   32.0130   47.5230 P   0  0  1  0  0  0  0  0  0  0  0  0
   44.4080   32.7690   48.0730 O   0  0  0  0  0  0  0  0  0  0  0  0
   44.5520   33.2990   48.9040 H   0  0  0  0  0  0  0  0  0  0  0  0
   46.6630   33.0210   46.4790 O   0  0  0  0  0  0  0  0  0  0  0  0
   44.5410   35.4090   44.9520 C   0  0  0  0  0  0  0  0  0  0  0  0
   44.9910   35.4950   43.6200 C   0  0  0  0  0  0  0  0  0  0  0  0
   46.0920   34.6640   43.2720 C   0  0  0  0  0  0  0  0  0  0  0  0
   46.6210   33.8570   44.2460 N   0  0  0  0  0  0  0  0  0  0  0  0
   46.1420   33.8270   45.4940 C   0  0  0  0  0  0  0  0  0  0  0  0
   45.1110   34.5940   45.8500 N   0  0  0  0  0  0  0  0  0  0  0  0
   43.6950   36.0340   45.2590 H   0  0  0  0  0  0  0  0  0  0  0  0
   44.5540   36.1360   42.8900 H   0  0  0  0  0  0  0  0  0  0  0  0
   46.5030   34.6650   42.2760 H   0  0  0  0  0  0  0  0  0  0  0  0
   45.3620   30.5590   46.8080 O   0  0  0  0  0  0  0  0  0  0  0  0
   45.2610   29.5930   47.7650 C   0  0  0  0  0  0  0  0  0  0  0  0
   46.0540   29.5720   48.5110 H   0  0  0  0  0  0  0  0  0  0  0  0
   44.3120   29.7910   48.3310 H   0  0  0  0  0  0  0  0  0  0  0  0
   45.1130   28.1970   47.2140 C   0  0  2  0  0  3  0  0  0  0  0  0
   43.9580   28.0610   46.2390 C   0  0  0  0  0  3  0  0  0  0  0  0
   44.3180   28.3160   45.2350 H   0  0  0  0  0  0  0  0  0  0  0  0
   43.6880   26.5600   46.3990 C   0  0  0  0  0  3  0  0  0  0  0  0
   42.6940   26.2710   46.0120 H   0  0  0  0  0  0  0  0  0  0  0  0
   43.7680   26.3770   47.7550 O   0  0  0  0  0  0  0  0  0  0  0  0
   44.6750   27.2530   48.3010 C   0  0  0  0  0  3  0  0  0  0  0  0
   44.2260   27.8080   49.1740 H   0  0  0  0  0  0  0  0  0  0  0  0
  2  3  1  0  0  0  0
  2  1  2  1  0  0  0
  3  4  1  0  0  0  0
  5  2  1  0  0  0  0
  6 12  1  0  0  0  0
  6 11  1  0  0  0  0
  7  6  2  0  0  0  0
  8  7  1  0  0  0  0
  8  9  2  0  0  0  0
  9 10  1  0  0  0  0
 10 11  2  0  0  0  0
 10  5  1  0  0  0  0
 13  7  1  0  0  0  0
 14  8  1  0  0  0  0
 15  2  1  0  0  0  0
 15 16  1  0  0  0  0
 16 18  1  0  0  0  0
 16 17  1  0  0  0  0
 19 16  1  1  0  0  0
 19 25  1  0  0  0  0
 20 22  1  0  0  0  0
 20 19  1  0  0  0  0
 21 20  1  0  0  0  0
 22 24  1  0  0  0  0
 23 22  1  0  0  0  0
 24 25  1  0  0  0  0
 25 26  1  0  0  0  0
M  END
>  <minimizedAffinity>
-4.43999052

>  <minimizedRMSD>
1.05796874

$$$$
