
 OpenBabel03252508083D

 43 46  0  0  1  0  0  0  0  0999 V2000
   45.1240   35.0900   43.7960 C   0  0  0  0  0  0  0  0  0  0  0  0
   45.6120   33.7950   43.8850 C   0  0  0  0  0  0  0  0  0  0  0  0
   45.5920   33.1340   45.0880 C   0  0  0  0  0  0  0  0  0  0  0  0
   45.0680   33.8180   46.1670 N   0  0  0  0  0  0  0  0  0  0  0  0
   44.6000   35.0610   46.0760 C   0  0  0  0  0  0  0  0  0  0  0  0
   44.6350   35.6850   44.8800 N   0  0  0  0  0  0  0  0  0  0  0  0
   45.1410   35.6100   42.8490 H   0  0  0  0  0  0  0  0  0  0  0  0
   44.2010   35.5490   46.9540 H   0  0  0  0  0  0  0  0  0  0  0  0
   46.0490   31.8210   45.3440 C   0  0  0  0  0  0  0  0  0  0  0  0
   45.7470   30.7180   44.5420 C   0  0  0  0  0  0  0  0  0  0  0  0
   46.1330   29.4320   44.8230 C   0  0  0  0  0  0  0  0  0  0  0  0
   46.8660   29.1740   45.9580 C   0  0  0  0  0  0  0  0  0  0  0  0
   47.1900   30.2860   46.7940 C   0  0  0  0  0  0  0  0  0  0  0  0
   47.9160   30.0400   47.9230 C   0  0  0  0  0  0  0  0  0  0  0  0
   48.2630   31.0710   48.7710 C   0  0  0  0  0  0  0  0  0  0  0  0
   47.8620   32.3830   48.4610 C   0  0  0  0  0  0  0  0  0  0  0  0
   47.1150   32.5810   47.2870 C   0  0  0  0  0  0  0  0  0  0  0  0
   46.7820   31.5380   46.4670 C   0  0  0  0  0  0  0  0  0  0  0  0
   45.1690   30.9010   43.6410 H   0  0  0  0  0  0  0  0  0  0  0  0
   45.8480   28.6350   44.1340 H   0  0  0  0  0  0  0  0  0  0  0  0
   47.1870   28.1740   46.2130 H   0  0  0  0  0  0  0  0  0  0  0  0
   48.2370   29.0200   48.1770 H   0  0  0  0  0  0  0  0  0  0  0  0
   48.8380   30.8180   49.6510 H   0  0  0  0  0  0  0  0  0  0  0  0
   48.1810   33.1050   49.1760 H   0  0  0  0  0  0  0  0  0  0  0  0
   46.9290   33.6320   47.2160 H   0  0  0  0  0  0  0  0  0  0  0  0
   46.0990   33.2310   42.7370 O   0  0  0  0  0  0  0  0  0  0  0  0
   48.6170   32.5710   43.0230 O   0  0  0  0  0  0  0  0  0  0  0  0
   47.6930   33.3850   42.1900 P   0  0  1  0  0  0  0  0  0  0  0  0
   47.8410   32.8230   40.5980 O   0  0  0  0  0  0  0  0  0  0  0  0
   46.5230   32.5000   40.2130 C   0  0  2  0  0  3  0  0  0  0  0  0
   46.3950   31.0080   39.9630 C   0  0  0  0  0  3  0  0  0  0  0  0
   47.3840   30.5060   39.8330 H   0  0  0  0  0  0  0  0  0  0  0  0
   45.6250   30.9970   38.6480 C   0  0  0  0  0  3  0  0  0  0  0  0
   44.5600   31.0920   38.9320 H   0  0  0  0  0  0  0  0  0  0  0  0
   46.1400   32.1070   37.9990 O   0  0  0  0  0  0  0  0  0  0  0  0
   46.0990   33.1330   38.9330 C   0  0  0  0  0  3  0  0  0  0  0  0
   45.0070   33.4000   39.0400 H   0  0  0  0  0  0  0  0  0  0  0  0
   48.1080   35.0110   42.2290 O   0  0  0  0  0  0  0  0  0  0  0  0
   49.3620   35.5530   41.9990 C   0  0  0  0  0  0  0  0  0  0  0  0
   49.2220   36.2500   40.9760 O   0  0  0  0  0  0  0  0  0  0  0  0
   50.3030   35.1120   42.9970 N   0  0  0  0  0  0  0  0  0  0  0  0
   50.1450   35.4610   43.9860 H   0  0  0  0  0  0  0  0  0  0  0  0
   51.1420   34.4790   42.8790 H   0  0  0  0  0  0  0  0  0  0  0  0
  1  2  2  0  0  0  0
  1  6  1  0  0  0  0
  2  3  1  0  0  0  0
  3  9  1  0  0  0  0
  3  4  2  0  0  0  0
  5  4  1  0  0  0  0
  5  8  1  0  0  0  0
  6  5  2  0  0  0  0
  7  1  1  0  0  0  0
  9 18  1  0  0  0  0
 10 11  1  0  0  0  0
 10  9  2  0  0  0  0
 11 12  2  0  0  0  0
 12 21  1  0  0  0  0
 12 13  1  0  0  0  0
 13 14  1  0  0  0  0
 14 22  1  0  0  0  0
 14 15  2  0  0  0  0
 15 23  1  0  0  0  0
 16 15  1  0  0  0  0
 16 24  1  0  0  0  0
 17 16  2  0  0  0  0
 18 13  2  0  0  0  0
 18 17  1  0  0  0  0
 19 10  1  0  0  0  0
 20 11  1  0  0  0  0
 25 17  1  0  0  0  0
 26  2  1  0  0  0  0
 28 38  1  0  0  0  0
 28 26  1  0  0  0  0
 28 27  2  1  0  0  0
 29 28  1  0  0  0  0
 30 29  1  6  0  0  0
 31 30  1  0  0  0  0
 32 31  1  0  0  0  0
 33 34  1  0  0  0  0
 33 31  1  0  0  0  0
 35 33  1  0  0  0  0
 35 36  1  0  0  0  0
 36 37  1  0  0  0  0
 36 30  1  0  0  0  0
 39 38  1  0  0  0  0
 39 41  1  0  0  0  0
 40 39  2  0  0  0  0
 41 42  1  0  0  0  0
 43 41  1  0  0  0  0
M  END
>  <minimizedAffinity>
-5.68409252

>  <minimizedRMSD>
1.60928679

$$$$
