
 OpenBabel03252505313D

 26 27  0  0  1  0  0  0  0  0999 V2000
   46.8270   31.6660   48.5470 O   0  0  0  0  0  0  0  0  0  0  0  0
   45.8600   32.0190   47.4100 P   0  0  1  0  0  0  0  0  0  0  0  0
   44.5040   32.8170   47.9910 O   0  0  0  0  0  0  0  0  0  0  0  0
   44.6890   33.3620   48.8030 H   0  0  0  0  0  0  0  0  0  0  0  0
   46.7070   32.9850   46.3130 O   0  0  0  0  0  0  0  0  0  0  0  0
   44.5460   35.4360   44.9520 C   0  0  0  0  0  0  0  0  0  0  0  0
   44.9800   35.6050   43.6230 C   0  0  0  0  0  0  0  0  0  0  0  0
   46.0850   34.8070   43.2150 C   0  0  0  0  0  0  0  0  0  0  0  0
   46.6320   33.9490   44.1340 N   0  0  0  0  0  0  0  0  0  0  0  0
   46.1680   33.8410   45.3830 C   0  0  0  0  0  0  0  0  0  0  0  0
   45.1330   34.5760   45.7940 N   0  0  0  0  0  0  0  0  0  0  0  0
   43.6970   36.0340   45.3030 H   0  0  0  0  0  0  0  0  0  0  0  0
   44.5290   36.2830   42.9360 H   0  0  0  0  0  0  0  0  0  0  0  0
   46.4850   34.8700   42.2160 H   0  0  0  0  0  0  0  0  0  0  0  0
   45.3670   30.5580   46.7450 O   0  0  0  0  0  0  0  0  0  0  0  0
   45.1090   29.6670   47.7440 C   0  0  0  0  0  0  0  0  0  0  0  0
   45.6710   29.8030   48.6670 H   0  0  0  0  0  0  0  0  0  0  0  0
   44.0280   29.7910   48.0220 H   0  0  0  0  0  0  0  0  0  0  0  0
   45.2510   28.2240   47.3300 C   0  0  2  0  0  3  0  0  0  0  0  0
   44.6830   27.2530   48.3480 C   0  0  0  0  0  3  0  0  0  0  0  0
   43.6160   27.1100   48.1370 H   0  0  0  0  0  0  0  0  0  0  0  0
   45.5210   26.0180   47.9910 C   0  0  0  0  0  3  0  0  0  0  0  0
   45.5050   25.2570   48.7910 H   0  0  0  0  0  0  0  0  0  0  0  0
   46.7770   26.5390   47.8220 O   0  0  0  0  0  0  0  0  0  0  0  0
   46.7000   27.8210   47.3340 C   0  0  0  0  0  3  0  0  0  0  0  0
   47.3220   28.5290   47.9530 H   0  0  0  0  0  0  0  0  0  0  0  0
  2  3  1  0  0  0  0
  2  1  2  1  0  0  0
  3  4  1  0  0  0  0
  5  2  1  0  0  0  0
  6 12  1  0  0  0  0
  6 11  1  0  0  0  0
  7  6  2  0  0  0  0
  8  7  1  0  0  0  0
  8  9  2  0  0  0  0
  9 10  1  0  0  0  0
 10 11  2  0  0  0  0
 10  5  1  0  0  0  0
 13  7  1  0  0  0  0
 14  8  1  0  0  0  0
 15  2  1  0  0  0  0
 15 16  1  0  0  0  0
 16 18  1  0  0  0  0
 16 17  1  0  0  0  0
 19 25  1  0  0  0  0
 19 16  1  1  0  0  0
 19 20  1  0  0  0  0
 21 20  1  0  0  0  0
 22 20  1  0  0  0  0
 22 23  1  0  0  0  0
 24 22  1  0  0  0  0
 25 24  1  0  0  0  0
 25 26  1  0  0  0  0
M  END
>  <minimizedAffinity>
-4.43278837

>  <minimizedRMSD>
0.929186165

$$$$
