
 OpenBabel03252505583D

 35 37  0  0  1  0  0  0  0  0999 V2000
   44.8630   35.0680   44.8810 C   0  0  0  0  0  0  0  0  0  0  0  0
   45.4150   34.5580   43.6860 C   0  0  0  0  0  0  0  0  0  0  0  0
   46.1790   33.4030   43.7880 C   0  0  0  0  0  0  0  0  0  0  0  0
   46.3470   32.8460   45.0070 N   0  0  0  0  0  0  0  0  0  0  0  0
   45.8080   33.3560   46.1150 C   0  0  0  0  0  0  0  0  0  0  0  0
   45.0710   34.4590   46.0580 N   0  0  0  0  0  0  0  0  0  0  0  0
   44.2640   35.9670   44.8110 H   0  0  0  0  0  0  0  0  0  0  0  0
   46.8310   32.7090   42.6950 C   0  0  2  0  0  3  0  0  0  0  0  0
   47.2940   31.3470   43.2450 C   0  0  0  0  0  3  0  0  0  0  0  0
   46.7730   30.5000   42.7600 H   0  0  0  0  0  0  0  0  0  0  0  0
   48.7580   31.2520   42.9630 C   0  0  0  0  0  3  0  0  0  0  0  0
   49.3200   30.6690   43.7130 H   0  0  0  0  0  0  0  0  0  0  0  0
   49.1390   32.5860   43.1150 O   0  0  0  0  0  0  0  0  0  0  0  0
   48.1980   33.3010   42.3760 C   0  0  0  0  0  3  0  0  0  0  0  0
   48.3960   33.1220   41.3010 H   0  0  0  0  0  0  0  0  0  0  0  0
   45.1620   35.2560   42.4070 C   0  0  0  0  0  0  0  0  0  0  0  0
   44.4070   36.3710   42.7720 F   0  0  0  0  0  0  0  0  0  0  0  0
   44.3220   34.4300   41.6590 F   0  0  0  0  0  0  0  0  0  0  0  0
   46.2950   35.6080   41.8130 F   0  0  0  0  0  0  0  0  0  0  0  0
   45.9840   32.7770   47.3700 O   0  0  0  0  0  0  0  0  0  0  0  0
   45.4990   31.4750   47.6320 C   0  0  0  0  0  0  0  0  0  0  0  0
   44.9670   31.5190   48.6120 H   0  0  0  0  0  0  0  0  0  0  0  0
   44.7640   31.1210   46.8880 H   0  0  0  0  0  0  0  0  0  0  0  0
   46.6680   30.5930   47.7970 C   0  0  0  0  0  0  0  0  0  0  0  0
   46.8900   29.3070   47.3230 C   0  0  0  0  0  0  0  0  0  0  0  0
   48.0740   28.7120   47.6270 C   0  0  0  0  0  0  0  0  0  0  0  0
   49.0120   29.3170   48.3530 N   0  0  0  0  0  0  0  0  0  0  0  0
   48.7920   30.5580   48.8060 C   0  0  0  0  0  0  0  0  0  0  0  0
   47.6200   31.2100   48.5350 N   0  0  0  0  0  0  0  0  0  0  0  0
   46.0680   28.9350   46.7590 H   0  0  0  0  0  0  0  0  0  0  0  0
   48.1820   27.7060   47.2240 H   0  0  0  0  0  0  0  0  0  0  0  0
   49.8920   31.1450   49.6020 C   0  0  0  0  0  0  0  0  0  0  0  0
   49.8920   32.5230   49.5260 F   0  0  0  0  0  0  0  0  0  0  0  0
   51.1240   30.6800   49.1370 F   0  0  0  0  0  0  0  0  0  0  0  0
   49.8130   30.8030   50.9370 F   0  0  0  0  0  0  0  0  0  0  0  0
  1  6  1  0  0  0  0
  2  3  1  0  0  0  0
  2  1  2  0  0  0  0
  3  4  2  0  0  0  0
  4  5  1  0  0  0  0
  5 20  1  0  0  0  0
  6  5  2  0  0  0  0
  7  1  1  0  0  0  0
  8  9  1  0  0  0  0
  8  3  1  1  0  0  0
 10  9  1  0  0  0  0
 11 13  1  0  0  0  0
 11  9  1  0  0  0  0
 11 12  1  0  0  0  0
 14  8  1  0  0  0  0
 14 13  1  0  0  0  0
 15 14  1  0  0  0  0
 16 17  1  0  0  0  0
 16  2  1  0  0  0  0
 18 16  1  0  0  0  0
 19 16  1  0  0  0  0
 20 21  1  0  0  0  0
 21 24  1  0  0  0  0
 21 22  1  0  0  0  0
 23 21  1  0  0  0  0
 24 29  1  0  0  0  0
 25 26  1  0  0  0  0
 25 24  2  0  0  0  0
 26 27  2  0  0  0  0
 27 28  1  0  0  0  0
 28 32  1  0  0  0  0
 29 28  2  0  0  0  0
 30 25  1  0  0  0  0
 31 26  1  0  0  0  0
 32 35  1  0  0  0  0
 33 32  1  0  0  0  0
 34 32  1  0  0  0  0
M  END
>  <minimizedAffinity>
-5.28157473

>  <minimizedRMSD>
1.07828593

$$$$
