
 OpenBabel03252505583D

 35 37  0  0  1  0  0  0  0  0999 V2000
   44.8990   35.1000   45.1790 C   0  0  0  0  0  0  0  0  0  0  0  0
   45.6500   34.7780   44.0290 C   0  0  0  0  0  0  0  0  0  0  0  0
   46.4560   33.6490   44.0980 C   0  0  0  0  0  0  0  0  0  0  0  0
   46.4720   32.9380   45.2460 N   0  0  0  0  0  0  0  0  0  0  0  0
   45.7470   33.2720   46.3140 C   0  0  0  0  0  0  0  0  0  0  0  0
   44.9640   34.3450   46.2860 N   0  0  0  0  0  0  0  0  0  0  0  0
   44.2670   35.9780   45.1340 H   0  0  0  0  0  0  0  0  0  0  0  0
   47.3010   33.1350   43.0380 C   0  0  2  0  0  3  0  0  0  0  0  0
   46.4060   32.2570   42.1430 C   0  0  0  0  0  3  0  0  0  0  0  0
   46.2990   32.6710   41.1220 H   0  0  0  0  0  0  0  0  0  0  0  0
   47.0660   30.9190   42.0660 C   0  0  0  0  0  3  0  0  0  0  0  0
   46.3600   30.0780   41.9580 H   0  0  0  0  0  0  0  0  0  0  0  0
   47.6150   30.8270   43.3450 O   0  0  0  0  0  0  0  0  0  0  0  0
   48.2490   32.0530   43.5380 C   0  0  0  0  0  3  0  0  0  0  0  0
   49.1530   32.0790   42.8970 H   0  0  0  0  0  0  0  0  0  0  0  0
   45.5500   35.6340   42.8270 C   0  0  0  0  0  0  0  0  0  0  0  0
   44.9790   36.8170   43.2980 F   0  0  0  0  0  0  0  0  0  0  0  0
   44.6060   35.0390   41.9880 F   0  0  0  0  0  0  0  0  0  0  0  0
   46.7420   35.8510   42.2840 F   0  0  0  0  0  0  0  0  0  0  0  0
   45.7680   32.5350   47.4950 O   0  0  0  0  0  0  0  0  0  0  0  0
   45.3310   31.1900   47.5080 C   0  0  0  0  0  0  0  0  0  0  0  0
   44.6990   31.0640   48.4200 H   0  0  0  0  0  0  0  0  0  0  0  0
   44.6960   30.9260   46.6450 H   0  0  0  0  0  0  0  0  0  0  0  0
   46.5220   30.3400   47.6680 C   0  0  0  0  0  0  0  0  0  0  0  0
   46.7770   29.0610   47.1900 C   0  0  0  0  0  0  0  0  0  0  0  0
   47.9770   28.4960   47.4900 C   0  0  0  0  0  0  0  0  0  0  0  0
   48.9010   29.1240   48.2150 N   0  0  0  0  0  0  0  0  0  0  0  0
   48.6490   30.3570   48.6720 C   0  0  0  0  0  0  0  0  0  0  0  0
   47.4590   30.9790   48.4050 N   0  0  0  0  0  0  0  0  0  0  0  0
   45.9640   28.6690   46.6270 H   0  0  0  0  0  0  0  0  0  0  0  0
   48.1110   27.4950   47.0840 H   0  0  0  0  0  0  0  0  0  0  0  0
   49.7360   30.9720   49.4670 C   0  0  0  0  0  0  0  0  0  0  0  0
   49.7080   32.3490   49.3820 F   0  0  0  0  0  0  0  0  0  0  0  0
   50.9770   30.5280   49.0070 F   0  0  0  0  0  0  0  0  0  0  0  0
   49.6590   30.6360   50.8040 F   0  0  0  0  0  0  0  0  0  0  0  0
  1  6  1  0  0  0  0
  2  3  1  0  0  0  0
  2  1  2  0  0  0  0
  3  4  2  0  0  0  0
  4  5  1  0  0  0  0
  5 20  1  0  0  0  0
  6  5  2  0  0  0  0
  7  1  1  0  0  0  0
  8 14  1  0  0  0  0
  8  3  1  1  0  0  0
  9  8  1  0  0  0  0
 10  9  1  0  0  0  0
 11  9  1  0  0  0  0
 11 13  1  0  0  0  0
 12 11  1  0  0  0  0
 13 14  1  0  0  0  0
 15 14  1  0  0  0  0
 16 17  1  0  0  0  0
 16  2  1  0  0  0  0
 18 16  1  0  0  0  0
 19 16  1  0  0  0  0
 20 21  1  0  0  0  0
 21 24  1  0  0  0  0
 21 22  1  0  0  0  0
 23 21  1  0  0  0  0
 24 29  1  0  0  0  0
 25 26  1  0  0  0  0
 25 24  2  0  0  0  0
 26 27  2  0  0  0  0
 27 28  1  0  0  0  0
 28 32  1  0  0  0  0
 29 28  2  0  0  0  0
 30 25  1  0  0  0  0
 31 26  1  0  0  0  0
 32 35  1  0  0  0  0
 33 32  1  0  0  0  0
 34 32  1  0  0  0  0
M  END
>  <minimizedAffinity>
-5.48208904

>  <minimizedRMSD>
0.481104761

$$$$
