
 OpenBabel03252502173D

 23 24  0  0  1  0  0  0  0  0999 V2000
   46.3720   35.1900   42.5950 C   0  0  0  0  0  0  0  0  0  0  0  0
   46.8860   34.0910   43.3170 C   0  0  0  0  0  0  0  0  0  0  0  0
   46.3150   33.7960   44.5770 C   0  0  0  0  0  0  0  0  0  0  0  0
   45.3070   34.5750   45.0320 N   0  0  0  0  0  0  0  0  0  0  0  0
   44.8510   35.6210   44.2960 C   0  0  0  0  0  0  0  0  0  0  0  0
   45.3640   35.9390   43.0950 N   0  0  0  0  0  0  0  0  0  0  0  0
   46.7980   35.4230   41.6390 H   0  0  0  0  0  0  0  0  0  0  0  0
   44.0540   36.1900   44.7250 H   0  0  0  0  0  0  0  0  0  0  0  0
   46.8770   32.6310   45.3110 C   0  0  2  0  0  3  0  0  0  0  0  0
   46.0850   31.3660   45.0460 C   0  0  0  0  0  3  0  0  0  0  0  0
   46.3960   30.8370   44.1350 H   0  0  0  0  0  0  0  0  0  0  0  0
   46.3800   30.5940   46.3150 C   0  0  0  0  0  3  0  0  0  0  0  0
   47.3940   30.1780   46.2040 H   0  0  0  0  0  0  0  0  0  0  0  0
   46.2470   31.5620   47.2870 O   0  0  0  0  0  0  0  0  0  0  0  0
   46.7180   32.7510   46.7960 C   0  0  0  0  0  3  0  0  0  0  0  0
   47.7360   32.9210   47.2360 H   0  0  0  0  0  0  0  0  0  0  0  0
   47.9120   33.3840   42.7350 O   0  0  0  0  0  0  0  0  0  0  0  0
   50.4080   33.1800   41.8800 O   0  0  0  0  0  0  0  0  0  0  0  0
   49.3390   34.1670   42.1830 P   0  0  0  0  0  0  0  0  0  0  0  0
   49.0180   35.0370   40.7650 O   0  0  0  0  0  0  0  0  0  0  0  0
   48.8210   34.3500   40.0620 H   0  0  0  0  0  0  0  0  0  0  0  0
   49.9030   35.2410   43.3550 O   0  0  0  0  0  0  0  0  0  0  0  0
   49.1860   35.6330   43.8990 H   0  0  0  0  0  0  0  0  0  0  0  0
  1  6  2  0  0  0  0
  1  2  1  0  0  0  0
  2  3  2  0  0  0  0
  3  4  1  0  0  0  0
  5  8  1  0  0  0  0
  5  4  2  0  0  0  0
  6  5  1  0  0  0  0
  7  1  1  0  0  0  0
  9  3  1  6  0  0  0
  9 15  1  0  0  0  0
 10  9  1  0  0  0  0
 10 12  1  0  0  0  0
 11 10  1  0  0  0  0
 12 14  1  0  0  0  0
 13 12  1  0  0  0  0
 15 16  1  0  0  0  0
 15 14  1  0  0  0  0
 17  2  1  0  0  0  0
 18 19  2  0  0  0  0
 19 17  1  0  0  0  0
 19 22  1  0  0  0  0
 20 19  1  0  0  0  0
 21 20  1  0  0  0  0
 22 23  1  0  0  0  0
M  END
>  <minimizedAffinity>
-5.11155558

>  <minimizedRMSD>
0.1237607

$$$$
