
 OpenBabel03252505583D

 35 37  0  0  1  0  0  0  0  0999 V2000
   44.9140   35.0640   45.2210 C   0  0  0  0  0  0  0  0  0  0  0  0
   45.6340   34.6840   44.0680 C   0  0  0  0  0  0  0  0  0  0  0  0
   46.4000   33.5290   44.1570 C   0  0  0  0  0  0  0  0  0  0  0  0
   46.4100   32.8480   45.3240 N   0  0  0  0  0  0  0  0  0  0  0  0
   45.7150   33.2380   46.3930 C   0  0  0  0  0  0  0  0  0  0  0  0
   44.9710   34.3370   46.3480 N   0  0  0  0  0  0  0  0  0  0  0  0
   44.3140   35.9620   45.1620 H   0  0  0  0  0  0  0  0  0  0  0  0
   47.2080   32.9550   43.0990 C   0  0  2  0  0  3  0  0  0  0  0  0
   46.2790   32.0480   42.2710 C   0  0  0  0  0  3  0  0  0  0  0  0
   46.1470   32.4150   41.2340 H   0  0  0  0  0  0  0  0  0  0  0  0
   46.9200   30.6990   42.2380 C   0  0  0  0  0  3  0  0  0  0  0  0
   46.2020   29.8640   42.1890 H   0  0  0  0  0  0  0  0  0  0  0  0
   47.5050   30.6590   43.5050 O   0  0  0  0  0  0  0  0  0  0  0  0
   48.1580   31.8860   43.6230 C   0  0  0  0  0  3  0  0  0  0  0  0
   49.0430   31.8700   42.9560 H   0  0  0  0  0  0  0  0  0  0  0  0
   45.5450   35.5090   42.8450 C   0  0  0  0  0  0  0  0  0  0  0  0
   44.9300   36.6860   43.2730 F   0  0  0  0  0  0  0  0  0  0  0  0
   44.6410   34.8700   41.9950 F   0  0  0  0  0  0  0  0  0  0  0  0
   46.7450   35.7470   42.3300 F   0  0  0  0  0  0  0  0  0  0  0  0
   45.7290   32.5330   47.5940 O   0  0  0  0  0  0  0  0  0  0  0  0
   45.2850   31.1920   47.6420 C   0  0  0  0  0  0  0  0  0  0  0  0
   44.7090   31.0740   48.5920 H   0  0  0  0  0  0  0  0  0  0  0  0
   44.5960   30.9260   46.8210 H   0  0  0  0  0  0  0  0  0  0  0  0
   46.4780   30.3340   47.7340 C   0  0  0  0  0  0  0  0  0  0  0  0
   46.7280   29.0880   47.1740 C   0  0  0  0  0  0  0  0  0  0  0  0
   47.9320   28.5060   47.4230 C   0  0  0  0  0  0  0  0  0  0  0  0
   48.8640   29.0880   48.1740 N   0  0  0  0  0  0  0  0  0  0  0  0
   48.6170   30.2910   48.7110 C   0  0  0  0  0  0  0  0  0  0  0  0
   47.4240   30.9270   48.4980 N   0  0  0  0  0  0  0  0  0  0  0  0
   45.9080   28.7310   46.5970 H   0  0  0  0  0  0  0  0  0  0  0  0
   48.0610   27.5320   46.9540 H   0  0  0  0  0  0  0  0  0  0  0  0
   49.7130   30.8550   49.5300 C   0  0  0  0  0  0  0  0  0  0  0  0
   49.6950   32.2350   49.5170 F   0  0  0  0  0  0  0  0  0  0  0  0
   50.9490   30.4280   49.0380 F   0  0  0  0  0  0  0  0  0  0  0  0
   49.6440   30.4500   50.8470 F   0  0  0  0  0  0  0  0  0  0  0  0
  1  6  1  0  0  0  0
  2  3  1  0  0  0  0
  2  1  2  0  0  0  0
  3  4  2  0  0  0  0
  4  5  1  0  0  0  0
  5 20  1  0  0  0  0
  6  5  2  0  0  0  0
  7  1  1  0  0  0  0
  8 14  1  0  0  0  0
  8  3  1  1  0  0  0
  9  8  1  0  0  0  0
 10  9  1  0  0  0  0
 11  9  1  0  0  0  0
 11 13  1  0  0  0  0
 12 11  1  0  0  0  0
 13 14  1  0  0  0  0
 15 14  1  0  0  0  0
 16 17  1  0  0  0  0
 16  2  1  0  0  0  0
 18 16  1  0  0  0  0
 19 16  1  0  0  0  0
 20 21  1  0  0  0  0
 21 24  1  0  0  0  0
 21 22  1  0  0  0  0
 23 21  1  0  0  0  0
 24 29  1  0  0  0  0
 25 26  1  0  0  0  0
 25 24  2  0  0  0  0
 26 27  2  0  0  0  0
 27 28  1  0  0  0  0
 28 32  1  0  0  0  0
 29 28  2  0  0  0  0
 30 25  1  0  0  0  0
 31 26  1  0  0  0  0
 32 35  1  0  0  0  0
 33 32  1  0  0  0  0
 34 32  1  0  0  0  0
M  END
>  <minimizedAffinity>
-5.44815254

>  <minimizedRMSD>
0.655694366

$$$$
