
 OpenBabel03252507083D

 23 24  0  0  1  0  0  0  0  0999 V2000
   44.5690   35.7870   44.6440 C   0  0  0  0  0  0  0  0  0  0  0  0
   45.1790   35.8000   43.3650 C   0  0  0  0  0  0  0  0  0  0  0  0
   46.1450   34.8420   43.0860 C   0  0  0  0  0  0  0  0  0  0  0  0
   46.4560   33.9380   44.0620 N   0  0  0  0  0  0  0  0  0  0  0  0
   45.8660   33.9470   45.2650 C   0  0  0  0  0  0  0  0  0  0  0  0
   44.9190   34.8740   45.5590 N   0  0  0  0  0  0  0  0  0  0  0  0
   43.8290   36.5800   44.7500 H   0  0  0  0  0  0  0  0  0  0  0  0
   44.9200   36.5240   42.6020 H   0  0  0  0  0  0  0  0  0  0  0  0
   46.2000   32.9760   46.3160 C   0  0  1  0  0  3  0  0  0  0  0  0
   45.2070   33.0360   47.4850 C   0  0  0  0  0  3  0  0  0  0  0  0
   45.4670   33.9180   48.1080 H   0  0  0  0  0  0  0  0  0  0  0  0
   45.6010   31.7250   48.1360 C   0  0  0  0  0  3  0  0  0  0  0  0
   44.8530   31.3390   48.8420 H   0  0  0  0  0  0  0  0  0  0  0  0
   45.9530   30.8560   47.1210 O   0  0  0  0  0  0  0  0  0  0  0  0
   46.0420   31.5420   45.9360 C   0  0  0  0  0  3  0  0  0  0  0  0
   45.0640   31.3820   45.3990 H   0  0  0  0  0  0  0  0  0  0  0  0
   46.7300   34.8650   41.8380 O   0  0  0  0  0  0  0  0  0  0  0  0
   48.6870   33.2450   41.1050 O   0  0  0  0  0  0  0  0  0  0  0  0
   48.4260   34.6360   41.6940 P   0  0  0  0  0  0  0  0  0  0  0  0
   49.0750   35.8480   40.7610 O   0  0  0  0  0  0  0  0  0  0  0  0
   49.9010   36.2040   41.2030 H   0  0  0  0  0  0  0  0  0  0  0  0
   49.0680   34.6400   43.2720 O   0  0  0  0  0  0  0  0  0  0  0  0
   48.9930   33.7280   43.6150 H   0  0  0  0  0  0  0  0  0  0  0  0
  1  7  1  0  0  0  0
  1  6  1  0  0  0  0
  2  1  2  0  0  0  0
  3  2  1  0  0  0  0
  3  4  2  0  0  0  0
  4  5  1  0  0  0  0
  5  6  2  0  0  0  0
  8  2  1  0  0  0  0
  9  5  1  6  0  0  0
  9 10  1  0  0  0  0
 10 11  1  0  0  0  0
 10 12  1  0  0  0  0
 12 13  1  0  0  0  0
 14 12  1  0  0  0  0
 15  9  1  0  0  0  0
 15 14  1  0  0  0  0
 16 15  1  0  0  0  0
 17  3  1  0  0  0  0
 18 19  2  0  0  0  0
 19 17  1  0  0  0  0
 19 22  1  0  0  0  0
 20 21  1  0  0  0  0
 20 19  1  0  0  0  0
 22 23  1  0  0  0  0
M  END
>  <minimizedAffinity>
-5.36675358

>  <minimizedRMSD>
0.406847894

$$$$
