
 OpenBabel03252505583D

 35 37  0  0  1  0  0  0  0  0999 V2000
   44.8970   35.0850   45.2190 C   0  0  0  0  0  0  0  0  0  0  0  0
   45.6210   34.6990   44.0700 C   0  0  0  0  0  0  0  0  0  0  0  0
   46.3820   33.5420   44.1650 C   0  0  0  0  0  0  0  0  0  0  0  0
   46.3860   32.8650   45.3340 N   0  0  0  0  0  0  0  0  0  0  0  0
   45.6880   33.2610   46.4000 C   0  0  0  0  0  0  0  0  0  0  0  0
   44.9470   34.3620   46.3480 N   0  0  0  0  0  0  0  0  0  0  0  0
   44.3000   35.9850   45.1540 H   0  0  0  0  0  0  0  0  0  0  0  0
   47.1940   32.9630   43.1120 C   0  0  2  0  0  3  0  0  0  0  0  0
   46.2610   32.0670   42.2750 C   0  0  0  0  0  3  0  0  0  0  0  0
   46.1430   32.4390   41.2380 H   0  0  0  0  0  0  0  0  0  0  0  0
   46.8900   30.7110   42.2440 C   0  0  0  0  0  3  0  0  0  0  0  0
   46.1630   29.8850   42.1870 H   0  0  0  0  0  0  0  0  0  0  0  0
   47.4630   30.6640   43.5150 O   0  0  0  0  0  0  0  0  0  0  0  0
   48.1280   31.8820   43.6420 C   0  0  0  0  0  3  0  0  0  0  0  0
   49.0180   31.8590   42.9820 H   0  0  0  0  0  0  0  0  0  0  0  0
   45.5390   35.5220   42.8440 C   0  0  0  0  0  0  0  0  0  0  0  0
   44.9400   36.7080   43.2690 F   0  0  0  0  0  0  0  0  0  0  0  0
   44.6260   34.8910   41.9980 F   0  0  0  0  0  0  0  0  0  0  0  0
   46.7410   35.7420   42.3260 F   0  0  0  0  0  0  0  0  0  0  0  0
   45.6950   32.5590   47.6030 O   0  0  0  0  0  0  0  0  0  0  0  0
   45.2650   31.2130   47.6490 C   0  0  0  0  0  0  0  0  0  0  0  0
   44.6850   31.0900   48.5960 H   0  0  0  0  0  0  0  0  0  0  0  0
   44.5850   30.9390   46.8240 H   0  0  0  0  0  0  0  0  0  0  0  0
   46.4670   30.3680   47.7490 C   0  0  0  0  0  0  0  0  0  0  0  0
   46.7190   29.1070   47.2270 C   0  0  0  0  0  0  0  0  0  0  0  0
   47.9320   28.5440   47.4740 C   0  0  0  0  0  0  0  0  0  0  0  0
   48.8710   29.1590   48.1910 N   0  0  0  0  0  0  0  0  0  0  0  0
   48.6220   30.3760   48.6920 C   0  0  0  0  0  0  0  0  0  0  0  0
   47.4200   30.9950   48.4780 N   0  0  0  0  0  0  0  0  0  0  0  0
   45.8930   28.7240   46.6750 H   0  0  0  0  0  0  0  0  0  0  0  0
   48.0620   27.5560   47.0350 H   0  0  0  0  0  0  0  0  0  0  0  0
   49.7260   30.9760   49.4730 C   0  0  0  0  0  0  0  0  0  0  0  0
   49.7130   32.3540   49.3920 F   0  0  0  0  0  0  0  0  0  0  0  0
   50.9570   30.5200   48.9960 F   0  0  0  0  0  0  0  0  0  0  0  0
   49.6650   30.6380   50.8100 F   0  0  0  0  0  0  0  0  0  0  0  0
  1  6  1  0  0  0  0
  2  3  1  0  0  0  0
  2  1  2  0  0  0  0
  3  4  2  0  0  0  0
  4  5  1  0  0  0  0
  5 20  1  0  0  0  0
  6  5  2  0  0  0  0
  7  1  1  0  0  0  0
  8 14  1  0  0  0  0
  8  3  1  1  0  0  0
  9  8  1  0  0  0  0
 10  9  1  0  0  0  0
 11  9  1  0  0  0  0
 11 13  1  0  0  0  0
 12 11  1  0  0  0  0
 13 14  1  0  0  0  0
 15 14  1  0  0  0  0
 16 17  1  0  0  0  0
 16  2  1  0  0  0  0
 18 16  1  0  0  0  0
 19 16  1  0  0  0  0
 20 21  1  0  0  0  0
 21 24  1  0  0  0  0
 21 22  1  0  0  0  0
 23 21  1  0  0  0  0
 24 29  1  0  0  0  0
 25 26  1  0  0  0  0
 25 24  2  0  0  0  0
 26 27  2  0  0  0  0
 27 28  1  0  0  0  0
 28 32  1  0  0  0  0
 29 28  2  0  0  0  0
 30 25  1  0  0  0  0
 31 26  1  0  0  0  0
 32 35  1  0  0  0  0
 33 32  1  0  0  0  0
 34 32  1  0  0  0  0
M  END
>  <minimizedAffinity>
-5.46482515

>  <minimizedRMSD>
0.804893196

$$$$
