
 OpenBabel03252507083D

 23 24  0  0  1  0  0  0  0  0999 V2000
   44.6140   36.0850   44.5080 C   0  0  0  0  0  0  0  0  0  0  0  0
   45.2670   36.0230   43.2520 C   0  0  0  0  0  0  0  0  0  0  0  0
   46.0590   34.9170   42.9750 C   0  0  0  0  0  0  0  0  0  0  0  0
   46.1670   33.9470   43.9310 N   0  0  0  0  0  0  0  0  0  0  0  0
   45.5400   34.0290   45.1120 C   0  0  0  0  0  0  0  0  0  0  0  0
   44.7610   35.1000   45.4050 N   0  0  0  0  0  0  0  0  0  0  0  0
   44.0220   36.9940   44.6150 H   0  0  0  0  0  0  0  0  0  0  0  0
   45.1700   36.8010   42.5050 H   0  0  0  0  0  0  0  0  0  0  0  0
   45.6560   32.9860   46.1430 C   0  0  1  0  0  3  0  0  0  0  0  0
   47.1150   32.7460   46.5520 C   0  0  0  0  0  3  0  0  0  0  0  0
   47.5920   32.1290   45.7620 H   0  0  0  0  0  0  0  0  0  0  0  0
   46.8310   31.9590   47.8150 C   0  0  0  0  0  3  0  0  0  0  0  0
   47.6870   31.8980   48.5010 H   0  0  0  0  0  0  0  0  0  0  0  0
   45.6720   32.4760   48.3660 O   0  0  0  0  0  0  0  0  0  0  0  0
   45.0830   33.3370   47.4740 C   0  0  0  0  0  3  0  0  0  0  0  0
   45.3970   34.3760   47.7770 H   0  0  0  0  0  0  0  0  0  0  0  0
   46.6880   34.8680   41.7490 O   0  0  0  0  0  0  0  0  0  0  0  0
   48.6650   33.2610   41.0440 O   0  0  0  0  0  0  0  0  0  0  0  0
   48.3870   34.6280   41.6790 P   0  0  0  0  0  0  0  0  0  0  0  0
   49.0920   35.8710   40.8320 O   0  0  0  0  0  0  0  0  0  0  0  0
   49.8980   36.1990   41.3280 H   0  0  0  0  0  0  0  0  0  0  0  0
   48.9500   34.5580   43.2860 O   0  0  0  0  0  0  0  0  0  0  0  0
   48.8510   33.6330   43.5850 H   0  0  0  0  0  0  0  0  0  0  0  0
  1  7  1  0  0  0  0
  1  6  1  0  0  0  0
  2  1  2  0  0  0  0
  3  2  1  0  0  0  0
  3  4  2  0  0  0  0
  4  5  1  0  0  0  0
  5  6  2  0  0  0  0
  8  2  1  0  0  0  0
  9  5  1  6  0  0  0
  9 10  1  0  0  0  0
  9 15  1  0  0  0  0
 10 12  1  0  0  0  0
 11 10  1  0  0  0  0
 12 14  1  0  0  0  0
 12 13  1  0  0  0  0
 15 16  1  0  0  0  0
 15 14  1  0  0  0  0
 17  3  1  0  0  0  0
 18 19  2  0  0  0  0
 19 17  1  0  0  0  0
 19 22  1  0  0  0  0
 20 21  1  0  0  0  0
 20 19  1  0  0  0  0
 22 23  1  0  0  0  0
M  END
>  <minimizedAffinity>
-5.19097424

>  <minimizedRMSD>
0.200040027

$$$$
