
 OpenBabel03252508083D

 43 46  0  0  1  0  0  0  0  0999 V2000
   45.9420   35.1320   42.3740 C   0  0  0  0  0  0  0  0  0  0  0  0
   46.0440   33.7920   42.7180 C   0  0  0  0  0  0  0  0  0  0  0  0
   45.5540   33.3530   43.9220 C   0  0  0  0  0  0  0  0  0  0  0  0
   44.9690   34.2980   44.7410 N   0  0  0  0  0  0  0  0  0  0  0  0
   44.8740   35.5830   44.4070 C   0  0  0  0  0  0  0  0  0  0  0  0
   45.3660   35.9850   43.2160 N   0  0  0  0  0  0  0  0  0  0  0  0
   46.3280   35.4780   41.4260 H   0  0  0  0  0  0  0  0  0  0  0  0
   44.4060   36.2810   45.0870 H   0  0  0  0  0  0  0  0  0  0  0  0
   45.5810   32.0290   44.4190 C   0  0  0  0  0  0  0  0  0  0  0  0
   45.0190   30.9340   43.7560 C   0  0  0  0  0  0  0  0  0  0  0  0
   44.9840   29.6610   44.2640 C   0  0  0  0  0  0  0  0  0  0  0  0
   45.5270   29.4070   45.5030 C   0  0  0  0  0  0  0  0  0  0  0  0
   46.1100   30.5090   46.1990 C   0  0  0  0  0  0  0  0  0  0  0  0
   46.6510   30.2680   47.4280 C   0  0  0  0  0  0  0  0  0  0  0  0
   47.2310   31.2890   48.1520 C   0  0  0  0  0  0  0  0  0  0  0  0
   47.2610   32.5860   47.6090 C   0  0  0  0  0  0  0  0  0  0  0  0
   46.6890   32.7810   46.3400 C   0  0  0  0  0  0  0  0  0  0  0  0
   46.1170   31.7490   45.6480 C   0  0  0  0  0  0  0  0  0  0  0  0
   44.5840   31.1150   42.7770 H   0  0  0  0  0  0  0  0  0  0  0  0
   44.5230   28.8700   43.6700 H   0  0  0  0  0  0  0  0  0  0  0  0
   45.5180   28.4170   45.9360 H   0  0  0  0  0  0  0  0  0  0  0  0
   46.6350   29.2580   47.8640 H   0  0  0  0  0  0  0  0  0  0  0  0
   47.6420   31.0400   49.1200 H   0  0  0  0  0  0  0  0  0  0  0  0
   47.7310   33.3020   48.2440 H   0  0  0  0  0  0  0  0  0  0  0  0
   46.8300   33.8120   46.0960 H   0  0  0  0  0  0  0  0  0  0  0  0
   46.6410   32.9590   41.8120 O   0  0  0  0  0  0  0  0  0  0  0  0
   48.4210   31.1100   42.3340 O   0  0  0  0  0  0  0  0  0  0  0  0
   48.2730   32.5070   41.8490 P   0  0  1  0  0  0  0  0  0  0  0  0
   48.9490   32.5640   40.2960 O   0  0  0  0  0  0  0  0  0  0  0  0
   47.9580   33.1740   39.5000 C   0  0  2  0  0  3  0  0  0  0  0  0
   47.9340   32.5510   38.1150 C   0  0  0  0  0  3  0  0  0  0  0  0
   48.8590   31.9690   37.8880 H   0  0  0  0  0  0  0  0  0  0  0  0
   47.8650   33.7930   37.2360 C   0  0  0  0  0  3  0  0  0  0  0  0
   46.7920   34.0600   37.1910 H   0  0  0  0  0  0  0  0  0  0  0  0
   48.6430   34.6940   37.9440 O   0  0  0  0  0  0  0  0  0  0  0  0
   48.1890   34.6240   39.2560 C   0  0  0  0  0  3  0  0  0  0  0  0
   47.1780   35.1260   39.2530 H   0  0  0  0  0  0  0  0  0  0  0  0
   49.0940   33.5880   42.8360 O   0  0  0  0  0  0  0  0  0  0  0  0
   50.1780   34.3760   42.4820 C   0  0  0  0  0  0  0  0  0  0  0  0
   49.7290   35.5370   42.4530 O   0  0  0  0  0  0  0  0  0  0  0  0
   51.3580   33.5700   42.2920 N   0  0  0  0  0  0  0  0  0  0  0  0
   51.7600   33.1050   43.1560 H   0  0  0  0  0  0  0  0  0  0  0  0
   51.8860   33.3750   41.3970 H   0  0  0  0  0  0  0  0  0  0  0  0
  1  2  2  0  0  0  0
  1  6  1  0  0  0  0
  2  3  1  0  0  0  0
  3  9  1  0  0  0  0
  3  4  2  0  0  0  0
  5  4  1  0  0  0  0
  5  8  1  0  0  0  0
  6  5  2  0  0  0  0
  7  1  1  0  0  0  0
  9 18  1  0  0  0  0
 10 11  1  0  0  0  0
 10  9  2  0  0  0  0
 11 12  2  0  0  0  0
 12 21  1  0  0  0  0
 12 13  1  0  0  0  0
 13 14  1  0  0  0  0
 14 22  1  0  0  0  0
 14 15  2  0  0  0  0
 15 23  1  0  0  0  0
 16 15  1  0  0  0  0
 16 24  1  0  0  0  0
 17 16  2  0  0  0  0
 18 13  2  0  0  0  0
 18 17  1  0  0  0  0
 19 10  1  0  0  0  0
 20 11  1  0  0  0  0
 25 17  1  0  0  0  0
 26 28  1  0  0  0  0
 26  2  1  0  0  0  0
 28 27  2  1  0  0  0
 28 38  1  0  0  0  0
 29 28  1  0  0  0  0
 30 29  1  1  0  0  0
 31 30  1  0  0  0  0
 32 31  1  0  0  0  0
 33 35  1  0  0  0  0
 33 31  1  0  0  0  0
 34 33  1  0  0  0  0
 35 36  1  0  0  0  0
 36 30  1  0  0  0  0
 37 36  1  0  0  0  0
 39 38  1  0  0  0  0
 40 39  2  0  0  0  0
 41 39  1  0  0  0  0
 41 42  1  0  0  0  0
 43 41  1  0  0  0  0
M  END
>  <minimizedAffinity>
-5.72375679

>  <minimizedRMSD>
1.30575705

$$$$
