
 OpenBabel03242518323D

 27 29  0  0  1  0  0  0  0  0999 V2000
   47.3780   33.8740   39.7850 C   0  0  0  0  0  0  0  0  0  0  0  0
   48.3460   34.6460   39.1790 C   0  0  0  0  0  0  0  0  0  0  0  0
   48.3290   34.3940   37.8200 C   0  0  0  0  0  0  0  0  0  0  0  0
   47.3210   33.4540   37.6630 C   0  0  0  0  0  0  0  0  0  0  0  0
   46.7800   33.1640   38.8180 O   0  0  0  0  0  0  0  0  0  0  0  0
   48.9510   35.2970   39.7740 H   0  0  0  0  0  0  0  0  0  0  0  0
   48.9730   34.8530   37.1080 H   0  0  0  0  0  0  0  0  0  0  0  0
   46.9050   32.8560   36.3900 C   0  0  1  0  0  0  0  0  0  0  0  0
   47.2620   31.3630   36.3550 C   0  0  0  0  0  0  0  0  0  0  0  0
   48.3000   31.1780   36.0850 H   0  0  0  0  0  0  0  0  0  0  0  0
   46.2900   30.9460   35.2430 C   0  0  0  0  0  0  0  0  0  0  0  0
   46.7450   31.3860   34.3160 H   0  0  0  0  0  0  0  0  0  0  0  0
   45.1270   31.6520   35.4750 O   0  0  0  0  0  0  0  0  0  0  0  0
   45.3990   32.7220   36.3100 C   0  0  0  0  0  0  0  0  0  0  0  0
   44.9220   33.6760   35.9980 H   0  0  0  0  0  0  0  0  0  0  0  0
   46.9980   33.7640   41.1260 O   0  0  0  0  0  0  0  0  0  0  0  0
   47.2600   34.7960   42.0310 C   0  0  0  0  0  0  0  0  0  0  0  0
   48.2040   35.5540   41.7490 O   0  0  0  0  0  0  0  0  0  0  0  0
   46.3990   34.8440   43.1730 C   0  0  0  0  0  0  0  0  0  0  0  0
   45.5140   35.8990   43.1500 C   0  0  0  0  0  0  0  0  0  0  0  0
   44.6310   36.0130   44.2470 C   0  0  0  0  0  0  0  0  0  0  0  0
   44.7020   35.1010   45.2330 N   0  0  0  0  0  0  0  0  0  0  0  0
   45.5950   34.0810   45.2010 C   0  0  0  0  0  0  0  0  0  0  0  0
   46.4400   33.9620   44.1660 N   0  0  0  0  0  0  0  0  0  0  0  0
   45.4350   36.6340   42.3860 H   0  0  0  0  0  0  0  0  0  0  0  0
   43.9100   36.8200   44.2890 H   0  0  0  0  0  0  0  0  0  0  0  0
   45.6780   33.3320   45.9770 H   0  0  0  0  0  0  0  0  0  0  0  0
  1 16  1  0  0  0  0
  2  6  1  0  0  0  0
  2  1  2  0  0  0  0
  3  2  1  0  0  0  0
  4  3  2  0  0  0  0
  4  5  1  0  0  0  0
  5  1  1  0  0  0  0
  7  3  1  0  0  0  0
  8  4  1  1  0  0  0
  9  8  1  0  0  0  0
 10  9  1  0  0  0  0
 11 13  1  0  0  0  0
 11  9  1  0  0  0  0
 12 11  1  0  0  0  0
 13 14  1  0  0  0  0
 14  8  1  0  0  0  0
 15 14  1  0  0  0  0
 16 17  1  0  0  0  0
 17 19  1  0  0  0  0
 18 17  2  0  0  0  0
 19 24  1  0  0  0  0
 20 19  2  0  0  0  0
 20 21  1  0  0  0  0
 21 26  1  0  0  0  0
 21 22  2  0  0  0  0
 23 22  1  0  0  0  0
 23 27  1  0  0  0  0
 24 23  2  0  0  0  0
 25 20  1  0  0  0  0
M  END
>  <minimizedAffinity>
-4.71696043

>  <minimizedRMSD>
1.06648839

$$$$
