
 OpenBabel03252504333D

 39 41  0  0  1  0  0  0  0  0999 V2000
   42.5150   35.3620   40.5830 O   0  0  0  0  0  0  0  0  0  0  0  0
   41.3220   35.5580   41.1950 C   0  0  0  0  0  0  0  0  0  0  0  0
   40.7990   36.4200   40.6420 H   0  0  0  0  0  0  0  0  0  0  0  0
   41.2880   35.8170   42.2510 H   0  0  0  0  0  0  0  0  0  0  0  0
   40.6110   33.2760   41.6740 C   0  0  0  0  0  0  0  0  0  0  0  0
   40.3290   34.4460   40.9840 C   0  0  0  0  0  0  0  0  0  0  0  0
   39.2070   34.5070   40.2150 C   0  0  0  0  0  0  0  0  0  0  0  0
   38.4560   33.4200   40.1870 N   0  0  0  0  0  0  0  0  0  0  0  0
   38.7010   32.2870   40.8380 C   0  0  0  0  0  0  0  0  0  0  0  0
   39.8380   32.1820   41.6350 N   0  0  0  0  0  0  0  0  0  0  0  0
   41.4940   33.1850   42.2980 H   0  0  0  0  0  0  0  0  0  0  0  0
   39.0220   35.4150   39.7000 H   0  0  0  0  0  0  0  0  0  0  0  0
   37.8540   31.0610   40.8060 C   0  0  1  0  0  3  0  0  0  0  0  0
   37.9610   30.4140   39.4220 C   0  0  0  0  0  3  0  0  0  0  0  0
   38.9420   30.6840   38.9700 H   0  0  0  0  0  0  0  0  0  0  0  0
   37.9500   28.9500   39.8260 C   0  0  0  0  0  3  0  0  0  0  0  0
   36.8970   28.5950   39.9060 H   0  0  0  0  0  0  0  0  0  0  0  0
   38.6190   28.8940   41.0460 O   0  0  0  0  0  0  0  0  0  0  0  0
   38.2860   30.0130   41.7770 C   0  0  0  0  0  3  0  0  0  0  0  0
   37.4460   29.7440   42.4770 H   0  0  0  0  0  0  0  0  0  0  0  0
   43.7850   35.2730   41.1410 C   0  0  0  0  0  3  0  0  0  0  0  0
   43.8540   35.5720   42.4360 C   0  0  0  0  0  3  0  0  0  0  0  0
   45.1140   35.5570   43.2700 C   0  0  0  0  0  0  0  0  0  0  0  0
   45.8900   35.1570   42.5520 H   0  0  0  0  0  0  0  0  0  0  0  0
   45.4060   36.5700   43.5840 H   0  0  0  0  0  0  0  0  0  0  0  0
   44.9430   34.6690   44.3020 O   0  0  0  0  0  0  0  0  0  0  0  0
   45.6760   32.5490   42.8630 O   0  0  0  0  0  0  0  0  0  0  0  0
   45.9700   33.3440   44.1130 P   0  0  1  0  0  0  0  0  0  0  0  0
   47.5860   33.8780   43.9990 O   0  0  0  0  0  0  0  0  0  0  0  0
   47.6470   34.7350   44.4570 H   0  0  0  0  0  0  0  0  0  0  0  0
   45.8790   32.3450   45.4680 O   0  0  0  0  0  0  0  0  0  0  0  0
   46.1600   33.0140   46.6420 C   0  0  0  0  0  0  0  0  0  0  0  0
   46.9680   32.3260   47.6980 C   0  0  0  0  0  0  0  0  0  0  0  0
   45.4660   32.4750   47.8690 C   0  0  0  0  0  0  0  0  0  0  0  0
   46.2450   34.1060   46.5480 H   0  0  0  0  0  0  0  0  0  0  0  0
   47.4080   31.3560   47.4430 H   0  0  0  0  0  0  0  0  0  0  0  0
   47.5890   32.9940   48.3190 H   0  0  0  0  0  0  0  0  0  0  0  0
   45.0790   33.1690   48.6310 H   0  0  0  0  0  0  0  0  0  0  0  0
   44.9380   31.4920   47.7930 H   0  0  0  0  0  0  0  0  0  0  0  0
  1 21  1  0  0  0  0
  1  2  1  0  0  0  0
  2  4  1  0  0  0  0
  3  2  1  0  0  0  0
  5 11  1  0  0  0  0
  6  2  1  0  0  0  0
  6  5  2  0  0  0  0
  7  6  1  0  0  0  0
  8  7  2  0  0  0  0
  8  9  1  0  0  0  0
  9 10  2  0  0  0  0
 10  5  1  0  0  0  0
 12  7  1  0  0  0  0
 13  9  1  6  0  0  0
 13 19  1  0  0  0  0
 14 16  1  0  0  0  0
 14 13  1  0  0  0  0
 15 14  1  0  0  0  0
 16 17  1  0  0  0  0
 16 18  1  0  0  0  0
 18 19  1  0  0  0  0
 19 20  1  0  0  0  0
 21 22  2  0  0  0  0
 22 23  1  0  0  0  0
 23 25  1  0  0  0  0
 23 26  1  0  0  0  0
 24 23  1  0  0  0  0
 28 27  2  6  0  0  0
 28 26  1  0  0  0  0
 28 31  1  0  0  0  0
 29 28  1  0  0  0  0
 29 30  1  0  0  0  0
 31 32  1  0  0  0  0
 32 33  1  0  0  0  0
 32 34  1  0  0  0  0
 33 34  1  0  0  0  0
 33 37  1  0  0  0  0
 34 38  1  0  0  0  0
 35 32  1  0  0  0  0
 36 33  1  0  0  0  0
 39 34  1  0  0  0  0
M  END
>  <minimizedAffinity>
-5.0624671

>  <minimizedRMSD>
0.573669076

$$$$
