
 OpenBabel03252504333D

 39 41  0  0  1  0  0  0  0  0999 V2000
   42.5100   35.3650   40.5790 O   0  0  0  0  0  0  0  0  0  0  0  0
   41.3180   35.5590   41.1920 C   0  0  0  0  0  0  0  0  0  0  0  0
   40.7940   36.4200   40.6400 H   0  0  0  0  0  0  0  0  0  0  0  0
   41.2840   35.8180   42.2490 H   0  0  0  0  0  0  0  0  0  0  0  0
   40.6080   33.2770   41.6730 C   0  0  0  0  0  0  0  0  0  0  0  0
   40.3250   34.4470   40.9820 C   0  0  0  0  0  0  0  0  0  0  0  0
   39.2040   34.5060   40.2140 C   0  0  0  0  0  0  0  0  0  0  0  0
   38.4540   33.4190   40.1850 N   0  0  0  0  0  0  0  0  0  0  0  0
   38.6990   32.2860   40.8370 C   0  0  0  0  0  0  0  0  0  0  0  0
   39.8370   32.1820   41.6340 N   0  0  0  0  0  0  0  0  0  0  0  0
   41.4920   33.1860   42.2960 H   0  0  0  0  0  0  0  0  0  0  0  0
   39.0180   35.4140   39.6980 H   0  0  0  0  0  0  0  0  0  0  0  0
   37.8530   31.0590   40.8060 C   0  0  1  0  0  3  0  0  0  0  0  0
   37.9620   30.4110   39.4210 C   0  0  0  0  0  3  0  0  0  0  0  0
   38.9410   30.6830   38.9700 H   0  0  0  0  0  0  0  0  0  0  0  0
   37.9510   28.9480   39.8270 C   0  0  0  0  0  3  0  0  0  0  0  0
   36.8980   28.5920   39.9060 H   0  0  0  0  0  0  0  0  0  0  0  0
   38.6190   28.8930   41.0470 O   0  0  0  0  0  0  0  0  0  0  0  0
   38.2850   30.0120   41.7780 C   0  0  0  0  0  3  0  0  0  0  0  0
   37.4450   29.7430   42.4760 H   0  0  0  0  0  0  0  0  0  0  0  0
   43.7800   35.2730   41.1360 C   0  0  0  0  0  3  0  0  0  0  0  0
   43.8520   35.5740   42.4310 C   0  0  0  0  0  3  0  0  0  0  0  0
   45.1120   35.5570   43.2630 C   0  0  0  0  0  0  0  0  0  0  0  0
   45.8870   35.1600   42.5440 H   0  0  0  0  0  0  0  0  0  0  0  0
   45.4040   36.5710   43.5800 H   0  0  0  0  0  0  0  0  0  0  0  0
   44.9420   34.6680   44.2940 O   0  0  0  0  0  0  0  0  0  0  0  0
   45.6810   32.5520   42.8500 O   0  0  0  0  0  0  0  0  0  0  0  0
   45.9720   33.3450   44.1020 P   0  0  1  0  0  0  0  0  0  0  0  0
   47.5870   33.8810   43.9920 O   0  0  0  0  0  0  0  0  0  0  0  0
   47.6460   34.7370   44.4520 H   0  0  0  0  0  0  0  0  0  0  0  0
   45.8810   32.3420   45.4540 O   0  0  0  0  0  0  0  0  0  0  0  0
   46.1600   33.0080   46.6300 C   0  0  0  0  0  0  0  0  0  0  0  0
   47.0410   32.3520   47.6480 C   0  0  0  0  0  0  0  0  0  0  0  0
   45.5390   32.4100   47.8690 C   0  0  0  0  0  0  0  0  0  0  0  0
   46.1780   34.1050   46.5530 H   0  0  0  0  0  0  0  0  0  0  0  0
   47.5290   31.4140   47.3630 H   0  0  0  0  0  0  0  0  0  0  0  0
   47.6410   33.0470   48.2610 H   0  0  0  0  0  0  0  0  0  0  0  0
   45.1370   33.0680   48.6550 H   0  0  0  0  0  0  0  0  0  0  0  0
   45.0680   31.3990   47.7930 H   0  0  0  0  0  0  0  0  0  0  0  0
  1 21  1  0  0  0  0
  1  2  1  0  0  0  0
  2  4  1  0  0  0  0
  3  2  1  0  0  0  0
  5 11  1  0  0  0  0
  6  2  1  0  0  0  0
  6  5  2  0  0  0  0
  7  6  1  0  0  0  0
  8  7  2  0  0  0  0
  8  9  1  0  0  0  0
  9 10  2  0  0  0  0
 10  5  1  0  0  0  0
 12  7  1  0  0  0  0
 13  9  1  6  0  0  0
 13 19  1  0  0  0  0
 14 16  1  0  0  0  0
 14 13  1  0  0  0  0
 15 14  1  0  0  0  0
 16 17  1  0  0  0  0
 16 18  1  0  0  0  0
 18 19  1  0  0  0  0
 19 20  1  0  0  0  0
 21 22  2  0  0  0  0
 22 23  1  0  0  0  0
 23 25  1  0  0  0  0
 23 26  1  0  0  0  0
 24 23  1  0  0  0  0
 28 27  2  6  0  0  0
 28 26  1  0  0  0  0
 28 31  1  0  0  0  0
 29 28  1  0  0  0  0
 29 30  1  0  0  0  0
 31 32  1  0  0  0  0
 32 33  1  0  0  0  0
 32 34  1  0  0  0  0
 33 34  1  0  0  0  0
 33 37  1  0  0  0  0
 34 38  1  0  0  0  0
 35 32  1  0  0  0  0
 36 33  1  0  0  0  0
 39 34  1  0  0  0  0
M  END
>  <minimizedAffinity>
-5.0594244

>  <minimizedRMSD>
0.738247216

$$$$
