
 OpenBabel03252502173D

 23 24  0  0  1  0  0  0  0  0999 V2000
   46.0790   35.7050   42.6090 C   0  0  0  0  0  0  0  0  0  0  0  0
   46.3000   34.3640   42.9960 C   0  0  0  0  0  0  0  0  0  0  0  0
   45.6510   33.8910   44.1590 C   0  0  0  0  0  0  0  0  0  0  0  0
   44.8510   34.7370   44.8470 N   0  0  0  0  0  0  0  0  0  0  0  0
   44.6730   36.0180   44.4310 C   0  0  0  0  0  0  0  0  0  0  0  0
   45.2700   36.5100   43.3320 N   0  0  0  0  0  0  0  0  0  0  0  0
   46.5670   36.0740   41.7280 H   0  0  0  0  0  0  0  0  0  0  0  0
   44.0280   36.6250   45.0280 H   0  0  0  0  0  0  0  0  0  0  0  0
   45.9030   32.4750   44.5380 C   0  0  2  0  0  3  0  0  0  0  0  0
   47.3390   32.2610   44.9770 C   0  0  0  0  0  3  0  0  0  0  0  0
   47.5130   32.4910   46.0360 H   0  0  0  0  0  0  0  0  0  0  0  0
   47.5030   30.7920   44.6490 C   0  0  0  0  0  3  0  0  0  0  0  0
   47.0000   30.2300   45.4540 H   0  0  0  0  0  0  0  0  0  0  0  0
   46.9070   30.6970   43.4090 O   0  0  0  0  0  0  0  0  0  0  0  0
   45.8270   31.5400   43.3710 C   0  0  0  0  0  3  0  0  0  0  0  0
   44.9030   30.9140   43.4950 H   0  0  0  0  0  0  0  0  0  0  0  0
   47.1380   33.6140   42.2030 O   0  0  0  0  0  0  0  0  0  0  0  0
   49.5880   32.9250   41.4810 O   0  0  0  0  0  0  0  0  0  0  0  0
   48.7700   34.0800   41.9340 P   0  0  0  0  0  0  0  0  0  0  0  0
   48.8470   35.2730   40.7330 O   0  0  0  0  0  0  0  0  0  0  0  0
   48.5710   34.8220   39.8810 H   0  0  0  0  0  0  0  0  0  0  0  0
   49.4390   34.7010   43.3520 O   0  0  0  0  0  0  0  0  0  0  0  0
   48.7830   35.1530   43.9250 H   0  0  0  0  0  0  0  0  0  0  0  0
  1  2  2  0  0  0  0
  1  6  1  0  0  0  0
  2  3  1  0  0  0  0
  3  4  2  0  0  0  0
  5  4  1  0  0  0  0
  5  8  1  0  0  0  0
  6  5  2  0  0  0  0
  7  1  1  0  0  0  0
  9  3  1  6  0  0  0
  9 10  1  0  0  0  0
 10 11  1  0  0  0  0
 12 10  1  0  0  0  0
 12 13  1  0  0  0  0
 14 12  1  0  0  0  0
 15 14  1  0  0  0  0
 15 16  1  0  0  0  0
 15  9  1  0  0  0  0
 17  2  1  0  0  0  0
 18 19  2  0  0  0  0
 19 17  1  0  0  0  0
 19 22  1  0  0  0  0
 20 19  1  0  0  0  0
 21 20  1  0  0  0  0
 22 23  1  0  0  0  0
M  END
>  <minimizedAffinity>
-4.12909174

>  <minimizedRMSD>
0.880621195

$$$$
