
 OpenBabel03252502243D

 33 35  0  0  1  0  0  0  0  0999 V2000
   46.7720   34.5670   42.2980 N   0  0  0  0  0  0  0  0  0  0  0  0
   48.2260   34.6000   42.3240 C   0  0  0  0  0  0  0  0  0  0  0  0
   48.5980   35.3600   41.0490 C   0  0  0  0  0  0  0  0  0  0  0  0
   48.1990   34.5730   39.8350 C   0  0  0  0  0  0  0  0  0  0  0  0
   46.8730   33.9120   39.9360 C   0  0  0  0  0  0  0  0  0  0  0  0
   46.0150   34.3270   41.1000 C   0  0  1  0  0  0  0  0  0  0  0  0
   48.5510   35.2240   43.1700 H   0  0  0  0  0  0  0  0  0  0  0  0
   48.6620   33.5880   42.3400 H   0  0  0  0  0  0  0  0  0  0  0  0
   47.9880   36.2910   41.0600 H   0  0  0  0  0  0  0  0  0  0  0  0
   49.6800   35.5750   41.0130 H   0  0  0  0  0  0  0  0  0  0  0  0
   48.2770   35.2360   38.9480 H   0  0  0  0  0  0  0  0  0  0  0  0
   48.9690   33.7560   39.7280 H   0  0  0  0  0  0  0  0  0  0  0  0
   46.2950   34.1610   39.0080 H   0  0  0  0  0  0  0  0  0  0  0  0
   46.9350   32.8040   39.9310 H   0  0  0  0  0  0  0  0  0  0  0  0
   45.5340   35.2830   40.8110 H   0  0  0  0  0  0  0  0  0  0  0  0
   44.4740   35.9810   44.8830 C   0  0  0  0  0  0  0  0  0  0  0  0
   45.1640   35.8730   43.6590 C   0  0  0  0  0  0  0  0  0  0  0  0
   46.0230   34.7770   43.4950 C   0  0  0  0  0  0  0  0  0  0  0  0
   46.1270   33.8910   44.5360 N   0  0  0  0  0  0  0  0  0  0  0  0
   45.4420   34.0390   45.6920 C   0  0  0  0  0  0  0  0  0  0  0  0
   44.6090   35.1010   45.8550 N   0  0  0  0  0  0  0  0  0  0  0  0
   43.8540   36.8870   44.8390 H   0  0  0  0  0  0  0  0  0  0  0  0
   45.1210   36.5320   42.8190 H   0  0  0  0  0  0  0  0  0  0  0  0
   45.5330   33.3360   46.5030 H   0  0  0  0  0  0  0  0  0  0  0  0
   45.0950   33.3020   41.3310 O   0  0  0  0  0  0  0  0  0  0  0  0
   43.9520   33.5900   40.6400 C   0  0  2  0  0  0  0  0  0  0  0  0
   43.5430   35.0400   40.6370 C   0  0  0  0  0  0  0  0  0  0  0  0
   44.0930   35.6350   39.9090 H   0  0  0  0  0  0  0  0  0  0  0  0
   42.0720   34.8720   40.2410 C   0  0  0  0  0  0  0  0  0  0  0  0
   41.4690   35.7290   40.5960 H   0  0  0  0  0  0  0  0  0  0  0  0
   41.6430   33.6600   40.7040 O   0  0  0  0  0  0  0  0  0  0  0  0
   42.7040   33.0200   41.3260 C   0  0  0  0  0  0  0  0  0  0  0  0
   42.6370   31.9470   41.1480 H   0  0  0  0  0  0  0  0  0  0  0  0
  1  2  1  0  0  0  0
  1 18  1  0  0  0  0
  2  8  1  0  0  0  0
  2  7  1  0  0  0  0
  3  9  1  0  0  0  0
  3  2  1  0  0  0  0
  4  5  1  0  0  0  0
  4  3  1  0  0  0  0
  5  6  1  0  0  0  0
  6 15  1  6  0  0  0
  6 25  1  0  0  0  0
  6  1  1  0  0  0  0
 10  3  1  0  0  0  0
 11  4  1  0  0  0  0
 12  4  1  0  0  0  0
 13  5  1  0  0  0  0
 14  5  1  0  0  0  0
 16 21  1  0  0  0  0
 17 16  2  0  0  0  0
 18 17  1  0  0  0  0
 18 19  2  0  0  0  0
 19 20  1  0  0  0  0
 20 21  2  0  0  0  0
 20 24  1  0  0  0  0
 22 16  1  0  0  0  0
 23 17  1  0  0  0  0
 26 32  1  0  0  0  0
 26 25  1  1  0  0  0
 27 26  1  0  0  0  0
 28 27  1  0  0  0  0
 29 30  1  0  0  0  0
 29 27  1  0  0  0  0
 29 31  1  0  0  0  0
 31 32  1  0  0  0  0
 33 32  1  0  0  0  0
M  END
>  <minimizedAffinity>
-5.44257641

>  <minimizedRMSD>
0.52291131

$$$$
