
 OpenBabel03252503583D

 19 20  0  0  1  0  0  0  0  0999 V2000
   36.9870   30.7550   40.8860 C   0  0  0  0  0  0  0  0  0  0  0  0
   35.8150   30.2320   40.3230 C   0  0  0  0  0  0  0  0  0  0  0  0
   35.4480   28.9370   40.7340 C   0  0  0  0  0  0  0  0  0  0  0  0
   36.2370   28.2870   41.6330 N   0  0  0  0  0  0  0  0  0  0  0  0
   37.3530   28.8510   42.1350 C   0  0  0  0  0  0  0  0  0  0  0  0
   37.7370   30.0880   41.7670 N   0  0  0  0  0  0  0  0  0  0  0  0
   35.2080   30.7630   39.6150 H   0  0  0  0  0  0  0  0  0  0  0  0
   34.5610   28.4520   40.3530 H   0  0  0  0  0  0  0  0  0  0  0  0
   38.1880   28.1250   43.1070 C   0  0  2  0  0  3  0  0  0  0  0  0
   39.6760   28.4500   42.9180 C   0  0  0  0  0  3  0  0  0  0  0  0
   39.9550   29.3810   43.4560 H   0  0  0  0  0  0  0  0  0  0  0  0
   40.2690   27.2270   43.6090 C   0  0  0  0  0  3  0  0  0  0  0  0
   41.3220   27.0570   43.2800 H   0  0  0  0  0  0  0  0  0  0  0  0
   39.4310   26.1600   43.3280 O   0  0  0  0  0  0  0  0  0  0  0  0
   38.1940   26.6440   42.9510 C   0  0  0  0  0  3  0  0  0  0  0  0
   38.0460   26.3820   41.8630 H   0  0  0  0  0  0  0  0  0  0  0  0
   37.3090   32.0800   40.4280 C   0  0  0  0  0  0  0  0  0  0  0  0
   36.9610   32.6020   39.3340 O   0  0  0  0  0  0  0  0  0  0  0  0
   37.9020   32.4840   41.2400 H   0  0  0  0  0  0  0  0  0  0  0  0
  1  6  1  0  0  0  0
  2  3  1  0  0  0  0
  2  1  2  0  0  0  0
  3  4  2  0  0  0  0
  4  5  1  0  0  0  0
  6  5  2  0  0  0  0
  7  2  1  0  0  0  0
  8  3  1  0  0  0  0
  9  5  1  6  0  0  0
 10  9  1  0  0  0  0
 10 11  1  0  0  0  0
 10 12  1  0  0  0  0
 13 12  1  0  0  0  0
 14 12  1  0  0  0  0
 15  9  1  0  0  0  0
 15 14  1  0  0  0  0
 16 15  1  0  0  0  0
 17  1  1  0  0  0  0
 17 19  1  0  0  0  0
 18 17  2  0  0  0  0
M  END
>  <minimizedAffinity>
-3.98042178

$$$$

 OpenBabel03252503583D

 19 20  0  0  1  0  0  0  0  0999 V2000
   38.3040   24.8230   42.2330 C   0  0  0  0  0  0  0  0  0  0  0  0
   39.4580   24.4890   42.9540 C   0  0  0  0  0  0  0  0  0  0  0  0
   40.0650   25.5310   43.6790 C   0  0  0  0  0  0  0  0  0  0  0  0
   39.5060   26.7710   43.6350 N   0  0  0  0  0  0  0  0  0  0  0  0
   38.3920   27.0220   42.9190 C   0  0  0  0  0  0  0  0  0  0  0  0
   37.7830   26.0510   42.2130 N   0  0  0  0  0  0  0  0  0  0  0  0
   39.8820   23.5030   42.9740 H   0  0  0  0  0  0  0  0  0  0  0  0
   40.9580   25.3680   44.2640 H   0  0  0  0  0  0  0  0  0  0  0  0
   37.8080   28.3740   42.8900 C   0  0  2  0  0  3  0  0  0  0  0  0
   36.7950   28.5200   41.7470 C   0  0  0  0  0  3  0  0  0  0  0  0
   35.7910   28.1520   42.0500 H   0  0  0  0  0  0  0  0  0  0  0  0
   36.8010   30.0400   41.6260 C   0  0  0  0  0  3  0  0  0  0  0  0
   36.4220   30.3600   40.6260 H   0  0  0  0  0  0  0  0  0  0  0  0
   38.0960   30.4590   41.8780 O   0  0  0  0  0  0  0  0  0  0  0  0
   38.7650   29.4680   42.5680 C   0  0  0  0  0  3  0  0  0  0  0  0
   39.5740   29.0690   41.8880 H   0  0  0  0  0  0  0  0  0  0  0  0
   37.7300   23.7160   41.5120 C   0  0  0  0  0  0  0  0  0  0  0  0
   36.6630   23.7320   40.8410 O   0  0  0  0  0  0  0  0  0  0  0  0
   38.4310   22.9120   41.6980 H   0  0  0  0  0  0  0  0  0  0  0  0
  1  2  1  0  0  0  0
  2  7  1  0  0  0  0
  2  3  2  0  0  0  0
  3  8  1  0  0  0  0
  4  3  1  0  0  0  0
  5  4  2  0  0  0  0
  6  1  2  0  0  0  0
  6  5  1  0  0  0  0
  9  5  1  6  0  0  0
 10 11  1  0  0  0  0
 10  9  1  0  0  0  0
 12 10  1  0  0  0  0
 12 14  1  0  0  0  0
 13 12  1  0  0  0  0
 14 15  1  0  0  0  0
 15  9  1  0  0  0  0
 16 15  1  0  0  0  0
 17 19  1  0  0  0  0
 17  1  1  0  0  0  0
 18 17  2  0  0  0  0
M  END
>  <minimizedAffinity>
-3.83554387

$$$$

 OpenBabel03252503583D

 19 20  0  0  1  0  0  0  0  0999 V2000
   36.1070   29.7980   38.0510 C   0  0  0  0  0  0  0  0  0  0  0  0
   35.2810   28.9250   38.7720 C   0  0  0  0  0  0  0  0  0  0  0  0
   35.1380   29.1920   40.1460 C   0  0  0  0  0  0  0  0  0  0  0  0
   35.7960   30.2590   40.6770 N   0  0  0  0  0  0  0  0  0  0  0  0
   36.5760   31.0590   39.9230 C   0  0  0  0  0  0  0  0  0  0  0  0
   36.7380   30.8350   38.6050 N   0  0  0  0  0  0  0  0  0  0  0  0
   34.7710   28.0900   38.3310 H   0  0  0  0  0  0  0  0  0  0  0  0
   34.5220   28.5740   40.7820 H   0  0  0  0  0  0  0  0  0  0  0  0
   37.2770   32.2060   40.5240 C   0  0  2  0  0  3  0  0  0  0  0  0
   37.4120   33.3640   39.5260 C   0  0  0  0  0  3  0  0  0  0  0  0
   36.4980   33.9960   39.5190 H   0  0  0  0  0  0  0  0  0  0  0  0
   38.5740   34.1010   40.1830 C   0  0  0  0  0  3  0  0  0  0  0  0
   39.0870   34.7680   39.4490 H   0  0  0  0  0  0  0  0  0  0  0  0
   39.4110   33.1370   40.7190 O   0  0  0  0  0  0  0  0  0  0  0  0
   38.7040   31.9610   40.8750 C   0  0  0  0  0  3  0  0  0  0  0  0
   39.1400   31.2060   40.1580 H   0  0  0  0  0  0  0  0  0  0  0  0
   36.2140   29.4730   36.6520 C   0  0  0  0  0  0  0  0  0  0  0  0
   35.4510   28.7110   35.9980 O   0  0  0  0  0  0  0  0  0  0  0  0
   37.0850   30.0330   36.3350 H   0  0  0  0  0  0  0  0  0  0  0  0
  1  6  2  0  0  0  0
  1  2  1  0  0  0  0
  2  3  2  0  0  0  0
  3  4  1  0  0  0  0
  3  8  1  0  0  0  0
  5  4  2  0  0  0  0
  6  5  1  0  0  0  0
  7  2  1  0  0  0  0
  9  5  1  6  0  0  0
  9 15  1  0  0  0  0
 10 12  1  0  0  0  0
 10  9  1  0  0  0  0
 11 10  1  0  0  0  0
 12 14  1  0  0  0  0
 13 12  1  0  0  0  0
 14 15  1  0  0  0  0
 16 15  1  0  0  0  0
 17  1  1  0  0  0  0
 18 17  2  0  0  0  0
 19 17  1  0  0  0  0
M  END
>  <minimizedAffinity>
-3.75926661

$$$$

 OpenBabel03252503583D

 19 20  0  0  1  0  0  0  0  0999 V2000
   37.4390   26.6790   42.1110 C   0  0  0  0  0  0  0  0  0  0  0  0
   37.8830   27.1450   43.3560 C   0  0  0  0  0  0  0  0  0  0  0  0
   37.8110   28.5340   43.5650 C   0  0  0  0  0  0  0  0  0  0  0  0
   37.3260   29.3220   42.5670 N   0  0  0  0  0  0  0  0  0  0  0  0
   36.9140   28.8060   41.3920 C   0  0  0  0  0  0  0  0  0  0  0  0
   36.9680   27.4810   41.1540 N   0  0  0  0  0  0  0  0  0  0  0  0
   38.2620   26.5030   44.1290 H   0  0  0  0  0  0  0  0  0  0  0  0
   38.1310   28.9840   44.4940 H   0  0  0  0  0  0  0  0  0  0  0  0
   36.3930   29.6820   40.3290 C   0  0  2  0  0  3  0  0  0  0  0  0
   37.2060   29.5360   39.0360 C   0  0  0  0  0  3  0  0  0  0  0  0
   36.8450   28.6790   38.4300 H   0  0  0  0  0  0  0  0  0  0  0  0
   36.8310   30.8600   38.3770 C   0  0  0  0  0  3  0  0  0  0  0  0
   37.5800   31.1430   37.6000 H   0  0  0  0  0  0  0  0  0  0  0  0
   36.7180   31.7970   39.3910 O   0  0  0  0  0  0  0  0  0  0  0  0
   36.5290   31.1420   40.5920 C   0  0  0  0  0  3  0  0  0  0  0  0
   37.4460   31.3240   41.2250 H   0  0  0  0  0  0  0  0  0  0  0  0
   37.5370   25.2510   41.9560 C   0  0  0  0  0  0  0  0  0  0  0  0
   36.5780   24.4350   41.9010 O   0  0  0  0  0  0  0  0  0  0  0  0
   38.6060   25.0820   41.9050 H   0  0  0  0  0  0  0  0  0  0  0  0
  1  2  1  0  0  0  0
  2  3  2  0  0  0  0
  2  7  1  0  0  0  0
  3  8  1  0  0  0  0
  4  3  1  0  0  0  0
  5  4  2  0  0  0  0
  6  5  1  0  0  0  0
  6  1  2  0  0  0  0
  9 15  1  0  0  0  0
  9  5  1  1  0  0  0
 10  9  1  0  0  0  0
 11 10  1  0  0  0  0
 12 10  1  0  0  0  0
 12 14  1  0  0  0  0
 13 12  1  0  0  0  0
 14 15  1  0  0  0  0
 15 16  1  0  0  0  0
 17  1  1  0  0  0  0
 18 17  2  0  0  0  0
 19 17  1  0  0  0  0
M  END
>  <minimizedAffinity>
-3.74369168

$$$$

 OpenBabel03252503583D

 19 20  0  0  1  0  0  0  0  0999 V2000
   37.0920   29.0800   41.9650 C   0  0  0  0  0  0  0  0  0  0  0  0
   35.9750   29.0000   41.1230 C   0  0  0  0  0  0  0  0  0  0  0  0
   35.8040   30.0560   40.2090 C   0  0  0  0  0  0  0  0  0  0  0  0
   36.7140   31.0670   40.2010 N   0  0  0  0  0  0  0  0  0  0  0  0
   37.7680   31.0810   41.0410 C   0  0  0  0  0  0  0  0  0  0  0  0
   37.9650   30.0880   41.9290 N   0  0  0  0  0  0  0  0  0  0  0  0
   35.2690   28.1910   41.1470 H   0  0  0  0  0  0  0  0  0  0  0  0
   34.9720   30.0800   39.5200 H   0  0  0  0  0  0  0  0  0  0  0  0
   38.7380   32.1890   41.0100 C   0  0  2  0  0  3  0  0  0  0  0  0
   38.2070   33.3730   40.1910 C   0  0  0  0  0  3  0  0  0  0  0  0
   37.5600   34.0300   40.8090 H   0  0  0  0  0  0  0  0  0  0  0  0
   39.5370   34.0560   39.8850 C   0  0  0  0  0  3  0  0  0  0  0  0
   39.4410   34.7310   39.0010 H   0  0  0  0  0  0  0  0  0  0  0  0
   40.4740   33.0520   39.7050 O   0  0  0  0  0  0  0  0  0  0  0  0
   40.0120   31.8930   40.2960 C   0  0  0  0  0  3  0  0  0  0  0  0
   39.8120   31.1490   39.4700 H   0  0  0  0  0  0  0  0  0  0  0  0
   37.2120   27.9720   42.8770 C   0  0  0  0  0  0  0  0  0  0  0  0
   36.2650   27.3440   43.4230 O   0  0  0  0  0  0  0  0  0  0  0  0
   38.2830   27.8360   42.9580 H   0  0  0  0  0  0  0  0  0  0  0  0
  1 17  1  0  0  0  0
  2  7  1  0  0  0  0
  2  1  2  0  0  0  0
  3  2  1  0  0  0  0
  4  3  2  0  0  0  0
  4  5  1  0  0  0  0
  5  6  2  0  0  0  0
  6  1  1  0  0  0  0
  8  3  1  0  0  0  0
  9  5  1  6  0  0  0
 10 11  1  0  0  0  0
 10  9  1  0  0  0  0
 12 10  1  0  0  0  0
 13 12  1  0  0  0  0
 14 12  1  0  0  0  0
 14 15  1  0  0  0  0
 15  9  1  0  0  0  0
 16 15  1  0  0  0  0
 17 19  1  0  0  0  0
 17 18  2  0  0  0  0
M  END
>  <minimizedAffinity>
-3.69597125

$$$$

 OpenBabel03252503583D

 19 20  0  0  1  0  0  0  0  0999 V2000
   37.1220   30.7520   38.1940 C   0  0  0  0  0  0  0  0  0  0  0  0
   37.3580   32.1330   38.2110 C   0  0  0  0  0  0  0  0  0  0  0  0
   37.3700   32.7510   39.4750 C   0  0  0  0  0  0  0  0  0  0  0  0
   37.1560   31.9840   40.5790 N   0  0  0  0  0  0  0  0  0  0  0  0
   36.9360   30.6570   40.4910 C   0  0  0  0  0  0  0  0  0  0  0  0
   36.9170   30.0310   39.2990 N   0  0  0  0  0  0  0  0  0  0  0  0
   37.5240   32.7180   37.3260 H   0  0  0  0  0  0  0  0  0  0  0  0
   37.5430   33.8110   39.5860 H   0  0  0  0  0  0  0  0  0  0  0  0
   36.7080   29.8520   41.7030 C   0  0  2  0  0  3  0  0  0  0  0  0
   38.0160   29.6110   42.4670 C   0  0  0  0  0  3  0  0  0  0  0  0
   38.2490   30.4620   43.1430 H   0  0  0  0  0  0  0  0  0  0  0  0
   37.5930   28.3840   43.2680 C   0  0  0  0  0  3  0  0  0  0  0  0
   38.4850   27.8130   43.6200 H   0  0  0  0  0  0  0  0  0  0  0  0
   36.7550   27.6410   42.4540 O   0  0  0  0  0  0  0  0  0  0  0  0
   36.2560   28.4540   41.4560 C   0  0  0  0  0  3  0  0  0  0  0  0
   36.6860   28.0910   40.4770 H   0  0  0  0  0  0  0  0  0  0  0  0
   37.1220   30.1790   36.8740 C   0  0  0  0  0  0  0  0  0  0  0  0
   36.2060   29.4820   36.3590 O   0  0  0  0  0  0  0  0  0  0  0  0
   38.0750   30.4940   36.4690 H   0  0  0  0  0  0  0  0  0  0  0  0
  1  2  2  0  0  0  0
  1  6  1  0  0  0  0
  2  3  1  0  0  0  0
  3  8  1  0  0  0  0
  3  4  2  0  0  0  0
  5  4  1  0  0  0  0
  6  5  2  0  0  0  0
  7  2  1  0  0  0  0
  9  5  1  6  0  0  0
  9 10  1  0  0  0  0
 10 11  1  0  0  0  0
 10 12  1  0  0  0  0
 12 13  1  0  0  0  0
 14 12  1  0  0  0  0
 15  9  1  0  0  0  0
 15 14  1  0  0  0  0
 16 15  1  0  0  0  0
 17  1  1  0  0  0  0
 18 17  2  0  0  0  0
 19 17  1  0  0  0  0
M  END
>  <minimizedAffinity>
-3.68096161

$$$$

 OpenBabel03252503583D

 19 20  0  0  1  0  0  0  0  0999 V2000
   38.2790   31.9430   40.4950 C   0  0  0  0  0  0  0  0  0  0  0  0
   39.5580   32.5120   40.4350 C   0  0  0  0  0  0  0  0  0  0  0  0
   40.5230   31.9730   41.3050 C   0  0  0  0  0  0  0  0  0  0  0  0
   40.1610   30.9550   42.1340 N   0  0  0  0  0  0  0  0  0  0  0  0
   38.9090   30.4550   42.1390 C   0  0  0  0  0  0  0  0  0  0  0  0
   37.9590   30.9450   41.3200 N   0  0  0  0  0  0  0  0  0  0  0  0
   39.8210   33.3150   39.7720 H   0  0  0  0  0  0  0  0  0  0  0  0
   41.5360   32.3470   41.3300 H   0  0  0  0  0  0  0  0  0  0  0  0
   38.5450   29.3530   43.0460 C   0  0  2  0  0  3  0  0  0  0  0  0
   39.5900   28.2300   43.0070 C   0  0  0  0  0  3  0  0  0  0  0  0
   40.4350   28.4430   43.6950 H   0  0  0  0  0  0  0  0  0  0  0  0
   38.7270   27.0940   43.5460 C   0  0  0  0  0  3  0  0  0  0  0  0
   39.1570   26.1020   43.2660 H   0  0  0  0  0  0  0  0  0  0  0  0
   37.4470   27.2910   43.0550 O   0  0  0  0  0  0  0  0  0  0  0  0
   37.3090   28.6110   42.6720 C   0  0  0  0  0  3  0  0  0  0  0  0
   37.1890   28.6260   41.5500 H   0  0  0  0  0  0  0  0  0  0  0  0
   37.3370   32.5360   39.5810 C   0  0  0  0  0  0  0  0  0  0  0  0
   37.1100   33.7680   39.4320 O   0  0  0  0  0  0  0  0  0  0  0  0
   36.9020   31.6780   39.0850 H   0  0  0  0  0  0  0  0  0  0  0  0
  1  6  1  0  0  0  0
  2  1  2  0  0  0  0
  2  3  1  0  0  0  0
  3  8  1  0  0  0  0
  3  4  2  0  0  0  0
  4  5  1  0  0  0  0
  6  5  2  0  0  0  0
  7  2  1  0  0  0  0
  9  5  1  6  0  0  0
 10  9  1  0  0  0  0
 10 12  1  0  0  0  0
 10 11  1  0  0  0  0
 13 12  1  0  0  0  0
 14 12  1  0  0  0  0
 15  9  1  0  0  0  0
 15 14  1  0  0  0  0
 16 15  1  0  0  0  0
 17  1  1  0  0  0  0
 18 17  2  0  0  0  0
 19 17  1  0  0  0  0
M  END
>  <minimizedAffinity>
-3.6568594

$$$$

 OpenBabel03252503583D

 19 20  0  0  1  0  0  0  0  0999 V2000
   37.3740   26.9830   41.3910 C   0  0  0  0  0  0  0  0  0  0  0  0
   37.2450   26.7140   42.7600 C   0  0  0  0  0  0  0  0  0  0  0  0
   37.3130   27.8230   43.6240 C   0  0  0  0  0  0  0  0  0  0  0  0
   37.4970   29.0600   43.0870 N   0  0  0  0  0  0  0  0  0  0  0  0
   37.6130   29.2470   41.7580 C   0  0  0  0  0  0  0  0  0  0  0  0
   37.5530   28.2110   40.8990 N   0  0  0  0  0  0  0  0  0  0  0  0
   37.1010   25.7290   43.1610 H   0  0  0  0  0  0  0  0  0  0  0  0
   37.2250   27.7130   44.6950 H   0  0  0  0  0  0  0  0  0  0  0  0
   37.8100   30.5970   41.2040 C   0  0  2  0  0  3  0  0  0  0  0  0
   36.5180   31.1390   40.5800 C   0  0  0  0  0  3  0  0  0  0  0  0
   35.8670   31.6090   41.3470 H   0  0  0  0  0  0  0  0  0  0  0  0
   37.1290   32.1980   39.6670 C   0  0  0  0  0  3  0  0  0  0  0  0
   36.4220   32.4710   38.8480 H   0  0  0  0  0  0  0  0  0  0  0  0
   38.3290   31.6860   39.2030 O   0  0  0  0  0  0  0  0  0  0  0  0
   38.7450   30.6750   40.0460 C   0  0  0  0  0  3  0  0  0  0  0  0
   38.6980   29.7080   39.4640 H   0  0  0  0  0  0  0  0  0  0  0  0
   37.2960   25.8110   40.5600 C   0  0  0  0  0  0  0  0  0  0  0  0
   36.5660   24.8000   40.7540 O   0  0  0  0  0  0  0  0  0  0  0  0
   37.9990   26.0260   39.7650 H   0  0  0  0  0  0  0  0  0  0  0  0
  1  2  1  0  0  0  0
  2  7  1  0  0  0  0
  2  3  2  0  0  0  0
  3  8  1  0  0  0  0
  4  3  1  0  0  0  0
  5  4  2  0  0  0  0
  6  1  2  0  0  0  0
  6  5  1  0  0  0  0
  9  5  1  6  0  0  0
 10  9  1  0  0  0  0
 10 11  1  0  0  0  0
 12 10  1  0  0  0  0
 13 12  1  0  0  0  0
 14 12  1  0  0  0  0
 14 15  1  0  0  0  0
 15  9  1  0  0  0  0
 16 15  1  0  0  0  0
 17 18  2  0  0  0  0
 17  1  1  0  0  0  0
 19 17  1  0  0  0  0
M  END
>  <minimizedAffinity>
-3.60247278

$$$$

 OpenBabel03252503583D

 19 20  0  0  1  0  0  0  0  0999 V2000
   37.1660   28.8110   41.5850 C   0  0  0  0  0  0  0  0  0  0  0  0
   37.6830   29.1090   42.8530 C   0  0  0  0  0  0  0  0  0  0  0  0
   38.0010   28.0110   43.6730 C   0  0  0  0  0  0  0  0  0  0  0  0
   37.7910   26.7540   43.1940 N   0  0  0  0  0  0  0  0  0  0  0  0
   37.2900   26.5390   41.9610 C   0  0  0  0  0  0  0  0  0  0  0  0
   36.9740   27.5650   41.1470 N   0  0  0  0  0  0  0  0  0  0  0  0
   37.8400   30.1090   43.2100 H   0  0  0  0  0  0  0  0  0  0  0  0
   38.4040   28.1430   44.6660 H   0  0  0  0  0  0  0  0  0  0  0  0
   37.0740   25.1680   41.4680 C   0  0  2  0  0  3  0  0  0  0  0  0
   38.1660   24.2150   41.9700 C   0  0  0  0  0  3  0  0  0  0  0  0
   37.9270   23.8290   42.9840 H   0  0  0  0  0  0  0  0  0  0  0  0
   38.0130   23.1170   40.9230 C   0  0  0  0  0  3  0  0  0  0  0  0
   38.9380   22.4940   40.8630 H   0  0  0  0  0  0  0  0  0  0  0  0
   37.6990   23.7410   39.7270 O   0  0  0  0  0  0  0  0  0  0  0  0
   37.2010   25.0010   39.9930 C   0  0  0  0  0  3  0  0  0  0  0  0
   37.9460   25.7500   39.5950 H   0  0  0  0  0  0  0  0  0  0  0  0
   36.8610   29.9740   40.7940 C   0  0  0  0  0  0  0  0  0  0  0  0
   35.8220   30.6830   40.8730 O   0  0  0  0  0  0  0  0  0  0  0  0
   37.7250   30.0660   40.1480 H   0  0  0  0  0  0  0  0  0  0  0  0
  1  2  1  0  0  0  0
  2  7  1  0  0  0  0
  2  3  2  0  0  0  0
  3  8  1  0  0  0  0
  4  3  1  0  0  0  0
  5  4  2  0  0  0  0
  6  1  2  0  0  0  0
  6  5  1  0  0  0  0
  9  5  1  6  0  0  0
  9 10  1  0  0  0  0
 10 11  1  0  0  0  0
 12 10  1  0  0  0  0
 13 12  1  0  0  0  0
 14 15  1  0  0  0  0
 14 12  1  0  0  0  0
 15  9  1  0  0  0  0
 16 15  1  0  0  0  0
 17 18  2  0  0  0  0
 17  1  1  0  0  0  0
 19 17  1  0  0  0  0
M  END
>  <minimizedAffinity>
-3.57752776

$$$$
