
 OpenBabel03252505583D

 35 37  0  0  1  0  0  0  0  0999 V2000
   44.7290   35.3700   45.1100 C   0  0  0  0  0  0  0  0  0  0  0  0
   45.2880   34.7220   43.9880 C   0  0  0  0  0  0  0  0  0  0  0  0
   45.8530   33.4720   44.2000 C   0  0  0  0  0  0  0  0  0  0  0  0
   45.8350   32.9580   45.4490 N   0  0  0  0  0  0  0  0  0  0  0  0
   45.2970   33.6000   46.4870 C   0  0  0  0  0  0  0  0  0  0  0  0
   44.7460   34.7980   46.3240 N   0  0  0  0  0  0  0  0  0  0  0  0
   44.2860   36.3450   44.9540 H   0  0  0  0  0  0  0  0  0  0  0  0
   46.4740   32.6310   43.1940 C   0  0  2  0  0  3  0  0  0  0  0  0
   45.9780   31.1950   43.4460 C   0  0  0  0  0  3  0  0  0  0  0  0
   45.3590   30.8120   42.6130 H   0  0  0  0  0  0  0  0  0  0  0  0
   47.1960   30.3440   43.5890 C   0  0  0  0  0  3  0  0  0  0  0  0
   47.0660   29.4880   44.2730 H   0  0  0  0  0  0  0  0  0  0  0  0
   48.0650   31.2380   44.2160 O   0  0  0  0  0  0  0  0  0  0  0  0
   47.9540   32.4100   43.4690 C   0  0  0  0  0  3  0  0  0  0  0  0
   48.4550   32.2440   42.4940 H   0  0  0  0  0  0  0  0  0  0  0  0
   45.2490   35.3840   42.6660 C   0  0  0  0  0  0  0  0  0  0  0  0
   44.8220   36.6820   42.9490 F   0  0  0  0  0  0  0  0  0  0  0  0
   44.2250   34.7730   41.9420 F   0  0  0  0  0  0  0  0  0  0  0  0
   46.4430   35.3800   42.0850 F   0  0  0  0  0  0  0  0  0  0  0  0
   45.2800   33.0660   47.7730 O   0  0  0  0  0  0  0  0  0  0  0  0
   44.7880   31.7600   47.9990 C   0  0  0  0  0  0  0  0  0  0  0  0
   44.4550   31.7200   49.0650 H   0  0  0  0  0  0  0  0  0  0  0  0
   43.9070   31.5090   47.3840 H   0  0  0  0  0  0  0  0  0  0  0  0
   45.9190   30.8290   47.8480 C   0  0  0  0  0  0  0  0  0  0  0  0
   46.0120   29.6470   47.1270 C   0  0  0  0  0  0  0  0  0  0  0  0
   47.1920   28.9710   47.1600 C   0  0  0  0  0  0  0  0  0  0  0  0
   48.2430   29.4030   47.8520 N   0  0  0  0  0  0  0  0  0  0  0  0
   48.1470   30.5450   48.5450 C   0  0  0  0  0  0  0  0  0  0  0  0
   46.9870   31.2710   48.5530 N   0  0  0  0  0  0  0  0  0  0  0  0
   45.1080   29.4100   46.6180 H   0  0  0  0  0  0  0  0  0  0  0  0
   47.1950   28.0540   46.5730 H   0  0  0  0  0  0  0  0  0  0  0  0
   49.3680   30.9430   49.2820 C   0  0  0  0  0  0  0  0  0  0  0  0
   49.5080   32.3150   49.3250 F   0  0  0  0  0  0  0  0  0  0  0  0
   50.4990   30.4060   48.6630 F   0  0  0  0  0  0  0  0  0  0  0  0
   49.3670   30.4840   50.5840 F   0  0  0  0  0  0  0  0  0  0  0  0
  1  6  1  0  0  0  0
  2  3  1  0  0  0  0
  2  1  2  0  0  0  0
  3  4  2  0  0  0  0
  4  5  1  0  0  0  0
  5 20  1  0  0  0  0
  6  5  2  0  0  0  0
  7  1  1  0  0  0  0
  8  9  1  0  0  0  0
  8 14  1  0  0  0  0
  8  3  1  1  0  0  0
  9 11  1  0  0  0  0
 10  9  1  0  0  0  0
 11 13  1  0  0  0  0
 11 12  1  0  0  0  0
 14 13  1  0  0  0  0
 15 14  1  0  0  0  0
 16 17  1  0  0  0  0
 16  2  1  0  0  0  0
 18 16  1  0  0  0  0
 19 16  1  0  0  0  0
 20 21  1  0  0  0  0
 21 22  1  0  0  0  0
 23 21  1  0  0  0  0
 24 21  1  0  0  0  0
 24 29  1  0  0  0  0
 25 26  1  0  0  0  0
 25 24  2  0  0  0  0
 26 27  2  0  0  0  0
 27 28  1  0  0  0  0
 28 29  2  0  0  0  0
 28 32  1  0  0  0  0
 30 25  1  0  0  0  0
 31 26  1  0  0  0  0
 32 33  1  0  0  0  0
 32 35  1  0  0  0  0
 34 32  1  0  0  0  0
M  END
>  <minimizedAffinity>
-5.48048067

>  <minimizedRMSD>
0.9926337

$$$$
