
 OpenBabel03252505583D

 35 37  0  0  1  0  0  0  0  0999 V2000
   44.8560   35.1120   44.6630 C   0  0  0  0  0  0  0  0  0  0  0  0
   45.3100   34.4110   43.5250 C   0  0  0  0  0  0  0  0  0  0  0  0
   45.9590   33.2040   43.7460 C   0  0  0  0  0  0  0  0  0  0  0  0
   46.1150   32.7780   45.0180 N   0  0  0  0  0  0  0  0  0  0  0  0
   45.6710   33.4670   46.0700 C   0  0  0  0  0  0  0  0  0  0  0  0
   45.0450   34.6260   45.8990 N   0  0  0  0  0  0  0  0  0  0  0  0
   44.3480   36.0530   44.5000 H   0  0  0  0  0  0  0  0  0  0  0  0
   46.4980   32.3230   42.7280 C   0  0  2  0  0  3  0  0  0  0  0  0
   46.7160   30.9520   43.3960 C   0  0  0  0  0  3  0  0  0  0  0  0
   46.0650   30.1670   42.9660 H   0  0  0  0  0  0  0  0  0  0  0  0
   48.1470   30.5890   43.1610 C   0  0  0  0  0  3  0  0  0  0  0  0
   48.5920   29.9850   43.9690 H   0  0  0  0  0  0  0  0  0  0  0  0
   48.7460   31.8480   43.2170 O   0  0  0  0  0  0  0  0  0  0  0  0
   47.9490   32.6480   42.4000 C   0  0  0  0  0  3  0  0  0  0  0  0
   48.1280   32.3510   41.3480 H   0  0  0  0  0  0  0  0  0  0  0  0
   45.0820   34.9770   42.1780 C   0  0  0  0  0  0  0  0  0  0  0  0
   44.4260   36.1850   42.4230 F   0  0  0  0  0  0  0  0  0  0  0  0
   44.1610   34.1420   41.5430 F   0  0  0  0  0  0  0  0  0  0  0  0
   46.2240   35.1670   41.5290 F   0  0  0  0  0  0  0  0  0  0  0  0
   45.8340   33.0240   47.3800 O   0  0  0  0  0  0  0  0  0  0  0  0
   45.3530   31.7530   47.7710 C   0  0  0  0  0  0  0  0  0  0  0  0
   44.9400   31.8660   48.8030 H   0  0  0  0  0  0  0  0  0  0  0  0
   44.5280   31.3810   47.1390 H   0  0  0  0  0  0  0  0  0  0  0  0
   46.5120   30.8480   47.8510 C   0  0  0  0  0  0  0  0  0  0  0  0
   46.6860   29.5720   47.3310 C   0  0  0  0  0  0  0  0  0  0  0  0
   47.8730   28.9480   47.5560 C   0  0  0  0  0  0  0  0  0  0  0  0
   48.8580   29.5160   48.2480 N   0  0  0  0  0  0  0  0  0  0  0  0
   48.6840   30.7470   48.7460 C   0  0  0  0  0  0  0  0  0  0  0  0
   47.5120   31.4270   48.5550 N   0  0  0  0  0  0  0  0  0  0  0  0
   45.8290   29.2300   46.7990 H   0  0  0  0  0  0  0  0  0  0  0  0
   47.9420   27.9520   47.1200 H   0  0  0  0  0  0  0  0  0  0  0  0
   49.8350   31.2930   49.5010 C   0  0  0  0  0  0  0  0  0  0  0  0
   49.8540   32.6720   49.4650 F   0  0  0  0  0  0  0  0  0  0  0  0
   51.0320   30.8230   48.9570 F   0  0  0  0  0  0  0  0  0  0  0  0
   49.8200   30.9110   50.8270 F   0  0  0  0  0  0  0  0  0  0  0  0
  1  6  1  0  0  0  0
  2  3  1  0  0  0  0
  2  1  2  0  0  0  0
  3  4  2  0  0  0  0
  4  5  1  0  0  0  0
  5 20  1  0  0  0  0
  6  5  2  0  0  0  0
  7  1  1  0  0  0  0
  8  9  1  0  0  0  0
  8  3  1  1  0  0  0
 10  9  1  0  0  0  0
 11 13  1  0  0  0  0
 11  9  1  0  0  0  0
 11 12  1  0  0  0  0
 14  8  1  0  0  0  0
 14 13  1  0  0  0  0
 15 14  1  0  0  0  0
 16 17  1  0  0  0  0
 16  2  1  0  0  0  0
 18 16  1  0  0  0  0
 19 16  1  0  0  0  0
 20 21  1  0  0  0  0
 21 24  1  0  0  0  0
 21 22  1  0  0  0  0
 23 21  1  0  0  0  0
 24 29  1  0  0  0  0
 25 26  1  0  0  0  0
 25 24  2  0  0  0  0
 26 27  2  0  0  0  0
 27 28  1  0  0  0  0
 28 32  1  0  0  0  0
 29 28  2  0  0  0  0
 30 25  1  0  0  0  0
 31 26  1  0  0  0  0
 32 35  1  0  0  0  0
 33 32  1  0  0  0  0
 34 32  1  0  0  0  0
M  END
>  <minimizedAffinity>
-5.25643635

>  <minimizedRMSD>
1.10995162

$$$$
