
 OpenBabel03252504393D

 29 31  0  0  1  0  0  0  0  0999 V2000
   37.2990   31.3690   40.6880 C   0  0  0  0  0  0  0  0  0  0  0  0
   36.1060   30.7110   40.8680 C   0  0  0  0  0  0  0  0  0  0  0  0
   36.3760   29.7780   41.7920 N   0  0  0  0  0  0  0  0  0  0  0  0
   37.6650   29.8200   42.1950 C   0  0  0  0  0  0  0  0  0  0  0  0
   38.2220   30.8290   41.4860 N   0  0  0  0  0  0  0  0  0  0  0  0
   35.1690   30.9090   40.3710 H   0  0  0  0  0  0  0  0  0  0  0  0
   35.6950   29.0870   42.1770 H   0  0  0  0  0  0  0  0  0  0  0  0
   38.4140   29.0080   43.1750 C   0  0  1  0  0  3  0  0  0  0  0  0
   37.7730   27.6590   43.3940 C   0  0  0  0  0  3  0  0  0  0  0  0
   37.0680   27.4330   42.5820 H   0  0  0  0  0  0  0  0  0  0  0  0
   38.9510   26.7330   43.3530 C   0  0  0  0  0  3  0  0  0  0  0  0
   39.1100   26.2590   42.3660 H   0  0  0  0  0  0  0  0  0  0  0  0
   40.0840   27.5530   43.5640 O   0  0  0  0  0  0  0  0  0  0  0  0
   39.7900   28.5940   42.6660 C   0  0  0  0  0  3  0  0  0  0  0  0
   39.7530   28.2430   41.6270 H   0  0  0  0  0  0  0  0  0  0  0  0
   37.5680   32.5170   39.7530 C   0  0  0  0  0  0  0  0  0  0  0  0
   37.2250   32.1240   38.7510 H   0  0  0  0  0  0  0  0  0  0  0  0
   36.9990   33.3960   40.0410 H   0  0  0  0  0  0  0  0  0  0  0  0
   39.6140   33.8830   39.8680 C   0  0  0  0  0  3  0  0  0  0  0  0
   39.0130   32.7430   39.6070 C   0  0  0  0  0  3  0  0  0  0  0  0
   41.0610   33.9510   39.6700 C   0  0  0  0  0  0  0  0  0  0  0  0
   41.5950   33.9710   38.3480 C   0  0  0  0  0  0  0  0  0  0  0  0
   42.9850   34.0330   38.2400 C   0  0  0  0  0  0  0  0  0  0  0  0
   43.7520   34.0700   39.3700 N   0  0  0  0  0  0  0  0  0  0  0  0
   43.1990   34.0500   40.5930 C   0  0  0  0  0  0  0  0  0  0  0  0
   41.8750   33.9920   40.7400 N   0  0  0  0  0  0  0  0  0  0  0  0
   40.9450   33.9390   37.5060 H   0  0  0  0  0  0  0  0  0  0  0  0
   43.4500   34.0500   37.2730 H   0  0  0  0  0  0  0  0  0  0  0  0
   43.7810   34.0790   41.5020 H   0  0  0  0  0  0  0  0  0  0  0  0
  1  2  2  0  0  0  0
  1  5  1  0  0  0  0
  2  3  1  0  0  0  0
  3  7  1  0  0  0  0
  3  4  1  0  0  0  0
  5  4  2  0  0  0  0
  6  2  1  0  0  0  0
  8  4  1  6  0  0  0
  8  9  1  0  0  0  0
 10  9  1  0  0  0  0
 11  9  1  0  0  0  0
 11 13  1  0  0  0  0
 12 11  1  0  0  0  0
 14  8  1  0  0  0  0
 14 13  1  0  0  0  0
 15 14  1  0  0  0  0
 16 18  1  0  0  0  0
 16  1  1  0  0  0  0
 17 16  1  0  0  0  0
 20 16  1  0  0  0  0
 20 19  2  0  0  0  0
 21 19  1  0  0  0  0
 21 26  1  0  0  0  0
 22 21  2  0  0  0  0
 23 22  1  0  0  0  0
 23 24  2  0  0  0  0
 24 25  1  0  0  0  0
 25 26  2  0  0  0  0
 25 29  1  0  0  0  0
 27 22  1  0  0  0  0
 28 23  1  0  0  0  0
M  END
>  <minimizedAffinity>
-5.13397503

$$$$

 OpenBabel03252504393D

 29 31  0  0  1  0  0  0  0  0999 V2000
   36.2040   29.8020   39.7350 C   0  0  0  0  0  0  0  0  0  0  0  0
   36.1470   29.6970   38.3650 C   0  0  0  0  0  0  0  0  0  0  0  0
   36.8660   30.7370   37.9210 N   0  0  0  0  0  0  0  0  0  0  0  0
   37.3650   31.4800   38.9340 C   0  0  0  0  0  0  0  0  0  0  0  0
   36.9340   30.8690   40.0620 N   0  0  0  0  0  0  0  0  0  0  0  0
   35.6350   28.9420   37.7880 H   0  0  0  0  0  0  0  0  0  0  0  0
   37.0400   30.9740   36.9190 H   0  0  0  0  0  0  0  0  0  0  0  0
   38.2000   32.6970   38.9390 C   0  0  1  0  0  3  0  0  0  0  0  0
   37.6970   33.7210   39.9280 C   0  0  0  0  0  3  0  0  0  0  0  0
   37.0100   33.2540   40.6470 H   0  0  0  0  0  0  0  0  0  0  0  0
   38.9600   34.1610   40.6060 C   0  0  0  0  0  3  0  0  0  0  0  0
   39.1540   33.6430   41.5650 H   0  0  0  0  0  0  0  0  0  0  0  0
   40.0090   33.7640   39.7440 O   0  0  0  0  0  0  0  0  0  0  0  0
   39.6050   32.4440   39.4760 C   0  0  0  0  0  3  0  0  0  0  0  0
   39.5910   31.8250   40.3820 H   0  0  0  0  0  0  0  0  0  0  0  0
   35.5620   28.8850   40.7400 C   0  0  0  0  0  0  0  0  0  0  0  0
   35.4070   29.5500   41.6400 H   0  0  0  0  0  0  0  0  0  0  0  0
   34.6150   28.5030   40.3700 H   0  0  0  0  0  0  0  0  0  0  0  0
   37.0850   27.8310   42.3630 C   0  0  0  0  0  3  0  0  0  0  0  0
   36.5100   27.8510   41.1810 C   0  0  0  0  0  3  0  0  0  0  0  0
   38.0090   26.7350   42.6520 C   0  0  0  0  0  0  0  0  0  0  0  0
   37.7390   25.4290   42.1500 C   0  0  0  0  0  0  0  0  0  0  0  0
   38.6650   24.4360   42.4720 C   0  0  0  0  0  0  0  0  0  0  0  0
   39.7580   24.7470   43.2310 N   0  0  0  0  0  0  0  0  0  0  0  0
   39.9660   25.9950   43.6790 C   0  0  0  0  0  0  0  0  0  0  0  0
   39.1060   26.9730   43.3930 N   0  0  0  0  0  0  0  0  0  0  0  0
   36.8690   25.2480   41.5640 H   0  0  0  0  0  0  0  0  0  0  0  0
   38.5190   23.4300   42.1250 H   0  0  0  0  0  0  0  0  0  0  0  0
   40.8210   26.2680   44.2790 H   0  0  0  0  0  0  0  0  0  0  0  0
  1  5  1  0  0  0  0
  1 16  1  0  0  0  0
  2  1  2  0  0  0  0
  3  2  1  0  0  0  0
  3  4  1  0  0  0  0
  4  5  2  0  0  0  0
  6  2  1  0  0  0  0
  7  3  1  0  0  0  0
  8  4  1  1  0  0  0
  8 14  1  0  0  0  0
  8  9  1  0  0  0  0
  9 11  1  0  0  0  0
  9 10  1  0  0  0  0
 11 12  1  0  0  0  0
 13 11  1  0  0  0  0
 14 13  1  0  0  0  0
 14 15  1  0  0  0  0
 16 20  1  0  0  0  0
 16 17  1  0  0  0  0
 18 16  1  0  0  0  0
 19 21  1  0  0  0  0
 20 19  2  0  0  0  0
 21 26  1  0  0  0  0
 22 23  1  0  0  0  0
 22 21  2  0  0  0  0
 23 24  2  0  0  0  0
 24 25  1  0  0  0  0
 25 29  1  0  0  0  0
 26 25  2  0  0  0  0
 27 22  1  0  0  0  0
 28 23  1  0  0  0  0
M  END
>  <minimizedAffinity>
-4.9845686

$$$$

 OpenBabel03252504393D

 29 31  0  0  1  0  0  0  0  0999 V2000
   39.3200   25.9750   43.1210 C   0  0  0  0  0  0  0  0  0  0  0  0
   39.9550   24.7840   43.3810 C   0  0  0  0  0  0  0  0  0  0  0  0
   39.2320   23.8700   42.7200 N   0  0  0  0  0  0  0  0  0  0  0  0
   38.1870   24.4240   42.0660 C   0  0  0  0  0  0  0  0  0  0  0  0
   38.2660   25.7470   42.3350 N   0  0  0  0  0  0  0  0  0  0  0  0
   40.8370   24.6330   43.9840 H   0  0  0  0  0  0  0  0  0  0  0  0
   39.4260   22.8440   42.6920 H   0  0  0  0  0  0  0  0  0  0  0  0
   37.1320   23.8290   41.2210 C   0  0  1  0  0  3  0  0  0  0  0  0
   36.6130   24.8090   40.1970 C   0  0  0  0  0  3  0  0  0  0  0  0
   37.3110   25.6500   40.0820 H   0  0  0  0  0  0  0  0  0  0  0  0
   36.5700   23.9780   38.9490 C   0  0  0  0  0  3  0  0  0  0  0  0
   37.4590   24.1000   38.3030 H   0  0  0  0  0  0  0  0  0  0  0  0
   36.6060   22.6340   39.3900 O   0  0  0  0  0  0  0  0  0  0  0  0
   37.6590   22.7200   40.3170 C   0  0  0  0  0  3  0  0  0  0  0  0
   38.6070   22.9970   39.8390 H   0  0  0  0  0  0  0  0  0  0  0  0
   39.7120   27.3390   43.6220 C   0  0  0  0  0  0  0  0  0  0  0  0
   39.2830   27.3680   44.6660 H   0  0  0  0  0  0  0  0  0  0  0  0
   40.7920   27.4510   43.6410 H   0  0  0  0  0  0  0  0  0  0  0  0
   39.5410   29.5300   42.5120 C   0  0  0  0  0  3  0  0  0  0  0  0
   39.0010   28.3900   42.8810 C   0  0  0  0  0  3  0  0  0  0  0  0
   38.7000   30.4790   41.7820 C   0  0  0  0  0  0  0  0  0  0  0  0
   37.3410   30.1520   41.5040 C   0  0  0  0  0  0  0  0  0  0  0  0
   36.6040   31.1050   40.8000 C   0  0  0  0  0  0  0  0  0  0  0  0
   37.1970   32.2760   40.4190 N   0  0  0  0  0  0  0  0  0  0  0  0
   38.4830   32.5350   40.7060 C   0  0  0  0  0  0  0  0  0  0  0  0
   39.2220   31.6510   41.3780 N   0  0  0  0  0  0  0  0  0  0  0  0
   36.9350   29.2220   41.8270 H   0  0  0  0  0  0  0  0  0  0  0  0
   35.5750   30.9200   40.5580 H   0  0  0  0  0  0  0  0  0  0  0  0
   38.9760   33.4510   40.4180 H   0  0  0  0  0  0  0  0  0  0  0  0
  1  2  2  0  0  0  0
  1 16  1  0  0  0  0
  2  6  1  0  0  0  0
  3  2  1  0  0  0  0
  4  5  2  0  0  0  0
  4  3  1  0  0  0  0
  5  1  1  0  0  0  0
  7  3  1  0  0  0  0
  8  4  1  6  0  0  0
  9  8  1  0  0  0  0
 10  9  1  0  0  0  0
 11 13  1  0  0  0  0
 11  9  1  0  0  0  0
 12 11  1  0  0  0  0
 13 14  1  0  0  0  0
 14  8  1  0  0  0  0
 15 14  1  0  0  0  0
 16 18  1  0  0  0  0
 16 17  1  0  0  0  0
 19 20  2  0  0  0  0
 20 16  1  0  0  0  0
 21 19  1  0  0  0  0
 22 21  1  0  0  0  0
 22 27  1  0  0  0  0
 23 22  2  0  0  0  0
 24 25  2  0  0  0  0
 24 23  1  0  0  0  0
 25 26  1  0  0  0  0
 26 21  2  0  0  0  0
 28 23  1  0  0  0  0
 29 25  1  0  0  0  0
M  END
>  <minimizedAffinity>
-4.94288826

$$$$

 OpenBabel03252504393D

 29 31  0  0  1  0  0  0  0  0999 V2000
   37.3460   30.2880   41.5900 C   0  0  0  0  0  0  0  0  0  0  0  0
   36.1790   30.7960   41.0720 C   0  0  0  0  0  0  0  0  0  0  0  0
   36.5730   31.8290   40.3140 N   0  0  0  0  0  0  0  0  0  0  0  0
   37.9150   31.9900   40.3320 C   0  0  0  0  0  0  0  0  0  0  0  0
   38.3760   31.0080   41.1410 N   0  0  0  0  0  0  0  0  0  0  0  0
   35.1770   30.4360   41.2440 H   0  0  0  0  0  0  0  0  0  0  0  0
   35.9440   32.4540   39.7630 H   0  0  0  0  0  0  0  0  0  0  0  0
   38.7940   32.9720   39.6660 C   0  0  1  0  0  3  0  0  0  0  0  0
   39.2480   34.0550   40.6140 C   0  0  0  0  0  3  0  0  0  0  0  0
   39.0890   33.7450   41.6560 H   0  0  0  0  0  0  0  0  0  0  0  0
   40.7120   34.1590   40.3060 C   0  0  0  0  0  3  0  0  0  0  0  0
   41.3540   33.5810   40.9970 H   0  0  0  0  0  0  0  0  0  0  0  0
   40.8750   33.5490   39.0400 O   0  0  0  0  0  0  0  0  0  0  0  0
   40.1330   32.3730   39.2490 C   0  0  0  0  0  3  0  0  0  0  0  0
   40.5650   31.7480   40.0400 H   0  0  0  0  0  0  0  0  0  0  0  0
   37.4880   29.1120   42.5180 C   0  0  0  0  0  0  0  0  0  0  0  0
   38.5710   29.1590   42.8360 H   0  0  0  0  0  0  0  0  0  0  0  0
   36.8260   29.2080   43.3730 H   0  0  0  0  0  0  0  0  0  0  0  0
   37.4850   26.6570   42.3220 C   0  0  0  0  0  3  0  0  0  0  0  0
   37.3560   27.8480   41.7800 C   0  0  0  0  0  3  0  0  0  0  0  0
   37.3280   25.4920   41.4530 C   0  0  0  0  0  0  0  0  0  0  0  0
   37.9110   24.2460   41.8270 C   0  0  0  0  0  0  0  0  0  0  0  0
   37.7220   23.1810   40.9440 C   0  0  0  0  0  0  0  0  0  0  0  0
   37.0080   23.3720   39.7940 N   0  0  0  0  0  0  0  0  0  0  0  0
   36.4790   24.5670   39.4890 C   0  0  0  0  0  0  0  0  0  0  0  0
   36.6360   25.6100   40.3060 N   0  0  0  0  0  0  0  0  0  0  0  0
   38.4570   24.1590   42.7360 H   0  0  0  0  0  0  0  0  0  0  0  0
   38.1360   22.2160   41.1670 H   0  0  0  0  0  0  0  0  0  0  0  0
   35.9110   24.7460   38.5890 H   0  0  0  0  0  0  0  0  0  0  0  0
  1 16  1  0  0  0  0
  2  6  1  0  0  0  0
  2  1  2  0  0  0  0
  3  4  1  0  0  0  0
  3  2  1  0  0  0  0
  4  5  2  0  0  0  0
  5  1  1  0  0  0  0
  7  3  1  0  0  0  0
  8  4  1  1  0  0  0
  8  9  1  0  0  0  0
  9 10  1  0  0  0  0
 11  9  1  0  0  0  0
 11 12  1  0  0  0  0
 13 14  1  0  0  0  0
 13 11  1  0  0  0  0
 14  8  1  0  0  0  0
 14 15  1  0  0  0  0
 16 17  1  0  0  0  0
 16 18  1  0  0  0  0
 20 19  2  0  0  0  0
 20 16  1  0  0  0  0
 21 22  1  0  0  0  0
 21 19  1  0  0  0  0
 22 27  1  0  0  0  0
 23 28  1  0  0  0  0
 23 22  2  0  0  0  0
 24 23  1  0  0  0  0
 25 24  2  0  0  0  0
 25 26  1  0  0  0  0
 26 21  2  0  0  0  0
 29 25  1  0  0  0  0
M  END
>  <minimizedAffinity>
-4.9053154

$$$$

 OpenBabel03252504393D

 29 31  0  0  1  0  0  0  0  0999 V2000
   38.3500   27.6650   42.9920 C   0  0  0  0  0  0  0  0  0  0  0  0
   37.2680   28.1620   43.6790 C   0  0  0  0  0  0  0  0  0  0  0  0
   36.9740   29.3110   43.0550 N   0  0  0  0  0  0  0  0  0  0  0  0
   37.8110   29.5550   42.0220 C   0  0  0  0  0  0  0  0  0  0  0  0
   38.6640   28.5060   42.0050 N   0  0  0  0  0  0  0  0  0  0  0  0
   36.7740   27.7170   44.5300 H   0  0  0  0  0  0  0  0  0  0  0  0
   36.2000   29.9620   43.3100 H   0  0  0  0  0  0  0  0  0  0  0  0
   37.8810   30.6730   41.0600 C   0  0  1  0  0  3  0  0  0  0  0  0
   38.3320   30.2140   39.6950 C   0  0  0  0  0  3  0  0  0  0  0  0
   38.2320   29.1230   39.6040 H   0  0  0  0  0  0  0  0  0  0  0  0
   37.3700   30.9150   38.7840 C   0  0  0  0  0  3  0  0  0  0  0  0
   36.5120   30.2890   38.4760 H   0  0  0  0  0  0  0  0  0  0  0  0
   36.8150   31.9620   39.5560 O   0  0  0  0  0  0  0  0  0  0  0  0
   36.5080   31.2510   40.7300 C   0  0  0  0  0  3  0  0  0  0  0  0
   35.7650   30.4630   40.5520 H   0  0  0  0  0  0  0  0  0  0  0  0
   39.0910   26.3870   43.2730 C   0  0  0  0  0  0  0  0  0  0  0  0
   40.1640   26.6480   43.0330 H   0  0  0  0  0  0  0  0  0  0  0  0
   38.9860   26.0950   44.3140 H   0  0  0  0  0  0  0  0  0  0  0  0
   37.4850   24.9600   42.0690 C   0  0  0  0  0  3  0  0  0  0  0  0
   38.7200   25.3460   42.3040 C   0  0  0  0  0  3  0  0  0  0  0  0
   37.2770   23.9080   41.0760 C   0  0  0  0  0  0  0  0  0  0  0  0
   36.0240   23.8040   40.4050 C   0  0  0  0  0  0  0  0  0  0  0  0
   35.9010   22.7710   39.4750 C   0  0  0  0  0  0  0  0  0  0  0  0
   36.9540   21.9290   39.2520 N   0  0  0  0  0  0  0  0  0  0  0  0
   38.1150   22.0710   39.9100 C   0  0  0  0  0  0  0  0  0  0  0  0
   38.2730   23.0450   40.8070 N   0  0  0  0  0  0  0  0  0  0  0  0
   35.2390   24.4900   40.6230 H   0  0  0  0  0  0  0  0  0  0  0  0
   34.9820   22.6380   38.9360 H   0  0  0  0  0  0  0  0  0  0  0  0
   38.9620   21.4210   39.7530 H   0  0  0  0  0  0  0  0  0  0  0  0
  1 16  1  0  0  0  0
  1  2  2  0  0  0  0
  2  6  1  0  0  0  0
  3  7  1  0  0  0  0
  3  2  1  0  0  0  0
  4  3  1  0  0  0  0
  5  4  2  0  0  0  0
  5  1  1  0  0  0  0
  8  4  1  1  0  0  0
  9  8  1  0  0  0  0
 10  9  1  0  0  0  0
 11 13  1  0  0  0  0
 11  9  1  0  0  0  0
 12 11  1  0  0  0  0
 13 14  1  0  0  0  0
 14  8  1  0  0  0  0
 15 14  1  0  0  0  0
 16 18  1  0  0  0  0
 17 16  1  0  0  0  0
 19 20  2  0  0  0  0
 20 16  1  0  0  0  0
 21 19  1  0  0  0  0
 22 27  1  0  0  0  0
 22 21  2  0  0  0  0
 23 22  1  0  0  0  0
 24 23  2  0  0  0  0
 24 25  1  0  0  0  0
 25 26  2  0  0  0  0
 26 21  1  0  0  0  0
 28 23  1  0  0  0  0
 29 25  1  0  0  0  0
M  END
>  <minimizedAffinity>
-4.90380144

$$$$

 OpenBabel03252504393D

 29 31  0  0  1  0  0  0  0  0999 V2000
   37.2700   30.9090   40.2900 C   0  0  0  0  0  0  0  0  0  0  0  0
   36.1370   30.7240   41.0460 C   0  0  0  0  0  0  0  0  0  0  0  0
   36.5580   30.0340   42.1150 N   0  0  0  0  0  0  0  0  0  0  0  0
   37.8850   29.7800   42.0650 C   0  0  0  0  0  0  0  0  0  0  0  0
   38.3070   30.3420   40.9090 N   0  0  0  0  0  0  0  0  0  0  0  0
   35.1380   31.0630   40.8190 H   0  0  0  0  0  0  0  0  0  0  0  0
   35.9600   29.7140   42.9080 H   0  0  0  0  0  0  0  0  0  0  0  0
   38.7830   29.0670   42.9950 C   0  0  1  0  0  3  0  0  0  0  0  0
   38.0860   27.9160   43.6790 C   0  0  0  0  0  3  0  0  0  0  0  0
   37.1630   27.6530   43.1430 H   0  0  0  0  0  0  0  0  0  0  0  0
   39.0980   26.8160   43.5710 C   0  0  0  0  0  3  0  0  0  0  0  0
   38.9250   26.1350   42.7170 H   0  0  0  0  0  0  0  0  0  0  0  0
   40.3270   27.4600   43.2970 O   0  0  0  0  0  0  0  0  0  0  0  0
   39.9110   28.3340   42.2770 C   0  0  0  0  0  3  0  0  0  0  0  0
   39.5500   27.7940   41.3930 H   0  0  0  0  0  0  0  0  0  0  0  0
   37.3710   31.6270   38.9720 C   0  0  0  0  0  0  0  0  0  0  0  0
   37.1740   30.8130   38.2140 H   0  0  0  0  0  0  0  0  0  0  0  0
   36.6280   32.4160   38.8990 H   0  0  0  0  0  0  0  0  0  0  0  0
   39.5120   31.5960   37.7550 C   0  0  0  0  0  3  0  0  0  0  0  0
   38.7530   32.0630   38.7210 C   0  0  0  0  0  3  0  0  0  0  0  0
   40.8690   32.1280   37.6370 C   0  0  0  0  0  0  0  0  0  0  0  0
   41.8950   31.3290   37.0520 C   0  0  0  0  0  0  0  0  0  0  0  0
   43.1650   31.9040   36.9790 C   0  0  0  0  0  0  0  0  0  0  0  0
   43.3650   33.1690   37.4550 N   0  0  0  0  0  0  0  0  0  0  0  0
   42.3640   33.8800   37.9970 C   0  0  0  0  0  0  0  0  0  0  0  0
   41.1360   33.3670   38.0850 N   0  0  0  0  0  0  0  0  0  0  0  0
   41.6770   30.3490   36.6990 H   0  0  0  0  0  0  0  0  0  0  0  0
   43.9810   31.3550   36.5500 H   0  0  0  0  0  0  0  0  0  0  0  0
   42.4940   34.8810   38.3800 H   0  0  0  0  0  0  0  0  0  0  0  0
  1  5  1  0  0  0  0
  1  2  2  0  0  0  0
  2  3  1  0  0  0  0
  3  7  1  0  0  0  0
  4  3  1  0  0  0  0
  5  4  2  0  0  0  0
  6  2  1  0  0  0  0
  8  4  1  6  0  0  0
  8  9  1  0  0  0  0
 10  9  1  0  0  0  0
 11  9  1  0  0  0  0
 12 11  1  0  0  0  0
 13 11  1  0  0  0  0
 14  8  1  0  0  0  0
 14 13  1  0  0  0  0
 15 14  1  0  0  0  0
 16  1  1  0  0  0  0
 17 16  1  0  0  0  0
 18 16  1  0  0  0  0
 19 20  2  0  0  0  0
 20 16  1  0  0  0  0
 21 19  1  0  0  0  0
 21 26  1  0  0  0  0
 22 21  2  0  0  0  0
 23 22  1  0  0  0  0
 23 24  2  0  0  0  0
 24 25  1  0  0  0  0
 25 26  2  0  0  0  0
 25 29  1  0  0  0  0
 27 22  1  0  0  0  0
 28 23  1  0  0  0  0
M  END
>  <minimizedAffinity>
-4.90175247

$$$$

 OpenBabel03252504393D

 29 31  0  0  1  0  0  0  0  0999 V2000
   39.0440   32.7930   40.2490 C   0  0  0  0  0  0  0  0  0  0  0  0
   38.0170   33.6590   39.9570 C   0  0  0  0  0  0  0  0  0  0  0  0
   36.9050   32.9660   40.2370 N   0  0  0  0  0  0  0  0  0  0  0  0
   37.1820   31.7210   40.6850 C   0  0  0  0  0  0  0  0  0  0  0  0
   38.5330   31.6390   40.6830 N   0  0  0  0  0  0  0  0  0  0  0  0
   38.1000   34.6690   39.5850 H   0  0  0  0  0  0  0  0  0  0  0  0
   35.9270   33.3150   40.1330 H   0  0  0  0  0  0  0  0  0  0  0  0
   36.3040   30.6130   41.1110 C   0  0  1  0  0  3  0  0  0  0  0  0
   35.7050   29.8850   39.9330 C   0  0  0  0  0  3  0  0  0  0  0  0
   36.2600   30.1190   39.0140 H   0  0  0  0  0  0  0  0  0  0  0  0
   35.8890   28.4470   40.3150 C   0  0  0  0  0  3  0  0  0  0  0  0
   36.7900   27.9810   39.8730 H   0  0  0  0  0  0  0  0  0  0  0  0
   36.1140   28.4540   41.7110 O   0  0  0  0  0  0  0  0  0  0  0  0
   37.0700   29.4820   41.7890 C   0  0  0  0  0  3  0  0  0  0  0  0
   37.9910   29.2310   41.2480 H   0  0  0  0  0  0  0  0  0  0  0  0
   40.5180   33.0590   40.1140 C   0  0  0  0  0  0  0  0  0  0  0  0
   40.5580   34.0250   39.5290 H   0  0  0  0  0  0  0  0  0  0  0  0
   40.9840   33.1730   41.0880 H   0  0  0  0  0  0  0  0  0  0  0  0
   40.9710   31.9820   37.9460 C   0  0  0  0  0  3  0  0  0  0  0  0
   41.1510   32.0550   39.2460 C   0  0  0  0  0  3  0  0  0  0  0  0
   41.6690   30.9220   37.2190 C   0  0  0  0  0  0  0  0  0  0  0  0
   41.2160   29.5750   37.3250 C   0  0  0  0  0  0  0  0  0  0  0  0
   41.9370   28.6190   36.6060 C   0  0  0  0  0  0  0  0  0  0  0  0
   43.0120   29.0030   35.8550 N   0  0  0  0  0  0  0  0  0  0  0  0
   43.3980   30.2870   35.7900 C   0  0  0  0  0  0  0  0  0  0  0  0
   42.7360   31.2310   36.4610 N   0  0  0  0  0  0  0  0  0  0  0  0
   40.3720   29.3370   37.9270 H   0  0  0  0  0  0  0  0  0  0  0  0
   41.6480   27.5860   36.6430 H   0  0  0  0  0  0  0  0  0  0  0  0
   44.2420   30.6180   35.2050 H   0  0  0  0  0  0  0  0  0  0  0  0
  1  5  1  0  0  0  0
  2  3  1  0  0  0  0
  2  1  2  0  0  0  0
  3  4  1  0  0  0  0
  5  4  2  0  0  0  0
  6  2  1  0  0  0  0
  7  3  1  0  0  0  0
  8  4  1  6  0  0  0
  8 14  1  0  0  0  0
  9 11  1  0  0  0  0
  9  8  1  0  0  0  0
 10  9  1  0  0  0  0
 11 13  1  0  0  0  0
 12 11  1  0  0  0  0
 13 14  1  0  0  0  0
 15 14  1  0  0  0  0
 16  1  1  0  0  0  0
 16 18  1  0  0  0  0
 17 16  1  0  0  0  0
 19 20  2  0  0  0  0
 20 16  1  0  0  0  0
 21 22  1  0  0  0  0
 21 19  1  0  0  0  0
 22 27  1  0  0  0  0
 23 28  1  0  0  0  0
 23 22  2  0  0  0  0
 24 23  1  0  0  0  0
 25 24  2  0  0  0  0
 25 26  1  0  0  0  0
 26 21  2  0  0  0  0
 29 25  1  0  0  0  0
M  END
>  <minimizedAffinity>
-4.84436321

$$$$

 OpenBabel03252504393D

 29 31  0  0  1  0  0  0  0  0999 V2000
   36.5780   28.3170   41.7020 C   0  0  0  0  0  0  0  0  0  0  0  0
   37.2090   28.4470   42.9150 C   0  0  0  0  0  0  0  0  0  0  0  0
   37.6420   27.2110   43.2000 N   0  0  0  0  0  0  0  0  0  0  0  0
   37.3150   26.3230   42.2340 C   0  0  0  0  0  0  0  0  0  0  0  0
   36.6480   27.0460   41.3050 N   0  0  0  0  0  0  0  0  0  0  0  0
   37.3250   29.3470   43.4990 H   0  0  0  0  0  0  0  0  0  0  0  0
   38.1710   26.9320   44.0560 H   0  0  0  0  0  0  0  0  0  0  0  0
   37.5710   24.8750   42.1060 C   0  0  1  0  0  3  0  0  0  0  0  0
   36.5670   24.2040   41.2000 C   0  0  0  0  0  3  0  0  0  0  0  0
   36.0420   24.9520   40.5890 H   0  0  0  0  0  0  0  0  0  0  0  0
   37.4370   23.3330   40.3450 C   0  0  0  0  0  3  0  0  0  0  0  0
   37.6960   23.7850   39.3690 H   0  0  0  0  0  0  0  0  0  0  0  0
   38.6610   23.2190   41.0450 O   0  0  0  0  0  0  0  0  0  0  0  0
   38.8720   24.5700   41.3710 C   0  0  0  0  0  3  0  0  0  0  0  0
   38.9920   25.1950   40.4770 H   0  0  0  0  0  0  0  0  0  0  0  0
   35.9020   29.4050   40.9120 C   0  0  0  0  0  0  0  0  0  0  0  0
   35.8020   28.9570   39.8800 H   0  0  0  0  0  0  0  0  0  0  0  0
   34.9280   29.6430   41.3300 H   0  0  0  0  0  0  0  0  0  0  0  0
   37.6840   30.6770   39.7850 C   0  0  0  0  0  3  0  0  0  0  0  0
   36.7960   30.5610   40.7470 C   0  0  0  0  0  3  0  0  0  0  0  0
   38.5040   31.8880   39.7580 C   0  0  0  0  0  0  0  0  0  0  0  0
   39.7320   31.8960   39.0340 C   0  0  0  0  0  0  0  0  0  0  0  0
   40.4600   33.0860   39.0590 C   0  0  0  0  0  0  0  0  0  0  0  0
   39.9810   34.1610   39.7530 N   0  0  0  0  0  0  0  0  0  0  0  0
   38.8170   34.1010   40.4190 C   0  0  0  0  0  0  0  0  0  0  0  0
   38.0900   32.9830   40.4200 N   0  0  0  0  0  0  0  0  0  0  0  0
   40.0540   31.0260   38.5120 H   0  0  0  0  0  0  0  0  0  0  0  0
   41.3940   33.1570   38.5340 H   0  0  0  0  0  0  0  0  0  0  0  0
   38.4150   34.9350   40.9750 H   0  0  0  0  0  0  0  0  0  0  0  0
  1  2  2  0  0  0  0
  2  3  1  0  0  0  0
  2  6  1  0  0  0  0
  3  7  1  0  0  0  0
  4  3  1  0  0  0  0
  5  1  1  0  0  0  0
  5  4  2  0  0  0  0
  8  4  1  6  0  0  0
  9  8  1  0  0  0  0
 10  9  1  0  0  0  0
 11 13  1  0  0  0  0
 11  9  1  0  0  0  0
 12 11  1  0  0  0  0
 13 14  1  0  0  0  0
 14  8  1  0  0  0  0
 15 14  1  0  0  0  0
 16 18  1  0  0  0  0
 16  1  1  0  0  0  0
 17 16  1  0  0  0  0
 19 20  2  0  0  0  0
 20 16  1  0  0  0  0
 21 19  1  0  0  0  0
 21 26  1  0  0  0  0
 22 23  1  0  0  0  0
 22 21  2  0  0  0  0
 23 24  2  0  0  0  0
 24 25  1  0  0  0  0
 25 26  2  0  0  0  0
 25 29  1  0  0  0  0
 27 22  1  0  0  0  0
 28 23  1  0  0  0  0
M  END
>  <minimizedAffinity>
-4.77427292

$$$$

 OpenBabel03252504393D

 29 31  0  0  1  0  0  0  0  0999 V2000
   37.5560   32.2850   40.3040 C   0  0  0  0  0  0  0  0  0  0  0  0
   37.3230   33.4080   39.5470 C   0  0  0  0  0  0  0  0  0  0  0  0
   38.4910   34.0660   39.5580 N   0  0  0  0  0  0  0  0  0  0  0  0
   39.4320   33.4170   40.2790 C   0  0  0  0  0  0  0  0  0  0  0  0
   38.8180   32.3010   40.7350 N   0  0  0  0  0  0  0  0  0  0  0  0
   36.4030   33.6860   39.0570 H   0  0  0  0  0  0  0  0  0  0  0  0
   38.6830   34.9730   39.0790 H   0  0  0  0  0  0  0  0  0  0  0  0
   40.8410   33.7470   40.5740 C   0  0  1  0  0  3  0  0  0  0  0  0
   41.6230   32.5320   41.0100 C   0  0  0  0  0  3  0  0  0  0  0  0
   41.0870   31.6120   40.7400 H   0  0  0  0  0  0  0  0  0  0  0  0
   42.8900   32.6630   40.2190 C   0  0  0  0  0  3  0  0  0  0  0  0
   42.8950   32.0670   39.2870 H   0  0  0  0  0  0  0  0  0  0  0  0
   42.9370   34.0140   39.8030 O   0  0  0  0  0  0  0  0  0  0  0  0
   41.6210   34.1600   39.3300 C   0  0  0  0  0  3  0  0  0  0  0  0
   41.4140   33.4990   38.4790 H   0  0  0  0  0  0  0  0  0  0  0  0
   36.5760   31.1890   40.6230 C   0  0  0  0  0  0  0  0  0  0  0  0
   36.0470   31.5710   41.5460 H   0  0  0  0  0  0  0  0  0  0  0  0
   35.8750   31.0420   39.8070 H   0  0  0  0  0  0  0  0  0  0  0  0
   37.0790   29.3720   42.2080 C   0  0  0  0  0  3  0  0  0  0  0  0
   37.2780   29.9720   41.0550 C   0  0  0  0  0  3  0  0  0  0  0  0
   37.8600   28.1690   42.4940 C   0  0  0  0  0  0  0  0  0  0  0  0
   37.2940   26.8830   42.2520 C   0  0  0  0  0  0  0  0  0  0  0  0
   38.0990   25.7840   42.5540 C   0  0  0  0  0  0  0  0  0  0  0  0
   39.3560   25.9790   43.0520 N   0  0  0  0  0  0  0  0  0  0  0  0
   39.8420   27.2130   43.2620 C   0  0  0  0  0  0  0  0  0  0  0  0
   39.1060   28.2900   42.9860 N   0  0  0  0  0  0  0  0  0  0  0  0
   36.3070   26.7950   41.8630 H   0  0  0  0  0  0  0  0  0  0  0  0
   37.7310   24.7880   42.3960 H   0  0  0  0  0  0  0  0  0  0  0  0
   40.8310   27.3960   43.6530 H   0  0  0  0  0  0  0  0  0  0  0  0
  1 16  1  0  0  0  0
  1  5  1  0  0  0  0
  2  3  1  0  0  0  0
  2  1  2  0  0  0  0
  3  4  1  0  0  0  0
  4  5  2  0  0  0  0
  6  2  1  0  0  0  0
  7  3  1  0  0  0  0
  8  4  1  6  0  0  0
  8  9  1  0  0  0  0
 10  9  1  0  0  0  0
 11  9  1  0  0  0  0
 12 11  1  0  0  0  0
 13 11  1  0  0  0  0
 14 13  1  0  0  0  0
 14  8  1  0  0  0  0
 15 14  1  0  0  0  0
 16 20  1  0  0  0  0
 16 17  1  0  0  0  0
 18 16  1  0  0  0  0
 19 21  1  0  0  0  0
 20 19  2  0  0  0  0
 21 26  1  0  0  0  0
 22 21  2  0  0  0  0
 22 23  1  0  0  0  0
 23 24  2  0  0  0  0
 24 25  1  0  0  0  0
 25 29  1  0  0  0  0
 26 25  2  0  0  0  0
 27 22  1  0  0  0  0
 28 23  1  0  0  0  0
M  END
>  <minimizedAffinity>
-4.75272799

$$$$
