
 OpenBabel03252505313D

 26 27  0  0  1  0  0  0  0  0999 V2000
   46.7460   31.6620   48.6530 O   0  0  0  0  0  0  0  0  0  0  0  0
   45.8040   32.0220   47.4980 P   0  0  1  0  0  0  0  0  0  0  0  0
   44.4280   32.8010   48.0550 O   0  0  0  0  0  0  0  0  0  0  0  0
   44.5870   33.3370   48.8790 H   0  0  0  0  0  0  0  0  0  0  0  0
   46.6700   33.0100   46.4350 O   0  0  0  0  0  0  0  0  0  0  0  0
   44.5420   35.4220   44.9560 C   0  0  0  0  0  0  0  0  0  0  0  0
   44.9940   35.5380   43.6270 C   0  0  0  0  0  0  0  0  0  0  0  0
   46.0980   34.7180   43.2640 C   0  0  0  0  0  0  0  0  0  0  0  0
   46.6280   33.8920   44.2210 N   0  0  0  0  0  0  0  0  0  0  0  0
   46.1480   33.8340   45.4670 C   0  0  0  0  0  0  0  0  0  0  0  0
   45.1130   34.5910   45.8370 N   0  0  0  0  0  0  0  0  0  0  0  0
   43.6940   36.0380   45.2740 H   0  0  0  0  0  0  0  0  0  0  0  0
   44.5550   36.1920   42.9100 H   0  0  0  0  0  0  0  0  0  0  0  0
   46.5110   34.7410   42.2680 H   0  0  0  0  0  0  0  0  0  0  0  0
   45.3400   30.5670   46.8000 O   0  0  0  0  0  0  0  0  0  0  0  0
   45.2380   29.6110   47.7680 C   0  0  0  0  0  0  0  0  0  0  0  0
   46.0200   29.6100   48.5260 H   0  0  0  0  0  0  0  0  0  0  0  0
   44.2780   29.8020   48.3160 H   0  0  0  0  0  0  0  0  0  0  0  0
   45.1170   28.2070   47.2310 C   0  0  2  0  0  3  0  0  0  0  0  0
   43.9720   28.0410   46.2500 C   0  0  0  0  0  3  0  0  0  0  0  0
   44.3330   28.2910   45.2450 H   0  0  0  0  0  0  0  0  0  0  0  0
   43.7270   26.5360   46.4240 C   0  0  0  0  0  3  0  0  0  0  0  0
   42.7400   26.2250   46.0350 H   0  0  0  0  0  0  0  0  0  0  0  0
   43.8010   26.3700   47.7830 O   0  0  0  0  0  0  0  0  0  0  0  0
   44.6900   27.2670   48.3240 C   0  0  0  0  0  3  0  0  0  0  0  0
   44.2260   27.8240   49.1890 H   0  0  0  0  0  0  0  0  0  0  0  0
  2  3  1  0  0  0  0
  2  1  2  1  0  0  0
  3  4  1  0  0  0  0
  5  2  1  0  0  0  0
  6 12  1  0  0  0  0
  6 11  1  0  0  0  0
  7  6  2  0  0  0  0
  8  7  1  0  0  0  0
  8  9  2  0  0  0  0
  9 10  1  0  0  0  0
 10 11  2  0  0  0  0
 10  5  1  0  0  0  0
 13  7  1  0  0  0  0
 14  8  1  0  0  0  0
 15  2  1  0  0  0  0
 15 16  1  0  0  0  0
 16 18  1  0  0  0  0
 16 17  1  0  0  0  0
 19 16  1  1  0  0  0
 19 25  1  0  0  0  0
 20 22  1  0  0  0  0
 20 19  1  0  0  0  0
 21 20  1  0  0  0  0
 22 24  1  0  0  0  0
 23 22  1  0  0  0  0
 24 25  1  0  0  0  0
 25 26  1  0  0  0  0
M  END
>  <minimizedAffinity>
-4.44834948

>  <minimizedRMSD>
1.1443193

$$$$
