
 OpenBabel03252505313D

 26 27  0  0  1  0  0  0  0  0999 V2000
   37.7330   29.8200   42.5710 O   0  0  0  0  0  0  0  0  0  0  0  0
   36.9120   29.9060   41.2790 P   0  0  1  0  0  0  0  0  0  0  0  0
   35.6470   30.9960   41.4330 O   0  0  0  0  0  0  0  0  0  0  0  0
   35.8490   31.7440   42.0590 H   0  0  0  0  0  0  0  0  0  0  0  0
   37.9670   30.3750   40.0460 O   0  0  0  0  0  0  0  0  0  0  0  0
   38.6870   33.8000   40.5750 C   0  0  0  0  0  0  0  0  0  0  0  0
   39.8550   34.0450   39.8270 C   0  0  0  0  0  0  0  0  0  0  0  0
   40.3900   32.9370   39.1140 C   0  0  0  0  0  0  0  0  0  0  0  0
   39.7380   31.7360   39.2100 N   0  0  0  0  0  0  0  0  0  0  0  0
   38.6310   31.5740   39.9420 C   0  0  0  0  0  0  0  0  0  0  0  0
   38.1050   32.5950   40.6210 N   0  0  0  0  0  0  0  0  0  0  0  0
   38.2450   34.6290   41.1390 H   0  0  0  0  0  0  0  0  0  0  0  0
   40.3340   34.9950   39.7760 H   0  0  0  0  0  0  0  0  0  0  0  0
   41.2820   33.0320   38.5150 H   0  0  0  0  0  0  0  0  0  0  0  0
   36.2630   28.3770   41.0330 O   0  0  0  0  0  0  0  0  0  0  0  0
   36.6250   27.5580   42.0620 C   0  0  0  0  0  0  0  0  0  0  0  0
   37.1300   28.0350   42.9010 H   0  0  0  0  0  0  0  0  0  0  0  0
   35.6790   27.1220   42.4800 H   0  0  0  0  0  0  0  0  0  0  0  0
   37.4570   26.3740   41.6390 C   0  0  2  0  0  3  0  0  0  0  0  0
   36.8980   25.0490   42.1260 C   0  0  0  0  0  3  0  0  0  0  0  0
   36.1750   24.6830   41.3880 H   0  0  0  0  0  0  0  0  0  0  0  0
   38.1970   24.2320   42.1290 C   0  0  0  0  0  3  0  0  0  0  0  0
   38.1080   23.3090   42.7320 H   0  0  0  0  0  0  0  0  0  0  0  0
   39.1040   25.1000   42.6760 O   0  0  0  0  0  0  0  0  0  0  0  0
   38.7860   26.3940   42.3440 C   0  0  0  0  0  3  0  0  0  0  0  0
   38.7580   27.0520   43.2590 H   0  0  0  0  0  0  0  0  0  0  0  0
  2  3  1  0  0  0  0
  2  1  2  1  0  0  0
  3  4  1  0  0  0  0
  5  2  1  0  0  0  0
  6 11  1  0  0  0  0
  6 12  1  0  0  0  0
  7  6  2  0  0  0  0
  8  9  2  0  0  0  0
  8  7  1  0  0  0  0
  9 10  1  0  0  0  0
 10  5  1  0  0  0  0
 10 11  2  0  0  0  0
 13  7  1  0  0  0  0
 14  8  1  0  0  0  0
 15  2  1  0  0  0  0
 15 16  1  0  0  0  0
 16 18  1  0  0  0  0
 16 17  1  0  0  0  0
 19 16  1  1  0  0  0
 19 20  1  0  0  0  0
 19 25  1  0  0  0  0
 20 22  1  0  0  0  0
 21 20  1  0  0  0  0
 22 24  1  0  0  0  0
 22 23  1  0  0  0  0
 25 24  1  0  0  0  0
 25 26  1  0  0  0  0
M  END
>  <minimizedAffinity>
-4.66650963

$$$$

 OpenBabel03252505313D

 26 27  0  0  1  0  0  0  0  0999 V2000
   36.5500   31.1330   38.8270 O   0  0  0  0  0  0  0  0  0  0  0  0
   37.0250   31.2770   40.2780 P   0  0  1  0  0  0  0  0  0  0  0  0
   35.7480   31.1230   41.3540 O   0  0  0  0  0  0  0  0  0  0  0  0
   35.0270   30.5210   41.0230 H   0  0  0  0  0  0  0  0  0  0  0  0
   38.1880   30.0810   40.5440 O   0  0  0  0  0  0  0  0  0  0  0  0
   37.5630   28.5240   43.6610 C   0  0  0  0  0  0  0  0  0  0  0  0
   37.9940   27.1930   43.4950 C   0  0  0  0  0  0  0  0  0  0  0  0
   38.5240   26.8580   42.2180 C   0  0  0  0  0  0  0  0  0  0  0  0
   38.5720   27.8410   41.2650 N   0  0  0  0  0  0  0  0  0  0  0  0
   38.1440   29.0870   41.4920 C   0  0  0  0  0  0  0  0  0  0  0  0
   37.6420   29.4310   42.6790 N   0  0  0  0  0  0  0  0  0  0  0  0
   37.1480   28.8210   44.6310 H   0  0  0  0  0  0  0  0  0  0  0  0
   37.9400   26.4560   44.2620 H   0  0  0  0  0  0  0  0  0  0  0  0
   38.8770   25.8630   42.0000 H   0  0  0  0  0  0  0  0  0  0  0  0
   37.6460   32.8310   40.4160 O   0  0  0  0  0  0  0  0  0  0  0  0
   38.7820   32.9350   39.6690 C   0  0  0  0  0  0  0  0  0  0  0  0
   39.1260   32.0210   39.1880 H   0  0  0  0  0  0  0  0  0  0  0  0
   38.5620   33.6560   38.8380 H   0  0  0  0  0  0  0  0  0  0  0  0
   39.9520   33.5290   40.4130 C   0  0  2  0  0  3  0  0  0  0  0  0
   40.9830   34.1590   39.4950 C   0  0  0  0  0  3  0  0  0  0  0  0
   40.6950   35.2010   39.3090 H   0  0  0  0  0  0  0  0  0  0  0  0
   42.2120   34.0450   40.4060 C   0  0  0  0  0  3  0  0  0  0  0  0
   43.1590   34.1670   39.8480 H   0  0  0  0  0  0  0  0  0  0  0  0
   42.0950   32.7820   40.9220 O   0  0  0  0  0  0  0  0  0  0  0  0
   40.7710   32.4400   41.0490 C   0  0  0  0  0  3  0  0  0  0  0  0
   40.5640   31.4380   40.5760 H   0  0  0  0  0  0  0  0  0  0  0  0
  2  1  2  6  0  0  0
  2 15  1  0  0  0  0
  2  5  1  0  0  0  0
  2  3  1  0  0  0  0
  4  3  1  0  0  0  0
  5 10  1  0  0  0  0
  6 12  1  0  0  0  0
  7  6  1  0  0  0  0
  7 13  1  0  0  0  0
  8  7  2  0  0  0  0
  9 10  2  0  0  0  0
  9  8  1  0  0  0  0
 10 11  1  0  0  0  0
 11  6  2  0  0  0  0
 14  8  1  0  0  0  0
 16 15  1  0  0  0  0
 17 16  1  0  0  0  0
 18 16  1  0  0  0  0
 19 16  1  6  0  0  0
 19 25  1  0  0  0  0
 20 22  1  0  0  0  0
 20 19  1  0  0  0  0
 21 20  1  0  0  0  0
 22 24  1  0  0  0  0
 23 22  1  0  0  0  0
 24 25  1  0  0  0  0
 26 25  1  0  0  0  0
M  END
>  <minimizedAffinity>
-4.48458529

$$$$

 OpenBabel03252505313D

 26 27  0  0  1  0  0  0  0  0999 V2000
   34.2380   29.2590   39.7030 O   0  0  0  0  0  0  0  0  0  0  0  0
   35.6070   29.5580   40.3270 P   0  0  1  0  0  0  0  0  0  0  0  0
   35.5240   30.8620   41.3790 O   0  0  0  0  0  0  0  0  0  0  0  0
   34.6370   30.9520   41.8230 H   0  0  0  0  0  0  0  0  0  0  0  0
   36.1050   28.1610   41.1350 O   0  0  0  0  0  0  0  0  0  0  0  0
   39.0470   29.0380   42.8980 C   0  0  0  0  0  0  0  0  0  0  0  0
   39.6180   27.8090   43.2840 C   0  0  0  0  0  0  0  0  0  0  0  0
   38.9150   26.6370   42.8920 C   0  0  0  0  0  0  0  0  0  0  0  0
   37.7540   26.7920   42.1810 N   0  0  0  0  0  0  0  0  0  0  0  0
   37.2680   27.9920   41.8490 C   0  0  0  0  0  0  0  0  0  0  0  0
   37.9050   29.1100   42.2020 N   0  0  0  0  0  0  0  0  0  0  0  0
   39.5590   29.9640   43.1820 H   0  0  0  0  0  0  0  0  0  0  0  0
   40.5250   27.7290   43.8380 H   0  0  0  0  0  0  0  0  0  0  0  0
   39.2780   25.6540   43.1440 H   0  0  0  0  0  0  0  0  0  0  0  0
   36.6220   29.9700   39.0560 O   0  0  0  0  0  0  0  0  0  0  0  0
   36.9780   31.2820   39.1640 C   0  0  0  0  0  0  0  0  0  0  0  0
   36.8070   31.9010   38.2850 H   0  0  0  0  0  0  0  0  0  0  0  0
   36.3470   31.7260   39.9790 H   0  0  0  0  0  0  0  0  0  0  0  0
   38.4040   31.4960   39.6050 C   0  0  2  0  0  3  0  0  0  0  0  0
   38.5470   32.5830   40.6540 C   0  0  0  0  0  3  0  0  0  0  0  0
   38.4100   32.1330   41.6440 H   0  0  0  0  0  0  0  0  0  0  0  0
   40.0060   32.9780   40.3880 C   0  0  0  0  0  3  0  0  0  0  0  0
   40.2590   33.9610   40.8270 H   0  0  0  0  0  0  0  0  0  0  0  0
   40.0700   33.0110   39.0200 O   0  0  0  0  0  0  0  0  0  0  0  0
   39.2140   32.0820   38.4810 C   0  0  0  0  0  3  0  0  0  0  0  0
   38.5520   32.5490   37.6960 H   0  0  0  0  0  0  0  0  0  0  0  0
  2  1  2  6  0  0  0
  2  5  1  0  0  0  0
  2  3  1  0  0  0  0
  3  4  1  0  0  0  0
  5 10  1  0  0  0  0
  6 12  1  0  0  0  0
  6  7  1  0  0  0  0
  7 13  1  0  0  0  0
  8 14  1  0  0  0  0
  8  7  2  0  0  0  0
  9  8  1  0  0  0  0
 10  9  2  0  0  0  0
 10 11  1  0  0  0  0
 11  6  2  0  0  0  0
 15 16  1  0  0  0  0
 15  2  1  0  0  0  0
 16 18  1  0  0  0  0
 17 16  1  0  0  0  0
 19 16  1  6  0  0  0
 19 20  1  0  0  0  0
 20 21  1  0  0  0  0
 22 20  1  0  0  0  0
 22 23  1  0  0  0  0
 24 22  1  0  0  0  0
 25 24  1  0  0  0  0
 25 19  1  0  0  0  0
 26 25  1  0  0  0  0
M  END
>  <minimizedAffinity>
-4.46773958

$$$$

 OpenBabel03252505313D

 26 27  0  0  1  0  0  0  0  0999 V2000
   38.1840   31.3310   41.0640 O   0  0  0  0  0  0  0  0  0  0  0  0
   37.0680   30.2810   41.1400 P   0  0  1  0  0  0  0  0  0  0  0  0
   35.5670   31.0030   41.3310 O   0  0  0  0  0  0  0  0  0  0  0  0
   35.5070   31.9020   40.9070 H   0  0  0  0  0  0  0  0  0  0  0  0
   37.1290   29.3810   39.7120 O   0  0  0  0  0  0  0  0  0  0  0  0
   33.8670   28.8560   38.4400 C   0  0  0  0  0  0  0  0  0  0  0  0
   34.0070   28.9310   37.0410 C   0  0  0  0  0  0  0  0  0  0  0  0
   35.3190   29.1790   36.5510 C   0  0  0  0  0  0  0  0  0  0  0  0
   36.3300   29.3230   37.4660 N   0  0  0  0  0  0  0  0  0  0  0  0
   36.1250   29.2390   38.7840 C   0  0  0  0  0  0  0  0  0  0  0  0
   34.9050   29.0080   39.2730 N   0  0  0  0  0  0  0  0  0  0  0  0
   32.8710   28.6660   38.8560 H   0  0  0  0  0  0  0  0  0  0  0  0
   33.1960   28.8130   36.3600 H   0  0  0  0  0  0  0  0  0  0  0  0
   35.5200   29.2530   35.4950 H   0  0  0  0  0  0  0  0  0  0  0  0
   37.3860   29.3570   42.5050 O   0  0  0  0  0  0  0  0  0  0  0  0
   36.7390   28.1600   42.4050 C   0  0  0  0  0  0  0  0  0  0  0  0
   35.7250   28.1280   42.7990 H   0  0  0  0  0  0  0  0  0  0  0  0
   36.6510   27.9270   41.3100 H   0  0  0  0  0  0  0  0  0  0  0  0
   37.4990   27.0020   42.9980 C   0  0  2  0  0  3  0  0  0  0  0  0
   38.8870   27.3830   43.4810 C   0  0  0  0  0  3  0  0  0  0  0  0
   38.8110   27.7390   44.5150 H   0  0  0  0  0  0  0  0  0  0  0  0
   39.5580   26.0070   43.3830 C   0  0  0  0  0  3  0  0  0  0  0  0
   40.6620   26.0790   43.3980 H   0  0  0  0  0  0  0  0  0  0  0  0
   39.1050   25.5300   42.1820 O   0  0  0  0  0  0  0  0  0  0  0  0
   37.8390   26.0000   41.9290 C   0  0  0  0  0  3  0  0  0  0  0  0
   37.7750   26.4570   40.9000 H   0  0  0  0  0  0  0  0  0  0  0  0
  2  1  2  6  0  0  0
  2  3  1  0  0  0  0
  2 15  1  0  0  0  0
  4  3  1  0  0  0  0
  5  2  1  0  0  0  0
  6 12  1  0  0  0  0
  6 11  1  0  0  0  0
  7  6  2  0  0  0  0
  8  7  1  0  0  0  0
  8  9  2  0  0  0  0
  9 10  1  0  0  0  0
 10 11  2  0  0  0  0
 10  5  1  0  0  0  0
 13  7  1  0  0  0  0
 14  8  1  0  0  0  0
 16 15  1  0  0  0  0
 16 17  1  0  0  0  0
 18 16  1  0  0  0  0
 19 16  1  6  0  0  0
 19 20  1  0  0  0  0
 20 21  1  0  0  0  0
 22 23  1  0  0  0  0
 22 20  1  0  0  0  0
 24 22  1  0  0  0  0
 25 24  1  0  0  0  0
 25 19  1  0  0  0  0
 26 25  1  0  0  0  0
M  END
>  <minimizedAffinity>
-4.44694567

$$$$

 OpenBabel03252505313D

 26 27  0  0  1  0  0  0  0  0999 V2000
   35.8270   28.5590   40.9420 O   0  0  0  0  0  0  0  0  0  0  0  0
   36.6500   29.8050   41.2930 P   0  0  1  0  0  0  0  0  0  0  0  0
   35.6770   31.1670   41.3940 O   0  0  0  0  0  0  0  0  0  0  0  0
   34.7500   30.9650   41.6930 H   0  0  0  0  0  0  0  0  0  0  0  0
   37.4170   29.4990   42.7670 O   0  0  0  0  0  0  0  0  0  0  0  0
   39.4430   26.7370   43.6610 C   0  0  0  0  0  0  0  0  0  0  0  0
   40.7630   27.1590   43.4100 C   0  0  0  0  0  0  0  0  0  0  0  0
   40.9160   28.4790   42.9030 C   0  0  0  0  0  0  0  0  0  0  0  0
   39.7840   29.2260   42.7030 N   0  0  0  0  0  0  0  0  0  0  0  0
   38.5590   28.7600   42.9640 C   0  0  0  0  0  0  0  0  0  0  0  0
   38.3830   27.5260   43.4390 N   0  0  0  0  0  0  0  0  0  0  0  0
   39.2840   25.7260   44.0520 H   0  0  0  0  0  0  0  0  0  0  0  0
   41.6190   26.5490   43.5790 H   0  0  0  0  0  0  0  0  0  0  0  0
   41.8890   28.8860   42.6810 H   0  0  0  0  0  0  0  0  0  0  0  0
   37.7330   30.0230   40.0300 O   0  0  0  0  0  0  0  0  0  0  0  0
   37.2320   30.9400   39.1540 C   0  0  0  0  0  0  0  0  0  0  0  0
   36.2210   31.2910   39.3520 H   0  0  0  0  0  0  0  0  0  0  0  0
   37.8900   31.8480   39.2200 H   0  0  0  0  0  0  0  0  0  0  0  0
   37.2940   30.5080   37.7110 C   0  0  2  0  0  3  0  0  0  0  0  0
   36.1250   29.6310   37.3010 C   0  0  0  0  0  3  0  0  0  0  0  0
   35.3030   30.2770   36.9720 H   0  0  0  0  0  0  0  0  0  0  0  0
   36.7860   28.8850   36.1350 C   0  0  0  0  0  3  0  0  0  0  0  0
   36.2310   27.9700   35.8550 H   0  0  0  0  0  0  0  0  0  0  0  0
   38.0280   28.5840   36.6280 O   0  0  0  0  0  0  0  0  0  0  0  0
   38.4430   29.5600   37.5010 C   0  0  0  0  0  3  0  0  0  0  0  0
   38.7900   29.1100   38.4750 H   0  0  0  0  0  0  0  0  0  0  0  0
  2  1  2  6  0  0  0
  2  3  1  0  0  0  0
  2  5  1  0  0  0  0
  3  4  1  0  0  0  0
  5 10  1  0  0  0  0
  6 12  1  0  0  0  0
  7 13  1  0  0  0  0
  7  6  2  0  0  0  0
  8  7  1  0  0  0  0
  9  8  2  0  0  0  0
  9 10  1  0  0  0  0
 10 11  2  0  0  0  0
 11  6  1  0  0  0  0
 14  8  1  0  0  0  0
 15  2  1  0  0  0  0
 16 18  1  0  0  0  0
 16 17  1  0  0  0  0
 16 15  1  0  0  0  0
 19 16  1  1  0  0  0
 20 19  1  0  0  0  0
 21 20  1  0  0  0  0
 22 24  1  0  0  0  0
 22 20  1  0  0  0  0
 23 22  1  0  0  0  0
 24 25  1  0  0  0  0
 25 19  1  0  0  0  0
 25 26  1  0  0  0  0
M  END
>  <minimizedAffinity>
-4.3512516

$$$$

 OpenBabel03252505313D

 26 27  0  0  1  0  0  0  0  0999 V2000
   39.3130   27.6800   43.5820 O   0  0  0  0  0  0  0  0  0  0  0  0
   38.3030   28.4520   42.7240 P   0  0  1  0  0  0  0  0  0  0  0  0
   37.1640   29.2300   43.6780 O   0  0  0  0  0  0  0  0  0  0  0  0
   37.5190   29.5040   44.5680 H   0  0  0  0  0  0  0  0  0  0  0  0
   39.1770   29.5630   41.7990 O   0  0  0  0  0  0  0  0  0  0  0  0
   36.7900   31.7840   40.4210 C   0  0  0  0  0  0  0  0  0  0  0  0
   37.5450   32.8650   39.9240 C   0  0  0  0  0  0  0  0  0  0  0  0
   38.9540   32.7810   40.0960 C   0  0  0  0  0  0  0  0  0  0  0  0
   39.4600   31.6710   40.7220 N   0  0  0  0  0  0  0  0  0  0  0  0
   38.6820   30.6810   41.1700 C   0  0  0  0  0  0  0  0  0  0  0  0
   37.3570   30.7310   41.0230 N   0  0  0  0  0  0  0  0  0  0  0  0
   35.7010   31.8130   40.3070 H   0  0  0  0  0  0  0  0  0  0  0  0
   37.1150   33.7120   39.4420 H   0  0  0  0  0  0  0  0  0  0  0  0
   39.6110   33.5620   39.7480 H   0  0  0  0  0  0  0  0  0  0  0  0
   37.5110   27.3060   41.7870 O   0  0  0  0  0  0  0  0  0  0  0  0
   37.0380   26.3100   42.5890 C   0  0  0  0  0  0  0  0  0  0  0  0
   37.5330   26.1920   43.5520 H   0  0  0  0  0  0  0  0  0  0  0  0
   35.9680   26.5590   42.8230 H   0  0  0  0  0  0  0  0  0  0  0  0
   36.9960   24.9570   41.9270 C   0  0  2  0  0  3  0  0  0  0  0  0
   38.3090   24.2020   42.0310 C   0  0  0  0  0  3  0  0  0  0  0  0
   38.3120   23.6350   42.9700 H   0  0  0  0  0  0  0  0  0  0  0  0
   38.1590   23.2960   40.8010 C   0  0  0  0  0  3  0  0  0  0  0  0
   39.1230   22.8560   40.4870 H   0  0  0  0  0  0  0  0  0  0  0  0
   37.6660   24.1500   39.8500 O   0  0  0  0  0  0  0  0  0  0  0  0
   36.8790   25.1120   40.4350 C   0  0  0  0  0  3  0  0  0  0  0  0
   37.1870   26.1440   40.1020 H   0  0  0  0  0  0  0  0  0  0  0  0
  2  1  2  1  0  0  0
  2  3  1  0  0  0  0
  3  4  1  0  0  0  0
  5  2  1  0  0  0  0
  6 11  1  0  0  0  0
  7  8  1  0  0  0  0
  7  6  2  0  0  0  0
  8  9  2  0  0  0  0
  9 10  1  0  0  0  0
 10  5  1  0  0  0  0
 11 10  2  0  0  0  0
 12  6  1  0  0  0  0
 13  7  1  0  0  0  0
 14  8  1  0  0  0  0
 15 16  1  0  0  0  0
 15  2  1  0  0  0  0
 16 18  1  0  0  0  0
 16 17  1  0  0  0  0
 19 20  1  0  0  0  0
 19 16  1  1  0  0  0
 20 21  1  0  0  0  0
 22 20  1  0  0  0  0
 23 22  1  0  0  0  0
 24 25  1  0  0  0  0
 24 22  1  0  0  0  0
 25 19  1  0  0  0  0
 26 25  1  0  0  0  0
M  END
>  <minimizedAffinity>
-4.3347764

$$$$

 OpenBabel03252505313D

 26 27  0  0  1  0  0  0  0  0999 V2000
   37.2580   29.4310   42.5620 O   0  0  0  0  0  0  0  0  0  0  0  0
   36.6800   29.8780   41.2130 P   0  0  1  0  0  0  0  0  0  0  0  0
   35.6710   31.2050   41.3940 O   0  0  0  0  0  0  0  0  0  0  0  0
   35.9320   31.7950   42.1530 H   0  0  0  0  0  0  0  0  0  0  0  0
   37.9860   30.2430   40.2060 O   0  0  0  0  0  0  0  0  0  0  0  0
   40.2250   32.6840   38.9560 C   0  0  0  0  0  0  0  0  0  0  0  0
   39.9610   33.8410   39.7140 C   0  0  0  0  0  0  0  0  0  0  0  0
   38.9440   33.7270   40.7020 C   0  0  0  0  0  0  0  0  0  0  0  0
   38.3110   32.5200   40.8370 N   0  0  0  0  0  0  0  0  0  0  0  0
   38.6130   31.4600   40.0800 C   0  0  0  0  0  0  0  0  0  0  0  0
   39.5620   31.5350   39.1450 N   0  0  0  0  0  0  0  0  0  0  0  0
   41.0020   32.7310   38.1840 H   0  0  0  0  0  0  0  0  0  0  0  0
   40.4760   34.7630   39.5800 H   0  0  0  0  0  0  0  0  0  0  0  0
   38.6750   34.5620   41.3290 H   0  0  0  0  0  0  0  0  0  0  0  0
   35.7620   28.5910   40.6470 O   0  0  0  0  0  0  0  0  0  0  0  0
   34.7850   29.0600   39.8180 C   0  0  0  0  0  0  0  0  0  0  0  0
   33.7620   28.9560   40.1750 H   0  0  0  0  0  0  0  0  0  0  0  0
   34.9580   30.1620   39.6990 H   0  0  0  0  0  0  0  0  0  0  0  0
   34.8430   28.4940   38.4220 C   0  0  2  0  0  3  0  0  0  0  0  0
   35.6890   27.2390   38.3220 C   0  0  0  0  0  3  0  0  0  0  0  0
   35.0550   26.3720   38.5430 H   0  0  0  0  0  0  0  0  0  0  0  0
   36.0660   27.3250   36.8370 C   0  0  0  0  0  3  0  0  0  0  0  0
   36.9280   26.6790   36.5860 H   0  0  0  0  0  0  0  0  0  0  0  0
   36.3710   28.6500   36.6740 O   0  0  0  0  0  0  0  0  0  0  0  0
   35.6080   29.4210   37.5170 C   0  0  0  0  0  3  0  0  0  0  0  0
   36.2520   30.1350   38.1060 H   0  0  0  0  0  0  0  0  0  0  0  0
  2  3  1  0  0  0  0
  2  1  2  1  0  0  0
  3  4  1  0  0  0  0
  5  2  1  0  0  0  0
  6 11  2  0  0  0  0
  6  7  1  0  0  0  0
  7  8  2  0  0  0  0
  8  9  1  0  0  0  0
  8 14  1  0  0  0  0
 10  5  1  0  0  0  0
 10  9  2  0  0  0  0
 11 10  1  0  0  0  0
 12  6  1  0  0  0  0
 13  7  1  0  0  0  0
 15  2  1  0  0  0  0
 16 17  1  0  0  0  0
 16 15  1  0  0  0  0
 18 16  1  0  0  0  0
 19 16  1  1  0  0  0
 20 19  1  0  0  0  0
 20 21  1  0  0  0  0
 22 20  1  0  0  0  0
 23 22  1  0  0  0  0
 24 22  1  0  0  0  0
 24 25  1  0  0  0  0
 25 26  1  0  0  0  0
 25 19  1  0  0  0  0
M  END
>  <minimizedAffinity>
-4.17400551

$$$$

 OpenBabel03252505313D

 26 27  0  0  1  0  0  0  0  0999 V2000
   39.3720   32.7270   39.0850 O   0  0  0  0  0  0  0  0  0  0  0  0
   38.8720   32.3680   40.4900 P   0  0  1  0  0  0  0  0  0  0  0  0
   39.2410   33.5760   41.5930 O   0  0  0  0  0  0  0  0  0  0  0  0
   39.2660   34.4840   41.1860 H   0  0  0  0  0  0  0  0  0  0  0  0
   37.2020   32.1380   40.3820 O   0  0  0  0  0  0  0  0  0  0  0  0
   35.1680   29.2400   40.3440 C   0  0  0  0  0  0  0  0  0  0  0  0
   35.1960   28.7950   39.0090 C   0  0  0  0  0  0  0  0  0  0  0  0
   35.9740   29.5680   38.1030 C   0  0  0  0  0  0  0  0  0  0  0  0
   36.6250   30.6700   38.5940 N   0  0  0  0  0  0  0  0  0  0  0  0
   36.5530   31.0360   39.8780 C   0  0  0  0  0  0  0  0  0  0  0  0
   35.8320   30.3300   40.7510 N   0  0  0  0  0  0  0  0  0  0  0  0
   34.5790   28.6710   41.0720 H   0  0  0  0  0  0  0  0  0  0  0  0
   34.6760   27.9310   38.6640 H   0  0  0  0  0  0  0  0  0  0  0  0
   36.0530   29.3020   37.0610 H   0  0  0  0  0  0  0  0  0  0  0  0
   39.6930   30.9750   40.9390 O   0  0  0  0  0  0  0  0  0  0  0  0
   39.4150   30.6830   42.2420 C   0  0  0  0  0  0  0  0  0  0  0  0
   40.1280   31.0500   42.9780 H   0  0  0  0  0  0  0  0  0  0  0  0
   38.4390   31.1780   42.4870 H   0  0  0  0  0  0  0  0  0  0  0  0
   39.1960   29.2150   42.5080 C   0  0  2  0  0  3  0  0  0  0  0  0
   38.8340   28.4310   41.2590 C   0  0  0  0  0  3  0  0  0  0  0  0
   39.7600   28.1060   40.7710 H   0  0  0  0  0  0  0  0  0  0  0  0
   38.0810   27.2690   41.9200 C   0  0  0  0  0  3  0  0  0  0  0  0
   37.4580   26.7100   41.1970 H   0  0  0  0  0  0  0  0  0  0  0  0
   37.3110   27.8990   42.8610 O   0  0  0  0  0  0  0  0  0  0  0  0
   37.9540   29.0170   43.3330 C   0  0  0  0  0  3  0  0  0  0  0  0
   37.2800   29.9200   43.2900 H   0  0  0  0  0  0  0  0  0  0  0  0
  2  1  2  6  0  0  0
  2 15  1  0  0  0  0
  2  3  1  0  0  0  0
  4  3  1  0  0  0  0
  5  2  1  0  0  0  0
  6 11  1  0  0  0  0
  6 12  1  0  0  0  0
  7  6  2  0  0  0  0
  8  9  2  0  0  0  0
  8  7  1  0  0  0  0
  9 10  1  0  0  0  0
 10  5  1  0  0  0  0
 10 11  2  0  0  0  0
 13  7  1  0  0  0  0
 14  8  1  0  0  0  0
 15 16  1  0  0  0  0
 16 18  1  0  0  0  0
 16 17  1  0  0  0  0
 19 16  1  6  0  0  0
 19 25  1  0  0  0  0
 20 22  1  0  0  0  0
 20 19  1  0  0  0  0
 21 20  1  0  0  0  0
 22 24  1  0  0  0  0
 23 22  1  0  0  0  0
 24 25  1  0  0  0  0
 26 25  1  0  0  0  0
M  END
>  <minimizedAffinity>
-4.12516594

$$$$

 OpenBabel03252505313D

 26 27  0  0  1  0  0  0  0  0999 V2000
   36.1090   28.1910   41.7260 O   0  0  0  0  0  0  0  0  0  0  0  0
   37.3570   29.0280   42.0320 P   0  0  1  0  0  0  0  0  0  0  0  0
   37.5010   29.3270   43.6760 O   0  0  0  0  0  0  0  0  0  0  0  0
   37.1200   28.6000   44.2410 H   0  0  0  0  0  0  0  0  0  0  0  0
   38.6910   28.1670   41.4560 O   0  0  0  0  0  0  0  0  0  0  0  0
   40.1480   25.8260   43.6770 C   0  0  0  0  0  0  0  0  0  0  0  0
   40.1230   24.6020   42.9810 C   0  0  0  0  0  0  0  0  0  0  0  0
   39.5630   24.6320   41.6740 C   0  0  0  0  0  0  0  0  0  0  0  0
   39.0990   25.8310   41.2010 N   0  0  0  0  0  0  0  0  0  0  0  0
   39.1530   26.9580   41.9190 C   0  0  0  0  0  0  0  0  0  0  0  0
   39.6730   26.9610   43.1480 N   0  0  0  0  0  0  0  0  0  0  0  0
   40.5710   25.8440   44.6880 H   0  0  0  0  0  0  0  0  0  0  0  0
   40.4950   23.6880   43.3830 H   0  0  0  0  0  0  0  0  0  0  0  0
   39.5030   23.7420   41.0690 H   0  0  0  0  0  0  0  0  0  0  0  0
   37.1420   30.4960   41.2470 O   0  0  0  0  0  0  0  0  0  0  0  0
   36.0180   30.4400   40.4780 C   0  0  0  0  0  0  0  0  0  0  0  0
   35.5000   29.4820   40.4520 H   0  0  0  0  0  0  0  0  0  0  0  0
   35.2870   31.1720   40.9130 H   0  0  0  0  0  0  0  0  0  0  0  0
   36.2270   30.8870   39.0530 C   0  0  2  0  0  3  0  0  0  0  0  0
   37.0000   29.8800   38.2200 C   0  0  0  0  0  3  0  0  0  0  0  0
   36.2900   29.1640   37.7900 H   0  0  0  0  0  0  0  0  0  0  0  0
   37.5770   30.8370   37.1680 C   0  0  0  0  0  3  0  0  0  0  0  0
   38.4230   30.3890   36.6160 H   0  0  0  0  0  0  0  0  0  0  0  0
   37.9820   31.9090   37.9180 O   0  0  0  0  0  0  0  0  0  0  0  0
   37.1620   32.0640   39.0090 C   0  0  0  0  0  3  0  0  0  0  0  0
   37.7640   32.1490   39.9590 H   0  0  0  0  0  0  0  0  0  0  0  0
  2  1  2  6  0  0  0
  2  3  1  0  0  0  0
  3  4  1  0  0  0  0
  5 10  1  0  0  0  0
  5  2  1  0  0  0  0
  6 12  1  0  0  0  0
  7 13  1  0  0  0  0
  7  6  2  0  0  0  0
  8  7  1  0  0  0  0
  9  8  2  0  0  0  0
  9 10  1  0  0  0  0
 10 11  2  0  0  0  0
 11  6  1  0  0  0  0
 14  8  1  0  0  0  0
 15  2  1  0  0  0  0
 16 18  1  0  0  0  0
 16 15  1  0  0  0  0
 17 16  1  0  0  0  0
 19 16  1  1  0  0  0
 20 19  1  0  0  0  0
 21 20  1  0  0  0  0
 22 24  1  0  0  0  0
 22 20  1  0  0  0  0
 23 22  1  0  0  0  0
 24 25  1  0  0  0  0
 25 19  1  0  0  0  0
 25 26  1  0  0  0  0
M  END
>  <minimizedAffinity>
-4.10763168

$$$$
