
 OpenBabel03252500153D

 37 40  0  0  1  0  0  0  0  0999 V2000
   45.5160   32.3620   40.5020 Cl  0  0  0  0  0  0  0  0  0  0  0  0
   46.8080   33.4720   40.1620 C   0  0  0  0  0  0  0  0  0  0  0  0
   47.3860   34.2130   41.1590 C   0  0  0  0  0  0  0  0  0  0  0  0
   48.4220   35.1100   40.9160 C   0  0  0  0  0  0  0  0  0  0  0  0
   48.8340   35.2120   39.6100 C   0  0  0  0  0  0  0  0  0  0  0  0
   48.2590   34.4700   38.5930 C   0  0  0  0  0  0  0  0  0  0  0  0
   47.2580   33.6100   38.8620 C   0  0  0  0  0  0  0  0  0  0  0  0
   48.8740   35.6890   41.6930 H   0  0  0  0  0  0  0  0  0  0  0  0
   49.6360   35.9030   39.4110 H   0  0  0  0  0  0  0  0  0  0  0  0
   48.6000   34.5650   37.5740 H   0  0  0  0  0  0  0  0  0  0  0  0
   46.8870   32.8980   44.5680 C   0  0  0  0  0  0  0  0  0  0  0  0
   45.9470   33.8070   45.1180 C   0  0  0  0  0  0  0  0  0  0  0  0
   45.5060   34.8510   44.3040 C   0  0  0  0  0  0  0  0  0  0  0  0
   46.0030   34.9360   43.0340 N   0  0  0  0  0  0  0  0  0  0  0  0
   46.8960   34.0560   42.5390 C   0  0  0  0  0  0  0  0  0  0  0  0
   47.3240   33.0550   43.3070 N   0  0  0  0  0  0  0  0  0  0  0  0
   47.2090   32.0980   45.2280 H   0  0  0  0  0  0  0  0  0  0  0  0
   45.5390   33.7680   46.1080 H   0  0  0  0  0  0  0  0  0  0  0  0
   44.5180   35.8730   44.7680 C   0  0  0  0  0  0  0  0  0  0  0  0
   44.9790   37.1310   44.5460 F   0  0  0  0  0  0  0  0  0  0  0  0
   43.3410   35.6880   44.0690 F   0  0  0  0  0  0  0  0  0  0  0  0
   44.3060   35.6370   46.1030 F   0  0  0  0  0  0  0  0  0  0  0  0
   46.6340   32.8160   37.8070 C   0  0  0  0  0  0  0  0  0  0  0  0
   45.5770   33.2740   37.0080 C   0  0  0  0  0  0  0  0  0  0  0  0
   45.2390   32.2660   36.1200 C   0  0  0  0  0  0  0  0  0  0  0  0
   46.1230   31.2450   36.4380 C   0  0  0  0  0  0  0  0  0  0  0  0
   46.9260   31.5850   37.4240 O   0  0  0  0  0  0  0  0  0  0  0  0
   45.1100   34.2490   37.0790 H   0  0  0  0  0  0  0  0  0  0  0  0
   44.4910   32.2510   35.3680 H   0  0  0  0  0  0  0  0  0  0  0  0
   46.1950   29.9290   35.7880 C   0  0  1  0  0  3  0  0  0  0  0  0
   47.3660   29.8150   34.8040 C   0  0  0  0  0  3  0  0  0  0  0  0
   48.3100   30.1000   35.2860 H   0  0  0  0  0  0  0  0  0  0  0  0
   47.3630   28.2850   34.6690 C   0  0  0  0  0  3  0  0  0  0  0  0
   48.2860   27.9040   34.2060 H   0  0  0  0  0  0  0  0  0  0  0  0
   47.1080   27.7990   35.9370 O   0  0  0  0  0  0  0  0  0  0  0  0
   46.5350   28.7920   36.7040 C   0  0  0  0  0  3  0  0  0  0  0  0
   47.3160   29.1450   37.4110 H   0  0  0  0  0  0  0  0  0  0  0  0
  2  1  1  0  0  0  0
  2  3  1  0  0  0  0
  3 15  1  0  0  0  0
  4  3  2  0  0  0  0
  4  8  1  0  0  0  0
  5  4  1  0  0  0  0
  6  7  1  0  0  0  0
  6  5  2  0  0  0  0
  7  2  2  0  0  0  0
  9  5  1  0  0  0  0
 10  6  1  0  0  0  0
 11 12  1  0  0  0  0
 11 17  1  0  0  0  0
 12 18  1  0  0  0  0
 13 19  1  0  0  0  0
 13 12  2  0  0  0  0
 14 13  1  0  0  0  0
 15 14  2  0  0  0  0
 15 16  1  0  0  0  0
 16 11  2  0  0  0  0
 19 22  1  0  0  0  0
 20 19  1  0  0  0  0
 21 19  1  0  0  0  0
 23  7  1  0  0  0  0
 24 28  1  0  0  0  0
 24 23  2  0  0  0  0
 25 26  2  0  0  0  0
 25 24  1  0  0  0  0
 26 27  1  0  0  0  0
 27 23  1  0  0  0  0
 29 25  1  0  0  0  0
 30 26  1  1  0  0  0
 30 36  1  0  0  0  0
 31 32  1  0  0  0  0
 31 30  1  0  0  0  0
 33 31  1  0  0  0  0
 33 35  1  0  0  0  0
 34 33  1  0  0  0  0
 35 36  1  0  0  0  0
 36 37  1  0  0  0  0
M  END
>  <minimizedAffinity>
-5.57101488

>  <minimizedRMSD>
0.206493691

$$$$
