
 OpenBabel03242511343D

 34 36  0  0  1  0  0  0  0  0999 V2000
   49.1180   33.3560   42.5300 C   0  0  0  0  0  0  0  0  0  0  0  0
   47.9070   32.9710   42.9150 C   0  0  0  0  0  0  0  0  0  0  0  0
   49.6850   32.7310   41.3360 C   0  0  0  0  0  0  0  0  0  0  0  0
   50.9730   32.1790   41.4550 C   0  0  0  0  0  0  0  0  0  0  0  0
   51.5870   31.5630   40.3660 C   0  0  0  0  0  0  0  0  0  0  0  0
   50.8790   31.5330   39.2080 N   0  0  0  0  0  0  0  0  0  0  0  0
   49.6470   32.0690   39.1180 C   0  0  0  0  0  0  0  0  0  0  0  0
   49.0530   32.6610   40.1640 N   0  0  0  0  0  0  0  0  0  0  0  0
   51.5180   32.2170   42.3970 H   0  0  0  0  0  0  0  0  0  0  0  0
   52.5610   31.1320   40.4080 H   0  0  0  0  0  0  0  0  0  0  0  0
   48.9260   32.0040   37.8260 C   0  0  2  0  0  0  0  0  0  0  0  0
   49.7290   31.3410   36.7240 C   0  0  0  0  0  0  0  0  0  0  0  0
   49.6460   30.2370   36.7250 H   0  0  0  0  0  0  0  0  0  0  0  0
   49.0460   31.9480   35.5140 C   0  0  0  0  0  0  0  0  0  0  0  0
   49.6900   31.9110   34.6140 H   0  0  0  0  0  0  0  0  0  0  0  0
   48.6060   33.1980   35.8560 O   0  0  0  0  0  0  0  0  0  0  0  0
   48.7290   33.3810   37.2210 C   0  0  0  0  0  0  0  0  0  0  0  0
   47.8780   33.9360   37.6620 H   0  0  0  0  0  0  0  0  0  0  0  0
   47.2390   33.5310   44.0990 C   0  0  0  0  0  0  0  0  0  0  0  0
   47.8160   34.4190   44.4510 H   0  0  0  0  0  0  0  0  0  0  0  0
   47.1970   32.8320   44.9310 H   0  0  0  0  0  0  0  0  0  0  0  0
   44.6390   36.0170   43.8110 C   0  0  1  0  0  0  0  0  0  0  0  0
   45.8010   35.3230   43.0840 C   0  0  0  0  0  0  0  0  0  0  0  0
   45.8200   34.0050   43.7920 C   0  0  2  0  0  0  0  0  0  0  0  0
   45.0300   34.0800   44.9010 O   0  0  0  0  0  0  0  0  0  0  0  0
   44.7500   35.4020   45.1870 C   0  0  0  0  0  0  0  0  0  0  0  0
   43.6770   35.7120   43.3620 H   0  0  0  0  0  0  0  0  0  0  0  0
   45.5230   35.2270   42.0060 H   0  0  0  0  0  0  0  0  0  0  0  0
   46.7420   35.8650   43.1860 H   0  0  0  0  0  0  0  0  0  0  0  0
   45.4230   33.2390   43.0710 H   0  0  0  0  0  0  0  0  0  0  0  0
   45.5110   35.8910   45.8240 H   0  0  0  0  0  0  0  0  0  0  0  0
   43.7610   35.4480   45.6910 H   0  0  0  0  0  0  0  0  0  0  0  0
   44.8220   37.3910   43.8180 O   0  0  0  0  0  0  0  0  0  0  0  0
   45.6250   37.5860   44.3580 H   0  0  0  0  0  0  0  0  0  0  0  0
  1  2  2  0  0  0  0
  2 19  1  0  0  0  0
  3  4  1  0  0  0  0
  3  1  1  0  0  0  0
  4  9  1  0  0  0  0
  5 10  1  0  0  0  0
  5  4  2  0  0  0  0
  6  5  1  0  0  0  0
  7  6  2  0  0  0  0
  7  8  1  0  0  0  0
  8  3  2  0  0  0  0
 11  7  1  1  0  0  0
 12 13  1  0  0  0  0
 12 11  1  0  0  0  0
 14 16  1  0  0  0  0
 14 12  1  0  0  0  0
 15 14  1  0  0  0  0
 16 17  1  0  0  0  0
 17 18  1  0  0  0  0
 17 11  1  0  0  0  0
 19 20  1  0  0  0  0
 19 21  1  0  0  0  0
 22 27  1  6  0  0  0
 22 33  1  0  0  0  0
 22 26  1  0  0  0  0
 23 29  1  0  0  0  0
 23 24  1  0  0  0  0
 23 22  1  0  0  0  0
 24 30  1  6  0  0  0
 24 19  1  0  0  0  0
 24 25  1  0  0  0  0
 25 26  1  0  0  0  0
 26 32  1  0  0  0  0
 26 31  1  0  0  0  0
 28 23  1  0  0  0  0
 33 34  1  0  0  0  0
M  END
>  <minimizedAffinity>
-4.96031141

>  <minimizedRMSD>
0.948228717

$$$$
