
 OpenBabel03242519443D

 30 32  0  0  1  0  0  0  0  0999 V2000
   36.7660   28.8680   41.3520 C   0  0  0  0  0  0  0  0  0  0  0  0
   35.8100   28.5300   40.3730 C   0  0  0  0  0  0  0  0  0  0  0  0
   35.8250   29.2260   39.1340 C   0  0  0  0  0  0  0  0  0  0  0  0
   36.7640   30.1920   38.9470 N   0  0  0  0  0  0  0  0  0  0  0  0
   37.6740   30.4940   39.9160 C   0  0  0  0  0  0  0  0  0  0  0  0
   37.6810   29.8440   41.1030 N   0  0  0  0  0  0  0  0  0  0  0  0
   35.0680   27.7690   40.5160 H   0  0  0  0  0  0  0  0  0  0  0  0
   35.1260   29.0170   38.3490 H   0  0  0  0  0  0  0  0  0  0  0  0
   38.1020   32.9350   39.6500 C   0  0  2  0  0  0  0  0  0  0  0  0
   38.6790   31.5490   39.7590 C   0  0  1  0  0  0  0  0  0  0  0  0
   39.5140   31.6380   40.9220 O   0  0  0  0  0  0  0  0  0  0  0  0
   40.2930   32.7460   40.4840 C   0  0  0  0  0  0  0  0  0  0  0  0
   39.1960   33.7810   40.3130 C   0  0  2  0  0  0  0  0  0  0  0  0
   37.8920   33.2460   38.6260 H   0  0  0  0  0  0  0  0  0  0  0  0
   39.3320   31.3420   38.8850 H   0  0  0  0  0  0  0  0  0  0  0  0
   40.9650   33.0350   41.2910 H   0  0  0  0  0  0  0  0  0  0  0  0
   40.7920   32.5190   39.5200 H   0  0  0  0  0  0  0  0  0  0  0  0
   39.5000   34.6160   39.6760 H   0  0  0  0  0  0  0  0  0  0  0  0
   36.9000   33.0300   40.4020 O   0  0  0  0  0  0  0  0  0  0  0  0
   37.1550   33.0960   41.3710 H   0  0  0  0  0  0  0  0  0  0  0  0
   38.7770   34.1600   41.5860 O   0  0  0  0  0  0  0  0  0  0  0  0
   39.1940   35.0160   41.8110 H   0  0  0  0  0  0  0  0  0  0  0  0
   36.7630   28.1560   42.6390 C   0  0  2  0  0  3  0  0  0  0  0  0
   37.8840   28.4950   43.5550 C   0  0  0  0  0  3  0  0  0  0  0  0
   37.4910   28.4280   44.6090 H   0  0  0  0  0  0  0  0  0  0  0  0
   38.8680   27.3860   43.3780 C   0  0  0  0  0  3  0  0  0  0  0  0
   38.9400   26.7220   44.2760 H   0  0  0  0  0  0  0  0  0  0  0  0
   38.3950   26.5780   42.3470 O   0  0  0  0  0  0  0  0  0  0  0  0
   37.0050   26.6800   42.3800 C   0  0  0  0  0  3  0  0  0  0  0  0
   36.5400   26.0320   43.1330 H   0  0  0  0  0  0  0  0  0  0  0  0
  2  7  1  0  0  0  0
  2  1  2  0  0  0  0
  3  2  1  0  0  0  0
  4  3  2  0  0  0  0
  4  5  1  0  0  0  0
  5  6  2  0  0  0  0
  6  1  1  0  0  0  0
  8  3  1  0  0  0  0
  9 14  1  6  0  0  0
  9 10  1  0  0  0  0
  9 13  1  0  0  0  0
  9 19  1  0  0  0  0
 10 15  1  6  0  0  0
 10  5  1  0  0  0  0
 10 11  1  0  0  0  0
 12 11  1  0  0  0  0
 12 16  1  0  0  0  0
 13 18  1  6  0  0  0
 13 12  1  0  0  0  0
 13 21  1  0  0  0  0
 17 12  1  0  0  0  0
 19 20  1  0  0  0  0
 21 22  1  0  0  0  0
 23  1  1  6  0  0  0
 23 24  1  0  0  0  0
 24 25  1  0  0  0  0
 26 24  1  0  0  0  0
 26 27  1  0  0  0  0
 28 29  1  0  0  0  0
 28 26  1  0  0  0  0
 29 23  1  0  0  0  0
 29 30  1  0  0  0  0
M  END
>  <minimizedAffinity>
-5.73272562

$$$$

 OpenBabel03242519443D

 30 32  0  0  1  0  0  0  0  0999 V2000
   37.2680   27.1050   41.6500 C   0  0  0  0  0  0  0  0  0  0  0  0
   37.4200   27.3550   43.0290 C   0  0  0  0  0  0  0  0  0  0  0  0
   37.7690   28.6660   43.4510 C   0  0  0  0  0  0  0  0  0  0  0  0
   37.9430   29.6260   42.5030 N   0  0  0  0  0  0  0  0  0  0  0  0
   37.7880   29.3490   41.1770 C   0  0  0  0  0  0  0  0  0  0  0  0
   37.4550   28.1090   40.7500 N   0  0  0  0  0  0  0  0  0  0  0  0
   37.2850   26.6010   43.7800 H   0  0  0  0  0  0  0  0  0  0  0  0
   37.9000   28.9220   44.4840 H   0  0  0  0  0  0  0  0  0  0  0  0
   36.7430   31.0780   39.7170 C   0  0  2  0  0  0  0  0  0  0  0  0
   37.9960   30.3510   40.1290 C   0  0  1  0  0  0  0  0  0  0  0  0
   38.8440   31.4110   40.5940 O   0  0  0  0  0  0  0  0  0  0  0  0
   38.7860   32.2020   39.4130 C   0  0  0  0  0  0  0  0  0  0  0  0
   37.2920   32.4620   39.3500 C   0  0  2  0  0  0  0  0  0  0  0  0
   36.2090   30.6030   38.8930 H   0  0  0  0  0  0  0  0  0  0  0  0
   38.4780   29.8950   39.2380 H   0  0  0  0  0  0  0  0  0  0  0  0
   39.3250   33.1320   39.5940 H   0  0  0  0  0  0  0  0  0  0  0  0
   39.1360   31.6240   38.5340 H   0  0  0  0  0  0  0  0  0  0  0  0
   36.9600   32.7750   38.3550 H   0  0  0  0  0  0  0  0  0  0  0  0
   35.8540   31.1920   40.8200 O   0  0  0  0  0  0  0  0  0  0  0  0
   36.2060   31.9170   41.4180 H   0  0  0  0  0  0  0  0  0  0  0  0
   36.9800   33.3650   40.3620 O   0  0  0  0  0  0  0  0  0  0  0  0
   36.8910   34.2570   39.9700 H   0  0  0  0  0  0  0  0  0  0  0  0
   36.9060   25.7530   41.1980 C   0  0  2  0  0  3  0  0  0  0  0  0
   37.1670   24.6660   42.1800 C   0  0  0  0  0  3  0  0  0  0  0  0
   36.3630   23.8880   42.0420 H   0  0  0  0  0  0  0  0  0  0  0  0
   38.4550   24.0550   41.7370 C   0  0  0  0  0  3  0  0  0  0  0  0
   38.3270   23.0250   41.3210 H   0  0  0  0  0  0  0  0  0  0  0  0
   38.9380   24.8300   40.6870 O   0  0  0  0  0  0  0  0  0  0  0  0
   37.8170   25.3620   40.0490 C   0  0  0  0  0  3  0  0  0  0  0  0
   37.3450   24.6630   39.3480 H   0  0  0  0  0  0  0  0  0  0  0  0
  1  2  1  0  0  0  0
  2  3  2  0  0  0  0
  2  7  1  0  0  0  0
  3  8  1  0  0  0  0
  4  3  1  0  0  0  0
  5  4  2  0  0  0  0
  6  5  1  0  0  0  0
  6  1  2  0  0  0  0
  9 14  1  6  0  0  0
  9 10  1  0  0  0  0
  9 19  1  0  0  0  0
 10 15  1  6  0  0  0
 10 11  1  0  0  0  0
 10  5  1  0  0  0  0
 12 16  1  0  0  0  0
 12 11  1  0  0  0  0
 13 18  1  6  0  0  0
 13 12  1  0  0  0  0
 13  9  1  0  0  0  0
 13 21  1  0  0  0  0
 17 12  1  0  0  0  0
 19 20  1  0  0  0  0
 22 21  1  0  0  0  0
 23  1  1  1  0  0  0
 23 24  1  0  0  0  0
 25 24  1  0  0  0  0
 26 24  1  0  0  0  0
 27 26  1  0  0  0  0
 28 26  1  0  0  0  0
 29 28  1  0  0  0  0
 29 23  1  0  0  0  0
 30 29  1  0  0  0  0
M  END
>  <minimizedAffinity>
-5.6888876

$$$$

 OpenBabel03242519443D

 30 32  0  0  1  0  0  0  0  0999 V2000
   37.9440   30.8320   39.7130 C   0  0  0  0  0  0  0  0  0  0  0  0
   37.1130   31.9420   39.9700 C   0  0  0  0  0  0  0  0  0  0  0  0
   37.6740   33.2450   39.9000 C   0  0  0  0  0  0  0  0  0  0  0  0
   38.9930   33.3660   39.5880 N   0  0  0  0  0  0  0  0  0  0  0  0
   39.7670   32.2700   39.3450 C   0  0  0  0  0  0  0  0  0  0  0  0
   39.2560   31.0190   39.4040 N   0  0  0  0  0  0  0  0  0  0  0  0
   36.0740   31.8520   40.2170 H   0  0  0  0  0  0  0  0  0  0  0  0
   37.0980   34.1300   40.0840 H   0  0  0  0  0  0  0  0  0  0  0  0
   41.5270   32.1180   37.5870 C   0  0  2  0  0  0  0  0  0  0  0  0
   41.1960   32.3630   39.0350 C   0  0  1  0  0  0  0  0  0  0  0  0
   41.6830   33.6940   39.2550 O   0  0  0  0  0  0  0  0  0  0  0  0
   43.0160   33.4600   38.8170 C   0  0  0  0  0  0  0  0  0  0  0  0
   42.7450   33.0280   37.3870 C   0  0  2  0  0  0  0  0  0  0  0  0
   41.7380   31.0730   37.3540 H   0  0  0  0  0  0  0  0  0  0  0  0
   41.7830   31.6730   39.6780 H   0  0  0  0  0  0  0  0  0  0  0  0
   43.5560   34.4050   38.8310 H   0  0  0  0  0  0  0  0  0  0  0  0
   43.4870   32.6450   39.4050 H   0  0  0  0  0  0  0  0  0  0  0  0
   43.5850   32.4840   36.9440 H   0  0  0  0  0  0  0  0  0  0  0  0
   40.4600   32.5550   36.7560 O   0  0  0  0  0  0  0  0  0  0  0  0
   40.5060   33.5570   36.7080 H   0  0  0  0  0  0  0  0  0  0  0  0
   42.3620   34.1600   36.6730 O   0  0  0  0  0  0  0  0  0  0  0  0
   43.1300   34.4810   36.1590 H   0  0  0  0  0  0  0  0  0  0  0  0
   37.3760   29.4770   39.7810 C   0  0  2  0  0  3  0  0  0  0  0  0
   36.2510   29.3080   40.7390 C   0  0  0  0  0  3  0  0  0  0  0  0
   35.5480   28.5430   40.3020 H   0  0  0  0  0  0  0  0  0  0  0  0
   36.8730   28.6960   41.9510 C   0  0  0  0  0  3  0  0  0  0  0  0
   36.5630   27.6320   42.1070 H   0  0  0  0  0  0  0  0  0  0  0  0
   38.2470   28.6620   41.7340 O   0  0  0  0  0  0  0  0  0  0  0  0
   38.4210   28.5380   40.3560 C   0  0  0  0  0  3  0  0  0  0  0  0
   38.3140   27.5080   39.9960 H   0  0  0  0  0  0  0  0  0  0  0  0
  1  2  1  0  0  0  0
  2  7  1  0  0  0  0
  3  2  2  0  0  0  0
  3  8  1  0  0  0  0
  4  3  1  0  0  0  0
  5  6  1  0  0  0  0
  5  4  2  0  0  0  0
  6  1  2  0  0  0  0
  9 14  1  6  0  0  0
  9 10  1  0  0  0  0
 10 11  1  0  0  0  0
 10  5  1  0  0  0  0
 10 15  1  1  0  0  0
 12 16  1  0  0  0  0
 12 11  1  0  0  0  0
 12 17  1  0  0  0  0
 13 18  1  6  0  0  0
 13  9  1  0  0  0  0
 13 12  1  0  0  0  0
 19  9  1  0  0  0  0
 20 19  1  0  0  0  0
 21 13  1  0  0  0  0
 22 21  1  0  0  0  0
 23  1  1  1  0  0  0
 23 29  1  0  0  0  0
 23 24  1  0  0  0  0
 24 26  1  0  0  0  0
 25 24  1  0  0  0  0
 26 27  1  0  0  0  0
 28 26  1  0  0  0  0
 29 28  1  0  0  0  0
 30 29  1  0  0  0  0
M  END
>  <minimizedAffinity>
-5.48112297

$$$$

 OpenBabel03242519443D

 30 32  0  0  1  0  0  0  0  0999 V2000
   38.7460   27.7130   42.8810 C   0  0  0  0  0  0  0  0  0  0  0  0
   37.5910   27.0560   43.3530 C   0  0  0  0  0  0  0  0  0  0  0  0
   36.3470   27.3210   42.7190 C   0  0  0  0  0  0  0  0  0  0  0  0
   36.3250   28.1990   41.6810 N   0  0  0  0  0  0  0  0  0  0  0  0
   37.4610   28.8170   41.2500 C   0  0  0  0  0  0  0  0  0  0  0  0
   38.6580   28.5800   41.8360 N   0  0  0  0  0  0  0  0  0  0  0  0
   37.6040   26.3640   44.1720 H   0  0  0  0  0  0  0  0  0  0  0  0
   35.4330   26.8550   43.0300 H   0  0  0  0  0  0  0  0  0  0  0  0
   36.2900   30.7280   40.1600 C   0  0  2  0  0  0  0  0  0  0  0  0
   37.4680   29.7900   40.1540 C   0  0  1  0  0  0  0  0  0  0  0  0
   38.5870   30.6790   40.2650 O   0  0  0  0  0  0  0  0  0  0  0  0
   38.2680   31.4930   39.1430 C   0  0  0  0  0  0  0  0  0  0  0  0
   36.9050   32.0050   39.5760 C   0  0  2  0  0  0  0  0  0  0  0  0
   35.4370   30.3680   39.5820 H   0  0  0  0  0  0  0  0  0  0  0  0
   37.5360   29.2750   39.1720 H   0  0  0  0  0  0  0  0  0  0  0  0
   38.9830   32.3120   39.0960 H   0  0  0  0  0  0  0  0  0  0  0  0
   38.1980   30.8810   38.2210 H   0  0  0  0  0  0  0  0  0  0  0  0
   36.3150   32.3900   38.7390 H   0  0  0  0  0  0  0  0  0  0  0  0
   35.8580   30.9700   41.4920 O   0  0  0  0  0  0  0  0  0  0  0  0
   36.5080   31.6120   41.9080 H   0  0  0  0  0  0  0  0  0  0  0  0
   37.1110   32.9270   40.5980 O   0  0  0  0  0  0  0  0  0  0  0  0
   37.0450   33.8290   40.2240 H   0  0  0  0  0  0  0  0  0  0  0  0
   40.0400   27.4490   43.5280 C   0  0  2  0  0  3  0  0  0  0  0  0
   41.2370   27.8150   42.7240 C   0  0  0  0  0  3  0  0  0  0  0  0
   42.0330   28.1590   43.4440 H   0  0  0  0  0  0  0  0  0  0  0  0
   41.7040   26.5280   42.1290 C   0  0  0  0  0  3  0  0  0  0  0  0
   42.6710   26.1740   42.5650 H   0  0  0  0  0  0  0  0  0  0  0  0
   40.7620   25.5580   42.4590 O   0  0  0  0  0  0  0  0  0  0  0  0
   40.2130   25.9490   43.6800 C   0  0  0  0  0  3  0  0  0  0  0  0
   40.8330   25.6750   44.5420 H   0  0  0  0  0  0  0  0  0  0  0  0
  1  2  1  0  0  0  0
  2  7  1  0  0  0  0
  3  8  1  0  0  0  0
  3  2  2  0  0  0  0
  4  3  1  0  0  0  0
  5  4  2  0  0  0  0
  5  6  1  0  0  0  0
  6  1  2  0  0  0  0
  9 14  1  6  0  0  0
  9 19  1  0  0  0  0
 10 15  1  6  0  0  0
 10  9  1  0  0  0  0
 10 11  1  0  0  0  0
 10  5  1  0  0  0  0
 12 13  1  0  0  0  0
 12 11  1  0  0  0  0
 13 18  1  6  0  0  0
 13  9  1  0  0  0  0
 13 21  1  0  0  0  0
 16 12  1  0  0  0  0
 17 12  1  0  0  0  0
 19 20  1  0  0  0  0
 22 21  1  0  0  0  0
 23  1  1  6  0  0  0
 23 29  1  0  0  0  0
 24 25  1  0  0  0  0
 24 23  1  0  0  0  0
 26 28  1  0  0  0  0
 26 27  1  0  0  0  0
 26 24  1  0  0  0  0
 28 29  1  0  0  0  0
 29 30  1  0  0  0  0
M  END
>  <minimizedAffinity>
-5.32529688

$$$$

 OpenBabel03242519443D

 30 32  0  0  1  0  0  0  0  0999 V2000
   36.5420   28.7330   41.3450 C   0  0  0  0  0  0  0  0  0  0  0  0
   35.9750   28.2750   40.1380 C   0  0  0  0  0  0  0  0  0  0  0  0
   35.9390   29.1540   39.0230 C   0  0  0  0  0  0  0  0  0  0  0  0
   36.4550   30.4040   39.1690 N   0  0  0  0  0  0  0  0  0  0  0  0
   36.9960   30.8150   40.3510 C   0  0  0  0  0  0  0  0  0  0  0  0
   37.0430   29.9950   41.4270 N   0  0  0  0  0  0  0  0  0  0  0  0
   35.5670   27.2900   40.0190 H   0  0  0  0  0  0  0  0  0  0  0  0
   35.5220   28.8680   38.0780 H   0  0  0  0  0  0  0  0  0  0  0  0
   39.0360   32.2190   40.6310 C   0  0  2  0  0  0  0  0  0  0  0  0
   37.5340   32.1630   40.5510 C   0  0  1  0  0  0  0  0  0  0  0  0
   37.2400   33.0040   39.4260 O   0  0  0  0  0  0  0  0  0  0  0  0
   37.9270   34.1580   39.8960 C   0  0  0  0  0  0  0  0  0  0  0  0
   39.3300   33.5920   40.0160 C   0  0  2  0  0  0  0  0  0  0  0  0
   39.4270   32.1190   41.6450 H   0  0  0  0  0  0  0  0  0  0  0  0
   37.0890   32.6330   41.4540 H   0  0  0  0  0  0  0  0  0  0  0  0
   37.8900   34.9210   39.1200 H   0  0  0  0  0  0  0  0  0  0  0  0
   37.5320   34.4770   40.8820 H   0  0  0  0  0  0  0  0  0  0  0  0
   39.9730   34.1940   40.6640 H   0  0  0  0  0  0  0  0  0  0  0  0
   39.6120   31.1990   39.8260 O   0  0  0  0  0  0  0  0  0  0  0  0
   39.5450   31.4960   38.8690 H   0  0  0  0  0  0  0  0  0  0  0  0
   39.8250   33.4230   38.7250 O   0  0  0  0  0  0  0  0  0  0  0  0
   40.4210   34.1700   38.5170 H   0  0  0  0  0  0  0  0  0  0  0  0
   36.5860   27.8330   42.5070 C   0  0  2  0  0  3  0  0  0  0  0  0
   37.4600   28.2810   43.6230 C   0  0  0  0  0  3  0  0  0  0  0  0
   36.9830   27.9380   44.5850 H   0  0  0  0  0  0  0  0  0  0  0  0
   38.7220   27.5010   43.4540 C   0  0  0  0  0  3  0  0  0  0  0  0
   38.8690   26.7340   44.2540 H   0  0  0  0  0  0  0  0  0  0  0  0
   38.6080   26.7900   42.2630 O   0  0  0  0  0  0  0  0  0  0  0  0
   37.2480   26.5320   42.0930 C   0  0  0  0  0  3  0  0  0  0  0  0
   36.8950   25.6690   42.6700 H   0  0  0  0  0  0  0  0  0  0  0  0
  1  6  1  0  0  0  0
  2  1  2  0  0  0  0
  3  4  2  0  0  0  0
  3  2  1  0  0  0  0
  4  5  1  0  0  0  0
  5 10  1  0  0  0  0
  5  6  2  0  0  0  0
  7  2  1  0  0  0  0
  8  3  1  0  0  0  0
  9 14  1  1  0  0  0
 10  9  1  0  0  0  0
 10 15  1  1  0  0  0
 11 12  1  0  0  0  0
 11 10  1  0  0  0  0
 12 13  1  0  0  0  0
 12 17  1  0  0  0  0
 13  9  1  0  0  0  0
 13 18  1  1  0  0  0
 16 12  1  0  0  0  0
 19  9  1  0  0  0  0
 20 19  1  0  0  0  0
 21 13  1  0  0  0  0
 22 21  1  0  0  0  0
 23  1  1  6  0  0  0
 23 24  1  0  0  0  0
 24 25  1  0  0  0  0
 26 24  1  0  0  0  0
 26 27  1  0  0  0  0
 28 26  1  0  0  0  0
 29 28  1  0  0  0  0
 29 23  1  0  0  0  0
 29 30  1  0  0  0  0
M  END
>  <minimizedAffinity>
-5.29631662

$$$$

 OpenBabel03242519443D

 30 32  0  0  1  0  0  0  0  0999 V2000
   37.9660   29.7990   41.9980 C   0  0  0  0  0  0  0  0  0  0  0  0
   36.5850   29.7540   41.7190 C   0  0  0  0  0  0  0  0  0  0  0  0
   36.0680   30.5910   40.6940 C   0  0  0  0  0  0  0  0  0  0  0  0
   36.9300   31.4020   40.0240 N   0  0  0  0  0  0  0  0  0  0  0  0
   38.2610   31.4200   40.3200 C   0  0  0  0  0  0  0  0  0  0  0  0
   38.7780   30.6310   41.2910 N   0  0  0  0  0  0  0  0  0  0  0  0
   35.9010   29.1170   42.2440 H   0  0  0  0  0  0  0  0  0  0  0  0
   35.0280   30.6040   40.4320 H   0  0  0  0  0  0  0  0  0  0  0  0
   39.1930   33.7240   40.1340 C   0  0  2  0  0  0  0  0  0  0  0  0
   39.2130   32.3020   39.6390 C   0  0  1  0  0  0  0  0  0  0  0  0
   40.5640   31.8920   39.8950 O   0  0  0  0  0  0  0  0  0  0  0  0
   41.1970   32.9460   39.1800 C   0  0  0  0  0  0  0  0  0  0  0  0
   40.6570   34.1390   39.9480 C   0  0  2  0  0  0  0  0  0  0  0  0
   38.4990   34.3690   39.5920 H   0  0  0  0  0  0  0  0  0  0  0  0
   39.0510   32.2810   38.5410 H   0  0  0  0  0  0  0  0  0  0  0  0
   42.2730   32.8610   39.3190 H   0  0  0  0  0  0  0  0  0  0  0  0
   40.8640   32.9600   38.1220 H   0  0  0  0  0  0  0  0  0  0  0  0
   40.7420   35.0750   39.3870 H   0  0  0  0  0  0  0  0  0  0  0  0
   38.8550   33.7620   41.5130 O   0  0  0  0  0  0  0  0  0  0  0  0
   39.6680   33.4810   42.0310 H   0  0  0  0  0  0  0  0  0  0  0  0
   41.2910   34.1600   41.1870 O   0  0  0  0  0  0  0  0  0  0  0  0
   42.0070   34.8270   41.1610 H   0  0  0  0  0  0  0  0  0  0  0  0
   38.5150   28.9370   43.0570 C   0  0  2  0  0  3  0  0  0  0  0  0
   39.9040   28.4580   42.8270 C   0  0  0  0  0  3  0  0  0  0  0  0
   40.4050   28.3830   43.8340 H   0  0  0  0  0  0  0  0  0  0  0  0
   39.7450   27.0670   42.3070 C   0  0  0  0  0  3  0  0  0  0  0  0
   40.0850   26.2900   43.0360 H   0  0  0  0  0  0  0  0  0  0  0  0
   38.3820   26.8490   42.1290 O   0  0  0  0  0  0  0  0  0  0  0  0
   37.7350   27.6360   43.0810 C   0  0  0  0  0  3  0  0  0  0  0  0
   37.7030   27.1760   44.0760 H   0  0  0  0  0  0  0  0  0  0  0  0
  2  1  1  0  0  0  0
  2  7  1  0  0  0  0
  3  2  2  0  0  0  0
  4  5  2  0  0  0  0
  4  3  1  0  0  0  0
  5  6  1  0  0  0  0
  6  1  2  0  0  0  0
  8  3  1  0  0  0  0
  9 14  1  6  0  0  0
  9 19  1  0  0  0  0
 10 15  1  6  0  0  0
 10 11  1  0  0  0  0
 10  9  1  0  0  0  0
 10  5  1  0  0  0  0
 12 16  1  0  0  0  0
 12 11  1  0  0  0  0
 12 13  1  0  0  0  0
 13 18  1  6  0  0  0
 13  9  1  0  0  0  0
 13 21  1  0  0  0  0
 17 12  1  0  0  0  0
 19 20  1  0  0  0  0
 22 21  1  0  0  0  0
 23  1  1  6  0  0  0
 23 29  1  0  0  0  0
 24 23  1  0  0  0  0
 24 25  1  0  0  0  0
 26 24  1  0  0  0  0
 26 27  1  0  0  0  0
 28 26  1  0  0  0  0
 28 29  1  0  0  0  0
 29 30  1  0  0  0  0
M  END
>  <minimizedAffinity>
-5.18693066

$$$$

 OpenBabel03242519443D

 30 32  0  0  1  0  0  0  0  0999 V2000
   37.7830   29.8120   42.1250 C   0  0  0  0  0  0  0  0  0  0  0  0
   36.4860   29.9960   41.6050 C   0  0  0  0  0  0  0  0  0  0  0  0
   36.2920   30.9520   40.5720 C   0  0  0  0  0  0  0  0  0  0  0  0
   37.3720   31.6510   40.1280 N   0  0  0  0  0  0  0  0  0  0  0  0
   38.6140   31.4480   40.6530 C   0  0  0  0  0  0  0  0  0  0  0  0
   38.8230   30.5420   41.6370 N   0  0  0  0  0  0  0  0  0  0  0  0
   35.6320   29.4480   41.9530 H   0  0  0  0  0  0  0  0  0  0  0  0
   35.3320   31.1400   40.1350 H   0  0  0  0  0  0  0  0  0  0  0  0
   40.6170   31.5040   39.1720 C   0  0  2  0  0  0  0  0  0  0  0  0
   39.7910   32.2030   40.2190 C   0  0  1  0  0  0  0  0  0  0  0  0
   39.4060   33.4200   39.5650 O   0  0  0  0  0  0  0  0  0  0  0  0
   40.7190   33.8520   39.2290 C   0  0  0  0  0  0  0  0  0  0  0  0
   41.1610   32.6870   38.3630 C   0  0  2  0  0  0  0  0  0  0  0  0
   41.4080   30.8750   39.5830 H   0  0  0  0  0  0  0  0  0  0  0  0
   40.4290   32.4700   41.0880 H   0  0  0  0  0  0  0  0  0  0  0  0
   40.6420   34.7600   38.6320 H   0  0  0  0  0  0  0  0  0  0  0  0
   41.3480   33.9440   40.1380 H   0  0  0  0  0  0  0  0  0  0  0  0
   42.2480   32.6320   38.2520 H   0  0  0  0  0  0  0  0  0  0  0  0
   39.7880   30.6980   38.3460 O   0  0  0  0  0  0  0  0  0  0  0  0
   39.3080   31.3110   37.7120 H   0  0  0  0  0  0  0  0  0  0  0  0
   40.4710   32.7760   37.1570 O   0  0  0  0  0  0  0  0  0  0  0  0
   41.0650   33.1670   36.4840 H   0  0  0  0  0  0  0  0  0  0  0  0
   37.9980   28.8250   43.1950 C   0  0  2  0  0  3  0  0  0  0  0  0
   39.2870   28.0880   43.1270 C   0  0  0  0  0  3  0  0  0  0  0  0
   39.6140   27.8820   44.1860 H   0  0  0  0  0  0  0  0  0  0  0  0
   38.9410   26.7740   42.5080 C   0  0  0  0  0  3  0  0  0  0  0  0
   39.0170   25.9210   43.2280 H   0  0  0  0  0  0  0  0  0  0  0  0
   37.6020   26.8360   42.1340 O   0  0  0  0  0  0  0  0  0  0  0  0
   36.9870   27.7050   43.0350 C   0  0  0  0  0  3  0  0  0  0  0  0
   36.7240   27.2280   43.9870 H   0  0  0  0  0  0  0  0  0  0  0  0
  2  7  1  0  0  0  0
  2  1  2  0  0  0  0
  3  2  1  0  0  0  0
  4  3  2  0  0  0  0
  4  5  1  0  0  0  0
  5  6  2  0  0  0  0
  6  1  1  0  0  0  0
  8  3  1  0  0  0  0
  9 14  1  1  0  0  0
  9 10  1  0  0  0  0
 10  5  1  0  0  0  0
 10 15  1  1  0  0  0
 11 10  1  0  0  0  0
 12 11  1  0  0  0  0
 12 17  1  0  0  0  0
 13 18  1  6  0  0  0
 13  9  1  0  0  0  0
 13 12  1  0  0  0  0
 16 12  1  0  0  0  0
 19  9  1  0  0  0  0
 20 19  1  0  0  0  0
 21 13  1  0  0  0  0
 22 21  1  0  0  0  0
 23  1  1  6  0  0  0
 24 23  1  0  0  0  0
 24 25  1  0  0  0  0
 26 24  1  0  0  0  0
 26 27  1  0  0  0  0
 28 26  1  0  0  0  0
 28 29  1  0  0  0  0
 29 23  1  0  0  0  0
 29 30  1  0  0  0  0
M  END
>  <minimizedAffinity>
-5.11557865

$$$$

 OpenBabel03242519443D

 30 32  0  0  1  0  0  0  0  0999 V2000
   38.8960   25.8150   41.5740 C   0  0  0  0  0  0  0  0  0  0  0  0
   39.1980   25.8260   42.9510 C   0  0  0  0  0  0  0  0  0  0  0  0
   39.1090   27.0540   43.6600 C   0  0  0  0  0  0  0  0  0  0  0  0
   38.7360   28.1690   42.9770 N   0  0  0  0  0  0  0  0  0  0  0  0
   38.4500   28.1230   41.6440 C   0  0  0  0  0  0  0  0  0  0  0  0
   38.5260   26.9650   40.9470 N   0  0  0  0  0  0  0  0  0  0  0  0
   39.4930   24.9490   43.4930 H   0  0  0  0  0  0  0  0  0  0  0  0
   39.3260   27.1300   44.7070 H   0  0  0  0  0  0  0  0  0  0  0  0
   36.6240   29.3430   40.4670 C   0  0  2  0  0  0  0  0  0  0  0  0
   38.0740   29.3100   40.8720 C   0  0  1  0  0  0  0  0  0  0  0  0
   38.2140   30.4990   41.6600 O   0  0  0  0  0  0  0  0  0  0  0  0
   37.7270   31.4080   40.6800 C   0  0  0  0  0  0  0  0  0  0  0  0
   36.3310   30.8480   40.4800 C   0  0  2  0  0  0  0  0  0  0  0  0
   36.4270   28.8830   39.4970 H   0  0  0  0  0  0  0  0  0  0  0  0
   38.7190   29.4160   39.9740 H   0  0  0  0  0  0  0  0  0  0  0  0
   37.6780   32.4010   41.1250 H   0  0  0  0  0  0  0  0  0  0  0  0
   38.3290   31.3440   39.7500 H   0  0  0  0  0  0  0  0  0  0  0  0
   35.8750   31.1770   39.5410 H   0  0  0  0  0  0  0  0  0  0  0  0
   35.8230   28.6900   41.4420 O   0  0  0  0  0  0  0  0  0  0  0  0
   35.7300   29.3140   42.2230 H   0  0  0  0  0  0  0  0  0  0  0  0
   35.5870   31.1630   41.6130 O   0  0  0  0  0  0  0  0  0  0  0  0
   35.0260   31.9390   41.4140 H   0  0  0  0  0  0  0  0  0  0  0  0
   38.9830   24.5500   40.8280 C   0  0  2  0  0  3  0  0  0  0  0  0
   38.5140   24.6120   39.4180 C   0  0  0  0  0  3  0  0  0  0  0  0
   39.1480   23.8970   38.8200 H   0  0  0  0  0  0  0  0  0  0  0  0
   37.1300   24.0540   39.4520 C   0  0  0  0  0  3  0  0  0  0  0  0
   37.0520   23.0550   38.9540 H   0  0  0  0  0  0  0  0  0  0  0  0
   36.8090   23.8350   40.7890 O   0  0  0  0  0  0  0  0  0  0  0  0
   38.0120   23.5560   41.4370 C   0  0  0  0  0  3  0  0  0  0  0  0
   38.3370   22.5150   41.3190 H   0  0  0  0  0  0  0  0  0  0  0  0
  1  2  1  0  0  0  0
  2  7  1  0  0  0  0
  2  3  2  0  0  0  0
  3  8  1  0  0  0  0
  4  3  1  0  0  0  0
  5  4  2  0  0  0  0
  6  1  2  0  0  0  0
  6  5  1  0  0  0  0
  9 14  1  6  0  0  0
  9 13  1  0  0  0  0
  9 10  1  0  0  0  0
  9 19  1  0  0  0  0
 10 15  1  6  0  0  0
 10  5  1  0  0  0  0
 10 11  1  0  0  0  0
 12 16  1  0  0  0  0
 12 11  1  0  0  0  0
 13 18  1  6  0  0  0
 13 12  1  0  0  0  0
 13 21  1  0  0  0  0
 17 12  1  0  0  0  0
 19 20  1  0  0  0  0
 22 21  1  0  0  0  0
 23 29  1  0  0  0  0
 23  1  1  1  0  0  0
 24 26  1  0  0  0  0
 24 23  1  0  0  0  0
 25 24  1  0  0  0  0
 26 28  1  0  0  0  0
 27 26  1  0  0  0  0
 28 29  1  0  0  0  0
 30 29  1  0  0  0  0
M  END
>  <minimizedAffinity>
-4.93387222

$$$$

 OpenBabel03242519443D

 30 32  0  0  1  0  0  0  0  0999 V2000
   40.6760   27.8860   42.9130 C   0  0  0  0  0  0  0  0  0  0  0  0
   41.5940   28.9550   42.9360 C   0  0  0  0  0  0  0  0  0  0  0  0
   41.2960   30.1280   42.1930 C   0  0  0  0  0  0  0  0  0  0  0  0
   40.1330   30.1690   41.4880 N   0  0  0  0  0  0  0  0  0  0  0  0
   39.2670   29.1150   41.4870 C   0  0  0  0  0  0  0  0  0  0  0  0
   39.5290   27.9880   42.1890 N   0  0  0  0  0  0  0  0  0  0  0  0
   42.5120   28.9280   43.4900 H   0  0  0  0  0  0  0  0  0  0  0  0
   41.9510   30.9760   42.1690 H   0  0  0  0  0  0  0  0  0  0  0  0
   36.7780   29.0090   41.5600 C   0  0  2  0  0  0  0  0  0  0  0  0
   38.0210   29.1140   40.7160 C   0  0  1  0  0  0  0  0  0  0  0  0
   37.8410   30.3610   40.0320 O   0  0  0  0  0  0  0  0  0  0  0  0
   36.5710   30.0600   39.4660 C   0  0  0  0  0  0  0  0  0  0  0  0
   35.7730   29.8220   40.7350 C   0  0  2  0  0  0  0  0  0  0  0  0
   36.4490   27.9840   41.7340 H   0  0  0  0  0  0  0  0  0  0  0  0
   38.0310   28.3050   39.9560 H   0  0  0  0  0  0  0  0  0  0  0  0
   36.2050   30.9450   38.9480 H   0  0  0  0  0  0  0  0  0  0  0  0
   36.6250   29.1440   38.8430 H   0  0  0  0  0  0  0  0  0  0  0  0
   34.8520   29.2600   40.5550 H   0  0  0  0  0  0  0  0  0  0  0  0
   36.9820   29.6330   42.8200 O   0  0  0  0  0  0  0  0  0  0  0  0
   36.9310   30.6260   42.6760 H   0  0  0  0  0  0  0  0  0  0  0  0
   35.5740   31.0600   41.3420 O   0  0  0  0  0  0  0  0  0  0  0  0
   34.6680   31.3670   41.1370 H   0  0  0  0  0  0  0  0  0  0  0  0
   40.9730   26.6650   43.6780 C   0  0  2  0  0  3  0  0  0  0  0  0
   42.4000   26.2480   43.6790 C   0  0  0  0  0  3  0  0  0  0  0  0
   42.6130   25.7760   44.6800 H   0  0  0  0  0  0  0  0  0  0  0  0
   42.4800   25.1660   42.6540 C   0  0  0  0  0  3  0  0  0  0  0  0
   42.6600   24.1560   43.1010 H   0  0  0  0  0  0  0  0  0  0  0  0
   41.2340   25.0900   42.0380 O   0  0  0  0  0  0  0  0  0  0  0  0
   40.3020   25.4860   42.9970 C   0  0  0  0  0  3  0  0  0  0  0  0
   40.0320   24.6860   43.6960 H   0  0  0  0  0  0  0  0  0  0  0  0
  1  2  1  0  0  0  0
  2  7  1  0  0  0  0
  3  2  2  0  0  0  0
  4  3  1  0  0  0  0
  5  4  2  0  0  0  0
  5  6  1  0  0  0  0
  6  1  2  0  0  0  0
  8  3  1  0  0  0  0
  9 14  1  1  0  0  0
  9 19  1  0  0  0  0
 10 15  1  6  0  0  0
 10  5  1  0  0  0  0
 10  9  1  0  0  0  0
 11 10  1  0  0  0  0
 12 11  1  0  0  0  0
 12 13  1  0  0  0  0
 13 18  1  6  0  0  0
 13 21  1  0  0  0  0
 13  9  1  0  0  0  0
 16 12  1  0  0  0  0
 17 12  1  0  0  0  0
 20 19  1  0  0  0  0
 22 21  1  0  0  0  0
 23  1  1  6  0  0  0
 23 24  1  0  0  0  0
 24 25  1  0  0  0  0
 26 27  1  0  0  0  0
 26 24  1  0  0  0  0
 28 26  1  0  0  0  0
 28 29  1  0  0  0  0
 29 23  1  0  0  0  0
 29 30  1  0  0  0  0
M  END
>  <minimizedAffinity>
-4.89532423

$$$$
