
 OpenBabel03242511143D

 43 47  0  0  1  0  0  0  0  0999 V2000
   50.1720   32.4530   41.3730 C   0  0  1  0  0  0  0  0  0  0  0  0
   49.2230   32.1980   40.2350 C   0  0  0  0  0  0  0  0  0  0  0  0
   48.7880   32.1340   41.7270 C   0  0  2  0  0  0  0  0  0  0  0  0
   50.4820   33.4880   41.4970 H   0  0  0  0  0  0  0  0  0  0  0  0
   49.3750   31.2470   39.7150 H   0  0  0  0  0  0  0  0  0  0  0  0
   48.8260   33.0590   39.6620 H   0  0  0  0  0  0  0  0  0  0  0  0
   48.5020   31.1160   42.0620 H   0  0  0  0  0  0  0  0  0  0  0  0
   53.1320   30.2780   40.8920 C   0  0  0  0  0  0  0  0  0  0  0  0
   53.1920   29.5890   42.1560 C   0  0  0  0  0  0  0  0  0  0  0  0
   52.2180   29.9010   43.1320 C   0  0  0  0  0  0  0  0  0  0  0  0
   51.2930   30.8090   42.8470 N   0  0  0  0  0  0  0  0  0  0  0  0
   51.2600   31.4430   41.6430 C   0  0  0  0  0  0  0  0  0  0  0  0
   52.1800   31.1890   40.6430 N   0  0  0  0  0  0  0  0  0  0  0  0
   53.8910   30.0040   40.1920 H   0  0  0  0  0  0  0  0  0  0  0  0
   53.9750   28.8540   42.3300 H   0  0  0  0  0  0  0  0  0  0  0  0
   52.2880   29.1890   44.4330 C   0  0  2  0  0  0  0  0  0  0  0  0
   50.9680   29.0930   45.1420 C   0  0  0  0  0  0  0  0  0  0  0  0
   50.3270   29.9720   45.0180 H   0  0  0  0  0  0  0  0  0  0  0  0
   51.4280   29.0840   46.5980 C   0  0  0  0  0  0  0  0  0  0  0  0
   51.5810   28.0450   46.9470 H   0  0  0  0  0  0  0  0  0  0  0  0
   52.5820   29.8110   46.6750 O   0  0  0  0  0  0  0  0  0  0  0  0
   53.1150   29.9630   45.4250 C   0  0  0  0  0  0  0  0  0  0  0  0
   54.1780   29.6190   45.3360 H   0  0  0  0  0  0  0  0  0  0  0  0
   47.9370   33.1880   42.1860 N   0  0  0  0  0  0  0  0  0  0  0  0
   48.0010   33.9190   41.4510 H   0  0  0  0  0  0  0  0  0  0  0  0
   47.2510   33.1150   43.4070 C   0  0  0  0  0  0  0  0  0  0  0  0
   47.5410   32.0960   44.2840 C   0  0  0  0  0  0  0  0  0  0  0  0
   46.9660   31.9980   45.5430 C   0  0  0  0  0  0  0  0  0  0  0  0
   46.0630   32.9340   45.9740 C   0  0  0  0  0  0  0  0  0  0  0  0
   45.7510   33.9680   45.1110 C   0  0  0  0  0  0  0  0  0  0  0  0
   44.8420   34.9190   45.5300 C   0  0  0  0  0  0  0  0  0  0  0  0
   44.4780   35.9660   44.7350 C   0  0  0  0  0  0  0  0  0  0  0  0
   45.0650   36.0310   43.4780 C   0  0  0  0  0  0  0  0  0  0  0  0
   45.9690   35.0720   43.0840 C   0  0  0  0  0  0  0  0  0  0  0  0
   46.3380   34.0290   43.8760 C   0  0  0  0  0  0  0  0  0  0  0  0
   48.2430   31.2990   44.0460 H   0  0  0  0  0  0  0  0  0  0  0  0
   47.1990   31.1930   46.2270 H   0  0  0  0  0  0  0  0  0  0  0  0
   45.5890   32.9020   46.9480 H   0  0  0  0  0  0  0  0  0  0  0  0
   44.3800   34.8720   46.5100 H   0  0  0  0  0  0  0  0  0  0  0  0
   43.7760   36.7140   45.0400 H   0  0  0  0  0  0  0  0  0  0  0  0
   44.7950   36.8510   42.8200 H   0  0  0  0  0  0  0  0  0  0  0  0
   46.5170   35.1750   41.8260 O   0  0  0  0  0  0  0  0  0  0  0  0
   45.9030   35.0160   41.0330 H   0  0  0  0  0  0  0  0  0  0  0  0
  1  4  1  1  0  0  0
  1 12  1  0  0  0  0
  1  3  1  0  0  0  0
  2  1  1  0  0  0  0
  2  3  1  0  0  0  0
  3  7  1  1  0  0  0
  3 24  1  0  0  0  0
  5  2  1  0  0  0  0
  6  2  1  0  0  0  0
  8  9  1  0  0  0  0
  9 15  1  0  0  0  0
  9 10  2  0  0  0  0
 11 10  1  0  0  0  0
 12 11  2  0  0  0  0
 13  8  2  0  0  0  0
 13 12  1  0  0  0  0
 14  8  1  0  0  0  0
 16 10  1  6  0  0  0
 16 17  1  0  0  0  0
 16 22  1  0  0  0  0
 17 19  1  0  0  0  0
 18 17  1  0  0  0  0
 19 21  1  0  0  0  0
 19 20  1  0  0  0  0
 22 21  1  0  0  0  0
 23 22  1  0  0  0  0
 24 26  1  0  0  0  0
 25 24  1  0  0  0  0
 26 35  2  0  0  0  0
 26 27  1  0  0  0  0
 27 28  2  0  0  0  0
 28 29  1  0  0  0  0
 28 37  1  0  0  0  0
 29 38  1  0  0  0  0
 30 31  1  0  0  0  0
 30 29  2  0  0  0  0
 31 39  1  0  0  0  0
 32 40  1  0  0  0  0
 32 31  2  0  0  0  0
 33 32  1  0  0  0  0
 34 33  2  0  0  0  0
 34 35  1  0  0  0  0
 35 30  1  0  0  0  0
 36 27  1  0  0  0  0
 41 33  1  0  0  0  0
 42 34  1  0  0  0  0
 43 42  1  0  0  0  0
M  END
>  <minimizedAffinity>
-5.28796244

>  <minimizedRMSD>
1.42614317

$$$$
