
 OpenBabel03252502173D

 23 24  0  0  1  0  0  0  0  0999 V2000
   46.3740   35.1890   42.5960 C   0  0  0  0  0  0  0  0  0  0  0  0
   46.8870   34.0890   43.3200 C   0  0  0  0  0  0  0  0  0  0  0  0
   46.3150   33.7940   44.5790 C   0  0  0  0  0  0  0  0  0  0  0  0
   45.3070   34.5730   45.0330 N   0  0  0  0  0  0  0  0  0  0  0  0
   44.8510   35.6190   44.2970 C   0  0  0  0  0  0  0  0  0  0  0  0
   45.3650   35.9370   43.0950 N   0  0  0  0  0  0  0  0  0  0  0  0
   46.8010   35.4210   41.6410 H   0  0  0  0  0  0  0  0  0  0  0  0
   44.0540   36.1880   44.7240 H   0  0  0  0  0  0  0  0  0  0  0  0
   46.8780   32.6300   45.3130 C   0  0  2  0  0  3  0  0  0  0  0  0
   46.0840   31.3650   45.0490 C   0  0  0  0  0  3  0  0  0  0  0  0
   46.3960   30.8360   44.1380 H   0  0  0  0  0  0  0  0  0  0  0  0
   46.3780   30.5930   46.3180 C   0  0  0  0  0  3  0  0  0  0  0  0
   47.3930   30.1780   46.2090 H   0  0  0  0  0  0  0  0  0  0  0  0
   46.2460   31.5630   47.2900 O   0  0  0  0  0  0  0  0  0  0  0  0
   46.7170   32.7500   46.7990 C   0  0  0  0  0  3  0  0  0  0  0  0
   47.7360   32.9200   47.2380 H   0  0  0  0  0  0  0  0  0  0  0  0
   47.9140   33.3820   42.7380 O   0  0  0  0  0  0  0  0  0  0  0  0
   50.4100   33.1800   41.8810 O   0  0  0  0  0  0  0  0  0  0  0  0
   49.3400   34.1660   42.1840 P   0  0  0  0  0  0  0  0  0  0  0  0
   49.0160   35.0340   40.7650 O   0  0  0  0  0  0  0  0  0  0  0  0
   48.8190   34.3460   40.0630 H   0  0  0  0  0  0  0  0  0  0  0  0
   49.9040   35.2420   43.3540 O   0  0  0  0  0  0  0  0  0  0  0  0
   49.1870   35.6340   43.8990 H   0  0  0  0  0  0  0  0  0  0  0  0
  1  6  2  0  0  0  0
  1  2  1  0  0  0  0
  2  3  2  0  0  0  0
  3  4  1  0  0  0  0
  5  8  1  0  0  0  0
  5  4  2  0  0  0  0
  6  5  1  0  0  0  0
  7  1  1  0  0  0  0
  9  3  1  6  0  0  0
  9 15  1  0  0  0  0
 10  9  1  0  0  0  0
 10 12  1  0  0  0  0
 11 10  1  0  0  0  0
 12 14  1  0  0  0  0
 13 12  1  0  0  0  0
 15 16  1  0  0  0  0
 15 14  1  0  0  0  0
 17  2  1  0  0  0  0
 18 19  2  0  0  0  0
 19 17  1  0  0  0  0
 19 22  1  0  0  0  0
 20 19  1  0  0  0  0
 21 20  1  0  0  0  0
 22 23  1  0  0  0  0
M  END
>  <minimizedAffinity>
-5.11560345

>  <minimizedRMSD>
0.304476917

$$$$
