
 OpenBabel03242516293D

 45 49  0  0  1  0  0  0  0  0999 V2000
   49.9120   30.4870   49.6990 C   0  0  0  0  0  0  0  0  0  0  0  0
   50.0990   31.7800   50.1180 N   0  0  0  0  0  0  0  0  0  0  0  0
   50.8330   32.1090   51.1670 C   0  0  0  0  0  0  0  0  0  0  0  0
   51.4200   31.1170   51.8450 N   0  0  0  0  0  0  0  0  0  0  0  0
   51.2890   29.8290   51.5060 C   0  0  0  0  0  0  0  0  0  0  0  0
   51.8980   28.8030   52.2260 C   0  0  0  0  0  0  0  0  0  0  0  0
   51.7290   27.4880   51.8580 C   0  0  0  0  0  0  0  0  0  0  0  0
   50.9500   27.1840   50.7650 C   0  0  0  0  0  0  0  0  0  0  0  0
   50.3370   28.1750   50.0280 C   0  0  0  0  0  0  0  0  0  0  0  0
   50.5110   29.4840   50.3990 C   0  0  0  0  0  0  0  0  0  0  0  0
   50.9530   33.1410   51.4610 H   0  0  0  0  0  0  0  0  0  0  0  0
   52.4840   29.1510   53.0620 H   0  0  0  0  0  0  0  0  0  0  0  0
   52.2470   26.7940   52.4900 H   0  0  0  0  0  0  0  0  0  0  0  0
   50.9150   26.1150   50.6220 H   0  0  0  0  0  0  0  0  0  0  0  0
   49.5380   27.7150   48.8880 C   0  0  0  0  0  0  0  0  0  0  0  0
   48.4600   27.7900   48.9950 H   0  0  0  0  0  0  0  0  0  0  0  0
   49.9900   27.9580   47.9040 H   0  0  0  0  0  0  0  0  0  0  0  0
   49.6120   26.1780   48.7260 C   0  0  1  0  0  0  0  0  0  0  0  0
   48.1250   25.7730   48.6860 C   0  0  0  0  0  0  0  0  0  0  0  0
   47.5040   26.4650   49.2910 H   0  0  0  0  0  0  0  0  0  0  0  0
   47.8290   25.7890   47.2250 C   0  0  0  0  0  0  0  0  0  0  0  0
   47.7090   26.8150   46.8530 H   0  0  0  0  0  0  0  0  0  0  0  0
   48.9520   25.2480   46.6680 O   0  0  0  0  0  0  0  0  0  0  0  0
   50.0420   25.7540   47.3670 C   0  0  0  0  0  0  0  0  0  0  0  0
   50.7960   24.9300   47.3400 H   0  0  0  0  0  0  0  0  0  0  0  0
   48.9880   30.1160   48.2890 S   0  0  0  0  0  0  0  0  0  0  0  0
   46.1380   32.6190   47.0050 C   0  0  0  0  0  0  0  0  0  0  0  0
   47.2960   31.8620   47.1090 C   0  0  0  0  0  0  0  0  0  0  0  0
   47.4960   31.0310   48.1950 C   0  0  0  0  0  0  0  0  0  0  0  0
   46.5500   30.9360   49.1910 C   0  0  0  0  0  0  0  0  0  0  0  0
   45.4020   31.6620   49.1240 C   0  0  0  0  0  0  0  0  0  0  0  0
   45.2160   32.4860   48.0380 C   0  0  0  0  0  0  0  0  0  0  0  0
   48.0070   31.9720   46.3010 H   0  0  0  0  0  0  0  0  0  0  0  0
   46.7560   30.2620   50.0290 H   0  0  0  0  0  0  0  0  0  0  0  0
   44.6640   31.5830   49.9110 H   0  0  0  0  0  0  0  0  0  0  0  0
   44.3010   33.0640   47.9860 H   0  0  0  0  0  0  0  0  0  0  0  0
   44.7300   35.2920   44.9720 C   0  0  0  0  0  0  0  0  0  0  0  0
   45.4580   35.2120   43.7740 C   0  0  0  0  0  0  0  0  0  0  0  0
   46.4480   34.2300   43.6540 C   0  0  0  0  0  0  0  0  0  0  0  0
   46.6760   33.3750   44.7110 N   0  0  0  0  0  0  0  0  0  0  0  0
   45.9360   33.5000   45.8520 C   0  0  0  0  0  0  0  0  0  0  0  0
   44.9680   34.4490   45.9880 N   0  0  0  0  0  0  0  0  0  0  0  0
   43.9430   36.0340   45.1310 H   0  0  0  0  0  0  0  0  0  0  0  0
   45.2200   35.9110   43.0040 H   0  0  0  0  0  0  0  0  0  0  0  0
   47.0080   34.1610   42.7480 H   0  0  0  0  0  0  0  0  0  0  0  0
  1  2  2  0  0  0  0
  1 10  1  0  0  0  0
  2  3  1  0  0  0  0
  3 11  1  0  0  0  0
  3  4  2  0  0  0  0
  5  4  1  0  0  0  0
  5  6  1  0  0  0  0
  6 12  1  0  0  0  0
  7  6  2  0  0  0  0
  7 13  1  0  0  0  0
  8  7  1  0  0  0  0
  9 10  1  0  0  0  0
  9  8  2  0  0  0  0
 10  5  2  0  0  0  0
 14  8  1  0  0  0  0
 15 16  1  0  0  0  0
 15  9  1  0  0  0  0
 17 15  1  0  0  0  0
 18 15  1  6  0  0  0
 19 18  1  0  0  0  0
 19 20  1  0  0  0  0
 21 19  1  0  0  0  0
 22 21  1  0  0  0  0
 23 21  1  0  0  0  0
 23 24  1  0  0  0  0
 24 18  1  0  0  0  0
 25 24  1  0  0  0  0
 26  1  1  0  0  0  0
 27 28  2  0  0  0  0
 27 32  1  0  0  0  0
 28 29  1  0  0  0  0
 29 26  1  0  0  0  0
 29 30  2  0  0  0  0
 30 34  1  0  0  0  0
 31 30  1  0  0  0  0
 31 35  1  0  0  0  0
 32 31  2  0  0  0  0
 33 28  1  0  0  0  0
 36 32  1  0  0  0  0
 37 43  1  0  0  0  0
 37 42  1  0  0  0  0
 38 37  2  0  0  0  0
 39 38  1  0  0  0  0
 39 40  2  0  0  0  0
 40 41  1  0  0  0  0
 41 42  2  0  0  0  0
 41 27  1  0  0  0  0
 44 38  1  0  0  0  0
 45 39  1  0  0  0  0
M  END
>  <minimizedAffinity>
-6.42715263

>  <minimizedRMSD>
0.762076676

$$$$
