
 OpenBabel03242514573D

 24 25  0  0  1  0  0  0  0  0999 V2000
   42.2340   35.2650   39.7180 C   0  0  0  0  0  0  0  0  0  0  0  0
   42.6680   36.1880   39.2330 H   0  0  0  0  0  0  0  0  0  0  0  0
   41.9880   35.6310   40.7560 H   0  0  0  0  0  0  0  0  0  0  0  0
   40.9470   34.9230   39.0840 C   0  0  0  0  0  0  0  0  0  0  0  0
   40.8290   35.5790   38.1700 H   0  0  0  0  0  0  0  0  0  0  0  0
   41.0200   33.8800   38.6560 H   0  0  0  0  0  0  0  0  0  0  0  0
   39.7180   35.0360   39.9140 C   0  0  2  0  0  0  0  0  0  0  0  0
   40.0920   34.5670   41.3200 C   0  0  0  0  0  0  0  0  0  0  0  0
   39.5550   35.1070   42.1080 H   0  0  0  0  0  0  0  0  0  0  0  0
   39.6120   33.1320   41.3000 C   0  0  0  0  0  0  0  0  0  0  0  0
   39.4480   32.7880   42.3510 H   0  0  0  0  0  0  0  0  0  0  0  0
   38.3920   33.2710   40.6790 O   0  0  0  0  0  0  0  0  0  0  0  0
   38.6860   34.0160   39.5200 C   0  0  0  0  0  0  0  0  0  0  0  0
   39.0530   33.2810   38.7820 H   0  0  0  0  0  0  0  0  0  0  0  0
   43.4380   33.9800   39.8860 S   0  0  0  0  0  0  0  0  0  0  0  0
   44.8350   34.4200   40.9140 C   0  0  0  0  0  0  0  0  0  0  0  0
   44.5160   35.1640   42.0560 C   0  0  0  0  0  0  0  0  0  0  0  0
   45.5710   35.5450   42.9050 C   0  0  0  0  0  0  0  0  0  0  0  0
   46.8470   35.1690   42.5670 N   0  0  0  0  0  0  0  0  0  0  0  0
   47.0960   34.4530   41.4560 C   0  0  0  0  0  0  0  0  0  0  0  0
   46.1240   34.0760   40.6310 N   0  0  0  0  0  0  0  0  0  0  0  0
   43.5290   35.4630   42.3290 H   0  0  0  0  0  0  0  0  0  0  0  0
   45.4050   36.1220   43.8080 H   0  0  0  0  0  0  0  0  0  0  0  0
   48.1380   34.2000   41.2690 H   0  0  0  0  0  0  0  0  0  0  0  0
  1 15  1  0  0  0  0
  1  3  1  0  0  0  0
  2  1  1  0  0  0  0
  4  1  1  0  0  0  0
  5  4  1  0  0  0  0
  6  4  1  0  0  0  0
  7  4  1  6  0  0  0
  7  8  1  0  0  0  0
  8  9  1  0  0  0  0
 10  8  1  0  0  0  0
 10 11  1  0  0  0  0
 12 10  1  0  0  0  0
 13  7  1  0  0  0  0
 13 12  1  0  0  0  0
 14 13  1  0  0  0  0
 15 16  1  0  0  0  0
 16 17  1  0  0  0  0
 17 22  1  0  0  0  0
 17 18  2  0  0  0  0
 18 23  1  0  0  0  0
 19 18  1  0  0  0  0
 20 19  2  0  0  0  0
 21 16  2  0  0  0  0
 21 20  1  0  0  0  0
 24 20  1  0  0  0  0
M  END
>  <minimizedAffinity>
-4.03808022

>  <minimizedRMSD>
3.93446088

$$$$
