
 OpenBabel03242512233D

 40 43  0  0  1  0  0  0  0  0999 V2000
   36.4480   30.9820   39.9670 C   0  0  0  0  0  0  0  0  0  0  0  0
   37.0090   31.6570   38.9180 C   0  0  0  0  0  0  0  0  0  0  0  0
   37.3080   30.9780   37.7720 C   0  0  0  0  0  0  0  0  0  0  0  0
   37.0410   29.6150   37.6810 C   0  0  0  0  0  0  0  0  0  0  0  0
   36.4740   28.9640   38.7590 C   0  0  0  0  0  0  0  0  0  0  0  0
   36.1670   29.6500   39.9330 C   0  0  0  0  0  0  0  0  0  0  0  0
   37.7580   31.5090   36.9240 H   0  0  0  0  0  0  0  0  0  0  0  0
   37.2680   29.0560   36.7840 H   0  0  0  0  0  0  0  0  0  0  0  0
   36.2670   27.8980   38.6820 H   0  0  0  0  0  0  0  0  0  0  0  0
   37.2590   33.0980   39.0980 C   0  0  0  0  0  0  0  0  0  0  0  0
   36.6370   33.5530   39.8540 H   0  0  0  0  0  0  0  0  0  0  0  0
   37.1300   33.6120   38.1410 H   0  0  0  0  0  0  0  0  0  0  0  0
   38.6870   33.3270   39.5550 C   0  0  0  0  0  0  0  0  0  0  0  0
   38.9760   34.5400   40.2140 C   0  0  0  0  0  0  0  0  0  0  0  0
   40.2790   34.7230   40.6220 C   0  0  0  0  0  0  0  0  0  0  0  0
   41.1770   33.7590   40.3740 N   0  0  0  0  0  0  0  0  0  0  0  0
   40.8760   32.5990   39.7360 C   0  0  0  0  0  0  0  0  0  0  0  0
   39.6260   32.4070   39.3370 N   0  0  0  0  0  0  0  0  0  0  0  0
   38.2250   35.2960   40.3970 H   0  0  0  0  0  0  0  0  0  0  0  0
   40.5860   35.6340   41.1400 H   0  0  0  0  0  0  0  0  0  0  0  0
   41.6500   31.8600   39.5670 H   0  0  0  0  0  0  0  0  0  0  0  0
   36.1050   31.5890   41.1870 O   0  0  0  0  0  0  0  0  0  0  0  0
   36.5170   31.2180   42.0460 H   0  0  0  0  0  0  0  0  0  0  0  0
   35.5950   28.8920   40.9600 O   0  0  0  0  0  0  0  0  0  0  0  0
   36.5100   28.1280   41.6840 C   0  0  0  0  0  0  0  0  0  0  0  0
   37.3480   28.7680   42.5720 C   0  0  0  0  0  0  0  0  0  0  0  0
   38.2950   28.0990   43.3420 C   0  0  0  0  0  0  0  0  0  0  0  0
   38.3960   26.7800   43.2130 N   0  0  0  0  0  0  0  0  0  0  0  0
   37.5800   26.1400   42.3450 C   0  0  0  0  0  0  0  0  0  0  0  0
   36.6670   26.8010   41.6050 N   0  0  0  0  0  0  0  0  0  0  0  0
   37.2830   29.8590   42.6960 H   0  0  0  0  0  0  0  0  0  0  0  0
   38.9270   28.6590   44.0250 H   0  0  0  0  0  0  0  0  0  0  0  0
   37.6180   24.6810   42.1340 C   0  0  2  0  0  3  0  0  0  0  0  0
   38.9330   24.1450   41.6740 C   0  0  0  0  0  3  0  0  0  0  0  0
   39.6750   24.9250   41.4160 H   0  0  0  0  0  0  0  0  0  0  0  0
   38.5760   23.3990   40.3830 C   0  0  0  0  0  3  0  0  0  0  0  0
   38.6370   24.0980   39.5260 H   0  0  0  0  0  0  0  0  0  0  0  0
   37.2260   23.0710   40.5860 O   0  0  0  0  0  0  0  0  0  0  0  0
   36.7000   24.2910   40.9900 C   0  0  0  0  0  3  0  0  0  0  0  0
   36.7710   25.0490   40.1930 H   0  0  0  0  0  0  0  0  0  0  0  0
  1 22  1  0  0  0  0
  2 10  1  0  0  0  0
  2  1  2  0  0  0  0
  3  2  1  0  0  0  0
  4  3  2  0  0  0  0
  4  5  1  0  0  0  0
  5  6  2  0  0  0  0
  6  1  1  0  0  0  0
  6 24  1  0  0  0  0
  7  3  1  0  0  0  0
  8  4  1  0  0  0  0
  9  5  1  0  0  0  0
 10 13  1  0  0  0  0
 10 11  1  0  0  0  0
 12 10  1  0  0  0  0
 13 14  1  0  0  0  0
 14 19  1  0  0  0  0
 14 15  2  0  0  0  0
 15 20  1  0  0  0  0
 16 15  1  0  0  0  0
 17 16  2  0  0  0  0
 18 13  2  0  0  0  0
 18 17  1  0  0  0  0
 21 17  1  0  0  0  0
 22 23  1  0  0  0  0
 24 25  1  0  0  0  0
 25 26  1  0  0  0  0
 26 31  1  0  0  0  0
 26 27  2  0  0  0  0
 27 32  1  0  0  0  0
 28 27  1  0  0  0  0
 29 28  2  0  0  0  0
 30 25  2  0  0  0  0
 30 29  1  0  0  0  0
 33 29  1  6  0  0  0
 34 33  1  0  0  0  0
 35 34  1  0  0  0  0
 36 38  1  0  0  0  0
 36 34  1  0  0  0  0
 37 36  1  0  0  0  0
 38 39  1  0  0  0  0
 39 33  1  0  0  0  0
 40 39  1  0  0  0  0
M  END
>  <minimizedAffinity>
-6.5791173

$$$$

 OpenBabel03242512233D

 40 43  0  0  1  0  0  0  0  0999 V2000
   36.5550   31.2160   39.6970 C   0  0  0  0  0  0  0  0  0  0  0  0
   37.3080   32.2070   39.1320 C   0  0  0  0  0  0  0  0  0  0  0  0
   37.7490   32.0600   37.8490 C   0  0  0  0  0  0  0  0  0  0  0  0
   37.4310   30.9090   37.1320 C   0  0  0  0  0  0  0  0  0  0  0  0
   36.6680   29.9270   37.7330 C   0  0  0  0  0  0  0  0  0  0  0  0
   36.2150   30.0710   39.0430 C   0  0  0  0  0  0  0  0  0  0  0  0
   38.3540   32.8480   37.3840 H   0  0  0  0  0  0  0  0  0  0  0  0
   37.7690   30.7690   36.1140 H   0  0  0  0  0  0  0  0  0  0  0  0
   36.4230   29.0310   37.1670 H   0  0  0  0  0  0  0  0  0  0  0  0
   37.5990   33.3910   39.9600 C   0  0  0  0  0  0  0  0  0  0  0  0
   37.1110   33.3740   40.9240 H   0  0  0  0  0  0  0  0  0  0  0  0
   37.3240   34.2960   39.4120 H   0  0  0  0  0  0  0  0  0  0  0  0
   39.0840   33.4670   40.2580 C   0  0  0  0  0  0  0  0  0  0  0  0
   39.7470   34.6780   39.9690 C   0  0  0  0  0  0  0  0  0  0  0  0
   41.0950   34.7240   40.2510 C   0  0  0  0  0  0  0  0  0  0  0  0
   41.6840   33.6390   40.7730 N   0  0  0  0  0  0  0  0  0  0  0  0
   41.0260   32.4830   41.0420 C   0  0  0  0  0  0  0  0  0  0  0  0
   39.7280   32.4220   40.7770 N   0  0  0  0  0  0  0  0  0  0  0  0
   39.2380   35.5340   39.5480 H   0  0  0  0  0  0  0  0  0  0  0  0
   41.6820   35.6240   40.0580 H   0  0  0  0  0  0  0  0  0  0  0  0
   41.5620   31.6420   41.4640 H   0  0  0  0  0  0  0  0  0  0  0  0
   36.0540   31.2720   41.0090 O   0  0  0  0  0  0  0  0  0  0  0  0
   36.3050   30.5230   41.6570 H   0  0  0  0  0  0  0  0  0  0  0  0
   35.4510   29.0160   39.5510 O   0  0  0  0  0  0  0  0  0  0  0  0
   36.2030   27.9740   40.0930 C   0  0  0  0  0  0  0  0  0  0  0  0
   36.2310   26.7660   39.4300 C   0  0  0  0  0  0  0  0  0  0  0  0
   36.9500   25.6650   39.8840 C   0  0  0  0  0  0  0  0  0  0  0  0
   37.6400   25.7840   41.0140 N   0  0  0  0  0  0  0  0  0  0  0  0
   37.6200   26.9630   41.6760 C   0  0  0  0  0  0  0  0  0  0  0  0
   36.9200   28.0220   41.2220 N   0  0  0  0  0  0  0  0  0  0  0  0
   35.6680   26.6440   38.4920 H   0  0  0  0  0  0  0  0  0  0  0  0
   36.9340   24.7380   39.3160 H   0  0  0  0  0  0  0  0  0  0  0  0
   38.3540   27.1910   42.9340 C   0  0  2  0  0  3  0  0  0  0  0  0
   39.2840   28.3580   42.9190 C   0  0  0  0  0  3  0  0  0  0  0  0
   39.4110   28.8230   41.9210 H   0  0  0  0  0  0  0  0  0  0  0  0
   40.6290   27.7390   43.3170 C   0  0  0  0  0  3  0  0  0  0  0  0
   41.1580   27.3920   42.4070 H   0  0  0  0  0  0  0  0  0  0  0  0
   40.2380   26.6110   44.0540 O   0  0  0  0  0  0  0  0  0  0  0  0
   39.3000   26.0360   43.2090 C   0  0  0  0  0  3  0  0  0  0  0  0
   39.7550   25.7070   42.2600 H   0  0  0  0  0  0  0  0  0  0  0  0
  1 22  1  0  0  0  0
  2  1  1  0  0  0  0
  2 10  1  0  0  0  0
  3  2  2  0  0  0  0
  4  5  2  0  0  0  0
  4  3  1  0  0  0  0
  5  6  1  0  0  0  0
  6 24  1  0  0  0  0
  6  1  2  0  0  0  0
  7  3  1  0  0  0  0
  8  4  1  0  0  0  0
  9  5  1  0  0  0  0
 10 13  1  0  0  0  0
 10 11  1  0  0  0  0
 12 10  1  0  0  0  0
 13 18  1  0  0  0  0
 14 15  1  0  0  0  0
 14 13  2  0  0  0  0
 15 16  2  0  0  0  0
 16 17  1  0  0  0  0
 17 21  1  0  0  0  0
 18 17  2  0  0  0  0
 19 14  1  0  0  0  0
 20 15  1  0  0  0  0
 22 23  1  0  0  0  0
 24 25  1  0  0  0  0
 25 30  1  0  0  0  0
 26 27  1  0  0  0  0
 26 25  2  0  0  0  0
 27 28  2  0  0  0  0
 28 29  1  0  0  0  0
 30 29  2  0  0  0  0
 31 26  1  0  0  0  0
 32 27  1  0  0  0  0
 33 29  1  6  0  0  0
 33 39  1  0  0  0  0
 34 33  1  0  0  0  0
 34 36  1  0  0  0  0
 35 34  1  0  0  0  0
 36 38  1  0  0  0  0
 37 36  1  0  0  0  0
 39 38  1  0  0  0  0
 40 39  1  0  0  0  0
M  END
>  <minimizedAffinity>
-6.43031693

$$$$

 OpenBabel03242512233D

 40 43  0  0  1  0  0  0  0  0999 V2000
   37.1780   28.3660   42.3210 C   0  0  0  0  0  0  0  0  0  0  0  0
   37.7710   27.1670   42.6050 C   0  0  0  0  0  0  0  0  0  0  0  0
   37.6440   26.1350   41.7210 C   0  0  0  0  0  0  0  0  0  0  0  0
   36.9170   26.3100   40.5470 C   0  0  0  0  0  0  0  0  0  0  0  0
   36.3300   27.5340   40.2910 C   0  0  0  0  0  0  0  0  0  0  0  0
   36.4550   28.5920   41.1890 C   0  0  0  0  0  0  0  0  0  0  0  0
   38.1150   25.1680   41.9380 H   0  0  0  0  0  0  0  0  0  0  0  0
   36.8020   25.5070   39.8310 H   0  0  0  0  0  0  0  0  0  0  0  0
   35.7640   27.6650   39.3710 H   0  0  0  0  0  0  0  0  0  0  0  0
   38.5210   27.0670   43.8700 C   0  0  0  0  0  0  0  0  0  0  0  0
   38.2980   26.1750   44.4350 H   0  0  0  0  0  0  0  0  0  0  0  0
   38.3330   27.9580   44.4760 H   0  0  0  0  0  0  0  0  0  0  0  0
   40.0100   27.0080   43.5890 C   0  0  0  0  0  0  0  0  0  0  0  0
   40.6520   25.7590   43.7270 C   0  0  0  0  0  0  0  0  0  0  0  0
   42.0050   25.7310   43.4630 C   0  0  0  0  0  0  0  0  0  0  0  0
   42.6170   26.8660   43.0990 N   0  0  0  0  0  0  0  0  0  0  0  0
   41.9790   28.0570   42.9750 C   0  0  0  0  0  0  0  0  0  0  0  0
   40.6770   28.1020   43.2240 N   0  0  0  0  0  0  0  0  0  0  0  0
   40.1240   24.8630   44.0220 H   0  0  0  0  0  0  0  0  0  0  0  0
   42.5760   24.8040   43.5450 H   0  0  0  0  0  0  0  0  0  0  0  0
   42.5340   28.9390   42.6770 H   0  0  0  0  0  0  0  0  0  0  0  0
   37.2490   29.4880   43.1650 O   0  0  0  0  0  0  0  0  0  0  0  0
   36.3750   29.9020   43.4970 H   0  0  0  0  0  0  0  0  0  0  0  0
   35.8220   29.7860   40.8290 O   0  0  0  0  0  0  0  0  0  0  0  0
   36.6370   30.6800   40.1360 C   0  0  0  0  0  0  0  0  0  0  0  0
   36.5520   30.7220   38.7610 C   0  0  0  0  0  0  0  0  0  0  0  0
   37.3200   31.5770   37.9760 C   0  0  0  0  0  0  0  0  0  0  0  0
   38.1780   32.3900   38.5830 N   0  0  0  0  0  0  0  0  0  0  0  0
   38.2730   32.3590   39.9310 C   0  0  0  0  0  0  0  0  0  0  0  0
   37.5220   31.5250   40.6790 N   0  0  0  0  0  0  0  0  0  0  0  0
   35.8480   30.0580   38.2360 H   0  0  0  0  0  0  0  0  0  0  0  0
   37.2070   31.5630   36.8950 H   0  0  0  0  0  0  0  0  0  0  0  0
   39.1940   33.2230   40.6920 C   0  0  2  0  0  3  0  0  0  0  0  0
   39.3590   34.6030   40.1470 C   0  0  0  0  0  3  0  0  0  0  0  0
   38.8770   34.7620   39.1620 H   0  0  0  0  0  0  0  0  0  0  0  0
   40.8740   34.7220   39.9470 C   0  0  0  0  0  3  0  0  0  0  0  0
   41.1400   34.3630   38.9330 H   0  0  0  0  0  0  0  0  0  0  0  0
   41.3770   33.8060   40.8830 O   0  0  0  0  0  0  0  0  0  0  0  0
   40.6100   32.6810   40.6130 C   0  0  0  0  0  3  0  0  0  0  0  0
   40.7940   32.2960   39.5970 H   0  0  0  0  0  0  0  0  0  0  0  0
  1  2  1  0  0  0  0
  1 22  1  0  0  0  0
  2 10  1  0  0  0  0
  3  7  1  0  0  0  0
  3  2  2  0  0  0  0
  4  3  1  0  0  0  0
  5  4  2  0  0  0  0
  5  6  1  0  0  0  0
  6  1  2  0  0  0  0
  8  4  1  0  0  0  0
  9  5  1  0  0  0  0
 10 11  1  0  0  0  0
 10 12  1  0  0  0  0
 13 14  1  0  0  0  0
 13 10  1  0  0  0  0
 14 19  1  0  0  0  0
 15 20  1  0  0  0  0
 15 14  2  0  0  0  0
 16 15  1  0  0  0  0
 17 16  2  0  0  0  0
 17 18  1  0  0  0  0
 18 13  2  0  0  0  0
 21 17  1  0  0  0  0
 22 23  1  0  0  0  0
 24  6  1  0  0  0  0
 25 30  1  0  0  0  0
 25 24  1  0  0  0  0
 26 25  2  0  0  0  0
 27 28  2  0  0  0  0
 27 26  1  0  0  0  0
 28 29  1  0  0  0  0
 29 30  2  0  0  0  0
 31 26  1  0  0  0  0
 32 27  1  0  0  0  0
 33 29  1  6  0  0  0
 34 33  1  0  0  0  0
 35 34  1  0  0  0  0
 36 34  1  0  0  0  0
 36 38  1  0  0  0  0
 37 36  1  0  0  0  0
 39 33  1  0  0  0  0
 39 38  1  0  0  0  0
 40 39  1  0  0  0  0
M  END
>  <minimizedAffinity>
-6.33106565

$$$$

 OpenBabel03242512233D

 40 43  0  0  1  0  0  0  0  0999 V2000
   36.7320   28.8590   41.7980 C   0  0  0  0  0  0  0  0  0  0  0  0
   36.7970   27.5080   41.5940 C   0  0  0  0  0  0  0  0  0  0  0  0
   36.6420   27.0160   40.3300 C   0  0  0  0  0  0  0  0  0  0  0  0
   36.4200   27.8880   39.2670 C   0  0  0  0  0  0  0  0  0  0  0  0
   36.3600   29.2460   39.5080 C   0  0  0  0  0  0  0  0  0  0  0  0
   36.5170   29.7550   40.7950 C   0  0  0  0  0  0  0  0  0  0  0  0
   36.6920   25.9340   40.1540 H   0  0  0  0  0  0  0  0  0  0  0  0
   36.2940   27.5220   38.2570 H   0  0  0  0  0  0  0  0  0  0  0  0
   36.1870   29.9220   38.6720 H   0  0  0  0  0  0  0  0  0  0  0  0
   37.0340   26.6580   42.7740 C   0  0  0  0  0  0  0  0  0  0  0  0
   36.5820   25.6800   42.6990 H   0  0  0  0  0  0  0  0  0  0  0  0
   36.6800   27.1720   43.6710 H   0  0  0  0  0  0  0  0  0  0  0  0
   38.5200   26.4060   42.9450 C   0  0  0  0  0  0  0  0  0  0  0  0
   39.0270   25.1640   42.5080 C   0  0  0  0  0  0  0  0  0  0  0  0
   40.3800   24.9600   42.6720 C   0  0  0  0  0  0  0  0  0  0  0  0
   41.1190   25.9330   43.2230 N   0  0  0  0  0  0  0  0  0  0  0  0
   40.6090   27.1210   43.6370 C   0  0  0  0  0  0  0  0  0  0  0  0
   39.3090   27.3330   43.4870 N   0  0  0  0  0  0  0  0  0  0  0  0
   38.4000   24.4020   42.0670 H   0  0  0  0  0  0  0  0  0  0  0  0
   40.8520   24.0270   42.3590 H   0  0  0  0  0  0  0  0  0  0  0  0
   41.2630   27.8660   44.0750 H   0  0  0  0  0  0  0  0  0  0  0  0
   36.8780   29.4630   43.0580 O   0  0  0  0  0  0  0  0  0  0  0  0
   36.1190   30.0550   43.4030 H   0  0  0  0  0  0  0  0  0  0  0  0
   36.4380   31.1460   40.9240 O   0  0  0  0  0  0  0  0  0  0  0  0
   37.6500   31.8080   40.7300 C   0  0  0  0  0  0  0  0  0  0  0  0
   37.6340   33.0590   40.1530 C   0  0  0  0  0  0  0  0  0  0  0  0
   38.7860   33.8030   39.9170 C   0  0  0  0  0  0  0  0  0  0  0  0
   39.9580   33.2790   40.2630 N   0  0  0  0  0  0  0  0  0  0  0  0
   39.9880   32.0520   40.8290 C   0  0  0  0  0  0  0  0  0  0  0  0
   38.8630   31.3430   41.0530 N   0  0  0  0  0  0  0  0  0  0  0  0
   36.6760   33.5130   39.8590 H   0  0  0  0  0  0  0  0  0  0  0  0
   38.7090   34.7860   39.4590 H   0  0  0  0  0  0  0  0  0  0  0  0
   41.2380   31.3900   41.2460 C   0  0  2  0  0  3  0  0  0  0  0  0
   41.1670   30.6800   42.5580 C   0  0  0  0  0  3  0  0  0  0  0  0
   40.2280   30.8550   43.1180 H   0  0  0  0  0  0  0  0  0  0  0  0
   42.3110   31.3110   43.3600 C   0  0  0  0  0  3  0  0  0  0  0  0
   41.9340   32.2020   43.8990 H   0  0  0  0  0  0  0  0  0  0  0  0
   43.1850   31.7450   42.3520 O   0  0  0  0  0  0  0  0  0  0  0  0
   42.3200   32.4230   41.5040 C   0  0  0  0  0  3  0  0  0  0  0  0
   41.8720   33.3020   41.9970 H   0  0  0  0  0  0  0  0  0  0  0  0
  1 22  1  0  0  0  0
  2  1  1  0  0  0  0
  2 10  1  0  0  0  0
  3  2  2  0  0  0  0
  4  5  2  0  0  0  0
  4  3  1  0  0  0  0
  5  6  1  0  0  0  0
  6 24  1  0  0  0  0
  6  1  2  0  0  0  0
  7  3  1  0  0  0  0
  8  4  1  0  0  0  0
  9  5  1  0  0  0  0
 10 13  1  0  0  0  0
 10 12  1  0  0  0  0
 11 10  1  0  0  0  0
 13 18  1  0  0  0  0
 14 15  1  0  0  0  0
 14 13  2  0  0  0  0
 15 16  2  0  0  0  0
 16 17  1  0  0  0  0
 17 21  1  0  0  0  0
 18 17  2  0  0  0  0
 19 14  1  0  0  0  0
 20 15  1  0  0  0  0
 22 23  1  0  0  0  0
 25 24  1  0  0  0  0
 25 30  1  0  0  0  0
 26 25  2  0  0  0  0
 27 26  1  0  0  0  0
 27 28  2  0  0  0  0
 28 29  1  0  0  0  0
 29 30  2  0  0  0  0
 31 26  1  0  0  0  0
 32 27  1  0  0  0  0
 33 29  1  1  0  0  0
 33 39  1  0  0  0  0
 33 34  1  0  0  0  0
 34 35  1  0  0  0  0
 34 36  1  0  0  0  0
 36 37  1  0  0  0  0
 38 36  1  0  0  0  0
 39 40  1  0  0  0  0
 39 38  1  0  0  0  0
M  END
>  <minimizedAffinity>
-6.17656994

$$$$

 OpenBabel03242512233D

 40 43  0  0  1  0  0  0  0  0999 V2000
   36.3290   30.6550   39.8920 C   0  0  0  0  0  0  0  0  0  0  0  0
   36.1860   29.3030   39.7460 C   0  0  0  0  0  0  0  0  0  0  0  0
   36.5750   28.7140   38.5780 C   0  0  0  0  0  0  0  0  0  0  0  0
   37.1110   29.4890   37.5530 C   0  0  0  0  0  0  0  0  0  0  0  0
   37.2420   30.8520   37.7330 C   0  0  0  0  0  0  0  0  0  0  0  0
   36.8460   31.4600   38.9220 C   0  0  0  0  0  0  0  0  0  0  0  0
   36.4660   27.6300   38.4490 H   0  0  0  0  0  0  0  0  0  0  0  0
   37.4260   29.0440   36.6180 H   0  0  0  0  0  0  0  0  0  0  0  0
   37.6610   31.4520   36.9280 H   0  0  0  0  0  0  0  0  0  0  0  0
   35.6110   28.5590   40.8800 C   0  0  0  0  0  0  0  0  0  0  0  0
   35.0830   27.6630   40.5860 H   0  0  0  0  0  0  0  0  0  0  0  0
   34.9500   29.2170   41.4510 H   0  0  0  0  0  0  0  0  0  0  0  0
   36.7130   28.0930   41.8120 C   0  0  0  0  0  0  0  0  0  0  0  0
   37.1320   26.7500   41.7080 C   0  0  0  0  0  0  0  0  0  0  0  0
   38.1370   26.3520   42.5630 C   0  0  0  0  0  0  0  0  0  0  0  0
   38.6460   27.2440   43.4230 N   0  0  0  0  0  0  0  0  0  0  0  0
   38.2260   28.5320   43.5060 C   0  0  0  0  0  0  0  0  0  0  0  0
   37.2600   28.9320   42.6900 N   0  0  0  0  0  0  0  0  0  0  0  0
   36.6980   26.0570   41.0000 H   0  0  0  0  0  0  0  0  0  0  0  0
   38.5200   25.3290   42.5460 H   0  0  0  0  0  0  0  0  0  0  0  0
   38.6810   29.2030   44.2250 H   0  0  0  0  0  0  0  0  0  0  0  0
   35.9590   31.3560   41.0530 O   0  0  0  0  0  0  0  0  0  0  0  0
   35.2830   32.1170   40.9650 H   0  0  0  0  0  0  0  0  0  0  0  0
   37.0240   32.8450   38.9960 O   0  0  0  0  0  0  0  0  0  0  0  0
   38.3180   33.2380   39.3370 C   0  0  0  0  0  0  0  0  0  0  0  0
   38.4800   34.2570   40.2510 C   0  0  0  0  0  0  0  0  0  0  0  0
   39.7260   34.7230   40.6590 C   0  0  0  0  0  0  0  0  0  0  0  0
   40.8120   34.1590   40.1390 N   0  0  0  0  0  0  0  0  0  0  0  0
   40.6680   33.1590   39.2410 C   0  0  0  0  0  0  0  0  0  0  0  0
   39.4530   32.7170   38.8550 N   0  0  0  0  0  0  0  0  0  0  0  0
   37.5960   34.7390   40.6950 H   0  0  0  0  0  0  0  0  0  0  0  0
   39.7880   35.5300   41.3840 H   0  0  0  0  0  0  0  0  0  0  0  0
   41.8110   32.4730   38.6110 C   0  0  2  0  0  3  0  0  0  0  0  0
   41.5770   32.0150   37.2100 C   0  0  0  0  0  3  0  0  0  0  0  0
   40.5290   32.1230   36.8670 H   0  0  0  0  0  0  0  0  0  0  0  0
   41.8910   30.5150   37.2750 C   0  0  0  0  0  3  0  0  0  0  0  0
   40.9710   29.9580   37.5400 H   0  0  0  0  0  0  0  0  0  0  0  0
   42.7780   30.4390   38.3600 O   0  0  0  0  0  0  0  0  0  0  0  0
   42.1010   31.1670   39.3280 C   0  0  0  0  0  3  0  0  0  0  0  0
   41.1480   30.6870   39.6060 H   0  0  0  0  0  0  0  0  0  0  0  0
  1 22  1  0  0  0  0
  2  1  1  0  0  0  0
  2 10  1  0  0  0  0
  3  2  2  0  0  0  0
  4  5  2  0  0  0  0
  4  3  1  0  0  0  0
  5  6  1  0  0  0  0
  6 24  1  0  0  0  0
  6  1  2  0  0  0  0
  7  3  1  0  0  0  0
  8  4  1  0  0  0  0
  9  5  1  0  0  0  0
 10 12  1  0  0  0  0
 10 13  1  0  0  0  0
 11 10  1  0  0  0  0
 13 18  1  0  0  0  0
 14 13  2  0  0  0  0
 14 15  1  0  0  0  0
 15 16  2  0  0  0  0
 16 17  1  0  0  0  0
 17 21  1  0  0  0  0
 18 17  2  0  0  0  0
 19 14  1  0  0  0  0
 20 15  1  0  0  0  0
 23 22  1  0  0  0  0
 24 25  1  0  0  0  0
 25 26  1  0  0  0  0
 26 27  2  0  0  0  0
 26 31  1  0  0  0  0
 27 32  1  0  0  0  0
 28 27  1  0  0  0  0
 29 28  2  0  0  0  0
 30 29  1  0  0  0  0
 30 25  2  0  0  0  0
 33 29  1  1  0  0  0
 33 39  1  0  0  0  0
 34 36  1  0  0  0  0
 34 33  1  0  0  0  0
 35 34  1  0  0  0  0
 36 37  1  0  0  0  0
 36 38  1  0  0  0  0
 38 39  1  0  0  0  0
 39 40  1  0  0  0  0
M  END
>  <minimizedAffinity>
-6.13249254

$$$$

 OpenBabel03242512233D

 40 43  0  0  1  0  0  0  0  0999 V2000
   38.2040   29.4080   42.5700 C   0  0  0  0  0  0  0  0  0  0  0  0
   38.4860   28.1350   42.9800 C   0  0  0  0  0  0  0  0  0  0  0  0
   39.7890   27.7510   43.1180 C   0  0  0  0  0  0  0  0  0  0  0  0
   40.8120   28.6540   42.8410 C   0  0  0  0  0  0  0  0  0  0  0  0
   40.4930   29.9330   42.4290 C   0  0  0  0  0  0  0  0  0  0  0  0
   39.1650   30.3310   42.2860 C   0  0  0  0  0  0  0  0  0  0  0  0
   40.0280   26.7320   43.4460 H   0  0  0  0  0  0  0  0  0  0  0  0
   41.8530   28.3740   42.9430 H   0  0  0  0  0  0  0  0  0  0  0  0
   41.2970   30.6340   42.2150 H   0  0  0  0  0  0  0  0  0  0  0  0
   37.3440   27.2440   43.2510 C   0  0  0  0  0  0  0  0  0  0  0  0
   36.4210   27.7700   43.4430 H   0  0  0  0  0  0  0  0  0  0  0  0
   37.5870   26.5850   44.0900 H   0  0  0  0  0  0  0  0  0  0  0  0
   37.0680   26.3680   42.0440 C   0  0  0  0  0  0  0  0  0  0  0  0
   37.0340   24.9720   42.2440 C   0  0  0  0  0  0  0  0  0  0  0  0
   36.7780   24.1980   41.1320 C   0  0  0  0  0  0  0  0  0  0  0  0
   36.5810   24.8030   39.9530 N   0  0  0  0  0  0  0  0  0  0  0  0
   36.6200   26.1490   39.7840 C   0  0  0  0  0  0  0  0  0  0  0  0
   36.8640   26.9090   40.8440 N   0  0  0  0  0  0  0  0  0  0  0  0
   37.1970   24.5180   43.2110 H   0  0  0  0  0  0  0  0  0  0  0  0
   36.7330   23.1090   41.2020 H   0  0  0  0  0  0  0  0  0  0  0  0
   36.4510   26.5750   38.8020 H   0  0  0  0  0  0  0  0  0  0  0  0
   36.8990   29.8990   42.3980 O   0  0  0  0  0  0  0  0  0  0  0  0
   36.6360   30.2680   41.4810 H   0  0  0  0  0  0  0  0  0  0  0  0
   38.9570   31.6480   41.8640 O   0  0  0  0  0  0  0  0  0  0  0  0
   39.3860   31.9050   40.5610 C   0  0  0  0  0  0  0  0  0  0  0  0
   38.7720   31.2420   39.5210 C   0  0  0  0  0  0  0  0  0  0  0  0
   39.1240   31.4270   38.1880 C   0  0  0  0  0  0  0  0  0  0  0  0
   40.1010   32.2840   37.9050 N   0  0  0  0  0  0  0  0  0  0  0  0
   40.7110   32.9410   38.9160 C   0  0  0  0  0  0  0  0  0  0  0  0
   40.3590   32.7520   40.2040 N   0  0  0  0  0  0  0  0  0  0  0  0
   37.9610   30.5280   39.7300 H   0  0  0  0  0  0  0  0  0  0  0  0
   38.6020   30.8740   37.4110 H   0  0  0  0  0  0  0  0  0  0  0  0
   41.8030   33.9100   38.7020 C   0  0  2  0  0  3  0  0  0  0  0  0
   42.4230   33.8690   37.3450 C   0  0  0  0  0  3  0  0  0  0  0  0
   42.0810   33.0240   36.7160 H   0  0  0  0  0  0  0  0  0  0  0  0
   43.9110   33.6500   37.6470 C   0  0  0  0  0  3  0  0  0  0  0  0
   44.1190   32.5630   37.7000 H   0  0  0  0  0  0  0  0  0  0  0  0
   44.0400   34.1870   38.9370 O   0  0  0  0  0  0  0  0  0  0  0  0
   42.9820   33.5810   39.5990 C   0  0  0  0  0  3  0  0  0  0  0  0
   43.1050   32.4860   39.6490 H   0  0  0  0  0  0  0  0  0  0  0  0
  1  2  1  0  0  0  0
  2  3  2  0  0  0  0
  2 10  1  0  0  0  0
  3  7  1  0  0  0  0
  4  8  1  0  0  0  0
  4  3  1  0  0  0  0
  5  4  2  0  0  0  0
  6  5  1  0  0  0  0
  6  1  2  0  0  0  0
  9  5  1  0  0  0  0
 10 11  1  0  0  0  0
 10 12  1  0  0  0  0
 13 14  1  0  0  0  0
 13 10  1  0  0  0  0
 14 19  1  0  0  0  0
 15 20  1  0  0  0  0
 15 14  2  0  0  0  0
 16 15  1  0  0  0  0
 17 16  2  0  0  0  0
 17 18  1  0  0  0  0
 18 13  2  0  0  0  0
 21 17  1  0  0  0  0
 22  1  1  0  0  0  0
 23 22  1  0  0  0  0
 24  6  1  0  0  0  0
 25 24  1  0  0  0  0
 26 31  1  0  0  0  0
 26 25  2  0  0  0  0
 27 26  1  0  0  0  0
 28 27  2  0  0  0  0
 28 29  1  0  0  0  0
 29 30  2  0  0  0  0
 30 25  1  0  0  0  0
 32 27  1  0  0  0  0
 33 29  1  6  0  0  0
 33 39  1  0  0  0  0
 34 36  1  0  0  0  0
 34 33  1  0  0  0  0
 35 34  1  0  0  0  0
 36 37  1  0  0  0  0
 36 38  1  0  0  0  0
 38 39  1  0  0  0  0
 39 40  1  0  0  0  0
M  END
>  <minimizedAffinity>
-6.10881615

$$$$

 OpenBabel03242512233D

 40 43  0  0  1  0  0  0  0  0999 V2000
   37.3240   29.9100   41.8300 C   0  0  0  0  0  0  0  0  0  0  0  0
   37.5580   30.8460   40.8610 C   0  0  0  0  0  0  0  0  0  0  0  0
   38.7840   31.4420   40.7920 C   0  0  0  0  0  0  0  0  0  0  0  0
   39.7790   31.0940   41.7010 C   0  0  0  0  0  0  0  0  0  0  0  0
   39.5090   30.1450   42.6680 C   0  0  0  0  0  0  0  0  0  0  0  0
   38.2600   29.5330   42.7450 C   0  0  0  0  0  0  0  0  0  0  0  0
   38.9840   32.1950   40.0190 H   0  0  0  0  0  0  0  0  0  0  0  0
   40.7580   31.5520   41.6660 H   0  0  0  0  0  0  0  0  0  0  0  0
   40.2910   29.8770   43.3750 H   0  0  0  0  0  0  0  0  0  0  0  0
   36.4510   31.1560   39.9390 C   0  0  0  0  0  0  0  0  0  0  0  0
   36.5120   32.1430   39.5060 H   0  0  0  0  0  0  0  0  0  0  0  0
   35.4970   31.0300   40.4600 H   0  0  0  0  0  0  0  0  0  0  0  0
   36.4640   30.1950   38.7660 C   0  0  0  0  0  0  0  0  0  0  0  0
   37.1590   30.5930   37.6040 C   0  0  0  0  0  0  0  0  0  0  0  0
   37.1590   29.7020   36.5530 C   0  0  0  0  0  0  0  0  0  0  0  0
   36.5150   28.5350   36.6930 N   0  0  0  0  0  0  0  0  0  0  0  0
   35.8520   28.1740   37.8210 C   0  0  0  0  0  0  0  0  0  0  0  0
   35.8420   29.0200   38.8420 N   0  0  0  0  0  0  0  0  0  0  0  0
   37.6680   31.5430   37.5270 H   0  0  0  0  0  0  0  0  0  0  0  0
   37.6740   29.9320   35.6190 H   0  0  0  0  0  0  0  0  0  0  0  0
   35.3500   27.2150   37.8690 H   0  0  0  0  0  0  0  0  0  0  0  0
   36.0980   29.2410   41.9850 O   0  0  0  0  0  0  0  0  0  0  0  0
   35.6180   29.3100   42.8850 H   0  0  0  0  0  0  0  0  0  0  0  0
   38.0970   28.5860   43.7610 O   0  0  0  0  0  0  0  0  0  0  0  0
   38.3930   27.2780   43.3770 C   0  0  0  0  0  0  0  0  0  0  0  0
   39.5670   26.7100   43.8190 C   0  0  0  0  0  0  0  0  0  0  0  0
   39.9550   25.4130   43.4950 C   0  0  0  0  0  0  0  0  0  0  0  0
   39.1530   24.6900   42.7190 N   0  0  0  0  0  0  0  0  0  0  0  0
   37.9980   25.2360   42.2770 C   0  0  0  0  0  0  0  0  0  0  0  0
   37.6350   26.4940   42.6010 N   0  0  0  0  0  0  0  0  0  0  0  0
   40.2470   27.2880   44.4630 H   0  0  0  0  0  0  0  0  0  0  0  0
   40.8940   25.0200   43.8750 H   0  0  0  0  0  0  0  0  0  0  0  0
   37.0460   24.5130   41.4140 C   0  0  2  0  0  3  0  0  0  0  0  0
   37.5750   23.2540   40.8100 C   0  0  0  0  0  3  0  0  0  0  0  0
   38.6580   23.0930   40.9730 H   0  0  0  0  0  0  0  0  0  0  0  0
   37.3590   23.4690   39.3070 C   0  0  0  0  0  3  0  0  0  0  0  0
   38.2490   23.9700   38.8760 H   0  0  0  0  0  0  0  0  0  0  0  0
   36.2890   24.3770   39.2820 O   0  0  0  0  0  0  0  0  0  0  0  0
   36.7170   25.3390   40.1850 C   0  0  0  0  0  3  0  0  0  0  0  0
   37.6300   25.8480   39.8350 H   0  0  0  0  0  0  0  0  0  0  0  0
  1 22  1  0  0  0  0
  1  6  1  0  0  0  0
  2  1  2  0  0  0  0
  3  2  1  0  0  0  0
  3  4  2  0  0  0  0
  4  5  1  0  0  0  0
  5  6  2  0  0  0  0
  5  9  1  0  0  0  0
  6 24  1  0  0  0  0
  7  3  1  0  0  0  0
  8  4  1  0  0  0  0
 10 12  1  0  0  0  0
 10  2  1  0  0  0  0
 11 10  1  0  0  0  0
 13 18  1  0  0  0  0
 13 10  1  0  0  0  0
 14 13  2  0  0  0  0
 15 16  2  0  0  0  0
 15 14  1  0  0  0  0
 16 17  1  0  0  0  0
 17 21  1  0  0  0  0
 17 18  2  0  0  0  0
 19 14  1  0  0  0  0
 20 15  1  0  0  0  0
 22 23  1  0  0  0  0
 25 24  1  0  0  0  0
 25 26  1  0  0  0  0
 26 31  1  0  0  0  0
 27 26  2  0  0  0  0
 27 32  1  0  0  0  0
 28 27  1  0  0  0  0
 29 30  1  0  0  0  0
 29 28  2  0  0  0  0
 30 25  2  0  0  0  0
 33 29  1  1  0  0  0
 34 35  1  0  0  0  0
 34 33  1  0  0  0  0
 36 34  1  0  0  0  0
 37 36  1  0  0  0  0
 38 36  1  0  0  0  0
 38 39  1  0  0  0  0
 39 33  1  0  0  0  0
 40 39  1  0  0  0  0
M  END
>  <minimizedAffinity>
-6.07417631

$$$$

 OpenBabel03242512233D

 40 43  0  0  1  0  0  0  0  0999 V2000
   38.4250   28.8490   42.9610 C   0  0  0  0  0  0  0  0  0  0  0  0
   38.4700   27.4850   43.0410 C   0  0  0  0  0  0  0  0  0  0  0  0
   39.6820   26.8580   43.0650 C   0  0  0  0  0  0  0  0  0  0  0  0
   40.8540   27.6080   43.0100 C   0  0  0  0  0  0  0  0  0  0  0  0
   40.7730   28.9840   42.9300 C   0  0  0  0  0  0  0  0  0  0  0  0
   39.5390   29.6310   42.9040 C   0  0  0  0  0  0  0  0  0  0  0  0
   39.7310   25.7640   43.1290 H   0  0  0  0  0  0  0  0  0  0  0  0
   41.8270   27.1340   43.0280 H   0  0  0  0  0  0  0  0  0  0  0  0
   41.6930   29.5640   42.8870 H   0  0  0  0  0  0  0  0  0  0  0  0
   37.1830   26.7680   43.0950 C   0  0  0  0  0  0  0  0  0  0  0  0
   36.3290   27.4210   43.2020 H   0  0  0  0  0  0  0  0  0  0  0  0
   37.2070   26.0390   43.9100 H   0  0  0  0  0  0  0  0  0  0  0  0
   36.9550   26.0080   41.8030 C   0  0  0  0  0  0  0  0  0  0  0  0
   36.9340   24.5990   41.8690 C   0  0  0  0  0  0  0  0  0  0  0  0
   36.7210   23.9310   40.6830 C   0  0  0  0  0  0  0  0  0  0  0  0
   36.5500   24.6430   39.5600 N   0  0  0  0  0  0  0  0  0  0  0  0
   36.5740   25.9990   39.5210 C   0  0  0  0  0  0  0  0  0  0  0  0
   36.7780   26.6580   40.6540 N   0  0  0  0  0  0  0  0  0  0  0  0
   37.0760   24.0570   42.7940 H   0  0  0  0  0  0  0  0  0  0  0  0
   36.6900   22.8400   40.6470 H   0  0  0  0  0  0  0  0  0  0  0  0
   36.4290   26.5150   38.5790 H   0  0  0  0  0  0  0  0  0  0  0  0
   37.2300   29.5870   42.9300 O   0  0  0  0  0  0  0  0  0  0  0  0
   37.0650   30.2100   42.1350 H   0  0  0  0  0  0  0  0  0  0  0  0
   39.5740   31.0260   42.8220 O   0  0  0  0  0  0  0  0  0  0  0  0
   39.5120   31.5250   41.5210 C   0  0  0  0  0  0  0  0  0  0  0  0
   40.5660   32.2760   41.0500 C   0  0  0  0  0  0  0  0  0  0  0  0
   40.6030   32.8190   39.7690 C   0  0  0  0  0  0  0  0  0  0  0  0
   39.5680   32.6030   38.9630 N   0  0  0  0  0  0  0  0  0  0  0  0
   38.5260   31.8680   39.4120 C   0  0  0  0  0  0  0  0  0  0  0  0
   38.5050   31.3480   40.6560 N   0  0  0  0  0  0  0  0  0  0  0  0
   41.4340   32.4690   41.7000 H   0  0  0  0  0  0  0  0  0  0  0  0
   41.4640   33.4030   39.4560 H   0  0  0  0  0  0  0  0  0  0  0  0
   37.3370   31.5750   38.5910 C   0  0  2  0  0  3  0  0  0  0  0  0
   36.3840   30.5940   39.1910 C   0  0  0  0  0  3  0  0  0  0  0  0
   36.7570   30.1050   40.1120 H   0  0  0  0  0  0  0  0  0  0  0  0
   36.2650   29.5150   38.1090 C   0  0  0  0  0  3  0  0  0  0  0  0
   37.0480   28.7470   38.2670 H   0  0  0  0  0  0  0  0  0  0  0  0
   36.5740   30.2240   36.9380 O   0  0  0  0  0  0  0  0  0  0  0  0
   37.7430   30.8760   37.3070 C   0  0  0  0  0  3  0  0  0  0  0  0
   38.5560   30.1630   37.5230 H   0  0  0  0  0  0  0  0  0  0  0  0
  1  2  1  0  0  0  0
  2  3  2  0  0  0  0
  2 10  1  0  0  0  0
  3  7  1  0  0  0  0
  4  8  1  0  0  0  0
  4  3  1  0  0  0  0
  5  4  2  0  0  0  0
  6  5  1  0  0  0  0
  6  1  2  0  0  0  0
  9  5  1  0  0  0  0
 10 11  1  0  0  0  0
 10 12  1  0  0  0  0
 13 14  1  0  0  0  0
 13 10  1  0  0  0  0
 14 19  1  0  0  0  0
 15 14  2  0  0  0  0
 16 15  1  0  0  0  0
 17 16  2  0  0  0  0
 17 18  1  0  0  0  0
 18 13  2  0  0  0  0
 20 15  1  0  0  0  0
 21 17  1  0  0  0  0
 22  1  1  0  0  0  0
 23 22  1  0  0  0  0
 24  6  1  0  0  0  0
 25 24  1  0  0  0  0
 26 25  1  0  0  0  0
 26 31  1  0  0  0  0
 27 26  2  0  0  0  0
 28 29  2  0  0  0  0
 28 27  1  0  0  0  0
 29 30  1  0  0  0  0
 30 25  2  0  0  0  0
 32 27  1  0  0  0  0
 33 34  1  0  0  0  0
 33 29  1  1  0  0  0
 34 35  1  0  0  0  0
 36 37  1  0  0  0  0
 36 34  1  0  0  0  0
 38 39  1  0  0  0  0
 38 36  1  0  0  0  0
 39 40  1  0  0  0  0
 39 33  1  0  0  0  0
M  END
>  <minimizedAffinity>
-6.05693531

$$$$

 OpenBabel03242512233D

 40 43  0  0  1  0  0  0  0  0999 V2000
   37.1610   29.0940   41.9700 C   0  0  0  0  0  0  0  0  0  0  0  0
   37.6710   28.0150   42.6360 C   0  0  0  0  0  0  0  0  0  0  0  0
   38.9610   28.0550   43.0810 C   0  0  0  0  0  0  0  0  0  0  0  0
   39.7400   29.1860   42.8550 C   0  0  0  0  0  0  0  0  0  0  0  0
   39.1940   30.2600   42.1780 C   0  0  0  0  0  0  0  0  0  0  0  0
   37.8780   30.2250   41.7210 C   0  0  0  0  0  0  0  0  0  0  0  0
   39.3830   27.1950   43.6170 H   0  0  0  0  0  0  0  0  0  0  0  0
   40.7650   29.2420   43.1970 H   0  0  0  0  0  0  0  0  0  0  0  0
   39.8080   31.1410   42.0050 H   0  0  0  0  0  0  0  0  0  0  0  0
   36.7800   26.8580   42.8330 C   0  0  0  0  0  0  0  0  0  0  0  0
   35.7300   27.1090   42.7870 H   0  0  0  0  0  0  0  0  0  0  0  0
   37.0130   26.3760   43.7860 H   0  0  0  0  0  0  0  0  0  0  0  0
   37.0000   25.8360   41.7340 C   0  0  0  0  0  0  0  0  0  0  0  0
   37.4230   24.5460   42.1170 C   0  0  0  0  0  0  0  0  0  0  0  0
   37.6130   23.6350   41.1010 C   0  0  0  0  0  0  0  0  0  0  0  0
   37.3910   24.0190   39.8370 N   0  0  0  0  0  0  0  0  0  0  0  0
   36.9860   25.2670   39.4910 C   0  0  0  0  0  0  0  0  0  0  0  0
   36.7970   26.1570   40.4570 N   0  0  0  0  0  0  0  0  0  0  0  0
   37.5920   24.2720   43.1490 H   0  0  0  0  0  0  0  0  0  0  0  0
   37.9380   22.6140   41.3130 H   0  0  0  0  0  0  0  0  0  0  0  0
   36.8240   25.5130   38.4490 H   0  0  0  0  0  0  0  0  0  0  0  0
   35.8480   29.1510   41.4730 O   0  0  0  0  0  0  0  0  0  0  0  0
   35.7140   29.3240   40.4740 H   0  0  0  0  0  0  0  0  0  0  0  0
   37.4270   31.3660   41.0500 O   0  0  0  0  0  0  0  0  0  0  0  0
   38.4270   32.0610   40.3690 C   0  0  0  0  0  0  0  0  0  0  0  0
   38.8010   33.3040   40.8330 C   0  0  0  0  0  0  0  0  0  0  0  0
   39.7860   34.0780   40.2280 C   0  0  0  0  0  0  0  0  0  0  0  0
   40.3940   33.5950   39.1490 N   0  0  0  0  0  0  0  0  0  0  0  0
   40.0370   32.3780   38.6820 C   0  0  0  0  0  0  0  0  0  0  0  0
   39.0800   31.6380   39.2800 N   0  0  0  0  0  0  0  0  0  0  0  0
   38.3120   33.7240   41.7250 H   0  0  0  0  0  0  0  0  0  0  0  0
   40.0370   35.0510   40.6420 H   0  0  0  0  0  0  0  0  0  0  0  0
   40.6540   31.7600   37.4940 C   0  0  2  0  0  3  0  0  0  0  0  0
   40.9560   30.3040   37.6270 C   0  0  0  0  0  3  0  0  0  0  0  0
   40.8090   29.9020   38.6480 H   0  0  0  0  0  0  0  0  0  0  0  0
   42.4550   30.2280   37.3110 C   0  0  0  0  0  3  0  0  0  0  0  0
   43.0350   30.3650   38.2450 H   0  0  0  0  0  0  0  0  0  0  0  0
   42.6520   31.3580   36.5020 O   0  0  0  0  0  0  0  0  0  0  0  0
   42.0310   32.3480   37.2500 C   0  0  0  0  0  3  0  0  0  0  0  0
   42.5350   32.5050   38.2180 H   0  0  0  0  0  0  0  0  0  0  0  0
  1  2  1  0  0  0  0
  2 10  1  0  0  0  0
  2  3  2  0  0  0  0
  3  7  1  0  0  0  0
  4  3  1  0  0  0  0
  4  8  1  0  0  0  0
  5  4  2  0  0  0  0
  6  1  2  0  0  0  0
  6  5  1  0  0  0  0
  9  5  1  0  0  0  0
 10 12  1  0  0  0  0
 11 10  1  0  0  0  0
 13 14  1  0  0  0  0
 13 10  1  0  0  0  0
 14 19  1  0  0  0  0
 15 20  1  0  0  0  0
 15 14  2  0  0  0  0
 16 15  1  0  0  0  0
 17 16  2  0  0  0  0
 17 18  1  0  0  0  0
 18 13  2  0  0  0  0
 21 17  1  0  0  0  0
 22  1  1  0  0  0  0
 23 22  1  0  0  0  0
 24  6  1  0  0  0  0
 25 26  1  0  0  0  0
 25 24  1  0  0  0  0
 26 31  1  0  0  0  0
 27 32  1  0  0  0  0
 27 26  2  0  0  0  0
 28 27  1  0  0  0  0
 29 28  2  0  0  0  0
 29 30  1  0  0  0  0
 30 25  2  0  0  0  0
 33 34  1  0  0  0  0
 33 29  1  1  0  0  0
 34 35  1  0  0  0  0
 36 34  1  0  0  0  0
 36 37  1  0  0  0  0
 38 39  1  0  0  0  0
 38 36  1  0  0  0  0
 39 33  1  0  0  0  0
 39 40  1  0  0  0  0
M  END
>  <minimizedAffinity>
-6.0369978

$$$$
