
 OpenBabel03242523533D

 42 45  0  0  1  0  0  0  0  0999 V2000
   38.7870   31.5630   39.9660 C   0  0  1  0  0  0  0  0  0  0  0  0
   39.5810   32.3170   41.0390 C   0  0  1  0  0  0  0  0  0  0  0  0
   38.9980   33.5880   41.2210 O   0  0  0  0  0  0  0  0  0  0  0  0
   38.4920   34.1280   40.0360 C   0  0  0  0  0  0  0  0  0  0  0  0
   37.2480   33.3630   39.5930 C   0  0  2  0  0  0  0  0  0  0  0  0
   37.3370   31.9610   40.1910 C   0  0  1  0  0  0  0  0  0  0  0  0
   38.9300   30.4730   40.1140 H   0  0  0  0  0  0  0  0  0  0  0  0
   40.6360   32.4120   40.7700 H   0  0  0  0  0  0  0  0  0  0  0  0
   38.1640   35.1440   40.3010 H   0  0  0  0  0  0  0  0  0  0  0  0
   39.2410   34.2320   39.2450 H   0  0  0  0  0  0  0  0  0  0  0  0
   36.3120   33.8680   39.8350 H   0  0  0  0  0  0  0  0  0  0  0  0
   37.1860   32.0500   41.2760 H   0  0  0  0  0  0  0  0  0  0  0  0
   39.2090   31.9590   38.6970 O   0  0  0  0  0  0  0  0  0  0  0  0
   38.8490   31.3130   38.0530 H   0  0  0  0  0  0  0  0  0  0  0  0
   37.3750   33.1520   38.1980 O   0  0  0  0  0  0  0  0  0  0  0  0
   37.0040   33.9720   37.7660 H   0  0  0  0  0  0  0  0  0  0  0  0
   39.3220   31.6490   42.2440 O   0  0  0  0  0  0  0  0  0  0  0  0
   39.6520   30.3860   42.5190 C   0  0  0  0  0  0  0  0  0  0  0  0
   38.6750   29.4400   42.8190 C   0  0  0  0  0  0  0  0  0  0  0  0
   39.0800   28.1410   43.0960 C   0  0  0  0  0  0  0  0  0  0  0  0
   40.4300   27.8160   43.0690 N   0  0  0  0  0  0  0  0  0  0  0  0
   41.3320   28.7610   42.7750 C   0  0  0  0  0  0  0  0  0  0  0  0
   40.9590   30.0350   42.5020 N   0  0  0  0  0  0  0  0  0  0  0  0
   37.6310   29.7120   42.8350 H   0  0  0  0  0  0  0  0  0  0  0  0
   42.3800   28.5380   42.7470 H   0  0  0  0  0  0  0  0  0  0  0  0
   38.0570   27.0820   43.4350 C   0  0  0  0  0  0  0  0  0  0  0  0
   36.6170   27.5220   43.5360 C   0  0  0  0  0  0  0  0  0  0  0  0
   37.1540   26.6120   42.4160 C   0  0  0  0  0  0  0  0  0  0  0  0
   38.3670   26.5160   44.3480 H   0  0  0  0  0  0  0  0  0  0  0  0
   36.4400   28.5600   43.1900 H   0  0  0  0  0  0  0  0  0  0  0  0
   35.9410   27.0820   44.2780 H   0  0  0  0  0  0  0  0  0  0  0  0
   36.7860   25.5530   42.4860 H   0  0  0  0  0  0  0  0  0  0  0  0
   37.2530   27.0290   41.4050 H   0  0  0  0  0  0  0  0  0  0  0  0
   36.4560   31.0970   39.5760 O   0  0  0  0  0  0  0  0  0  0  0  0
   36.6370   29.7850   39.8670 C   0  0  1  0  0  3  0  0  0  0  0  0
   35.3130   29.2080   40.3310 C   0  0  0  0  0  3  0  0  0  0  0  0
   34.5500   30.0180   40.4730 H   0  0  0  0  0  0  0  0  0  0  0  0
   34.9490   28.3000   39.1870 C   0  0  0  0  0  3  0  0  0  0  0  0
   34.5300   28.8380   38.3090 H   0  0  0  0  0  0  0  0  0  0  0  0
   36.1840   27.7360   38.8640 O   0  0  0  0  0  0  0  0  0  0  0  0
   36.9800   28.8930   38.7050 C   0  0  0  0  0  3  0  0  0  0  0  0
   38.0530   28.6300   38.7790 H   0  0  0  0  0  0  0  0  0  0  0  0
  1  7  1  1  0  0  0
  1  6  1  0  0  0  0
  1  2  1  0  0  0  0
  2  8  1  6  0  0  0
  2  3  1  0  0  0  0
  2 17  1  0  0  0  0
  4  9  1  0  0  0  0
  4  3  1  0  0  0  0
  5 11  1  1  0  0  0
  5  4  1  0  0  0  0
  5  6  1  0  0  0  0
  6 12  1  1  0  0  0
 10  4  1  0  0  0  0
 13  1  1  0  0  0  0
 14 13  1  0  0  0  0
 15  5  1  0  0  0  0
 16 15  1  0  0  0  0
 17 18  1  0  0  0  0
 18 19  1  0  0  0  0
 19 24  1  0  0  0  0
 19 20  2  0  0  0  0
 20 26  1  0  0  0  0
 21 20  1  0  0  0  0
 22 21  2  0  0  0  0
 23 18  2  0  0  0  0
 23 22  1  0  0  0  0
 25 22  1  0  0  0  0
 26 27  1  0  0  0  0
 26 29  1  0  0  0  0
 27 31  1  0  0  0  0
 28 32  1  0  0  0  0
 28 26  1  0  0  0  0
 28 27  1  0  0  0  0
 30 27  1  0  0  0  0
 33 28  1  0  0  0  0
 34  6  1  0  0  0  0
 35 34  1  6  0  0  0
 35 36  1  0  0  0  0
 36 37  1  0  0  0  0
 38 36  1  0  0  0  0
 39 38  1  0  0  0  0
 40 38  1  0  0  0  0
 41 42  1  0  0  0  0
 41 40  1  0  0  0  0
 41 35  1  0  0  0  0
M  END
>  <minimizedAffinity>
-5.61625051

$$$$

 OpenBabel03242523533D

 42 45  0  0  1  0  0  0  0  0999 V2000
   37.9730   32.3260   39.2920 C   0  0  1  0  0  0  0  0  0  0  0  0
   37.2950   31.0080   39.6840 C   0  0  1  0  0  0  0  0  0  0  0  0
   37.9410   29.9510   39.0110 O   0  0  0  0  0  0  0  0  0  0  0  0
   38.3780   30.3080   37.7320 C   0  0  0  0  0  0  0  0  0  0  0  0
   39.5520   31.2770   37.8230 C   0  0  2  0  0  0  0  0  0  0  0  0
   39.4510   31.9920   39.1690 C   0  0  1  0  0  0  0  0  0  0  0  0
   37.7980   33.0720   40.0940 H   0  0  0  0  0  0  0  0  0  0  0  0
   36.2270   31.0180   39.4510 H   0  0  0  0  0  0  0  0  0  0  0  0
   38.7660   29.3770   37.2920 H   0  0  0  0  0  0  0  0  0  0  0  0
   37.5750   30.6580   37.0760 H   0  0  0  0  0  0  0  0  0  0  0  0
   40.5230   30.8080   37.6640 H   0  0  0  0  0  0  0  0  0  0  0  0
   39.6880   31.2590   39.9550 H   0  0  0  0  0  0  0  0  0  0  0  0
   37.4730   32.7730   38.0690 O   0  0  0  0  0  0  0  0  0  0  0  0
   37.7560   33.7050   37.9590 H   0  0  0  0  0  0  0  0  0  0  0  0
   39.3100   32.2990   36.8720 O   0  0  0  0  0  0  0  0  0  0  0  0
   39.6800   31.9580   36.0100 H   0  0  0  0  0  0  0  0  0  0  0  0
   37.6180   30.8000   41.0320 O   0  0  0  0  0  0  0  0  0  0  0  0
   37.6090   29.6230   41.6610 C   0  0  0  0  0  0  0  0  0  0  0  0
   38.7480   29.1460   42.3030 C   0  0  0  0  0  0  0  0  0  0  0  0
   38.6770   27.9140   42.9410 C   0  0  0  0  0  0  0  0  0  0  0  0
   37.4900   27.1950   42.9260 N   0  0  0  0  0  0  0  0  0  0  0  0
   36.4210   27.6950   42.2950 C   0  0  0  0  0  0  0  0  0  0  0  0
   36.4670   28.8950   41.6660 N   0  0  0  0  0  0  0  0  0  0  0  0
   39.6620   29.7200   42.3030 H   0  0  0  0  0  0  0  0  0  0  0  0
   35.4920   27.1610   42.2670 H   0  0  0  0  0  0  0  0  0  0  0  0
   39.8900   27.3520   43.6430 C   0  0  0  0  0  0  0  0  0  0  0  0
   40.3310   25.9620   43.2550 C   0  0  0  0  0  0  0  0  0  0  0  0
   41.1350   27.2330   42.9290 C   0  0  0  0  0  0  0  0  0  0  0  0
   39.7780   27.4400   44.7520 H   0  0  0  0  0  0  0  0  0  0  0  0
   39.8030   25.5570   42.3680 H   0  0  0  0  0  0  0  0  0  0  0  0
   40.7410   25.2690   43.9980 H   0  0  0  0  0  0  0  0  0  0  0  0
   42.0900   27.3200   43.5150 H   0  0  0  0  0  0  0  0  0  0  0  0
   41.1690   27.5790   41.8870 H   0  0  0  0  0  0  0  0  0  0  0  0
   40.2460   33.1170   39.2000 O   0  0  0  0  0  0  0  0  0  0  0  0
   40.7700   33.4200   40.4130 C   0  0  1  0  0  3  0  0  0  0  0  0
   41.1440   32.1270   41.1130 C   0  0  0  0  0  3  0  0  0  0  0  0
   40.7640   31.2380   40.5440 H   0  0  0  0  0  0  0  0  0  0  0  0
   42.6490   32.1880   41.1010 C   0  0  0  0  0  3  0  0  0  0  0  0
   43.0970   31.9140   40.1220 H   0  0  0  0  0  0  0  0  0  0  0  0
   42.8830   33.5350   41.3800 O   0  0  0  0  0  0  0  0  0  0  0  0
   42.0790   34.1610   40.4000 C   0  0  0  0  0  3  0  0  0  0  0  0
   41.8820   35.2140   40.6840 H   0  0  0  0  0  0  0  0  0  0  0  0
  1  2  1  0  0  0  0
  1  7  1  1  0  0  0
  2  8  1  6  0  0  0
  2 17  1  0  0  0  0
  3  2  1  0  0  0  0
  4  5  1  0  0  0  0
  4  3  1  0  0  0  0
  5 11  1  6  0  0  0
  5  6  1  0  0  0  0
  6 34  1  0  0  0  0
  6  1  1  0  0  0  0
  6 12  1  1  0  0  0
  9  4  1  0  0  0  0
 10  4  1  0  0  0  0
 13  1  1  0  0  0  0
 14 13  1  0  0  0  0
 15  5  1  0  0  0  0
 16 15  1  0  0  0  0
 17 18  1  0  0  0  0
 18 23  2  0  0  0  0
 18 19  1  0  0  0  0
 19 24  1  0  0  0  0
 19 20  2  0  0  0  0
 20 26  1  0  0  0  0
 21 20  1  0  0  0  0
 22 21  2  0  0  0  0
 23 22  1  0  0  0  0
 25 22  1  0  0  0  0
 26 29  1  0  0  0  0
 27 26  1  0  0  0  0
 27 31  1  0  0  0  0
 28 27  1  0  0  0  0
 28 32  1  0  0  0  0
 28 26  1  0  0  0  0
 30 27  1  0  0  0  0
 33 28  1  0  0  0  0
 35 34  1  6  0  0  0
 35 36  1  0  0  0  0
 37 36  1  0  0  0  0
 38 36  1  0  0  0  0
 38 40  1  0  0  0  0
 39 38  1  0  0  0  0
 41 35  1  0  0  0  0
 41 42  1  0  0  0  0
 41 40  1  0  0  0  0
M  END
>  <minimizedAffinity>
-5.53785229

$$$$

 OpenBabel03242523533D

 42 45  0  0  1  0  0  0  0  0999 V2000
   39.9510   31.7680   37.7530 C   0  0  1  0  0  0  0  0  0  0  0  0
   40.1850   30.2590   37.6110 C   0  0  1  0  0  0  0  0  0  0  0  0
   41.5720   30.0270   37.5050 O   0  0  0  0  0  0  0  0  0  0  0  0
   42.2400   31.0360   36.8070 C   0  0  0  0  0  0  0  0  0  0  0  0
   42.2820   32.3160   37.6360 C   0  0  2  0  0  0  0  0  0  0  0  0
   41.1040   32.2710   38.6060 C   0  0  1  0  0  0  0  0  0  0  0  0
   38.9770   31.9340   38.2590 H   0  0  0  0  0  0  0  0  0  0  0  0
   39.6580   29.8480   36.7460 H   0  0  0  0  0  0  0  0  0  0  0  0
   43.2780   30.6820   36.7140 H   0  0  0  0  0  0  0  0  0  0  0  0
   41.8650   31.1900   35.7900 H   0  0  0  0  0  0  0  0  0  0  0  0
   43.2360   32.4850   38.1350 H   0  0  0  0  0  0  0  0  0  0  0  0
   41.3190   31.4960   39.3570 H   0  0  0  0  0  0  0  0  0  0  0  0
   39.9750   32.3730   36.4970 O   0  0  0  0  0  0  0  0  0  0  0  0
   39.6100   33.2770   36.5990 H   0  0  0  0  0  0  0  0  0  0  0  0
   41.9640   33.3810   36.7560 O   0  0  0  0  0  0  0  0  0  0  0  0
   42.8270   33.6470   36.3320 H   0  0  0  0  0  0  0  0  0  0  0  0
   39.8410   29.7020   38.8510 O   0  0  0  0  0  0  0  0  0  0  0  0
   38.6690   29.1400   39.1520 C   0  0  0  0  0  0  0  0  0  0  0  0
   38.3010   28.9200   40.4760 C   0  0  0  0  0  0  0  0  0  0  0  0
   37.0680   28.3320   40.7270 C   0  0  0  0  0  0  0  0  0  0  0  0
   36.2400   27.9810   39.6700 N   0  0  0  0  0  0  0  0  0  0  0  0
   36.6390   28.2130   38.4130 C   0  0  0  0  0  0  0  0  0  0  0  0
   37.8380   28.7860   38.1440 N   0  0  0  0  0  0  0  0  0  0  0  0
   38.9580   29.1990   41.2850 H   0  0  0  0  0  0  0  0  0  0  0  0
   36.0210   27.9530   37.5770 H   0  0  0  0  0  0  0  0  0  0  0  0
   36.6290   28.0640   42.1480 C   0  0  0  0  0  0  0  0  0  0  0  0
   37.0040   26.7300   42.7470 C   0  0  0  0  0  0  0  0  0  0  0  0
   37.6050   28.0710   43.2070 C   0  0  0  0  0  0  0  0  0  0  0  0
   35.5350   28.2610   42.2640 H   0  0  0  0  0  0  0  0  0  0  0  0
   37.7090   26.1430   42.1250 H   0  0  0  0  0  0  0  0  0  0  0  0
   36.3270   26.2070   43.4310 H   0  0  0  0  0  0  0  0  0  0  0  0
   37.2670   28.3830   44.2330 H   0  0  0  0  0  0  0  0  0  0  0  0
   38.6480   28.2940   42.9490 H   0  0  0  0  0  0  0  0  0  0  0  0
   40.8520   33.5140   39.1470 O   0  0  0  0  0  0  0  0  0  0  0  0
   40.4420   33.5090   40.4390 C   0  0  1  0  0  3  0  0  0  0  0  0
   38.9720   33.8800   40.4790 C   0  0  0  0  0  3  0  0  0  0  0  0
   38.6150   34.2170   39.4710 H   0  0  0  0  0  0  0  0  0  0  0  0
   38.3310   32.5780   40.8840 C   0  0  0  0  0  3  0  0  0  0  0  0
   38.2370   31.8510   40.0490 H   0  0  0  0  0  0  0  0  0  0  0  0
   39.2300   32.1020   41.8400 O   0  0  0  0  0  0  0  0  0  0  0  0
   40.4490   32.1720   41.1280 C   0  0  0  0  0  3  0  0  0  0  0  0
   41.3040   32.1520   41.8320 H   0  0  0  0  0  0  0  0  0  0  0  0
  1  7  1  1  0  0  0
  1  6  1  0  0  0  0
  2  8  1  6  0  0  0
  2  1  1  0  0  0  0
  2 17  1  0  0  0  0
  3  2  1  0  0  0  0
  4  3  1  0  0  0  0
  4  5  1  0  0  0  0
  5 11  1  1  0  0  0
  5  6  1  0  0  0  0
  6 34  1  0  0  0  0
  6 12  1  1  0  0  0
  9  4  1  0  0  0  0
 10  4  1  0  0  0  0
 13 14  1  0  0  0  0
 13  1  1  0  0  0  0
 15  5  1  0  0  0  0
 16 15  1  0  0  0  0
 17 18  1  0  0  0  0
 18 19  1  0  0  0  0
 19 20  2  0  0  0  0
 19 24  1  0  0  0  0
 20 26  1  0  0  0  0
 21 20  1  0  0  0  0
 22 21  2  0  0  0  0
 23 22  1  0  0  0  0
 23 18  2  0  0  0  0
 25 22  1  0  0  0  0
 26 29  1  0  0  0  0
 26 27  1  0  0  0  0
 26 28  1  0  0  0  0
 27 28  1  0  0  0  0
 27 31  1  0  0  0  0
 28 32  1  0  0  0  0
 30 27  1  0  0  0  0
 33 28  1  0  0  0  0
 35 34  1  6  0  0  0
 35 36  1  0  0  0  0
 35 41  1  0  0  0  0
 36 38  1  0  0  0  0
 37 36  1  0  0  0  0
 38 40  1  0  0  0  0
 39 38  1  0  0  0  0
 41 42  1  0  0  0  0
 41 40  1  0  0  0  0
M  END
>  <minimizedAffinity>
-5.51851892

$$$$

 OpenBabel03242523533D

 42 45  0  0  1  0  0  0  0  0999 V2000
   37.6530   29.0920   41.9720 C   0  0  1  0  0  0  0  0  0  0  0  0
   37.2960   27.6760   41.5060 C   0  0  1  0  0  0  0  0  0  0  0  0
   36.3390   27.7670   40.4760 O   0  0  0  0  0  0  0  0  0  0  0  0
   35.4460   28.8270   40.6570 C   0  0  0  0  0  0  0  0  0  0  0  0
   36.1530   30.1610   40.4370 C   0  0  2  0  0  0  0  0  0  0  0  0
   37.6390   29.9410   40.7110 C   0  0  1  0  0  0  0  0  0  0  0  0
   38.6630   29.0760   42.4320 H   0  0  0  0  0  0  0  0  0  0  0  0
   36.9200   27.0620   42.3290 H   0  0  0  0  0  0  0  0  0  0  0  0
   34.7070   28.7200   39.8480 H   0  0  0  0  0  0  0  0  0  0  0  0
   34.8930   28.7790   41.6000 H   0  0  0  0  0  0  0  0  0  0  0  0
   35.9630   30.6020   39.4580 H   0  0  0  0  0  0  0  0  0  0  0  0
   38.0420   29.3230   39.8960 H   0  0  0  0  0  0  0  0  0  0  0  0
   36.6950   29.5500   42.8770 O   0  0  0  0  0  0  0  0  0  0  0  0
   37.0610   30.3480   43.3140 H   0  0  0  0  0  0  0  0  0  0  0  0
   35.7330   31.0210   41.4810 O   0  0  0  0  0  0  0  0  0  0  0  0
   34.8830   31.4370   41.1630 H   0  0  0  0  0  0  0  0  0  0  0  0
   38.4430   27.1870   40.8630 O   0  0  0  0  0  0  0  0  0  0  0  0
   39.4060   26.4630   41.4350 C   0  0  0  0  0  0  0  0  0  0  0  0
   40.6780   26.3950   40.8760 C   0  0  0  0  0  0  0  0  0  0  0  0
   41.6400   25.6250   41.5180 C   0  0  0  0  0  0  0  0  0  0  0  0
   41.3170   24.9470   42.6850 N   0  0  0  0  0  0  0  0  0  0  0  0
   40.0780   25.0420   43.1840 C   0  0  0  0  0  0  0  0  0  0  0  0
   39.1250   25.7880   42.5750 N   0  0  0  0  0  0  0  0  0  0  0  0
   40.9110   26.9290   39.9680 H   0  0  0  0  0  0  0  0  0  0  0  0
   39.8010   24.5300   44.0840 H   0  0  0  0  0  0  0  0  0  0  0  0
   43.0330   25.5150   40.9440 C   0  0  0  0  0  0  0  0  0  0  0  0
   43.1880   24.7540   39.6490 C   0  0  0  0  0  0  0  0  0  0  0  0
   43.3820   26.2760   39.7710 C   0  0  0  0  0  0  0  0  0  0  0  0
   43.7470   25.1390   41.7160 H   0  0  0  0  0  0  0  0  0  0  0  0
   42.2250   24.4880   39.1690 H   0  0  0  0  0  0  0  0  0  0  0  0
   44.0720   24.1360   39.4580 H   0  0  0  0  0  0  0  0  0  0  0  0
   44.4510   26.6010   39.6530 H   0  0  0  0  0  0  0  0  0  0  0  0
   42.6200   26.9380   39.3390 H   0  0  0  0  0  0  0  0  0  0  0  0
   38.3000   31.1390   40.8790 O   0  0  0  0  0  0  0  0  0  0  0  0
   38.6130   31.7910   39.7320 C   0  0  1  0  0  3  0  0  0  0  0  0
   38.2290   33.2500   39.8870 C   0  0  0  0  0  3  0  0  0  0  0  0
   37.6450   33.4140   40.8310 H   0  0  0  0  0  0  0  0  0  0  0  0
   39.5750   33.9230   39.9460 C   0  0  0  0  0  3  0  0  0  0  0  0
   40.0710   33.8370   40.9370 H   0  0  0  0  0  0  0  0  0  0  0  0
   40.2920   33.2140   38.9820 O   0  0  0  0  0  0  0  0  0  0  0  0
   40.0780   31.8830   39.4050 C   0  0  0  0  0  3  0  0  0  0  0  0
   40.2910   31.1800   38.5760 H   0  0  0  0  0  0  0  0  0  0  0  0
  1  7  1  1  0  0  0
  1 13  1  0  0  0  0
  2  1  1  0  0  0  0
  2  8  1  1  0  0  0
  3  4  1  0  0  0  0
  3  2  1  0  0  0  0
  4 10  1  0  0  0  0
  5 11  1  6  0  0  0
  5  4  1  0  0  0  0
  5  6  1  0  0  0  0
  5 15  1  0  0  0  0
  6 12  1  6  0  0  0
  6 34  1  0  0  0  0
  6  1  1  0  0  0  0
  9  4  1  0  0  0  0
 13 14  1  0  0  0  0
 16 15  1  0  0  0  0
 17 18  1  0  0  0  0
 17  2  1  0  0  0  0
 18 23  1  0  0  0  0
 19 18  2  0  0  0  0
 19 20  1  0  0  0  0
 20 21  2  0  0  0  0
 21 22  1  0  0  0  0
 22 25  1  0  0  0  0
 23 22  2  0  0  0  0
 24 19  1  0  0  0  0
 26 20  1  0  0  0  0
 26 29  1  0  0  0  0
 27 28  1  0  0  0  0
 27 26  1  0  0  0  0
 28 26  1  0  0  0  0
 30 27  1  0  0  0  0
 31 27  1  0  0  0  0
 32 28  1  0  0  0  0
 33 28  1  0  0  0  0
 35 36  1  0  0  0  0
 35 34  1  1  0  0  0
 36 38  1  0  0  0  0
 36 37  1  0  0  0  0
 38 39  1  0  0  0  0
 40 41  1  0  0  0  0
 40 38  1  0  0  0  0
 41 35  1  0  0  0  0
 42 41  1  0  0  0  0
M  END
>  <minimizedAffinity>
-5.50689411

$$$$

 OpenBabel03242523533D

 42 45  0  0  1  0  0  0  0  0999 V2000
   40.2590   30.5400   39.0610 C   0  0  1  0  0  0  0  0  0  0  0  0
   41.2170   30.9370   40.1910 C   0  0  1  0  0  0  0  0  0  0  0  0
   41.4270   32.3290   40.1360 O   0  0  0  0  0  0  0  0  0  0  0  0
   41.4400   32.8260   38.8300 C   0  0  0  0  0  0  0  0  0  0  0  0
   40.0380   32.7790   38.2300 C   0  0  2  0  0  0  0  0  0  0  0  0
   39.2640   31.6860   38.9630 C   0  0  1  0  0  0  0  0  0  0  0  0
   39.7510   29.5930   39.3360 H   0  0  0  0  0  0  0  0  0  0  0  0
   42.1670   30.4000   40.1220 H   0  0  0  0  0  0  0  0  0  0  0  0
   41.7090   33.8880   38.9300 H   0  0  0  0  0  0  0  0  0  0  0  0
   42.2010   32.3640   38.1920 H   0  0  0  0  0  0  0  0  0  0  0  0
   39.5240   33.7400   38.2380 H   0  0  0  0  0  0  0  0  0  0  0  0
   39.0710   32.0410   39.9860 H   0  0  0  0  0  0  0  0  0  0  0  0
   40.9640   30.4060   37.8650 O   0  0  0  0  0  0  0  0  0  0  0  0
   40.3780   29.9470   37.2280 H   0  0  0  0  0  0  0  0  0  0  0  0
   40.1760   32.2780   36.9110 O   0  0  0  0  0  0  0  0  0  0  0  0
   40.3760   33.0730   36.3410 H   0  0  0  0  0  0  0  0  0  0  0  0
   40.4990   30.7480   41.3810 O   0  0  0  0  0  0  0  0  0  0  0  0
   40.5170   29.6450   42.1320 C   0  0  0  0  0  0  0  0  0  0  0  0
   39.3340   29.0000   42.4830 C   0  0  0  0  0  0  0  0  0  0  0  0
   39.4150   27.8560   43.2660 C   0  0  0  0  0  0  0  0  0  0  0  0
   40.6550   27.3850   43.6770 N   0  0  0  0  0  0  0  0  0  0  0  0
   41.7640   28.0410   43.3140 C   0  0  0  0  0  0  0  0  0  0  0  0
   41.7090   29.1590   42.5500 N   0  0  0  0  0  0  0  0  0  0  0  0
   38.3800   29.3810   42.1540 H   0  0  0  0  0  0  0  0  0  0  0  0
   42.7350   27.7000   43.6170 H   0  0  0  0  0  0  0  0  0  0  0  0
   38.1580   27.1270   43.6790 C   0  0  0  0  0  0  0  0  0  0  0  0
   36.8710   27.9160   43.6790 C   0  0  0  0  0  0  0  0  0  0  0  0
   37.1760   26.7820   42.6840 C   0  0  0  0  0  0  0  0  0  0  0  0
   38.3090   26.6090   44.6580 H   0  0  0  0  0  0  0  0  0  0  0  0
   36.9620   28.9200   43.2170 H   0  0  0  0  0  0  0  0  0  0  0  0
   36.1010   27.7420   44.4390 H   0  0  0  0  0  0  0  0  0  0  0  0
   36.5550   25.8600   42.8540 H   0  0  0  0  0  0  0  0  0  0  0  0
   37.3840   27.0440   41.6390 H   0  0  0  0  0  0  0  0  0  0  0  0
   38.1240   31.3310   38.2740 O   0  0  0  0  0  0  0  0  0  0  0  0
   36.9650   31.4720   38.9640 C   0  0  1  0  0  3  0  0  0  0  0  0
   36.2410   30.1400   38.9680 C   0  0  0  0  0  3  0  0  0  0  0  0
   36.7440   29.4070   38.2820 H   0  0  0  0  0  0  0  0  0  0  0  0
   36.3640   29.7210   40.4090 C   0  0  0  0  0  3  0  0  0  0  0  0
   37.3610   29.3030   40.6670 H   0  0  0  0  0  0  0  0  0  0  0  0
   36.1590   30.9290   41.0770 O   0  0  0  0  0  0  0  0  0  0  0  0
   37.1030   31.7610   40.4330 C   0  0  0  0  0  3  0  0  0  0  0  0
   36.8500   32.8260   40.6000 H   0  0  0  0  0  0  0  0  0  0  0  0
  1  7  1  1  0  0  0
  1  2  1  0  0  0  0
  2  8  1  6  0  0  0
  2 17  1  0  0  0  0
  3  2  1  0  0  0  0
  4  9  1  0  0  0  0
  4  3  1  0  0  0  0
  5 11  1  1  0  0  0
  5  4  1  0  0  0  0
  5  6  1  0  0  0  0
  6  1  1  0  0  0  0
  6 12  1  1  0  0  0
 10  4  1  0  0  0  0
 13  1  1  0  0  0  0
 14 13  1  0  0  0  0
 15  5  1  0  0  0  0
 16 15  1  0  0  0  0
 17 18  1  0  0  0  0
 18 19  2  0  0  0  0
 18 23  1  0  0  0  0
 19 20  1  0  0  0  0
 20 21  2  0  0  0  0
 20 26  1  0  0  0  0
 22 25  1  0  0  0  0
 22 21  1  0  0  0  0
 23 22  2  0  0  0  0
 24 19  1  0  0  0  0
 26 29  1  0  0  0  0
 27 26  1  0  0  0  0
 27 31  1  0  0  0  0
 28 32  1  0  0  0  0
 28 27  1  0  0  0  0
 28 26  1  0  0  0  0
 30 27  1  0  0  0  0
 33 28  1  0  0  0  0
 34  6  1  0  0  0  0
 35 34  1  1  0  0  0
 35 36  1  0  0  0  0
 35 41  1  0  0  0  0
 36 38  1  0  0  0  0
 37 36  1  0  0  0  0
 38 39  1  0  0  0  0
 38 40  1  0  0  0  0
 41 42  1  0  0  0  0
 41 40  1  0  0  0  0
M  END
>  <minimizedAffinity>
-5.40400839

$$$$

 OpenBabel03242523533D

 42 45  0  0  1  0  0  0  0  0999 V2000
   37.1430   31.7070   39.9690 C   0  0  1  0  0  0  0  0  0  0  0  0
   37.5040   31.6890   38.4790 C   0  0  1  0  0  0  0  0  0  0  0  0
   38.8760   31.9850   38.3440 O   0  0  0  0  0  0  0  0  0  0  0  0
   39.3280   32.9060   39.2920 C   0  0  0  0  0  0  0  0  0  0  0  0
   39.3650   32.2670   40.6770 C   0  0  2  0  0  0  0  0  0  0  0  0
   38.3540   31.1220   40.6780 C   0  0  1  0  0  0  0  0  0  0  0  0
   36.2440   31.0770   40.1290 H   0  0  0  0  0  0  0  0  0  0  0  0
   36.8980   32.3970   37.9080 H   0  0  0  0  0  0  0  0  0  0  0  0
   40.3710   33.1170   39.0110 H   0  0  0  0  0  0  0  0  0  0  0  0
   38.7930   33.8610   39.2680 H   0  0  0  0  0  0  0  0  0  0  0  0
   40.3610   31.9540   40.9910 H   0  0  0  0  0  0  0  0  0  0  0  0
   38.7540   30.3220   40.0390 H   0  0  0  0  0  0  0  0  0  0  0  0
   36.9210   33.0190   40.3880 O   0  0  0  0  0  0  0  0  0  0  0  0
   36.4860   32.9770   41.2660 H   0  0  0  0  0  0  0  0  0  0  0  0
   38.8150   33.2140   41.5760 O   0  0  0  0  0  0  0  0  0  0  0  0
   39.5740   33.8030   41.8460 H   0  0  0  0  0  0  0  0  0  0  0  0
   37.4050   30.3480   38.0800 O   0  0  0  0  0  0  0  0  0  0  0  0
   36.5420   29.8660   37.1850 C   0  0  0  0  0  0  0  0  0  0  0  0
   35.2800   29.4230   37.5740 C   0  0  0  0  0  0  0  0  0  0  0  0
   34.4250   28.9320   36.5960 C   0  0  0  0  0  0  0  0  0  0  0  0
   34.8380   28.8920   35.2710 N   0  0  0  0  0  0  0  0  0  0  0  0
   36.0610   29.3290   34.9470 C   0  0  0  0  0  0  0  0  0  0  0  0
   36.9120   29.8120   35.8840 N   0  0  0  0  0  0  0  0  0  0  0  0
   34.9770   29.4620   38.6080 H   0  0  0  0  0  0  0  0  0  0  0  0
   36.4060   29.3100   33.9320 H   0  0  0  0  0  0  0  0  0  0  0  0
   33.0490   28.4320   36.9710 C   0  0  0  0  0  0  0  0  0  0  0  0
   31.9530   29.4610   37.1020 C   0  0  0  0  0  0  0  0  0  0  0  0
   32.0050   28.4090   35.9800 C   0  0  0  0  0  0  0  0  0  0  0  0
   33.1020   27.7870   37.8820 H   0  0  0  0  0  0  0  0  0  0  0  0
   32.2420   30.4710   36.7490 H   0  0  0  0  0  0  0  0  0  0  0  0
   31.1720   29.3630   37.8650 H   0  0  0  0  0  0  0  0  0  0  0  0
   31.2100   27.6200   36.0700 H   0  0  0  0  0  0  0  0  0  0  0  0
   32.2500   28.7400   34.9620 H   0  0  0  0  0  0  0  0  0  0  0  0
   38.0610   30.7140   41.9620 O   0  0  0  0  0  0  0  0  0  0  0  0
   37.6120   29.4400   42.0740 C   0  0  1  0  0  3  0  0  0  0  0  0
   38.4990   28.5410   41.2340 C   0  0  0  0  0  3  0  0  0  0  0  0
   39.2050   29.1460   40.6070 H   0  0  0  0  0  0  0  0  0  0  0  0
   39.2330   27.7520   42.2870 C   0  0  0  0  0  3  0  0  0  0  0  0
   40.0660   28.3130   42.7620 H   0  0  0  0  0  0  0  0  0  0  0  0
   38.2220   27.5090   43.2180 O   0  0  0  0  0  0  0  0  0  0  0  0
   37.7310   28.8160   43.4370 C   0  0  0  0  0  3  0  0  0  0  0  0
   36.7180   28.7730   43.8850 H   0  0  0  0  0  0  0  0  0  0  0  0
  1  7  1  1  0  0  0
  1 13  1  0  0  0  0
  1  6  1  0  0  0  0
  2  8  1  6  0  0  0
  2  1  1  0  0  0  0
  3  2  1  0  0  0  0
  3  4  1  0  0  0  0
  4  5  1  0  0  0  0
  5  6  1  0  0  0  0
  5 11  1  1  0  0  0
  5 15  1  0  0  0  0
  6 12  1  6  0  0  0
  6 34  1  0  0  0  0
  9  4  1  0  0  0  0
 10  4  1  0  0  0  0
 13 14  1  0  0  0  0
 15 16  1  0  0  0  0
 17  2  1  0  0  0  0
 18 19  1  0  0  0  0
 18 17  1  0  0  0  0
 19 24  1  0  0  0  0
 20 26  1  0  0  0  0
 20 19  2  0  0  0  0
 21 20  1  0  0  0  0
 22 21  2  0  0  0  0
 22 23  1  0  0  0  0
 23 18  2  0  0  0  0
 25 22  1  0  0  0  0
 26 27  1  0  0  0  0
 26 29  1  0  0  0  0
 27 31  1  0  0  0  0
 28 32  1  0  0  0  0
 28 26  1  0  0  0  0
 28 27  1  0  0  0  0
 30 27  1  0  0  0  0
 33 28  1  0  0  0  0
 35 34  1  1  0  0  0
 35 41  1  0  0  0  0
 36 35  1  0  0  0  0
 36 38  1  0  0  0  0
 37 36  1  0  0  0  0
 38 39  1  0  0  0  0
 38 40  1  0  0  0  0
 40 41  1  0  0  0  0
 41 42  1  0  0  0  0
M  END
>  <minimizedAffinity>
-5.40369606

$$$$

 OpenBabel03242523533D

 42 45  0  0  1  0  0  0  0  0999 V2000
   38.4960   30.3920   39.5430 C   0  0  1  0  0  0  0  0  0  0  0  0
   38.4570   30.9880   40.9560 C   0  0  1  0  0  0  0  0  0  0  0  0
   37.7070   32.1810   40.9210 O   0  0  0  0  0  0  0  0  0  0  0  0
   37.8730   32.8920   39.7290 C   0  0  0  0  0  0  0  0  0  0  0  0
   37.1950   32.1590   38.5750 C   0  0  2  0  0  0  0  0  0  0  0  0
   37.1260   30.6800   38.9520 C   0  0  1  0  0  0  0  0  0  0  0  0
   38.6780   29.3000   39.6190 H   0  0  0  0  0  0  0  0  0  0  0  0
   39.4620   31.1740   41.3440 H   0  0  0  0  0  0  0  0  0  0  0  0
   37.3210   33.8320   39.8770 H   0  0  0  0  0  0  0  0  0  0  0  0
   38.9120   33.1630   39.5200 H   0  0  0  0  0  0  0  0  0  0  0  0
   36.2240   32.5720   38.3010 H   0  0  0  0  0  0  0  0  0  0  0  0
   36.3900   30.5760   39.7630 H   0  0  0  0  0  0  0  0  0  0  0  0
   39.4910   31.0170   38.7920 O   0  0  0  0  0  0  0  0  0  0  0  0
   39.6370   30.4750   37.9880 H   0  0  0  0  0  0  0  0  0  0  0  0
   38.0980   32.1940   37.4840 O   0  0  0  0  0  0  0  0  0  0  0  0
   37.9220   33.0580   37.0170 H   0  0  0  0  0  0  0  0  0  0  0  0
   37.6670   30.1130   41.7150 O   0  0  0  0  0  0  0  0  0  0  0  0
   38.0460   28.9140   42.1620 C   0  0  0  0  0  0  0  0  0  0  0  0
   37.2800   27.7810   41.9050 C   0  0  0  0  0  0  0  0  0  0  0  0
   37.7260   26.5600   42.3950 C   0  0  0  0  0  0  0  0  0  0  0  0
   38.9060   26.4950   43.1220 N   0  0  0  0  0  0  0  0  0  0  0  0
   39.6080   27.6140   43.3440 C   0  0  0  0  0  0  0  0  0  0  0  0
   39.1920   28.8150   42.8750 N   0  0  0  0  0  0  0  0  0  0  0  0
   36.3650   27.8500   41.3380 H   0  0  0  0  0  0  0  0  0  0  0  0
   40.5230   27.5940   43.9020 H   0  0  0  0  0  0  0  0  0  0  0  0
   36.9240   25.3040   42.1480 C   0  0  0  0  0  0  0  0  0  0  0  0
   36.8560   24.7950   40.7280 C   0  0  0  0  0  0  0  0  0  0  0  0
   37.6060   24.0680   41.8590 C   0  0  0  0  0  0  0  0  0  0  0  0
   35.9000   25.3990   42.5870 H   0  0  0  0  0  0  0  0  0  0  0  0
   37.5440   25.3170   40.0330 H   0  0  0  0  0  0  0  0  0  0  0  0
   35.9440   24.3330   40.3350 H   0  0  0  0  0  0  0  0  0  0  0  0
   37.1150   23.1080   42.1760 H   0  0  0  0  0  0  0  0  0  0  0  0
   38.7040   24.0740   41.8490 H   0  0  0  0  0  0  0  0  0  0  0  0
   36.8560   29.8950   37.8510 O   0  0  0  0  0  0  0  0  0  0  0  0
   36.2160   28.7300   38.1170 C   0  0  1  0  0  3  0  0  0  0  0  0
   35.0730   29.0150   39.0730 C   0  0  0  0  0  3  0  0  0  0  0  0
   35.1200   30.0700   39.4520 H   0  0  0  0  0  0  0  0  0  0  0  0
   33.8690   28.7960   38.1960 C   0  0  0  0  0  3  0  0  0  0  0  0
   33.6550   29.6470   37.5150 H   0  0  0  0  0  0  0  0  0  0  0  0
   34.2510   27.6730   37.4610 O   0  0  0  0  0  0  0  0  0  0  0  0
   35.5040   28.0880   36.9580 C   0  0  0  0  0  3  0  0  0  0  0  0
   36.0960   27.2090   36.6350 H   0  0  0  0  0  0  0  0  0  0  0  0
  1  7  1  1  0  0  0
  1  2  1  0  0  0  0
  2  8  1  1  0  0  0
  2 17  1  0  0  0  0
  3  2  1  0  0  0  0
  4  9  1  0  0  0  0
  4  3  1  0  0  0  0
  5 11  1  6  0  0  0
  5  6  1  0  0  0  0
  5  4  1  0  0  0  0
  6  1  1  0  0  0  0
  6 12  1  1  0  0  0
 10  4  1  0  0  0  0
 13  1  1  0  0  0  0
 14 13  1  0  0  0  0
 15  5  1  0  0  0  0
 16 15  1  0  0  0  0
 17 18  1  0  0  0  0
 18 23  1  0  0  0  0
 19 18  2  0  0  0  0
 19 20  1  0  0  0  0
 20 21  2  0  0  0  0
 21 22  1  0  0  0  0
 22 25  1  0  0  0  0
 23 22  2  0  0  0  0
 24 19  1  0  0  0  0
 26 20  1  0  0  0  0
 26 29  1  0  0  0  0
 27 28  1  0  0  0  0
 27 26  1  0  0  0  0
 28 26  1  0  0  0  0
 28 32  1  0  0  0  0
 30 27  1  0  0  0  0
 31 27  1  0  0  0  0
 33 28  1  0  0  0  0
 34  6  1  0  0  0  0
 35 34  1  6  0  0  0
 35 36  1  0  0  0  0
 36 37  1  0  0  0  0
 38 36  1  0  0  0  0
 39 38  1  0  0  0  0
 40 38  1  0  0  0  0
 41 40  1  0  0  0  0
 41 35  1  0  0  0  0
 42 41  1  0  0  0  0
M  END
>  <minimizedAffinity>
-5.39797401

$$$$

 OpenBabel03242523533D

 42 45  0  0  1  0  0  0  0  0999 V2000
   36.1550   28.5260   40.6730 C   0  0  1  0  0  0  0  0  0  0  0  0
   36.4840   28.3040   39.1920 C   0  0  1  0  0  0  0  0  0  0  0  0
   36.9790   29.5100   38.6540 O   0  0  0  0  0  0  0  0  0  0  0  0
   36.3710   30.6400   39.2050 C   0  0  0  0  0  0  0  0  0  0  0  0
   36.8150   30.8320   40.6510 C   0  0  2  0  0  0  0  0  0  0  0  0
   37.2370   29.4640   41.1840 C   0  0  1  0  0  0  0  0  0  0  0  0
   36.1910   27.5500   41.1990 H   0  0  0  0  0  0  0  0  0  0  0  0
   35.6100   27.9620   38.6300 H   0  0  0  0  0  0  0  0  0  0  0  0
   36.7730   31.4900   38.6320 H   0  0  0  0  0  0  0  0  0  0  0  0
   35.2840   30.6600   39.0780 H   0  0  0  0  0  0  0  0  0  0  0  0
   37.5860   31.5920   40.7780 H   0  0  0  0  0  0  0  0  0  0  0  0
   38.1760   29.1850   40.6830 H   0  0  0  0  0  0  0  0  0  0  0  0
   34.8990   29.1210   40.7970 O   0  0  0  0  0  0  0  0  0  0  0  0
   34.6300   29.0460   41.7370 H   0  0  0  0  0  0  0  0  0  0  0  0
   35.6520   31.1480   41.3960 O   0  0  0  0  0  0  0  0  0  0  0  0
   35.5410   32.1370   41.3170 H   0  0  0  0  0  0  0  0  0  0  0  0
   37.5900   27.4440   39.1730 O   0  0  0  0  0  0  0  0  0  0  0  0
   37.5460   26.1170   39.3090 C   0  0  0  0  0  0  0  0  0  0  0  0
   36.3350   25.4320   39.2480 C   0  0  0  0  0  0  0  0  0  0  0  0
   36.3520   24.0510   39.3960 C   0  0  0  0  0  0  0  0  0  0  0  0
   37.5560   23.3910   39.5980 N   0  0  0  0  0  0  0  0  0  0  0  0
   38.6950   24.0940   39.6490 C   0  0  0  0  0  0  0  0  0  0  0  0
   38.7020   25.4420   39.5080 N   0  0  0  0  0  0  0  0  0  0  0  0
   35.4090   25.9630   39.0910 H   0  0  0  0  0  0  0  0  0  0  0  0
   39.6390   23.6110   39.8040 H   0  0  0  0  0  0  0  0  0  0  0  0
   35.0620   23.2660   39.3460 C   0  0  0  0  0  0  0  0  0  0  0  0
   34.3780   23.1460   38.0060 C   0  0  0  0  0  0  0  0  0  0  0  0
   35.0440   21.9630   38.7320 C   0  0  0  0  0  0  0  0  0  0  0  0
   34.3500   23.6320   40.1260 H   0  0  0  0  0  0  0  0  0  0  0  0
   34.9870   23.5180   37.1570 H   0  0  0  0  0  0  0  0  0  0  0  0
   33.2860   23.1510   37.9250 H   0  0  0  0  0  0  0  0  0  0  0  0
   34.3100   21.2070   39.1220 H   0  0  0  0  0  0  0  0  0  0  0  0
   35.9870   21.5670   38.3330 H   0  0  0  0  0  0  0  0  0  0  0  0
   37.3200   29.4660   42.5600 O   0  0  0  0  0  0  0  0  0  0  0  0
   38.4940   29.0170   43.0680 C   0  0  1  0  0  3  0  0  0  0  0  0
   38.2630   27.6480   43.6790 C   0  0  0  0  0  3  0  0  0  0  0  0
   37.1690   27.4020   43.7090 H   0  0  0  0  0  0  0  0  0  0  0  0
   39.0060   26.7500   42.7260 C   0  0  0  0  0  3  0  0  0  0  0  0
   38.4510   26.5430   41.7860 H   0  0  0  0  0  0  0  0  0  0  0  0
   40.1500   27.5020   42.4570 O   0  0  0  0  0  0  0  0  0  0  0  0
   39.5810   28.7360   42.0670 C   0  0  0  0  0  3  0  0  0  0  0  0
   40.3350   29.5440   42.1410 H   0  0  0  0  0  0  0  0  0  0  0  0
  1 13  1  0  0  0  0
  1  6  1  0  0  0  0
  1  7  1  1  0  0  0
  2  8  1  6  0  0  0
  2  1  1  0  0  0  0
  3  2  1  0  0  0  0
  3  4  1  0  0  0  0
  4  5  1  0  0  0  0
  5 11  1  1  0  0  0
  5  6  1  0  0  0  0
  5 15  1  0  0  0  0
  6 12  1  6  0  0  0
  6 34  1  0  0  0  0
  9  4  1  0  0  0  0
 10  4  1  0  0  0  0
 13 14  1  0  0  0  0
 16 15  1  0  0  0  0
 17  2  1  0  0  0  0
 17 18  1  0  0  0  0
 18 23  1  0  0  0  0
 19 18  2  0  0  0  0
 19 20  1  0  0  0  0
 20 21  2  0  0  0  0
 21 22  1  0  0  0  0
 22 25  1  0  0  0  0
 23 22  2  0  0  0  0
 24 19  1  0  0  0  0
 26 20  1  0  0  0  0
 26 29  1  0  0  0  0
 27 28  1  0  0  0  0
 27 26  1  0  0  0  0
 28 32  1  0  0  0  0
 28 26  1  0  0  0  0
 30 27  1  0  0  0  0
 31 27  1  0  0  0  0
 33 28  1  0  0  0  0
 35 34  1  6  0  0  0
 35 36  1  0  0  0  0
 36 37  1  0  0  0  0
 38 36  1  0  0  0  0
 39 38  1  0  0  0  0
 40 38  1  0  0  0  0
 41 42  1  0  0  0  0
 41 40  1  0  0  0  0
 41 35  1  0  0  0  0
M  END
>  <minimizedAffinity>
-5.37479782

$$$$

 OpenBabel03242523533D

 42 45  0  0  1  0  0  0  0  0999 V2000
   37.5410   31.8270   40.8230 C   0  0  1  0  0  0  0  0  0  0  0  0
   36.9080   30.4380   40.9690 C   0  0  1  0  0  0  0  0  0  0  0  0
   37.0390   29.7510   39.7450 O   0  0  0  0  0  0  0  0  0  0  0  0
   36.9340   30.5940   38.6360 C   0  0  0  0  0  0  0  0  0  0  0  0
   38.1630   31.4910   38.5310 C   0  0  2  0  0  0  0  0  0  0  0  0
   38.7560   31.6180   39.9330 C   0  0  1  0  0  0  0  0  0  0  0  0
   37.8390   32.1930   41.8260 H   0  0  0  0  0  0  0  0  0  0  0  0
   35.8570   30.5010   41.2650 H   0  0  0  0  0  0  0  0  0  0  0  0
   36.9530   29.9230   37.7630 H   0  0  0  0  0  0  0  0  0  0  0  0
   35.9890   31.1460   38.5910 H   0  0  0  0  0  0  0  0  0  0  0  0
   38.8910   31.1540   37.7920 H   0  0  0  0  0  0  0  0  0  0  0  0
   39.1940   30.6450   40.2000 H   0  0  0  0  0  0  0  0  0  0  0  0
   36.6380   32.6990   40.2150 O   0  0  0  0  0  0  0  0  0  0  0  0
   36.9810   33.6090   40.3360 H   0  0  0  0  0  0  0  0  0  0  0  0
   37.6930   32.7940   38.2360 O   0  0  0  0  0  0  0  0  0  0  0  0
   37.6030   32.8300   37.2430 H   0  0  0  0  0  0  0  0  0  0  0  0
   37.7420   29.7300   41.8460 O   0  0  0  0  0  0  0  0  0  0  0  0
   38.2050   28.4940   41.6520 C   0  0  0  0  0  0  0  0  0  0  0  0
   37.3790   27.3860   41.8200 C   0  0  0  0  0  0  0  0  0  0  0  0
   37.9170   26.1250   41.6020 C   0  0  0  0  0  0  0  0  0  0  0  0
   39.2470   25.9950   41.2270 N   0  0  0  0  0  0  0  0  0  0  0  0
   40.0020   27.0910   41.0790 C   0  0  0  0  0  0  0  0  0  0  0  0
   39.4980   28.3320   41.2860 N   0  0  0  0  0  0  0  0  0  0  0  0
   36.3470   27.5070   42.1120 H   0  0  0  0  0  0  0  0  0  0  0  0
   41.0320   27.0210   40.7900 H   0  0  0  0  0  0  0  0  0  0  0  0
   37.0620   24.8930   41.7800 C   0  0  0  0  0  0  0  0  0  0  0  0
   36.3800   24.3410   40.5520 C   0  0  0  0  0  0  0  0  0  0  0  0
   37.5280   23.6230   41.2840 C   0  0  0  0  0  0  0  0  0  0  0  0
   36.3290   25.0410   42.6110 H   0  0  0  0  0  0  0  0  0  0  0  0
   36.7120   24.8140   39.6060 H   0  0  0  0  0  0  0  0  0  0  0  0
   35.3780   23.9010   40.6100 H   0  0  0  0  0  0  0  0  0  0  0  0
   37.2020   22.6940   41.8240 H   0  0  0  0  0  0  0  0  0  0  0  0
   38.5140   23.5870   40.8030 H   0  0  0  0  0  0  0  0  0  0  0  0
   39.6450   32.6680   40.0080 O   0  0  0  0  0  0  0  0  0  0  0  0
   40.9270   32.3620   39.6900 C   0  0  1  0  0  3  0  0  0  0  0  0
   41.3940   33.3110   38.6020 C   0  0  0  0  0  3  0  0  0  0  0  0
   40.5400   33.9260   38.2130 H   0  0  0  0  0  0  0  0  0  0  0  0
   42.3970   34.1600   39.3370 C   0  0  0  0  0  3  0  0  0  0  0  0
   41.9340   34.9450   39.9730 H   0  0  0  0  0  0  0  0  0  0  0  0
   43.0460   33.2140   40.1310 O   0  0  0  0  0  0  0  0  0  0  0  0
   41.9480   32.5940   40.7700 C   0  0  0  0  0  3  0  0  0  0  0  0
   42.2500   31.6080   41.1750 H   0  0  0  0  0  0  0  0  0  0  0  0
  1  2  1  0  0  0  0
  1  7  1  1  0  0  0
  2  8  1  1  0  0  0
  2 17  1  0  0  0  0
  3  2  1  0  0  0  0
  4  3  1  0  0  0  0
  5 11  1  6  0  0  0
  5  4  1  0  0  0  0
  5  6  1  0  0  0  0
  6 34  1  0  0  0  0
  6 12  1  1  0  0  0
  6  1  1  0  0  0  0
  9  4  1  0  0  0  0
 10  4  1  0  0  0  0
 13 14  1  0  0  0  0
 13  1  1  0  0  0  0
 15  5  1  0  0  0  0
 16 15  1  0  0  0  0
 18 19  1  0  0  0  0
 18 17  1  0  0  0  0
 19 24  1  0  0  0  0
 20 26  1  0  0  0  0
 20 19  2  0  0  0  0
 21 20  1  0  0  0  0
 22 21  2  0  0  0  0
 22 23  1  0  0  0  0
 23 18  2  0  0  0  0
 25 22  1  0  0  0  0
 26 29  1  0  0  0  0
 27 31  1  0  0  0  0
 27 28  1  0  0  0  0
 27 26  1  0  0  0  0
 28 26  1  0  0  0  0
 28 32  1  0  0  0  0
 30 27  1  0  0  0  0
 33 28  1  0  0  0  0
 35 34  1  1  0  0  0
 35 41  1  0  0  0  0
 36 38  1  0  0  0  0
 36 35  1  0  0  0  0
 37 36  1  0  0  0  0
 38 39  1  0  0  0  0
 38 40  1  0  0  0  0
 40 41  1  0  0  0  0
 41 42  1  0  0  0  0
M  END
>  <minimizedAffinity>
-5.36433125

$$$$
