
 OpenBabel03252509043D

 47 49  0  0  1  0  0  0  0  0999 V2000
   46.7590   34.4410   43.5140 N   0  0  0  0  0  0  0  0  0  0  0  0
   46.3300   35.5600   42.7680 C   0  0  0  0  0  0  0  0  0  0  0  0
   44.8300   35.7930   42.7740 C   0  0  0  0  0  0  0  0  0  0  0  0
   44.1440   35.4090   44.0600 C   0  0  0  0  0  0  0  0  0  0  0  0
   45.1430   34.9490   45.1060 C   0  0  0  0  0  0  0  0  0  0  0  0
   45.9160   33.7780   44.3810 C   0  0  2  0  0  0  0  0  0  0  0  0
   46.7740   36.4720   43.2430 H   0  0  0  0  0  0  0  0  0  0  0  0
   46.6420   35.6030   41.7160 H   0  0  0  0  0  0  0  0  0  0  0  0
   44.6630   36.8440   42.4970 H   0  0  0  0  0  0  0  0  0  0  0  0
   44.4040   35.1660   41.9550 H   0  0  0  0  0  0  0  0  0  0  0  0
   43.5430   36.2660   44.4190 H   0  0  0  0  0  0  0  0  0  0  0  0
   43.4230   34.5730   43.9280 H   0  0  0  0  0  0  0  0  0  0  0  0
   44.6010   34.4860   45.9370 H   0  0  0  0  0  0  0  0  0  0  0  0
   45.8640   35.7280   45.3710 H   0  0  0  0  0  0  0  0  0  0  0  0
   45.1170   33.1470   43.9440 H   0  0  0  0  0  0  0  0  0  0  0  0
   47.8220   33.6990   42.8920 C   0  0  0  0  0  0  0  0  0  0  0  0
   48.4080   33.1790   43.6900 H   0  0  0  0  0  0  0  0  0  0  0  0
   48.4940   34.4180   42.3670 H   0  0  0  0  0  0  0  0  0  0  0  0
   47.2350   32.6820   41.9650 C   0  0  0  0  0  0  0  0  0  0  0  0
   47.4250   31.6690   42.3120 H   0  0  0  0  0  0  0  0  0  0  0  0
   46.1380   32.8080   41.8850 H   0  0  0  0  0  0  0  0  0  0  0  0
   49.1330   32.0570   38.7740 C   0  0  0  0  0  0  0  0  0  0  0  0
   48.5830   31.8970   40.0660 C   0  0  0  0  0  0  0  0  0  0  0  0
   47.8020   32.8760   40.6030 C   0  0  0  0  0  0  0  0  0  0  0  0
   47.5880   33.9730   39.8620 N   0  0  0  0  0  0  0  0  0  0  0  0
   48.1000   34.1390   38.6430 C   0  0  0  0  0  0  0  0  0  0  0  0
   48.8720   33.1940   38.0850 N   0  0  0  0  0  0  0  0  0  0  0  0
   49.7500   31.2930   38.3370 H   0  0  0  0  0  0  0  0  0  0  0  0
   48.7810   30.9870   40.6360 H   0  0  0  0  0  0  0  0  0  0  0  0
   47.8660   35.0610   38.1280 H   0  0  0  0  0  0  0  0  0  0  0  0
   46.5830   33.2010   45.4380 O   0  0  0  0  0  0  0  0  0  0  0  0
   45.3820   31.0260   44.4710 O   0  0  0  0  0  0  0  0  0  0  0  0
   46.2480   31.5740   45.6250 P   0  0  2  0  0  0  0  0  0  0  0  0
   45.2220   31.4530   46.9970 O   0  0  0  0  0  0  0  0  0  0  0  0
   45.7630   31.5600   47.8230 H   0  0  0  0  0  0  0  0  0  0  0  0
   47.5690   30.6180   45.9080 O   0  0  0  0  0  0  0  0  0  0  0  0
   48.2020   30.2990   44.7240 C   0  0  0  0  0  0  0  0  0  0  0  0
   47.5820   30.5130   43.8200 H   0  0  0  0  0  0  0  0  0  0  0  0
   49.1230   30.9060   44.6320 H   0  0  0  0  0  0  0  0  0  0  0  0
   48.5790   28.8410   44.6300 C   0  0  1  0  0  3  0  0  0  0  0  0
   49.2910   28.5310   43.3300 C   0  0  0  0  0  3  0  0  0  0  0  0
   49.1730   27.4700   43.0410 H   0  0  0  0  0  0  0  0  0  0  0  0
   50.7520   28.7610   43.7070 C   0  0  0  0  0  3  0  0  0  0  0  0
   51.2620   29.4150   42.9560 H   0  0  0  0  0  0  0  0  0  0  0  0
   50.7320   29.3540   44.9690 O   0  0  0  0  0  0  0  0  0  0  0  0
   49.7350   28.6190   45.6130 C   0  0  0  0  0  3  0  0  0  0  0  0
   50.0780   27.5490   45.5580 H   0  0  0  0  0  0  0  0  0  0  0  0
  1  6  1  0  0  0  0
  2  3  1  0  0  0  0
  2  7  1  0  0  0  0
  2  1  1  0  0  0  0
  3  4  1  0  0  0  0
  4 11  1  0  0  0  0
  4  5  1  0  0  0  0
  5 14  1  0  0  0  0
  5 13  1  0  0  0  0
  6 15  1  6  0  0  0
  6  5  1  0  0  0  0
  6 31  1  0  0  0  0
  8  2  1  0  0  0  0
  9  3  1  0  0  0  0
 10  3  1  0  0  0  0
 12  4  1  0  0  0  0
 16  1  1  0  0  0  0
 16 17  1  0  0  0  0
 18 16  1  0  0  0  0
 19 20  1  0  0  0  0
 19 16  1  0  0  0  0
 21 19  1  0  0  0  0
 22 23  1  0  0  0  0
 23 24  2  0  0  0  0
 23 29  1  0  0  0  0
 24 19  1  0  0  0  0
 25 24  1  0  0  0  0
 26 25  2  0  0  0  0
 27 26  1  0  0  0  0
 27 22  2  0  0  0  0
 28 22  1  0  0  0  0
 30 26  1  0  0  0  0
 31 33  1  0  0  0  0
 33 32  2  6  0  0  0
 33 36  1  0  0  0  0
 33 34  1  0  0  0  0
 34 35  1  0  0  0  0
 37 36  1  0  0  0  0
 38 37  1  0  0  0  0
 39 37  1  0  0  0  0
 40 37  1  6  0  0  0
 40 46  1  0  0  0  0
 41 43  1  0  0  0  0
 41 40  1  0  0  0  0
 42 41  1  0  0  0  0
 43 45  1  0  0  0  0
 44 43  1  0  0  0  0
 45 46  1  0  0  0  0
 47 46  1  0  0  0  0
M  END
>  <minimizedAffinity>
-3.77561378

>  <minimizedRMSD>
1.0139184

$$$$
