
 OpenBabel03252509043D

 47 49  0  0  1  0  0  0  0  0999 V2000
   47.1660   34.1640   43.0830 N   0  0  0  0  0  0  0  0  0  0  0  0
   46.6610   35.3510   42.5110 C   0  0  0  0  0  0  0  0  0  0  0  0
   45.1730   35.5720   42.7120 C   0  0  0  0  0  0  0  0  0  0  0  0
   44.6360   35.0520   44.0200 C   0  0  0  0  0  0  0  0  0  0  0  0
   45.7450   34.4930   44.8920 C   0  0  0  0  0  0  0  0  0  0  0  0
   46.4240   33.4080   43.9660 C   0  0  2  0  0  0  0  0  0  0  0  0
   47.1610   36.2110   43.0240 H   0  0  0  0  0  0  0  0  0  0  0  0
   46.8520   35.5060   41.4410 H   0  0  0  0  0  0  0  0  0  0  0  0
   44.9810   36.6450   42.5660 H   0  0  0  0  0  0  0  0  0  0  0  0
   44.6530   35.0310   41.8860 H   0  0  0  0  0  0  0  0  0  0  0  0
   44.0840   35.8630   44.5330 H   0  0  0  0  0  0  0  0  0  0  0  0
   43.9000   34.2300   43.8850 H   0  0  0  0  0  0  0  0  0  0  0  0
   45.2990   33.9420   45.7270 H   0  0  0  0  0  0  0  0  0  0  0  0
   46.4950   35.2440   45.1530 H   0  0  0  0  0  0  0  0  0  0  0  0
   45.5770   32.8210   43.5600 H   0  0  0  0  0  0  0  0  0  0  0  0
   48.1480   33.4970   42.2700 C   0  0  0  0  0  0  0  0  0  0  0  0
   48.7800   32.8550   42.9310 H   0  0  0  0  0  0  0  0  0  0  0  0
   48.7970   34.2700   41.7960 H   0  0  0  0  0  0  0  0  0  0  0  0
   47.4510   32.6380   41.2630 C   0  0  0  0  0  0  0  0  0  0  0  0
   47.5610   31.5810   41.4950 H   0  0  0  0  0  0  0  0  0  0  0  0
   46.3670   32.8630   41.2350 H   0  0  0  0  0  0  0  0  0  0  0  0
   49.3450   32.2670   38.0300 C   0  0  0  0  0  0  0  0  0  0  0  0
   48.8130   32.0140   39.3160 C   0  0  0  0  0  0  0  0  0  0  0  0
   47.9960   32.9290   39.9100 C   0  0  0  0  0  0  0  0  0  0  0  0
   47.7300   34.0540   39.2310 N   0  0  0  0  0  0  0  0  0  0  0  0
   48.2230   34.3070   38.0190 C   0  0  0  0  0  0  0  0  0  0  0  0
   49.0300   33.4270   37.4060 N   0  0  0  0  0  0  0  0  0  0  0  0
   49.9900   31.5550   37.5490 H   0  0  0  0  0  0  0  0  0  0  0  0
   49.0560   31.0850   39.8340 H   0  0  0  0  0  0  0  0  0  0  0  0
   47.9460   35.2440   37.5560 H   0  0  0  0  0  0  0  0  0  0  0  0
   47.2030   32.7290   44.8750 O   0  0  0  0  0  0  0  0  0  0  0  0
   45.9960   30.5500   43.9240 O   0  0  0  0  0  0  0  0  0  0  0  0
   46.6780   31.1680   45.1630 P   0  0  2  0  0  0  0  0  0  0  0  0
   45.4040   31.2980   46.3080 O   0  0  0  0  0  0  0  0  0  0  0  0
   45.7870   31.4640   47.2090 H   0  0  0  0  0  0  0  0  0  0  0  0
   47.8200   30.1550   45.8040 O   0  0  0  0  0  0  0  0  0  0  0  0
   47.7570   28.9120   45.2090 C   0  0  0  0  0  0  0  0  0  0  0  0
   46.7630   28.4170   45.3220 H   0  0  0  0  0  0  0  0  0  0  0  0
   47.9380   29.0220   44.1230 H   0  0  0  0  0  0  0  0  0  0  0  0
   48.7670   27.9390   45.7650 C   0  0  1  0  0  3  0  0  0  0  0  0
   48.1020   26.6980   46.3200 C   0  0  0  0  0  3  0  0  0  0  0  0
   48.7210   26.2130   47.0990 H   0  0  0  0  0  0  0  0  0  0  0  0
   48.0700   25.7830   45.1000 C   0  0  0  0  0  3  0  0  0  0  0  0
   47.0500   25.3470   44.9510 H   0  0  0  0  0  0  0  0  0  0  0  0
   48.4480   26.5760   44.0170 O   0  0  0  0  0  0  0  0  0  0  0  0
   49.4950   27.3210   44.5630 C   0  0  0  0  0  3  0  0  0  0  0  0
   50.2410   26.5610   44.9240 H   0  0  0  0  0  0  0  0  0  0  0  0
  1  6  1  0  0  0  0
  2  3  1  0  0  0  0
  2  7  1  0  0  0  0
  2  1  1  0  0  0  0
  3  4  1  0  0  0  0
  4 11  1  0  0  0  0
  4  5  1  0  0  0  0
  5 14  1  0  0  0  0
  5 13  1  0  0  0  0
  6 15  1  6  0  0  0
  6 31  1  0  0  0  0
  6  5  1  0  0  0  0
  8  2  1  0  0  0  0
  9  3  1  0  0  0  0
 10  3  1  0  0  0  0
 12  4  1  0  0  0  0
 16 17  1  0  0  0  0
 16  1  1  0  0  0  0
 18 16  1  0  0  0  0
 19 20  1  0  0  0  0
 19 16  1  0  0  0  0
 21 19  1  0  0  0  0
 22 23  1  0  0  0  0
 23 29  1  0  0  0  0
 23 24  2  0  0  0  0
 24 19  1  0  0  0  0
 25 24  1  0  0  0  0
 26 25  2  0  0  0  0
 27 26  1  0  0  0  0
 27 22  2  0  0  0  0
 28 22  1  0  0  0  0
 30 26  1  0  0  0  0
 31 33  1  0  0  0  0
 33 32  2  6  0  0  0
 33 36  1  0  0  0  0
 33 34  1  0  0  0  0
 34 35  1  0  0  0  0
 37 38  1  0  0  0  0
 37 36  1  0  0  0  0
 39 37  1  0  0  0  0
 40 37  1  6  0  0  0
 40 41  1  0  0  0  0
 41 42  1  0  0  0  0
 43 41  1  0  0  0  0
 44 43  1  0  0  0  0
 45 46  1  0  0  0  0
 45 43  1  0  0  0  0
 46 47  1  0  0  0  0
 46 40  1  0  0  0  0
M  END
>  <minimizedAffinity>
-3.50442171

>  <minimizedRMSD>
0.0472704358

$$$$
