
 OpenBabel03252505583D

 35 37  0  0  1  0  0  0  0  0999 V2000
   44.8960   35.1080   45.1730 C   0  0  0  0  0  0  0  0  0  0  0  0
   45.6490   34.7790   44.0270 C   0  0  0  0  0  0  0  0  0  0  0  0
   46.4520   33.6490   44.1040 C   0  0  0  0  0  0  0  0  0  0  0  0
   46.4650   32.9430   45.2560 N   0  0  0  0  0  0  0  0  0  0  0  0
   45.7380   33.2850   46.3210 C   0  0  0  0  0  0  0  0  0  0  0  0
   44.9570   34.3590   46.2850 N   0  0  0  0  0  0  0  0  0  0  0  0
   44.2660   35.9870   45.1220 H   0  0  0  0  0  0  0  0  0  0  0  0
   47.2990   33.1260   43.0490 C   0  0  2  0  0  3  0  0  0  0  0  0
   46.4030   32.2520   42.1520 C   0  0  0  0  0  3  0  0  0  0  0  0
   46.3030   32.6640   41.1290 H   0  0  0  0  0  0  0  0  0  0  0  0
   47.0540   30.9090   42.0820 C   0  0  0  0  0  3  0  0  0  0  0  0
   46.3440   30.0730   41.9730 H   0  0  0  0  0  0  0  0  0  0  0  0
   47.5990   30.8170   43.3630 O   0  0  0  0  0  0  0  0  0  0  0  0
   48.2390   32.0410   43.5560 C   0  0  0  0  0  3  0  0  0  0  0  0
   49.1450   32.0600   42.9190 H   0  0  0  0  0  0  0  0  0  0  0  0
   45.5540   35.6280   42.8200 C   0  0  0  0  0  0  0  0  0  0  0  0
   44.9820   36.8140   43.2830 F   0  0  0  0  0  0  0  0  0  0  0  0
   44.6120   35.0290   41.9810 F   0  0  0  0  0  0  0  0  0  0  0  0
   46.7480   35.8420   42.2800 F   0  0  0  0  0  0  0  0  0  0  0  0
   45.7540   32.5540   47.5060 O   0  0  0  0  0  0  0  0  0  0  0  0
   45.3130   31.2110   47.5250 C   0  0  0  0  0  0  0  0  0  0  0  0
   44.6930   31.0860   48.4450 H   0  0  0  0  0  0  0  0  0  0  0  0
   44.6670   30.9470   46.6700 H   0  0  0  0  0  0  0  0  0  0  0  0
   46.5050   30.3570   47.6700 C   0  0  0  0  0  0  0  0  0  0  0  0
   46.7560   29.0830   47.1780 C   0  0  0  0  0  0  0  0  0  0  0  0
   47.9570   28.5140   47.4660 C   0  0  0  0  0  0  0  0  0  0  0  0
   48.8850   29.1330   48.1930 N   0  0  0  0  0  0  0  0  0  0  0  0
   48.6360   30.3620   48.6650 C   0  0  0  0  0  0  0  0  0  0  0  0
   47.4460   30.9880   48.4100 N   0  0  0  0  0  0  0  0  0  0  0  0
   45.9400   28.6980   46.6140 H   0  0  0  0  0  0  0  0  0  0  0  0
   48.0870   27.5170   47.0490 H   0  0  0  0  0  0  0  0  0  0  0  0
   49.7270   30.9660   49.4620 C   0  0  0  0  0  0  0  0  0  0  0  0
   49.7070   32.3440   49.3830 F   0  0  0  0  0  0  0  0  0  0  0  0
   50.9650   30.5180   48.9980 F   0  0  0  0  0  0  0  0  0  0  0  0
   49.6500   30.6250   50.7970 F   0  0  0  0  0  0  0  0  0  0  0  0
  1  6  1  0  0  0  0
  2  3  1  0  0  0  0
  2  1  2  0  0  0  0
  3  4  2  0  0  0  0
  4  5  1  0  0  0  0
  5 20  1  0  0  0  0
  6  5  2  0  0  0  0
  7  1  1  0  0  0  0
  8 14  1  0  0  0  0
  8  3  1  1  0  0  0
  9  8  1  0  0  0  0
 10  9  1  0  0  0  0
 11  9  1  0  0  0  0
 11 13  1  0  0  0  0
 12 11  1  0  0  0  0
 13 14  1  0  0  0  0
 15 14  1  0  0  0  0
 16 17  1  0  0  0  0
 16  2  1  0  0  0  0
 18 16  1  0  0  0  0
 19 16  1  0  0  0  0
 20 21  1  0  0  0  0
 21 24  1  0  0  0  0
 21 22  1  0  0  0  0
 23 21  1  0  0  0  0
 24 29  1  0  0  0  0
 25 26  1  0  0  0  0
 25 24  2  0  0  0  0
 26 27  2  0  0  0  0
 27 28  1  0  0  0  0
 28 32  1  0  0  0  0
 29 28  2  0  0  0  0
 30 25  1  0  0  0  0
 31 26  1  0  0  0  0
 32 35  1  0  0  0  0
 33 32  1  0  0  0  0
 34 32  1  0  0  0  0
M  END
>  <minimizedAffinity>
-5.48351479

>  <minimizedRMSD>
0.266363353

$$$$
