
 OpenBabel03242514583D

 24 25  0  0  1  0  0  0  0  0999 V2000
   35.7860   28.8800   41.0260 C   0  0  0  0  0  0  0  0  0  0  0  0
   34.6970   28.5810   41.0100 H   0  0  0  0  0  0  0  0  0  0  0  0
   35.8630   29.4590   41.9910 H   0  0  0  0  0  0  0  0  0  0  0  0
   36.6320   27.6830   41.1920 C   0  0  0  0  0  0  0  0  0  0  0  0
   36.1360   26.8310   40.6380 H   0  0  0  0  0  0  0  0  0  0  0  0
   37.5980   27.8420   40.6280 H   0  0  0  0  0  0  0  0  0  0  0  0
   36.9330   27.2380   42.5800 C   0  0  2  0  0  3  0  0  0  0  0  0
   37.4780   28.4580   43.3240 C   0  0  0  0  0  3  0  0  0  0  0  0
   37.1940   28.4740   44.3820 H   0  0  0  0  0  0  0  0  0  0  0  0
   38.9710   28.2330   43.2250 C   0  0  0  0  0  3  0  0  0  0  0  0
   39.4800   28.8010   44.0430 H   0  0  0  0  0  0  0  0  0  0  0  0
   39.0540   26.8860   43.4960 O   0  0  0  0  0  0  0  0  0  0  0  0
   38.1130   26.3070   42.6210 C   0  0  0  0  0  3  0  0  0  0  0  0
   38.6320   26.2120   41.6510 H   0  0  0  0  0  0  0  0  0  0  0  0
   36.1830   29.9950   39.7120 S   0  0  0  0  0  0  0  0  0  0  0  0
   37.3330   31.2860   40.1750 C   0  0  0  0  0  0  0  0  0  0  0  0
   37.0820   32.5360   39.5970 C   0  0  0  0  0  0  0  0  0  0  0  0
   37.9530   33.5920   39.9180 C   0  0  0  0  0  0  0  0  0  0  0  0
   38.9960   33.3410   40.7740 N   0  0  0  0  0  0  0  0  0  0  0  0
   39.1910   32.1180   41.3000 C   0  0  0  0  0  0  0  0  0  0  0  0
   38.3880   31.0970   41.0200 N   0  0  0  0  0  0  0  0  0  0  0  0
   36.2750   32.7430   38.9310 H   0  0  0  0  0  0  0  0  0  0  0  0
   37.8250   34.5890   39.5110 H   0  0  0  0  0  0  0  0  0  0  0  0
   40.0430   32.0120   41.9690 H   0  0  0  0  0  0  0  0  0  0  0  0
  1  4  1  0  0  0  0
  1  3  1  0  0  0  0
  2  1  1  0  0  0  0
  5  4  1  0  0  0  0
  6  4  1  0  0  0  0
  7  4  1  6  0  0  0
  7 13  1  0  0  0  0
  7  8  1  0  0  0  0
  8  9  1  0  0  0  0
 10  8  1  0  0  0  0
 10 12  1  0  0  0  0
 10 11  1  0  0  0  0
 13 12  1  0  0  0  0
 14 13  1  0  0  0  0
 15 16  1  0  0  0  0
 15  1  1  0  0  0  0
 16 21  1  0  0  0  0
 17 18  1  0  0  0  0
 17 16  2  0  0  0  0
 18 19  2  0  0  0  0
 19 20  1  0  0  0  0
 20 24  1  0  0  0  0
 21 20  2  0  0  0  0
 22 17  1  0  0  0  0
 23 18  1  0  0  0  0
M  END
>  <minimizedAffinity>
-3.95938396

$$$$

 OpenBabel03242514583D

 24 25  0  0  1  0  0  0  0  0999 V2000
   36.8960   27.2120   42.9230 C   0  0  0  0  0  0  0  0  0  0  0  0
   35.8680   27.6770   42.8720 H   0  0  0  0  0  0  0  0  0  0  0  0
   36.8360   26.5940   43.8640 H   0  0  0  0  0  0  0  0  0  0  0  0
   37.0720   26.2580   41.8110 C   0  0  0  0  0  0  0  0  0  0  0  0
   36.3010   26.5050   41.0210 H   0  0  0  0  0  0  0  0  0  0  0  0
   38.0560   26.4730   41.3010 H   0  0  0  0  0  0  0  0  0  0  0  0
   36.9810   24.8070   42.1280 C   0  0  2  0  0  3  0  0  0  0  0  0
   38.4140   24.3090   42.3180 C   0  0  0  0  0  3  0  0  0  0  0  0
   38.4950   23.5210   43.0740 H   0  0  0  0  0  0  0  0  0  0  0  0
   38.7100   23.7100   40.9600 C   0  0  0  0  0  3  0  0  0  0  0  0
   39.5400   22.9680   41.0630 H   0  0  0  0  0  0  0  0  0  0  0  0
   37.5370   23.0390   40.7050 O   0  0  0  0  0  0  0  0  0  0  0  0
   36.5380   24.0060   40.9350 C   0  0  0  0  0  3  0  0  0  0  0  0
   36.4800   24.5980   40.0040 H   0  0  0  0  0  0  0  0  0  0  0  0
   38.1570   28.4270   43.1730 S   0  0  0  0  0  0  0  0  0  0  0  0
   38.0030   29.8660   42.1190 C   0  0  0  0  0  0  0  0  0  0  0  0
   36.7390   30.0430   41.5440 C   0  0  0  0  0  0  0  0  0  0  0  0
   36.5540   31.1540   40.7010 C   0  0  0  0  0  0  0  0  0  0  0  0
   37.6160   31.9970   40.4910 N   0  0  0  0  0  0  0  0  0  0  0  0
   38.8100   31.7780   41.0700 C   0  0  0  0  0  0  0  0  0  0  0  0
   39.0210   30.7380   41.8720 N   0  0  0  0  0  0  0  0  0  0  0  0
   35.9060   29.3950   41.7000 H   0  0  0  0  0  0  0  0  0  0  0  0
   35.6050   31.3600   40.2190 H   0  0  0  0  0  0  0  0  0  0  0  0
   39.5950   32.4980   40.8460 H   0  0  0  0  0  0  0  0  0  0  0  0
  1 15  1  0  0  0  0
  1  3  1  0  0  0  0
  2  1  1  0  0  0  0
  4  1  1  0  0  0  0
  5  4  1  0  0  0  0
  6  4  1  0  0  0  0
  7  4  1  6  0  0  0
  7  8  1  0  0  0  0
  8  9  1  0  0  0  0
 10 11  1  0  0  0  0
 10  8  1  0  0  0  0
 12 13  1  0  0  0  0
 12 10  1  0  0  0  0
 13  7  1  0  0  0  0
 14 13  1  0  0  0  0
 16 15  1  0  0  0  0
 17 22  1  0  0  0  0
 17 16  2  0  0  0  0
 18 17  1  0  0  0  0
 19 18  2  0  0  0  0
 19 20  1  0  0  0  0
 20 21  2  0  0  0  0
 21 16  1  0  0  0  0
 23 18  1  0  0  0  0
 24 20  1  0  0  0  0
M  END
>  <minimizedAffinity>
-3.95563293

$$$$

 OpenBabel03242514583D

 24 25  0  0  1  0  0  0  0  0999 V2000
   37.4250   29.8610   41.8280 C   0  0  0  0  0  0  0  0  0  0  0  0
   36.4750   29.2600   41.7140 H   0  0  0  0  0  0  0  0  0  0  0  0
   37.0330   30.8820   42.1060 H   0  0  0  0  0  0  0  0  0  0  0  0
   38.1870   29.3780   42.9960 C   0  0  0  0  0  0  0  0  0  0  0  0
   39.2540   29.2050   42.6620 H   0  0  0  0  0  0  0  0  0  0  0  0
   38.2730   30.2190   43.7440 H   0  0  0  0  0  0  0  0  0  0  0  0
   37.6970   28.1510   43.6790 C   0  0  2  0  0  3  0  0  0  0  0  0
   38.8330   27.1290   43.6160 C   0  0  0  0  0  3  0  0  0  0  0  0
   38.8760   26.4840   44.5010 H   0  0  0  0  0  0  0  0  0  0  0  0
   38.4240   26.2920   42.4240 C   0  0  0  0  0  3  0  0  0  0  0  0
   38.9170   25.2920   42.4950 H   0  0  0  0  0  0  0  0  0  0  0  0
   37.0750   26.1450   42.6540 O   0  0  0  0  0  0  0  0  0  0  0  0
   36.6260   27.4610   42.8810 C   0  0  0  0  0  3  0  0  0  0  0  0
   36.4740   27.8980   41.8780 H   0  0  0  0  0  0  0  0  0  0  0  0
   38.2870   30.0300   40.2940 S   0  0  0  0  0  0  0  0  0  0  0  0
   39.0100   31.6470   40.0380 C   0  0  0  0  0  0  0  0  0  0  0  0
   38.3330   32.7020   40.6620 C   0  0  0  0  0  0  0  0  0  0  0  0
   38.8490   34.0000   40.4960 C   0  0  0  0  0  0  0  0  0  0  0  0
   39.9800   34.1590   39.7350 N   0  0  0  0  0  0  0  0  0  0  0  0
   40.5900   33.1090   39.1560 C   0  0  0  0  0  0  0  0  0  0  0  0
   40.1300   31.8690   39.2920 N   0  0  0  0  0  0  0  0  0  0  0  0
   37.4540   32.5900   41.2560 H   0  0  0  0  0  0  0  0  0  0  0  0
   38.3830   34.8680   40.9480 H   0  0  0  0  0  0  0  0  0  0  0  0
   41.4800   33.3300   38.5710 H   0  0  0  0  0  0  0  0  0  0  0  0
  1  3  1  0  0  0  0
  1  4  1  0  0  0  0
  2  1  1  0  0  0  0
  4  6  1  0  0  0  0
  5  4  1  0  0  0  0
  7  4  1  6  0  0  0
  8  7  1  0  0  0  0
  8  9  1  0  0  0  0
 10 11  1  0  0  0  0
 10 12  1  0  0  0  0
 10  8  1  0  0  0  0
 12 13  1  0  0  0  0
 13  7  1  0  0  0  0
 14 13  1  0  0  0  0
 15  1  1  0  0  0  0
 16 15  1  0  0  0  0
 16 17  1  0  0  0  0
 17 22  1  0  0  0  0
 18 17  2  0  0  0  0
 18 23  1  0  0  0  0
 19 18  1  0  0  0  0
 20 21  1  0  0  0  0
 20 19  2  0  0  0  0
 21 16  2  0  0  0  0
 24 20  1  0  0  0  0
M  END
>  <minimizedAffinity>
-3.92343497

$$$$

 OpenBabel03242514583D

 24 25  0  0  1  0  0  0  0  0999 V2000
   36.5980   27.7630   40.3390 C   0  0  0  0  0  0  0  0  0  0  0  0
   36.8440   26.6670   40.4540 H   0  0  0  0  0  0  0  0  0  0  0  0
   35.6640   27.7350   39.7070 H   0  0  0  0  0  0  0  0  0  0  0  0
   36.2000   28.3280   41.6420 C   0  0  0  0  0  0  0  0  0  0  0  0
   36.5760   29.3930   41.6850 H   0  0  0  0  0  0  0  0  0  0  0  0
   35.0760   28.4400   41.6600 H   0  0  0  0  0  0  0  0  0  0  0  0
   36.6470   27.6140   42.8690 C   0  0  2  0  0  3  0  0  0  0  0  0
   37.5880   28.5650   43.6110 C   0  0  0  0  0  3  0  0  0  0  0  0
   37.5200   28.4670   44.7000 H   0  0  0  0  0  0  0  0  0  0  0  0
   38.9430   28.0640   43.1610 C   0  0  0  0  0  3  0  0  0  0  0  0
   39.7130   28.3800   43.9070 H   0  0  0  0  0  0  0  0  0  0  0  0
   38.7650   26.7030   43.2490 O   0  0  0  0  0  0  0  0  0  0  0  0
   37.5680   26.4720   42.5410 C   0  0  0  0  0  3  0  0  0  0  0  0
   37.8590   26.4330   41.4760 H   0  0  0  0  0  0  0  0  0  0  0  0
   37.8340   28.6230   39.4110 S   0  0  0  0  0  0  0  0  0  0  0  0
   38.0180   30.3450   39.8620 C   0  0  0  0  0  0  0  0  0  0  0  0
   37.0960   31.2140   39.2660 C   0  0  0  0  0  0  0  0  0  0  0  0
   37.1900   32.5820   39.5770 C   0  0  0  0  0  0  0  0  0  0  0  0
   38.1760   32.9870   40.4420 N   0  0  0  0  0  0  0  0  0  0  0  0
   39.0370   32.1080   40.9860 C   0  0  0  0  0  0  0  0  0  0  0  0
   38.9770   30.8080   40.7150 N   0  0  0  0  0  0  0  0  0  0  0  0
   36.3260   30.9100   38.5930 H   0  0  0  0  0  0  0  0  0  0  0  0
   36.5130   33.3170   39.1570 H   0  0  0  0  0  0  0  0  0  0  0  0
   39.7850   32.5200   41.6600 H   0  0  0  0  0  0  0  0  0  0  0  0
  1  2  1  0  0  0  0
  1  4  1  0  0  0  0
  3  1  1  0  0  0  0
  4  6  1  0  0  0  0
  4  5  1  0  0  0  0
  7  4  1  6  0  0  0
  7  8  1  0  0  0  0
  8  9  1  0  0  0  0
 10 12  1  0  0  0  0
 10  8  1  0  0  0  0
 10 11  1  0  0  0  0
 13  7  1  0  0  0  0
 13 12  1  0  0  0  0
 14 13  1  0  0  0  0
 15 16  1  0  0  0  0
 15  1  1  0  0  0  0
 16 21  1  0  0  0  0
 17 18  1  0  0  0  0
 17 16  2  0  0  0  0
 18 19  2  0  0  0  0
 19 20  1  0  0  0  0
 20 24  1  0  0  0  0
 21 20  2  0  0  0  0
 22 17  1  0  0  0  0
 23 18  1  0  0  0  0
M  END
>  <minimizedAffinity>
-3.82523775

$$$$

 OpenBabel03242514583D

 24 25  0  0  1  0  0  0  0  0999 V2000
   36.1640   29.9840   38.8830 C   0  0  0  0  0  0  0  0  0  0  0  0
   35.3890   30.4010   38.1750 H   0  0  0  0  0  0  0  0  0  0  0  0
   36.5830   29.1150   38.2980 H   0  0  0  0  0  0  0  0  0  0  0  0
   37.2680   30.9490   39.0420 C   0  0  0  0  0  0  0  0  0  0  0  0
   38.2290   30.3590   39.1310 H   0  0  0  0  0  0  0  0  0  0  0  0
   37.3930   31.5180   38.0740 H   0  0  0  0  0  0  0  0  0  0  0  0
   37.1900   31.9070   40.1770 C   0  0  2  0  0  3  0  0  0  0  0  0
   37.3020   33.3090   39.5780 C   0  0  0  0  0  3  0  0  0  0  0  0
   36.7080   34.0530   40.1210 H   0  0  0  0  0  0  0  0  0  0  0  0
   38.7700   33.6120   39.7870 C   0  0  0  0  0  3  0  0  0  0  0  0
   38.9170   34.7210   39.7740 H   0  0  0  0  0  0  0  0  0  0  0  0
   38.9560   33.1500   41.0690 O   0  0  0  0  0  0  0  0  0  0  0  0
   38.4200   31.8470   41.0390 C   0  0  0  0  0  3  0  0  0  0  0  0
   39.2200   31.2090   40.6220 H   0  0  0  0  0  0  0  0  0  0  0  0
   35.4290   29.3230   40.3500 S   0  0  0  0  0  0  0  0  0  0  0  0
   36.5680   28.4150   41.3890 C   0  0  0  0  0  0  0  0  0  0  0  0
   36.8670   27.1210   40.9470 C   0  0  0  0  0  0  0  0  0  0  0  0
   37.7540   26.3530   41.7230 C   0  0  0  0  0  0  0  0  0  0  0  0
   38.2720   26.9110   42.8650 N   0  0  0  0  0  0  0  0  0  0  0  0
   37.9480   28.1600   43.2440 C   0  0  0  0  0  0  0  0  0  0  0  0
   37.1140   28.9150   42.5350 N   0  0  0  0  0  0  0  0  0  0  0  0
   36.4710   26.6770   40.0620 H   0  0  0  0  0  0  0  0  0  0  0  0
   38.0350   25.3430   41.4470 H   0  0  0  0  0  0  0  0  0  0  0  0
   38.4070   28.5200   44.1630 H   0  0  0  0  0  0  0  0  0  0  0  0
  1  4  1  0  0  0  0
  1 15  1  0  0  0  0
  2  1  1  0  0  0  0
  3  1  1  0  0  0  0
  4  5  1  0  0  0  0
  6  4  1  0  0  0  0
  7  4  1  6  0  0  0
  7 13  1  0  0  0  0
  8 10  1  0  0  0  0
  8  9  1  0  0  0  0
  8  7  1  0  0  0  0
 10 12  1  0  0  0  0
 11 10  1  0  0  0  0
 13 12  1  0  0  0  0
 14 13  1  0  0  0  0
 15 16  1  0  0  0  0
 16 21  1  0  0  0  0
 17 16  2  0  0  0  0
 17 18  1  0  0  0  0
 18 19  2  0  0  0  0
 19 20  1  0  0  0  0
 20 24  1  0  0  0  0
 21 20  2  0  0  0  0
 22 17  1  0  0  0  0
 23 18  1  0  0  0  0
M  END
>  <minimizedAffinity>
-3.82490468

$$$$

 OpenBabel03242514583D

 24 25  0  0  1  0  0  0  0  0999 V2000
   36.3850   27.4840   40.1240 C   0  0  0  0  0  0  0  0  0  0  0  0
   37.1100   26.9710   39.4260 H   0  0  0  0  0  0  0  0  0  0  0  0
   35.6590   26.6560   40.3690 H   0  0  0  0  0  0  0  0  0  0  0  0
   37.0640   27.8260   41.3890 C   0  0  0  0  0  0  0  0  0  0  0  0
   38.1080   28.1790   41.1340 H   0  0  0  0  0  0  0  0  0  0  0  0
   36.5710   28.7430   41.8270 H   0  0  0  0  0  0  0  0  0  0  0  0
   37.1600   26.7660   42.4280 C   0  0  2  0  0  3  0  0  0  0  0  0
   37.7370   27.4290   43.6800 C   0  0  0  0  0  3  0  0  0  0  0  0
   37.3390   27.0060   44.6090 H   0  0  0  0  0  0  0  0  0  0  0  0
   39.2020   27.0640   43.5690 C   0  0  0  0  0  3  0  0  0  0  0  0
   39.6690   27.1240   44.5830 H   0  0  0  0  0  0  0  0  0  0  0  0
   39.1170   25.7430   43.1920 O   0  0  0  0  0  0  0  0  0  0  0  0
   38.2280   25.7600   42.0990 C   0  0  0  0  0  3  0  0  0  0  0  0
   38.8410   26.0400   41.2240 H   0  0  0  0  0  0  0  0  0  0  0  0
   35.4720   28.7590   39.3080 S   0  0  0  0  0  0  0  0  0  0  0  0
   36.3890   30.2780   39.0750 C   0  0  0  0  0  0  0  0  0  0  0  0
   36.4910   31.0870   40.2120 C   0  0  0  0  0  0  0  0  0  0  0  0
   37.1970   32.2980   40.0930 C   0  0  0  0  0  0  0  0  0  0  0  0
   37.7420   32.6170   38.8750 N   0  0  0  0  0  0  0  0  0  0  0  0
   37.6130   31.8020   37.8140 C   0  0  0  0  0  0  0  0  0  0  0  0
   36.9530   30.6500   37.8890 N   0  0  0  0  0  0  0  0  0  0  0  0
   36.0710   30.8490   41.1640 H   0  0  0  0  0  0  0  0  0  0  0  0
   37.3190   32.9780   40.9290 H   0  0  0  0  0  0  0  0  0  0  0  0
   38.0780   32.1370   36.8890 H   0  0  0  0  0  0  0  0  0  0  0  0
  1  3  1  0  0  0  0
  1  4  1  0  0  0  0
  2  1  1  0  0  0  0
  4  6  1  0  0  0  0
  5  4  1  0  0  0  0
  7  4  1  6  0  0  0
  7  8  1  0  0  0  0
  8  9  1  0  0  0  0
 10  8  1  0  0  0  0
 10 11  1  0  0  0  0
 12 10  1  0  0  0  0
 13  7  1  0  0  0  0
 13 12  1  0  0  0  0
 14 13  1  0  0  0  0
 15  1  1  0  0  0  0
 16 15  1  0  0  0  0
 16 17  1  0  0  0  0
 17 22  1  0  0  0  0
 18 17  2  0  0  0  0
 18 23  1  0  0  0  0
 19 18  1  0  0  0  0
 20 21  1  0  0  0  0
 20 19  2  0  0  0  0
 21 16  2  0  0  0  0
 24 20  1  0  0  0  0
M  END
>  <minimizedAffinity>
-3.66212821

$$$$

 OpenBabel03242514583D

 24 25  0  0  1  0  0  0  0  0999 V2000
   37.9750   28.4980   41.3170 C   0  0  0  0  0  0  0  0  0  0  0  0
   37.1930   28.7900   42.0790 H   0  0  0  0  0  0  0  0  0  0  0  0
   38.9230   28.9000   41.7790 H   0  0  0  0  0  0  0  0  0  0  0  0
   38.1200   27.0310   41.2840 C   0  0  0  0  0  0  0  0  0  0  0  0
   37.3120   26.6210   40.6070 H   0  0  0  0  0  0  0  0  0  0  0  0
   39.0780   26.7740   40.7420 H   0  0  0  0  0  0  0  0  0  0  0  0
   38.0710   26.3030   42.5800 C   0  0  2  0  0  3  0  0  0  0  0  0
   38.7290   27.2110   43.6200 C   0  0  0  0  0  3  0  0  0  0  0  0
   38.2750   27.1220   44.6130 H   0  0  0  0  0  0  0  0  0  0  0  0
   40.1320   26.6460   43.6730 C   0  0  0  0  0  3  0  0  0  0  0  0
   40.6010   26.9280   44.6480 H   0  0  0  0  0  0  0  0  0  0  0  0
   39.8720   25.2940   43.6750 O   0  0  0  0  0  0  0  0  0  0  0  0
   38.9950   25.1170   42.5870 C   0  0  0  0  0  3  0  0  0  0  0  0
   39.6420   25.0590   41.6930 H   0  0  0  0  0  0  0  0  0  0  0  0
   37.7430   29.3390   39.7790 S   0  0  0  0  0  0  0  0  0  0  0  0
   37.8570   31.1220   39.8980 C   0  0  0  0  0  0  0  0  0  0  0  0
   38.8310   31.5930   40.7860 C   0  0  0  0  0  0  0  0  0  0  0  0
   38.9690   32.9850   40.9280 C   0  0  0  0  0  0  0  0  0  0  0  0
   38.1430   33.8000   40.1940 N   0  0  0  0  0  0  0  0  0  0  0  0
   37.2230   33.2920   39.3550 C   0  0  0  0  0  0  0  0  0  0  0  0
   37.0660   31.9820   39.1950 N   0  0  0  0  0  0  0  0  0  0  0  0
   39.4780   30.9700   41.3620 H   0  0  0  0  0  0  0  0  0  0  0  0
   39.7000   33.4280   41.5950 H   0  0  0  0  0  0  0  0  0  0  0  0
   36.6130   34.0130   38.8140 H   0  0  0  0  0  0  0  0  0  0  0  0
  1  3  1  0  0  0  0
  1  2  1  0  0  0  0
  4  1  1  0  0  0  0
  5  4  1  0  0  0  0
  6  4  1  0  0  0  0
  7  4  1  6  0  0  0
  7 13  1  0  0  0  0
  7  8  1  0  0  0  0
  8 10  1  0  0  0  0
  8  9  1  0  0  0  0
 10 12  1  0  0  0  0
 10 11  1  0  0  0  0
 13 12  1  0  0  0  0
 14 13  1  0  0  0  0
 15 16  1  0  0  0  0
 15  1  1  0  0  0  0
 16 17  1  0  0  0  0
 17 18  2  0  0  0  0
 17 22  1  0  0  0  0
 18 23  1  0  0  0  0
 19 18  1  0  0  0  0
 20 19  2  0  0  0  0
 21 20  1  0  0  0  0
 21 16  2  0  0  0  0
 24 20  1  0  0  0  0
M  END
>  <minimizedAffinity>
-3.54151917

$$$$

 OpenBabel03242514583D

 24 25  0  0  1  0  0  0  0  0999 V2000
   37.5660   29.9270   41.8590 C   0  0  0  0  0  0  0  0  0  0  0  0
   38.4770   29.8330   41.1980 H   0  0  0  0  0  0  0  0  0  0  0  0
   37.8930   30.6990   42.6130 H   0  0  0  0  0  0  0  0  0  0  0  0
   36.4570   30.5340   41.0990 C   0  0  0  0  0  0  0  0  0  0  0  0
   35.7620   29.7010   40.7790 H   0  0  0  0  0  0  0  0  0  0  0  0
   35.8280   31.1490   41.8070 H   0  0  0  0  0  0  0  0  0  0  0  0
   36.8040   31.3500   39.9050 C   0  0  2  0  0  3  0  0  0  0  0  0
   36.4870   30.4920   38.6790 C   0  0  0  0  0  3  0  0  0  0  0  0
   36.1310   31.0820   37.8270 H   0  0  0  0  0  0  0  0  0  0  0  0
   37.8490   29.9260   38.3430 C   0  0  0  0  0  3  0  0  0  0  0  0
   37.8600   29.6170   37.2690 H   0  0  0  0  0  0  0  0  0  0  0  0
   38.6440   31.0380   38.4980 O   0  0  0  0  0  0  0  0  0  0  0  0
   38.2900   31.5320   39.7700 C   0  0  0  0  0  3  0  0  0  0  0  0
   38.8740   30.9320   40.4910 H   0  0  0  0  0  0  0  0  0  0  0  0
   37.2370   28.4330   42.7460 S   0  0  0  0  0  0  0  0  0  0  0  0
   37.0180   26.9970   41.7010 C   0  0  0  0  0  0  0  0  0  0  0  0
   37.1430   25.7660   42.3550 C   0  0  0  0  0  0  0  0  0  0  0  0
   36.9850   24.5980   41.5870 C   0  0  0  0  0  0  0  0  0  0  0  0
   36.7200   24.7290   40.2470 N   0  0  0  0  0  0  0  0  0  0  0  0
   36.6120   25.9390   39.6690 C   0  0  0  0  0  0  0  0  0  0  0  0
   36.7540   27.0640   40.3640 N   0  0  0  0  0  0  0  0  0  0  0  0
   37.3480   25.6510   43.3950 H   0  0  0  0  0  0  0  0  0  0  0  0
   37.0670   23.6080   42.0210 H   0  0  0  0  0  0  0  0  0  0  0  0
   36.4000   25.9470   38.6020 H   0  0  0  0  0  0  0  0  0  0  0  0
  1  3  1  0  0  0  0
  1 15  1  0  0  0  0
  2  1  1  0  0  0  0
  4  6  1  0  0  0  0
  4  1  1  0  0  0  0
  5  4  1  0  0  0  0
  7  4  1  1  0  0  0
  8  7  1  0  0  0  0
  9  8  1  0  0  0  0
 10 12  1  0  0  0  0
 10  8  1  0  0  0  0
 11 10  1  0  0  0  0
 12 13  1  0  0  0  0
 13  7  1  0  0  0  0
 13 14  1  0  0  0  0
 16 17  1  0  0  0  0
 16 15  1  0  0  0  0
 17 22  1  0  0  0  0
 18 23  1  0  0  0  0
 18 17  2  0  0  0  0
 19 18  1  0  0  0  0
 20 19  2  0  0  0  0
 20 21  1  0  0  0  0
 21 16  2  0  0  0  0
 24 20  1  0  0  0  0
M  END
>  <minimizedAffinity>
-3.50384641

$$$$

 OpenBabel03242514583D

 24 25  0  0  1  0  0  0  0  0999 V2000
   36.0880   28.5490   41.3130 C   0  0  0  0  0  0  0  0  0  0  0  0
   36.0260   28.1100   40.2740 H   0  0  0  0  0  0  0  0  0  0  0  0
   35.0040   28.5820   41.6260 H   0  0  0  0  0  0  0  0  0  0  0  0
   36.7530   27.5970   42.2210 C   0  0  0  0  0  0  0  0  0  0  0  0
   37.2210   28.1920   43.0610 H   0  0  0  0  0  0  0  0  0  0  0  0
   35.9630   26.9790   42.7400 H   0  0  0  0  0  0  0  0  0  0  0  0
   37.7870   26.6980   41.6410 C   0  0  2  0  0  3  0  0  0  0  0  0
   37.0400   25.5400   40.9780 C   0  0  0  0  0  3  0  0  0  0  0  0
   37.5420   25.1680   40.0780 H   0  0  0  0  0  0  0  0  0  0  0  0
   37.1160   24.4750   42.0510 C   0  0  0  0  0  3  0  0  0  0  0  0
   36.9780   23.4720   41.5780 H   0  0  0  0  0  0  0  0  0  0  0  0
   38.4230   24.6040   42.4590 O   0  0  0  0  0  0  0  0  0  0  0  0
   38.5650   25.9830   42.7110 C   0  0  0  0  0  3  0  0  0  0  0  0
   38.1620   26.1400   43.7270 H   0  0  0  0  0  0  0  0  0  0  0  0
   36.6770   30.2160   41.2900 S   0  0  0  0  0  0  0  0  0  0  0  0
   37.6530   30.6250   39.8460 C   0  0  0  0  0  0  0  0  0  0  0  0
   37.0010   31.4260   38.9010 C   0  0  0  0  0  0  0  0  0  0  0  0
   37.7130   31.7790   37.7410 C   0  0  0  0  0  0  0  0  0  0  0  0
   39.0000   31.3210   37.6000 N   0  0  0  0  0  0  0  0  0  0  0  0
   39.5770   30.5530   38.5420 C   0  0  0  0  0  0  0  0  0  0  0  0
   38.9340   30.2000   39.6510 N   0  0  0  0  0  0  0  0  0  0  0  0
   36.0020   31.7870   38.9990 H   0  0  0  0  0  0  0  0  0  0  0  0
   37.2780   32.3960   36.9620 H   0  0  0  0  0  0  0  0  0  0  0  0
   40.5990   30.2370   38.3460 H   0  0  0  0  0  0  0  0  0  0  0  0
  1  3  1  0  0  0  0
  1  4  1  0  0  0  0
  2  1  1  0  0  0  0
  4  6  1  0  0  0  0
  4  5  1  0  0  0  0
  7  4  1  1  0  0  0
  7 13  1  0  0  0  0
  8  7  1  0  0  0  0
  8 10  1  0  0  0  0
  9  8  1  0  0  0  0
 10 12  1  0  0  0  0
 11 10  1  0  0  0  0
 12 13  1  0  0  0  0
 13 14  1  0  0  0  0
 15  1  1  0  0  0  0
 16 15  1  0  0  0  0
 17 22  1  0  0  0  0
 17 16  2  0  0  0  0
 18 17  1  0  0  0  0
 19 18  2  0  0  0  0
 19 20  1  0  0  0  0
 20 21  2  0  0  0  0
 21 16  1  0  0  0  0
 23 18  1  0  0  0  0
 24 20  1  0  0  0  0
M  END
>  <minimizedAffinity>
-3.49871492

$$$$
