
 OpenBabel03252500143D

 37 40  0  0  1  0  0  0  0  0999 V2000
   45.5550   32.3640   40.3920 Cl  0  0  0  0  0  0  0  0  0  0  0  0
   46.8390   33.4920   40.0800 C   0  0  0  0  0  0  0  0  0  0  0  0
   47.3950   34.2300   41.0910 C   0  0  0  0  0  0  0  0  0  0  0  0
   48.4230   35.1410   40.8700 C   0  0  0  0  0  0  0  0  0  0  0  0
   48.8530   35.2590   39.5710 C   0  0  0  0  0  0  0  0  0  0  0  0
   48.3010   34.5190   38.5400 C   0  0  0  0  0  0  0  0  0  0  0  0
   47.3050   33.6460   38.7870 C   0  0  0  0  0  0  0  0  0  0  0  0
   48.8590   35.7180   41.6580 H   0  0  0  0  0  0  0  0  0  0  0  0
   49.6490   35.9600   39.3900 H   0  0  0  0  0  0  0  0  0  0  0  0
   48.6540   34.6280   37.5270 H   0  0  0  0  0  0  0  0  0  0  0  0
   46.8330   32.8570   44.4670 C   0  0  0  0  0  0  0  0  0  0  0  0
   45.9070   33.7740   45.0260 C   0  0  0  0  0  0  0  0  0  0  0  0
   45.4960   34.8440   44.2300 C   0  0  0  0  0  0  0  0  0  0  0  0
   46.0080   34.9440   42.9660 N   0  0  0  0  0  0  0  0  0  0  0  0
   46.8870   34.0560   42.4630 C   0  0  0  0  0  0  0  0  0  0  0  0
   47.2860   33.0300   43.2140 N   0  0  0  0  0  0  0  0  0  0  0  0
   47.1310   32.0360   45.1130 H   0  0  0  0  0  0  0  0  0  0  0  0
   45.4880   33.7240   46.0110 H   0  0  0  0  0  0  0  0  0  0  0  0
   44.5250   35.8770   44.7050 C   0  0  0  0  0  0  0  0  0  0  0  0
   44.9960   37.1300   44.4740 F   0  0  0  0  0  0  0  0  0  0  0  0
   43.3370   35.7020   44.0230 F   0  0  0  0  0  0  0  0  0  0  0  0
   44.3300   35.6470   46.0430 F   0  0  0  0  0  0  0  0  0  0  0  0
   46.7050   32.8540   37.7170 C   0  0  0  0  0  0  0  0  0  0  0  0
   45.5820   33.2600   36.9830 C   0  0  0  0  0  0  0  0  0  0  0  0
   45.2910   32.2710   36.0570 C   0  0  0  0  0  0  0  0  0  0  0  0
   46.2690   31.3140   36.2880 C   0  0  0  0  0  0  0  0  0  0  0  0
   47.0820   31.6730   37.2600 O   0  0  0  0  0  0  0  0  0  0  0  0
   45.0390   34.1870   37.1220 H   0  0  0  0  0  0  0  0  0  0  0  0
   44.5150   32.2300   35.3350 H   0  0  0  0  0  0  0  0  0  0  0  0
   46.4210   30.0420   35.5690 C   0  0  1  0  0  3  0  0  0  0  0  0
   45.5360   29.9560   34.3170 C   0  0  0  0  0  3  0  0  0  0  0  0
   45.6900   30.8300   33.6710 H   0  0  0  0  0  0  0  0  0  0  0  0
   46.2420   28.7650   33.6580 C   0  0  0  0  0  3  0  0  0  0  0  0
   45.9630   28.6460   32.5990 H   0  0  0  0  0  0  0  0  0  0  0  0
   47.5920   28.9580   33.8810 O   0  0  0  0  0  0  0  0  0  0  0  0
   47.7620   29.8360   34.9310 C   0  0  0  0  0  3  0  0  0  0  0  0
   48.0840   30.8040   34.4940 H   0  0  0  0  0  0  0  0  0  0  0  0
  2  1  1  0  0  0  0
  2  3  1  0  0  0  0
  3 15  1  0  0  0  0
  4  3  2  0  0  0  0
  4  8  1  0  0  0  0
  5  4  1  0  0  0  0
  6  7  1  0  0  0  0
  6  5  2  0  0  0  0
  7  2  2  0  0  0  0
  9  5  1  0  0  0  0
 10  6  1  0  0  0  0
 11 12  1  0  0  0  0
 11 17  1  0  0  0  0
 12 18  1  0  0  0  0
 13 19  1  0  0  0  0
 13 12  2  0  0  0  0
 14 13  1  0  0  0  0
 15 14  2  0  0  0  0
 15 16  1  0  0  0  0
 16 11  2  0  0  0  0
 19 22  1  0  0  0  0
 20 19  1  0  0  0  0
 21 19  1  0  0  0  0
 23  7  1  0  0  0  0
 24 28  1  0  0  0  0
 24 23  2  0  0  0  0
 25 26  2  0  0  0  0
 25 24  1  0  0  0  0
 26 27  1  0  0  0  0
 27 23  1  0  0  0  0
 29 25  1  0  0  0  0
 30 26  1  6  0  0  0
 31 30  1  0  0  0  0
 32 31  1  0  0  0  0
 33 35  1  0  0  0  0
 33 31  1  0  0  0  0
 34 33  1  0  0  0  0
 35 36  1  0  0  0  0
 36 30  1  0  0  0  0
 37 36  1  0  0  0  0
M  END
>  <minimizedAffinity>
-5.74274445

>  <minimizedRMSD>
0.425949544

$$$$
