
 OpenBabel03252509043D

 47 49  0  0  1  0  0  0  0  0999 V2000
   46.7120   34.3740   43.5030 N   0  0  0  0  0  0  0  0  0  0  0  0
   46.4600   34.9390   42.2340 C   0  0  0  0  0  0  0  0  0  0  0  0
   44.9940   34.9910   41.8410 C   0  0  0  0  0  0  0  0  0  0  0  0
   44.0470   35.2120   42.9920 C   0  0  0  0  0  0  0  0  0  0  0  0
   44.7960   35.4240   44.2950 C   0  0  0  0  0  0  0  0  0  0  0  0
   45.7000   34.1340   44.4070 C   0  0  2  0  0  0  0  0  0  0  0  0
   46.7960   36.0070   42.2680 H   0  0  0  0  0  0  0  0  0  0  0  0
   46.9900   34.4980   41.3800 H   0  0  0  0  0  0  0  0  0  0  0  0
   44.8960   35.7520   41.0530 H   0  0  0  0  0  0  0  0  0  0  0  0
   44.7500   34.0070   41.3780 H   0  0  0  0  0  0  0  0  0  0  0  0
   43.3870   36.0700   42.7570 H   0  0  0  0  0  0  0  0  0  0  0  0
   43.3660   34.3490   43.1590 H   0  0  0  0  0  0  0  0  0  0  0  0
   44.0860   35.3700   45.1270 H   0  0  0  0  0  0  0  0  0  0  0  0
   45.4470   36.3020   44.2690 H   0  0  0  0  0  0  0  0  0  0  0  0
   45.0090   33.2920   44.2000 H   0  0  0  0  0  0  0  0  0  0  0  0
   47.8810   33.5360   43.5440 C   0  0  0  0  0  0  0  0  0  0  0  0
   48.0600   33.2280   44.6040 H   0  0  0  0  0  0  0  0  0  0  0  0
   48.7550   34.1320   43.1930 H   0  0  0  0  0  0  0  0  0  0  0  0
   47.6430   32.3190   42.7070 C   0  0  0  0  0  0  0  0  0  0  0  0
   47.4630   31.4400   43.3220 H   0  0  0  0  0  0  0  0  0  0  0  0
   46.7600   32.4570   42.0530 H   0  0  0  0  0  0  0  0  0  0  0  0
   51.1930   32.2070   41.4600 C   0  0  0  0  0  0  0  0  0  0  0  0
   50.0610   32.4080   42.2830 C   0  0  0  0  0  0  0  0  0  0  0  0
   48.8170   32.0980   41.8210 C   0  0  0  0  0  0  0  0  0  0  0  0
   48.7230   31.6060   40.5780 N   0  0  0  0  0  0  0  0  0  0  0  0
   49.7810   31.4110   39.7900 C   0  0  0  0  0  0  0  0  0  0  0  0
   51.0200   31.7050   40.2140 N   0  0  0  0  0  0  0  0  0  0  0  0
   52.1810   32.4470   41.8110 H   0  0  0  0  0  0  0  0  0  0  0  0
   50.1820   32.8110   43.2900 H   0  0  0  0  0  0  0  0  0  0  0  0
   49.5970   31.0080   38.8040 H   0  0  0  0  0  0  0  0  0  0  0  0
   46.1210   34.2140   45.7150 O   0  0  0  0  0  0  0  0  0  0  0  0
   45.6020   31.6020   45.6070 O   0  0  0  0  0  0  0  0  0  0  0  0
   46.0200   32.7610   46.5360 P   0  0  2  0  0  0  0  0  0  0  0  0
   44.6940   32.9160   47.6170 O   0  0  0  0  0  0  0  0  0  0  0  0
   44.9650   33.4740   48.3930 H   0  0  0  0  0  0  0  0  0  0  0  0
   47.3520   32.3750   47.4380 O   0  0  0  0  0  0  0  0  0  0  0  0
   47.8140   31.1160   47.1110 C   0  0  0  0  0  0  0  0  0  0  0  0
   47.2130   30.6190   46.3120 H   0  0  0  0  0  0  0  0  0  0  0  0
   48.8490   31.2000   46.7280 H   0  0  0  0  0  0  0  0  0  0  0  0
   47.8130   30.1640   48.2810 C   0  0  1  0  0  3  0  0  0  0  0  0
   48.7610   29.0040   48.0580 C   0  0  0  0  0  3  0  0  0  0  0  0
   48.4610   28.1120   48.6390 H   0  0  0  0  0  0  0  0  0  0  0  0
   50.0620   29.5410   48.6480 C   0  0  0  0  0  3  0  0  0  0  0  0
   50.9150   29.3930   47.9390 H   0  0  0  0  0  0  0  0  0  0  0  0
   49.8380   30.8930   48.9010 O   0  0  0  0  0  0  0  0  0  0  0  0
   48.5450   30.8730   49.4290 C   0  0  0  0  0  3  0  0  0  0  0  0
   48.6010   30.1900   50.3200 H   0  0  0  0  0  0  0  0  0  0  0  0
  1 16  1  0  0  0  0
  1  6  1  0  0  0  0
  2  7  1  0  0  0  0
  2  1  1  0  0  0  0
  3  2  1  0  0  0  0
  3  4  1  0  0  0  0
  4 12  1  0  0  0  0
  4  5  1  0  0  0  0
  5  6  1  0  0  0  0
  5 13  1  0  0  0  0
  6 15  1  6  0  0  0
  6 31  1  0  0  0  0
  8  2  1  0  0  0  0
  9  3  1  0  0  0  0
 10  3  1  0  0  0  0
 11  4  1  0  0  0  0
 14  5  1  0  0  0  0
 16 17  1  0  0  0  0
 18 16  1  0  0  0  0
 19 20  1  0  0  0  0
 19 16  1  0  0  0  0
 21 19  1  0  0  0  0
 22 28  1  0  0  0  0
 22 23  1  0  0  0  0
 23 29  1  0  0  0  0
 24 23  2  0  0  0  0
 24 19  1  0  0  0  0
 25 24  1  0  0  0  0
 26 27  1  0  0  0  0
 26 25  2  0  0  0  0
 27 22  2  0  0  0  0
 30 26  1  0  0  0  0
 31 33  1  0  0  0  0
 33 32  2  6  0  0  0
 33 36  1  0  0  0  0
 33 34  1  0  0  0  0
 34 35  1  0  0  0  0
 37 36  1  0  0  0  0
 38 37  1  0  0  0  0
 39 37  1  0  0  0  0
 40 37  1  6  0  0  0
 40 46  1  0  0  0  0
 41 40  1  0  0  0  0
 41 42  1  0  0  0  0
 41 43  1  0  0  0  0
 43 45  1  0  0  0  0
 44 43  1  0  0  0  0
 45 46  1  0  0  0  0
 46 47  1  0  0  0  0
M  END
>  <minimizedAffinity>
-4.6777215

>  <minimizedRMSD>
3.0448606

$$$$
