
 OpenBabel03252503023D

 32 33  0  0  1  0  0  0  0  0999 V2000
   43.5300   33.1410   40.2120 S   0  0  0  0  0  0  0  0  0  0  0  0
   44.8750   33.0730   37.7860 C   0  0  0  0  0  0  0  0  0  0  0  0
   44.9890   33.2220   39.1520 C   0  0  0  0  0  0  0  0  0  0  0  0
   46.2210   33.4400   39.7590 C   0  0  0  0  0  0  0  0  0  0  0  0
   47.3180   33.4990   38.9410 N   0  0  0  0  0  0  0  0  0  0  0  0
   47.1670   33.3490   37.6080 C   0  0  0  0  0  0  0  0  0  0  0  0
   46.0030   33.1430   37.0320 N   0  0  0  0  0  0  0  0  0  0  0  0
   43.9100   32.9050   37.3330 H   0  0  0  0  0  0  0  0  0  0  0  0
   46.3690   33.5640   40.8310 H   0  0  0  0  0  0  0  0  0  0  0  0
   48.3070   33.3990   36.6410 C   0  0  1  0  0  3  0  0  0  0  0  0
   49.5410   32.7170   37.2000 C   0  0  0  0  0  3  0  0  0  0  0  0
   49.5120   32.8910   38.3140 H   0  0  0  0  0  0  0  0  0  0  0  0
   49.3010   31.2920   36.8370 C   0  0  0  0  0  3  0  0  0  0  0  0
   48.8560   30.7430   37.7060 H   0  0  0  0  0  0  0  0  0  0  0  0
   48.4140   31.2200   35.7880 O   0  0  0  0  0  0  0  0  0  0  0  0
   48.0240   32.4880   35.4450 C   0  0  0  0  0  3  0  0  0  0  0  0
   48.6920   32.8530   34.6340 H   0  0  0  0  0  0  0  0  0  0  0  0
   42.8820   34.7970   40.4830 C   0  0  0  0  0  0  0  0  0  0  0  0
   42.7440   35.0510   41.5440 H   0  0  0  0  0  0  0  0  0  0  0  0
   43.5920   35.5340   40.0520 H   0  0  0  0  0  0  0  0  0  0  0  0
   41.6660   34.9240   39.6950 N   0  0  0  0  0  0  0  0  0  0  0  0
   41.4500   34.0560   39.1340 H   0  0  0  0  0  0  0  0  0  0  0  0
   40.2680   35.1810   40.6670 S   0  0  0  0  0  0  0  0  0  0  0  0
   40.4260   34.5900   42.0250 O   0  0  0  0  0  0  0  0  0  0  0  0
   40.4620   35.0730   42.8830 H   0  0  0  0  0  0  0  0  0  0  0  0
   40.1130   36.6910   40.7610 O   0  0  0  0  0  0  0  0  0  0  0  0
   39.6080   37.2700   40.1340 H   0  0  0  0  0  0  0  0  0  0  0  0
   38.9200   34.5970   39.8840 O   0  0  0  0  0  0  0  0  0  0  0  0
   38.5580   33.3360   40.3480 C   0  0  0  0  0  0  0  0  0  0  0  0
   39.1140   32.5860   39.7610 H   0  0  0  0  0  0  0  0  0  0  0  0
   37.4650   33.1640   40.1450 H   0  0  0  0  0  0  0  0  0  0  0  0
   38.7960   33.2620   41.4430 H   0  0  0  0  0  0  0  0  0  0  0  0
  1 18  1  0  0  0  0
  2  3  1  0  0  0  0
  3  4  2  0  0  0  0
  3  1  1  0  0  0  0
  4  9  1  0  0  0  0
  5  4  1  0  0  0  0
  6  5  2  0  0  0  0
  7  6  1  0  0  0  0
  7  2  2  0  0  0  0
  8  2  1  0  0  0  0
 10 11  1  0  0  0  0
 10  6  1  1  0  0  0
 11 12  1  0  0  0  0
 13 11  1  0  0  0  0
 13 14  1  0  0  0  0
 15 13  1  0  0  0  0
 16 15  1  0  0  0  0
 16 10  1  0  0  0  0
 17 16  1  0  0  0  0
 18 19  1  0  0  0  0
 20 18  1  0  0  0  0
 21 18  1  0  0  0  0
 21 23  1  0  0  0  0
 22 21  1  0  0  0  0
 23 26  1  0  0  0  0
 23 24  1  0  0  0  0
 24 25  1  0  0  0  0
 27 26  1  0  0  0  0
 28 29  1  0  0  0  0
 28 23  1  0  0  0  0
 29 32  1  0  0  0  0
 30 29  1  0  0  0  0
 31 29  1  0  0  0  0
M  END
>  <minimizedAffinity>
-3.88390708

>  <minimizedRMSD>
8.30673885

$$$$
