
 OpenBabel03242521173D

 40 42  0  0  0  0  0  0  0  0999 V2000
   46.4690   32.6690   46.5230 C   0  0  0  0  0  0  0  0  0  0  0  0
   47.3910   33.1270   46.9700 H   0  0  0  0  0  0  0  0  0  0  0  0
   46.8160   31.7820   45.9700 H   0  0  0  0  0  0  0  0  0  0  0  0
   44.5750   35.5010   44.9720 C   0  0  0  0  0  0  0  0  0  0  0  0
   45.1560   35.5220   43.6860 C   0  0  0  0  0  0  0  0  0  0  0  0
   46.1390   34.5840   43.4350 C   0  0  0  0  0  0  0  0  0  0  0  0
   46.5060   33.6880   44.4250 N   0  0  0  0  0  0  0  0  0  0  0  0
   45.9070   33.7260   45.6360 C   0  0  0  0  0  0  0  0  0  0  0  0
   44.9400   34.6250   45.9280 N   0  0  0  0  0  0  0  0  0  0  0  0
   43.8020   36.2200   45.2100 H   0  0  0  0  0  0  0  0  0  0  0  0
   44.8510   36.2240   42.9490 H   0  0  0  0  0  0  0  0  0  0  0  0
   46.7450   34.5780   42.1460 N   0  0  0  0  0  0  0  0  0  0  0  0
   47.9380   35.1990   41.9970 C   0  0  0  0  0  0  0  0  0  0  0  0
   48.5370   35.1980   40.7440 C   0  0  0  0  0  0  0  0  0  0  0  0
   47.9020   34.5750   39.7160 C   0  0  0  0  0  0  0  0  0  0  0  0
   48.4740   34.5900   38.5780 O   0  0  0  0  0  0  0  0  0  0  0  0
   46.7220   33.9600   39.8580 N   0  0  0  0  0  0  0  0  0  0  0  0
   46.1760   33.9860   41.0950 C   0  0  0  0  0  0  0  0  0  0  0  0
   45.0740   33.4370   41.3250 O   0  0  0  0  0  0  0  0  0  0  0  0
   48.4510   35.6970   42.8130 H   0  0  0  0  0  0  0  0  0  0  0  0
   49.4850   35.6820   40.5910 H   0  0  0  0  0  0  0  0  0  0  0  0
   46.2220   33.4790   39.0850 H   0  0  0  0  0  0  0  0  0  0  0  0
   45.5080   32.3450   47.6470 C   0  0  0  0  0  0  0  0  0  0  0  0
   46.0300   32.2880   48.6010 H   0  0  0  0  0  0  0  0  0  0  0  0
   44.7040   33.1370   47.6670 H   0  0  0  0  0  0  0  0  0  0  0  0
   45.5200   29.9100   47.5400 C   0  0  0  0  0  0  0  0  0  0  0  0
   46.7210   29.9660   47.8720 O   0  0  0  0  0  0  0  0  0  0  0  0
   44.8340   31.1090   47.3330 N   0  0  0  0  0  0  0  0  0  0  0  0
   43.8610   31.0870   46.9600 H   0  0  0  0  0  0  0  0  0  0  0  0
   44.6380   29.3700   44.7640 Cl  0  0  0  0  0  0  0  0  0  0  0  0
   44.4700   28.2520   46.1140 C   0  0  0  0  0  0  0  0  0  0  0  0
   44.9140   28.5900   47.3910 C   0  0  0  0  0  0  0  0  0  0  0  0
   44.7620   27.6850   48.4200 C   0  0  0  0  0  0  0  0  0  0  0  0
   45.1110   27.9600   49.4050 H   0  0  0  0  0  0  0  0  0  0  0  0
   44.1740   26.4740   48.1380 C   0  0  0  0  0  0  0  0  0  0  0  0
   44.0740   25.7860   48.9850 H   0  0  0  0  0  0  0  0  0  0  0  0
   43.7140   26.0800   46.8980 C   0  0  0  0  0  0  0  0  0  0  0  0
   43.2550   25.1160   46.7200 H   0  0  0  0  0  0  0  0  0  0  0  0
   43.8840   27.0230   45.8800 C   0  0  0  0  0  0  0  0  0  0  0  0
   43.3320   26.6250   44.2550 Cl  0  0  0  0  0  0  0  0  0  0  0  0
  1  2  1  0  0  0  0
  1 23  1  0  0  0  0
  3  1  1  0  0  0  0
  4 10  1  0  0  0  0
  4  9  1  0  0  0  0
  5  4  2  0  0  0  0
  6  5  1  0  0  0  0
  6  7  2  0  0  0  0
  7  8  1  0  0  0  0
  8  9  2  0  0  0  0
  8  1  1  0  0  0  0
 11  5  1  0  0  0  0
 12  6  1  0  0  0  0
 13 12  1  0  0  0  0
 13 20  1  0  0  0  0
 14 13  2  0  0  0  0
 15 17  1  0  0  0  0
 15 14  1  0  0  0  0
 16 15  2  0  0  0  0
 17 18  1  0  0  0  0
 18 19  2  0  0  0  0
 18 12  1  0  0  0  0
 21 14  1  0  0  0  0
 22 17  1  0  0  0  0
 23 25  1  0  0  0  0
 23 24  1  0  0  0  0
 26 27  2  0  0  0  0
 28 26  1  0  0  0  0
 28 23  1  0  0  0  0
 29 28  1  0  0  0  0
 30 31  1  0  0  0  0
 31 32  1  0  0  0  0
 32 26  1  0  0  0  0
 32 33  2  0  0  0  0
 33 34  1  0  0  0  0
 35 33  1  0  0  0  0
 35 36  1  0  0  0  0
 37 35  2  0  0  0  0
 38 37  1  0  0  0  0
 39 31  2  0  0  0  0
 39 37  1  0  0  0  0
 40 39  1  0  0  0  0
M  END
>  <minimizedAffinity>
-6.54920101

>  <minimizedRMSD>
1.99742591

$$$$
