
 OpenBabel03242518163D

 34 36  0  0  0  0  0  0  0  0999 V2000
   36.7030   30.7420   39.8040 C   0  0  0  0  0  0  0  0  0  0  0  0
   35.6060   29.8610   39.9550 C   0  0  0  0  0  0  0  0  0  0  0  0
   35.6000   28.8470   40.8430 C   0  0  0  0  0  0  0  0  0  0  0  0
   36.7800   28.7050   41.6410 C   0  0  0  0  0  0  0  0  0  0  0  0
   37.8720   30.0290   41.0970 S   0  0  0  0  0  0  0  0  0  0  0  0
   34.8320   30.1200   39.2850 H   0  0  0  0  0  0  0  0  0  0  0  0
   34.7610   28.1800   40.9520 H   0  0  0  0  0  0  0  0  0  0  0  0
   37.0360   31.8730   39.0200 C   0  0  0  0  0  0  0  0  0  0  0  0
   38.0060   31.6380   38.4810 H   0  0  0  0  0  0  0  0  0  0  0  0
   36.3090   31.9330   38.1610 H   0  0  0  0  0  0  0  0  0  0  0  0
   37.1550   33.1690   39.7130 C   0  0  0  0  0  0  0  0  0  0  0  0
   36.6660   33.1320   40.7210 H   0  0  0  0  0  0  0  0  0  0  0  0
   36.5740   33.9410   39.1560 H   0  0  0  0  0  0  0  0  0  0  0  0
   38.5470   33.5930   39.7850 C   0  0  0  0  0  0  0  0  0  0  0  0
   38.9010   34.7410   40.4590 C   0  0  0  0  0  0  0  0  0  0  0  0
   40.2590   35.0930   40.4880 C   0  0  0  0  0  0  0  0  0  0  0  0
   41.1420   34.2740   39.8480 N   0  0  0  0  0  0  0  0  0  0  0  0
   40.7410   33.1620   39.2030 C   0  0  0  0  0  0  0  0  0  0  0  0
   39.4740   32.8380   39.1790 N   0  0  0  0  0  0  0  0  0  0  0  0
   38.1950   35.3810   40.9610 H   0  0  0  0  0  0  0  0  0  0  0  0
   40.6370   35.9740   40.9900 H   0  0  0  0  0  0  0  0  0  0  0  0
   41.5470   32.6080   38.7410 H   0  0  0  0  0  0  0  0  0  0  0  0
   37.0050   27.8150   42.5540 O   0  0  0  0  0  0  0  0  0  0  0  0
   39.9340   27.9220   43.2880 Cl  0  0  0  0  0  0  0  0  0  0  0  0
   39.0900   26.4470   42.8000 C   0  0  0  0  0  0  0  0  0  0  0  0
   37.7430   26.6620   42.5130 C   0  0  0  0  0  0  0  0  0  0  0  0
   36.9840   25.5780   42.1200 C   0  0  0  0  0  0  0  0  0  0  0  0
   35.9150   25.5950   41.8630 H   0  0  0  0  0  0  0  0  0  0  0  0
   37.5150   24.2960   42.0030 C   0  0  0  0  0  0  0  0  0  0  0  0
   36.9510   23.4310   41.7000 H   0  0  0  0  0  0  0  0  0  0  0  0
   38.8660   24.1300   42.3010 C   0  0  0  0  0  0  0  0  0  0  0  0
   39.3440   23.1560   42.2320 H   0  0  0  0  0  0  0  0  0  0  0  0
   39.6300   25.1990   42.6920 C   0  0  0  0  0  0  0  0  0  0  0  0
   41.3320   25.0690   43.0830 Cl  0  0  0  0  0  0  0  0  0  0  0  0
  1  2  2  0  0  0  0
  1  5  1  0  0  0  0
  2  3  1  0  0  0  0
  3  7  1  0  0  0  0
  3  4  2  0  0  0  0
  4 23  1  0  0  0  0
  5  4  1  0  0  0  0
  6  2  1  0  0  0  0
  8 11  1  0  0  0  0
  8  1  1  0  0  0  0
  9  8  1  0  0  0  0
 10  8  1  0  0  0  0
 11 14  1  0  0  0  0
 11 12  1  0  0  0  0
 13 11  1  0  0  0  0
 14 15  1  0  0  0  0
 15 16  2  0  0  0  0
 15 20  1  0  0  0  0
 16 21  1  0  0  0  0
 17 16  1  0  0  0  0
 18 17  2  0  0  0  0
 19 18  1  0  0  0  0
 19 14  2  0  0  0  0
 22 18  1  0  0  0  0
 25 24  1  0  0  0  0
 26 23  1  0  0  0  0
 26 25  2  0  0  0  0
 27 26  1  0  0  0  0
 28 27  1  0  0  0  0
 29 27  2  0  0  0  0
 29 31  1  0  0  0  0
 30 29  1  0  0  0  0
 31 33  2  0  0  0  0
 32 31  1  0  0  0  0
 33 25  1  0  0  0  0
 33 34  1  0  0  0  0
M  END
>  <minimizedAffinity>
-5.87837839

$$$$

 OpenBabel03242518163D

 34 36  0  0  0  0  0  0  0  0999 V2000
   36.5560   28.7510   41.6540 C   0  0  0  0  0  0  0  0  0  0  0  0
   35.6750   29.0010   40.5760 C   0  0  0  0  0  0  0  0  0  0  0  0
   35.8940   29.9660   39.6610 C   0  0  0  0  0  0  0  0  0  0  0  0
   37.0850   30.7390   39.8380 C   0  0  0  0  0  0  0  0  0  0  0  0
   37.8640   30.0640   41.3140 S   0  0  0  0  0  0  0  0  0  0  0  0
   34.8560   28.3350   40.6090 H   0  0  0  0  0  0  0  0  0  0  0  0
   35.2170   30.1510   38.8420 H   0  0  0  0  0  0  0  0  0  0  0  0
   36.6480   27.8520   42.7440 C   0  0  0  0  0  0  0  0  0  0  0  0
   35.7280   28.0070   43.3890 H   0  0  0  0  0  0  0  0  0  0  0  0
   36.4780   26.8080   42.3550 H   0  0  0  0  0  0  0  0  0  0  0  0
   37.8590   27.9210   43.5820 C   0  0  0  0  0  0  0  0  0  0  0  0
   37.5920   28.0570   44.6620 H   0  0  0  0  0  0  0  0  0  0  0  0
   38.4350   28.8400   43.3240 H   0  0  0  0  0  0  0  0  0  0  0  0
   38.7090   26.7590   43.3600 C   0  0  0  0  0  0  0  0  0  0  0  0
   39.9840   26.7080   43.8810 C   0  0  0  0  0  0  0  0  0  0  0  0
   40.7510   25.5600   43.6290 C   0  0  0  0  0  0  0  0  0  0  0  0
   40.1830   24.5670   42.8850 N   0  0  0  0  0  0  0  0  0  0  0  0
   38.9320   24.6700   42.3990 C   0  0  0  0  0  0  0  0  0  0  0  0
   38.2210   25.7420   42.6370 N   0  0  0  0  0  0  0  0  0  0  0  0
   40.4220   27.4980   44.4680 H   0  0  0  0  0  0  0  0  0  0  0  0
   41.7610   25.4240   43.9930 H   0  0  0  0  0  0  0  0  0  0  0  0
   38.6110   23.8090   41.8280 H   0  0  0  0  0  0  0  0  0  0  0  0
   37.5050   31.7110   39.0930 O   0  0  0  0  0  0  0  0  0  0  0  0
   40.3820   31.2260   38.3040 Cl  0  0  0  0  0  0  0  0  0  0  0  0
   39.8040   32.7080   39.0760 C   0  0  0  0  0  0  0  0  0  0  0  0
   38.4360   32.6850   39.3400 C   0  0  0  0  0  0  0  0  0  0  0  0
   37.8750   33.7930   39.9440 C   0  0  0  0  0  0  0  0  0  0  0  0
   36.8160   33.9180   40.2110 H   0  0  0  0  0  0  0  0  0  0  0  0
   38.6230   34.9140   40.2920 C   0  0  0  0  0  0  0  0  0  0  0  0
   38.2160   35.7930   40.7630 H   0  0  0  0  0  0  0  0  0  0  0  0
   39.9860   34.8910   40.0090 C   0  0  0  0  0  0  0  0  0  0  0  0
   40.6290   35.7340   40.2540 H   0  0  0  0  0  0  0  0  0  0  0  0
   40.5550   33.7970   39.4100 C   0  0  0  0  0  0  0  0  0  0  0  0
   42.2600   33.6940   39.0230 Cl  0  0  0  0  0  0  0  0  0  0  0  0
  1  8  1  0  0  0  0
  2  6  1  0  0  0  0
  2  1  2  0  0  0  0
  3  4  2  0  0  0  0
  3  2  1  0  0  0  0
  4  5  1  0  0  0  0
  5  1  1  0  0  0  0
  7  3  1  0  0  0  0
  8  9  1  0  0  0  0
  8 11  1  0  0  0  0
 10  8  1  0  0  0  0
 11 12  1  0  0  0  0
 13 11  1  0  0  0  0
 14 11  1  0  0  0  0
 14 15  1  0  0  0  0
 15 20  1  0  0  0  0
 16 15  2  0  0  0  0
 16 21  1  0  0  0  0
 17 16  1  0  0  0  0
 18 19  1  0  0  0  0
 18 17  2  0  0  0  0
 19 14  2  0  0  0  0
 22 18  1  0  0  0  0
 23 26  1  0  0  0  0
 23  4  1  0  0  0  0
 24 25  1  0  0  0  0
 25 26  2  0  0  0  0
 25 33  1  0  0  0  0
 26 27  1  0  0  0  0
 27 28  1  0  0  0  0
 27 29  2  0  0  0  0
 29 30  1  0  0  0  0
 31 32  1  0  0  0  0
 31 29  1  0  0  0  0
 33 31  2  0  0  0  0
 34 33  1  0  0  0  0
M  END
>  <minimizedAffinity>
-5.71208096

$$$$

 OpenBabel03242518163D

 34 36  0  0  0  0  0  0  0  0999 V2000
   37.7920   32.3600   40.0420 C   0  0  0  0  0  0  0  0  0  0  0  0
   37.5540   33.7350   39.8120 C   0  0  0  0  0  0  0  0  0  0  0  0
   38.5030   34.6790   39.9720 C   0  0  0  0  0  0  0  0  0  0  0  0
   39.7880   34.2110   40.3930 C   0  0  0  0  0  0  0  0  0  0  0  0
   39.6050   32.4270   40.5510 S   0  0  0  0  0  0  0  0  0  0  0  0
   36.5540   33.8890   39.5100 H   0  0  0  0  0  0  0  0  0  0  0  0
   38.3130   35.7250   39.7950 H   0  0  0  0  0  0  0  0  0  0  0  0
   37.0700   31.1450   39.9640 C   0  0  0  0  0  0  0  0  0  0  0  0
   36.3760   31.2210   39.0700 H   0  0  0  0  0  0  0  0  0  0  0  0
   37.7800   30.3350   39.6300 H   0  0  0  0  0  0  0  0  0  0  0  0
   36.3050   30.7300   41.1530 C   0  0  0  0  0  0  0  0  0  0  0  0
   35.2220   30.5840   40.9030 H   0  0  0  0  0  0  0  0  0  0  0  0
   36.3030   31.5590   41.9000 H   0  0  0  0  0  0  0  0  0  0  0  0
   36.8990   29.5500   41.7660 C   0  0  0  0  0  0  0  0  0  0  0  0
   36.3600   28.2990   41.5580 C   0  0  0  0  0  0  0  0  0  0  0  0
   36.9800   27.2050   42.1800 C   0  0  0  0  0  0  0  0  0  0  0  0
   38.0780   27.4500   42.9510 N   0  0  0  0  0  0  0  0  0  0  0  0
   38.5630   28.6940   43.1210 C   0  0  0  0  0  0  0  0  0  0  0  0
   37.9810   29.7110   42.5390 N   0  0  0  0  0  0  0  0  0  0  0  0
   35.4910   28.1170   40.9470 H   0  0  0  0  0  0  0  0  0  0  0  0
   36.6330   26.1840   42.0780 H   0  0  0  0  0  0  0  0  0  0  0  0
   39.4380   28.7410   43.7570 H   0  0  0  0  0  0  0  0  0  0  0  0
   40.8480   34.9220   40.6100 O   0  0  0  0  0  0  0  0  0  0  0  0
   41.7780   33.9690   37.8970 Cl  0  0  0  0  0  0  0  0  0  0  0  0
   42.8450   34.1770   39.2920 C   0  0  0  0  0  0  0  0  0  0  0  0
   42.1730   34.6270   40.4270 C   0  0  0  0  0  0  0  0  0  0  0  0
   42.9080   34.8240   41.5780 C   0  0  0  0  0  0  0  0  0  0  0  0
   42.5170   35.1740   42.5440 H   0  0  0  0  0  0  0  0  0  0  0  0
   44.2790   34.5910   41.6390 C   0  0  0  0  0  0  0  0  0  0  0  0
   44.8810   34.7350   42.5200 H   0  0  0  0  0  0  0  0  0  0  0  0
   44.9070   34.1420   40.4800 C   0  0  0  0  0  0  0  0  0  0  0  0
   45.9760   33.9410   40.4570 H   0  0  0  0  0  0  0  0  0  0  0  0
   44.1880   33.9420   39.3300 C   0  0  0  0  0  0  0  0  0  0  0  0
   44.9060   33.3800   37.8350 Cl  0  0  0  0  0  0  0  0  0  0  0  0
  1  5  1  0  0  0  0
  2  3  1  0  0  0  0
  2  1  2  0  0  0  0
  3  4  2  0  0  0  0
  4  5  1  0  0  0  0
  4 23  1  0  0  0  0
  6  2  1  0  0  0  0
  7  3  1  0  0  0  0
  8  1  1  0  0  0  0
  8 11  1  0  0  0  0
  9  8  1  0  0  0  0
 10  8  1  0  0  0  0
 11 14  1  0  0  0  0
 11 13  1  0  0  0  0
 12 11  1  0  0  0  0
 14 19  1  0  0  0  0
 15 14  2  0  0  0  0
 15 16  1  0  0  0  0
 16 17  2  0  0  0  0
 17 18  1  0  0  0  0
 18 22  1  0  0  0  0
 19 18  2  0  0  0  0
 20 15  1  0  0  0  0
 21 16  1  0  0  0  0
 24 25  1  0  0  0  0
 25 33  2  0  0  0  0
 25 26  1  0  0  0  0
 26 23  1  0  0  0  0
 26 27  2  0  0  0  0
 27 29  1  0  0  0  0
 27 28  1  0  0  0  0
 29 30  1  0  0  0  0
 31 29  2  0  0  0  0
 32 31  1  0  0  0  0
 33 31  1  0  0  0  0
 34 33  1  0  0  0  0
M  END
>  <minimizedAffinity>
-5.53917122

$$$$

 OpenBabel03242518163D

 34 36  0  0  0  0  0  0  0  0999 V2000
   38.5880   32.0650   40.9860 C   0  0  0  0  0  0  0  0  0  0  0  0
   39.4330   31.4090   41.9110 C   0  0  0  0  0  0  0  0  0  0  0  0
   39.1140   30.2320   42.4860 C   0  0  0  0  0  0  0  0  0  0  0  0
   37.8550   29.6700   42.1060 C   0  0  0  0  0  0  0  0  0  0  0  0
   37.1560   30.8430   40.9320 S   0  0  0  0  0  0  0  0  0  0  0  0
   40.3130   31.9710   42.0680 H   0  0  0  0  0  0  0  0  0  0  0  0
   39.7640   29.7390   43.1910 H   0  0  0  0  0  0  0  0  0  0  0  0
   38.6060   33.2480   40.2080 C   0  0  0  0  0  0  0  0  0  0  0  0
   38.4650   32.9430   39.1250 H   0  0  0  0  0  0  0  0  0  0  0  0
   37.6530   33.8150   40.4090 H   0  0  0  0  0  0  0  0  0  0  0  0
   39.7850   34.1230   40.3280 C   0  0  0  0  0  0  0  0  0  0  0  0
   40.2840   33.9910   41.3230 H   0  0  0  0  0  0  0  0  0  0  0  0
   39.4570   35.1900   40.3270 H   0  0  0  0  0  0  0  0  0  0  0  0
   40.7010   33.9160   39.2150 C   0  0  0  0  0  0  0  0  0  0  0  0
   41.7170   34.8100   38.9600 C   0  0  0  0  0  0  0  0  0  0  0  0
   42.5630   34.5510   37.8700 C   0  0  0  0  0  0  0  0  0  0  0  0
   42.3240   33.4280   37.1340 N   0  0  0  0  0  0  0  0  0  0  0  0
   41.3150   32.5870   37.4270 C   0  0  0  0  0  0  0  0  0  0  0  0
   40.5300   32.8330   38.4440 N   0  0  0  0  0  0  0  0  0  0  0  0
   41.8960   35.6950   39.5480 H   0  0  0  0  0  0  0  0  0  0  0  0
   43.3880   35.1930   37.5880 H   0  0  0  0  0  0  0  0  0  0  0  0
   41.2440   31.7380   36.7600 H   0  0  0  0  0  0  0  0  0  0  0  0
   37.3370   28.5580   42.5200 O   0  0  0  0  0  0  0  0  0  0  0  0
   39.3620   26.9920   44.1280 Cl  0  0  0  0  0  0  0  0  0  0  0  0
   38.4850   26.3410   42.7370 C   0  0  0  0  0  0  0  0  0  0  0  0
   37.6080   27.2620   42.1680 C   0  0  0  0  0  0  0  0  0  0  0  0
   36.8700   26.8610   41.0720 C   0  0  0  0  0  0  0  0  0  0  0  0
   36.1420   27.4750   40.5220 H   0  0  0  0  0  0  0  0  0  0  0  0
   36.9730   25.5840   40.5280 C   0  0  0  0  0  0  0  0  0  0  0  0
   36.4110   25.2410   39.6760 H   0  0  0  0  0  0  0  0  0  0  0  0
   37.8620   24.6980   41.1310 C   0  0  0  0  0  0  0  0  0  0  0  0
   37.9910   23.6850   40.7570 H   0  0  0  0  0  0  0  0  0  0  0  0
   38.6020   25.0840   42.2190 C   0  0  0  0  0  0  0  0  0  0  0  0
   39.7390   24.0280   43.0300 Cl  0  0  0  0  0  0  0  0  0  0  0  0
  1  2  2  0  0  0  0
  2  6  1  0  0  0  0
  2  3  1  0  0  0  0
  3  7  1  0  0  0  0
  4  3  2  0  0  0  0
  4 23  1  0  0  0  0
  5  1  1  0  0  0  0
  5  4  1  0  0  0  0
  8 11  1  0  0  0  0
  8 10  1  0  0  0  0
  8  1  1  0  0  0  0
  9  8  1  0  0  0  0
 11 12  1  0  0  0  0
 13 11  1  0  0  0  0
 14 11  1  0  0  0  0
 15 14  1  0  0  0  0
 15 20  1  0  0  0  0
 16 15  2  0  0  0  0
 17 18  2  0  0  0  0
 17 16  1  0  0  0  0
 18 19  1  0  0  0  0
 19 14  2  0  0  0  0
 21 16  1  0  0  0  0
 22 18  1  0  0  0  0
 25 24  1  0  0  0  0
 26 23  1  0  0  0  0
 26 25  2  0  0  0  0
 27 26  1  0  0  0  0
 28 27  1  0  0  0  0
 29 27  2  0  0  0  0
 29 31  1  0  0  0  0
 30 29  1  0  0  0  0
 31 33  2  0  0  0  0
 32 31  1  0  0  0  0
 33 25  1  0  0  0  0
 33 34  1  0  0  0  0
M  END
>  <minimizedAffinity>
-5.51714945

$$$$

 OpenBabel03242518163D

 34 36  0  0  0  0  0  0  0  0999 V2000
   36.7790   30.9120   40.6690 C   0  0  0  0  0  0  0  0  0  0  0  0
   35.8010   29.9520   40.3170 C   0  0  0  0  0  0  0  0  0  0  0  0
   35.7310   28.7350   40.8910 C   0  0  0  0  0  0  0  0  0  0  0  0
   36.7120   28.4580   41.8950 C   0  0  0  0  0  0  0  0  0  0  0  0
   37.7150   29.9500   41.9910 S   0  0  0  0  0  0  0  0  0  0  0  0
   35.1680   30.3330   39.5620 H   0  0  0  0  0  0  0  0  0  0  0  0
   34.9830   28.0090   40.6170 H   0  0  0  0  0  0  0  0  0  0  0  0
   37.1270   32.2350   40.3030 C   0  0  0  0  0  0  0  0  0  0  0  0
   36.1670   32.7750   40.0330 H   0  0  0  0  0  0  0  0  0  0  0  0
   37.4420   32.7860   41.2340 H   0  0  0  0  0  0  0  0  0  0  0  0
   38.1140   32.4040   39.2210 C   0  0  0  0  0  0  0  0  0  0  0  0
   37.6650   32.9510   38.3510 H   0  0  0  0  0  0  0  0  0  0  0  0
   38.3830   31.4040   38.8060 H   0  0  0  0  0  0  0  0  0  0  0  0
   39.3230   33.0450   39.7170 C   0  0  0  0  0  0  0  0  0  0  0  0
   40.4640   32.3100   39.9580 C   0  0  0  0  0  0  0  0  0  0  0  0
   41.5950   32.9900   40.4370 C   0  0  0  0  0  0  0  0  0  0  0  0
   41.4910   34.3350   40.6340 N   0  0  0  0  0  0  0  0  0  0  0  0
   40.3500   35.0050   40.3820 C   0  0  0  0  0  0  0  0  0  0  0  0
   39.2990   34.3670   39.9360 N   0  0  0  0  0  0  0  0  0  0  0  0
   40.5340   31.2470   39.7990 H   0  0  0  0  0  0  0  0  0  0  0  0
   42.5360   32.5030   40.6560 H   0  0  0  0  0  0  0  0  0  0  0  0
   40.4110   36.0670   40.5830 H   0  0  0  0  0  0  0  0  0  0  0  0
   36.8430   27.3680   42.5820 O   0  0  0  0  0  0  0  0  0  0  0  0
   36.4670   25.1570   40.5570 Cl  0  0  0  0  0  0  0  0  0  0  0  0
   37.8380   25.2570   41.6690 C   0  0  0  0  0  0  0  0  0  0  0  0
   37.7800   26.3720   42.5030 C   0  0  0  0  0  0  0  0  0  0  0  0
   38.8010   26.5510   43.4150 C   0  0  0  0  0  0  0  0  0  0  0  0
   38.8890   27.3790   44.1340 H   0  0  0  0  0  0  0  0  0  0  0  0
   39.8700   25.6660   43.5250 C   0  0  0  0  0  0  0  0  0  0  0  0
   40.6810   25.7780   44.2240 H   0  0  0  0  0  0  0  0  0  0  0  0
   39.8840   24.5670   42.6700 C   0  0  0  0  0  0  0  0  0  0  0  0
   40.6900   23.8370   42.7010 H   0  0  0  0  0  0  0  0  0  0  0  0
   38.8760   24.3770   41.7600 C   0  0  0  0  0  0  0  0  0  0  0  0
   38.8250   23.0210   40.6530 Cl  0  0  0  0  0  0  0  0  0  0  0  0
  1  5  1  0  0  0  0
  2  1  2  0  0  0  0
  2  3  1  0  0  0  0
  3  4  2  0  0  0  0
  4  5  1  0  0  0  0
  4 23  1  0  0  0  0
  6  2  1  0  0  0  0
  7  3  1  0  0  0  0
  8  1  1  0  0  0  0
  8 10  1  0  0  0  0
  9  8  1  0  0  0  0
 11 14  1  0  0  0  0
 11  8  1  0  0  0  0
 12 11  1  0  0  0  0
 13 11  1  0  0  0  0
 14 19  2  0  0  0  0
 14 15  1  0  0  0  0
 15 16  2  0  0  0  0
 16 17  1  0  0  0  0
 16 21  1  0  0  0  0
 18 22  1  0  0  0  0
 18 17  2  0  0  0  0
 19 18  1  0  0  0  0
 20 15  1  0  0  0  0
 24 25  1  0  0  0  0
 25 33  2  0  0  0  0
 25 26  1  0  0  0  0
 26 23  1  0  0  0  0
 26 27  2  0  0  0  0
 27 29  1  0  0  0  0
 27 28  1  0  0  0  0
 29 30  1  0  0  0  0
 31 32  1  0  0  0  0
 31 29  2  0  0  0  0
 33 31  1  0  0  0  0
 34 33  1  0  0  0  0
M  END
>  <minimizedAffinity>
-5.45837545

$$$$

 OpenBabel03242518163D

 34 36  0  0  0  0  0  0  0  0999 V2000
   37.5820   32.1180   40.0500 C   0  0  0  0  0  0  0  0  0  0  0  0
   37.4560   33.5120   39.8430 C   0  0  0  0  0  0  0  0  0  0  0  0
   38.4870   34.3690   39.9890 C   0  0  0  0  0  0  0  0  0  0  0  0
   39.7380   33.7860   40.3690 C   0  0  0  0  0  0  0  0  0  0  0  0
   39.4060   32.0220   40.5100 S   0  0  0  0  0  0  0  0  0  0  0  0
   36.4650   33.7550   39.5700 H   0  0  0  0  0  0  0  0  0  0  0  0
   38.3830   35.4300   39.8300 H   0  0  0  0  0  0  0  0  0  0  0  0
   36.7560   30.9700   39.9760 C   0  0  0  0  0  0  0  0  0  0  0  0
   35.9380   31.1900   39.2210 H   0  0  0  0  0  0  0  0  0  0  0  0
   37.3330   30.1550   39.4520 H   0  0  0  0  0  0  0  0  0  0  0  0
   36.1570   30.4820   41.2300 C   0  0  0  0  0  0  0  0  0  0  0  0
   35.0480   30.3510   41.1220 H   0  0  0  0  0  0  0  0  0  0  0  0
   36.2640   31.2620   42.0200 H   0  0  0  0  0  0  0  0  0  0  0  0
   36.8190   29.2650   41.6820 C   0  0  0  0  0  0  0  0  0  0  0  0
   37.6290   29.2750   42.7970 C   0  0  0  0  0  0  0  0  0  0  0  0
   38.2380   28.0690   43.1760 C   0  0  0  0  0  0  0  0  0  0  0  0
   37.9870   26.9640   42.4170 N   0  0  0  0  0  0  0  0  0  0  0  0
   37.1860   27.0110   41.3360 C   0  0  0  0  0  0  0  0  0  0  0  0
   36.6210   28.1380   40.9860 N   0  0  0  0  0  0  0  0  0  0  0  0
   37.8200   30.1540   43.3890 H   0  0  0  0  0  0  0  0  0  0  0  0
   38.8900   27.9730   44.0350 H   0  0  0  0  0  0  0  0  0  0  0  0
   37.0760   26.0610   40.8290 H   0  0  0  0  0  0  0  0  0  0  0  0
   40.8600   34.4010   40.5650 O   0  0  0  0  0  0  0  0  0  0  0  0
   43.3290   33.8200   42.2080 Cl  0  0  0  0  0  0  0  0  0  0  0  0
   43.3330   34.0160   40.4500 C   0  0  0  0  0  0  0  0  0  0  0  0
   42.0670   34.2780   39.9300 C   0  0  0  0  0  0  0  0  0  0  0  0
   41.9510   34.4500   38.5650 C   0  0  0  0  0  0  0  0  0  0  0  0
   41.0230   34.6610   38.0160 H   0  0  0  0  0  0  0  0  0  0  0  0
   43.0440   34.3710   37.7060 C   0  0  0  0  0  0  0  0  0  0  0  0
   42.9870   34.4990   36.6390 H   0  0  0  0  0  0  0  0  0  0  0  0
   44.2890   34.1060   38.2720 C   0  0  0  0  0  0  0  0  0  0  0  0
   45.1840   34.0310   37.6590 H   0  0  0  0  0  0  0  0  0  0  0  0
   44.4170   33.9340   39.6260 C   0  0  0  0  0  0  0  0  0  0  0  0
   45.9470   33.6000   40.4100 Cl  0  0  0  0  0  0  0  0  0  0  0  0
  1  5  1  0  0  0  0
  2  3  1  0  0  0  0
  2  1  2  0  0  0  0
  3  4  2  0  0  0  0
  4  5  1  0  0  0  0
  4 23  1  0  0  0  0
  6  2  1  0  0  0  0
  7  3  1  0  0  0  0
  8  1  1  0  0  0  0
  8 11  1  0  0  0  0
  9  8  1  0  0  0  0
 10  8  1  0  0  0  0
 11 14  1  0  0  0  0
 11 13  1  0  0  0  0
 12 11  1  0  0  0  0
 14 15  1  0  0  0  0
 15 16  2  0  0  0  0
 15 20  1  0  0  0  0
 16 21  1  0  0  0  0
 17 16  1  0  0  0  0
 18 17  2  0  0  0  0
 19 18  1  0  0  0  0
 19 14  2  0  0  0  0
 22 18  1  0  0  0  0
 25 24  1  0  0  0  0
 26 25  1  0  0  0  0
 26 23  1  0  0  0  0
 27 26  2  0  0  0  0
 28 27  1  0  0  0  0
 29 31  2  0  0  0  0
 29 27  1  0  0  0  0
 30 29  1  0  0  0  0
 31 33  1  0  0  0  0
 32 31  1  0  0  0  0
 33 34  1  0  0  0  0
 33 25  2  0  0  0  0
M  END
>  <minimizedAffinity>
-5.28782368

$$$$

 OpenBabel03242518163D

 34 36  0  0  0  0  0  0  0  0999 V2000
   38.0440   25.6020   41.7040 C   0  0  0  0  0  0  0  0  0  0  0  0
   37.3270   26.5570   42.4620 C   0  0  0  0  0  0  0  0  0  0  0  0
   36.6160   27.5540   41.8990 C   0  0  0  0  0  0  0  0  0  0  0  0
   36.6230   27.5980   40.4680 C   0  0  0  0  0  0  0  0  0  0  0  0
   37.6510   26.2080   39.9640 S   0  0  0  0  0  0  0  0  0  0  0  0
   37.4390   26.3650   43.4950 H   0  0  0  0  0  0  0  0  0  0  0  0
   36.0720   28.2780   42.4830 H   0  0  0  0  0  0  0  0  0  0  0  0
   38.8490   24.4630   41.9470 C   0  0  0  0  0  0  0  0  0  0  0  0
   38.1810   23.5500   41.8540 H   0  0  0  0  0  0  0  0  0  0  0  0
   39.5400   24.3260   41.0670 H   0  0  0  0  0  0  0  0  0  0  0  0
   39.5870   24.4100   43.2210 C   0  0  0  0  0  0  0  0  0  0  0  0
   39.9050   23.3620   43.4590 H   0  0  0  0  0  0  0  0  0  0  0  0
   38.9020   24.6840   44.0580 H   0  0  0  0  0  0  0  0  0  0  0  0
   40.7070   25.3420   43.2110 C   0  0  0  0  0  0  0  0  0  0  0  0
   40.7300   26.4270   44.0600 C   0  0  0  0  0  0  0  0  0  0  0  0
   41.8380   27.2870   43.9970 C   0  0  0  0  0  0  0  0  0  0  0  0
   42.8210   26.9910   43.0990 N   0  0  0  0  0  0  0  0  0  0  0  0
   42.7470   25.9160   42.2920 C   0  0  0  0  0  0  0  0  0  0  0  0
   41.7120   25.1180   42.3540 N   0  0  0  0  0  0  0  0  0  0  0  0
   39.9470   26.6510   44.7660 H   0  0  0  0  0  0  0  0  0  0  0  0
   41.9490   28.1640   44.6210 H   0  0  0  0  0  0  0  0  0  0  0  0
   43.5970   25.8050   41.6310 H   0  0  0  0  0  0  0  0  0  0  0  0
   36.0180   28.4540   39.7090 O   0  0  0  0  0  0  0  0  0  0  0  0
   36.1890   31.0520   41.2430 Cl  0  0  0  0  0  0  0  0  0  0  0  0
   36.6640   30.8700   39.5500 C   0  0  0  0  0  0  0  0  0  0  0  0
   36.4900   29.5720   39.0730 C   0  0  0  0  0  0  0  0  0  0  0  0
   36.8290   29.3140   37.7600 C   0  0  0  0  0  0  0  0  0  0  0  0
   36.7470   28.3440   37.2490 H   0  0  0  0  0  0  0  0  0  0  0  0
   37.3330   30.2950   36.9110 C   0  0  0  0  0  0  0  0  0  0  0  0
   37.6070   30.1260   35.8840 H   0  0  0  0  0  0  0  0  0  0  0  0
   37.4900   31.5770   37.4320 C   0  0  0  0  0  0  0  0  0  0  0  0
   37.8790   32.3910   36.8230 H   0  0  0  0  0  0  0  0  0  0  0  0
   37.1560   31.8460   38.7340 C   0  0  0  0  0  0  0  0  0  0  0  0
   37.3250   33.4310   39.4590 Cl  0  0  0  0  0  0  0  0  0  0  0  0
  1  8  1  0  0  0  0
  1  2  2  0  0  0  0
  2  6  1  0  0  0  0
  3  2  1  0  0  0  0
  3  7  1  0  0  0  0
  4  3  2  0  0  0  0
  5  4  1  0  0  0  0
  5  1  1  0  0  0  0
  8 11  1  0  0  0  0
  9  8  1  0  0  0  0
 10  8  1  0  0  0  0
 11 12  1  0  0  0  0
 11 13  1  0  0  0  0
 14 11  1  0  0  0  0
 14 15  1  0  0  0  0
 15 20  1  0  0  0  0
 16 15  2  0  0  0  0
 16 21  1  0  0  0  0
 17 16  1  0  0  0  0
 18 19  1  0  0  0  0
 18 17  2  0  0  0  0
 19 14  2  0  0  0  0
 22 18  1  0  0  0  0
 23  4  1  0  0  0  0
 25 24  1  0  0  0  0
 26 25  1  0  0  0  0
 26 23  1  0  0  0  0
 27 26  2  0  0  0  0
 28 27  1  0  0  0  0
 29 31  2  0  0  0  0
 29 27  1  0  0  0  0
 30 29  1  0  0  0  0
 31 33  1  0  0  0  0
 32 31  1  0  0  0  0
 33 34  1  0  0  0  0
 33 25  2  0  0  0  0
M  END
>  <minimizedAffinity>
-5.27783346

$$$$

 OpenBabel03242518163D

 34 36  0  0  0  0  0  0  0  0999 V2000
   37.0450   26.2780   41.9350 C   0  0  0  0  0  0  0  0  0  0  0  0
   37.0480   26.9610   43.1730 C   0  0  0  0  0  0  0  0  0  0  0  0
   37.0140   28.3050   43.2680 C   0  0  0  0  0  0  0  0  0  0  0  0
   36.9710   29.0200   42.0280 C   0  0  0  0  0  0  0  0  0  0  0  0
   36.9830   27.7460   40.7560 S   0  0  0  0  0  0  0  0  0  0  0  0
   37.0830   26.2720   43.9730 H   0  0  0  0  0  0  0  0  0  0  0  0
   37.0170   28.8180   44.2150 H   0  0  0  0  0  0  0  0  0  0  0  0
   37.0580   24.9380   41.4780 C   0  0  0  0  0  0  0  0  0  0  0  0
   36.0090   24.5260   41.6060 H   0  0  0  0  0  0  0  0  0  0  0  0
   37.1600   24.9500   40.3560 H   0  0  0  0  0  0  0  0  0  0  0  0
   38.0310   24.0190   42.0950 C   0  0  0  0  0  0  0  0  0  0  0  0
   37.8760   22.9690   41.7330 H   0  0  0  0  0  0  0  0  0  0  0  0
   37.8400   23.9590   43.1930 H   0  0  0  0  0  0  0  0  0  0  0  0
   39.3930   24.4860   41.8820 C   0  0  0  0  0  0  0  0  0  0  0  0
   40.2420   24.6980   42.9470 C   0  0  0  0  0  0  0  0  0  0  0  0
   41.5410   25.1510   42.6720 C   0  0  0  0  0  0  0  0  0  0  0  0
   41.8810   25.3510   41.3670 N   0  0  0  0  0  0  0  0  0  0  0  0
   41.0120   25.1280   40.3630 C   0  0  0  0  0  0  0  0  0  0  0  0
   39.8010   24.7060   40.6250 N   0  0  0  0  0  0  0  0  0  0  0  0
   39.9620   24.5370   43.9750 H   0  0  0  0  0  0  0  0  0  0  0  0
   42.2800   25.3460   43.4380 H   0  0  0  0  0  0  0  0  0  0  0  0
   41.4160   25.3280   39.3800 H   0  0  0  0  0  0  0  0  0  0  0  0
   36.9320   30.3030   41.8660 O   0  0  0  0  0  0  0  0  0  0  0  0
   39.7670   30.9310   42.7050 Cl  0  0  0  0  0  0  0  0  0  0  0  0
   39.0050   31.5630   41.2390 C   0  0  0  0  0  0  0  0  0  0  0  0
   37.6920   31.1260   41.0780 C   0  0  0  0  0  0  0  0  0  0  0  0
   36.9980   31.5600   39.9660 C   0  0  0  0  0  0  0  0  0  0  0  0
   35.9620   31.3000   39.7070 H   0  0  0  0  0  0  0  0  0  0  0  0
   37.5620   32.4070   39.0160 C   0  0  0  0  0  0  0  0  0  0  0  0
   37.0490   32.7620   38.1380 H   0  0  0  0  0  0  0  0  0  0  0  0
   38.8770   32.8170   39.2200 C   0  0  0  0  0  0  0  0  0  0  0  0
   39.3790   33.4780   38.5160 H   0  0  0  0  0  0  0  0  0  0  0  0
   39.5770   32.3940   40.3200 C   0  0  0  0  0  0  0  0  0  0  0  0
   41.2320   32.8660   40.6450 Cl  0  0  0  0  0  0  0  0  0  0  0  0
  1  2  2  0  0  0  0
  2  3  1  0  0  0  0
  2  6  1  0  0  0  0
  3  7  1  0  0  0  0
  4  3  2  0  0  0  0
  5  1  1  0  0  0  0
  5  4  1  0  0  0  0
  8  9  1  0  0  0  0
  8  1  1  0  0  0  0
  8 11  1  0  0  0  0
 10  8  1  0  0  0  0
 11 13  1  0  0  0  0
 12 11  1  0  0  0  0
 14 11  1  0  0  0  0
 14 15  1  0  0  0  0
 15 20  1  0  0  0  0
 16 15  2  0  0  0  0
 16 21  1  0  0  0  0
 17 16  1  0  0  0  0
 18 19  1  0  0  0  0
 18 17  2  0  0  0  0
 19 14  2  0  0  0  0
 22 18  1  0  0  0  0
 23  4  1  0  0  0  0
 25 24  1  0  0  0  0
 26 25  1  0  0  0  0
 26 23  1  0  0  0  0
 27 26  2  0  0  0  0
 28 27  1  0  0  0  0
 29 31  2  0  0  0  0
 29 27  1  0  0  0  0
 30 29  1  0  0  0  0
 31 33  1  0  0  0  0
 32 31  1  0  0  0  0
 33 34  1  0  0  0  0
 33 25  2  0  0  0  0
M  END
>  <minimizedAffinity>
-5.27556562

$$$$

 OpenBabel03242518163D

 34 36  0  0  0  0  0  0  0  0999 V2000
   39.1690   31.7830   40.9790 C   0  0  0  0  0  0  0  0  0  0  0  0
   40.1640   31.4060   41.9100 C   0  0  0  0  0  0  0  0  0  0  0  0
   40.0280   30.3540   42.7410 C   0  0  0  0  0  0  0  0  0  0  0  0
   38.8020   29.6230   42.6320 C   0  0  0  0  0  0  0  0  0  0  0  0
   37.8730   30.4640   41.3390 S   0  0  0  0  0  0  0  0  0  0  0  0
   40.9920   32.0590   41.8460 H   0  0  0  0  0  0  0  0  0  0  0  0
   40.7910   30.0730   43.4480 H   0  0  0  0  0  0  0  0  0  0  0  0
   38.9860   32.7750   39.9840 C   0  0  0  0  0  0  0  0  0  0  0  0
   39.2630   32.3090   38.9880 H   0  0  0  0  0  0  0  0  0  0  0  0
   37.8790   32.9430   39.8550 H   0  0  0  0  0  0  0  0  0  0  0  0
   39.7060   34.0490   40.1550 C   0  0  0  0  0  0  0  0  0  0  0  0
   39.7190   34.3620   41.2310 H   0  0  0  0  0  0  0  0  0  0  0  0
   39.1440   34.8630   39.6400 H   0  0  0  0  0  0  0  0  0  0  0  0
   41.0430   33.9700   39.5830 C   0  0  0  0  0  0  0  0  0  0  0  0
   42.1590   34.1710   40.3660 C   0  0  0  0  0  0  0  0  0  0  0  0
   43.4180   34.0820   39.7520 C   0  0  0  0  0  0  0  0  0  0  0  0
   43.4550   33.8010   38.4170 N   0  0  0  0  0  0  0  0  0  0  0  0
   42.3320   33.6140   37.6990 C   0  0  0  0  0  0  0  0  0  0  0  0
   41.1610   33.6980   38.2760 N   0  0  0  0  0  0  0  0  0  0  0  0
   42.1180   34.3930   41.4200 H   0  0  0  0  0  0  0  0  0  0  0  0
   44.3520   34.2240   40.2800 H   0  0  0  0  0  0  0  0  0  0  0  0
   42.5110   33.3980   36.6540 H   0  0  0  0  0  0  0  0  0  0  0  0
   38.4470   28.5840   43.3170 O   0  0  0  0  0  0  0  0  0  0  0  0
   36.6580   26.9140   41.5430 Cl  0  0  0  0  0  0  0  0  0  0  0  0
   38.0810   26.2870   42.3850 C   0  0  0  0  0  0  0  0  0  0  0  0
   38.7370   27.2570   43.1400 C   0  0  0  0  0  0  0  0  0  0  0  0
   39.8640   26.8790   43.8420 C   0  0  0  0  0  0  0  0  0  0  0  0
   40.4810   27.5310   44.4770 H   0  0  0  0  0  0  0  0  0  0  0  0
   40.3570   25.5770   43.8190 C   0  0  0  0  0  0  0  0  0  0  0  0
   41.2330   25.2500   44.3540 H   0  0  0  0  0  0  0  0  0  0  0  0
   39.6680   24.6420   43.0500 C   0  0  0  0  0  0  0  0  0  0  0  0
   40.0000   23.6080   42.9870 H   0  0  0  0  0  0  0  0  0  0  0  0
   38.5480   25.0060   42.3490 C   0  0  0  0  0  0  0  0  0  0  0  0
   37.6290   23.8880   41.3620 Cl  0  0  0  0  0  0  0  0  0  0  0  0
  1  5  1  0  0  0  0
  1  2  2  0  0  0  0
  2  3  1  0  0  0  0
  3  7  1  0  0  0  0
  4  3  2  0  0  0  0
  4 23  1  0  0  0  0
  5  4  1  0  0  0  0
  6  2  1  0  0  0  0
  8 11  1  0  0  0  0
  8  1  1  0  0  0  0
  9  8  1  0  0  0  0
 10  8  1  0  0  0  0
 11 12  1  0  0  0  0
 13 11  1  0  0  0  0
 14 11  1  0  0  0  0
 14 15  1  0  0  0  0
 15 20  1  0  0  0  0
 16 21  1  0  0  0  0
 16 15  2  0  0  0  0
 17 16  1  0  0  0  0
 18 19  1  0  0  0  0
 18 17  2  0  0  0  0
 19 14  2  0  0  0  0
 22 18  1  0  0  0  0
 24 25  1  0  0  0  0
 25 26  1  0  0  0  0
 26 23  1  0  0  0  0
 26 27  2  0  0  0  0
 27 28  1  0  0  0  0
 29 27  1  0  0  0  0
 29 30  1  0  0  0  0
 31 29  2  0  0  0  0
 32 31  1  0  0  0  0
 33 25  2  0  0  0  0
 33 31  1  0  0  0  0
 34 33  1  0  0  0  0
M  END
>  <minimizedAffinity>
-5.21181822

$$$$
