
 OpenBabel03242510223D

 40 43  0  0  1  0  0  0  0  0999 V2000
   48.0440   33.2250   43.1420 N   0  0  0  0  0  0  0  0  0  0  0  0
   49.2520   33.3050   42.4530 C   0  0  0  0  0  0  0  0  0  0  0  0
   50.4100   32.9380   42.7840 O   0  0  0  0  0  0  0  0  0  0  0  0
   47.4770   34.0950   43.0390 H   0  0  0  0  0  0  0  0  0  0  0  0
   46.2830   32.0940   44.4490 C   0  0  1  0  0  0  0  0  0  0  0  0
   46.4240   31.3530   43.2750 C   0  0  0  0  0  0  0  0  0  0  0  0
   47.6550   32.0830   43.8900 C   0  0  1  0  0  0  0  0  0  0  0  0
   46.1090   31.6240   45.4570 H   0  0  0  0  0  0  0  0  0  0  0  0
   46.4350   30.2200   43.3490 H   0  0  0  0  0  0  0  0  0  0  0  0
   46.1380   31.6450   42.2490 H   0  0  0  0  0  0  0  0  0  0  0  0
   48.4260   31.3390   44.1860 H   0  0  0  0  0  0  0  0  0  0  0  0
   45.0550   33.9770   43.1410 C   0  0  0  0  0  0  0  0  0  0  0  0
   45.5450   33.4370   44.3760 C   0  0  0  0  0  0  0  0  0  0  0  0
   45.3480   34.1850   45.5190 C   0  0  0  0  0  0  0  0  0  0  0  0
   44.7150   35.3750   45.4240 N   0  0  0  0  0  0  0  0  0  0  0  0
   44.2570   35.8740   44.2490 C   0  0  0  0  0  0  0  0  0  0  0  0
   44.4380   35.1410   43.0690 N   0  0  0  0  0  0  0  0  0  0  0  0
   45.1860   33.3900   42.2540 H   0  0  0  0  0  0  0  0  0  0  0  0
   45.6910   33.8360   46.4770 H   0  0  0  0  0  0  0  0  0  0  0  0
   43.7490   36.8270   44.1750 H   0  0  0  0  0  0  0  0  0  0  0  0
   49.2780   33.9170   41.0650 C   0  0  2  0  0  0  0  0  0  0  0  0
   48.4740   35.2560   40.8810 C   0  0  0  0  0  0  0  0  0  0  0  0
   48.0660   33.9730   40.2360 C   0  0  1  0  0  0  0  0  0  0  0  0
   50.2630   34.0210   40.5680 H   0  0  0  0  0  0  0  0  0  0  0  0
   47.9200   35.5640   41.7990 H   0  0  0  0  0  0  0  0  0  0  0  0
   48.8830   36.0150   40.2230 H   0  0  0  0  0  0  0  0  0  0  0  0
   47.1900   33.4000   40.6010 H   0  0  0  0  0  0  0  0  0  0  0  0
   48.2440   33.8530   38.7380 C   0  0  0  0  0  0  0  0  0  0  0  0
   48.4120   34.8660   38.0720 O   0  0  0  0  0  0  0  0  0  0  0  0
   45.5120   33.0310   37.8900 Cl  0  0  0  0  0  0  0  0  0  0  0  0
   46.9910   32.1120   37.6360 C   0  0  0  0  0  0  0  0  0  0  0  0
   48.2220   32.5630   38.0610 C   0  0  0  0  0  0  0  0  0  0  0  0
   49.2990   31.7480   37.7990 C   0  0  0  0  0  0  0  0  0  0  0  0
   50.2620   32.1010   38.1300 H   0  0  0  0  0  0  0  0  0  0  0  0
   49.1630   30.5410   37.1460 C   0  0  0  0  0  0  0  0  0  0  0  0
   50.0920   29.9730   36.9920 H   0  0  0  0  0  0  0  0  0  0  0  0
   47.9340   30.0830   36.7180 C   0  0  0  0  0  0  0  0  0  0  0  0
   47.8650   29.1360   36.2120 H   0  0  0  0  0  0  0  0  0  0  0  0
   46.8420   30.8870   36.9720 C   0  0  0  0  0  0  0  0  0  0  0  0
   45.2650   30.3360   36.4420 Cl  0  0  0  0  0  0  0  0  0  0  0  0
  1  7  1  0  0  0  0
  2  3  2  0  0  0  0
  2  1  1  0  0  0  0
  4  1  1  0  0  0  0
  5  8  1  1  0  0  0
  6  9  1  0  0  0  0
  6  7  1  0  0  0  0
  6  5  1  0  0  0  0
  7 11  1  1  0  0  0
  7  5  1  0  0  0  0
 10  6  1  0  0  0  0
 12 13  1  0  0  0  0
 13  5  1  0  0  0  0
 13 14  2  0  0  0  0
 14 19  1  0  0  0  0
 15 14  1  0  0  0  0
 16 15  2  0  0  0  0
 17 12  2  0  0  0  0
 17 16  1  0  0  0  0
 18 12  1  0  0  0  0
 20 16  1  0  0  0  0
 21 24  1  6  0  0  0
 21  2  1  0  0  0  0
 22 21  1  0  0  0  0
 22 25  1  0  0  0  0
 23 27  1  1  0  0  0
 23 22  1  0  0  0  0
 23 21  1  0  0  0  0
 26 22  1  0  0  0  0
 28 23  1  0  0  0  0
 29 28  2  0  0  0  0
 31 30  1  0  0  0  0
 31 32  1  0  0  0  0
 32 28  1  0  0  0  0
 33 32  2  0  0  0  0
 33 34  1  0  0  0  0
 35 33  1  0  0  0  0
 36 35  1  0  0  0  0
 37 39  1  0  0  0  0
 37 35  2  0  0  0  0
 38 37  1  0  0  0  0
 39 31  2  0  0  0  0
 40 39  1  0  0  0  0
M  END
>  <minimizedAffinity>
-4.69443083

>  <minimizedRMSD>
1.65978372

$$$$
