
 OpenBabel03252507463D

 39 41  0  0  0  0  0  0  0  0999 V2000
   48.5170   33.9810   41.3250 C   0  0  0  0  0  0  0  0  0  0  0  0
   48.9290   32.7400   40.8360 C   0  0  0  0  0  0  0  0  0  0  0  0
   50.1670   32.2190   41.2000 C   0  0  0  0  0  0  0  0  0  0  0  0
   50.9440   32.9590   42.0370 N   0  0  0  0  0  0  0  0  0  0  0  0
   50.5110   34.1610   42.4920 C   0  0  0  0  0  0  0  0  0  0  0  0
   49.3260   34.6350   42.1300 N   0  0  0  0  0  0  0  0  0  0  0  0
   50.4730   31.2580   40.8150 H   0  0  0  0  0  0  0  0  0  0  0  0
   51.1910   34.6940   43.1590 H   0  0  0  0  0  0  0  0  0  0  0  0
   47.1990   34.4580   40.8930 C   0  0  0  0  0  0  0  0  0  0  0  0
   46.6600   33.7440   40.2810 H   0  0  0  0  0  0  0  0  0  0  0  0
   47.4020   35.3380   40.2160 H   0  0  0  0  0  0  0  0  0  0  0  0
   46.3670   34.9980   42.0120 C   0  0  0  0  0  0  0  0  0  0  0  0
   46.6060   34.4490   42.9470 H   0  0  0  0  0  0  0  0  0  0  0  0
   46.5870   36.0680   42.2450 H   0  0  0  0  0  0  0  0  0  0  0  0
   44.9020   34.9470   41.7520 C   0  0  0  0  0  0  0  0  0  0  0  0
   43.9990   35.4560   42.7370 C   0  0  0  0  0  0  0  0  0  0  0  0
   42.3520   35.1730   41.9650 S   0  0  0  0  0  0  0  0  0  0  0  0
   43.1740   34.4080   40.4300 C   0  0  0  0  0  0  0  0  0  0  0  0
   44.2770   34.4830   40.7040 N   0  0  0  0  0  0  0  0  0  0  0  0
   44.2500   35.8960   43.6930 H   0  0  0  0  0  0  0  0  0  0  0  0
   42.4450   33.9320   39.3470 O   0  0  0  0  0  0  0  0  0  0  0  0
   40.4700   34.3310   37.6340 O   0  0  0  0  0  0  0  0  0  0  0  0
   41.5440   35.0510   38.4390 P   0  0  0  0  0  0  0  0  0  0  0  0
   40.8000   36.1190   39.5330 O   0  0  0  0  0  0  0  0  0  0  0  0
   40.2600   35.6300   40.1740 H   0  0  0  0  0  0  0  0  0  0  0  0
   42.5790   35.9430   37.4460 O   0  0  0  0  0  0  0  0  0  0  0  0
   42.8140   35.3960   36.6570 H   0  0  0  0  0  0  0  0  0  0  0  0
   47.8630   31.7970   39.7300 S   0  0  0  0  0  0  0  0  0  0  0  0
   48.7270   28.8690   40.7140 Cl  0  0  0  0  0  0  0  0  0  0  0  0
   47.1080   29.4390   41.0620 C   0  0  0  0  0  0  0  0  0  0  0  0
   46.7730   30.7040   40.6240 C   0  0  0  0  0  0  0  0  0  0  0  0
   45.5090   31.1980   40.8740 C   0  0  0  0  0  0  0  0  0  0  0  0
   45.1480   32.1610   40.5790 H   0  0  0  0  0  0  0  0  0  0  0  0
   44.5640   30.4680   41.5520 C   0  0  0  0  0  0  0  0  0  0  0  0
   43.5530   30.8130   41.7740 H   0  0  0  0  0  0  0  0  0  0  0  0
   44.8870   29.1860   42.0030 C   0  0  0  0  0  0  0  0  0  0  0  0
   44.1730   28.5530   42.5510 H   0  0  0  0  0  0  0  0  0  0  0  0
   46.1540   28.7150   41.7410 C   0  0  0  0  0  0  0  0  0  0  0  0
   46.5910   27.1170   42.2900 Cl  0  0  0  0  0  0  0  0  0  0  0  0
  1  6  1  0  0  0  0
  2  3  1  0  0  0  0
  2  1  2  0  0  0  0
  3  4  2  0  0  0  0
  4  5  1  0  0  0  0
  5  8  1  0  0  0  0
  6  5  2  0  0  0  0
  7  3  1  0  0  0  0
  9  1  1  0  0  0  0
  9 12  1  0  0  0  0
 10  9  1  0  0  0  0
 11  9  1  0  0  0  0
 12 14  1  0  0  0  0
 12 13  1  0  0  0  0
 15 12  1  0  0  0  0
 15 16  2  0  0  0  0
 16 20  1  0  0  0  0
 17 16  1  0  0  0  0
 18 19  2  0  0  0  0
 18 17  1  0  0  0  0
 19 15  1  0  0  0  0
 21 18  1  0  0  0  0
 22 23  2  0  0  0  0
 23 21  1  0  0  0  0
 23 24  1  0  0  0  0
 24 25  1  0  0  0  0
 26 23  1  0  0  0  0
 27 26  1  0  0  0  0
 28 31  1  0  0  0  0
 28  2  1  0  0  0  0
 29 30  1  0  0  0  0
 30 38  1  0  0  0  0
 31 32  1  0  0  0  0
 31 30  2  0  0  0  0
 32 34  2  0  0  0  0
 33 32  1  0  0  0  0
 34 35  1  0  0  0  0
 34 36  1  0  0  0  0
 36 37  1  0  0  0  0
 38 36  2  0  0  0  0
 38 39  1  0  0  0  0
M  END
>  <minimizedAffinity>
-4.35515594

>  <minimizedRMSD>
0.188907251

$$$$
