
 OpenBabel03242510513D

 24 25  0  0  0  0  0  0  0  0999 V2000
   44.6240   36.2990   44.5490 C   0  0  0  0  0  0  0  0  0  0  0  0
   45.2560   36.4100   43.2890 C   0  0  0  0  0  0  0  0  0  0  0  0
   45.9630   35.2860   42.8280 C   0  0  0  0  0  0  0  0  0  0  0  0
   46.0060   34.1610   43.6040 N   0  0  0  0  0  0  0  0  0  0  0  0
   45.3910   34.1010   44.7950 C   0  0  0  0  0  0  0  0  0  0  0  0
   44.6940   35.1740   45.2750 N   0  0  0  0  0  0  0  0  0  0  0  0
   46.5060   31.9890   45.1700 C   0  0  0  0  0  0  0  0  0  0  0  0
   47.3220   32.1570   44.2470 O   0  0  0  0  0  0  0  0  0  0  0  0
   45.4740   32.9030   45.5510 N   0  0  0  0  0  0  0  0  0  0  0  0
   44.0840   37.1610   44.8990 H   0  0  0  0  0  0  0  0  0  0  0  0
   45.2080   37.3090   42.6950 H   0  0  0  0  0  0  0  0  0  0  0  0
   46.4430   35.3780   41.8640 H   0  0  0  0  0  0  0  0  0  0  0  0
   44.8150   32.7140   46.3340 H   0  0  0  0  0  0  0  0  0  0  0  0
   48.7090   29.9960   44.5110 Cl  0  0  0  0  0  0  0  0  0  0  0  0
   47.5290   29.7590   45.7730 C   0  0  0  0  0  0  0  0  0  0  0  0
   46.5890   30.7430   45.9620 C   0  0  0  0  0  0  0  0  0  0  0  0
   45.6350   30.5970   46.9530 C   0  0  0  0  0  0  0  0  0  0  0  0
   44.8680   31.3580   47.1340 H   0  0  0  0  0  0  0  0  0  0  0  0
   45.5750   29.4920   47.7780 C   0  0  0  0  0  0  0  0  0  0  0  0
   44.8230   29.3970   48.5430 H   0  0  0  0  0  0  0  0  0  0  0  0
   46.5280   28.5080   47.5750 C   0  0  0  0  0  0  0  0  0  0  0  0
   46.4890   27.6360   48.2200 H   0  0  0  0  0  0  0  0  0  0  0  0
   47.4990   28.6400   46.5800 C   0  0  0  0  0  0  0  0  0  0  0  0
   48.6970   27.3860   46.3390 Cl  0  0  0  0  0  0  0  0  0  0  0  0
  1 10  1  0  0  0  0
  1  6  1  0  0  0  0
  2  1  2  0  0  0  0
  3  2  1  0  0  0  0
  3  4  2  0  0  0  0
  4  5  1  0  0  0  0
  5  6  2  0  0  0  0
  5  9  1  0  0  0  0
  7  9  1  0  0  0  0
  7 16  1  0  0  0  0
  8  7  2  0  0  0  0
  9 13  1  0  0  0  0
 11  2  1  0  0  0  0
 12  3  1  0  0  0  0
 14 15  1  0  0  0  0
 15 16  2  0  0  0  0
 15 23  1  0  0  0  0
 16 17  1  0  0  0  0
 17 18  1  0  0  0  0
 17 19  2  0  0  0  0
 19 20  1  0  0  0  0
 21 19  1  0  0  0  0
 21 22  1  0  0  0  0
 23 21  2  0  0  0  0
 24 23  1  0  0  0  0
M  END
>  <minimizedAffinity>
-4.56318331

>  <minimizedRMSD>
2.80448842

$$$$
