
 OpenBabel03242519253D

 42 45  0  0  0  0  0  0  0  0999 V2000
   47.8790   33.9330   42.9220 C   0  0  0  0  0  0  0  0  0  0  0  0
   48.4220   35.2070   42.6270 C   0  0  0  0  0  0  0  0  0  0  0  0
   49.7560   35.3220   42.2130 C   0  0  0  0  0  0  0  0  0  0  0  0
   50.4700   34.1530   42.1190 N   0  0  0  0  0  0  0  0  0  0  0  0
   49.9170   32.9340   42.4120 C   0  0  0  0  0  0  0  0  0  0  0  0
   48.6500   32.8320   42.8040 N   0  0  0  0  0  0  0  0  0  0  0  0
   47.9290   36.1490   42.6780 H   0  0  0  0  0  0  0  0  0  0  0  0
   50.2220   36.2460   41.9770 H   0  0  0  0  0  0  0  0  0  0  0  0
   46.4740   33.9180   43.3540 C   0  0  0  0  0  0  0  0  0  0  0  0
   45.6420   34.9100   42.6750 C   0  0  0  0  0  0  0  0  0  0  0  0
   45.1600   36.0100   43.5460 C   0  0  0  0  0  0  0  0  0  0  0  0
   44.4820   35.5230   44.8170 C   0  0  0  0  0  0  0  0  0  0  0  0
   45.0740   34.2630   45.3840 C   0  0  0  0  0  0  0  0  0  0  0  0
   46.5010   34.0910   44.8840 C   0  0  0  0  0  0  0  0  0  0  0  0
   46.0810   32.8710   43.2040 H   0  0  0  0  0  0  0  0  0  0  0  0
   44.7260   34.4180   42.2340 H   0  0  0  0  0  0  0  0  0  0  0  0
   46.1550   35.3480   41.8160 H   0  0  0  0  0  0  0  0  0  0  0  0
   44.3380   36.5330   42.9740 H   0  0  0  0  0  0  0  0  0  0  0  0
   45.8640   36.7890   43.8150 H   0  0  0  0  0  0  0  0  0  0  0  0
   44.5520   36.3110   45.6040 H   0  0  0  0  0  0  0  0  0  0  0  0
   43.3860   35.3510   44.6670 H   0  0  0  0  0  0  0  0  0  0  0  0
   45.0890   34.2620   46.4820 H   0  0  0  0  0  0  0  0  0  0  0  0
   44.5030   33.3700   45.0100 H   0  0  0  0  0  0  0  0  0  0  0  0
   46.9980   35.0610   45.0630 H   0  0  0  0  0  0  0  0  0  0  0  0
   46.9760   33.2260   45.3490 H   0  0  0  0  0  0  0  0  0  0  0  0
   50.8110   31.7960   42.2660 C   0  0  0  0  0  0  0  0  0  0  0  0
   51.4500   31.6550   41.0820 N   0  0  0  0  0  0  0  0  0  0  0  0
   52.2320   30.5590   41.1220 C   0  0  0  0  0  0  0  0  0  0  0  0
   52.0700   30.0140   42.3580 N   0  0  0  0  0  0  0  0  0  0  0  0
   51.2090   30.7660   43.0480 N   0  0  0  0  0  0  0  0  0  0  0  0
   52.8530   30.2130   40.3070 H   0  0  0  0  0  0  0  0  0  0  0  0
   50.5040   27.5710   41.9160 Cl  0  0  0  0  0  0  0  0  0  0  0  0
   52.0890   27.6170   42.6870 C   0  0  0  0  0  0  0  0  0  0  0  0
   52.7140   28.8380   42.8300 C   0  0  0  0  0  0  0  0  0  0  0  0
   53.9470   28.9190   43.4240 C   0  0  0  0  0  0  0  0  0  0  0  0
   54.4690   29.8520   43.5550 H   0  0  0  0  0  0  0  0  0  0  0  0
   54.5600   27.7570   43.8790 C   0  0  0  0  0  0  0  0  0  0  0  0
   55.5330   27.8390   44.3440 H   0  0  0  0  0  0  0  0  0  0  0  0
   53.9130   26.5270   43.7260 C   0  0  0  0  0  0  0  0  0  0  0  0
   54.3920   25.6280   44.0800 H   0  0  0  0  0  0  0  0  0  0  0  0
   52.6800   26.4510   43.1310 C   0  0  0  0  0  0  0  0  0  0  0  0
   51.8220   24.9260   42.9150 Cl  0  0  0  0  0  0  0  0  0  0  0  0
  1  9  1  0  0  0  0
  2  7  1  0  0  0  0
  2  1  2  0  0  0  0
  3  2  1  0  0  0  0
  4  3  2  0  0  0  0
  4  5  1  0  0  0  0
  5  6  2  0  0  0  0
  6  1  1  0  0  0  0
  8  3  1  0  0  0  0
  9 14  1  0  0  0  0
 10  9  1  0  0  0  0
 10 11  1  0  0  0  0
 11 19  1  0  0  0  0
 11 12  1  0  0  0  0
 12 13  1  0  0  0  0
 12 20  1  0  0  0  0
 13 22  1  0  0  0  0
 14 24  1  0  0  0  0
 14 25  1  0  0  0  0
 14 13  1  0  0  0  0
 15  9  1  0  0  0  0
 16 10  1  0  0  0  0
 17 10  1  0  0  0  0
 18 11  1  0  0  0  0
 21 12  1  0  0  0  0
 23 13  1  0  0  0  0
 26  5  1  0  0  0  0
 26 30  2  0  0  0  0
 27 28  2  0  0  0  0
 27 26  1  0  0  0  0
 28 29  1  0  0  0  0
 29 34  1  0  0  0  0
 29 30  1  0  0  0  0
 31 28  1  0  0  0  0
 32 33  1  0  0  0  0
 33 34  2  0  0  0  0
 33 41  1  0  0  0  0
 34 35  1  0  0  0  0
 35 36  1  0  0  0  0
 35 37  2  0  0  0  0
 37 38  1  0  0  0  0
 39 37  1  0  0  0  0
 39 40  1  0  0  0  0
 41 39  2  0  0  0  0
 42 41  1  0  0  0  0
M  END
>  <minimizedAffinity>
-4.17156267

>  <minimizedRMSD>
1.26993227

$$$$
