
 OpenBabel03252507483D

 39 41  0  0  0  0  0  0  0  0999 V2000
   36.4430   29.8630   39.7830 C   0  0  0  0  0  0  0  0  0  0  0  0
   36.3470   28.5530   40.2550 C   0  0  0  0  0  0  0  0  0  0  0  0
   36.2210   27.4930   39.3610 C   0  0  0  0  0  0  0  0  0  0  0  0
   36.1940   27.7860   38.0320 N   0  0  0  0  0  0  0  0  0  0  0  0
   36.2900   29.0710   37.6110 C   0  0  0  0  0  0  0  0  0  0  0  0
   36.4100   30.0630   38.4830 N   0  0  0  0  0  0  0  0  0  0  0  0
   36.1480   26.4850   39.7400 H   0  0  0  0  0  0  0  0  0  0  0  0
   36.2620   29.2250   36.5300 H   0  0  0  0  0  0  0  0  0  0  0  0
   36.5750   30.9220   40.7900 C   0  0  0  0  0  0  0  0  0  0  0  0
   37.0010   30.5770   41.7250 H   0  0  0  0  0  0  0  0  0  0  0  0
   35.5190   31.2330   41.0410 H   0  0  0  0  0  0  0  0  0  0  0  0
   37.2440   32.1540   40.2720 C   0  0  0  0  0  0  0  0  0  0  0  0
   36.9940   32.2860   39.1990 H   0  0  0  0  0  0  0  0  0  0  0  0
   36.8840   33.0890   40.7680 H   0  0  0  0  0  0  0  0  0  0  0  0
   38.7220   32.1580   40.4550 C   0  0  0  0  0  0  0  0  0  0  0  0
   39.2910   31.4700   41.5710 C   0  0  0  0  0  0  0  0  0  0  0  0
   41.0950   31.7650   41.3570 S   0  0  0  0  0  0  0  0  0  0  0  0
   40.7680   32.7780   39.7800 C   0  0  0  0  0  0  0  0  0  0  0  0
   39.6310   32.7270   39.7110 N   0  0  0  0  0  0  0  0  0  0  0  0
   38.7650   30.9170   42.3390 H   0  0  0  0  0  0  0  0  0  0  0  0
   41.7880   33.3570   39.0350 O   0  0  0  0  0  0  0  0  0  0  0  0
   42.8890   31.6560   37.3360 O   0  0  0  0  0  0  0  0  0  0  0  0
   41.9700   32.8690   37.4180 P   0  0  0  0  0  0  0  0  0  0  0  0
   40.4310   32.4430   36.8340 O   0  0  0  0  0  0  0  0  0  0  0  0
   40.0310   31.7590   37.3940 H   0  0  0  0  0  0  0  0  0  0  0  0
   42.5510   34.1590   36.4960 O   0  0  0  0  0  0  0  0  0  0  0  0
   43.5240   34.2460   36.6450 H   0  0  0  0  0  0  0  0  0  0  0  0
   36.3870   28.2170   42.0250 S   0  0  0  0  0  0  0  0  0  0  0  0
   36.8560   25.0460   42.1160 Cl  0  0  0  0  0  0  0  0  0  0  0  0
   38.1650   26.1110   42.5800 C   0  0  0  0  0  0  0  0  0  0  0  0
   37.9270   27.4690   42.5280 C   0  0  0  0  0  0  0  0  0  0  0  0
   38.9280   28.3500   42.8840 C   0  0  0  0  0  0  0  0  0  0  0  0
   38.8490   29.4180   42.8800 H   0  0  0  0  0  0  0  0  0  0  0  0
   40.1660   27.9180   43.2920 C   0  0  0  0  0  0  0  0  0  0  0  0
   40.9890   28.5730   43.5840 H   0  0  0  0  0  0  0  0  0  0  0  0
   40.4240   26.5450   43.3510 C   0  0  0  0  0  0  0  0  0  0  0  0
   41.3950   26.1380   43.6700 H   0  0  0  0  0  0  0  0  0  0  0  0
   39.4090   25.6870   42.9910 C   0  0  0  0  0  0  0  0  0  0  0  0
   39.6990   23.9670   43.0530 Cl  0  0  0  0  0  0  0  0  0  0  0  0
  1  2  1  0  0  0  0
  1  9  1  0  0  0  0
  2 28  1  0  0  0  0
  3  7  1  0  0  0  0
  3  2  2  0  0  0  0
  4  3  1  0  0  0  0
  5  4  2  0  0  0  0
  5  6  1  0  0  0  0
  6  1  2  0  0  0  0
  8  5  1  0  0  0  0
  9 11  1  0  0  0  0
  9 10  1  0  0  0  0
 12 15  1  0  0  0  0
 12 14  1  0  0  0  0
 12  9  1  0  0  0  0
 13 12  1  0  0  0  0
 15 16  2  0  0  0  0
 16 20  1  0  0  0  0
 17 16  1  0  0  0  0
 18 17  1  0  0  0  0
 19 18  2  0  0  0  0
 19 15  1  0  0  0  0
 21 18  1  0  0  0  0
 22 23  2  0  0  0  0
 23 21  1  0  0  0  0
 24 25  1  0  0  0  0
 24 23  1  0  0  0  0
 26 27  1  0  0  0  0
 26 23  1  0  0  0  0
 28 31  1  0  0  0  0
 29 30  1  0  0  0  0
 30 38  1  0  0  0  0
 31 30  2  0  0  0  0
 31 32  1  0  0  0  0
 32 34  2  0  0  0  0
 33 32  1  0  0  0  0
 34 36  1  0  0  0  0
 34 35  1  0  0  0  0
 36 37  1  0  0  0  0
 38 39  1  0  0  0  0
 38 36  2  0  0  0  0
M  END
>  <minimizedAffinity>
-6.37894726

$$$$

 OpenBabel03252507483D

 39 41  0  0  0  0  0  0  0  0999 V2000
   37.7960   30.0370   41.8470 C   0  0  0  0  0  0  0  0  0  0  0  0
   36.9000   28.9830   42.0280 C   0  0  0  0  0  0  0  0  0  0  0  0
   35.7970   28.8480   41.1890 C   0  0  0  0  0  0  0  0  0  0  0  0
   35.6340   29.7740   40.2050 N   0  0  0  0  0  0  0  0  0  0  0  0
   36.5250   30.7850   40.0600 C   0  0  0  0  0  0  0  0  0  0  0  0
   37.5680   30.8910   40.8720 N   0  0  0  0  0  0  0  0  0  0  0  0
   35.1120   28.0280   41.3400 H   0  0  0  0  0  0  0  0  0  0  0  0
   36.3260   31.4870   39.2470 H   0  0  0  0  0  0  0  0  0  0  0  0
   38.9320   30.1070   42.7720 C   0  0  0  0  0  0  0  0  0  0  0  0
   38.7850   29.5330   43.6810 H   0  0  0  0  0  0  0  0  0  0  0  0
   38.9850   31.1840   43.1060 H   0  0  0  0  0  0  0  0  0  0  0  0
   40.2470   29.8240   42.1210 C   0  0  0  0  0  0  0  0  0  0  0  0
   40.8750   29.2160   42.8050 H   0  0  0  0  0  0  0  0  0  0  0  0
   40.1530   29.2070   41.1940 H   0  0  0  0  0  0  0  0  0  0  0  0
   40.9870   31.0470   41.7020 C   0  0  0  0  0  0  0  0  0  0  0  0
   42.0530   31.5340   42.5210 C   0  0  0  0  0  0  0  0  0  0  0  0
   42.6290   33.0200   41.6000 S   0  0  0  0  0  0  0  0  0  0  0  0
   41.3190   32.7240   40.2530 C   0  0  0  0  0  0  0  0  0  0  0  0
   40.8030   31.7860   40.6420 N   0  0  0  0  0  0  0  0  0  0  0  0
   42.4120   31.1120   43.4510 H   0  0  0  0  0  0  0  0  0  0  0  0
   41.1790   33.5550   39.1480 O   0  0  0  0  0  0  0  0  0  0  0  0
   42.3930   31.6520   37.7720 O   0  0  0  0  0  0  0  0  0  0  0  0
   41.5590   32.9180   37.6190 P   0  0  0  0  0  0  0  0  0  0  0  0
   40.0950   32.5320   36.8450 O   0  0  0  0  0  0  0  0  0  0  0  0
   39.5710   31.9230   37.3910 H   0  0  0  0  0  0  0  0  0  0  0  0
   42.3560   34.0860   36.6970 O   0  0  0  0  0  0  0  0  0  0  0  0
   43.3010   34.1300   36.9840 H   0  0  0  0  0  0  0  0  0  0  0  0
   37.1600   27.7810   43.3450 S   0  0  0  0  0  0  0  0  0  0  0  0
   36.8130   25.6270   40.9960 Cl  0  0  0  0  0  0  0  0  0  0  0  0
   38.3000   25.6440   41.9190 C   0  0  0  0  0  0  0  0  0  0  0  0
   38.4140   26.5850   42.9220 C   0  0  0  0  0  0  0  0  0  0  0  0
   39.5680   26.6390   43.6780 C   0  0  0  0  0  0  0  0  0  0  0  0
   39.7580   27.3270   44.4760 H   0  0  0  0  0  0  0  0  0  0  0  0
   40.6180   25.7800   43.4640 C   0  0  0  0  0  0  0  0  0  0  0  0
   41.5480   25.7820   44.0340 H   0  0  0  0  0  0  0  0  0  0  0  0
   40.5190   24.8210   42.4530 C   0  0  0  0  0  0  0  0  0  0  0  0
   41.3250   24.1050   42.2340 H   0  0  0  0  0  0  0  0  0  0  0  0
   39.3580   24.7870   41.7130 C   0  0  0  0  0  0  0  0  0  0  0  0
   39.2030   23.6000   40.4420 Cl  0  0  0  0  0  0  0  0  0  0  0  0
  1  2  1  0  0  0  0
  1  9  1  0  0  0  0
  2 28  1  0  0  0  0
  3  7  1  0  0  0  0
  3  2  2  0  0  0  0
  4  3  1  0  0  0  0
  5  4  2  0  0  0  0
  5  6  1  0  0  0  0
  6  1  2  0  0  0  0
  8  5  1  0  0  0  0
  9 11  1  0  0  0  0
  9 10  1  0  0  0  0
 12  9  1  0  0  0  0
 12 13  1  0  0  0  0
 14 12  1  0  0  0  0
 15 12  1  0  0  0  0
 15 16  2  0  0  0  0
 16 20  1  0  0  0  0
 17 16  1  0  0  0  0
 18 19  2  0  0  0  0
 18 17  1  0  0  0  0
 19 15  1  0  0  0  0
 21 18  1  0  0  0  0
 23 22  2  0  0  0  0
 23 21  1  0  0  0  0
 24 25  1  0  0  0  0
 24 23  1  0  0  0  0
 26 27  1  0  0  0  0
 26 23  1  0  0  0  0
 29 30  1  0  0  0  0
 30 31  1  0  0  0  0
 31 28  1  0  0  0  0
 31 32  2  0  0  0  0
 32 33  1  0  0  0  0
 34 32  1  0  0  0  0
 34 35  1  0  0  0  0
 36 34  2  0  0  0  0
 37 36  1  0  0  0  0
 38 30  2  0  0  0  0
 38 36  1  0  0  0  0
 39 38  1  0  0  0  0
M  END
>  <minimizedAffinity>
-6.2970314

$$$$

 OpenBabel03252507483D

 39 41  0  0  0  0  0  0  0  0999 V2000
   36.2850   30.0050   38.6030 C   0  0  0  0  0  0  0  0  0  0  0  0
   36.9560   30.7270   39.5910 C   0  0  0  0  0  0  0  0  0  0  0  0
   37.9630   31.6230   39.2420 C   0  0  0  0  0  0  0  0  0  0  0  0
   38.2590   31.7600   37.9210 N   0  0  0  0  0  0  0  0  0  0  0  0
   37.5850   31.0410   36.9890 C   0  0  0  0  0  0  0  0  0  0  0  0
   36.6300   30.1940   37.3470 N   0  0  0  0  0  0  0  0  0  0  0  0
   38.4740   32.1750   40.0160 H   0  0  0  0  0  0  0  0  0  0  0  0
   37.8810   31.2060   35.9510 H   0  0  0  0  0  0  0  0  0  0  0  0
   35.2370   29.0830   39.0540 C   0  0  0  0  0  0  0  0  0  0  0  0
   34.3580   29.5860   39.4430 H   0  0  0  0  0  0  0  0  0  0  0  0
   35.6780   28.5300   39.9340 H   0  0  0  0  0  0  0  0  0  0  0  0
   34.8990   28.0310   38.0470 C   0  0  0  0  0  0  0  0  0  0  0  0
   35.7530   27.8990   37.3500 H   0  0  0  0  0  0  0  0  0  0  0  0
   34.7430   27.0220   38.5030 H   0  0  0  0  0  0  0  0  0  0  0  0
   33.6540   28.3090   37.2800 C   0  0  0  0  0  0  0  0  0  0  0  0
   33.3660   27.5400   36.1090 C   0  0  0  0  0  0  0  0  0  0  0  0
   31.7660   28.2480   35.5380 S   0  0  0  0  0  0  0  0  0  0  0  0
   31.7590   29.4730   36.9940 C   0  0  0  0  0  0  0  0  0  0  0  0
   32.7300   29.1990   37.5240 N   0  0  0  0  0  0  0  0  0  0  0  0
   33.9620   26.7420   35.6850 H   0  0  0  0  0  0  0  0  0  0  0  0
   30.7390   30.3960   37.1930 O   0  0  0  0  0  0  0  0  0  0  0  0
   28.6990   29.1220   38.2910 O   0  0  0  0  0  0  0  0  0  0  0  0
   29.7430   30.2010   38.5550 P   0  0  0  0  0  0  0  0  0  0  0  0
   30.7320   29.7160   39.8500 O   0  0  0  0  0  0  0  0  0  0  0  0
   31.2230   28.9110   39.6210 H   0  0  0  0  0  0  0  0  0  0  0  0
   29.0280   31.6780   38.9540 O   0  0  0  0  0  0  0  0  0  0  0  0
   28.2690   31.8420   38.3430 H   0  0  0  0  0  0  0  0  0  0  0  0
   36.5270   30.5120   41.3270 S   0  0  0  0  0  0  0  0  0  0  0  0
   39.5960   30.5480   42.2580 Cl  0  0  0  0  0  0  0  0  0  0  0  0
   38.6650   29.0790   42.4600 C   0  0  0  0  0  0  0  0  0  0  0  0
   37.3480   29.1010   42.0480 C   0  0  0  0  0  0  0  0  0  0  0  0
   36.5720   27.9670   42.1860 C   0  0  0  0  0  0  0  0  0  0  0  0
   35.5450   27.8770   41.9010 H   0  0  0  0  0  0  0  0  0  0  0  0
   37.0710   26.8070   42.7250 C   0  0  0  0  0  0  0  0  0  0  0  0
   36.5000   25.8860   42.8540 H   0  0  0  0  0  0  0  0  0  0  0  0
   38.4030   26.7670   43.1460 C   0  0  0  0  0  0  0  0  0  0  0  0
   38.8590   25.8680   43.5850 H   0  0  0  0  0  0  0  0  0  0  0  0
   39.1550   27.9100   42.9980 C   0  0  0  0  0  0  0  0  0  0  0  0
   40.8230   27.8940   43.5150 Cl  0  0  0  0  0  0  0  0  0  0  0  0
  1  9  1  0  0  0  0
  1  2  1  0  0  0  0
  2 28  1  0  0  0  0
  3  2  2  0  0  0  0
  3  7  1  0  0  0  0
  4  3  1  0  0  0  0
  5  6  1  0  0  0  0
  5  4  2  0  0  0  0
  6  1  2  0  0  0  0
  8  5  1  0  0  0  0
  9 10  1  0  0  0  0
  9 11  1  0  0  0  0
 12 14  1  0  0  0  0
 12  9  1  0  0  0  0
 13 12  1  0  0  0  0
 15 19  1  0  0  0  0
 15 12  1  0  0  0  0
 16 15  2  0  0  0  0
 17 16  1  0  0  0  0
 17 18  1  0  0  0  0
 18 21  1  0  0  0  0
 18 19  2  0  0  0  0
 20 16  1  0  0  0  0
 21 23  1  0  0  0  0
 22 23  2  0  0  0  0
 23 26  1  0  0  0  0
 23 24  1  0  0  0  0
 25 24  1  0  0  0  0
 27 26  1  0  0  0  0
 28 31  1  0  0  0  0
 29 30  1  0  0  0  0
 30 38  1  0  0  0  0
 31 32  1  0  0  0  0
 31 30  2  0  0  0  0
 32 34  2  0  0  0  0
 33 32  1  0  0  0  0
 34 35  1  0  0  0  0
 34 36  1  0  0  0  0
 36 37  1  0  0  0  0
 38 36  2  0  0  0  0
 38 39  1  0  0  0  0
M  END
>  <minimizedAffinity>
-5.9899354

$$$$

 OpenBabel03252507483D

 39 41  0  0  0  0  0  0  0  0999 V2000
   36.7870   30.8290   39.0370 C   0  0  0  0  0  0  0  0  0  0  0  0
   36.1800   29.5730   39.0780 C   0  0  0  0  0  0  0  0  0  0  0  0
   36.0890   28.7990   37.9240 C   0  0  0  0  0  0  0  0  0  0  0  0
   36.6080   29.3130   36.7750 N   0  0  0  0  0  0  0  0  0  0  0  0
   37.1900   30.5380   36.7730 C   0  0  0  0  0  0  0  0  0  0  0  0
   37.2640   31.2550   37.8860 N   0  0  0  0  0  0  0  0  0  0  0  0
   35.6170   27.8300   37.9700 H   0  0  0  0  0  0  0  0  0  0  0  0
   37.5820   30.8800   35.8130 H   0  0  0  0  0  0  0  0  0  0  0  0
   36.8430   31.5790   40.2960 C   0  0  0  0  0  0  0  0  0  0  0  0
   36.9370   30.9460   41.1710 H   0  0  0  0  0  0  0  0  0  0  0  0
   35.8350   32.0780   40.3960 H   0  0  0  0  0  0  0  0  0  0  0  0
   37.8410   32.6920   40.2800 C   0  0  0  0  0  0  0  0  0  0  0  0
   37.7810   33.2280   39.3100 H   0  0  0  0  0  0  0  0  0  0  0  0
   37.6380   33.4730   41.0520 H   0  0  0  0  0  0  0  0  0  0  0  0
   39.2410   32.2480   40.5310 C   0  0  0  0  0  0  0  0  0  0  0  0
   39.5490   31.5540   41.7420 C   0  0  0  0  0  0  0  0  0  0  0  0
   41.3540   31.2330   41.5820 S   0  0  0  0  0  0  0  0  0  0  0  0
   41.3830   32.1000   39.8890 C   0  0  0  0  0  0  0  0  0  0  0  0
   40.2920   32.4050   39.7730 N   0  0  0  0  0  0  0  0  0  0  0  0
   38.8660   31.2940   42.5410 H   0  0  0  0  0  0  0  0  0  0  0  0
   42.5430   32.2310   39.1330 O   0  0  0  0  0  0  0  0  0  0  0  0
   41.9130   30.7730   37.0200 O   0  0  0  0  0  0  0  0  0  0  0  0
   42.4040   32.1520   37.4420 P   0  0  0  0  0  0  0  0  0  0  0  0
   41.2650   33.3210   36.9650 O   0  0  0  0  0  0  0  0  0  0  0  0
   40.4200   33.1800   37.4210 H   0  0  0  0  0  0  0  0  0  0  0  0
   43.8880   32.5330   36.7300 O   0  0  0  0  0  0  0  0  0  0  0  0
   44.4800   31.7440   36.7830 H   0  0  0  0  0  0  0  0  0  0  0  0
   35.5090   28.9360   40.6240 S   0  0  0  0  0  0  0  0  0  0  0  0
   36.5160   25.9570   39.9920 Cl  0  0  0  0  0  0  0  0  0  0  0  0
   37.2060   26.8150   41.3530 C   0  0  0  0  0  0  0  0  0  0  0  0
   36.7480   28.0950   41.5940 C   0  0  0  0  0  0  0  0  0  0  0  0
   37.2610   28.8130   42.6560 C   0  0  0  0  0  0  0  0  0  0  0  0
   36.9770   29.8080   42.9300 H   0  0  0  0  0  0  0  0  0  0  0  0
   38.2210   28.2930   43.4890 C   0  0  0  0  0  0  0  0  0  0  0  0
   38.6570   28.8180   44.3400 H   0  0  0  0  0  0  0  0  0  0  0  0
   38.6950   26.9980   43.2590 C   0  0  0  0  0  0  0  0  0  0  0  0
   39.4620   26.5270   43.8910 H   0  0  0  0  0  0  0  0  0  0  0  0
   38.1680   26.3030   42.1940 C   0  0  0  0  0  0  0  0  0  0  0  0
   38.7390   24.6840   41.8800 Cl  0  0  0  0  0  0  0  0  0  0  0  0
  1  2  1  0  0  0  0
  1  9  1  0  0  0  0
  2 28  1  0  0  0  0
  3  7  1  0  0  0  0
  3  2  2  0  0  0  0
  4  3  1  0  0  0  0
  5  4  2  0  0  0  0
  5  6  1  0  0  0  0
  6  1  2  0  0  0  0
  8  5  1  0  0  0  0
  9 11  1  0  0  0  0
  9 10  1  0  0  0  0
 12  9  1  0  0  0  0
 12 15  1  0  0  0  0
 12 14  1  0  0  0  0
 13 12  1  0  0  0  0
 15 16  2  0  0  0  0
 16 20  1  0  0  0  0
 17 16  1  0  0  0  0
 18 17  1  0  0  0  0
 19 18  2  0  0  0  0
 19 15  1  0  0  0  0
 21 18  1  0  0  0  0
 22 23  2  0  0  0  0
 23 21  1  0  0  0  0
 24 25  1  0  0  0  0
 24 23  1  0  0  0  0
 26 27  1  0  0  0  0
 26 23  1  0  0  0  0
 28 31  1  0  0  0  0
 29 30  1  0  0  0  0
 30 31  2  0  0  0  0
 30 38  1  0  0  0  0
 31 32  1  0  0  0  0
 32 33  1  0  0  0  0
 32 34  2  0  0  0  0
 34 35  1  0  0  0  0
 36 34  1  0  0  0  0
 36 37  1  0  0  0  0
 38 36  2  0  0  0  0
 39 38  1  0  0  0  0
M  END
>  <minimizedAffinity>
-5.79430056

$$$$

 OpenBabel03252507483D

 39 41  0  0  0  0  0  0  0  0999 V2000
   37.2190   26.0850   41.5310 C   0  0  0  0  0  0  0  0  0  0  0  0
   37.6740   26.1620   40.2140 C   0  0  0  0  0  0  0  0  0  0  0  0
   38.0100   25.0030   39.5200 C   0  0  0  0  0  0  0  0  0  0  0  0
   37.8790   23.8140   40.1700 N   0  0  0  0  0  0  0  0  0  0  0  0
   37.4330   23.7790   41.4500 C   0  0  0  0  0  0  0  0  0  0  0  0
   37.1190   24.8970   42.0900 N   0  0  0  0  0  0  0  0  0  0  0  0
   38.3610   25.0770   38.5020 H   0  0  0  0  0  0  0  0  0  0  0  0
   37.3540   22.7880   41.9020 H   0  0  0  0  0  0  0  0  0  0  0  0
   36.8850   27.3510   42.1920 C   0  0  0  0  0  0  0  0  0  0  0  0
   35.8800   27.3730   42.6000 H   0  0  0  0  0  0  0  0  0  0  0  0
   36.8920   28.1300   41.3750 H   0  0  0  0  0  0  0  0  0  0  0  0
   37.9160   27.7950   43.1790 C   0  0  0  0  0  0  0  0  0  0  0  0
   37.4170   28.0900   44.1260 H   0  0  0  0  0  0  0  0  0  0  0  0
   38.6240   26.9810   43.4690 H   0  0  0  0  0  0  0  0  0  0  0  0
   38.7780   28.9070   42.6900 C   0  0  0  0  0  0  0  0  0  0  0  0
   40.1960   28.8150   42.8500 C   0  0  0  0  0  0  0  0  0  0  0  0
   40.7940   30.3900   42.1080 S   0  0  0  0  0  0  0  0  0  0  0  0
   39.0080   30.9070   41.7050 C   0  0  0  0  0  0  0  0  0  0  0  0
   38.4200   30.0170   42.1040 N   0  0  0  0  0  0  0  0  0  0  0  0
   40.7540   28.0050   43.3000 H   0  0  0  0  0  0  0  0  0  0  0  0
   38.6980   32.1080   41.0770 O   0  0  0  0  0  0  0  0  0  0  0  0
   37.5280   31.3950   38.8160 O   0  0  0  0  0  0  0  0  0  0  0  0
   37.3020   32.1650   40.1110 P   0  0  0  0  0  0  0  0  0  0  0  0
   36.0420   31.4310   40.9850 O   0  0  0  0  0  0  0  0  0  0  0  0
   36.2870   30.5280   41.2440 H   0  0  0  0  0  0  0  0  0  0  0  0
   36.8780   33.7740   39.8170 O   0  0  0  0  0  0  0  0  0  0  0  0
   37.4630   34.1330   39.1050 H   0  0  0  0  0  0  0  0  0  0  0  0
   37.8310   27.7590   39.3960 S   0  0  0  0  0  0  0  0  0  0  0  0
   37.8390   27.6350   36.1920 Cl  0  0  0  0  0  0  0  0  0  0  0  0
   36.3680   28.1000   37.0190 C   0  0  0  0  0  0  0  0  0  0  0  0
   36.4020   28.1420   38.3980 C   0  0  0  0  0  0  0  0  0  0  0  0
   35.2670   28.5030   39.0960 C   0  0  0  0  0  0  0  0  0  0  0  0
   35.1860   28.5670   40.1620 H   0  0  0  0  0  0  0  0  0  0  0  0
   34.0940   28.8240   38.4610 C   0  0  0  0  0  0  0  0  0  0  0  0
   33.1720   29.1160   38.9660 H   0  0  0  0  0  0  0  0  0  0  0  0
   34.0430   28.7870   37.0640 C   0  0  0  0  0  0  0  0  0  0  0  0
   33.1320   29.0340   36.4980 H   0  0  0  0  0  0  0  0  0  0  0  0
   35.1870   28.4240   36.3910 C   0  0  0  0  0  0  0  0  0  0  0  0
   35.1560   28.3680   34.6460 Cl  0  0  0  0  0  0  0  0  0  0  0  0
  1  6  1  0  0  0  0
  1  9  1  0  0  0  0
  2  1  2  0  0  0  0
  3  4  2  0  0  0  0
  3  2  1  0  0  0  0
  4  5  1  0  0  0  0
  5  8  1  0  0  0  0
  5  6  2  0  0  0  0
  7  3  1  0  0  0  0
  9 10  1  0  0  0  0
  9 12  1  0  0  0  0
 11  9  1  0  0  0  0
 12 14  1  0  0  0  0
 12 13  1  0  0  0  0
 15 16  2  0  0  0  0
 15 12  1  0  0  0  0
 16 20  1  0  0  0  0
 17 16  1  0  0  0  0
 18 19  2  0  0  0  0
 18 17  1  0  0  0  0
 19 15  1  0  0  0  0
 21 18  1  0  0  0  0
 22 23  2  0  0  0  0
 23 24  1  0  0  0  0
 23 21  1  0  0  0  0
 24 25  1  0  0  0  0
 26 23  1  0  0  0  0
 27 26  1  0  0  0  0
 28  2  1  0  0  0  0
 29 30  1  0  0  0  0
 30 31  1  0  0  0  0
 31 32  2  0  0  0  0
 31 28  1  0  0  0  0
 32 33  1  0  0  0  0
 34 35  1  0  0  0  0
 34 32  1  0  0  0  0
 36 34  2  0  0  0  0
 37 36  1  0  0  0  0
 38 30  2  0  0  0  0
 38 36  1  0  0  0  0
 39 38  1  0  0  0  0
M  END
>  <minimizedAffinity>
-5.78045464

$$$$

 OpenBabel03252507483D

 39 41  0  0  0  0  0  0  0  0999 V2000
   39.5930   28.5670   42.9630 C   0  0  0  0  0  0  0  0  0  0  0  0
   38.8320   27.4150   43.1630 C   0  0  0  0  0  0  0  0  0  0  0  0
   39.4530   26.2110   43.4830 C   0  0  0  0  0  0  0  0  0  0  0  0
   40.8110   26.2070   43.5890 N   0  0  0  0  0  0  0  0  0  0  0  0
   41.5170   27.3470   43.3870 C   0  0  0  0  0  0  0  0  0  0  0  0
   40.9010   28.4810   43.0840 N   0  0  0  0  0  0  0  0  0  0  0  0
   38.8520   25.3270   43.6360 H   0  0  0  0  0  0  0  0  0  0  0  0
   42.6010   27.2630   43.4910 H   0  0  0  0  0  0  0  0  0  0  0  0
   38.8630   29.7950   42.6300 C   0  0  0  0  0  0  0  0  0  0  0  0
   38.1940   30.1260   43.4180 H   0  0  0  0  0  0  0  0  0  0  0  0
   38.1910   29.5220   41.7650 H   0  0  0  0  0  0  0  0  0  0  0  0
   39.7430   30.8910   42.1250 C   0  0  0  0  0  0  0  0  0  0  0  0
   39.8200   31.6880   42.8940 H   0  0  0  0  0  0  0  0  0  0  0  0
   40.7960   30.5620   41.9480 H   0  0  0  0  0  0  0  0  0  0  0  0
   39.2940   31.4760   40.8300 C   0  0  0  0  0  0  0  0  0  0  0  0
   37.9040   31.7390   40.6260 C   0  0  0  0  0  0  0  0  0  0  0  0
   37.8660   32.4350   38.9220 S   0  0  0  0  0  0  0  0  0  0  0  0
   39.7540   32.2490   38.7770 C   0  0  0  0  0  0  0  0  0  0  0  0
   40.0150   31.8030   39.7920 N   0  0  0  0  0  0  0  0  0  0  0  0
   37.0940   31.5630   41.3210 H   0  0  0  0  0  0  0  0  0  0  0  0
   40.4590   32.6200   37.6380 O   0  0  0  0  0  0  0  0  0  0  0  0
   42.9910   31.8620   37.7260 O   0  0  0  0  0  0  0  0  0  0  0  0
   42.0830   33.0830   37.8220 P   0  0  0  0  0  0  0  0  0  0  0  0
   42.4580   34.1570   36.5590 O   0  0  0  0  0  0  0  0  0  0  0  0
   42.2750   33.7480   35.6970 H   0  0  0  0  0  0  0  0  0  0  0  0
   42.2810   33.8960   39.2890 O   0  0  0  0  0  0  0  0  0  0  0  0
   42.3200   33.2320   40.0200 H   0  0  0  0  0  0  0  0  0  0  0  0
   37.0380   27.4710   43.0130 S   0  0  0  0  0  0  0  0  0  0  0  0
   37.6080   25.2500   40.7710 Cl  0  0  0  0  0  0  0  0  0  0  0  0
   36.7420   26.7040   40.3240 C   0  0  0  0  0  0  0  0  0  0  0  0
   36.5150   27.6370   41.3150 C   0  0  0  0  0  0  0  0  0  0  0  0
   35.8360   28.8000   41.0120 C   0  0  0  0  0  0  0  0  0  0  0  0
   35.6080   29.5860   41.7030 H   0  0  0  0  0  0  0  0  0  0  0  0
   35.3740   29.0640   39.7460 C   0  0  0  0  0  0  0  0  0  0  0  0
   34.8340   29.9670   39.4570 H   0  0  0  0  0  0  0  0  0  0  0  0
   35.5960   28.1300   38.7310 C   0  0  0  0  0  0  0  0  0  0  0  0
   35.2500   28.2840   37.6980 H   0  0  0  0  0  0  0  0  0  0  0  0
   36.2750   26.9780   39.0580 C   0  0  0  0  0  0  0  0  0  0  0  0
   36.5690   25.7910   37.8120 Cl  0  0  0  0  0  0  0  0  0  0  0  0
  1  6  2  0  0  0  0
  1  2  1  0  0  0  0
  2  3  2  0  0  0  0
  3  4  1  0  0  0  0
  3  7  1  0  0  0  0
  5  8  1  0  0  0  0
  5  4  2  0  0  0  0
  6  5  1  0  0  0  0
  9  1  1  0  0  0  0
  9 10  1  0  0  0  0
 11  9  1  0  0  0  0
 12  9  1  0  0  0  0
 12 13  1  0  0  0  0
 14 12  1  0  0  0  0
 15 12  1  0  0  0  0
 16 15  2  0  0  0  0
 16 20  1  0  0  0  0
 17 16  1  0  0  0  0
 18 17  1  0  0  0  0
 18 19  2  0  0  0  0
 19 15  1  0  0  0  0
 21 23  1  0  0  0  0
 21 18  1  0  0  0  0
 22 23  2  0  0  0  0
 23 26  1  0  0  0  0
 24 23  1  0  0  0  0
 25 24  1  0  0  0  0
 26 27  1  0  0  0  0
 28  2  1  0  0  0  0
 30 29  1  0  0  0  0
 30 31  1  0  0  0  0
 31 28  1  0  0  0  0
 32 31  2  0  0  0  0
 32 33  1  0  0  0  0
 34 32  1  0  0  0  0
 35 34  1  0  0  0  0
 36 38  1  0  0  0  0
 36 34  2  0  0  0  0
 37 36  1  0  0  0  0
 38 30  2  0  0  0  0
 39 38  1  0  0  0  0
M  END
>  <minimizedAffinity>
-5.74586535

$$$$

 OpenBabel03252507483D

 39 41  0  0  0  0  0  0  0  0999 V2000
   37.4580   29.9260   37.9120 C   0  0  0  0  0  0  0  0  0  0  0  0
   38.4100   28.9230   38.0940 C   0  0  0  0  0  0  0  0  0  0  0  0
   38.6520   27.9950   37.0850 C   0  0  0  0  0  0  0  0  0  0  0  0
   37.9320   28.1070   35.9350 N   0  0  0  0  0  0  0  0  0  0  0  0
   37.0150   29.0960   35.7940 C   0  0  0  0  0  0  0  0  0  0  0  0
   36.8030   29.9680   36.7710 N   0  0  0  0  0  0  0  0  0  0  0  0
   39.3920   27.2230   37.2390 H   0  0  0  0  0  0  0  0  0  0  0  0
   36.4790   29.1200   34.8430 H   0  0  0  0  0  0  0  0  0  0  0  0
   37.2630   30.8640   39.0230 C   0  0  0  0  0  0  0  0  0  0  0  0
   37.7720   30.5660   39.9330 H   0  0  0  0  0  0  0  0  0  0  0  0
   36.1620   30.8180   39.2690 H   0  0  0  0  0  0  0  0  0  0  0  0
   37.5320   32.2870   38.6530 C   0  0  0  0  0  0  0  0  0  0  0  0
   37.4880   32.3960   37.5490 H   0  0  0  0  0  0  0  0  0  0  0  0
   36.7590   32.9940   39.0420 H   0  0  0  0  0  0  0  0  0  0  0  0
   38.8300   32.8070   39.1650 C   0  0  0  0  0  0  0  0  0  0  0  0
   38.8320   33.8990   40.0870 C   0  0  0  0  0  0  0  0  0  0  0  0
   40.6260   34.1600   40.4070 S   0  0  0  0  0  0  0  0  0  0  0  0
   41.0700   32.7350   39.2290 C   0  0  0  0  0  0  0  0  0  0  0  0
   40.0380   32.3960   38.8850 N   0  0  0  0  0  0  0  0  0  0  0  0
   37.9730   34.4240   40.4840 H   0  0  0  0  0  0  0  0  0  0  0  0
   42.3820   32.3510   38.9770 O   0  0  0  0  0  0  0  0  0  0  0  0
   42.8060   31.4010   36.5460 O   0  0  0  0  0  0  0  0  0  0  0  0
   43.0090   32.6310   37.4230 P   0  0  0  0  0  0  0  0  0  0  0  0
   42.1570   33.9410   36.7530 O   0  0  0  0  0  0  0  0  0  0  0  0
   41.2030   33.7610   36.7500 H   0  0  0  0  0  0  0  0  0  0  0  0
   44.6390   33.0590   37.5350 O   0  0  0  0  0  0  0  0  0  0  0  0
   45.1760   32.2400   37.6740 H   0  0  0  0  0  0  0  0  0  0  0  0
   39.3380   28.8150   39.6340 S   0  0  0  0  0  0  0  0  0  0  0  0
   38.5850   25.7000   39.7380 Cl  0  0  0  0  0  0  0  0  0  0  0  0
   38.0300   26.7500   41.0240 C   0  0  0  0  0  0  0  0  0  0  0  0
   38.3730   28.0850   40.9460 C   0  0  0  0  0  0  0  0  0  0  0  0
   37.9600   28.9530   41.9360 C   0  0  0  0  0  0  0  0  0  0  0  0
   38.1710   30.0020   41.9710 H   0  0  0  0  0  0  0  0  0  0  0  0
   37.2110   28.5320   43.0070 C   0  0  0  0  0  0  0  0  0  0  0  0
   36.8600   29.1780   43.8130 H   0  0  0  0  0  0  0  0  0  0  0  0
   36.8550   27.1840   43.1010 C   0  0  0  0  0  0  0  0  0  0  0  0
   36.2560   26.7860   43.9340 H   0  0  0  0  0  0  0  0  0  0  0  0
   37.2790   26.3380   42.1010 C   0  0  0  0  0  0  0  0  0  0  0  0
   36.8500   24.6480   42.1900 Cl  0  0  0  0  0  0  0  0  0  0  0  0
  1  2  1  0  0  0  0
  1  9  1  0  0  0  0
  2 28  1  0  0  0  0
  3  7  1  0  0  0  0
  3  2  2  0  0  0  0
  4  3  1  0  0  0  0
  5  4  2  0  0  0  0
  5  6  1  0  0  0  0
  6  1  2  0  0  0  0
  8  5  1  0  0  0  0
  9 11  1  0  0  0  0
  9 10  1  0  0  0  0
 12  9  1  0  0  0  0
 12 14  1  0  0  0  0
 12 15  1  0  0  0  0
 13 12  1  0  0  0  0
 15 16  2  0  0  0  0
 16 17  1  0  0  0  0
 16 20  1  0  0  0  0
 18 17  1  0  0  0  0
 19 15  1  0  0  0  0
 19 18  2  0  0  0  0
 21 18  1  0  0  0  0
 22 23  2  0  0  0  0
 23 26  1  0  0  0  0
 23 21  1  0  0  0  0
 24 23  1  0  0  0  0
 25 24  1  0  0  0  0
 26 27  1  0  0  0  0
 28 31  1  0  0  0  0
 29 30  1  0  0  0  0
 30 38  1  0  0  0  0
 31 30  2  0  0  0  0
 31 32  1  0  0  0  0
 32 33  1  0  0  0  0
 32 34  2  0  0  0  0
 34 36  1  0  0  0  0
 34 35  1  0  0  0  0
 36 37  1  0  0  0  0
 38 39  1  0  0  0  0
 38 36  2  0  0  0  0
M  END
>  <minimizedAffinity>
-5.66759777

$$$$

 OpenBabel03252507483D

 39 41  0  0  0  0  0  0  0  0999 V2000
   35.5550   28.8820   36.9810 C   0  0  0  0  0  0  0  0  0  0  0  0
   34.6780   28.5390   35.9510 C   0  0  0  0  0  0  0  0  0  0  0  0
   35.1480   28.3990   34.6480 C   0  0  0  0  0  0  0  0  0  0  0  0
   36.4750   28.6080   34.4270 N   0  0  0  0  0  0  0  0  0  0  0  0
   37.2970   28.9400   35.4540 C   0  0  0  0  0  0  0  0  0  0  0  0
   36.8240   29.0670   36.6860 N   0  0  0  0  0  0  0  0  0  0  0  0
   34.4590   28.1340   33.8600 H   0  0  0  0  0  0  0  0  0  0  0  0
   38.3470   29.0900   35.1970 H   0  0  0  0  0  0  0  0  0  0  0  0
   34.9800   29.0090   38.3240 C   0  0  0  0  0  0  0  0  0  0  0  0
   33.8960   29.0400   38.3290 H   0  0  0  0  0  0  0  0  0  0  0  0
   35.3090   30.0220   38.6990 H   0  0  0  0  0  0  0  0  0  0  0  0
   35.5310   28.0220   39.3020 C   0  0  0  0  0  0  0  0  0  0  0  0
   34.6950   27.4680   39.7780 H   0  0  0  0  0  0  0  0  0  0  0  0
   36.1610   27.2340   38.8210 H   0  0  0  0  0  0  0  0  0  0  0  0
   36.3990   28.6300   40.3480 C   0  0  0  0  0  0  0  0  0  0  0  0
   36.3300   28.1380   41.6880 C   0  0  0  0  0  0  0  0  0  0  0  0
   37.5580   29.1860   42.5730 S   0  0  0  0  0  0  0  0  0  0  0  0
   37.9590   30.1180   40.9640 C   0  0  0  0  0  0  0  0  0  0  0  0
   37.2640   29.6000   40.2240 N   0  0  0  0  0  0  0  0  0  0  0  0
   35.7000   27.3410   42.0630 H   0  0  0  0  0  0  0  0  0  0  0  0
   38.8940   31.1450   40.9050 O   0  0  0  0  0  0  0  0  0  0  0  0
   38.8660   32.9830   39.0050 O   0  0  0  0  0  0  0  0  0  0  0  0
   38.3610   32.6800   40.4110 P   0  0  0  0  0  0  0  0  0  0  0  0
   36.6610   32.6550   40.3990 O   0  0  0  0  0  0  0  0  0  0  0  0
   36.3340   31.9390   39.8310 H   0  0  0  0  0  0  0  0  0  0  0  0
   38.8690   33.8450   41.5230 O   0  0  0  0  0  0  0  0  0  0  0  0
   39.8210   34.0520   41.3580 H   0  0  0  0  0  0  0  0  0  0  0  0
   32.9290   28.2730   36.2930 S   0  0  0  0  0  0  0  0  0  0  0  0
   31.3270   29.7450   38.6490 Cl  0  0  0  0  0  0  0  0  0  0  0  0
   31.2650   30.4140   37.0320 C   0  0  0  0  0  0  0  0  0  0  0  0
   31.9660   29.7540   36.0440 C   0  0  0  0  0  0  0  0  0  0  0  0
   31.9480   30.2430   34.7540 C   0  0  0  0  0  0  0  0  0  0  0  0
   32.4560   29.8100   33.9170 H   0  0  0  0  0  0  0  0  0  0  0  0
   31.2490   31.3750   34.4140 C   0  0  0  0  0  0  0  0  0  0  0  0
   31.2030   31.8010   33.4110 H   0  0  0  0  0  0  0  0  0  0  0  0
   30.5330   32.0560   35.4030 C   0  0  0  0  0  0  0  0  0  0  0  0
   29.9540   32.9670   35.1930 H   0  0  0  0  0  0  0  0  0  0  0  0
   30.5660   31.5480   36.6820 C   0  0  0  0  0  0  0  0  0  0  0  0
   29.6820   32.3750   37.9400 Cl  0  0  0  0  0  0  0  0  0  0  0  0
  1  9  1  0  0  0  0
  2 28  1  0  0  0  0
  2  1  2  0  0  0  0
  3  2  1  0  0  0  0
  4  3  2  0  0  0  0
  4  5  1  0  0  0  0
  5  6  2  0  0  0  0
  6  1  1  0  0  0  0
  7  3  1  0  0  0  0
  8  5  1  0  0  0  0
  9 10  1  0  0  0  0
  9 11  1  0  0  0  0
  9 12  1  0  0  0  0
 12 13  1  0  0  0  0
 12 15  1  0  0  0  0
 14 12  1  0  0  0  0
 15 16  2  0  0  0  0
 16 20  1  0  0  0  0
 16 17  1  0  0  0  0
 18 17  1  0  0  0  0
 19 15  1  0  0  0  0
 19 18  2  0  0  0  0
 21 18  1  0  0  0  0
 22 23  2  0  0  0  0
 23 21  1  0  0  0  0
 23 26  1  0  0  0  0
 24 23  1  0  0  0  0
 25 24  1  0  0  0  0
 27 26  1  0  0  0  0
 30 29  1  0  0  0  0
 31 28  1  0  0  0  0
 31 30  2  0  0  0  0
 32 31  1  0  0  0  0
 33 32  1  0  0  0  0
 34 32  2  0  0  0  0
 34 36  1  0  0  0  0
 35 34  1  0  0  0  0
 36 38  2  0  0  0  0
 37 36  1  0  0  0  0
 38 30  1  0  0  0  0
 38 39  1  0  0  0  0
M  END
>  <minimizedAffinity>
-5.59809494

$$$$

 OpenBabel03252507483D

 39 41  0  0  0  0  0  0  0  0999 V2000
   40.1940   31.8850   41.3100 C   0  0  0  0  0  0  0  0  0  0  0  0
   39.4300   32.6430   40.4230 C   0  0  0  0  0  0  0  0  0  0  0  0
   40.0430   33.5710   39.5850 C   0  0  0  0  0  0  0  0  0  0  0  0
   41.3950   33.7040   39.6700 N   0  0  0  0  0  0  0  0  0  0  0  0
   42.1050   32.9500   40.5450 C   0  0  0  0  0  0  0  0  0  0  0  0
   41.4970   32.0730   41.3320 N   0  0  0  0  0  0  0  0  0  0  0  0
   39.4390   34.1510   38.9030 H   0  0  0  0  0  0  0  0  0  0  0  0
   43.1840   33.1150   40.5530 H   0  0  0  0  0  0  0  0  0  0  0  0
   39.4730   30.9290   42.1580 C   0  0  0  0  0  0  0  0  0  0  0  0
   38.4190   31.1620   42.2700 H   0  0  0  0  0  0  0  0  0  0  0  0
   39.9150   31.0450   43.1900 H   0  0  0  0  0  0  0  0  0  0  0  0
   39.7090   29.5030   41.7780 C   0  0  0  0  0  0  0  0  0  0  0  0
   39.7540   29.4180   40.6720 H   0  0  0  0  0  0  0  0  0  0  0  0
   40.6920   29.1120   42.1360 H   0  0  0  0  0  0  0  0  0  0  0  0
   38.6920   28.5590   42.3210 C   0  0  0  0  0  0  0  0  0  0  0  0
   37.8130   28.9990   43.3590 C   0  0  0  0  0  0  0  0  0  0  0  0
   36.7780   27.5100   43.6740 S   0  0  0  0  0  0  0  0  0  0  0  0
   37.7190   26.5410   42.3350 C   0  0  0  0  0  0  0  0  0  0  0  0
   38.4670   27.3210   41.9750 N   0  0  0  0  0  0  0  0  0  0  0  0
   37.7860   29.9740   43.8270 H   0  0  0  0  0  0  0  0  0  0  0  0
   37.4240   25.2190   42.0190 O   0  0  0  0  0  0  0  0  0  0  0  0
   39.6400   24.0470   42.8580 O   0  0  0  0  0  0  0  0  0  0  0  0
   38.7170   24.1800   41.6530 P   0  0  0  0  0  0  0  0  0  0  0  0
   38.0630   22.6570   41.2790 O   0  0  0  0  0  0  0  0  0  0  0  0
   37.5120   22.3330   42.0100 H   0  0  0  0  0  0  0  0  0  0  0  0
   39.5410   24.7530   40.2940 O   0  0  0  0  0  0  0  0  0  0  0  0
   40.1320   25.4970   40.5690 H   0  0  0  0  0  0  0  0  0  0  0  0
   37.6420   32.4300   40.3480 S   0  0  0  0  0  0  0  0  0  0  0  0
   35.6580   29.9480   40.7810 Cl  0  0  0  0  0  0  0  0  0  0  0  0
   36.3050   30.2480   39.1830 C   0  0  0  0  0  0  0  0  0  0  0  0
   37.1560   31.3250   39.0340 C   0  0  0  0  0  0  0  0  0  0  0  0
   37.6920   31.6020   37.7930 C   0  0  0  0  0  0  0  0  0  0  0  0
   38.3600   32.4100   37.5700 H   0  0  0  0  0  0  0  0  0  0  0  0
   37.4070   30.8370   36.6890 C   0  0  0  0  0  0  0  0  0  0  0  0
   37.8050   31.0150   35.6890 H   0  0  0  0  0  0  0  0  0  0  0  0
   36.5480   29.7430   36.8220 C   0  0  0  0  0  0  0  0  0  0  0  0
   36.2810   29.0930   35.9760 H   0  0  0  0  0  0  0  0  0  0  0  0
   36.0260   29.4860   38.0700 C   0  0  0  0  0  0  0  0  0  0  0  0
   34.9490   28.1270   38.2700 Cl  0  0  0  0  0  0  0  0  0  0  0  0
  1  6  1  0  0  0  0
  1  9  1  0  0  0  0
  2  1  2  0  0  0  0
  3  4  2  0  0  0  0
  3  2  1  0  0  0  0
  4  5  1  0  0  0  0
  5  8  1  0  0  0  0
  5  6  2  0  0  0  0
  7  3  1  0  0  0  0
  9 10  1  0  0  0  0
  9 11  1  0  0  0  0
 12 14  1  0  0  0  0
 12  9  1  0  0  0  0
 12 15  1  0  0  0  0
 13 12  1  0  0  0  0
 15 16  2  0  0  0  0
 16 17  1  0  0  0  0
 16 20  1  0  0  0  0
 18 17  1  0  0  0  0
 19 15  1  0  0  0  0
 19 18  2  0  0  0  0
 21 18  1  0  0  0  0
 23 21  1  0  0  0  0
 23 22  2  0  0  0  0
 24 23  1  0  0  0  0
 24 25  1  0  0  0  0
 26 27  1  0  0  0  0
 26 23  1  0  0  0  0
 28  2  1  0  0  0  0
 30 29  1  0  0  0  0
 31 30  1  0  0  0  0
 31 28  1  0  0  0  0
 32 31  2  0  0  0  0
 33 32  1  0  0  0  0
 34 36  2  0  0  0  0
 34 32  1  0  0  0  0
 35 34  1  0  0  0  0
 36 38  1  0  0  0  0
 37 36  1  0  0  0  0
 38 39  1  0  0  0  0
 38 30  2  0  0  0  0
M  END
>  <minimizedAffinity>
-5.57861948

$$$$
