
 OpenBabel03242517433D

 21 22  0  0  0  0  0  0  0  0999 V2000
   43.7330   33.5470   38.8070 Cl  0  0  0  0  0  0  0  0  0  0  0  0
   42.4480   34.1790   39.8230 C   0  0  0  0  0  0  0  0  0  0  0  0
   42.6940   34.8980   40.9780 C   0  0  0  0  0  0  0  0  0  0  0  0
   41.6130   35.3630   41.7260 C   0  0  0  0  0  0  0  0  0  0  0  0
   41.8640   35.9240   42.6290 H   0  0  0  0  0  0  0  0  0  0  0  0
   40.3170   35.1120   41.3230 C   0  0  0  0  0  0  0  0  0  0  0  0
   39.5160   35.5060   41.9540 H   0  0  0  0  0  0  0  0  0  0  0  0
   40.0560   34.3940   40.1670 C   0  0  0  0  0  0  0  0  0  0  0  0
   39.0210   34.2290   39.9000 H   0  0  0  0  0  0  0  0  0  0  0  0
   41.1380   33.9400   39.4360 C   0  0  0  0  0  0  0  0  0  0  0  0
   40.7140   33.0420   37.9920 Cl  0  0  0  0  0  0  0  0  0  0  0  0
   44.4120   35.1540   41.3940 S   0  0  0  0  0  0  0  0  0  0  0  0
   44.4040   35.7410   44.1130 C   0  0  0  0  0  0  0  0  0  0  0  0
   44.7240   34.7840   43.1150 C   0  0  0  0  0  0  0  0  0  0  0  0
   45.2760   33.5760   43.5200 C   0  0  0  0  0  0  0  0  0  0  0  0
   45.4910   33.3510   44.8420 N   0  0  0  0  0  0  0  0  0  0  0  0
   45.1730   34.2880   45.7680 C   0  0  0  0  0  0  0  0  0  0  0  0
   44.6420   35.4590   45.4120 N   0  0  0  0  0  0  0  0  0  0  0  0
   43.9800   36.6670   43.7790 H   0  0  0  0  0  0  0  0  0  0  0  0
   45.5200   32.8470   42.7660 H   0  0  0  0  0  0  0  0  0  0  0  0
   45.3930   33.9830   46.7670 H   0  0  0  0  0  0  0  0  0  0  0  0
  1  2  1  0  0  0  0
  2  3  1  0  0  0  0
  3 12  1  0  0  0  0
  3  4  2  0  0  0  0
  4  5  1  0  0  0  0
  6  4  1  0  0  0  0
  6  7  1  0  0  0  0
  8  6  2  0  0  0  0
  9  8  1  0  0  0  0
 10  2  2  0  0  0  0
 10  8  1  0  0  0  0
 11 10  1  0  0  0  0
 12 14  1  0  0  0  0
 13 18  1  0  0  0  0
 14 15  1  0  0  0  0
 14 13  2  0  0  0  0
 15 16  2  0  0  0  0
 16 17  1  0  0  0  0
 17 21  1  0  0  0  0
 18 17  2  0  0  0  0
 19 13  1  0  0  0  0
 20 15  1  0  0  0  0
M  END
>  <minimizedAffinity>
-4.44237518

>  <minimizedRMSD>
0.6035496

$$$$
