
 OpenBabel03242510223D

 40 43  0  0  1  0  0  0  0  0999 V2000
   48.0020   33.2490   43.0970 N   0  0  0  0  0  0  0  0  0  0  0  0
   49.2310   33.3750   42.4540 C   0  0  0  0  0  0  0  0  0  0  0  0
   50.3930   33.0900   42.8450 O   0  0  0  0  0  0  0  0  0  0  0  0
   47.3900   34.0790   42.9380 H   0  0  0  0  0  0  0  0  0  0  0  0
   46.2940   32.1180   44.4730 C   0  0  1  0  0  0  0  0  0  0  0  0
   46.4070   31.3620   43.3060 C   0  0  0  0  0  0  0  0  0  0  0  0
   47.6480   32.1130   43.8720 C   0  0  1  0  0  0  0  0  0  0  0  0
   46.1560   31.6610   45.4920 H   0  0  0  0  0  0  0  0  0  0  0  0
   46.4320   30.2310   43.3950 H   0  0  0  0  0  0  0  0  0  0  0  0
   46.0860   31.6370   42.2850 H   0  0  0  0  0  0  0  0  0  0  0  0
   48.4360   31.3820   44.1540 H   0  0  0  0  0  0  0  0  0  0  0  0
   45.0350   33.9860   43.1740 C   0  0  0  0  0  0  0  0  0  0  0  0
   45.5400   33.4520   44.4050 C   0  0  0  0  0  0  0  0  0  0  0  0
   45.3430   34.1990   45.5490 C   0  0  0  0  0  0  0  0  0  0  0  0
   44.6950   35.3810   45.4590 N   0  0  0  0  0  0  0  0  0  0  0  0
   44.2230   35.8730   44.2870 C   0  0  0  0  0  0  0  0  0  0  0  0
   44.4040   35.1430   43.1050 N   0  0  0  0  0  0  0  0  0  0  0  0
   45.1650   33.3990   42.2860 H   0  0  0  0  0  0  0  0  0  0  0  0
   45.6980   33.8540   46.5050 H   0  0  0  0  0  0  0  0  0  0  0  0
   43.7030   36.8210   44.2160 H   0  0  0  0  0  0  0  0  0  0  0  0
   49.2790   33.9370   41.0450 C   0  0  2  0  0  0  0  0  0  0  0  0
   48.5760   35.3270   40.8270 C   0  0  0  0  0  0  0  0  0  0  0  0
   48.0620   34.0580   40.2320 C   0  0  1  0  0  0  0  0  0  0  0  0
   50.2610   33.9500   40.5320 H   0  0  0  0  0  0  0  0  0  0  0  0
   48.0620   35.7060   41.7420 H   0  0  0  0  0  0  0  0  0  0  0  0
   49.0300   36.0310   40.1380 H   0  0  0  0  0  0  0  0  0  0  0  0
   47.1510   33.5640   40.6290 H   0  0  0  0  0  0  0  0  0  0  0  0
   48.2050   33.8760   38.7370 C   0  0  0  0  0  0  0  0  0  0  0  0
   48.3890   34.8560   38.0290 O   0  0  0  0  0  0  0  0  0  0  0  0
   45.4390   33.1230   37.9360 Cl  0  0  0  0  0  0  0  0  0  0  0  0
   46.8820   32.1390   37.7090 C   0  0  0  0  0  0  0  0  0  0  0  0
   48.1310   32.5610   38.1110 C   0  0  0  0  0  0  0  0  0  0  0  0
   49.1750   31.6970   37.8760 C   0  0  0  0  0  0  0  0  0  0  0  0
   50.1520   32.0270   38.1890 H   0  0  0  0  0  0  0  0  0  0  0  0
   48.9910   30.4720   37.2720 C   0  0  0  0  0  0  0  0  0  0  0  0
   49.8990   29.8630   37.1350 H   0  0  0  0  0  0  0  0  0  0  0  0
   47.7440   30.0430   36.8680 C   0  0  0  0  0  0  0  0  0  0  0  0
   47.6360   29.0800   36.4000 H   0  0  0  0  0  0  0  0  0  0  0  0
   46.6840   30.8970   37.0960 C   0  0  0  0  0  0  0  0  0  0  0  0
   45.0840   30.3840   36.5960 Cl  0  0  0  0  0  0  0  0  0  0  0  0
  1  7  1  0  0  0  0
  2  3  2  0  0  0  0
  2  1  1  0  0  0  0
  4  1  1  0  0  0  0
  5  8  1  1  0  0  0
  6  9  1  0  0  0  0
  6  7  1  0  0  0  0
  6  5  1  0  0  0  0
  7 11  1  1  0  0  0
  7  5  1  0  0  0  0
 10  6  1  0  0  0  0
 12 13  1  0  0  0  0
 13  5  1  0  0  0  0
 13 14  2  0  0  0  0
 14 19  1  0  0  0  0
 15 14  1  0  0  0  0
 16 15  2  0  0  0  0
 17 12  2  0  0  0  0
 17 16  1  0  0  0  0
 18 12  1  0  0  0  0
 20 16  1  0  0  0  0
 21 24  1  6  0  0  0
 21  2  1  0  0  0  0
 22 21  1  0  0  0  0
 22 25  1  0  0  0  0
 23 27  1  1  0  0  0
 23 22  1  0  0  0  0
 23 21  1  0  0  0  0
 26 22  1  0  0  0  0
 28 23  1  0  0  0  0
 29 28  2  0  0  0  0
 31 30  1  0  0  0  0
 31 32  1  0  0  0  0
 32 28  1  0  0  0  0
 33 32  2  0  0  0  0
 33 34  1  0  0  0  0
 35 33  1  0  0  0  0
 36 35  1  0  0  0  0
 37 39  1  0  0  0  0
 37 35  2  0  0  0  0
 38 37  1  0  0  0  0
 39 31  2  0  0  0  0
 40 39  1  0  0  0  0
M  END
>  <minimizedAffinity>
-4.67843628

>  <minimizedRMSD>
1.61799502

$$$$
