
 OpenBabel03252507103D

 38 40  0  0  1  0  0  0  0  0999 V2000
   40.5540   29.3370   37.6240 C   0  0  0  0  0  0  0  0  0  0  0  0
   39.4060   30.0870   37.9490 C   0  0  0  0  0  0  0  0  0  0  0  0
   39.5540   31.4710   37.9960 C   0  0  0  0  0  0  0  0  0  0  0  0
   40.7540   32.0190   37.7360 N   0  0  0  0  0  0  0  0  0  0  0  0
   41.8310   31.2900   37.4280 C   0  0  0  0  0  0  0  0  0  0  0  0
   41.7290   29.9360   37.3720 N   0  0  0  0  0  0  0  0  0  0  0  0
   40.5100   28.2570   37.5690 H   0  0  0  0  0  0  0  0  0  0  0  0
   38.4980   29.5310   38.1390 H   0  0  0  0  0  0  0  0  0  0  0  0
   43.3500   33.2850   37.4880 C   0  0  1  0  0  0  0  0  0  0  0  0
   43.1680   31.8370   37.1450 C   0  0  1  0  0  0  0  0  0  0  0  0
   44.1870   31.2360   38.1450 C   0  0  0  0  0  0  0  0  0  0  0  0
   45.1860   32.1500   38.2830 O   0  0  0  0  0  0  0  0  0  0  0  0
   44.8720   33.3100   37.5840 C   0  0  0  0  0  0  0  0  0  0  0  0
   42.9630   33.4420   38.5210 H   0  0  0  0  0  0  0  0  0  0  0  0
   43.5160   31.6320   36.1180 H   0  0  0  0  0  0  0  0  0  0  0  0
   44.5910   30.3280   37.6460 H   0  0  0  0  0  0  0  0  0  0  0  0
   43.6880   30.9180   39.0620 H   0  0  0  0  0  0  0  0  0  0  0  0
   45.2730   33.3200   36.5650 H   0  0  0  0  0  0  0  0  0  0  0  0
   45.2160   34.1700   38.2010 H   0  0  0  0  0  0  0  0  0  0  0  0
   42.8210   34.1610   36.5890 O   0  0  0  0  0  0  0  0  0  0  0  0
   42.4750   34.9650   37.0880 H   0  0  0  0  0  0  0  0  0  0  0  0
   38.4190   32.1990   38.3180 O   0  0  0  0  0  0  0  0  0  0  0  0
   39.5230   33.7650   40.1680 O   0  0  0  0  0  0  0  0  0  0  0  0
   38.2810   32.9240   39.8700 P   0  0  1  0  0  0  0  0  0  0  0  0
   36.9000   33.8580   39.8790 O   0  0  0  0  0  0  0  0  0  0  0  0
   37.0970   34.7140   39.3970 H   0  0  0  0  0  0  0  0  0  0  0  0
   38.2070   31.6560   40.9840 O   0  0  0  0  0  0  0  0  0  0  0  0
   39.1060   29.6790   42.9150 Cl  0  0  0  0  0  0  0  0  0  0  0  0
   37.6770   29.6220   41.8870 C   0  0  0  0  0  0  0  0  0  0  0  0
   37.3050   30.6130   40.9770 C   0  0  0  0  0  0  0  0  0  0  0  0
   36.1580   30.4500   40.2280 C   0  0  0  0  0  0  0  0  0  0  0  0
   35.9620   31.2740   39.5560 H   0  0  0  0  0  0  0  0  0  0  0  0
   35.3690   29.3470   40.3440 C   0  0  0  0  0  0  0  0  0  0  0  0
   34.4840   29.2500   39.7470 H   0  0  0  0  0  0  0  0  0  0  0  0
   35.7710   28.3890   41.2540 C   0  0  0  0  0  0  0  0  0  0  0  0
   35.1470   27.5040   41.3560 H   0  0  0  0  0  0  0  0  0  0  0  0
   36.8970   28.4740   42.0400 C   0  0  0  0  0  0  0  0  0  0  0  0
   37.3090   27.1960   43.1620 Cl  0  0  0  0  0  0  0  0  0  0  0  0
  1  2  1  0  0  0  0
  2  3  2  0  0  0  0
  2  8  1  0  0  0  0
  3 22  1  0  0  0  0
  4  3  1  0  0  0  0
  5  4  2  0  0  0  0
  6  5  1  0  0  0  0
  6  1  2  0  0  0  0
  7  1  1  0  0  0  0
  9 13  1  0  0  0  0
  9 14  1  1  0  0  0
 10 15  1  6  0  0  0
 10  5  1  0  0  0  0
 10  9  1  0  0  0  0
 10 11  1  0  0  0  0
 11 12  1  0  0  0  0
 11 17  1  0  0  0  0
 13 19  1  0  0  0  0
 13 12  1  0  0  0  0
 16 11  1  0  0  0  0
 18 13  1  0  0  0  0
 20 21  1  0  0  0  0
 20  9  1  0  0  0  0
 22 24  1  0  0  0  0
 24 25  1  0  0  0  0
 24 23  2  1  0  0  0
 24 27  1  0  0  0  0
 26 25  1  0  0  0  0
 29 37  1  0  0  0  0
 29 28  1  0  0  0  0
 30 27  1  0  0  0  0
 30 29  2  0  0  0  0
 31 33  2  0  0  0  0
 31 30  1  0  0  0  0
 32 31  1  0  0  0  0
 33 35  1  0  0  0  0
 34 33  1  0  0  0  0
 35 36  1  0  0  0  0
 35 37  2  0  0  0  0
 37 38  1  0  0  0  0
M  END
>  <minimizedAffinity>
-6.34114408

$$$$

 OpenBabel03252507103D

 38 40  0  0  1  0  0  0  0  0999 V2000
   39.5440   33.9360   39.9850 C   0  0  0  0  0  0  0  0  0  0  0  0
   38.2790   33.3240   40.0860 C   0  0  0  0  0  0  0  0  0  0  0  0
   38.0420   32.2340   39.2510 C   0  0  0  0  0  0  0  0  0  0  0  0
   39.0040   31.8230   38.4070 N   0  0  0  0  0  0  0  0  0  0  0  0
   40.1990   32.4180   38.3280 C   0  0  0  0  0  0  0  0  0  0  0  0
   40.4700   33.4840   39.1250 N   0  0  0  0  0  0  0  0  0  0  0  0
   39.7950   34.7870   40.6050 H   0  0  0  0  0  0  0  0  0  0  0  0
   37.5880   33.7470   40.8020 H   0  0  0  0  0  0  0  0  0  0  0  0
   42.4860   32.9100   37.4210 C   0  0  1  0  0  0  0  0  0  0  0  0
   41.2830   32.0160   37.4150 C   0  0  1  0  0  0  0  0  0  0  0  0
   41.9530   30.7280   37.9560 C   0  0  0  0  0  0  0  0  0  0  0  0
   43.2390   30.7390   37.5090 O   0  0  0  0  0  0  0  0  0  0  0  0
   43.5040   31.9320   36.8450 C   0  0  0  0  0  0  0  0  0  0  0  0
   42.7770   33.0850   38.4830 H   0  0  0  0  0  0  0  0  0  0  0  0
   40.9390   31.8300   36.3840 H   0  0  0  0  0  0  0  0  0  0  0  0
   41.4080   29.8870   37.4760 H   0  0  0  0  0  0  0  0  0  0  0  0
   41.8150   30.6440   39.0360 H   0  0  0  0  0  0  0  0  0  0  0  0
   43.3370   31.8700   35.7650 H   0  0  0  0  0  0  0  0  0  0  0  0
   44.5400   32.2350   37.1140 H   0  0  0  0  0  0  0  0  0  0  0  0
   42.3460   34.0680   36.7170 O   0  0  0  0  0  0  0  0  0  0  0  0
   42.8610   34.7950   37.1870 H   0  0  0  0  0  0  0  0  0  0  0  0
   36.7940   31.6400   39.3570 O   0  0  0  0  0  0  0  0  0  0  0  0
   35.1470   29.5600   39.1240 O   0  0  0  0  0  0  0  0  0  0  0  0
   36.5620   30.0340   38.7900 P   0  0  1  0  0  0  0  0  0  0  0  0
   36.8300   30.0270   37.1450 O   0  0  0  0  0  0  0  0  0  0  0  0
   36.0190   30.4000   36.6930 H   0  0  0  0  0  0  0  0  0  0  0  0
   37.6680   29.0690   39.6270 O   0  0  0  0  0  0  0  0  0  0  0  0
   37.1100   26.2180   39.5730 Cl  0  0  0  0  0  0  0  0  0  0  0  0
   37.2830   27.2640   40.9790 C   0  0  0  0  0  0  0  0  0  0  0  0
   37.5520   28.6340   40.9290 C   0  0  0  0  0  0  0  0  0  0  0  0
   37.6660   29.3460   42.1050 C   0  0  0  0  0  0  0  0  0  0  0  0
   37.8740   30.3950   41.9550 H   0  0  0  0  0  0  0  0  0  0  0  0
   37.5220   28.7560   43.3240 C   0  0  0  0  0  0  0  0  0  0  0  0
   37.6150   29.3380   44.2200 H   0  0  0  0  0  0  0  0  0  0  0  0
   37.2560   27.4010   43.3310 C   0  0  0  0  0  0  0  0  0  0  0  0
   37.1400   26.9200   44.2990 H   0  0  0  0  0  0  0  0  0  0  0  0
   37.1280   26.6180   42.2070 C   0  0  0  0  0  0  0  0  0  0  0  0
   36.7890   24.9060   42.3360 Cl  0  0  0  0  0  0  0  0  0  0  0  0
  1  2  1  0  0  0  0
  1  7  1  0  0  0  0
  2  8  1  0  0  0  0
  3 22  1  0  0  0  0
  3  2  2  0  0  0  0
  4  3  1  0  0  0  0
  5  4  2  0  0  0  0
  5  6  1  0  0  0  0
  6  1  2  0  0  0  0
  9 14  1  1  0  0  0
 10 15  1  6  0  0  0
 10  9  1  0  0  0  0
 10 11  1  0  0  0  0
 10  5  1  0  0  0  0
 11 17  1  0  0  0  0
 12 11  1  0  0  0  0
 13 19  1  0  0  0  0
 13  9  1  0  0  0  0
 13 12  1  0  0  0  0
 16 11  1  0  0  0  0
 18 13  1  0  0  0  0
 20 21  1  0  0  0  0
 20  9  1  0  0  0  0
 24 23  2  1  0  0  0
 24 22  1  0  0  0  0
 24 27  1  0  0  0  0
 25 24  1  0  0  0  0
 26 25  1  0  0  0  0
 27 30  1  0  0  0  0
 28 29  1  0  0  0  0
 29 37  1  0  0  0  0
 30 29  2  0  0  0  0
 30 31  1  0  0  0  0
 31 33  2  0  0  0  0
 32 31  1  0  0  0  0
 33 35  1  0  0  0  0
 33 34  1  0  0  0  0
 35 36  1  0  0  0  0
 37 38  1  0  0  0  0
 37 35  2  0  0  0  0
M  END
>  <minimizedAffinity>
-6.11295557

$$$$

 OpenBabel03252507103D

 38 40  0  0  1  0  0  0  0  0999 V2000
   39.6180   34.1580   39.9680 C   0  0  0  0  0  0  0  0  0  0  0  0
   38.3700   33.5070   40.0260 C   0  0  0  0  0  0  0  0  0  0  0  0
   38.2280   32.3540   39.2560 C   0  0  0  0  0  0  0  0  0  0  0  0
   39.2600   31.9230   38.5100 N   0  0  0  0  0  0  0  0  0  0  0  0
   40.4380   32.5560   38.4700 C   0  0  0  0  0  0  0  0  0  0  0  0
   40.6170   33.6840   39.2060 N   0  0  0  0  0  0  0  0  0  0  0  0
   39.7970   35.0580   40.5410 H   0  0  0  0  0  0  0  0  0  0  0  0
   37.6170   33.9510   40.6620 H   0  0  0  0  0  0  0  0  0  0  0  0
   42.7050   33.1380   37.5670 C   0  0  1  0  0  0  0  0  0  0  0  0
   41.5960   32.1340   37.6640 C   0  0  1  0  0  0  0  0  0  0  0  0
   42.3620   31.0190   38.4170 C   0  0  0  0  0  0  0  0  0  0  0  0
   43.6590   31.0930   38.0120 O   0  0  0  0  0  0  0  0  0  0  0  0
   43.8380   32.1930   37.1800 C   0  0  0  0  0  0  0  0  0  0  0  0
   42.9290   33.4990   38.5970 H   0  0  0  0  0  0  0  0  0  0  0  0
   41.3180   31.7610   36.6630 H   0  0  0  0  0  0  0  0  0  0  0  0
   41.9220   30.0630   38.0570 H   0  0  0  0  0  0  0  0  0  0  0  0
   42.1830   31.0840   39.4920 H   0  0  0  0  0  0  0  0  0  0  0  0
   43.7270   31.9530   36.1180 H   0  0  0  0  0  0  0  0  0  0  0  0
   44.8270   32.6370   37.4310 H   0  0  0  0  0  0  0  0  0  0  0  0
   42.4860   34.1560   36.6890 O   0  0  0  0  0  0  0  0  0  0  0  0
   42.9070   34.9940   37.0560 H   0  0  0  0  0  0  0  0  0  0  0  0
   36.9970   31.7220   39.3200 O   0  0  0  0  0  0  0  0  0  0  0  0
   38.0550   30.1420   41.1850 O   0  0  0  0  0  0  0  0  0  0  0  0
   36.7600   30.4230   40.4200 P   0  0  1  0  0  0  0  0  0  0  0  0
   35.5250   30.8470   41.4570 O   0  0  0  0  0  0  0  0  0  0  0  0
   35.8920   31.4780   42.1410 H   0  0  0  0  0  0  0  0  0  0  0  0
   36.3790   29.0690   39.4850 O   0  0  0  0  0  0  0  0  0  0  0  0
   37.9000   29.1280   37.0090 Cl  0  0  0  0  0  0  0  0  0  0  0  0
   36.1520   29.0490   37.2080 C   0  0  0  0  0  0  0  0  0  0  0  0
   35.4860   29.0250   38.4360 C   0  0  0  0  0  0  0  0  0  0  0  0
   34.1080   28.9620   38.4590 C   0  0  0  0  0  0  0  0  0  0  0  0
   33.6950   28.9470   39.4570 H   0  0  0  0  0  0  0  0  0  0  0  0
   33.3670   28.9240   37.3170 C   0  0  0  0  0  0  0  0  0  0  0  0
   32.2980   28.8760   37.3700 H   0  0  0  0  0  0  0  0  0  0  0  0
   34.0620   28.9510   36.1250 C   0  0  0  0  0  0  0  0  0  0  0  0
   33.4800   28.9200   35.2070 H   0  0  0  0  0  0  0  0  0  0  0  0
   35.4320   29.0120   36.0130 C   0  0  0  0  0  0  0  0  0  0  0  0
   36.2060   29.0410   34.4440 Cl  0  0  0  0  0  0  0  0  0  0  0  0
  1  2  1  0  0  0  0
  1  7  1  0  0  0  0
  2  8  1  0  0  0  0
  3 22  1  0  0  0  0
  3  2  2  0  0  0  0
  4  3  1  0  0  0  0
  5  4  2  0  0  0  0
  5  6  1  0  0  0  0
  6  1  2  0  0  0  0
  9 10  1  0  0  0  0
  9 14  1  1  0  0  0
 10 15  1  6  0  0  0
 10 11  1  0  0  0  0
 10  5  1  0  0  0  0
 11 17  1  0  0  0  0
 12 11  1  0  0  0  0
 13 19  1  0  0  0  0
 13  9  1  0  0  0  0
 13 12  1  0  0  0  0
 16 11  1  0  0  0  0
 18 13  1  0  0  0  0
 20 21  1  0  0  0  0
 20  9  1  0  0  0  0
 22 24  1  0  0  0  0
 24 23  2  1  0  0  0
 24 25  1  0  0  0  0
 25 26  1  0  0  0  0
 27 24  1  0  0  0  0
 28 29  1  0  0  0  0
 29 30  1  0  0  0  0
 30 31  2  0  0  0  0
 30 27  1  0  0  0  0
 31 32  1  0  0  0  0
 33 34  1  0  0  0  0
 33 31  1  0  0  0  0
 35 33  2  0  0  0  0
 36 35  1  0  0  0  0
 37 35  1  0  0  0  0
 37 29  2  0  0  0  0
 38 37  1  0  0  0  0
M  END
>  <minimizedAffinity>
-6.10435581

$$$$

 OpenBabel03252507103D

 38 40  0  0  1  0  0  0  0  0999 V2000
   40.3080   28.6280   38.0490 C   0  0  0  0  0  0  0  0  0  0  0  0
   39.0520   28.5100   38.6770 C   0  0  0  0  0  0  0  0  0  0  0  0
   38.3500   29.6930   38.9000 C   0  0  0  0  0  0  0  0  0  0  0  0
   38.8850   30.8650   38.5160 N   0  0  0  0  0  0  0  0  0  0  0  0
   40.0800   30.9540   37.9210 C   0  0  0  0  0  0  0  0  0  0  0  0
   40.7960   29.8240   37.6860 N   0  0  0  0  0  0  0  0  0  0  0  0
   40.9070   27.7490   37.8460 H   0  0  0  0  0  0  0  0  0  0  0  0
   38.7290   27.5120   38.9390 H   0  0  0  0  0  0  0  0  0  0  0  0
   40.9940   33.1930   38.5890 C   0  0  1  0  0  0  0  0  0  0  0  0
   40.7160   32.2110   37.4910 C   0  0  1  0  0  0  0  0  0  0  0  0
   42.1790   31.9220   37.0690 C   0  0  0  0  0  0  0  0  0  0  0  0
   42.8800   33.0690   37.2800 O   0  0  0  0  0  0  0  0  0  0  0  0
   42.0700   34.0180   37.8940 C   0  0  0  0  0  0  0  0  0  0  0  0
   41.4970   32.6450   39.4180 H   0  0  0  0  0  0  0  0  0  0  0  0
   40.1940   32.7000   36.6510 H   0  0  0  0  0  0  0  0  0  0  0  0
   42.1360   31.7180   35.9760 H   0  0  0  0  0  0  0  0  0  0  0  0
   42.5540   31.0240   37.5620 H   0  0  0  0  0  0  0  0  0  0  0  0
   41.5750   34.6870   37.1830 H   0  0  0  0  0  0  0  0  0  0  0  0
   42.7000   34.5550   38.6380 H   0  0  0  0  0  0  0  0  0  0  0  0
   39.9120   33.9050   39.0110 O   0  0  0  0  0  0  0  0  0  0  0  0
   40.0000   34.0690   40.0010 H   0  0  0  0  0  0  0  0  0  0  0  0
   37.1160   29.5660   39.5180 O   0  0  0  0  0  0  0  0  0  0  0  0
   38.2540   30.5470   41.7170 O   0  0  0  0  0  0  0  0  0  0  0  0
   36.9570   29.9330   41.1890 P   0  0  1  0  0  0  0  0  0  0  0  0
   35.6750   30.9850   41.3640 O   0  0  0  0  0  0  0  0  0  0  0  0
   35.9820   31.9000   41.1000 H   0  0  0  0  0  0  0  0  0  0  0  0
   36.6940   28.4620   41.9780 O   0  0  0  0  0  0  0  0  0  0  0  0
   36.6340   26.2210   40.1280 Cl  0  0  0  0  0  0  0  0  0  0  0  0
   37.6880   26.4530   41.5200 C   0  0  0  0  0  0  0  0  0  0  0  0
   37.6600   27.5610   42.3700 C   0  0  0  0  0  0  0  0  0  0  0  0
   38.5410   27.6250   43.4290 C   0  0  0  0  0  0  0  0  0  0  0  0
   38.4370   28.5220   44.0230 H   0  0  0  0  0  0  0  0  0  0  0  0
   39.4440   26.6370   43.6800 C   0  0  0  0  0  0  0  0  0  0  0  0
   40.1150   26.7170   44.5120 H   0  0  0  0  0  0  0  0  0  0  0  0
   39.4400   25.5580   42.8180 C   0  0  0  0  0  0  0  0  0  0  0  0
   40.1570   24.7640   43.0080 H   0  0  0  0  0  0  0  0  0  0  0  0
   38.5970   25.4170   41.7390 C   0  0  0  0  0  0  0  0  0  0  0  0
   38.6810   24.0020   40.7120 Cl  0  0  0  0  0  0  0  0  0  0  0  0
  1  2  1  0  0  0  0
  2  3  2  0  0  0  0
  2  8  1  0  0  0  0
  3 22  1  0  0  0  0
  4  3  1  0  0  0  0
  5  4  2  0  0  0  0
  6  5  1  0  0  0  0
  6  1  2  0  0  0  0
  7  1  1  0  0  0  0
  9 20  1  0  0  0  0
  9 14  1  1  0  0  0
 10 15  1  6  0  0  0
 10  5  1  0  0  0  0
 10  9  1  0  0  0  0
 11 12  1  0  0  0  0
 11 10  1  0  0  0  0
 11 17  1  0  0  0  0
 12 13  1  0  0  0  0
 13  9  1  0  0  0  0
 13 19  1  0  0  0  0
 16 11  1  0  0  0  0
 18 13  1  0  0  0  0
 20 21  1  0  0  0  0
 22 24  1  0  0  0  0
 24 25  1  0  0  0  0
 24 23  2  1  0  0  0
 24 27  1  0  0  0  0
 26 25  1  0  0  0  0
 27 30  1  0  0  0  0
 28 29  1  0  0  0  0
 29 37  2  0  0  0  0
 29 30  1  0  0  0  0
 30 31  2  0  0  0  0
 31 33  1  0  0  0  0
 31 32  1  0  0  0  0
 33 34  1  0  0  0  0
 35 36  1  0  0  0  0
 35 33  2  0  0  0  0
 37 35  1  0  0  0  0
 38 37  1  0  0  0  0
M  END
>  <minimizedAffinity>
-5.97924232

$$$$

 OpenBabel03252507103D

 38 40  0  0  1  0  0  0  0  0999 V2000
   34.6230   28.7450   36.0640 C   0  0  0  0  0  0  0  0  0  0  0  0
   35.3690   28.6810   37.2570 C   0  0  0  0  0  0  0  0  0  0  0  0
   34.6770   28.9200   38.4430 C   0  0  0  0  0  0  0  0  0  0  0  0
   33.3610   29.1930   38.3990 N   0  0  0  0  0  0  0  0  0  0  0  0
   32.6710   29.2480   37.2550 C   0  0  0  0  0  0  0  0  0  0  0  0
   33.3100   29.0220   36.0770 N   0  0  0  0  0  0  0  0  0  0  0  0
   35.0980   28.5700   35.1070 H   0  0  0  0  0  0  0  0  0  0  0  0
   36.4230   28.4530   37.1630 H   0  0  0  0  0  0  0  0  0  0  0  0
   30.6810   30.4050   38.2520 C   0  0  1  0  0  0  0  0  0  0  0  0
   31.2350   29.5530   37.1490 C   0  0  1  0  0  0  0  0  0  0  0  0
   31.0070   30.5310   35.9690 C   0  0  0  0  0  0  0  0  0  0  0  0
   29.8860   31.2450   36.2640 O   0  0  0  0  0  0  0  0  0  0  0  0
   29.4370   30.9230   37.5400 C   0  0  0  0  0  0  0  0  0  0  0  0
   31.3610   31.2780   38.3830 H   0  0  0  0  0  0  0  0  0  0  0  0
   30.6080   28.6580   36.9940 H   0  0  0  0  0  0  0  0  0  0  0  0
   30.8060   29.8860   35.0860 H   0  0  0  0  0  0  0  0  0  0  0  0
   31.9110   31.1070   35.7640 H   0  0  0  0  0  0  0  0  0  0  0  0
   28.6890   30.1240   37.5450 H   0  0  0  0  0  0  0  0  0  0  0  0
   29.0760   31.8660   38.0090 H   0  0  0  0  0  0  0  0  0  0  0  0
   30.4380   29.7470   39.4200 O   0  0  0  0  0  0  0  0  0  0  0  0
   30.6280   30.3720   40.1870 H   0  0  0  0  0  0  0  0  0  0  0  0
   35.4200   28.8550   39.6110 O   0  0  0  0  0  0  0  0  0  0  0  0
   36.5360   31.1760   38.9340 O   0  0  0  0  0  0  0  0  0  0  0  0
   36.3520   30.2110   40.1060 P   0  0  1  0  0  0  0  0  0  0  0  0
   35.5580   30.9440   41.3750 O   0  0  0  0  0  0  0  0  0  0  0  0
   34.8030   31.4860   41.0030 H   0  0  0  0  0  0  0  0  0  0  0  0
   37.8660   29.6100   40.5550 O   0  0  0  0  0  0  0  0  0  0  0  0
   38.7810   27.2190   39.1800 Cl  0  0  0  0  0  0  0  0  0  0  0  0
   38.5580   27.4580   40.9100 C   0  0  0  0  0  0  0  0  0  0  0  0
   38.1120   28.6410   41.5040 C   0  0  0  0  0  0  0  0  0  0  0  0
   37.9790   28.7020   42.8760 C   0  0  0  0  0  0  0  0  0  0  0  0
   37.6280   29.6600   43.2320 H   0  0  0  0  0  0  0  0  0  0  0  0
   38.2690   27.6410   43.6790 C   0  0  0  0  0  0  0  0  0  0  0  0
   38.1540   27.7210   44.7410 H   0  0  0  0  0  0  0  0  0  0  0  0
   38.7060   26.4910   43.0540 C   0  0  0  0  0  0  0  0  0  0  0  0
   38.9410   25.6370   43.6850 H   0  0  0  0  0  0  0  0  0  0  0  0
   38.8670   26.3460   41.6950 C   0  0  0  0  0  0  0  0  0  0  0  0
   39.4290   24.8360   41.0110 Cl  0  0  0  0  0  0  0  0  0  0  0  0
  1  6  2  0  0  0  0
  1  2  1  0  0  0  0
  2  3  2  0  0  0  0
  3 22  1  0  0  0  0
  4  3  1  0  0  0  0
  5  4  2  0  0  0  0
  6  5  1  0  0  0  0
  7  1  1  0  0  0  0
  8  2  1  0  0  0  0
  9 14  1  1  0  0  0
  9 20  1  0  0  0  0
 10 15  1  6  0  0  0
 10  5  1  0  0  0  0
 10  9  1  0  0  0  0
 11 12  1  0  0  0  0
 11 10  1  0  0  0  0
 12 13  1  0  0  0  0
 13 18  1  0  0  0  0
 13 19  1  0  0  0  0
 13  9  1  0  0  0  0
 16 11  1  0  0  0  0
 17 11  1  0  0  0  0
 20 21  1  0  0  0  0
 22 24  1  0  0  0  0
 24 23  2  6  0  0  0
 24 27  1  0  0  0  0
 24 25  1  0  0  0  0
 26 25  1  0  0  0  0
 27 30  1  0  0  0  0
 28 29  1  0  0  0  0
 29 30  2  0  0  0  0
 29 37  1  0  0  0  0
 30 31  1  0  0  0  0
 31 32  1  0  0  0  0
 31 33  2  0  0  0  0
 33 34  1  0  0  0  0
 35 33  1  0  0  0  0
 35 36  1  0  0  0  0
 37 35  2  0  0  0  0
 38 37  1  0  0  0  0
M  END
>  <minimizedAffinity>
-5.81960917

$$$$

 OpenBabel03252507103D

 38 40  0  0  1  0  0  0  0  0999 V2000
   38.0480   31.4190   38.0130 C   0  0  0  0  0  0  0  0  0  0  0  0
   37.8080   31.3680   39.4010 C   0  0  0  0  0  0  0  0  0  0  0  0
   36.9200   30.3920   39.8470 C   0  0  0  0  0  0  0  0  0  0  0  0
   36.3450   29.5620   38.9590 N   0  0  0  0  0  0  0  0  0  0  0  0
   36.5890   29.6270   37.6450 C   0  0  0  0  0  0  0  0  0  0  0  0
   37.4480   30.5650   37.1700 N   0  0  0  0  0  0  0  0  0  0  0  0
   38.7280   32.1530   37.5990 H   0  0  0  0  0  0  0  0  0  0  0  0
   38.3300   32.0900   40.0140 H   0  0  0  0  0  0  0  0  0  0  0  0
   36.9510   27.9860   35.7820 C   0  0  1  0  0  0  0  0  0  0  0  0
   35.9790   28.7510   36.6300 C   0  0  1  0  0  0  0  0  0  0  0  0
   35.2970   27.5520   37.3340 C   0  0  0  0  0  0  0  0  0  0  0  0
   35.3090   26.5200   36.4470 O   0  0  0  0  0  0  0  0  0  0  0  0
   36.0180   26.8780   35.3060 C   0  0  0  0  0  0  0  0  0  0  0  0
   37.6940   27.5090   36.4610 H   0  0  0  0  0  0  0  0  0  0  0  0
   35.2320   29.2660   36.0010 H   0  0  0  0  0  0  0  0  0  0  0  0
   34.2460   27.8700   37.5080 H   0  0  0  0  0  0  0  0  0  0  0  0
   35.7550   27.3630   38.3070 H   0  0  0  0  0  0  0  0  0  0  0  0
   35.3820   27.2890   34.5160 H   0  0  0  0  0  0  0  0  0  0  0  0
   36.5970   25.9840   34.9850 H   0  0  0  0  0  0  0  0  0  0  0  0
   37.5360   28.7060   34.7850 O   0  0  0  0  0  0  0  0  0  0  0  0
   38.4800   28.3780   34.6620 H   0  0  0  0  0  0  0  0  0  0  0  0
   36.6900   30.3500   41.2130 O   0  0  0  0  0  0  0  0  0  0  0  0
   39.0390   30.4110   42.4660 O   0  0  0  0  0  0  0  0  0  0  0  0
   37.8030   29.5390   42.2420 P   0  0  1  0  0  0  0  0  0  0  0  0
   37.0250   29.2080   43.6790 O   0  0  0  0  0  0  0  0  0  0  0  0
   36.9980   30.0490   44.2220 H   0  0  0  0  0  0  0  0  0  0  0  0
   38.2710   28.1360   41.4250 O   0  0  0  0  0  0  0  0  0  0  0  0
   37.0740   25.9120   39.9870 Cl  0  0  0  0  0  0  0  0  0  0  0  0
   38.1810   25.8510   41.3550 C   0  0  0  0  0  0  0  0  0  0  0  0
   38.7190   26.9660   42.0010 C   0  0  0  0  0  0  0  0  0  0  0  0
   39.5790   26.7850   43.0650 C   0  0  0  0  0  0  0  0  0  0  0  0
   39.9370   27.7110   43.4910 H   0  0  0  0  0  0  0  0  0  0  0  0
   39.9230   25.5460   43.5130 C   0  0  0  0  0  0  0  0  0  0  0  0
   40.5930   25.4400   44.3430 H   0  0  0  0  0  0  0  0  0  0  0  0
   39.3700   24.4690   42.8490 C   0  0  0  0  0  0  0  0  0  0  0  0
   39.6390   23.4750   43.1980 H   0  0  0  0  0  0  0  0  0  0  0  0
   38.5070   24.5620   41.7810 C   0  0  0  0  0  0  0  0  0  0  0  0
   37.8660   23.1250   41.0150 Cl  0  0  0  0  0  0  0  0  0  0  0  0
  1  2  1  0  0  0  0
  2  3  2  0  0  0  0
  2  8  1  0  0  0  0
  3 22  1  0  0  0  0
  4  3  1  0  0  0  0
  5  4  2  0  0  0  0
  6  5  1  0  0  0  0
  6  1  2  0  0  0  0
  7  1  1  0  0  0  0
  9 14  1  1  0  0  0
  9 10  1  0  0  0  0
 10 15  1  6  0  0  0
 10 11  1  0  0  0  0
 10  5  1  0  0  0  0
 11 16  1  0  0  0  0
 11 17  1  0  0  0  0
 12 11  1  0  0  0  0
 13  9  1  0  0  0  0
 13 12  1  0  0  0  0
 18 13  1  0  0  0  0
 19 13  1  0  0  0  0
 20  9  1  0  0  0  0
 21 20  1  0  0  0  0
 22 24  1  0  0  0  0
 24 23  2  1  0  0  0
 24 25  1  0  0  0  0
 25 26  1  0  0  0  0
 27 30  1  0  0  0  0
 27 24  1  0  0  0  0
 28 29  1  0  0  0  0
 29 37  2  0  0  0  0
 29 30  1  0  0  0  0
 30 31  2  0  0  0  0
 31 32  1  0  0  0  0
 31 33  1  0  0  0  0
 33 34  1  0  0  0  0
 35 36  1  0  0  0  0
 35 33  2  0  0  0  0
 37 35  1  0  0  0  0
 38 37  1  0  0  0  0
M  END
>  <minimizedAffinity>
-5.7568922

$$$$

 OpenBabel03252507103D

 38 40  0  0  1  0  0  0  0  0999 V2000
   41.7600   29.3320   42.9160 C   0  0  0  0  0  0  0  0  0  0  0  0
   41.2830   30.6010   42.5340 C   0  0  0  0  0  0  0  0  0  0  0  0
   39.9110   30.7160   42.3200 C   0  0  0  0  0  0  0  0  0  0  0  0
   39.1220   29.6400   42.4830 N   0  0  0  0  0  0  0  0  0  0  0  0
   39.5950   28.4440   42.8480 C   0  0  0  0  0  0  0  0  0  0  0  0
   40.9270   28.2900   43.0660 N   0  0  0  0  0  0  0  0  0  0  0  0
   42.8150   29.1730   43.1000 H   0  0  0  0  0  0  0  0  0  0  0  0
   42.0170   31.3900   42.4350 H   0  0  0  0  0  0  0  0  0  0  0  0
   37.3640   27.3380   42.5450 C   0  0  1  0  0  0  0  0  0  0  0  0
   38.7790   27.2320   43.0300 C   0  0  1  0  0  0  0  0  0  0  0  0
   39.2720   26.1340   42.0550 C   0  0  0  0  0  0  0  0  0  0  0  0
   38.2030   25.3320   41.7960 O   0  0  0  0  0  0  0  0  0  0  0  0
   37.0600   25.8520   42.3930 C   0  0  0  0  0  0  0  0  0  0  0  0
   37.3870   27.7660   41.5160 H   0  0  0  0  0  0  0  0  0  0  0  0
   38.8110   26.8340   44.0590 H   0  0  0  0  0  0  0  0  0  0  0  0
   40.0320   25.5540   42.6230 H   0  0  0  0  0  0  0  0  0  0  0  0
   39.7690   26.5780   41.1910 H   0  0  0  0  0  0  0  0  0  0  0  0
   36.8730   25.4430   43.3910 H   0  0  0  0  0  0  0  0  0  0  0  0
   36.2170   25.6900   41.6860 H   0  0  0  0  0  0  0  0  0  0  0  0
   36.5200   28.0110   43.3750 O   0  0  0  0  0  0  0  0  0  0  0  0
   35.8490   28.5130   42.8160 H   0  0  0  0  0  0  0  0  0  0  0  0
   39.4510   31.9680   41.9440 O   0  0  0  0  0  0  0  0  0  0  0  0
   39.9730   33.7760   40.0590 O   0  0  0  0  0  0  0  0  0  0  0  0
   39.3770   32.3860   40.2780 P   0  0  1  0  0  0  0  0  0  0  0  0
   40.2140   31.2260   39.4200 O   0  0  0  0  0  0  0  0  0  0  0  0
   41.1930   31.4110   39.5150 H   0  0  0  0  0  0  0  0  0  0  0  0
   37.7380   32.4290   39.8700 O   0  0  0  0  0  0  0  0  0  0  0  0
   37.6830   31.6630   37.0680 Cl  0  0  0  0  0  0  0  0  0  0  0  0
   36.8240   30.9200   38.4140 C   0  0  0  0  0  0  0  0  0  0  0  0
   36.8980   31.3440   39.7420 C   0  0  0  0  0  0  0  0  0  0  0  0
   36.1750   30.6750   40.7080 C   0  0  0  0  0  0  0  0  0  0  0  0
   36.3030   31.0830   41.7010 H   0  0  0  0  0  0  0  0  0  0  0  0
   35.3840   29.6080   40.4100 C   0  0  0  0  0  0  0  0  0  0  0  0
   34.8340   29.1110   41.1840 H   0  0  0  0  0  0  0  0  0  0  0  0
   35.3370   29.2200   39.0860 C   0  0  0  0  0  0  0  0  0  0  0  0
   34.7090   28.3680   38.8370 H   0  0  0  0  0  0  0  0  0  0  0  0
   36.0260   29.8300   38.0630 C   0  0  0  0  0  0  0  0  0  0  0  0
   35.8900   29.2510   36.4170 Cl  0  0  0  0  0  0  0  0  0  0  0  0
  1  6  1  0  0  0  0
  1  7  1  0  0  0  0
  2  1  2  0  0  0  0
  3  4  2  0  0  0  0
  3  2  1  0  0  0  0
  4  5  1  0  0  0  0
  5 10  1  0  0  0  0
  5  6  2  0  0  0  0
  8  2  1  0  0  0  0
  9 14  1  6  0  0  0
  9 10  1  0  0  0  0
  9 20  1  0  0  0  0
 10 15  1  1  0  0  0
 11 16  1  0  0  0  0
 11 10  1  0  0  0  0
 12 11  1  0  0  0  0
 12 13  1  0  0  0  0
 13  9  1  0  0  0  0
 13 18  1  0  0  0  0
 17 11  1  0  0  0  0
 19 13  1  0  0  0  0
 21 20  1  0  0  0  0
 22  3  1  0  0  0  0
 24 23  2  6  0  0  0
 24 22  1  0  0  0  0
 25 26  1  0  0  0  0
 25 24  1  0  0  0  0
 27 24  1  0  0  0  0
 28 29  1  0  0  0  0
 29 30  1  0  0  0  0
 30 27  1  0  0  0  0
 30 31  2  0  0  0  0
 31 32  1  0  0  0  0
 33 31  1  0  0  0  0
 33 34  1  0  0  0  0
 35 33  2  0  0  0  0
 36 35  1  0  0  0  0
 37 29  2  0  0  0  0
 37 35  1  0  0  0  0
 38 37  1  0  0  0  0
M  END
>  <minimizedAffinity>
-5.7454257

$$$$

 OpenBabel03252507103D

 38 40  0  0  1  0  0  0  0  0999 V2000
   36.9590   30.9980   38.1970 C   0  0  0  0  0  0  0  0  0  0  0  0
   36.4900   30.5090   39.4320 C   0  0  0  0  0  0  0  0  0  0  0  0
   37.2430   30.8290   40.5600 C   0  0  0  0  0  0  0  0  0  0  0  0
   38.3560   31.5710   40.4250 N   0  0  0  0  0  0  0  0  0  0  0  0
   38.7830   32.0270   39.2430 C   0  0  0  0  0  0  0  0  0  0  0  0
   38.0770   31.7370   38.1190 N   0  0  0  0  0  0  0  0  0  0  0  0
   36.4220   30.7880   37.2810 H   0  0  0  0  0  0  0  0  0  0  0  0
   35.5820   29.9220   39.4120 H   0  0  0  0  0  0  0  0  0  0  0  0
   41.1140   32.5610   40.0020 C   0  0  1  0  0  0  0  0  0  0  0  0
   39.9990   32.8330   39.0380 C   0  0  1  0  0  0  0  0  0  0  0  0
   40.7030   32.3720   37.7380 C   0  0  0  0  0  0  0  0  0  0  0  0
   42.0270   32.6440   37.8930 O   0  0  0  0  0  0  0  0  0  0  0  0
   42.2710   33.1150   39.1780 C   0  0  0  0  0  0  0  0  0  0  0  0
   41.2590   31.4570   40.0530 H   0  0  0  0  0  0  0  0  0  0  0  0
   39.7980   33.9160   38.9680 H   0  0  0  0  0  0  0  0  0  0  0  0
   40.2900   33.0180   36.9320 H   0  0  0  0  0  0  0  0  0  0  0  0
   40.4430   31.3380   37.5020 H   0  0  0  0  0  0  0  0  0  0  0  0
   42.2420   34.2070   39.2490 H   0  0  0  0  0  0  0  0  0  0  0  0
   43.2390   32.6780   39.5100 H   0  0  0  0  0  0  0  0  0  0  0  0
   40.9650   33.1290   41.2310 O   0  0  0  0  0  0  0  0  0  0  0  0
   41.3580   32.5110   41.9220 H   0  0  0  0  0  0  0  0  0  0  0  0
   36.7740   30.3430   41.7690 O   0  0  0  0  0  0  0  0  0  0  0  0
   38.8850   29.4020   43.0930 O   0  0  0  0  0  0  0  0  0  0  0  0
   37.5380   28.9870   42.4990 P   0  0  1  0  0  0  0  0  0  0  0  0
   36.5150   28.3940   43.6750 O   0  0  0  0  0  0  0  0  0  0  0  0
   36.5880   28.9830   44.4810 H   0  0  0  0  0  0  0  0  0  0  0  0
   37.8120   27.8710   41.2610 O   0  0  0  0  0  0  0  0  0  0  0  0
   36.1680   27.0000   39.0290 Cl  0  0  0  0  0  0  0  0  0  0  0  0
   36.8850   26.0130   40.3000 C   0  0  0  0  0  0  0  0  0  0  0  0
   37.6680   26.5030   41.3480 C   0  0  0  0  0  0  0  0  0  0  0  0
   38.1740   25.6250   42.2830 C   0  0  0  0  0  0  0  0  0  0  0  0
   38.7650   26.1050   43.0490 H   0  0  0  0  0  0  0  0  0  0  0  0
   37.9350   24.2860   42.2220 C   0  0  0  0  0  0  0  0  0  0  0  0
   38.3420   23.6300   42.9650 H   0  0  0  0  0  0  0  0  0  0  0  0
   37.1560   23.8410   41.1720 C   0  0  0  0  0  0  0  0  0  0  0  0
   36.9600   22.7730   41.1120 H   0  0  0  0  0  0  0  0  0  0  0  0
   36.6140   24.6480   40.1970 C   0  0  0  0  0  0  0  0  0  0  0  0
   35.6410   23.9730   38.9090 Cl  0  0  0  0  0  0  0  0  0  0  0  0
  1  2  1  0  0  0  0
  2  3  2  0  0  0  0
  3 22  1  0  0  0  0
  4  3  1  0  0  0  0
  5  4  2  0  0  0  0
  6  1  2  0  0  0  0
  6  5  1  0  0  0  0
  7  1  1  0  0  0  0
  8  2  1  0  0  0  0
  9 14  1  1  0  0  0
  9 20  1  0  0  0  0
 10 15  1  6  0  0  0
 10  5  1  0  0  0  0
 10  9  1  0  0  0  0
 11 12  1  0  0  0  0
 11 10  1  0  0  0  0
 12 13  1  0  0  0  0
 13 18  1  0  0  0  0
 13 19  1  0  0  0  0
 13  9  1  0  0  0  0
 16 11  1  0  0  0  0
 17 11  1  0  0  0  0
 20 21  1  0  0  0  0
 22 24  1  0  0  0  0
 24 23  2  1  0  0  0
 24 25  1  0  0  0  0
 25 26  1  0  0  0  0
 27 30  1  0  0  0  0
 27 24  1  0  0  0  0
 28 29  1  0  0  0  0
 29 30  1  0  0  0  0
 30 31  2  0  0  0  0
 31 32  1  0  0  0  0
 33 31  1  0  0  0  0
 33 34  1  0  0  0  0
 35 33  2  0  0  0  0
 36 35  1  0  0  0  0
 37 29  2  0  0  0  0
 37 35  1  0  0  0  0
 38 37  1  0  0  0  0
M  END
>  <minimizedAffinity>
-5.71756029

$$$$

 OpenBabel03252507103D

 38 40  0  0  1  0  0  0  0  0999 V2000
   37.4020   28.5000   36.3520 C   0  0  0  0  0  0  0  0  0  0  0  0
   36.9170   27.3620   37.0260 C   0  0  0  0  0  0  0  0  0  0  0  0
   36.4240   27.5590   38.3140 C   0  0  0  0  0  0  0  0  0  0  0  0
   36.4310   28.7940   38.8450 N   0  0  0  0  0  0  0  0  0  0  0  0
   36.8960   29.8620   38.1870 C   0  0  0  0  0  0  0  0  0  0  0  0
   37.3850   29.7120   36.9300 N   0  0  0  0  0  0  0  0  0  0  0  0
   37.7990   28.4190   35.3480 H   0  0  0  0  0  0  0  0  0  0  0  0
   36.9650   26.4220   36.4930 H   0  0  0  0  0  0  0  0  0  0  0  0
   37.0270   31.3290   40.2190 C   0  0  1  0  0  0  0  0  0  0  0  0
   36.9370   31.2320   38.7250 C   0  0  1  0  0  0  0  0  0  0  0  0
   38.3010   31.8770   38.3730 C   0  0  0  0  0  0  0  0  0  0  0  0
   38.5570   32.8020   39.3380 O   0  0  0  0  0  0  0  0  0  0  0  0
   37.5800   32.7450   40.3260 C   0  0  0  0  0  0  0  0  0  0  0  0
   37.8370   30.6430   40.5570 H   0  0  0  0  0  0  0  0  0  0  0  0
   36.1290   31.8780   38.3400 H   0  0  0  0  0  0  0  0  0  0  0  0
   38.1400   32.3970   37.4040 H   0  0  0  0  0  0  0  0  0  0  0  0
   39.0630   31.1110   38.2180 H   0  0  0  0  0  0  0  0  0  0  0  0
   36.7540   33.4430   40.1550 H   0  0  0  0  0  0  0  0  0  0  0  0
   38.0910   32.8980   41.3020 H   0  0  0  0  0  0  0  0  0  0  0  0
   35.8540   31.1230   40.8800 O   0  0  0  0  0  0  0  0  0  0  0  0
   36.0520   30.6570   41.7510 H   0  0  0  0  0  0  0  0  0  0  0  0
   35.9500   26.4340   38.9680 O   0  0  0  0  0  0  0  0  0  0  0  0
   36.3250   24.2940   40.5090 O   0  0  0  0  0  0  0  0  0  0  0  0
   37.0590   25.2840   39.6030 P   0  0  1  0  0  0  0  0  0  0  0  0
   37.7840   24.5070   38.3190 O   0  0  0  0  0  0  0  0  0  0  0  0
   37.1430   23.8260   37.9610 H   0  0  0  0  0  0  0  0  0  0  0  0
   38.1660   26.1550   40.5360 O   0  0  0  0  0  0  0  0  0  0  0  0
   39.8270   28.5350   40.4130 Cl  0  0  0  0  0  0  0  0  0  0  0  0
   38.6400   28.1020   41.6400 C   0  0  0  0  0  0  0  0  0  0  0  0
   37.8740   26.9340   41.6350 C   0  0  0  0  0  0  0  0  0  0  0  0
   36.9750   26.7090   42.6570 C   0  0  0  0  0  0  0  0  0  0  0  0
   36.4340   25.7790   42.5570 H   0  0  0  0  0  0  0  0  0  0  0  0
   36.8060   27.5920   43.6790 C   0  0  0  0  0  0  0  0  0  0  0  0
   36.1000   27.3870   44.4590 H   0  0  0  0  0  0  0  0  0  0  0  0
   37.5820   28.7340   43.6490 C   0  0  0  0  0  0  0  0  0  0  0  0
   37.4550   29.4460   44.4600 H   0  0  0  0  0  0  0  0  0  0  0  0
   38.5000   29.0350   42.6690 C   0  0  0  0  0  0  0  0  0  0  0  0
   39.4310   30.5160   42.7320 Cl  0  0  0  0  0  0  0  0  0  0  0  0
  1  6  2  0  0  0  0
  1  2  1  0  0  0  0
  2  3  2  0  0  0  0
  3  4  1  0  0  0  0
  3 22  1  0  0  0  0
  5 10  1  0  0  0  0
  5  4  2  0  0  0  0
  6  5  1  0  0  0  0
  7  1  1  0  0  0  0
  8  2  1  0  0  0  0
  9 13  1  0  0  0  0
  9 14  1  1  0  0  0
  9 20  1  0  0  0  0
 10 15  1  6  0  0  0
 10  9  1  0  0  0  0
 11 10  1  0  0  0  0
 11 12  1  0  0  0  0
 12 13  1  0  0  0  0
 13 19  1  0  0  0  0
 16 11  1  0  0  0  0
 17 11  1  0  0  0  0
 18 13  1  0  0  0  0
 20 21  1  0  0  0  0
 22 24  1  0  0  0  0
 24 23  2  1  0  0  0
 24 27  1  0  0  0  0
 25 24  1  0  0  0  0
 26 25  1  0  0  0  0
 27 30  1  0  0  0  0
 28 29  1  0  0  0  0
 29 37  1  0  0  0  0
 30 29  2  0  0  0  0
 30 31  1  0  0  0  0
 31 33  2  0  0  0  0
 32 31  1  0  0  0  0
 33 34  1  0  0  0  0
 35 33  1  0  0  0  0
 35 36  1  0  0  0  0
 37 38  1  0  0  0  0
 37 35  2  0  0  0  0
M  END
>  <minimizedAffinity>
-5.7009306

$$$$
