
 OpenBabel03252507463D

 39 41  0  0  0  0  0  0  0  0999 V2000
   48.7140   33.8970   41.1650 C   0  0  0  0  0  0  0  0  0  0  0  0
   48.9580   32.7550   40.4020 C   0  0  0  0  0  0  0  0  0  0  0  0
   50.0970   31.9880   40.6310 C   0  0  0  0  0  0  0  0  0  0  0  0
   50.9470   32.3950   41.6130 N   0  0  0  0  0  0  0  0  0  0  0  0
   50.6770   33.5110   42.3350 C   0  0  0  0  0  0  0  0  0  0  0  0
   49.5850   34.2240   42.0960 N   0  0  0  0  0  0  0  0  0  0  0  0
   50.2730   31.1060   40.0340 H   0  0  0  0  0  0  0  0  0  0  0  0
   51.4070   33.7720   43.1040 H   0  0  0  0  0  0  0  0  0  0  0  0
   47.4920   34.6490   40.8610 C   0  0  0  0  0  0  0  0  0  0  0  0
   46.9140   34.2220   40.0490 H   0  0  0  0  0  0  0  0  0  0  0  0
   47.8400   35.6540   40.4830 H   0  0  0  0  0  0  0  0  0  0  0  0
   46.6590   34.9420   42.0680 C   0  0  0  0  0  0  0  0  0  0  0  0
   46.9100   34.2200   42.8730 H   0  0  0  0  0  0  0  0  0  0  0  0
   46.8670   35.9470   42.5100 H   0  0  0  0  0  0  0  0  0  0  0  0
   45.1930   34.9250   41.8060 C   0  0  0  0  0  0  0  0  0  0  0  0
   44.3070   35.5250   42.7530 C   0  0  0  0  0  0  0  0  0  0  0  0
   42.6520   35.2490   41.9950 S   0  0  0  0  0  0  0  0  0  0  0  0
   43.4500   34.3620   40.5150 C   0  0  0  0  0  0  0  0  0  0  0  0
   44.5550   34.4160   40.7870 N   0  0  0  0  0  0  0  0  0  0  0  0
   44.5710   36.0160   43.6810 H   0  0  0  0  0  0  0  0  0  0  0  0
   42.7060   33.8430   39.4610 O   0  0  0  0  0  0  0  0  0  0  0  0
   40.7030   34.1480   37.7620 O   0  0  0  0  0  0  0  0  0  0  0  0
   41.7520   34.9180   38.5550 P   0  0  0  0  0  0  0  0  0  0  0  0
   40.9720   35.9600   39.6480 O   0  0  0  0  0  0  0  0  0  0  0  0
   40.4590   35.4520   40.2970 H   0  0  0  0  0  0  0  0  0  0  0  0
   42.7410   35.8460   37.5480 O   0  0  0  0  0  0  0  0  0  0  0  0
   42.9930   35.3050   36.7600 H   0  0  0  0  0  0  0  0  0  0  0  0
   47.8010   32.2560   39.1130 S   0  0  0  0  0  0  0  0  0  0  0  0
   45.1110   31.8120   37.4260 Cl  0  0  0  0  0  0  0  0  0  0  0  0
   45.1650   31.2810   39.0930 C   0  0  0  0  0  0  0  0  0  0  0  0
   46.3390   31.4890   39.7880 C   0  0  0  0  0  0  0  0  0  0  0  0
   46.4300   31.0880   41.1050 C   0  0  0  0  0  0  0  0  0  0  0  0
   47.2910   31.2010   41.7320 H   0  0  0  0  0  0  0  0  0  0  0  0
   45.3840   30.4830   41.7560 C   0  0  0  0  0  0  0  0  0  0  0  0
   45.4060   30.1500   42.7950 H   0  0  0  0  0  0  0  0  0  0  0  0
   44.1870   30.2660   41.0670 C   0  0  0  0  0  0  0  0  0  0  0  0
   43.3140   29.7870   41.5340 H   0  0  0  0  0  0  0  0  0  0  0  0
   44.1200   30.6750   39.7550 C   0  0  0  0  0  0  0  0  0  0  0  0
   42.6400   30.4170   38.8660 Cl  0  0  0  0  0  0  0  0  0  0  0  0
  1  6  1  0  0  0  0
  2  3  1  0  0  0  0
  2  1  2  0  0  0  0
  3  4  2  0  0  0  0
  4  5  1  0  0  0  0
  5  8  1  0  0  0  0
  6  5  2  0  0  0  0
  7  3  1  0  0  0  0
  9  1  1  0  0  0  0
  9 12  1  0  0  0  0
 10  9  1  0  0  0  0
 11  9  1  0  0  0  0
 12 14  1  0  0  0  0
 12 13  1  0  0  0  0
 15 12  1  0  0  0  0
 15 16  2  0  0  0  0
 16 20  1  0  0  0  0
 17 16  1  0  0  0  0
 18 19  2  0  0  0  0
 18 17  1  0  0  0  0
 19 15  1  0  0  0  0
 21 18  1  0  0  0  0
 22 23  2  0  0  0  0
 23 21  1  0  0  0  0
 23 24  1  0  0  0  0
 24 25  1  0  0  0  0
 26 23  1  0  0  0  0
 27 26  1  0  0  0  0
 28 31  1  0  0  0  0
 28  2  1  0  0  0  0
 29 30  1  0  0  0  0
 30 38  2  0  0  0  0
 30 31  1  0  0  0  0
 31 32  2  0  0  0  0
 32 33  1  0  0  0  0
 32 34  1  0  0  0  0
 34 35  1  0  0  0  0
 36 37  1  0  0  0  0
 36 34  2  0  0  0  0
 38 36  1  0  0  0  0
 39 38  1  0  0  0  0
M  END
>  <minimizedAffinity>
-4.59054852

>  <minimizedRMSD>
1.58437908

$$$$
