
 OpenBabel03242519253D

 42 45  0  0  0  0  0  0  0  0999 V2000
   47.9130   33.7920   42.8860 C   0  0  0  0  0  0  0  0  0  0  0  0
   48.5960   35.0110   42.6560 C   0  0  0  0  0  0  0  0  0  0  0  0
   49.9620   35.0010   42.3420 C   0  0  0  0  0  0  0  0  0  0  0  0
   50.5660   33.7700   42.2780 N   0  0  0  0  0  0  0  0  0  0  0  0
   49.8780   32.6070   42.5060 C   0  0  0  0  0  0  0  0  0  0  0  0
   48.5810   32.6230   42.8030 N   0  0  0  0  0  0  0  0  0  0  0  0
   48.1930   35.9950   42.6890 H   0  0  0  0  0  0  0  0  0  0  0  0
   50.5310   35.8790   42.1580 H   0  0  0  0  0  0  0  0  0  0  0  0
   46.4840   33.9090   43.2150 C   0  0  0  0  0  0  0  0  0  0  0  0
   45.7820   34.9170   42.4230 C   0  0  0  0  0  0  0  0  0  0  0  0
   45.3300   36.1000   43.1950 C   0  0  0  0  0  0  0  0  0  0  0  0
   44.5300   35.7440   44.4380 C   0  0  0  0  0  0  0  0  0  0  0  0
   44.9810   34.4790   45.1150 C   0  0  0  0  0  0  0  0  0  0  0  0
   46.4210   34.1710   44.7310 C   0  0  0  0  0  0  0  0  0  0  0  0
   46.0210   32.8870   43.0940 H   0  0  0  0  0  0  0  0  0  0  0  0
   44.8620   34.4690   41.9450 H   0  0  0  0  0  0  0  0  0  0  0  0
   46.3860   35.2630   41.5820 H   0  0  0  0  0  0  0  0  0  0  0  0
   44.5930   36.6480   42.5370 H   0  0  0  0  0  0  0  0  0  0  0  0
   46.0730   36.8400   43.4720 H   0  0  0  0  0  0  0  0  0  0  0  0
   44.6070   36.5690   45.1840 H   0  0  0  0  0  0  0  0  0  0  0  0
   43.4370   35.6450   44.2180 H   0  0  0  0  0  0  0  0  0  0  0  0
   44.9200   34.5430   46.2100 H   0  0  0  0  0  0  0  0  0  0  0  0
   44.3680   33.6100   44.7500 H   0  0  0  0  0  0  0  0  0  0  0  0
   46.9790   35.1110   44.8920 H   0  0  0  0  0  0  0  0  0  0  0  0
   46.7930   33.3020   45.2760 H   0  0  0  0  0  0  0  0  0  0  0  0
   50.6670   31.3890   42.4040 C   0  0  0  0  0  0  0  0  0  0  0  0
   51.5040   31.2780   41.3470 N   0  0  0  0  0  0  0  0  0  0  0  0
   52.1530   30.0980   41.4110 C   0  0  0  0  0  0  0  0  0  0  0  0
   51.7040   29.4710   42.5310 N   0  0  0  0  0  0  0  0  0  0  0  0
   50.8040   30.2560   43.1300 N   0  0  0  0  0  0  0  0  0  0  0  0
   52.8810   29.7540   40.6900 H   0  0  0  0  0  0  0  0  0  0  0  0
   49.9670   27.2840   41.6310 Cl  0  0  0  0  0  0  0  0  0  0  0  0
   51.4010   27.0730   42.6350 C   0  0  0  0  0  0  0  0  0  0  0  0
   52.1270   28.1920   42.9850 C   0  0  0  0  0  0  0  0  0  0  0  0
   53.2480   28.0730   43.7640 C   0  0  0  0  0  0  0  0  0  0  0  0
   53.8430   28.9210   44.0600 H   0  0  0  0  0  0  0  0  0  0  0  0
   53.6450   26.8130   44.1970 C   0  0  0  0  0  0  0  0  0  0  0  0
   54.5310   26.7380   44.8110 H   0  0  0  0  0  0  0  0  0  0  0  0
   52.8970   25.6880   43.8340 C   0  0  0  0  0  0  0  0  0  0  0  0
   53.2090   24.7130   44.1720 H   0  0  0  0  0  0  0  0  0  0  0  0
   51.7750   25.8130   43.0540 C   0  0  0  0  0  0  0  0  0  0  0  0
   50.7990   24.4280   42.5680 Cl  0  0  0  0  0  0  0  0  0  0  0  0
  1  9  1  0  0  0  0
  2  7  1  0  0  0  0
  2  1  2  0  0  0  0
  3  2  1  0  0  0  0
  4  3  2  0  0  0  0
  4  5  1  0  0  0  0
  5  6  2  0  0  0  0
  6  1  1  0  0  0  0
  8  3  1  0  0  0  0
  9 14  1  0  0  0  0
 10 11  1  0  0  0  0
 10  9  1  0  0  0  0
 11 19  1  0  0  0  0
 11 12  1  0  0  0  0
 12 13  1  0  0  0  0
 12 20  1  0  0  0  0
 13 22  1  0  0  0  0
 14 24  1  0  0  0  0
 14 13  1  0  0  0  0
 14 25  1  0  0  0  0
 15  9  1  0  0  0  0
 16 10  1  0  0  0  0
 17 10  1  0  0  0  0
 18 11  1  0  0  0  0
 21 12  1  0  0  0  0
 23 13  1  0  0  0  0
 26  5  1  0  0  0  0
 26 30  2  0  0  0  0
 27 28  2  0  0  0  0
 27 26  1  0  0  0  0
 28 29  1  0  0  0  0
 29 34  1  0  0  0  0
 29 30  1  0  0  0  0
 31 28  1  0  0  0  0
 32 33  1  0  0  0  0
 33 34  2  0  0  0  0
 33 41  1  0  0  0  0
 34 35  1  0  0  0  0
 35 36  1  0  0  0  0
 35 37  2  0  0  0  0
 37 38  1  0  0  0  0
 39 40  1  0  0  0  0
 39 37  1  0  0  0  0
 41 39  2  0  0  0  0
 42 41  1  0  0  0  0
M  END
>  <minimizedAffinity>
-4.17389345

>  <minimizedRMSD>
0.638456404

$$$$
