
 OpenBabel03242519263D

 42 45  0  0  0  0  0  0  0  0999 V2000
   41.2450   34.3010   40.6060 C   0  0  0  0  0  0  0  0  0  0  0  0
   40.5580   35.4740   40.2050 C   0  0  0  0  0  0  0  0  0  0  0  0
   39.1660   35.4510   40.0480 C   0  0  0  0  0  0  0  0  0  0  0  0
   38.5410   34.2550   40.3020 N   0  0  0  0  0  0  0  0  0  0  0  0
   39.2330   33.1370   40.6880 C   0  0  0  0  0  0  0  0  0  0  0  0
   40.5550   33.1650   40.8350 N   0  0  0  0  0  0  0  0  0  0  0  0
   40.9760   36.4290   39.9940 H   0  0  0  0  0  0  0  0  0  0  0  0
   38.5920   36.2940   39.7520 H   0  0  0  0  0  0  0  0  0  0  0  0
   42.7050   34.4250   40.7360 C   0  0  0  0  0  0  0  0  0  0  0  0
   43.3860   33.1470   40.9360 C   0  0  0  0  0  0  0  0  0  0  0  0
   43.9920   32.9750   42.2780 C   0  0  0  0  0  0  0  0  0  0  0  0
   44.8910   34.1300   42.6890 C   0  0  0  0  0  0  0  0  0  0  0  0
   44.4310   35.4730   42.1910 C   0  0  0  0  0  0  0  0  0  0  0  0
   42.9420   35.4270   41.8800 C   0  0  0  0  0  0  0  0  0  0  0  0
   43.0850   34.9610   39.8190 H   0  0  0  0  0  0  0  0  0  0  0  0
   44.2200   33.0250   40.1840 H   0  0  0  0  0  0  0  0  0  0  0  0
   42.7220   32.3010   40.7450 H   0  0  0  0  0  0  0  0  0  0  0  0
   44.6900   32.0910   42.2030 H   0  0  0  0  0  0  0  0  0  0  0  0
   43.3300   32.7490   43.1080 H   0  0  0  0  0  0  0  0  0  0  0  0
   44.9450   34.1860   43.8020 H   0  0  0  0  0  0  0  0  0  0  0  0
   45.9470   33.9800   42.3490 H   0  0  0  0  0  0  0  0  0  0  0  0
   44.6090   36.2750   42.9190 H   0  0  0  0  0  0  0  0  0  0  0  0
   44.9450   35.7170   41.2210 H   0  0  0  0  0  0  0  0  0  0  0  0
   42.4660   34.9780   42.7710 H   0  0  0  0  0  0  0  0  0  0  0  0
   42.5730   36.4130   41.5960 H   0  0  0  0  0  0  0  0  0  0  0  0
   38.4210   31.9510   40.9110 C   0  0  0  0  0  0  0  0  0  0  0  0
   37.1020   32.0380   40.6240 N   0  0  0  0  0  0  0  0  0  0  0  0
   36.5080   30.8570   40.8850 C   0  0  0  0  0  0  0  0  0  0  0  0
   37.4830   30.0260   41.3430 N   0  0  0  0  0  0  0  0  0  0  0  0
   38.6400   30.6920   41.3570 N   0  0  0  0  0  0  0  0  0  0  0  0
   35.4560   30.6500   40.7450 H   0  0  0  0  0  0  0  0  0  0  0  0
   37.8150   28.1100   39.1440 Cl  0  0  0  0  0  0  0  0  0  0  0  0
   37.4200   27.6680   40.8050 C   0  0  0  0  0  0  0  0  0  0  0  0
   37.2940   28.6740   41.7390 C   0  0  0  0  0  0  0  0  0  0  0  0
   36.9890   28.3760   43.0420 C   0  0  0  0  0  0  0  0  0  0  0  0
   36.8810   29.1300   43.8020 H   0  0  0  0  0  0  0  0  0  0  0  0
   36.8080   27.0470   43.4100 C   0  0  0  0  0  0  0  0  0  0  0  0
   36.5670   26.8290   44.4420 H   0  0  0  0  0  0  0  0  0  0  0  0
   36.9390   26.0380   42.4510 C   0  0  0  0  0  0  0  0  0  0  0  0
   36.7980   25.0080   42.7390 H   0  0  0  0  0  0  0  0  0  0  0  0
   37.2450   26.3440   41.1480 C   0  0  0  0  0  0  0  0  0  0  0  0
   37.4230   25.1100   39.9020 Cl  0  0  0  0  0  0  0  0  0  0  0  0
  1  9  1  0  0  0  0
  1  6  1  0  0  0  0
  2  1  2  0  0  0  0
  3  2  1  0  0  0  0
  3  4  2  0  0  0  0
  4  5  1  0  0  0  0
  5  6  2  0  0  0  0
  5 26  1  0  0  0  0
  7  2  1  0  0  0  0
  8  3  1  0  0  0  0
  9 10  1  0  0  0  0
  9 14  1  0  0  0  0
 10 11  1  0  0  0  0
 11 12  1  0  0  0  0
 11 19  1  0  0  0  0
 12 20  1  0  0  0  0
 13 12  1  0  0  0  0
 13 22  1  0  0  0  0
 14 13  1  0  0  0  0
 14 24  1  0  0  0  0
 15  9  1  0  0  0  0
 16 10  1  0  0  0  0
 17 10  1  0  0  0  0
 18 11  1  0  0  0  0
 21 12  1  0  0  0  0
 23 13  1  0  0  0  0
 25 14  1  0  0  0  0
 26 30  2  0  0  0  0
 27 28  2  0  0  0  0
 27 26  1  0  0  0  0
 28 29  1  0  0  0  0
 29 30  1  0  0  0  0
 29 34  1  0  0  0  0
 31 28  1  0  0  0  0
 32 33  1  0  0  0  0
 33 41  2  0  0  0  0
 33 34  1  0  0  0  0
 34 35  2  0  0  0  0
 35 37  1  0  0  0  0
 35 36  1  0  0  0  0
 37 38  1  0  0  0  0
 39 40  1  0  0  0  0
 39 37  2  0  0  0  0
 41 39  1  0  0  0  0
 42 41  1  0  0  0  0
M  END
>  <minimizedAffinity>
-6.57903767

$$$$

 OpenBabel03242519263D

 42 45  0  0  0  0  0  0  0  0999 V2000
   41.0400   34.2010   39.2890 C   0  0  0  0  0  0  0  0  0  0  0  0
   40.6390   35.4260   39.8760 C   0  0  0  0  0  0  0  0  0  0  0  0
   39.5030   35.4720   40.6950 C   0  0  0  0  0  0  0  0  0  0  0  0
   38.8330   34.2880   40.8800 N   0  0  0  0  0  0  0  0  0  0  0  0
   39.2460   33.1180   40.2980 C   0  0  0  0  0  0  0  0  0  0  0  0
   40.3250   33.0800   39.5210 N   0  0  0  0  0  0  0  0  0  0  0  0
   41.1080   36.3760   39.7760 H   0  0  0  0  0  0  0  0  0  0  0  0
   39.1500   36.3570   41.1650 H   0  0  0  0  0  0  0  0  0  0  0  0
   42.2400   34.2580   38.4400 C   0  0  0  0  0  0  0  0  0  0  0  0
   42.1760   33.3790   37.2750 C   0  0  0  0  0  0  0  0  0  0  0  0
   43.1210   32.2370   37.3120 C   0  0  0  0  0  0  0  0  0  0  0  0
   44.5570   32.6480   37.5930 C   0  0  0  0  0  0  0  0  0  0  0  0
   44.6880   33.8190   38.5280 C   0  0  0  0  0  0  0  0  0  0  0  0
   43.4280   33.9520   39.3700 C   0  0  0  0  0  0  0  0  0  0  0  0
   42.3960   35.3350   38.1420 H   0  0  0  0  0  0  0  0  0  0  0  0
   42.4020   33.9590   36.3320 H   0  0  0  0  0  0  0  0  0  0  0  0
   41.1680   32.9880   37.1180 H   0  0  0  0  0  0  0  0  0  0  0  0
   43.1520   31.8130   36.2650 H   0  0  0  0  0  0  0  0  0  0  0  0
   42.8780   31.3970   37.9550 H   0  0  0  0  0  0  0  0  0  0  0  0
   45.1110   31.7930   38.0460 H   0  0  0  0  0  0  0  0  0  0  0  0
   45.1130   32.8950   36.6520 H   0  0  0  0  0  0  0  0  0  0  0  0
   45.5490   33.7230   39.2030 H   0  0  0  0  0  0  0  0  0  0  0  0
   44.7710   34.7720   37.9380 H   0  0  0  0  0  0  0  0  0  0  0  0
   43.2340   32.9420   39.7750 H   0  0  0  0  0  0  0  0  0  0  0  0
   43.5360   34.7440   40.1120 H   0  0  0  0  0  0  0  0  0  0  0  0
   38.4220   31.9550   40.5900 C   0  0  0  0  0  0  0  0  0  0  0  0
   37.0980   32.0520   40.3340 N   0  0  0  0  0  0  0  0  0  0  0  0
   36.4920   30.8930   40.6590 C   0  0  0  0  0  0  0  0  0  0  0  0
   37.4660   30.0660   41.1270 N   0  0  0  0  0  0  0  0  0  0  0  0
   38.6340   30.7130   41.0830 N   0  0  0  0  0  0  0  0  0  0  0  0
   35.4340   30.6980   40.5550 H   0  0  0  0  0  0  0  0  0  0  0  0
   37.7940   28.0490   39.0180 Cl  0  0  0  0  0  0  0  0  0  0  0  0
   37.3910   27.6860   40.6960 C   0  0  0  0  0  0  0  0  0  0  0  0
   37.2680   28.7340   41.5830 C   0  0  0  0  0  0  0  0  0  0  0  0
   36.9560   28.4980   42.8970 C   0  0  0  0  0  0  0  0  0  0  0  0
   36.8500   29.2860   43.6210 H   0  0  0  0  0  0  0  0  0  0  0  0
   36.7650   27.1880   43.3240 C   0  0  0  0  0  0  0  0  0  0  0  0
   36.5180   27.0190   44.3640 H   0  0  0  0  0  0  0  0  0  0  0  0
   36.8930   26.1350   42.4120 C   0  0  0  0  0  0  0  0  0  0  0  0
   36.7440   25.1210   42.7470 H   0  0  0  0  0  0  0  0  0  0  0  0
   37.2060   26.3800   41.0990 C   0  0  0  0  0  0  0  0  0  0  0  0
   37.3800   25.0890   39.9100 Cl  0  0  0  0  0  0  0  0  0  0  0  0
  1  6  2  0  0  0  0
  1  2  1  0  0  0  0
  2  3  2  0  0  0  0
  3  4  1  0  0  0  0
  3  8  1  0  0  0  0
  5 26  1  0  0  0  0
  5  4  2  0  0  0  0
  6  5  1  0  0  0  0
  7  2  1  0  0  0  0
  9  1  1  0  0  0  0
  9 14  1  0  0  0  0
 10 11  1  0  0  0  0
 10  9  1  0  0  0  0
 11 12  1  0  0  0  0
 11 19  1  0  0  0  0
 12 20  1  0  0  0  0
 12 13  1  0  0  0  0
 13 22  1  0  0  0  0
 13 14  1  0  0  0  0
 14 24  1  0  0  0  0
 14 25  1  0  0  0  0
 15  9  1  0  0  0  0
 16 10  1  0  0  0  0
 17 10  1  0  0  0  0
 18 11  1  0  0  0  0
 21 12  1  0  0  0  0
 23 13  1  0  0  0  0
 26 30  2  0  0  0  0
 27 26  1  0  0  0  0
 27 28  2  0  0  0  0
 28 29  1  0  0  0  0
 29 34  1  0  0  0  0
 30 29  1  0  0  0  0
 31 28  1  0  0  0  0
 32 33  1  0  0  0  0
 33 41  2  0  0  0  0
 33 34  1  0  0  0  0
 34 35  2  0  0  0  0
 35 37  1  0  0  0  0
 35 36  1  0  0  0  0
 37 38  1  0  0  0  0
 39 40  1  0  0  0  0
 39 37  2  0  0  0  0
 41 39  1  0  0  0  0
 42 41  1  0  0  0  0
M  END
>  <minimizedAffinity>
-6.50708866

$$$$

 OpenBabel03242519263D

 42 45  0  0  0  0  0  0  0  0999 V2000
   37.0690   26.7290   41.9840 C   0  0  0  0  0  0  0  0  0  0  0  0
   36.9620   26.7530   43.3960 C   0  0  0  0  0  0  0  0  0  0  0  0
   37.1320   27.9580   44.0910 C   0  0  0  0  0  0  0  0  0  0  0  0
   37.4000   29.0700   43.3310 N   0  0  0  0  0  0  0  0  0  0  0  0
   37.4980   29.0140   41.9650 C   0  0  0  0  0  0  0  0  0  0  0  0
   37.3350   27.8680   41.3110 N   0  0  0  0  0  0  0  0  0  0  0  0
   36.7580   25.9350   44.0440 H   0  0  0  0  0  0  0  0  0  0  0  0
   37.0650   28.0440   45.1470 H   0  0  0  0  0  0  0  0  0  0  0  0
   36.8810   25.4160   41.3490 C   0  0  0  0  0  0  0  0  0  0  0  0
   37.6740   24.3500   41.9600 C   0  0  0  0  0  0  0  0  0  0  0  0
   38.7600   23.8200   41.1000 C   0  0  0  0  0  0  0  0  0  0  0  0
   38.2900   23.4090   39.7140 C   0  0  0  0  0  0  0  0  0  0  0  0
   37.1860   24.2680   39.1610 C   0  0  0  0  0  0  0  0  0  0  0  0
   37.1880   25.6230   39.8540 C   0  0  0  0  0  0  0  0  0  0  0  0
   35.7780   25.1800   41.3720 H   0  0  0  0  0  0  0  0  0  0  0  0
   37.0140   23.4740   42.2280 H   0  0  0  0  0  0  0  0  0  0  0  0
   38.1080   24.6650   42.9110 H   0  0  0  0  0  0  0  0  0  0  0  0
   39.1030   22.8550   41.5760 H   0  0  0  0  0  0  0  0  0  0  0  0
   39.6570   24.4200   40.9880 H   0  0  0  0  0  0  0  0  0  0  0  0
   39.1430   23.4570   38.9980 H   0  0  0  0  0  0  0  0  0  0  0  0
   37.9420   22.3450   39.6890 H   0  0  0  0  0  0  0  0  0  0  0  0
   37.2820   24.4320   38.0790 H   0  0  0  0  0  0  0  0  0  0  0  0
   36.1880   23.8030   39.3890 H   0  0  0  0  0  0  0  0  0  0  0  0
   38.2340   25.9760   39.8130 H   0  0  0  0  0  0  0  0  0  0  0  0
   36.4470   26.2890   39.4100 H   0  0  0  0  0  0  0  0  0  0  0  0
   37.7920   30.2810   41.3130 C   0  0  0  0  0  0  0  0  0  0  0  0
   36.7890   30.8730   40.6240 N   0  0  0  0  0  0  0  0  0  0  0  0
   37.2320   32.0280   40.0900 C   0  0  0  0  0  0  0  0  0  0  0  0
   38.5360   32.1480   40.4580 N   0  0  0  0  0  0  0  0  0  0  0  0
   38.8710   31.0880   41.1990 N   0  0  0  0  0  0  0  0  0  0  0  0
   36.6350   32.7010   39.4910 H   0  0  0  0  0  0  0  0  0  0  0  0
   40.4180   31.4920   38.3030 Cl  0  0  0  0  0  0  0  0  0  0  0  0
   40.3290   33.0560   39.1110 C   0  0  0  0  0  0  0  0  0  0  0  0
   39.3940   33.2270   40.1100 C   0  0  0  0  0  0  0  0  0  0  0  0
   39.2900   34.4270   40.7640 C   0  0  0  0  0  0  0  0  0  0  0  0
   38.5750   34.6020   41.5490 H   0  0  0  0  0  0  0  0  0  0  0  0
   40.1390   35.4700   40.4090 C   0  0  0  0  0  0  0  0  0  0  0  0
   40.0440   36.4100   40.9360 H   0  0  0  0  0  0  0  0  0  0  0  0
   41.0820   35.2810   39.3940 C   0  0  0  0  0  0  0  0  0  0  0  0
   41.7390   36.0920   39.1210 H   0  0  0  0  0  0  0  0  0  0  0  0
   41.1810   34.0770   38.7430 C   0  0  0  0  0  0  0  0  0  0  0  0
   42.3510   33.7880   37.4570 Cl  0  0  0  0  0  0  0  0  0  0  0  0
  1  2  1  0  0  0  0
  2  7  1  0  0  0  0
  2  3  2  0  0  0  0
  3  8  1  0  0  0  0
  4  3  1  0  0  0  0
  5  4  2  0  0  0  0
  6  5  1  0  0  0  0
  6  1  2  0  0  0  0
  9 15  1  0  0  0  0
  9 10  1  0  0  0  0
  9  1  1  0  0  0  0
 10 16  1  0  0  0  0
 10 17  1  0  0  0  0
 11 18  1  0  0  0  0
 11 10  1  0  0  0  0
 12 11  1  0  0  0  0
 13 23  1  0  0  0  0
 13 12  1  0  0  0  0
 13 14  1  0  0  0  0
 14  9  1  0  0  0  0
 19 11  1  0  0  0  0
 20 12  1  0  0  0  0
 21 12  1  0  0  0  0
 22 13  1  0  0  0  0
 24 14  1  0  0  0  0
 25 14  1  0  0  0  0
 26  5  1  0  0  0  0
 27 26  1  0  0  0  0
 28 29  1  0  0  0  0
 28 27  2  0  0  0  0
 29 30  1  0  0  0  0
 30 26  2  0  0  0  0
 31 28  1  0  0  0  0
 32 33  1  0  0  0  0
 33 34  1  0  0  0  0
 34 29  1  0  0  0  0
 34 35  2  0  0  0  0
 35 36  1  0  0  0  0
 37 35  1  0  0  0  0
 37 38  1  0  0  0  0
 39 37  2  0  0  0  0
 40 39  1  0  0  0  0
 41 33  2  0  0  0  0
 41 39  1  0  0  0  0
 42 41  1  0  0  0  0
M  END
>  <minimizedAffinity>
-6.47105169

$$$$

 OpenBabel03242519263D

 42 45  0  0  0  0  0  0  0  0999 V2000
   40.1530   33.4100   40.3170 C   0  0  0  0  0  0  0  0  0  0  0  0
   39.0160   34.1370   39.8880 C   0  0  0  0  0  0  0  0  0  0  0  0
   37.7390   33.5710   40.0020 C   0  0  0  0  0  0  0  0  0  0  0  0
   37.6740   32.3090   40.5400 N   0  0  0  0  0  0  0  0  0  0  0  0
   38.7930   31.6310   40.9460 C   0  0  0  0  0  0  0  0  0  0  0  0
   40.0030   32.1730   40.8350 N   0  0  0  0  0  0  0  0  0  0  0  0
   38.9930   35.1120   39.4650 H   0  0  0  0  0  0  0  0  0  0  0  0
   36.8470   34.0630   39.7000 H   0  0  0  0  0  0  0  0  0  0  0  0
   41.4480   34.0860   40.1500 C   0  0  0  0  0  0  0  0  0  0  0  0
   41.5040   34.9640   38.9830 C   0  0  0  0  0  0  0  0  0  0  0  0
   42.4090   34.4990   37.9040 C   0  0  0  0  0  0  0  0  0  0  0  0
   43.8100   34.1670   38.3900 C   0  0  0  0  0  0  0  0  0  0  0  0
   43.8560   33.5800   39.7740 C   0  0  0  0  0  0  0  0  0  0  0  0
   42.5070   32.9680   40.1220 C   0  0  0  0  0  0  0  0  0  0  0  0
   41.6670   34.6470   41.1040 H   0  0  0  0  0  0  0  0  0  0  0  0
   41.8570   35.9940   39.2830 H   0  0  0  0  0  0  0  0  0  0  0  0
   40.5130   35.1310   38.5550 H   0  0  0  0  0  0  0  0  0  0  0  0
   42.5550   35.3760   37.2080 H   0  0  0  0  0  0  0  0  0  0  0  0
   42.0680   33.6850   37.2720 H   0  0  0  0  0  0  0  0  0  0  0  0
   44.2830   33.4310   37.6980 H   0  0  0  0  0  0  0  0  0  0  0  0
   44.4820   35.0620   38.3730 H   0  0  0  0  0  0  0  0  0  0  0  0
   44.6260   32.8030   39.8760 H   0  0  0  0  0  0  0  0  0  0  0  0
   44.0340   34.3940   40.5290 H   0  0  0  0  0  0  0  0  0  0  0  0
   42.2400   32.3290   39.2620 H   0  0  0  0  0  0  0  0  0  0  0  0
   42.5440   32.4660   41.0900 H   0  0  0  0  0  0  0  0  0  0  0  0
   38.5500   30.3030   41.4880 C   0  0  0  0  0  0  0  0  0  0  0  0
   37.3500   30.0790   42.0690 N   0  0  0  0  0  0  0  0  0  0  0  0
   37.2960   28.8060   42.5110 C   0  0  0  0  0  0  0  0  0  0  0  0
   38.4900   28.2370   42.1940 N   0  0  0  0  0  0  0  0  0  0  0  0
   39.2470   29.1460   41.5750 N   0  0  0  0  0  0  0  0  0  0  0  0
   36.4490   28.3630   43.0150 H   0  0  0  0  0  0  0  0  0  0  0  0
   37.2060   26.2710   40.4310 Cl  0  0  0  0  0  0  0  0  0  0  0  0
   38.3340   25.8680   41.7260 C   0  0  0  0  0  0  0  0  0  0  0  0
   38.8630   26.8950   42.4780 C   0  0  0  0  0  0  0  0  0  0  0  0
   39.7450   26.6270   43.4940 C   0  0  0  0  0  0  0  0  0  0  0  0
   40.1800   27.3980   44.1050 H   0  0  0  0  0  0  0  0  0  0  0  0
   40.0970   25.3070   43.7560 C   0  0  0  0  0  0  0  0  0  0  0  0
   40.7930   25.1130   44.5610 H   0  0  0  0  0  0  0  0  0  0  0  0
   39.5510   24.2770   42.9840 C   0  0  0  0  0  0  0  0  0  0  0  0
   39.8270   23.2550   43.1900 H   0  0  0  0  0  0  0  0  0  0  0  0
   38.6700   24.5530   41.9690 C   0  0  0  0  0  0  0  0  0  0  0  0
   37.9540   23.2910   40.9660 Cl  0  0  0  0  0  0  0  0  0  0  0  0
  1  6  1  0  0  0  0
  2  3  1  0  0  0  0
  2  1  2  0  0  0  0
  3  4  2  0  0  0  0
  4  5  1  0  0  0  0
  5 26  1  0  0  0  0
  6  5  2  0  0  0  0
  7  2  1  0  0  0  0
  8  3  1  0  0  0  0
  9  1  1  0  0  0  0
  9 15  1  0  0  0  0
 10 16  1  0  0  0  0
 10  9  1  0  0  0  0
 11 12  1  0  0  0  0
 11 10  1  0  0  0  0
 12 13  1  0  0  0  0
 13 22  1  0  0  0  0
 13 14  1  0  0  0  0
 13 23  1  0  0  0  0
 14  9  1  0  0  0  0
 14 25  1  0  0  0  0
 17 10  1  0  0  0  0
 18 11  1  0  0  0  0
 19 11  1  0  0  0  0
 20 12  1  0  0  0  0
 21 12  1  0  0  0  0
 24 14  1  0  0  0  0
 26 30  2  0  0  0  0
 26 27  1  0  0  0  0
 27 28  2  0  0  0  0
 28 31  1  0  0  0  0
 29 34  1  0  0  0  0
 29 28  1  0  0  0  0
 30 29  1  0  0  0  0
 32 33  1  0  0  0  0
 33 41  2  0  0  0  0
 33 34  1  0  0  0  0
 34 35  2  0  0  0  0
 35 37  1  0  0  0  0
 35 36  1  0  0  0  0
 37 38  1  0  0  0  0
 39 40  1  0  0  0  0
 39 37  2  0  0  0  0
 41 39  1  0  0  0  0
 42 41  1  0  0  0  0
M  END
>  <minimizedAffinity>
-6.36381626

$$$$

 OpenBabel03242519263D

 42 45  0  0  0  0  0  0  0  0999 V2000
   41.0860   34.1940   40.5830 C   0  0  0  0  0  0  0  0  0  0  0  0
   40.4270   35.4360   40.4050 C   0  0  0  0  0  0  0  0  0  0  0  0
   39.0420   35.4720   40.2000 C   0  0  0  0  0  0  0  0  0  0  0  0
   38.3940   34.2610   40.1850 N   0  0  0  0  0  0  0  0  0  0  0  0
   39.0590   33.0760   40.3610 C   0  0  0  0  0  0  0  0  0  0  0  0
   40.3740   33.0480   40.5550 N   0  0  0  0  0  0  0  0  0  0  0  0
   40.8640   36.4060   40.4050 H   0  0  0  0  0  0  0  0  0  0  0  0
   38.4890   36.3670   40.0600 H   0  0  0  0  0  0  0  0  0  0  0  0
   42.5410   34.2620   40.7850 C   0  0  0  0  0  0  0  0  0  0  0  0
   43.1380   32.9860   41.1730 C   0  0  0  0  0  0  0  0  0  0  0  0
   43.6610   32.9470   42.5610 C   0  0  0  0  0  0  0  0  0  0  0  0
   44.5990   34.0980   42.8860 C   0  0  0  0  0  0  0  0  0  0  0  0
   44.2420   35.3920   42.2080 C   0  0  0  0  0  0  0  0  0  0  0  0
   42.7710   35.3820   41.8160 C   0  0  0  0  0  0  0  0  0  0  0  0
   42.9990   34.6640   39.8360 H   0  0  0  0  0  0  0  0  0  0  0  0
   44.0030   32.7340   40.4920 H   0  0  0  0  0  0  0  0  0  0  0  0
   42.4400   32.1560   41.0440 H   0  0  0  0  0  0  0  0  0  0  0  0
   44.3130   32.0280   42.6310 H   0  0  0  0  0  0  0  0  0  0  0  0
   42.9450   32.8550   43.3710 H   0  0  0  0  0  0  0  0  0  0  0  0
   44.5970   34.2850   43.9860 H   0  0  0  0  0  0  0  0  0  0  0  0
   45.6620   33.8570   42.6300 H   0  0  0  0  0  0  0  0  0  0  0  0
   44.4250   36.2660   42.8460 H   0  0  0  0  0  0  0  0  0  0  0  0
   44.8190   35.4930   41.2480 H   0  0  0  0  0  0  0  0  0  0  0  0
   42.2250   35.0660   42.7230 H   0  0  0  0  0  0  0  0  0  0  0  0
   42.4730   36.3430   41.3960 H   0  0  0  0  0  0  0  0  0  0  0  0
   38.2250   31.8840   40.3120 C   0  0  0  0  0  0  0  0  0  0  0  0
   36.9030   32.0410   40.5490 N   0  0  0  0  0  0  0  0  0  0  0  0
   36.2870   30.8450   40.4620 C   0  0  0  0  0  0  0  0  0  0  0  0
   37.2530   29.9340   40.1660 N   0  0  0  0  0  0  0  0  0  0  0  0
   38.4250   30.5670   40.0760 N   0  0  0  0  0  0  0  0  0  0  0  0
   35.2280   30.6840   40.6070 H   0  0  0  0  0  0  0  0  0  0  0  0
   37.6270   28.3660   42.6200 Cl  0  0  0  0  0  0  0  0  0  0  0  0
   37.1850   27.6840   41.0550 C   0  0  0  0  0  0  0  0  0  0  0  0
   37.0420   28.5400   39.9840 C   0  0  0  0  0  0  0  0  0  0  0  0
   36.6980   28.0530   38.7490 C   0  0  0  0  0  0  0  0  0  0  0  0
   36.5770   28.6850   37.8870 H   0  0  0  0  0  0  0  0  0  0  0  0
   36.4970   26.6850   38.5900 C   0  0  0  0  0  0  0  0  0  0  0  0
   36.2270   26.3180   37.6100 H   0  0  0  0  0  0  0  0  0  0  0  0
   36.6460   25.8310   39.6870 C   0  0  0  0  0  0  0  0  0  0  0  0
   36.4880   24.7710   39.5610 H   0  0  0  0  0  0  0  0  0  0  0  0
   36.9890   26.3260   40.9200 C   0  0  0  0  0  0  0  0  0  0  0  0
   37.1880   25.2920   42.3340 Cl  0  0  0  0  0  0  0  0  0  0  0  0
  1  9  1  0  0  0  0
  2  1  2  0  0  0  0
  3  2  1  0  0  0  0
  4  3  2  0  0  0  0
  4  5  1  0  0  0  0
  5  6  2  0  0  0  0
  6  1  1  0  0  0  0
  7  2  1  0  0  0  0
  8  3  1  0  0  0  0
  9 10  1  0  0  0  0
  9 14  1  0  0  0  0
 10 11  1  0  0  0  0
 11 18  1  0  0  0  0
 11 12  1  0  0  0  0
 11 19  1  0  0  0  0
 12 20  1  0  0  0  0
 13 22  1  0  0  0  0
 13 12  1  0  0  0  0
 14 13  1  0  0  0  0
 14 24  1  0  0  0  0
 15  9  1  0  0  0  0
 16 10  1  0  0  0  0
 17 10  1  0  0  0  0
 21 12  1  0  0  0  0
 23 13  1  0  0  0  0
 25 14  1  0  0  0  0
 26  5  1  0  0  0  0
 26 27  1  0  0  0  0
 28 27  2  0  0  0  0
 28 31  1  0  0  0  0
 29 28  1  0  0  0  0
 30 29  1  0  0  0  0
 30 26  2  0  0  0  0
 33 32  1  0  0  0  0
 34 29  1  0  0  0  0
 34 33  2  0  0  0  0
 35 34  1  0  0  0  0
 36 35  1  0  0  0  0
 37 35  2  0  0  0  0
 37 39  1  0  0  0  0
 38 37  1  0  0  0  0
 39 41  2  0  0  0  0
 40 39  1  0  0  0  0
 41 33  1  0  0  0  0
 41 42  1  0  0  0  0
M  END
>  <minimizedAffinity>
-6.27784109

$$$$

 OpenBabel03242519263D

 42 45  0  0  0  0  0  0  0  0999 V2000
   31.9900   29.4770   36.5040 C   0  0  0  0  0  0  0  0  0  0  0  0
   32.4820   29.4050   35.1770 C   0  0  0  0  0  0  0  0  0  0  0  0
   33.8000   28.9930   34.9390 C   0  0  0  0  0  0  0  0  0  0  0  0
   34.5510   28.6770   36.0450 N   0  0  0  0  0  0  0  0  0  0  0  0
   34.0470   28.7580   37.3160 C   0  0  0  0  0  0  0  0  0  0  0  0
   32.7950   29.1490   37.5360 N   0  0  0  0  0  0  0  0  0  0  0  0
   31.9590   29.6330   34.2790 H   0  0  0  0  0  0  0  0  0  0  0  0
   34.2280   28.9170   33.9710 H   0  0  0  0  0  0  0  0  0  0  0  0
   30.5970   29.9270   36.6480 C   0  0  0  0  0  0  0  0  0  0  0  0
   30.3560   31.2670   36.1160 C   0  0  0  0  0  0  0  0  0  0  0  0
   30.0480   32.2910   37.1430 C   0  0  0  0  0  0  0  0  0  0  0  0
   28.9320   31.8820   38.0910 C   0  0  0  0  0  0  0  0  0  0  0  0
   28.8980   30.4110   38.4010 C   0  0  0  0  0  0  0  0  0  0  0  0
   30.2670   29.7970   38.1460 C   0  0  0  0  0  0  0  0  0  0  0  0
   29.9370   29.1570   36.1540 H   0  0  0  0  0  0  0  0  0  0  0  0
   29.4840   31.2520   35.3990 H   0  0  0  0  0  0  0  0  0  0  0  0
   31.1960   31.6200   35.5160 H   0  0  0  0  0  0  0  0  0  0  0  0
   29.6320   33.1830   36.5900 H   0  0  0  0  0  0  0  0  0  0  0  0
   30.8700   32.6780   37.7370 H   0  0  0  0  0  0  0  0  0  0  0  0
   29.0420   32.4270   39.0580 H   0  0  0  0  0  0  0  0  0  0  0  0
   27.9240   32.1750   37.7000 H   0  0  0  0  0  0  0  0  0  0  0  0
   28.6140   30.2070   39.4420 H   0  0  0  0  0  0  0  0  0  0  0  0
   28.1870   29.8890   37.7030 H   0  0  0  0  0  0  0  0  0  0  0  0
   30.9880   30.4530   38.6660 H   0  0  0  0  0  0  0  0  0  0  0  0
   30.2850   28.7480   38.4430 H   0  0  0  0  0  0  0  0  0  0  0  0
   34.9760   28.3940   38.3760 C   0  0  0  0  0  0  0  0  0  0  0  0
   35.7580   27.3090   38.1710 N   0  0  0  0  0  0  0  0  0  0  0  0
   36.5510   27.1200   39.2430 C   0  0  0  0  0  0  0  0  0  0  0  0
   36.2500   28.1100   40.1270 N   0  0  0  0  0  0  0  0  0  0  0  0
   35.2960   28.8800   39.5970 N   0  0  0  0  0  0  0  0  0  0  0  0
   37.2750   26.3230   39.3430 H   0  0  0  0  0  0  0  0  0  0  0  0
   38.3330   30.1790   40.1460 Cl  0  0  0  0  0  0  0  0  0  0  0  0
   37.8520   29.2310   41.5520 C   0  0  0  0  0  0  0  0  0  0  0  0
   36.8560   28.2900   41.4000 C   0  0  0  0  0  0  0  0  0  0  0  0
   36.4500   27.5310   42.4670 C   0  0  0  0  0  0  0  0  0  0  0  0
   35.6770   26.7860   42.3920 H   0  0  0  0  0  0  0  0  0  0  0  0
   37.0550   27.7220   43.7050 C   0  0  0  0  0  0  0  0  0  0  0  0
   36.7240   27.1140   44.5360 H   0  0  0  0  0  0  0  0  0  0  0  0
   38.0640   28.6800   43.8430 C   0  0  0  0  0  0  0  0  0  0  0  0
   38.5310   28.8250   44.8050 H   0  0  0  0  0  0  0  0  0  0  0  0
   38.4650   29.4360   42.7710 C   0  0  0  0  0  0  0  0  0  0  0  0
   39.7310   30.6570   42.8920 Cl  0  0  0  0  0  0  0  0  0  0  0  0
  1  9  1  0  0  0  0
  1  6  1  0  0  0  0
  2  1  2  0  0  0  0
  3  2  1  0  0  0  0
  3  4  2  0  0  0  0
  4  5  1  0  0  0  0
  5  6  2  0  0  0  0
  5 26  1  0  0  0  0
  7  2  1  0  0  0  0
  8  3  1  0  0  0  0
  9 14  1  0  0  0  0
 10  9  1  0  0  0  0
 10 11  1  0  0  0  0
 11 19  1  0  0  0  0
 11 12  1  0  0  0  0
 12 13  1  0  0  0  0
 12 20  1  0  0  0  0
 13 22  1  0  0  0  0
 14 13  1  0  0  0  0
 14 25  1  0  0  0  0
 14 24  1  0  0  0  0
 15  9  1  0  0  0  0
 16 10  1  0  0  0  0
 17 10  1  0  0  0  0
 18 11  1  0  0  0  0
 21 12  1  0  0  0  0
 23 13  1  0  0  0  0
 26 30  2  0  0  0  0
 27 26  1  0  0  0  0
 27 28  2  0  0  0  0
 28 31  1  0  0  0  0
 28 29  1  0  0  0  0
 29 34  1  0  0  0  0
 30 29  1  0  0  0  0
 32 33  1  0  0  0  0
 33 41  1  0  0  0  0
 34 33  2  0  0  0  0
 34 35  1  0  0  0  0
 35 37  2  0  0  0  0
 36 35  1  0  0  0  0
 37 39  1  0  0  0  0
 37 38  1  0  0  0  0
 39 40  1  0  0  0  0
 41 42  1  0  0  0  0
 41 39  2  0  0  0  0
M  END
>  <minimizedAffinity>
-6.20674229

$$$$

 OpenBabel03242519263D

 42 45  0  0  0  0  0  0  0  0999 V2000
   32.3700   29.4170   36.6530 C   0  0  0  0  0  0  0  0  0  0  0  0
   32.7580   29.2390   35.3010 C   0  0  0  0  0  0  0  0  0  0  0  0
   34.0910   28.9430   34.9880 C   0  0  0  0  0  0  0  0  0  0  0  0
   34.9610   28.8430   36.0460 N   0  0  0  0  0  0  0  0  0  0  0  0
   34.5550   29.0210   37.3430 C   0  0  0  0  0  0  0  0  0  0  0  0
   33.2880   29.3010   37.6340 N   0  0  0  0  0  0  0  0  0  0  0  0
   32.1410   29.3020   34.4370 H   0  0  0  0  0  0  0  0  0  0  0  0
   34.4450   28.7980   33.9980 H   0  0  0  0  0  0  0  0  0  0  0  0
   30.9510   29.7310   36.8770 C   0  0  0  0  0  0  0  0  0  0  0  0
   30.4760   30.8800   36.1080 C   0  0  0  0  0  0  0  0  0  0  0  0
   30.1380   32.0700   36.9250 C   0  0  0  0  0  0  0  0  0  0  0  0
   29.1890   31.7670   38.0730 C   0  0  0  0  0  0  0  0  0  0  0  0
   29.3890   30.4110   38.6910 C   0  0  0  0  0  0  0  0  0  0  0  0
   30.7950   29.9100   38.3990 C   0  0  0  0  0  0  0  0  0  0  0  0
   30.3550   28.8010   36.6480 H   0  0  0  0  0  0  0  0  0  0  0  0
   29.5460   30.6060   35.5290 H   0  0  0  0  0  0  0  0  0  0  0  0
   31.1950   31.1780   35.3420 H   0  0  0  0  0  0  0  0  0  0  0  0
   29.5500   32.7620   36.2530 H   0  0  0  0  0  0  0  0  0  0  0  0
   30.9550   32.6700   37.3100 H   0  0  0  0  0  0  0  0  0  0  0  0
   29.3220   32.5260   38.8800 H   0  0  0  0  0  0  0  0  0  0  0  0
   28.1170   31.8500   37.7630 H   0  0  0  0  0  0  0  0  0  0  0  0
   29.2420   30.4190   39.7800 H   0  0  0  0  0  0  0  0  0  0  0  0
   28.6880   29.6690   38.2190 H   0  0  0  0  0  0  0  0  0  0  0  0
   31.4690   30.7420   38.6690 H   0  0  0  0  0  0  0  0  0  0  0  0
   30.9860   28.9640   38.9070 H   0  0  0  0  0  0  0  0  0  0  0  0
   35.6030   28.8850   38.3440 C   0  0  0  0  0  0  0  0  0  0  0  0
   36.8170   29.4020   38.0470 N   0  0  0  0  0  0  0  0  0  0  0  0
   37.6580   29.1910   39.0780 C   0  0  0  0  0  0  0  0  0  0  0  0
   36.9460   28.5290   40.0290 N   0  0  0  0  0  0  0  0  0  0  0  0
   35.7010   28.3460   39.5810 N   0  0  0  0  0  0  0  0  0  0  0  0
   38.6930   29.5030   39.1040 H   0  0  0  0  0  0  0  0  0  0  0  0
   37.9660   25.7760   40.0140 Cl  0  0  0  0  0  0  0  0  0  0  0  0
   37.9590   26.8330   41.4260 C   0  0  0  0  0  0  0  0  0  0  0  0
   37.4490   28.1060   41.2890 C   0  0  0  0  0  0  0  0  0  0  0  0
   37.4250   28.9620   42.3610 C   0  0  0  0  0  0  0  0  0  0  0  0
   37.0340   29.9620   42.2980 H   0  0  0  0  0  0  0  0  0  0  0  0
   37.9210   28.5290   43.5860 C   0  0  0  0  0  0  0  0  0  0  0  0
   37.8930   29.2160   44.4210 H   0  0  0  0  0  0  0  0  0  0  0  0
   38.4350   27.2340   43.7080 C   0  0  0  0  0  0  0  0  0  0  0  0
   38.8190   26.9020   44.6600 H   0  0  0  0  0  0  0  0  0  0  0  0
   38.4570   26.3840   42.6310 C   0  0  0  0  0  0  0  0  0  0  0  0
   39.0950   24.7440   42.7320 Cl  0  0  0  0  0  0  0  0  0  0  0  0
  1  9  1  0  0  0  0
  1  6  1  0  0  0  0
  2  1  2  0  0  0  0
  3  2  1  0  0  0  0
  3  4  2  0  0  0  0
  4  5  1  0  0  0  0
  5  6  2  0  0  0  0
  5 26  1  0  0  0  0
  7  2  1  0  0  0  0
  8  3  1  0  0  0  0
  9 14  1  0  0  0  0
 10  9  1  0  0  0  0
 10 11  1  0  0  0  0
 11 19  1  0  0  0  0
 11 12  1  0  0  0  0
 12 13  1  0  0  0  0
 12 20  1  0  0  0  0
 13 22  1  0  0  0  0
 14 24  1  0  0  0  0
 14 13  1  0  0  0  0
 14 25  1  0  0  0  0
 15  9  1  0  0  0  0
 16 10  1  0  0  0  0
 17 10  1  0  0  0  0
 18 11  1  0  0  0  0
 21 12  1  0  0  0  0
 23 13  1  0  0  0  0
 26 30  2  0  0  0  0
 27 26  1  0  0  0  0
 27 28  2  0  0  0  0
 28 31  1  0  0  0  0
 28 29  1  0  0  0  0
 29 34  1  0  0  0  0
 30 29  1  0  0  0  0
 32 33  1  0  0  0  0
 33 41  1  0  0  0  0
 34 33  2  0  0  0  0
 34 35  1  0  0  0  0
 35 37  2  0  0  0  0
 36 35  1  0  0  0  0
 37 39  1  0  0  0  0
 37 38  1  0  0  0  0
 39 40  1  0  0  0  0
 41 42  1  0  0  0  0
 41 39  2  0  0  0  0
M  END
>  <minimizedAffinity>
-6.1916213

$$$$

 OpenBabel03242519263D

 42 45  0  0  0  0  0  0  0  0999 V2000
   40.8570   34.0700   39.8110 C   0  0  0  0  0  0  0  0  0  0  0  0
   40.0360   35.2210   39.8910 C   0  0  0  0  0  0  0  0  0  0  0  0
   38.6820   35.0940   40.2300 C   0  0  0  0  0  0  0  0  0  0  0  0
   38.2280   33.8210   40.4690 N   0  0  0  0  0  0  0  0  0  0  0  0
   39.0470   32.7260   40.3830 C   0  0  0  0  0  0  0  0  0  0  0  0
   40.3320   32.8520   40.0620 N   0  0  0  0  0  0  0  0  0  0  0  0
   40.3200   36.2320   39.7200 H   0  0  0  0  0  0  0  0  0  0  0  0
   38.0140   35.9160   40.3070 H   0  0  0  0  0  0  0  0  0  0  0  0
   42.2610   34.3070   39.4420 C   0  0  0  0  0  0  0  0  0  0  0  0
   42.4550   34.5720   38.0180 C   0  0  0  0  0  0  0  0  0  0  0  0
   43.1820   33.5060   37.2860 C   0  0  0  0  0  0  0  0  0  0  0  0
   44.4960   33.1100   37.9410 C   0  0  0  0  0  0  0  0  0  0  0  0
   44.4750   33.1710   39.4440 C   0  0  0  0  0  0  0  0  0  0  0  0
   43.0420   33.0790   39.9460 C   0  0  0  0  0  0  0  0  0  0  0  0
   42.6430   35.1550   40.0800 H   0  0  0  0  0  0  0  0  0  0  0  0
   43.0430   35.5260   37.8730 H   0  0  0  0  0  0  0  0  0  0  0  0
   41.5070   34.7570   37.5080 H   0  0  0  0  0  0  0  0  0  0  0  0
   43.4880   33.9510   36.2940 H   0  0  0  0  0  0  0  0  0  0  0  0
   42.6400   32.5990   37.0410 H   0  0  0  0  0  0  0  0  0  0  0  0
   44.7610   32.0660   37.6510 H   0  0  0  0  0  0  0  0  0  0  0  0
   45.3490   33.7420   37.5830 H   0  0  0  0  0  0  0  0  0  0  0  0
   45.0570   32.3610   39.9050 H   0  0  0  0  0  0  0  0  0  0  0  0
   44.8650   34.1660   39.7920 H   0  0  0  0  0  0  0  0  0  0  0  0
   42.5990   32.2120   39.4230 H   0  0  0  0  0  0  0  0  0  0  0  0
   43.0120   33.0380   41.0350 H   0  0  0  0  0  0  0  0  0  0  0  0
   38.4070   31.4490   40.6610 C   0  0  0  0  0  0  0  0  0  0  0  0
   37.0930   31.4690   40.9790 N   0  0  0  0  0  0  0  0  0  0  0  0
   36.6660   30.2100   41.2020 C   0  0  0  0  0  0  0  0  0  0  0  0
   37.7430   29.3990   41.0170 N   0  0  0  0  0  0  0  0  0  0  0  0
   38.7950   30.1530   40.6900 N   0  0  0  0  0  0  0  0  0  0  0  0
   35.6550   29.9400   41.4730 H   0  0  0  0  0  0  0  0  0  0  0  0
   39.5630   28.4210   43.1030 Cl  0  0  0  0  0  0  0  0  0  0  0  0
   38.5500   27.3890   42.0940 C   0  0  0  0  0  0  0  0  0  0  0  0
   37.7400   27.9840   41.1510 C   0  0  0  0  0  0  0  0  0  0  0  0
   36.9360   27.2190   40.3460 C   0  0  0  0  0  0  0  0  0  0  0  0
   36.2900   27.6430   39.5970 H   0  0  0  0  0  0  0  0  0  0  0  0
   36.9480   25.8360   40.4920 C   0  0  0  0  0  0  0  0  0  0  0  0
   36.3090   25.2470   39.8480 H   0  0  0  0  0  0  0  0  0  0  0  0
   37.7760   25.2470   41.4530 C   0  0  0  0  0  0  0  0  0  0  0  0
   37.7830   24.1740   41.5630 H   0  0  0  0  0  0  0  0  0  0  0  0
   38.5780   26.0190   42.2560 C   0  0  0  0  0  0  0  0  0  0  0  0
   39.6370   25.3270   43.4830 Cl  0  0  0  0  0  0  0  0  0  0  0  0
  1  2  2  0  0  0  0
  1  6  1  0  0  0  0
  2  3  1  0  0  0  0
  3  8  1  0  0  0  0
  3  4  2  0  0  0  0
  5  4  1  0  0  0  0
  5 26  1  0  0  0  0
  6  5  2  0  0  0  0
  7  2  1  0  0  0  0
  9  1  1  0  0  0  0
  9 14  1  0  0  0  0
  9 15  1  0  0  0  0
 10  9  1  0  0  0  0
 11 12  1  0  0  0  0
 11 10  1  0  0  0  0
 12 13  1  0  0  0  0
 13 23  1  0  0  0  0
 13 22  1  0  0  0  0
 13 14  1  0  0  0  0
 14 25  1  0  0  0  0
 16 10  1  0  0  0  0
 17 10  1  0  0  0  0
 18 11  1  0  0  0  0
 19 11  1  0  0  0  0
 20 12  1  0  0  0  0
 21 12  1  0  0  0  0
 24 14  1  0  0  0  0
 26 30  2  0  0  0  0
 26 27  1  0  0  0  0
 27 28  2  0  0  0  0
 28 31  1  0  0  0  0
 29 34  1  0  0  0  0
 29 28  1  0  0  0  0
 30 29  1  0  0  0  0
 33 41  1  0  0  0  0
 33 32  1  0  0  0  0
 34 33  2  0  0  0  0
 35 37  2  0  0  0  0
 35 34  1  0  0  0  0
 36 35  1  0  0  0  0
 37 39  1  0  0  0  0
 38 37  1  0  0  0  0
 39 40  1  0  0  0  0
 39 41  2  0  0  0  0
 41 42  1  0  0  0  0
M  END
>  <minimizedAffinity>
-6.07888126

$$$$

 OpenBabel03242519263D

 42 45  0  0  0  0  0  0  0  0999 V2000
   40.5970   33.6040   39.9180 C   0  0  0  0  0  0  0  0  0  0  0  0
   39.8460   34.8040   39.9720 C   0  0  0  0  0  0  0  0  0  0  0  0
   38.4700   34.7580   40.2350 C   0  0  0  0  0  0  0  0  0  0  0  0
   37.9250   33.5120   40.4290 N   0  0  0  0  0  0  0  0  0  0  0  0
   38.6790   32.3690   40.3700 C   0  0  0  0  0  0  0  0  0  0  0  0
   39.9840   32.4190   40.1200 N   0  0  0  0  0  0  0  0  0  0  0  0
   40.2010   35.7960   39.8330 H   0  0  0  0  0  0  0  0  0  0  0  0
   37.8520   35.6190   40.2890 H   0  0  0  0  0  0  0  0  0  0  0  0
   42.0310   33.7570   39.6290 C   0  0  0  0  0  0  0  0  0  0  0  0
   42.3100   34.6420   38.5000 C   0  0  0  0  0  0  0  0  0  0  0  0
   42.8660   33.9600   37.3060 C   0  0  0  0  0  0  0  0  0  0  0  0
   44.0730   33.0890   37.6130 C   0  0  0  0  0  0  0  0  0  0  0  0
   44.0190   32.4170   38.9580 C   0  0  0  0  0  0  0  0  0  0  0  0
   42.5760   32.3300   39.4350 C   0  0  0  0  0  0  0  0  0  0  0  0
   42.5330   34.1160   40.5740 H   0  0  0  0  0  0  0  0  0  0  0  0
   43.0560   35.4360   38.7980 H   0  0  0  0  0  0  0  0  0  0  0  0
   41.4230   35.2020   38.1970 H   0  0  0  0  0  0  0  0  0  0  0  0
   43.2720   34.7720   36.6340 H   0  0  0  0  0  0  0  0  0  0  0  0
   42.1850   33.3870   36.6850 H   0  0  0  0  0  0  0  0  0  0  0  0
   44.1650   32.2880   36.8420 H   0  0  0  0  0  0  0  0  0  0  0  0
   45.0310   33.6650   37.5550 H   0  0  0  0  0  0  0  0  0  0  0  0
   44.4400   31.4030   38.9390 H   0  0  0  0  0  0  0  0  0  0  0  0
   44.5620   33.0410   39.7200 H   0  0  0  0  0  0  0  0  0  0  0  0
   42.0080   31.9090   38.5860 H   0  0  0  0  0  0  0  0  0  0  0  0
   42.5070   31.7730   40.3700 H   0  0  0  0  0  0  0  0  0  0  0  0
   37.9470   31.1320   40.5920 C   0  0  0  0  0  0  0  0  0  0  0  0
   36.6100   31.2250   40.7790 N   0  0  0  0  0  0  0  0  0  0  0  0
   36.0960   29.9940   40.9670 C   0  0  0  0  0  0  0  0  0  0  0  0
   37.1400   29.1240   40.8940 N   0  0  0  0  0  0  0  0  0  0  0  0
   38.2590   29.8170   40.6670 N   0  0  0  0  0  0  0  0  0  0  0  0
   35.0500   29.7810   41.1390 H   0  0  0  0  0  0  0  0  0  0  0  0
   36.7440   27.7180   38.3480 Cl  0  0  0  0  0  0  0  0  0  0  0  0
   36.8600   26.9280   39.9200 C   0  0  0  0  0  0  0  0  0  0  0  0
   37.0480   27.7130   41.0370 C   0  0  0  0  0  0  0  0  0  0  0  0
   37.1450   27.1400   42.2790 C   0  0  0  0  0  0  0  0  0  0  0  0
   37.2900   27.7160   43.1760 H   0  0  0  0  0  0  0  0  0  0  0  0
   37.0520   25.7570   42.3980 C   0  0  0  0  0  0  0  0  0  0  0  0
   37.1290   25.3220   43.3850 H   0  0  0  0  0  0  0  0  0  0  0  0
   36.8610   24.9740   41.2550 C   0  0  0  0  0  0  0  0  0  0  0  0
   36.7900   23.9020   41.3510 H   0  0  0  0  0  0  0  0  0  0  0  0
   36.7650   25.5550   40.0150 C   0  0  0  0  0  0  0  0  0  0  0  0
   36.5270   24.6130   38.5440 Cl  0  0  0  0  0  0  0  0  0  0  0  0
  1  2  2  0  0  0  0
  1  6  1  0  0  0  0
  2  3  1  0  0  0  0
  3  8  1  0  0  0  0
  3  4  2  0  0  0  0
  5  4  1  0  0  0  0
  5 26  1  0  0  0  0
  6  5  2  0  0  0  0
  7  2  1  0  0  0  0
  9  1  1  0  0  0  0
  9 15  1  0  0  0  0
 10 16  1  0  0  0  0
 10  9  1  0  0  0  0
 11 12  1  0  0  0  0
 11 10  1  0  0  0  0
 12 13  1  0  0  0  0
 13 14  1  0  0  0  0
 13 23  1  0  0  0  0
 14  9  1  0  0  0  0
 14 25  1  0  0  0  0
 17 10  1  0  0  0  0
 18 11  1  0  0  0  0
 19 11  1  0  0  0  0
 20 12  1  0  0  0  0
 21 12  1  0  0  0  0
 22 13  1  0  0  0  0
 24 14  1  0  0  0  0
 26 30  2  0  0  0  0
 26 27  1  0  0  0  0
 27 28  2  0  0  0  0
 28 31  1  0  0  0  0
 29 28  1  0  0  0  0
 29 34  1  0  0  0  0
 30 29  1  0  0  0  0
 32 33  1  0  0  0  0
 33 41  2  0  0  0  0
 33 34  1  0  0  0  0
 34 35  2  0  0  0  0
 35 37  1  0  0  0  0
 35 36  1  0  0  0  0
 37 38  1  0  0  0  0
 39 40  1  0  0  0  0
 39 37  2  0  0  0  0
 41 39  1  0  0  0  0
 42 41  1  0  0  0  0
M  END
>  <minimizedAffinity>
-5.94429207

$$$$
