
 OpenBabel03252503293D

 27 28  0  0  0  0  0  0  0  0999 V2000
   37.5290   30.5880   41.0440 C   0  0  0  0  0  0  0  0  0  0  0  0
   37.7230   29.5160   41.9420 C   0  0  0  0  0  0  0  0  0  0  0  0
   36.7350   28.5170   41.9210 C   0  0  0  0  0  0  0  0  0  0  0  0
   35.6950   28.6640   41.0560 N   0  0  0  0  0  0  0  0  0  0  0  0
   35.5660   29.7160   40.2200 C   0  0  0  0  0  0  0  0  0  0  0  0
   36.5010   30.6910   40.2180 N   0  0  0  0  0  0  0  0  0  0  0  0
   39.6930   31.2500   40.3250 C   0  0  0  0  0  0  0  0  0  0  0  0
   39.7510   30.0640   39.8990 O   0  0  0  0  0  0  0  0  0  0  0  0
   38.5020   31.6440   41.0130 N   0  0  0  0  0  0  0  0  0  0  0  0
   38.5830   29.4810   42.5970 H   0  0  0  0  0  0  0  0  0  0  0  0
   34.7140   29.7850   39.5450 H   0  0  0  0  0  0  0  0  0  0  0  0
   38.4080   32.6070   41.4270 H   0  0  0  0  0  0  0  0  0  0  0  0
   41.5600   31.3960   42.5970 Cl  0  0  0  0  0  0  0  0  0  0  0  0
   41.6850   32.4290   41.1890 C   0  0  0  0  0  0  0  0  0  0  0  0
   40.7490   32.2740   40.1760 C   0  0  0  0  0  0  0  0  0  0  0  0
   40.7160   33.0110   39.0090 C   0  0  0  0  0  0  0  0  0  0  0  0
   39.9870   32.8710   38.2470 H   0  0  0  0  0  0  0  0  0  0  0  0
   41.6960   33.9670   38.8610 C   0  0  0  0  0  0  0  0  0  0  0  0
   41.7810   34.6200   37.9790 H   0  0  0  0  0  0  0  0  0  0  0  0
   42.6510   34.1610   39.8400 C   0  0  0  0  0  0  0  0  0  0  0  0
   43.4250   34.9200   39.7170 H   0  0  0  0  0  0  0  0  0  0  0  0
   42.6500   33.4010   40.9950 C   0  0  0  0  0  0  0  0  0  0  0  0
   43.8370   33.6030   42.2770 Cl  0  0  0  0  0  0  0  0  0  0  0  0
   36.9320   27.4110   42.8450 C   0  0  0  0  0  0  0  0  0  0  0  0
   35.8150   27.3030   43.6790 F   0  0  0  0  0  0  0  0  0  0  0  0
   37.9830   27.7510   43.6780 F   0  0  0  0  0  0  0  0  0  0  0  0
   37.0920   26.2020   42.2210 F   0  0  0  0  0  0  0  0  0  0  0  0
  1  2  1  0  0  0  0
  2 10  1  0  0  0  0
  3  2  2  0  0  0  0
  3 24  1  0  0  0  0
  4  3  1  0  0  0  0
  5  4  2  0  0  0  0
  6  5  1  0  0  0  0
  6  1  2  0  0  0  0
  7  9  1  0  0  0  0
  8  7  2  0  0  0  0
  9  1  1  0  0  0  0
  9 12  1  0  0  0  0
 11  5  1  0  0  0  0
 14 13  1  0  0  0  0
 15  7  1  0  0  0  0
 15 14  2  0  0  0  0
 16 15  1  0  0  0  0
 17 16  1  0  0  0  0
 18 16  2  0  0  0  0
 18 20  1  0  0  0  0
 19 18  1  0  0  0  0
 20 22  2  0  0  0  0
 21 20  1  0  0  0  0
 22 14  1  0  0  0  0
 22 23  1  0  0  0  0
 24 26  1  0  0  0  0
 24 25  1  0  0  0  0
 27 24  1  0  0  0  0
M  END
>  <minimizedAffinity>
-5.65815258

$$$$

 OpenBabel03252503293D

 27 28  0  0  0  0  0  0  0  0999 V2000
   39.7260   27.7220   41.9940 C   0  0  0  0  0  0  0  0  0  0  0  0
   38.6040   26.9490   41.6240 C   0  0  0  0  0  0  0  0  0  0  0  0
   38.4350   25.7440   42.3280 C   0  0  0  0  0  0  0  0  0  0  0  0
   39.3460   25.4300   43.2870 N   0  0  0  0  0  0  0  0  0  0  0  0
   40.4020   26.2140   43.5950 C   0  0  0  0  0  0  0  0  0  0  0  0
   40.5900   27.3770   42.9350 N   0  0  0  0  0  0  0  0  0  0  0  0
   39.0710   29.9920   41.7660 C   0  0  0  0  0  0  0  0  0  0  0  0
   38.2040   29.6730   42.6260 O   0  0  0  0  0  0  0  0  0  0  0  0
   39.9590   28.9650   41.3150 N   0  0  0  0  0  0  0  0  0  0  0  0
   37.9280   27.2770   40.8470 H   0  0  0  0  0  0  0  0  0  0  0  0
   41.1040   25.9160   44.3740 H   0  0  0  0  0  0  0  0  0  0  0  0
   40.6780   29.1580   40.5700 H   0  0  0  0  0  0  0  0  0  0  0  0
   36.6170   31.1500   40.6220 Cl  0  0  0  0  0  0  0  0  0  0  0  0
   38.1590   31.9780   40.6130 C   0  0  0  0  0  0  0  0  0  0  0  0
   39.2520   31.3380   41.1810 C   0  0  0  0  0  0  0  0  0  0  0  0
   40.5280   31.8600   41.2500 C   0  0  0  0  0  0  0  0  0  0  0  0
   41.3490   31.3470   41.6920 H   0  0  0  0  0  0  0  0  0  0  0  0
   40.7070   33.1130   40.7080 C   0  0  0  0  0  0  0  0  0  0  0  0
   41.6740   33.6400   40.6980 H   0  0  0  0  0  0  0  0  0  0  0  0
   39.6520   33.7930   40.1300 C   0  0  0  0  0  0  0  0  0  0  0  0
   39.8000   34.7850   39.7020 H   0  0  0  0  0  0  0  0  0  0  0  0
   38.3880   33.2350   40.0810 C   0  0  0  0  0  0  0  0  0  0  0  0
   37.0070   34.0500   39.3590 Cl  0  0  0  0  0  0  0  0  0  0  0  0
   37.2790   24.9450   41.9480 C   0  0  0  0  0  0  0  0  0  0  0  0
   36.7100   25.4810   40.7890 F   0  0  0  0  0  0  0  0  0  0  0  0
   36.3240   25.1040   42.9370 F   0  0  0  0  0  0  0  0  0  0  0  0
   37.5860   23.6370   41.6830 F   0  0  0  0  0  0  0  0  0  0  0  0
  1  6  1  0  0  0  0
  2  1  2  0  0  0  0
  2  3  1  0  0  0  0
  3  4  2  0  0  0  0
  4  5  1  0  0  0  0
  5 11  1  0  0  0  0
  6  5  2  0  0  0  0
  7  8  2  0  0  0  0
  9  7  1  0  0  0  0
  9  1  1  0  0  0  0
 10  2  1  0  0  0  0
 12  9  1  0  0  0  0
 14 13  1  0  0  0  0
 14 15  1  0  0  0  0
 15 16  2  0  0  0  0
 15  7  1  0  0  0  0
 16 17  1  0  0  0  0
 18 16  1  0  0  0  0
 19 18  1  0  0  0  0
 20 18  2  0  0  0  0
 21 20  1  0  0  0  0
 22 20  1  0  0  0  0
 22 14  2  0  0  0  0
 23 22  1  0  0  0  0
 24  3  1  0  0  0  0
 24 26  1  0  0  0  0
 25 24  1  0  0  0  0
 27 24  1  0  0  0  0
M  END
>  <minimizedAffinity>
-5.55680561

$$$$

 OpenBabel03252503293D

 27 28  0  0  0  0  0  0  0  0999 V2000
   38.8900   31.9550   40.2470 C   0  0  0  0  0  0  0  0  0  0  0  0
   39.7880   31.7960   39.1700 C   0  0  0  0  0  0  0  0  0  0  0  0
   40.5370   32.9350   38.8270 C   0  0  0  0  0  0  0  0  0  0  0  0
   40.3400   34.0720   39.5480 N   0  0  0  0  0  0  0  0  0  0  0  0
   39.4630   34.1610   40.5710 C   0  0  0  0  0  0  0  0  0  0  0  0
   38.7290   33.0820   40.9220 N   0  0  0  0  0  0  0  0  0  0  0  0
   38.8570   29.8770   41.3950 C   0  0  0  0  0  0  0  0  0  0  0  0
   40.0870   30.1120   41.5490 O   0  0  0  0  0  0  0  0  0  0  0  0
   38.0940   30.8320   40.6500 N   0  0  0  0  0  0  0  0  0  0  0  0
   39.8810   30.8520   38.6520 H   0  0  0  0  0  0  0  0  0  0  0  0
   39.3430   35.0960   41.1170 H   0  0  0  0  0  0  0  0  0  0  0  0
   37.0710   30.6730   40.4530 H   0  0  0  0  0  0  0  0  0  0  0  0
   38.7630   27.5970   39.5340 Cl  0  0  0  0  0  0  0  0  0  0  0  0
   38.0250   27.5670   41.1210 C   0  0  0  0  0  0  0  0  0  0  0  0
   38.1310   28.7000   41.9160 C   0  0  0  0  0  0  0  0  0  0  0  0
   37.6030   28.8280   43.1850 C   0  0  0  0  0  0  0  0  0  0  0  0
   37.6990   29.7090   43.7740 H   0  0  0  0  0  0  0  0  0  0  0  0
   36.9250   27.7370   43.6800 C   0  0  0  0  0  0  0  0  0  0  0  0
   36.4580   27.7100   44.6760 H   0  0  0  0  0  0  0  0  0  0  0  0
   36.7910   26.5850   42.9280 C   0  0  0  0  0  0  0  0  0  0  0  0
   36.2530   25.7230   43.3260 H   0  0  0  0  0  0  0  0  0  0  0  0
   37.3350   26.4960   41.6610 C   0  0  0  0  0  0  0  0  0  0  0  0
   37.1970   25.0580   40.6560 Cl  0  0  0  0  0  0  0  0  0  0  0  0
   41.4630   32.7740   37.7160 C   0  0  0  0  0  0  0  0  0  0  0  0
   42.6130   32.1190   38.1670 F   0  0  0  0  0  0  0  0  0  0  0  0
   41.8810   34.0380   37.3410 F   0  0  0  0  0  0  0  0  0  0  0  0
   40.9510   32.0330   36.6840 F   0  0  0  0  0  0  0  0  0  0  0  0
  1  9  1  0  0  0  0
  1  6  1  0  0  0  0
  2  1  2  0  0  0  0
  3  2  1  0  0  0  0
  3  4  2  0  0  0  0
  4  5  1  0  0  0  0
  5  6  2  0  0  0  0
  5 11  1  0  0  0  0
  7  8  2  0  0  0  0
  7 15  1  0  0  0  0
  9  7  1  0  0  0  0
 10  2  1  0  0  0  0
 12  9  1  0  0  0  0
 13 14  1  0  0  0  0
 14 22  2  0  0  0  0
 14 15  1  0  0  0  0
 15 16  2  0  0  0  0
 16 18  1  0  0  0  0
 16 17  1  0  0  0  0
 18 19  1  0  0  0  0
 20 21  1  0  0  0  0
 20 18  2  0  0  0  0
 22 20  1  0  0  0  0
 23 22  1  0  0  0  0
 24 25  1  0  0  0  0
 24  3  1  0  0  0  0
 26 24  1  0  0  0  0
 27 24  1  0  0  0  0
M  END
>  <minimizedAffinity>
-5.45177221

$$$$

 OpenBabel03252503293D

 27 28  0  0  0  0  0  0  0  0999 V2000
   38.0920   29.5910   38.7510 C   0  0  0  0  0  0  0  0  0  0  0  0
   38.2360   30.7450   39.5520 C   0  0  0  0  0  0  0  0  0  0  0  0
   37.9060   31.9620   38.9320 C   0  0  0  0  0  0  0  0  0  0  0  0
   37.4830   31.9280   37.6390 N   0  0  0  0  0  0  0  0  0  0  0  0
   37.3670   30.7880   36.9250 C   0  0  0  0  0  0  0  0  0  0  0  0
   37.6770   29.6040   37.4950 N   0  0  0  0  0  0  0  0  0  0  0  0
   37.3880   27.8550   40.2100 C   0  0  0  0  0  0  0  0  0  0  0  0
   36.4060   28.6230   40.4070 O   0  0  0  0  0  0  0  0  0  0  0  0
   38.4120   28.3140   39.3220 N   0  0  0  0  0  0  0  0  0  0  0  0
   38.5800   30.6790   40.5740 H   0  0  0  0  0  0  0  0  0  0  0  0
   37.0220   30.8160   35.8920 H   0  0  0  0  0  0  0  0  0  0  0  0
   39.2760   27.7370   39.1470 H   0  0  0  0  0  0  0  0  0  0  0  0
   39.3910   27.7840   42.3670 Cl  0  0  0  0  0  0  0  0  0  0  0  0
   38.4980   26.3720   41.8450 C   0  0  0  0  0  0  0  0  0  0  0  0
   37.5770   26.5210   40.8170 C   0  0  0  0  0  0  0  0  0  0  0  0
   36.7990   25.5050   40.2970 C   0  0  0  0  0  0  0  0  0  0  0  0
   36.1000   25.6470   39.5090 H   0  0  0  0  0  0  0  0  0  0  0  0
   36.9680   24.2580   40.8570 C   0  0  0  0  0  0  0  0  0  0  0  0
   36.4100   23.3660   40.5340 H   0  0  0  0  0  0  0  0  0  0  0  0
   37.8720   24.0570   41.8820 C   0  0  0  0  0  0  0  0  0  0  0  0
   38.0010   23.0670   42.3210 H   0  0  0  0  0  0  0  0  0  0  0  0
   38.6310   25.1010   42.3750 C   0  0  0  0  0  0  0  0  0  0  0  0
   39.7990   24.9070   43.6770 Cl  0  0  0  0  0  0  0  0  0  0  0  0
   38.0540   33.1530   39.7550 C   0  0  0  0  0  0  0  0  0  0  0  0
   39.2850   33.7550   39.4760 F   0  0  0  0  0  0  0  0  0  0  0  0
   38.1360   32.7380   41.0720 F   0  0  0  0  0  0  0  0  0  0  0  0
   37.0820   34.0920   39.5320 F   0  0  0  0  0  0  0  0  0  0  0  0
  1  9  1  0  0  0  0
  1  2  1  0  0  0  0
  2 10  1  0  0  0  0
  3  2  2  0  0  0  0
  3 24  1  0  0  0  0
  4  3  1  0  0  0  0
  5  6  1  0  0  0  0
  5  4  2  0  0  0  0
  6  1  2  0  0  0  0
  7  8  2  0  0  0  0
  7 15  1  0  0  0  0
  9  7  1  0  0  0  0
 11  5  1  0  0  0  0
 12  9  1  0  0  0  0
 14 13  1  0  0  0  0
 14 22  1  0  0  0  0
 15 14  2  0  0  0  0
 16 15  1  0  0  0  0
 16 18  2  0  0  0  0
 17 16  1  0  0  0  0
 18 20  1  0  0  0  0
 19 18  1  0  0  0  0
 20 21  1  0  0  0  0
 20 22  2  0  0  0  0
 22 23  1  0  0  0  0
 24 26  1  0  0  0  0
 25 24  1  0  0  0  0
 27 24  1  0  0  0  0
M  END
>  <minimizedAffinity>
-5.32034588

$$$$

 OpenBabel03252503293D

 27 28  0  0  0  0  0  0  0  0999 V2000
   38.5520   29.7920   39.2980 C   0  0  0  0  0  0  0  0  0  0  0  0
   38.7810   31.0170   39.9600 C   0  0  0  0  0  0  0  0  0  0  0  0
   38.2550   32.1580   39.3300 C   0  0  0  0  0  0  0  0  0  0  0  0
   37.5840   31.9910   38.1590 N   0  0  0  0  0  0  0  0  0  0  0  0
   37.3980   30.7880   37.5730 C   0  0  0  0  0  0  0  0  0  0  0  0
   37.8920   29.6740   38.1570 N   0  0  0  0  0  0  0  0  0  0  0  0
   38.2690   28.1610   40.9990 C   0  0  0  0  0  0  0  0  0  0  0  0
   37.2990   28.8960   41.3340 O   0  0  0  0  0  0  0  0  0  0  0  0
   39.0610   28.5860   39.8860 N   0  0  0  0  0  0  0  0  0  0  0  0
   39.3270   31.0580   40.8920 H   0  0  0  0  0  0  0  0  0  0  0  0
   36.8520   30.7080   36.6350 H   0  0  0  0  0  0  0  0  0  0  0  0
   39.9080   28.0380   39.5820 H   0  0  0  0  0  0  0  0  0  0  0  0
   37.2820   25.7420   39.6400 Cl  0  0  0  0  0  0  0  0  0  0  0  0
   38.2490   25.6920   41.0980 C   0  0  0  0  0  0  0  0  0  0  0  0
   38.6610   26.8960   41.6550 C   0  0  0  0  0  0  0  0  0  0  0  0
   39.4250   27.0190   42.7990 C   0  0  0  0  0  0  0  0  0  0  0  0
   39.7270   27.9550   43.2040 H   0  0  0  0  0  0  0  0  0  0  0  0
   39.7950   25.8460   43.4170 C   0  0  0  0  0  0  0  0  0  0  0  0
   40.4030   25.8060   44.3340 H   0  0  0  0  0  0  0  0  0  0  0  0
   39.4110   24.6220   42.9030 C   0  0  0  0  0  0  0  0  0  0  0  0
   39.7080   23.6960   43.3980 H   0  0  0  0  0  0  0  0  0  0  0  0
   38.6460   24.5410   41.7550 C   0  0  0  0  0  0  0  0  0  0  0  0
   38.1260   23.0130   41.0540 Cl  0  0  0  0  0  0  0  0  0  0  0  0
   38.4900   33.4230   40.0110 C   0  0  0  0  0  0  0  0  0  0  0  0
   38.6850   33.1830   41.3740 F   0  0  0  0  0  0  0  0  0  0  0  0
   37.3210   34.1590   39.9290 F   0  0  0  0  0  0  0  0  0  0  0  0
   39.5950   34.0900   39.5530 F   0  0  0  0  0  0  0  0  0  0  0  0
  1  9  1  0  0  0  0
  1  2  1  0  0  0  0
  2 10  1  0  0  0  0
  3  2  2  0  0  0  0
  3 24  1  0  0  0  0
  4  3  1  0  0  0  0
  5  6  1  0  0  0  0
  5  4  2  0  0  0  0
  6  1  2  0  0  0  0
  7  8  2  0  0  0  0
  7 15  1  0  0  0  0
  9  7  1  0  0  0  0
 11  5  1  0  0  0  0
 12  9  1  0  0  0  0
 13 14  1  0  0  0  0
 14 15  2  0  0  0  0
 14 22  1  0  0  0  0
 15 16  1  0  0  0  0
 16 17  1  0  0  0  0
 16 18  2  0  0  0  0
 18 19  1  0  0  0  0
 20 21  1  0  0  0  0
 20 18  1  0  0  0  0
 22 20  2  0  0  0  0
 23 22  1  0  0  0  0
 24 25  1  0  0  0  0
 26 24  1  0  0  0  0
 27 24  1  0  0  0  0
M  END
>  <minimizedAffinity>
-5.24649191

$$$$

 OpenBabel03252503293D

 27 28  0  0  0  0  0  0  0  0999 V2000
   37.8270   29.6500   38.5670 C   0  0  0  0  0  0  0  0  0  0  0  0
   37.8760   30.7740   39.4180 C   0  0  0  0  0  0  0  0  0  0  0  0
   37.7270   32.0220   38.7890 C   0  0  0  0  0  0  0  0  0  0  0  0
   37.5510   32.0420   37.4400 N   0  0  0  0  0  0  0  0  0  0  0  0
   37.5130   30.9270   36.6790 C   0  0  0  0  0  0  0  0  0  0  0  0
   37.6530   29.7140   37.2570 N   0  0  0  0  0  0  0  0  0  0  0  0
   36.7790   27.9210   39.8130 C   0  0  0  0  0  0  0  0  0  0  0  0
   35.8160   28.7360   39.8500 O   0  0  0  0  0  0  0  0  0  0  0  0
   37.9720   28.3440   39.1440 N   0  0  0  0  0  0  0  0  0  0  0  0
   38.0200   30.6660   40.4840 H   0  0  0  0  0  0  0  0  0  0  0  0
   37.3680   30.9980   35.6020 H   0  0  0  0  0  0  0  0  0  0  0  0
   38.8240   27.7250   39.1130 H   0  0  0  0  0  0  0  0  0  0  0  0
   35.9750   25.7940   37.9420 Cl  0  0  0  0  0  0  0  0  0  0  0  0
   36.4240   25.4850   39.6060 C   0  0  0  0  0  0  0  0  0  0  0  0
   36.7860   26.5640   40.4000 C   0  0  0  0  0  0  0  0  0  0  0  0
   37.1630   26.4820   41.7260 C   0  0  0  0  0  0  0  0  0  0  0  0
   37.4360   27.3260   42.3120 H   0  0  0  0  0  0  0  0  0  0  0  0
   37.1720   25.2220   42.2810 C   0  0  0  0  0  0  0  0  0  0  0  0
   37.4530   25.0200   43.3270 H   0  0  0  0  0  0  0  0  0  0  0  0
   36.8200   24.1140   41.5340 C   0  0  0  0  0  0  0  0  0  0  0  0
   36.8300   23.1190   41.9800 H   0  0  0  0  0  0  0  0  0  0  0  0
   36.4490   24.2400   40.2090 C   0  0  0  0  0  0  0  0  0  0  0  0
   35.9890   22.8680   39.2070 Cl  0  0  0  0  0  0  0  0  0  0  0  0
   37.7780   33.1840   39.6640 C   0  0  0  0  0  0  0  0  0  0  0  0
   39.0090   33.8250   39.5070 F   0  0  0  0  0  0  0  0  0  0  0  0
   37.7660   32.7200   40.9670 F   0  0  0  0  0  0  0  0  0  0  0  0
   36.8010   34.1070   39.3990 F   0  0  0  0  0  0  0  0  0  0  0  0
  1  9  1  0  0  0  0
  1  2  1  0  0  0  0
  2 10  1  0  0  0  0
  3  2  2  0  0  0  0
  3 24  1  0  0  0  0
  4  3  1  0  0  0  0
  5  6  1  0  0  0  0
  5  4  2  0  0  0  0
  6  1  2  0  0  0  0
  7  8  2  0  0  0  0
  7 15  1  0  0  0  0
  9  7  1  0  0  0  0
 11  5  1  0  0  0  0
 12  9  1  0  0  0  0
 13 14  1  0  0  0  0
 14 22  2  0  0  0  0
 14 15  1  0  0  0  0
 15 16  2  0  0  0  0
 16 18  1  0  0  0  0
 16 17  1  0  0  0  0
 18 19  1  0  0  0  0
 20 21  1  0  0  0  0
 20 18  2  0  0  0  0
 22 20  1  0  0  0  0
 23 22  1  0  0  0  0
 24 26  1  0  0  0  0
 25 24  1  0  0  0  0
 27 24  1  0  0  0  0
M  END
>  <minimizedAffinity>
-5.23213577

$$$$

 OpenBabel03252503293D

 27 28  0  0  0  0  0  0  0  0999 V2000
   36.7500   28.5940   36.5150 C   0  0  0  0  0  0  0  0  0  0  0  0
   36.8070   29.8240   35.8250 C   0  0  0  0  0  0  0  0  0  0  0  0
   36.2320   29.8300   34.5420 C   0  0  0  0  0  0  0  0  0  0  0  0
   35.6800   28.6750   34.0830 N   0  0  0  0  0  0  0  0  0  0  0  0
   35.6570   27.5270   34.7940 C   0  0  0  0  0  0  0  0  0  0  0  0
   36.2020   27.4920   36.0290 N   0  0  0  0  0  0  0  0  0  0  0  0
   36.4770   29.1350   38.8110 C   0  0  0  0  0  0  0  0  0  0  0  0
   35.4190   29.6860   38.4010 O   0  0  0  0  0  0  0  0  0  0  0  0
   37.3180   28.5170   37.8310 N   0  0  0  0  0  0  0  0  0  0  0  0
   37.2670   30.6960   36.2690 H   0  0  0  0  0  0  0  0  0  0  0  0
   35.2020   26.6280   34.3790 H   0  0  0  0  0  0  0  0  0  0  0  0
   38.2340   28.0750   38.1040 H   0  0  0  0  0  0  0  0  0  0  0  0
   38.5810   31.0780   39.4950 Cl  0  0  0  0  0  0  0  0  0  0  0  0
   37.9180   29.9410   40.6490 C   0  0  0  0  0  0  0  0  0  0  0  0
   36.9290   29.0690   40.2170 C   0  0  0  0  0  0  0  0  0  0  0  0
   36.3110   28.1180   41.0060 C   0  0  0  0  0  0  0  0  0  0  0  0
   35.5540   27.4620   40.6500 H   0  0  0  0  0  0  0  0  0  0  0  0
   36.7250   28.0500   42.3170 C   0  0  0  0  0  0  0  0  0  0  0  0
   36.3130   27.3370   43.0490 H   0  0  0  0  0  0  0  0  0  0  0  0
   37.7070   28.8950   42.7970 C   0  0  0  0  0  0  0  0  0  0  0  0
   38.0300   28.8360   43.8370 H   0  0  0  0  0  0  0  0  0  0  0  0
   38.3000   29.8340   41.9740 C   0  0  0  0  0  0  0  0  0  0  0  0
   39.5560   30.9370   42.5260 Cl  0  0  0  0  0  0  0  0  0  0  0  0
   36.2900   31.0960   33.8280 C   0  0  0  0  0  0  0  0  0  0  0  0
   37.0750   30.9430   32.6820 F   0  0  0  0  0  0  0  0  0  0  0  0
   36.9750   31.9920   34.6290 F   0  0  0  0  0  0  0  0  0  0  0  0
   35.0620   31.5480   33.4220 F   0  0  0  0  0  0  0  0  0  0  0  0
  1  9  1  0  0  0  0
  2 10  1  0  0  0  0
  2  1  2  0  0  0  0
  3  2  1  0  0  0  0
  4  3  2  0  0  0  0
  4  5  1  0  0  0  0
  5  6  2  0  0  0  0
  6  1  1  0  0  0  0
  7 15  1  0  0  0  0
  8  7  2  0  0  0  0
  9 12  1  0  0  0  0
  9  7  1  0  0  0  0
 11  5  1  0  0  0  0
 13 14  1  0  0  0  0
 14 22  1  0  0  0  0
 15 14  2  0  0  0  0
 15 16  1  0  0  0  0
 16 18  2  0  0  0  0
 17 16  1  0  0  0  0
 18 20  1  0  0  0  0
 18 19  1  0  0  0  0
 20 21  1  0  0  0  0
 22 23  1  0  0  0  0
 22 20  2  0  0  0  0
 24  3  1  0  0  0  0
 24 26  1  0  0  0  0
 25 24  1  0  0  0  0
 27 24  1  0  0  0  0
M  END
>  <minimizedAffinity>
-5.20851278

$$$$

 OpenBabel03252503293D

 27 28  0  0  0  0  0  0  0  0999 V2000
   36.7010   28.5560   36.1700 C   0  0  0  0  0  0  0  0  0  0  0  0
   36.7420   29.8310   35.5660 C   0  0  0  0  0  0  0  0  0  0  0  0
   36.2640   29.8950   34.2460 C   0  0  0  0  0  0  0  0  0  0  0  0
   35.8090   28.7480   33.6730 N   0  0  0  0  0  0  0  0  0  0  0  0
   35.7960   27.5550   34.3060 C   0  0  0  0  0  0  0  0  0  0  0  0
   36.2500   27.4640   35.5750 N   0  0  0  0  0  0  0  0  0  0  0  0
   36.2340   28.9270   38.4680 C   0  0  0  0  0  0  0  0  0  0  0  0
   35.1800   29.4520   38.0150 O   0  0  0  0  0  0  0  0  0  0  0  0
   37.1750   28.4180   37.5180 N   0  0  0  0  0  0  0  0  0  0  0  0
   37.1220   30.6920   36.0980 H   0  0  0  0  0  0  0  0  0  0  0  0
   35.4210   26.6660   33.8020 H   0  0  0  0  0  0  0  0  0  0  0  0
   38.0910   28.0030   37.8310 H   0  0  0  0  0  0  0  0  0  0  0  0
   36.2590   26.1470   39.4400 Cl  0  0  0  0  0  0  0  0  0  0  0  0
   36.6270   27.5200   40.4610 C   0  0  0  0  0  0  0  0  0  0  0  0
   36.5840   28.7880   39.8980 C   0  0  0  0  0  0  0  0  0  0  0  0
   36.8480   29.9640   40.5720 C   0  0  0  0  0  0  0  0  0  0  0  0
   36.8090   30.9240   40.1150 H   0  0  0  0  0  0  0  0  0  0  0  0
   37.1760   29.8450   41.9040 C   0  0  0  0  0  0  0  0  0  0  0  0
   37.4080   30.7040   42.5530 H   0  0  0  0  0  0  0  0  0  0  0  0
   37.2310   28.6060   42.5130 C   0  0  0  0  0  0  0  0  0  0  0  0
   37.4920   28.5190   43.5690 H   0  0  0  0  0  0  0  0  0  0  0  0
   36.9610   27.4520   41.8020 C   0  0  0  0  0  0  0  0  0  0  0  0
   37.0140   25.8470   42.5220 Cl  0  0  0  0  0  0  0  0  0  0  0  0
   36.3050   31.2080   33.6200 C   0  0  0  0  0  0  0  0  0  0  0  0
   36.9010   32.1180   34.4980 F   0  0  0  0  0  0  0  0  0  0  0  0
   34.9980   31.6380   33.4730 F   0  0  0  0  0  0  0  0  0  0  0  0
   37.0280   31.2330   32.4570 F   0  0  0  0  0  0  0  0  0  0  0  0
  1  9  1  0  0  0  0
  2 10  1  0  0  0  0
  2  1  2  0  0  0  0
  3  2  1  0  0  0  0
  4  3  2  0  0  0  0
  4  5  1  0  0  0  0
  5  6  2  0  0  0  0
  6  1  1  0  0  0  0
  7 15  1  0  0  0  0
  8  7  2  0  0  0  0
  9 12  1  0  0  0  0
  9  7  1  0  0  0  0
 11  5  1  0  0  0  0
 13 14  1  0  0  0  0
 14 22  1  0  0  0  0
 15 14  2  0  0  0  0
 15 16  1  0  0  0  0
 16 18  2  0  0  0  0
 17 16  1  0  0  0  0
 18 20  1  0  0  0  0
 18 19  1  0  0  0  0
 20 21  1  0  0  0  0
 22 20  2  0  0  0  0
 22 23  1  0  0  0  0
 24  3  1  0  0  0  0
 24 25  1  0  0  0  0
 26 24  1  0  0  0  0
 27 24  1  0  0  0  0
M  END
>  <minimizedAffinity>
-5.14993715

$$$$

 OpenBabel03252503293D

 27 28  0  0  0  0  0  0  0  0999 V2000
   38.2730   29.7160   41.6130 C   0  0  0  0  0  0  0  0  0  0  0  0
   37.9400   30.6580   40.6160 C   0  0  0  0  0  0  0  0  0  0  0  0
   38.6510   31.8700   40.6610 C   0  0  0  0  0  0  0  0  0  0  0  0
   39.5820   32.0300   41.6400 N   0  0  0  0  0  0  0  0  0  0  0  0
   39.8550   31.0870   42.5680 C   0  0  0  0  0  0  0  0  0  0  0  0
   39.1870   29.9130   42.5490 N   0  0  0  0  0  0  0  0  0  0  0  0
   38.0610   27.5790   40.6010 C   0  0  0  0  0  0  0  0  0  0  0  0
   38.9480   28.0250   39.8230 O   0  0  0  0  0  0  0  0  0  0  0  0
   37.5840   28.4560   41.6260 N   0  0  0  0  0  0  0  0  0  0  0  0
   37.1840   30.4470   39.8740 H   0  0  0  0  0  0  0  0  0  0  0  0
   40.6110   31.2650   43.3310 H   0  0  0  0  0  0  0  0  0  0  0  0
   36.8170   28.1580   42.2820 H   0  0  0  0  0  0  0  0  0  0  0  0
   36.2730   27.1330   38.3040 Cl  0  0  0  0  0  0  0  0  0  0  0  0
   36.6080   25.9060   39.5070 C   0  0  0  0  0  0  0  0  0  0  0  0
   37.4670   26.2260   40.5490 C   0  0  0  0  0  0  0  0  0  0  0  0
   37.8270   25.3690   41.5710 C   0  0  0  0  0  0  0  0  0  0  0  0
   38.4890   25.6390   42.3580 H   0  0  0  0  0  0  0  0  0  0  0  0
   37.2800   24.1060   41.5310 C   0  0  0  0  0  0  0  0  0  0  0  0
   37.4850   23.3290   42.2840 H   0  0  0  0  0  0  0  0  0  0  0  0
   36.4180   23.7380   40.5150 C   0  0  0  0  0  0  0  0  0  0  0  0
   35.9880   22.7360   40.4890 H   0  0  0  0  0  0  0  0  0  0  0  0
   36.0830   24.6260   39.5110 C   0  0  0  0  0  0  0  0  0  0  0  0
   34.9920   24.2170   38.1920 Cl  0  0  0  0  0  0  0  0  0  0  0  0
   38.3100   32.8440   39.6350 C   0  0  0  0  0  0  0  0  0  0  0  0
   38.2840   32.2100   38.3900 F   0  0  0  0  0  0  0  0  0  0  0  0
   39.3510   33.7530   39.5660 F   0  0  0  0  0  0  0  0  0  0  0  0
   37.0830   33.4230   39.8220 F   0  0  0  0  0  0  0  0  0  0  0  0
  1  9  1  0  0  0  0
  1  6  1  0  0  0  0
  2  3  1  0  0  0  0
  2  1  2  0  0  0  0
  3  4  2  0  0  0  0
  4  5  1  0  0  0  0
  5 11  1  0  0  0  0
  6  5  2  0  0  0  0
  7  9  1  0  0  0  0
  8  7  2  0  0  0  0
  9 12  1  0  0  0  0
 10  2  1  0  0  0  0
 13 14  1  0  0  0  0
 14 22  2  0  0  0  0
 14 15  1  0  0  0  0
 15  7  1  0  0  0  0
 15 16  2  0  0  0  0
 16 17  1  0  0  0  0
 18 16  1  0  0  0  0
 18 19  1  0  0  0  0
 20 18  2  0  0  0  0
 21 20  1  0  0  0  0
 22 20  1  0  0  0  0
 23 22  1  0  0  0  0
 24 27  1  0  0  0  0
 24  3  1  0  0  0  0
 25 24  1  0  0  0  0
 26 24  1  0  0  0  0
M  END
>  <minimizedAffinity>
-5.11083031

$$$$
