
 OpenBabel03252507103D

 38 40  0  0  1  0  0  0  0  0999 V2000
   44.4960   35.8080   44.5210 C   0  0  0  0  0  0  0  0  0  0  0  0
   44.9780   35.7960   43.1970 C   0  0  0  0  0  0  0  0  0  0  0  0
   45.9790   34.8720   42.9040 C   0  0  0  0  0  0  0  0  0  0  0  0
   46.4290   34.0520   43.8690 N   0  0  0  0  0  0  0  0  0  0  0  0
   45.9550   34.0790   45.1200 C   0  0  0  0  0  0  0  0  0  0  0  0
   44.9800   34.9650   45.4470 N   0  0  0  0  0  0  0  0  0  0  0  0
   43.7180   36.5000   44.8170 H   0  0  0  0  0  0  0  0  0  0  0  0
   44.5380   36.5060   42.5100 H   0  0  0  0  0  0  0  0  0  0  0  0
   45.3490   32.7470   47.1580 C   0  0  1  0  0  0  0  0  0  0  0  0
   46.4190   33.2120   46.2160 C   0  0  1  0  0  0  0  0  0  0  0  0
   46.8290   31.8340   45.6390 C   0  0  0  0  0  0  0  0  0  0  0  0
   46.6490   30.9240   46.6340 O   0  0  0  0  0  0  0  0  0  0  0  0
   46.0650   31.5330   47.7390 C   0  0  0  0  0  0  0  0  0  0  0  0
   44.5030   32.3570   46.5470 H   0  0  0  0  0  0  0  0  0  0  0  0
   47.2750   33.6320   46.7730 H   0  0  0  0  0  0  0  0  0  0  0  0
   47.9150   31.9190   45.4150 H   0  0  0  0  0  0  0  0  0  0  0  0
   46.3080   31.6380   44.7000 H   0  0  0  0  0  0  0  0  0  0  0  0
   46.7970   31.8920   48.4700 H   0  0  0  0  0  0  0  0  0  0  0  0
   45.3350   30.8100   48.1660 H   0  0  0  0  0  0  0  0  0  0  0  0
   44.9520   33.6700   48.0780 O   0  0  0  0  0  0  0  0  0  0  0  0
   43.9670   33.5490   48.2510 H   0  0  0  0  0  0  0  0  0  0  0  0
   46.4470   34.8690   41.5990 O   0  0  0  0  0  0  0  0  0  0  0  0
   48.3730   34.3670   39.8300 O   0  0  0  0  0  0  0  0  0  0  0  0
   48.1330   34.7210   41.2980 P   0  0  1  0  0  0  0  0  0  0  0  0
   48.8550   36.1700   41.6970 O   0  0  0  0  0  0  0  0  0  0  0  0
   48.6870   36.8190   40.9540 H   0  0  0  0  0  0  0  0  0  0  0  0
   48.6790   33.4440   42.2590 O   0  0  0  0  0  0  0  0  0  0  0  0
   47.0980   31.0370   41.8760 Cl  0  0  0  0  0  0  0  0  0  0  0  0
   48.8340   31.2400   41.6650 C   0  0  0  0  0  0  0  0  0  0  0  0
   49.5310   32.4330   41.8690 C   0  0  0  0  0  0  0  0  0  0  0  0
   50.8960   32.4640   41.6700 C   0  0  0  0  0  0  0  0  0  0  0  0
   51.3360   33.4330   41.8540 H   0  0  0  0  0  0  0  0  0  0  0  0
   51.5940   31.3620   41.2790 C   0  0  0  0  0  0  0  0  0  0  0  0
   52.6550   31.4190   41.1340 H   0  0  0  0  0  0  0  0  0  0  0  0
   50.8700   30.2020   41.0890 C   0  0  0  0  0  0  0  0  0  0  0  0
   51.4180   29.3170   40.7760 H   0  0  0  0  0  0  0  0  0  0  0  0
   49.5100   30.0860   41.2640 C   0  0  0  0  0  0  0  0  0  0  0  0
   48.6950   28.5610   40.9930 Cl  0  0  0  0  0  0  0  0  0  0  0  0
  1  7  1  0  0  0  0
  1  6  1  0  0  0  0
  2  1  2  0  0  0  0
  3  2  1  0  0  0  0
  3  4  2  0  0  0  0
  4  5  1  0  0  0  0
  5  6  2  0  0  0  0
  5 10  1  0  0  0  0
  8  2  1  0  0  0  0
  9 14  1  6  0  0  0
  9 13  1  0  0  0  0
  9 20  1  0  0  0  0
 10 15  1  1  0  0  0
 10  9  1  0  0  0  0
 11 10  1  0  0  0  0
 11 12  1  0  0  0  0
 12 13  1  0  0  0  0
 13 19  1  0  0  0  0
 13 18  1  0  0  0  0
 16 11  1  0  0  0  0
 17 11  1  0  0  0  0
 20 21  1  0  0  0  0
 22  3  1  0  0  0  0
 24 23  2  6  0  0  0
 24 22  1  0  0  0  0
 24 25  1  0  0  0  0
 24 27  1  0  0  0  0
 26 25  1  0  0  0  0
 29 30  1  0  0  0  0
 29 28  1  0  0  0  0
 30 27  1  0  0  0  0
 31 32  1  0  0  0  0
 31 30  2  0  0  0  0
 33 31  1  0  0  0  0
 34 33  1  0  0  0  0
 35 37  1  0  0  0  0
 35 33  2  0  0  0  0
 36 35  1  0  0  0  0
 37 29  2  0  0  0  0
 38 37  1  0  0  0  0
M  END
>  <minimizedAffinity>
-5.74600792

>  <minimizedRMSD>
2.09275699

$$$$
