
 OpenBabel03252503283D

 27 28  0  0  0  0  0  0  0  0999 V2000
   45.5470   34.8940   42.7090 C   0  0  0  0  0  0  0  0  0  0  0  0
   46.6310   35.3770   41.9450 C   0  0  0  0  0  0  0  0  0  0  0  0
   47.9020   34.9210   42.3340 C   0  0  0  0  0  0  0  0  0  0  0  0
   47.9800   34.0690   43.3920 N   0  0  0  0  0  0  0  0  0  0  0  0
   46.9030   33.6430   44.0850 C   0  0  0  0  0  0  0  0  0  0  0  0
   45.6680   34.0640   43.7330 N   0  0  0  0  0  0  0  0  0  0  0  0
   43.7300   34.6490   41.2000 C   0  0  0  0  0  0  0  0  0  0  0  0
   44.5130   33.8450   40.6230 O   0  0  0  0  0  0  0  0  0  0  0  0
   44.2200   35.3190   42.3650 N   0  0  0  0  0  0  0  0  0  0  0  0
   46.4760   36.0550   41.1170 H   0  0  0  0  0  0  0  0  0  0  0  0
   47.0200   32.9590   44.9240 H   0  0  0  0  0  0  0  0  0  0  0  0
   43.6300   36.0320   42.8690 H   0  0  0  0  0  0  0  0  0  0  0  0
   43.1540   34.0130   38.3830 Cl  0  0  0  0  0  0  0  0  0  0  0  0
   41.9670   34.7010   39.4700 C   0  0  0  0  0  0  0  0  0  0  0  0
   42.3480   34.9610   40.7790 C   0  0  0  0  0  0  0  0  0  0  0  0
   41.5270   35.5000   41.7510 C   0  0  0  0  0  0  0  0  0  0  0  0
   41.8450   35.6890   42.7480 H   0  0  0  0  0  0  0  0  0  0  0  0
   40.2380   35.7940   41.3690 C   0  0  0  0  0  0  0  0  0  0  0  0
   39.4870   36.2270   42.0460 H   0  0  0  0  0  0  0  0  0  0  0  0
   39.8090   35.5550   40.0780 C   0  0  0  0  0  0  0  0  0  0  0  0
   38.7860   35.7910   39.7810 H   0  0  0  0  0  0  0  0  0  0  0  0
   40.6610   35.0130   39.1340 C   0  0  0  0  0  0  0  0  0  0  0  0
   40.1730   34.6850   37.4760 Cl  0  0  0  0  0  0  0  0  0  0  0  0
   49.0220   35.4180   41.5490 C   0  0  0  0  0  0  0  0  0  0  0  0
   50.1770   34.7130   41.8960 F   0  0  0  0  0  0  0  0  0  0  0  0
   49.2540   36.7240   41.9410 F   0  0  0  0  0  0  0  0  0  0  0  0
   48.8460   35.2720   40.1980 F   0  0  0  0  0  0  0  0  0  0  0  0
  1  6  1  0  0  0  0
  2  3  1  0  0  0  0
  2  1  2  0  0  0  0
  3  4  2  0  0  0  0
  4  5  1  0  0  0  0
  5 11  1  0  0  0  0
  6  5  2  0  0  0  0
  7  9  1  0  0  0  0
  8  7  2  0  0  0  0
  9  1  1  0  0  0  0
  9 12  1  0  0  0  0
 10  2  1  0  0  0  0
 13 14  1  0  0  0  0
 14 15  1  0  0  0  0
 15  7  1  0  0  0  0
 15 16  2  0  0  0  0
 16 17  1  0  0  0  0
 18 16  1  0  0  0  0
 18 19  1  0  0  0  0
 20 18  2  0  0  0  0
 21 20  1  0  0  0  0
 22 14  2  0  0  0  0
 22 20  1  0  0  0  0
 23 22  1  0  0  0  0
 24 25  1  0  0  0  0
 24 26  1  0  0  0  0
 24  3  1  0  0  0  0
 27 24  1  0  0  0  0
M  END
>  <minimizedAffinity>
-6.44749117

>  <minimizedRMSD>
1.14171934

$$$$
