
 OpenBabel03252507463D

 39 41  0  0  0  0  0  0  0  0999 V2000
   48.8250   33.8540   41.3060 C   0  0  0  0  0  0  0  0  0  0  0  0
   48.9170   32.5450   40.8320 C   0  0  0  0  0  0  0  0  0  0  0  0
   50.0120   31.7530   41.1670 C   0  0  0  0  0  0  0  0  0  0  0  0
   50.9710   32.3030   41.9620 N   0  0  0  0  0  0  0  0  0  0  0  0
   50.8470   33.5790   42.4040 C   0  0  0  0  0  0  0  0  0  0  0  0
   49.7940   34.3120   42.0700 N   0  0  0  0  0  0  0  0  0  0  0  0
   50.0710   30.7420   40.7940 H   0  0  0  0  0  0  0  0  0  0  0  0
   51.6560   33.9470   43.0370 H   0  0  0  0  0  0  0  0  0  0  0  0
   47.6400   34.6210   40.9070 C   0  0  0  0  0  0  0  0  0  0  0  0
   47.0300   34.1180   40.1640 H   0  0  0  0  0  0  0  0  0  0  0  0
   48.0360   35.5440   40.3900 H   0  0  0  0  0  0  0  0  0  0  0  0
   46.8390   35.1220   42.0650 C   0  0  0  0  0  0  0  0  0  0  0  0
   47.1350   34.5730   42.9830 H   0  0  0  0  0  0  0  0  0  0  0  0
   47.0330   36.1980   42.2990 H   0  0  0  0  0  0  0  0  0  0  0  0
   45.3670   35.0250   41.8660 C   0  0  0  0  0  0  0  0  0  0  0  0
   44.4900   35.6400   42.8130 C   0  0  0  0  0  0  0  0  0  0  0  0
   42.8220   35.2470   42.1420 S   0  0  0  0  0  0  0  0  0  0  0  0
   43.6020   34.3100   40.6820 C   0  0  0  0  0  0  0  0  0  0  0  0
   44.7130   34.4300   40.9050 N   0  0  0  0  0  0  0  0  0  0  0  0
   44.7680   36.1950   43.7000 H   0  0  0  0  0  0  0  0  0  0  0  0
   42.8430   33.6980   39.6910 O   0  0  0  0  0  0  0  0  0  0  0  0
   40.9290   33.8530   37.8740 O   0  0  0  0  0  0  0  0  0  0  0  0
   41.9260   34.6920   38.6630 P   0  0  0  0  0  0  0  0  0  0  0  0
   41.0780   35.7970   39.6370 O   0  0  0  0  0  0  0  0  0  0  0  0
   40.5370   35.3280   40.2930 H   0  0  0  0  0  0  0  0  0  0  0  0
   42.9560   35.5630   37.6450 O   0  0  0  0  0  0  0  0  0  0  0  0
   43.2550   34.9710   36.9120 H   0  0  0  0  0  0  0  0  0  0  0  0
   47.6220   31.8620   39.7820 S   0  0  0  0  0  0  0  0  0  0  0  0
   44.8710   30.9000   38.4440 Cl  0  0  0  0  0  0  0  0  0  0  0  0
   45.0070   30.9100   40.1890 C   0  0  0  0  0  0  0  0  0  0  0  0
   46.2060   31.3300   40.7290 C   0  0  0  0  0  0  0  0  0  0  0  0
   46.3630   31.3550   42.0990 C   0  0  0  0  0  0  0  0  0  0  0  0
   47.2470   31.6620   42.6190 H   0  0  0  0  0  0  0  0  0  0  0  0
   45.3580   30.9730   42.9540 C   0  0  0  0  0  0  0  0  0  0  0  0
   45.4330   30.9750   44.0420 H   0  0  0  0  0  0  0  0  0  0  0  0
   44.1380   30.5460   42.4230 C   0  0  0  0  0  0  0  0  0  0  0  0
   43.2960   30.2260   43.0560 H   0  0  0  0  0  0  0  0  0  0  0  0
   44.0060   30.5290   41.0530 C   0  0  0  0  0  0  0  0  0  0  0  0
   42.4950   29.9990   40.3580 Cl  0  0  0  0  0  0  0  0  0  0  0  0
  1  6  1  0  0  0  0
  2  3  1  0  0  0  0
  2  1  2  0  0  0  0
  3  4  2  0  0  0  0
  4  5  1  0  0  0  0
  5  8  1  0  0  0  0
  6  5  2  0  0  0  0
  7  3  1  0  0  0  0
  9  1  1  0  0  0  0
  9 12  1  0  0  0  0
 10  9  1  0  0  0  0
 11  9  1  0  0  0  0
 12 14  1  0  0  0  0
 12 13  1  0  0  0  0
 15 12  1  0  0  0  0
 15 16  2  0  0  0  0
 16 20  1  0  0  0  0
 17 16  1  0  0  0  0
 18 19  2  0  0  0  0
 18 17  1  0  0  0  0
 19 15  1  0  0  0  0
 21 18  1  0  0  0  0
 22 23  2  0  0  0  0
 23 24  1  0  0  0  0
 23 21  1  0  0  0  0
 24 25  1  0  0  0  0
 26 23  1  0  0  0  0
 27 26  1  0  0  0  0
 28 31  1  0  0  0  0
 28  2  1  0  0  0  0
 29 30  1  0  0  0  0
 30 31  2  0  0  0  0
 30 38  1  0  0  0  0
 31 32  1  0  0  0  0
 32 33  1  0  0  0  0
 32 34  2  0  0  0  0
 34 35  1  0  0  0  0
 36 34  1  0  0  0  0
 36 37  1  0  0  0  0
 38 36  2  0  0  0  0
 39 38  1  0  0  0  0
M  END
>  <minimizedAffinity>
-4.42660379

>  <minimizedRMSD>
1.58092487

$$$$
