
 OpenBabel03242510333D

 45 47  0  0  1  0  0  0  0  0999 V2000
   44.3930   33.3740   41.6320 C   0  0  1  0  0  0  0  0  0  0  0  0
   43.7300   34.3530   40.6000 C   0  0  0  0  0  0  0  0  0  0  0  0
   43.3920   33.6280   39.3680 C   0  0  0  0  0  0  0  0  0  0  0  0
   44.7520   33.2490   38.7280 C   0  0  0  0  0  0  0  0  0  0  0  0
   45.4330   32.4440   39.6840 C   0  0  0  0  0  0  0  0  0  0  0  0
   45.6380   32.9490   41.1790 C   0  0  1  0  0  0  0  0  0  0  0  0
   43.6710   32.5460   41.8040 H   0  0  0  0  0  0  0  0  0  0  0  0
   44.4300   35.1770   40.4060 H   0  0  0  0  0  0  0  0  0  0  0  0
   42.7620   34.6880   41.0740 H   0  0  0  0  0  0  0  0  0  0  0  0
   42.8990   34.2990   38.6710 H   0  0  0  0  0  0  0  0  0  0  0  0
   42.8900   32.6580   39.5420 H   0  0  0  0  0  0  0  0  0  0  0  0
   44.4410   32.5780   37.8990 H   0  0  0  0  0  0  0  0  0  0  0  0
   45.2160   34.1330   38.2990 H   0  0  0  0  0  0  0  0  0  0  0  0
   44.5520   31.7370   40.0110 H   0  0  0  0  0  0  0  0  0  0  0  0
   46.0490   31.6000   39.4190 H   0  0  0  0  0  0  0  0  0  0  0  0
   46.0900   32.0600   41.5950 H   0  0  0  0  0  0  0  0  0  0  0  0
   44.5920   36.1180   44.3240 C   0  0  0  0  0  0  0  0  0  0  0  0
   44.3460   35.5400   43.1160 C   0  0  0  0  0  0  0  0  0  0  0  0
   44.5780   34.1710   42.8860 C   0  0  0  0  0  0  0  0  0  0  0  0
   45.0450   33.4920   43.9150 N   0  0  0  0  0  0  0  0  0  0  0  0
   45.2890   34.0400   45.0960 C   0  0  0  0  0  0  0  0  0  0  0  0
   45.0610   35.3750   45.3120 N   0  0  0  0  0  0  0  0  0  0  0  0
   44.3560   37.1850   44.3210 H   0  0  0  0  0  0  0  0  0  0  0  0
   43.9620   36.0510   42.2340 H   0  0  0  0  0  0  0  0  0  0  0  0
   45.6710   33.4970   45.9430 H   0  0  0  0  0  0  0  0  0  0  0  0
   46.5640   34.0260   41.0300 O   0  0  0  0  0  0  0  0  0  0  0  0
   47.7840   33.4600   41.6490 C   0  0  1  0  0  0  0  0  0  0  0  0
   47.2070   32.7880   42.0600 H   0  0  0  0  0  0  0  0  0  0  0  0
   48.2420   34.1110   38.5970 Cl  0  0  0  0  0  0  0  0  0  0  0  0
   48.9340   32.6940   39.3550 C   0  0  0  0  0  0  0  0  0  0  0  0
   48.6470   32.6030   40.7120 C   0  0  0  0  0  0  0  0  0  0  0  0
   49.2650   31.4780   41.3130 C   0  0  0  0  0  0  0  0  0  0  0  0
   49.0970   31.3220   42.3920 H   0  0  0  0  0  0  0  0  0  0  0  0
   50.0580   30.5430   40.7160 C   0  0  0  0  0  0  0  0  0  0  0  0
   50.4800   29.7200   41.2730 H   0  0  0  0  0  0  0  0  0  0  0  0
   50.2770   30.7230   39.3710 C   0  0  0  0  0  0  0  0  0  0  0  0
   50.8880   30.0420   38.8020 H   0  0  0  0  0  0  0  0  0  0  0  0
   49.7250   31.7830   38.6980 C   0  0  0  0  0  0  0  0  0  0  0  0
   49.9280   32.1220   36.9930 Cl  0  0  0  0  0  0  0  0  0  0  0  0
   48.5570   34.5550   41.2440 O   0  0  0  0  0  0  0  0  0  0  0  0
   49.2490   35.4510   41.8890 C   0  0  0  0  0  0  0  0  0  0  0  0
   49.3320   36.6090   41.6090 O   0  0  0  0  0  0  0  0  0  0  0  0
   49.9120   34.9460   42.9840 N   0  0  0  0  0  0  0  0  0  0  0  0
   50.6960   34.7120   43.6430 H   0  0  0  0  0  0  0  0  0  0  0  0
   50.9440   35.1370   42.9800 H   0  0  0  0  0  0  0  0  0  0  0  0
  1  7  1  1  0  0  0
  1 19  1  0  0  0  0
  2  9  1  0  0  0  0
  2  1  1  0  0  0  0
  3 11  1  0  0  0  0
  3  2  1  0  0  0  0
  4  3  1  0  0  0  0
  4  5  1  0  0  0  0
  5 14  1  0  0  0  0
  5  6  1  0  0  0  0
  6 16  1  1  0  0  0
  6  1  1  0  0  0  0
  8  2  1  0  0  0  0
 10  3  1  0  0  0  0
 12  4  1  0  0  0  0
 13  4  1  0  0  0  0
 15  5  1  0  0  0  0
 17 22  1  0  0  0  0
 18 17  2  0  0  0  0
 19 18  1  0  0  0  0
 19 20  2  0  0  0  0
 20 21  1  0  0  0  0
 21 22  2  0  0  0  0
 21 25  1  0  0  0  0
 23 17  1  0  0  0  0
 24 18  1  0  0  0  0
 26  6  1  0  0  0  0
 26 27  1  0  0  0  0
 27 28  1  1  0  0  0
 29 30  1  0  0  0  0
 30 31  1  0  0  0  0
 31 32  2  0  0  0  0
 31 27  1  0  0  0  0
 32 33  1  0  0  0  0
 34 35  1  0  0  0  0
 34 32  1  0  0  0  0
 36 34  2  0  0  0  0
 37 36  1  0  0  0  0
 38 30  2  0  0  0  0
 38 36  1  0  0  0  0
 39 38  1  0  0  0  0
 40 27  1  0  0  0  0
 40 41  1  0  0  0  0
 41 43  1  0  0  0  0
 42 41  2  0  0  0  0
 43 44  1  0  0  0  0
 45 43  1  0  0  0  0
M  END
>  <minimizedAffinity>
-5.38006163

>  <minimizedRMSD>
0.556048214

$$$$
