
 OpenBabel03242521173D

 40 42  0  0  0  0  0  0  0  0999 V2000
   51.6020   29.7030   43.4840 C   0  0  0  0  0  0  0  0  0  0  0  0
   52.1870   30.0950   44.3590 H   0  0  0  0  0  0  0  0  0  0  0  0
   50.5520   29.6840   43.8140 H   0  0  0  0  0  0  0  0  0  0  0  0
   53.6350   26.7250   42.4790 C   0  0  0  0  0  0  0  0  0  0  0  0
   52.8140   25.6820   42.9590 C   0  0  0  0  0  0  0  0  0  0  0  0
   51.6400   26.0560   43.5840 C   0  0  0  0  0  0  0  0  0  0  0  0
   51.3240   27.3990   43.7110 N   0  0  0  0  0  0  0  0  0  0  0  0
   52.1580   28.3450   43.2270 C   0  0  0  0  0  0  0  0  0  0  0  0
   53.3170   28.0280   42.6080 N   0  0  0  0  0  0  0  0  0  0  0  0
   54.5640   26.4750   41.9830 H   0  0  0  0  0  0  0  0  0  0  0  0
   53.0860   24.6620   42.8450 H   0  0  0  0  0  0  0  0  0  0  0  0
   50.7880   25.0280   44.0800 N   0  0  0  0  0  0  0  0  0  0  0  0
   51.1060   24.4490   45.2610 C   0  0  0  0  0  0  0  0  0  0  0  0
   50.2820   23.4450   45.7530 C   0  0  0  0  0  0  0  0  0  0  0  0
   49.1890   23.0820   45.0300 C   0  0  0  0  0  0  0  0  0  0  0  0
   48.4510   22.1590   45.5040 O   0  0  0  0  0  0  0  0  0  0  0  0
   48.8720   23.6520   43.8610 N   0  0  0  0  0  0  0  0  0  0  0  0
   49.7020   24.6240   43.4210 C   0  0  0  0  0  0  0  0  0  0  0  0
   49.4860   25.2140   42.3380 O   0  0  0  0  0  0  0  0  0  0  0  0
   51.9750   24.7330   45.8440 H   0  0  0  0  0  0  0  0  0  0  0  0
   50.5040   22.9640   46.6890 H   0  0  0  0  0  0  0  0  0  0  0  0
   48.0420   23.3880   43.2940 H   0  0  0  0  0  0  0  0  0  0  0  0
   51.8490   30.6160   42.3010 C   0  0  0  0  0  0  0  0  0  0  0  0
   52.9140   30.8090   42.1750 H   0  0  0  0  0  0  0  0  0  0  0  0
   51.4100   30.1330   41.3810 H   0  0  0  0  0  0  0  0  0  0  0  0
   49.9090   32.0040   41.7970 C   0  0  0  0  0  0  0  0  0  0  0  0
   49.6000   31.1470   40.9440 O   0  0  0  0  0  0  0  0  0  0  0  0
   51.1050   31.8360   42.4990 N   0  0  0  0  0  0  0  0  0  0  0  0
   51.4330   32.5870   43.1430 H   0  0  0  0  0  0  0  0  0  0  0  0
   47.9220   31.4750   43.9310 Cl  0  0  0  0  0  0  0  0  0  0  0  0
   48.0260   32.9590   42.9900 C   0  0  0  0  0  0  0  0  0  0  0  0
   48.9960   33.1230   42.0020 C   0  0  0  0  0  0  0  0  0  0  0  0
   49.0410   34.3020   41.2890 C   0  0  0  0  0  0  0  0  0  0  0  0
   49.7970   34.4160   40.5250 H   0  0  0  0  0  0  0  0  0  0  0  0
   48.1160   35.2770   41.5880 C   0  0  0  0  0  0  0  0  0  0  0  0
   48.1890   36.1960   40.9970 H   0  0  0  0  0  0  0  0  0  0  0  0
   47.1340   35.1760   42.5510 C   0  0  0  0  0  0  0  0  0  0  0  0
   46.4260   35.9690   42.7540 H   0  0  0  0  0  0  0  0  0  0  0  0
   47.1200   33.9680   43.2520 C   0  0  0  0  0  0  0  0  0  0  0  0
   45.9050   33.7310   44.5080 Cl  0  0  0  0  0  0  0  0  0  0  0  0
  1  3  1  0  0  0  0
  1  2  1  0  0  0  0
  4  9  2  0  0  0  0
  4  5  1  0  0  0  0
  5  6  2  0  0  0  0
  6  7  1  0  0  0  0
  6 12  1  0  0  0  0
  8  1  1  0  0  0  0
  8  7  2  0  0  0  0
  9  8  1  0  0  0  0
 10  4  1  0  0  0  0
 11  5  1  0  0  0  0
 12 13  1  0  0  0  0
 13 14  2  0  0  0  0
 13 20  1  0  0  0  0
 14 21  1  0  0  0  0
 15 16  2  0  0  0  0
 15 14  1  0  0  0  0
 17 15  1  0  0  0  0
 18 17  1  0  0  0  0
 18 12  1  0  0  0  0
 19 18  2  0  0  0  0
 22 17  1  0  0  0  0
 23 28  1  0  0  0  0
 23  1  1  0  0  0  0
 24 23  1  0  0  0  0
 25 23  1  0  0  0  0
 26 32  1  0  0  0  0
 26 28  1  0  0  0  0
 27 26  2  0  0  0  0
 28 29  1  0  0  0  0
 31 39  1  0  0  0  0
 31 30  1  0  0  0  0
 32 31  2  0  0  0  0
 33 35  2  0  0  0  0
 33 32  1  0  0  0  0
 34 33  1  0  0  0  0
 35 37  1  0  0  0  0
 36 35  1  0  0  0  0
 37 38  1  0  0  0  0
 37 39  2  0  0  0  0
 39 40  1  0  0  0  0
M  END
>  <minimizedAffinity>
-2.79747653

>  <minimizedRMSD>
10.4476423

$$$$
