
 OpenBabel03242520193D

 37 39  0  0  0  0  0  0  0  0999 V2000
   43.7840   34.8700   40.8450 C   0  0  0  0  0  0  0  0  0  0  0  0
   44.0480   35.7690   40.2460 H   0  0  0  0  0  0  0  0  0  0  0  0
   43.7300   33.9710   40.1890 H   0  0  0  0  0  0  0  0  0  0  0  0
   47.0360   34.6840   42.7620 C   0  0  0  0  0  0  0  0  0  0  0  0
   46.1050   34.9760   41.7380 C   0  0  0  0  0  0  0  0  0  0  0  0
   44.7870   34.5720   41.8970 C   0  0  0  0  0  0  0  0  0  0  0  0
   44.4710   33.9070   43.0540 N   0  0  0  0  0  0  0  0  0  0  0  0
   45.4040   33.6510   44.0080 C   0  0  0  0  0  0  0  0  0  0  0  0
   46.6700   34.0340   43.8650 N   0  0  0  0  0  0  0  0  0  0  0  0
   46.4590   35.5010   40.8740 H   0  0  0  0  0  0  0  0  0  0  0  0
   45.0030   33.1160   44.8660 H   0  0  0  0  0  0  0  0  0  0  0  0
   48.4440   35.1140   42.5770 C   0  0  0  0  0  0  0  0  0  0  0  0
   49.2180   34.1910   41.5820 C   0  0  0  0  0  0  0  0  0  0  0  0
   48.9820   35.6230   41.3680 C   0  0  0  0  0  0  0  0  0  0  0  0
   48.9520   35.2820   43.5460 H   0  0  0  0  0  0  0  0  0  0  0  0
   48.6230   33.4540   41.0130 H   0  0  0  0  0  0  0  0  0  0  0  0
   50.1680   33.8070   42.0020 H   0  0  0  0  0  0  0  0  0  0  0  0
   48.3190   35.8910   40.5120 H   0  0  0  0  0  0  0  0  0  0  0  0
   49.8930   36.2720   41.4170 H   0  0  0  0  0  0  0  0  0  0  0  0
   42.4180   35.0650   41.4490 C   0  0  0  0  0  0  0  0  0  0  0  0
   42.5130   35.8010   42.2640 H   0  0  0  0  0  0  0  0  0  0  0  0
   41.6940   35.4960   40.7200 H   0  0  0  0  0  0  0  0  0  0  0  0
   41.4190   32.8980   40.9010 C   0  0  0  0  0  0  0  0  0  0  0  0
   41.4890   33.0480   39.6540 O   0  0  0  0  0  0  0  0  0  0  0  0
   41.8290   33.8140   41.8970 N   0  0  0  0  0  0  0  0  0  0  0  0
   41.7310   33.6380   42.9140 H   0  0  0  0  0  0  0  0  0  0  0  0
   38.4940   33.0060   40.6230 Cl  0  0  0  0  0  0  0  0  0  0  0  0
   39.4480   31.6500   41.2180 C   0  0  0  0  0  0  0  0  0  0  0  0
   40.8400   31.6120   41.3450 C   0  0  0  0  0  0  0  0  0  0  0  0
   41.4630   30.5060   41.8170 C   0  0  0  0  0  0  0  0  0  0  0  0
   42.5210   30.6030   41.8660 H   0  0  0  0  0  0  0  0  0  0  0  0
   40.7070   29.4070   42.1740 C   0  0  0  0  0  0  0  0  0  0  0  0
   41.2490   28.5360   42.5500 H   0  0  0  0  0  0  0  0  0  0  0  0
   39.3260   29.3860   42.0700 C   0  0  0  0  0  0  0  0  0  0  0  0
   38.7780   28.4950   42.3660 H   0  0  0  0  0  0  0  0  0  0  0  0
   38.6940   30.5340   41.5820 C   0  0  0  0  0  0  0  0  0  0  0  0
   36.9380   30.4900   41.4570 Cl  0  0  0  0  0  0  0  0  0  0  0  0
  1 20  1  0  0  0  0
  1  6  1  0  0  0  0
  2  1  1  0  0  0  0
  3  1  1  0  0  0  0
  4  9  1  0  0  0  0
  5  6  1  0  0  0  0
  5  4  2  0  0  0  0
  6  7  2  0  0  0  0
  7  8  1  0  0  0  0
  8 11  1  0  0  0  0
  9  8  2  0  0  0  0
 10  5  1  0  0  0  0
 12  4  1  0  0  0  0
 12 15  1  0  0  0  0
 13 17  1  0  0  0  0
 13 12  1  0  0  0  0
 14 19  1  0  0  0  0
 14 13  1  0  0  0  0
 14 12  1  0  0  0  0
 16 13  1  0  0  0  0
 18 14  1  0  0  0  0
 20 25  1  0  0  0  0
 20 21  1  0  0  0  0
 22 20  1  0  0  0  0
 23 29  1  0  0  0  0
 23 25  1  0  0  0  0
 24 23  2  0  0  0  0
 25 26  1  0  0  0  0
 27 28  1  0  0  0  0
 28 29  2  0  0  0  0
 28 36  1  0  0  0  0
 29 30  1  0  0  0  0
 30 31  1  0  0  0  0
 30 32  2  0  0  0  0
 32 33  1  0  0  0  0
 34 32  1  0  0  0  0
 34 35  1  0  0  0  0
 36 34  2  0  0  0  0
 37 36  1  0  0  0  0
M  END
>  <minimizedAffinity>
-5.29946661

>  <minimizedRMSD>
3.68986154

$$$$
