
 OpenBabel03252503313D

 43 45  0  0  1  0  0  0  0  0999 V2000
   45.3660   33.8700   41.9140 C   0  0  0  0  0  0  0  0  0  0  0  0
   46.3810   34.8000   41.5370 C   0  0  0  0  0  0  0  0  0  0  0  0
   47.7050   34.4170   41.8310 C   0  0  0  0  0  0  0  0  0  0  0  0
   47.9070   33.2290   42.4310 N   0  0  0  0  0  0  0  0  0  0  0  0
   46.9060   32.3870   42.7660 C   0  0  0  0  0  0  0  0  0  0  0  0
   45.6260   32.7170   42.5020 N   0  0  0  0  0  0  0  0  0  0  0  0
   43.6860   34.0200   40.2850 C   0  0  0  0  0  0  0  0  0  0  0  0
   44.6140   33.6750   39.4770 O   0  0  0  0  0  0  0  0  0  0  0  0
   43.9900   34.1850   41.6500 N   0  0  0  0  0  0  0  0  0  0  0  0
   42.3920   34.2120   39.7380 N   0  0  0  0  0  0  0  0  0  0  0  0
   42.2320   34.3290   38.2760 C   0  0  0  0  0  0  0  0  0  0  0  0
   41.0500   35.2400   38.1570 C   0  0  0  0  0  0  0  0  0  0  0  0
   40.5630   35.4820   39.5560 C   0  0  0  0  0  0  0  0  0  0  0  0
   41.0940   34.3050   40.3390 C   0  0  1  0  0  0  0  0  0  0  0  0
   46.0900   35.7120   41.0660 H   0  0  0  0  0  0  0  0  0  0  0  0
   47.1550   31.4400   43.2530 H   0  0  0  0  0  0  0  0  0  0  0  0
   43.2530   34.4980   42.3170 H   0  0  0  0  0  0  0  0  0  0  0  0
   43.1300   34.6900   37.7810 H   0  0  0  0  0  0  0  0  0  0  0  0
   41.9130   33.3010   37.9390 H   0  0  0  0  0  0  0  0  0  0  0  0
   40.2280   34.7700   37.5890 H   0  0  0  0  0  0  0  0  0  0  0  0
   41.3120   36.1700   37.6190 H   0  0  0  0  0  0  0  0  0  0  0  0
   41.2920   36.2970   39.9040 H   0  0  0  0  0  0  0  0  0  0  0  0
   39.6330   35.9180   39.7260 H   0  0  0  0  0  0  0  0  0  0  0  0
   41.0030   34.5920   41.3800 H   0  0  0  0  0  0  0  0  0  0  0  0
   38.9350   32.9210   40.1660 C   0  0  0  0  0  0  0  0  0  0  0  0
   38.3940   34.0370   40.1880 O   0  0  0  0  0  0  0  0  0  0  0  0
   40.3760   33.0540   40.1310 N   0  0  0  0  0  0  0  0  0  0  0  0
   40.9700   32.1870   39.9430 H   0  0  0  0  0  0  0  0  0  0  0  0
   39.0090   31.5480   37.5030 Cl  0  0  0  0  0  0  0  0  0  0  0  0
   38.3380   30.8810   38.9790 C   0  0  0  0  0  0  0  0  0  0  0  0
   38.3570   31.6130   40.1700 C   0  0  0  0  0  0  0  0  0  0  0  0
   37.8290   31.0890   41.3350 C   0  0  0  0  0  0  0  0  0  0  0  0
   37.8500   31.6750   42.2680 H   0  0  0  0  0  0  0  0  0  0  0  0
   37.2680   29.8080   41.3180 C   0  0  0  0  0  0  0  0  0  0  0  0
   36.8510   29.3980   42.2470 H   0  0  0  0  0  0  0  0  0  0  0  0
   37.2580   29.0900   40.1210 C   0  0  0  0  0  0  0  0  0  0  0  0
   36.8230   28.1030   40.1210 H   0  0  0  0  0  0  0  0  0  0  0  0
   37.7930   29.6330   38.9590 C   0  0  0  0  0  0  0  0  0  0  0  0
   37.7220   28.6310   37.5080 Cl  0  0  0  0  0  0  0  0  0  0  0  0
   48.7230   35.3880   41.4350 C   0  0  0  0  0  0  0  0  0  0  0  0
   49.9620   34.9270   41.8610 F   0  0  0  0  0  0  0  0  0  0  0  0
   48.4910   36.5500   42.1840 F   0  0  0  0  0  0  0  0  0  0  0  0
   48.7740   35.6210   40.0930 F   0  0  0  0  0  0  0  0  0  0  0  0
  1  6  1  0  0  0  0
  2  3  1  0  0  0  0
  2  1  2  0  0  0  0
  3  4  2  0  0  0  0
  4  5  1  0  0  0  0
  5 16  1  0  0  0  0
  6  5  2  0  0  0  0
  7  9  1  0  0  0  0
  8  7  2  0  0  0  0
  9  1  1  0  0  0  0
  9 17  1  0  0  0  0
 10  7  1  0  0  0  0
 10 14  1  0  0  0  0
 11 10  1  0  0  0  0
 12 11  1  0  0  0  0
 12 13  1  0  0  0  0
 13 23  1  0  0  0  0
 13 22  1  0  0  0  0
 13 14  1  0  0  0  0
 14 24  1  1  0  0  0
 15  2  1  0  0  0  0
 18 11  1  0  0  0  0
 19 11  1  0  0  0  0
 20 12  1  0  0  0  0
 21 12  1  0  0  0  0
 25 31  1  0  0  0  0
 25 26  2  0  0  0  0
 27 25  1  0  0  0  0
 27 14  1  0  0  0  0
 28 27  1  0  0  0  0
 29 30  1  0  0  0  0
 30 31  1  0  0  0  0
 31 32  2  0  0  0  0
 32 33  1  0  0  0  0
 34 32  1  0  0  0  0
 34 35  1  0  0  0  0
 36 37  1  0  0  0  0
 36 34  2  0  0  0  0
 38 30  2  0  0  0  0
 38 36  1  0  0  0  0
 39 38  1  0  0  0  0
 40  3  1  0  0  0  0
 40 41  1  0  0  0  0
 40 42  1  0  0  0  0
 43 40  1  0  0  0  0
M  END
>  <minimizedAffinity>
-7.24620152

>  <minimizedRMSD>
1.54387414

$$$$
