
 OpenBabel03242519253D

 42 45  0  0  0  0  0  0  0  0999 V2000
   47.8720   33.8800   42.8910 C   0  0  0  0  0  0  0  0  0  0  0  0
   48.5310   35.1050   42.6200 C   0  0  0  0  0  0  0  0  0  0  0  0
   49.8920   35.1110   42.2900 C   0  0  0  0  0  0  0  0  0  0  0  0
   50.5180   33.8890   42.2500 N   0  0  0  0  0  0  0  0  0  0  0  0
   49.8540   32.7200   42.5180 C   0  0  0  0  0  0  0  0  0  0  0  0
   48.5610   32.7210   42.8310 N   0  0  0  0  0  0  0  0  0  0  0  0
   48.1100   36.0820   42.6320 H   0  0  0  0  0  0  0  0  0  0  0  0
   50.4430   35.9930   42.0750 H   0  0  0  0  0  0  0  0  0  0  0  0
   46.4460   33.9800   43.2340 C   0  0  0  0  0  0  0  0  0  0  0  0
   45.7290   34.9980   42.4690 C   0  0  0  0  0  0  0  0  0  0  0  0
   45.2760   36.1630   43.2670 C   0  0  0  0  0  0  0  0  0  0  0  0
   44.4900   35.7760   44.5090 C   0  0  0  0  0  0  0  0  0  0  0  0
   44.9550   34.5020   45.1570 C   0  0  0  0  0  0  0  0  0  0  0  0
   46.3940   34.2120   44.7550 C   0  0  0  0  0  0  0  0  0  0  0  0
   45.9890   32.9580   43.0960 H   0  0  0  0  0  0  0  0  0  0  0  0
   44.8090   34.5530   41.9890 H   0  0  0  0  0  0  0  0  0  0  0  0
   46.3230   35.3650   41.6290 H   0  0  0  0  0  0  0  0  0  0  0  0
   44.5300   36.7190   42.6260 H   0  0  0  0  0  0  0  0  0  0  0  0
   46.0170   36.9030   43.5520 H   0  0  0  0  0  0  0  0  0  0  0  0
   44.5670   36.5880   45.2710 H   0  0  0  0  0  0  0  0  0  0  0  0
   43.3950   35.6750   44.2970 H   0  0  0  0  0  0  0  0  0  0  0  0
   44.9030   34.5440   46.2540 H   0  0  0  0  0  0  0  0  0  0  0  0
   44.3450   33.6360   44.7800 H   0  0  0  0  0  0  0  0  0  0  0  0
   46.9460   35.1520   44.9300 H   0  0  0  0  0  0  0  0  0  0  0  0
   46.7760   33.3350   45.2800 H   0  0  0  0  0  0  0  0  0  0  0  0
   50.6640   31.5150   42.4390 C   0  0  0  0  0  0  0  0  0  0  0  0
   51.5300   31.4150   41.4050 N   0  0  0  0  0  0  0  0  0  0  0  0
   52.1950   30.2450   41.4870 C   0  0  0  0  0  0  0  0  0  0  0  0
   51.7250   29.6120   42.5960 N   0  0  0  0  0  0  0  0  0  0  0  0
   50.7990   30.3840   43.1700 N   0  0  0  0  0  0  0  0  0  0  0  0
   52.9470   29.9120   40.7870 H   0  0  0  0  0  0  0  0  0  0  0  0
   53.7940   29.7710   44.6730 Cl  0  0  0  0  0  0  0  0  0  0  0  0
   53.1250   28.2670   44.0400 C   0  0  0  0  0  0  0  0  0  0  0  0
   52.1560   28.3400   43.0620 C   0  0  0  0  0  0  0  0  0  0  0  0
   51.6080   27.1950   42.5420 C   0  0  0  0  0  0  0  0  0  0  0  0
   50.8500   27.2090   41.7780 H   0  0  0  0  0  0  0  0  0  0  0  0
   52.0420   25.9610   43.0130 C   0  0  0  0  0  0  0  0  0  0  0  0
   51.6000   25.0690   42.5910 H   0  0  0  0  0  0  0  0  0  0  0  0
   53.0270   25.9040   44.0040 C   0  0  0  0  0  0  0  0  0  0  0  0
   53.3610   24.9440   44.3660 H   0  0  0  0  0  0  0  0  0  0  0  0
   53.5700   27.0530   44.5210 C   0  0  0  0  0  0  0  0  0  0  0  0
   54.8130   27.0350   45.7710 Cl  0  0  0  0  0  0  0  0  0  0  0  0
  1  9  1  0  0  0  0
  2  7  1  0  0  0  0
  2  1  2  0  0  0  0
  3  2  1  0  0  0  0
  4  3  2  0  0  0  0
  4  5  1  0  0  0  0
  5  6  2  0  0  0  0
  6  1  1  0  0  0  0
  8  3  1  0  0  0  0
  9 14  1  0  0  0  0
 10  9  1  0  0  0  0
 10 11  1  0  0  0  0
 11 19  1  0  0  0  0
 11 12  1  0  0  0  0
 12 13  1  0  0  0  0
 12 20  1  0  0  0  0
 13 22  1  0  0  0  0
 14 24  1  0  0  0  0
 14 13  1  0  0  0  0
 14 25  1  0  0  0  0
 15  9  1  0  0  0  0
 16 10  1  0  0  0  0
 17 10  1  0  0  0  0
 18 11  1  0  0  0  0
 21 12  1  0  0  0  0
 23 13  1  0  0  0  0
 26  5  1  0  0  0  0
 26 30  2  0  0  0  0
 27 28  2  0  0  0  0
 27 26  1  0  0  0  0
 28 29  1  0  0  0  0
 29 34  1  0  0  0  0
 29 30  1  0  0  0  0
 31 28  1  0  0  0  0
 33 41  1  0  0  0  0
 33 32  1  0  0  0  0
 34 33  2  0  0  0  0
 35 37  2  0  0  0  0
 35 34  1  0  0  0  0
 36 35  1  0  0  0  0
 37 39  1  0  0  0  0
 38 37  1  0  0  0  0
 39 40  1  0  0  0  0
 39 41  2  0  0  0  0
 41 42  1  0  0  0  0
M  END
>  <minimizedAffinity>
-4.35046196

>  <minimizedRMSD>
0.902018309

$$$$
