
 OpenBabel03242519253D

 42 45  0  0  0  0  0  0  0  0999 V2000
   47.8720   33.7220   42.8830 C   0  0  0  0  0  0  0  0  0  0  0  0
   48.5970   34.9260   42.7010 C   0  0  0  0  0  0  0  0  0  0  0  0
   49.9590   34.8820   42.3790 C   0  0  0  0  0  0  0  0  0  0  0  0
   50.5200   33.6340   42.2570 N   0  0  0  0  0  0  0  0  0  0  0  0
   49.7930   32.4870   42.4390 C   0  0  0  0  0  0  0  0  0  0  0  0
   48.4990   32.5350   42.7440 N   0  0  0  0  0  0  0  0  0  0  0  0
   48.2280   35.9210   42.7800 H   0  0  0  0  0  0  0  0  0  0  0  0
   50.5580   35.7460   42.2300 H   0  0  0  0  0  0  0  0  0  0  0  0
   46.4500   33.8730   43.2250 C   0  0  0  0  0  0  0  0  0  0  0  0
   45.7600   34.8850   42.4270 C   0  0  0  0  0  0  0  0  0  0  0  0
   45.3420   36.0880   43.1860 C   0  0  0  0  0  0  0  0  0  0  0  0
   44.5490   35.7660   44.4420 C   0  0  0  0  0  0  0  0  0  0  0  0
   44.9800   34.5010   45.1320 C   0  0  0  0  0  0  0  0  0  0  0  0
   46.4090   34.1570   44.7370 C   0  0  0  0  0  0  0  0  0  0  0  0
   45.9640   32.8600   43.1230 H   0  0  0  0  0  0  0  0  0  0  0  0
   44.8260   34.4500   41.9640 H   0  0  0  0  0  0  0  0  0  0  0  0
   46.3620   35.2060   41.5740 H   0  0  0  0  0  0  0  0  0  0  0  0
   44.6100   36.6430   42.5290 H   0  0  0  0  0  0  0  0  0  0  0  0
   46.1040   36.8160   43.4450 H   0  0  0  0  0  0  0  0  0  0  0  0
   44.6520   36.6000   45.1760 H   0  0  0  0  0  0  0  0  0  0  0  0
   43.4510   35.6880   44.2360 H   0  0  0  0  0  0  0  0  0  0  0  0
   44.9330   34.5820   46.2270 H   0  0  0  0  0  0  0  0  0  0  0  0
   44.3450   33.6410   44.7860 H   0  0  0  0  0  0  0  0  0  0  0  0
   46.9880   35.0870   44.8800 H   0  0  0  0  0  0  0  0  0  0  0  0
   46.7680   33.2890   45.2900 H   0  0  0  0  0  0  0  0  0  0  0  0
   50.5390   31.2490   42.2790 C   0  0  0  0  0  0  0  0  0  0  0  0
   51.5570   31.2460   41.3880 N   0  0  0  0  0  0  0  0  0  0  0  0
   52.1340   30.0290   41.3700 C   0  0  0  0  0  0  0  0  0  0  0  0
   51.4560   29.2660   42.2690 N   0  0  0  0  0  0  0  0  0  0  0  0
   50.4910   30.0080   42.8180 N   0  0  0  0  0  0  0  0  0  0  0  0
   52.9730   29.7530   40.7460 H   0  0  0  0  0  0  0  0  0  0  0  0
   49.8470   27.3730   40.7060 Cl  0  0  0  0  0  0  0  0  0  0  0  0
   51.0500   26.9080   41.9090 C   0  0  0  0  0  0  0  0  0  0  0  0
   51.7350   27.9050   42.5700 C   0  0  0  0  0  0  0  0  0  0  0  0
   52.6780   27.5890   43.5140 C   0  0  0  0  0  0  0  0  0  0  0  0
   53.2360   28.3360   44.0530 H   0  0  0  0  0  0  0  0  0  0  0  0
   52.9360   26.2510   43.7950 C   0  0  0  0  0  0  0  0  0  0  0  0
   53.6830   26.0190   44.5410 H   0  0  0  0  0  0  0  0  0  0  0  0
   52.2320   25.2530   43.1150 C   0  0  0  0  0  0  0  0  0  0  0  0
   52.4350   24.2160   43.3360 H   0  0  0  0  0  0  0  0  0  0  0  0
   51.2890   25.5750   42.1720 C   0  0  0  0  0  0  0  0  0  0  0  0
   50.3750   24.3550   41.2880 Cl  0  0  0  0  0  0  0  0  0  0  0  0
  1  9  1  0  0  0  0
  2  7  1  0  0  0  0
  2  1  2  0  0  0  0
  3  2  1  0  0  0  0
  4  3  2  0  0  0  0
  4  5  1  0  0  0  0
  5  6  2  0  0  0  0
  6  1  1  0  0  0  0
  8  3  1  0  0  0  0
  9 14  1  0  0  0  0
 10 11  1  0  0  0  0
 10  9  1  0  0  0  0
 11 19  1  0  0  0  0
 11 12  1  0  0  0  0
 12 13  1  0  0  0  0
 12 20  1  0  0  0  0
 13 22  1  0  0  0  0
 14 24  1  0  0  0  0
 14 13  1  0  0  0  0
 14 25  1  0  0  0  0
 15  9  1  0  0  0  0
 16 10  1  0  0  0  0
 17 10  1  0  0  0  0
 18 11  1  0  0  0  0
 21 12  1  0  0  0  0
 23 13  1  0  0  0  0
 26  5  1  0  0  0  0
 26 30  2  0  0  0  0
 27 26  1  0  0  0  0
 28 27  2  0  0  0  0
 28 29  1  0  0  0  0
 29 34  1  0  0  0  0
 29 30  1  0  0  0  0
 31 28  1  0  0  0  0
 32 33  1  0  0  0  0
 33 41  2  0  0  0  0
 33 34  1  0  0  0  0
 34 35  2  0  0  0  0
 35 37  1  0  0  0  0
 35 36  1  0  0  0  0
 37 38  1  0  0  0  0
 39 40  1  0  0  0  0
 39 37  2  0  0  0  0
 41 39  1  0  0  0  0
 42 41  1  0  0  0  0
M  END
>  <minimizedAffinity>
-4.14878225

>  <minimizedRMSD>
0.483647346

$$$$
