
 OpenBabel03242521443D

 40 42  0  0  1  0  0  0  0  0999 V2000
   45.4340   35.7300   43.7420 C   0  0  0  0  0  0  0  0  0  0  0  0
   46.4650   34.9050   43.2510 C   0  0  0  0  0  0  0  0  0  0  0  0
   46.8430   33.7750   43.9890 C   0  0  0  0  0  0  0  0  0  0  0  0
   46.1940   33.5390   45.1340 N   0  0  0  0  0  0  0  0  0  0  0  0
   45.2020   34.3430   45.5940 C   0  0  0  0  0  0  0  0  0  0  0  0
   44.8270   35.4340   44.8970 N   0  0  0  0  0  0  0  0  0  0  0  0
   46.9000   35.2160   42.3110 H   0  0  0  0  0  0  0  0  0  0  0  0
   44.6910   34.1320   46.5230 H   0  0  0  0  0  0  0  0  0  0  0  0
   48.9250   33.7110   42.6420 C   0  0  2  0  0  0  0  0  0  0  0  0
   47.9080   32.9650   43.4310 C   0  0  2  0  0  0  0  0  0  0  0  0
   47.4710   32.0060   42.4690 O   0  0  0  0  0  0  0  0  0  0  0  0
   48.6810   31.4610   42.0710 C   0  0  0  0  0  0  0  0  0  0  0  0
   49.7490   32.5030   42.1460 C   0  0  1  0  0  0  0  0  0  0  0  0
   48.4700   34.1430   41.7040 H   0  0  0  0  0  0  0  0  0  0  0  0
   48.4000   32.3800   44.2430 H   0  0  0  0  0  0  0  0  0  0  0  0
   48.9160   30.6820   42.8460 H   0  0  0  0  0  0  0  0  0  0  0  0
   48.6300   30.9330   41.1080 H   0  0  0  0  0  0  0  0  0  0  0  0
   50.5550   32.2590   42.8480 H   0  0  0  0  0  0  0  0  0  0  0  0
   49.6510   34.6180   43.3500 O   0  0  0  0  0  0  0  0  0  0  0  0
   49.7110   35.5030   42.9250 H   0  0  0  0  0  0  0  0  0  0  0  0
   50.3260   32.8300   40.9210 O   0  0  0  0  0  0  0  0  0  0  0  0
   51.3060   32.6160   40.9140 H   0  0  0  0  0  0  0  0  0  0  0  0
   45.0480   36.9360   42.9490 C   0  0  0  0  0  0  0  0  0  0  0  0
   44.1960   36.7350   42.2850 H   0  0  0  0  0  0  0  0  0  0  0  0
   45.9070   37.2820   42.3470 H   0  0  0  0  0  0  0  0  0  0  0  0
   45.4580   39.2420   43.9970 C   0  0  0  0  0  0  0  0  0  0  0  0
   46.4100   39.4360   43.1920 O   0  0  0  0  0  0  0  0  0  0  0  0
   44.7890   37.9980   43.9170 N   0  0  0  0  0  0  0  0  0  0  0  0
   44.0240   37.8190   44.6300 H   0  0  0  0  0  0  0  0  0  0  0  0
   44.9180   42.1000   43.0610 Cl  0  0  0  0  0  0  0  0  0  0  0  0
   44.7900   41.5860   44.7270 C   0  0  0  0  0  0  0  0  0  0  0  0
   45.0700   40.2610   44.9640 C   0  0  0  0  0  0  0  0  0  0  0  0
   45.0020   39.7420   46.2350 C   0  0  0  0  0  0  0  0  0  0  0  0
   45.2040   38.7100   46.5370 H   0  0  0  0  0  0  0  0  0  0  0  0
   44.6510   40.5190   47.3400 C   0  0  0  0  0  0  0  0  0  0  0  0
   44.5840   40.1580   48.3580 H   0  0  0  0  0  0  0  0  0  0  0  0
   44.3700   41.8640   47.0770 C   0  0  0  0  0  0  0  0  0  0  0  0
   44.0900   42.5410   47.8640 H   0  0  0  0  0  0  0  0  0  0  0  0
   44.4390   42.3780   45.7990 C   0  0  0  0  0  0  0  0  0  0  0  0
   44.0930   44.0650   45.4350 Cl  0  0  0  0  0  0  0  0  0  0  0  0
  1  6  1  0  0  0  0
  2  1  2  0  0  0  0
  2  3  1  0  0  0  0
  3  4  2  0  0  0  0
  4  5  1  0  0  0  0
  5  8  1  0  0  0  0
  6  5  2  0  0  0  0
  7  2  1  0  0  0  0
  9 14  1  6  0  0  0
  9 19  1  0  0  0  0
  9 10  1  0  0  0  0
 10  3  1  0  0  0  0
 10 15  1  1  0  0  0
 11 10  1  0  0  0  0
 12 13  1  0  0  0  0
 12 11  1  0  0  0  0
 12 16  1  0  0  0  0
 13  9  1  0  0  0  0
 13 18  1  1  0  0  0
 17 12  1  0  0  0  0
 20 19  1  0  0  0  0
 21 13  1  0  0  0  0
 22 21  1  0  0  0  0
 23  1  1  0  0  0  0
 23 28  1  0  0  0  0
 24 23  1  0  0  0  0
 25 23  1  0  0  0  0
 26 32  1  0  0  0  0
 27 26  2  0  0  0  0
 28 26  1  0  0  0  0
 28 29  1  0  0  0  0
 30 31  1  0  0  0  0
 31 32  2  0  0  0  0
 31 39  1  0  0  0  0
 32 33  1  0  0  0  0
 33 34  1  0  0  0  0
 33 35  2  0  0  0  0
 35 36  1  0  0  0  0
 37 35  1  0  0  0  0
 37 38  1  0  0  0  0
 39 37  2  0  0  0  0
 40 39  1  0  0  0  0
M  END
>  <minimizedAffinity>
-2.57220817

>  <minimizedRMSD>
1.01370323

$$$$
