
 OpenBabel03242510223D

 40 43  0  0  1  0  0  0  0  0999 V2000
   48.1530   33.2720   43.4280 N   0  0  0  0  0  0  0  0  0  0  0  0
   49.2480   33.2590   42.5680 C   0  0  0  0  0  0  0  0  0  0  0  0
   50.3650   32.6880   42.6730 O   0  0  0  0  0  0  0  0  0  0  0  0
   47.7270   34.2220   43.5050 H   0  0  0  0  0  0  0  0  0  0  0  0
   46.2700   32.1180   44.5310 C   0  0  1  0  0  0  0  0  0  0  0  0
   46.5270   31.4010   43.3610 C   0  0  0  0  0  0  0  0  0  0  0  0
   47.6910   32.1160   44.1100 C   0  0  1  0  0  0  0  0  0  0  0  0
   45.9970   31.6290   45.5060 H   0  0  0  0  0  0  0  0  0  0  0  0
   46.5310   30.2670   43.4130 H   0  0  0  0  0  0  0  0  0  0  0  0
   46.3450   31.7150   42.3180 H   0  0  0  0  0  0  0  0  0  0  0  0
   48.4290   31.3650   44.4670 H   0  0  0  0  0  0  0  0  0  0  0  0
   45.0960   33.9860   43.1530 C   0  0  0  0  0  0  0  0  0  0  0  0
   45.5430   33.4640   44.4120 C   0  0  0  0  0  0  0  0  0  0  0  0
   45.3140   34.2320   45.5360 C   0  0  0  0  0  0  0  0  0  0  0  0
   44.6910   35.4230   45.4020 N   0  0  0  0  0  0  0  0  0  0  0  0
   44.2740   35.9050   44.2050 C   0  0  0  0  0  0  0  0  0  0  0  0
   44.4880   35.1520   43.0420 N   0  0  0  0  0  0  0  0  0  0  0  0
   45.2510   33.3840   42.2800 H   0  0  0  0  0  0  0  0  0  0  0  0
   45.6250   33.8960   46.5100 H   0  0  0  0  0  0  0  0  0  0  0  0
   43.7740   36.8600   44.0990 H   0  0  0  0  0  0  0  0  0  0  0  0
   49.1770   34.0280   41.2620 C   0  0  2  0  0  0  0  0  0  0  0  0
   48.3000   35.3340   41.2700 C   0  0  0  0  0  0  0  0  0  0  0  0
   47.9260   34.1130   40.4960 C   0  0  1  0  0  0  0  0  0  0  0  0
   50.1310   34.2430   40.7410 H   0  0  0  0  0  0  0  0  0  0  0  0
   47.7750   35.5020   42.2410 H   0  0  0  0  0  0  0  0  0  0  0  0
   48.6390   36.1850   40.6910 H   0  0  0  0  0  0  0  0  0  0  0  0
   47.0980   33.4540   40.8260 H   0  0  0  0  0  0  0  0  0  0  0  0
   48.0390   34.1770   38.9890 C   0  0  0  0  0  0  0  0  0  0  0  0
   48.6730   35.0880   38.4740 O   0  0  0  0  0  0  0  0  0  0  0  0
   49.8510   31.9130   38.3150 Cl  0  0  0  0  0  0  0  0  0  0  0  0
   48.1880   32.1010   37.7690 C   0  0  0  0  0  0  0  0  0  0  0  0
   47.4130   33.1830   38.1260 C   0  0  0  0  0  0  0  0  0  0  0  0
   46.1300   33.2090   37.6320 C   0  0  0  0  0  0  0  0  0  0  0  0
   45.5230   34.0550   37.9110 H   0  0  0  0  0  0  0  0  0  0  0  0
   45.6360   32.2090   36.8190 C   0  0  0  0  0  0  0  0  0  0  0  0
   44.5960   32.3360   36.4820 H   0  0  0  0  0  0  0  0  0  0  0  0
   46.4070   31.1240   36.4580 C   0  0  0  0  0  0  0  0  0  0  0  0
   45.9900   30.3620   35.8220 H   0  0  0  0  0  0  0  0  0  0  0  0
   47.6980   31.0800   36.9440 C   0  0  0  0  0  0  0  0  0  0  0  0
   48.7040   29.7150   36.5050 Cl  0  0  0  0  0  0  0  0  0  0  0  0
  1  4  1  0  0  0  0
  1  7  1  0  0  0  0
  2  3  2  0  0  0  0
  2  1  1  0  0  0  0
  5  8  1  1  0  0  0
  6  9  1  0  0  0  0
  6  7  1  0  0  0  0
  6  5  1  0  0  0  0
  7 11  1  1  0  0  0
  7  5  1  0  0  0  0
 10  6  1  0  0  0  0
 12 13  1  0  0  0  0
 13  5  1  0  0  0  0
 13 14  2  0  0  0  0
 14 19  1  0  0  0  0
 15 14  1  0  0  0  0
 16 15  2  0  0  0  0
 17 12  2  0  0  0  0
 17 16  1  0  0  0  0
 18 12  1  0  0  0  0
 20 16  1  0  0  0  0
 21 24  1  6  0  0  0
 21 22  1  0  0  0  0
 21  2  1  0  0  0  0
 22 25  1  0  0  0  0
 23 27  1  1  0  0  0
 23 21  1  0  0  0  0
 23 22  1  0  0  0  0
 26 22  1  0  0  0  0
 28 23  1  0  0  0  0
 29 28  2  0  0  0  0
 31 32  1  0  0  0  0
 31 30  1  0  0  0  0
 32 28  1  0  0  0  0
 33 34  1  0  0  0  0
 33 32  2  0  0  0  0
 35 33  1  0  0  0  0
 36 35  1  0  0  0  0
 37 35  2  0  0  0  0
 37 39  1  0  0  0  0
 38 37  1  0  0  0  0
 39 31  2  0  0  0  0
 40 39  1  0  0  0  0
M  END
>  <minimizedAffinity>
-4.89399576

>  <minimizedRMSD>
1.60836792

$$$$
