
 OpenBabel03242513053D

 37 40  0  0  0  0  0  0  0  0999 V2000
   39.8830   29.3690   39.7560 C   0  0  0  0  0  0  0  0  0  0  0  0
   38.6480   30.0000   39.8510 C   0  0  0  0  0  0  0  0  0  0  0  0
   38.6370   31.3770   39.6490 C   0  0  0  0  0  0  0  0  0  0  0  0
   39.8210   32.0010   39.3750 N   0  0  0  0  0  0  0  0  0  0  0  0
   41.0000   31.3520   39.2900 C   0  0  0  0  0  0  0  0  0  0  0  0
   41.0340   30.0280   39.4820 N   0  0  0  0  0  0  0  0  0  0  0  0
   40.0440   28.3130   39.9010 H   0  0  0  0  0  0  0  0  0  0  0  0
   42.5990   33.1400   39.8090 C   0  0  0  0  0  0  0  0  0  0  0  0
   42.1980   32.1020   38.9950 C   0  0  0  0  0  0  0  0  0  0  0  0
   42.9160   31.7180   37.8520 C   0  0  0  0  0  0  0  0  0  0  0  0
   44.0820   32.3920   37.5010 C   0  0  0  0  0  0  0  0  0  0  0  0
   45.0010   32.3030   36.5060 N   0  0  0  0  0  0  0  0  0  0  0  0
   45.9420   33.2810   36.7250 C   0  0  0  0  0  0  0  0  0  0  0  0
   45.5810   33.9530   37.8570 N   0  0  0  0  0  0  0  0  0  0  0  0
   44.4500   33.4190   38.3340 C   0  0  0  0  0  0  0  0  0  0  0  0
   43.7670   33.8250   39.4690 C   0  0  0  0  0  0  0  0  0  0  0  0
   42.0450   33.4300   40.6860 H   0  0  0  0  0  0  0  0  0  0  0  0
   42.5940   30.9020   37.2170 H   0  0  0  0  0  0  0  0  0  0  0  0
   44.9380   31.5850   35.7330 H   0  0  0  0  0  0  0  0  0  0  0  0
   46.7830   33.4110   36.0590 H   0  0  0  0  0  0  0  0  0  0  0  0
   44.1080   34.6430   40.0880 H   0  0  0  0  0  0  0  0  0  0  0  0
   37.3590   32.1240   39.7330 C   0  0  0  0  0  0  0  0  0  0  0  0
   36.7010   31.8370   40.9370 F   0  0  0  0  0  0  0  0  0  0  0  0
   37.5830   33.4710   39.7390 F   0  0  0  0  0  0  0  0  0  0  0  0
   36.5720   31.7590   38.6720 F   0  0  0  0  0  0  0  0  0  0  0  0
   37.5230   29.2900   40.1270 O   0  0  0  0  0  0  0  0  0  0  0  0
   36.9840   26.3310   39.6830 Cl  0  0  0  0  0  0  0  0  0  0  0  0
   37.1480   27.2620   41.1800 C   0  0  0  0  0  0  0  0  0  0  0  0
   37.3870   28.6310   41.3350 C   0  0  0  0  0  0  0  0  0  0  0  0
   37.4530   29.1420   42.6120 C   0  0  0  0  0  0  0  0  0  0  0  0
   37.6450   30.2230   42.5790 H   0  0  0  0  0  0  0  0  0  0  0  0
   37.2930   28.3530   43.7290 C   0  0  0  0  0  0  0  0  0  0  0  0
   37.3680   28.8760   44.6730 H   0  0  0  0  0  0  0  0  0  0  0  0
   37.0570   27.0020   43.5660 C   0  0  0  0  0  0  0  0  0  0  0  0
   36.9450   26.4620   44.4980 H   0  0  0  0  0  0  0  0  0  0  0  0
   36.9830   26.4460   42.2860 C   0  0  0  0  0  0  0  0  0  0  0  0
   36.6820   24.7390   42.2860 Cl  0  0  0  0  0  0  0  0  0  0  0  0
  1  2  1  0  0  0  0
  1  7  1  0  0  0  0
  2 26  1  0  0  0  0
  3 22  1  0  0  0  0
  3  2  2  0  0  0  0
  4  3  1  0  0  0  0
  5  4  2  0  0  0  0
  5  6  1  0  0  0  0
  6  1  2  0  0  0  0
  8 17  1  0  0  0  0
  9  5  1  0  0  0  0
  9  8  2  0  0  0  0
 10  9  1  0  0  0  0
 11 10  2  0  0  0  0
 11 15  1  0  0  0  0
 12 13  1  0  0  0  0
 12 11  1  0  0  0  0
 13 14  2  0  0  0  0
 14 15  1  0  0  0  0
 15 16  2  0  0  0  0
 16  8  1  0  0  0  0
 16 21  1  0  0  0  0
 18 10  1  0  0  0  0
 19 12  1  0  0  0  0
 20 13  1  0  0  0  0
 22 24  1  0  0  0  0
 22 23  1  0  0  0  0
 25 22  1  0  0  0  0
 26 29  1  0  0  0  0
 27 28  1  0  0  0  0
 28 29  2  0  0  0  0
 28 36  1  0  0  0  0
 29 30  1  0  0  0  0
 30 32  2  0  0  0  0
 31 30  1  0  0  0  0
 32 33  1  0  0  0  0
 34 32  1  0  0  0  0
 34 35  1  0  0  0  0
 36 37  1  0  0  0  0
 36 34  2  0  0  0  0
M  END
>  <minimizedAffinity>
-6.33643675

$$$$

 OpenBabel03242513053D

 37 40  0  0  0  0  0  0  0  0999 V2000
   39.1220   28.7950   42.3470 C   0  0  0  0  0  0  0  0  0  0  0  0
   38.0040   29.3520   41.7350 C   0  0  0  0  0  0  0  0  0  0  0  0
   38.1290   30.6660   41.2920 C   0  0  0  0  0  0  0  0  0  0  0  0
   39.3200   31.3040   41.4850 N   0  0  0  0  0  0  0  0  0  0  0  0
   40.3840   30.7270   42.0830 C   0  0  0  0  0  0  0  0  0  0  0  0
   40.2860   29.4650   42.5170 N   0  0  0  0  0  0  0  0  0  0  0  0
   39.1660   27.7960   42.7480 H   0  0  0  0  0  0  0  0  0  0  0  0
   42.5160   31.1600   43.2180 C   0  0  0  0  0  0  0  0  0  0  0  0
   41.6010   31.4870   42.2390 C   0  0  0  0  0  0  0  0  0  0  0  0
   41.7960   32.5560   41.3510 C   0  0  0  0  0  0  0  0  0  0  0  0
   42.9460   33.3350   41.4380 C   0  0  0  0  0  0  0  0  0  0  0  0
   43.4530   34.4060   40.7750 N   0  0  0  0  0  0  0  0  0  0  0  0
   44.6610   34.7150   41.3560 C   0  0  0  0  0  0  0  0  0  0  0  0
   44.8720   33.8230   42.3670 N   0  0  0  0  0  0  0  0  0  0  0  0
   43.8330   32.9810   42.4230 C   0  0  0  0  0  0  0  0  0  0  0  0
   43.6740   31.9330   43.3160 C   0  0  0  0  0  0  0  0  0  0  0  0
   42.3620   30.3380   43.8970 H   0  0  0  0  0  0  0  0  0  0  0  0
   41.0730   32.8070   40.5850 H   0  0  0  0  0  0  0  0  0  0  0  0
   42.9530   34.8670   39.9680 H   0  0  0  0  0  0  0  0  0  0  0  0
   45.2610   35.5390   40.9980 H   0  0  0  0  0  0  0  0  0  0  0  0
   44.4100   31.7020   44.0740 H   0  0  0  0  0  0  0  0  0  0  0  0
   36.9810   31.3320   40.6300 C   0  0  0  0  0  0  0  0  0  0  0  0
   35.8200   31.1960   41.4050 F   0  0  0  0  0  0  0  0  0  0  0  0
   37.1990   32.6750   40.5140 F   0  0  0  0  0  0  0  0  0  0  0  0
   36.7930   30.7540   39.4020 F   0  0  0  0  0  0  0  0  0  0  0  0
   36.8610   28.6330   41.5890 O   0  0  0  0  0  0  0  0  0  0  0  0
   36.7640   27.6580   38.7110 Cl  0  0  0  0  0  0  0  0  0  0  0  0
   36.8690   26.7570   40.2310 C   0  0  0  0  0  0  0  0  0  0  0  0
   36.9000   27.2520   41.5390 C   0  0  0  0  0  0  0  0  0  0  0  0
   36.9620   26.3500   42.5770 C   0  0  0  0  0  0  0  0  0  0  0  0
   36.9810   26.8790   43.5390 H   0  0  0  0  0  0  0  0  0  0  0  0
   36.9940   24.9890   42.3680 C   0  0  0  0  0  0  0  0  0  0  0  0
   37.0420   24.3890   43.2670 H   0  0  0  0  0  0  0  0  0  0  0  0
   36.9620   24.5100   41.0740 C   0  0  0  0  0  0  0  0  0  0  0  0
   36.9910   23.4300   41.0060 H   0  0  0  0  0  0  0  0  0  0  0  0
   36.9000   25.3940   39.9920 C   0  0  0  0  0  0  0  0  0  0  0  0
   36.8690   24.6050   38.4500 Cl  0  0  0  0  0  0  0  0  0  0  0  0
  1  6  1  0  0  0  0
  1  7  1  0  0  0  0
  2  1  2  0  0  0  0
  3  4  2  0  0  0  0
  3  2  1  0  0  0  0
  4  5  1  0  0  0  0
  5  9  1  0  0  0  0
  5  6  2  0  0  0  0
  8 16  1  0  0  0  0
  8 17  1  0  0  0  0
  9  8  2  0  0  0  0
 10 11  2  0  0  0  0
 10  9  1  0  0  0  0
 11 15  1  0  0  0  0
 12 13  1  0  0  0  0
 12 11  1  0  0  0  0
 13 14  2  0  0  0  0
 14 15  1  0  0  0  0
 15 16  2  0  0  0  0
 16 21  1  0  0  0  0
 18 10  1  0  0  0  0
 19 12  1  0  0  0  0
 20 13  1  0  0  0  0
 22  3  1  0  0  0  0
 22 23  1  0  0  0  0
 24 22  1  0  0  0  0
 25 22  1  0  0  0  0
 26  2  1  0  0  0  0
 27 28  1  0  0  0  0
 28 29  1  0  0  0  0
 29 26  1  0  0  0  0
 29 30  2  0  0  0  0
 30 31  1  0  0  0  0
 32 30  1  0  0  0  0
 32 33  1  0  0  0  0
 34 32  2  0  0  0  0
 35 34  1  0  0  0  0
 36 28  2  0  0  0  0
 36 34  1  0  0  0  0
 37 36  1  0  0  0  0
M  END
>  <minimizedAffinity>
-6.25220537

$$$$

 OpenBabel03242513053D

 37 40  0  0  0  0  0  0  0  0999 V2000
   40.6150   31.3560   41.7580 C   0  0  0  0  0  0  0  0  0  0  0  0
   39.9480   32.2990   40.9830 C   0  0  0  0  0  0  0  0  0  0  0  0
   38.6850   31.9410   40.5210 C   0  0  0  0  0  0  0  0  0  0  0  0
   38.1970   30.7100   40.8560 N   0  0  0  0  0  0  0  0  0  0  0  0
   38.8760   29.8230   41.6120 C   0  0  0  0  0  0  0  0  0  0  0  0
   40.0930   30.1460   42.0670 N   0  0  0  0  0  0  0  0  0  0  0  0
   41.6010   31.4900   42.1720 H   0  0  0  0  0  0  0  0  0  0  0  0
   37.3960   28.4100   42.9670 C   0  0  0  0  0  0  0  0  0  0  0  0
   38.2730   28.5460   41.9120 C   0  0  0  0  0  0  0  0  0  0  0  0
   38.6260   27.4720   41.0800 C   0  0  0  0  0  0  0  0  0  0  0  0
   38.0860   26.2090   41.3050 C   0  0  0  0  0  0  0  0  0  0  0  0
   38.1910   24.9840   40.7290 N   0  0  0  0  0  0  0  0  0  0  0  0
   37.3830   24.1250   41.4360 C   0  0  0  0  0  0  0  0  0  0  0  0
   36.7950   24.8430   42.4360 N   0  0  0  0  0  0  0  0  0  0  0  0
   37.2170   26.1120   42.3630 C   0  0  0  0  0  0  0  0  0  0  0  0
   36.8470   27.1490   43.2040 C   0  0  0  0  0  0  0  0  0  0  0  0
   37.1290   29.2380   43.6030 H   0  0  0  0  0  0  0  0  0  0  0  0
   39.3150   27.5860   40.2540 H   0  0  0  0  0  0  0  0  0  0  0  0
   38.8050   24.7990   39.8890 H   0  0  0  0  0  0  0  0  0  0  0  0
   37.2990   23.0820   41.1650 H   0  0  0  0  0  0  0  0  0  0  0  0
   36.1550   27.0100   44.0240 H   0  0  0  0  0  0  0  0  0  0  0  0
   37.9090   32.8920   39.6880 C   0  0  0  0  0  0  0  0  0  0  0  0
   36.5440   32.5760   39.7240 F   0  0  0  0  0  0  0  0  0  0  0  0
   38.0140   34.1630   40.1760 F   0  0  0  0  0  0  0  0  0  0  0  0
   38.3720   32.8170   38.4000 F   0  0  0  0  0  0  0  0  0  0  0  0
   40.5190   33.5000   40.7060 O   0  0  0  0  0  0  0  0  0  0  0  0
   43.1990   34.1690   41.9730 Cl  0  0  0  0  0  0  0  0  0  0  0  0
   42.7590   33.9010   40.2800 C   0  0  0  0  0  0  0  0  0  0  0  0
   41.5040   33.6040   39.7410 C   0  0  0  0  0  0  0  0  0  0  0  0
   41.3980   33.4580   38.3760 C   0  0  0  0  0  0  0  0  0  0  0  0
   40.3600   33.2270   38.0980 H   0  0  0  0  0  0  0  0  0  0  0  0
   42.4790   33.5940   37.5350 C   0  0  0  0  0  0  0  0  0  0  0  0
   42.2630   33.4550   36.4840 H   0  0  0  0  0  0  0  0  0  0  0  0
   43.7150   33.8880   38.0760 C   0  0  0  0  0  0  0  0  0  0  0  0
   44.5050   33.9760   37.3420 H   0  0  0  0  0  0  0  0  0  0  0  0
   43.8640   34.0430   39.4580 C   0  0  0  0  0  0  0  0  0  0  0  0
   45.4860   34.4080   39.9450 Cl  0  0  0  0  0  0  0  0  0  0  0  0
  1  6  1  0  0  0  0
  1  7  1  0  0  0  0
  2  1  2  0  0  0  0
  3  4  2  0  0  0  0
  3  2  1  0  0  0  0
  4  5  1  0  0  0  0
  5  9  1  0  0  0  0
  5  6  2  0  0  0  0
  8 16  1  0  0  0  0
  8 17  1  0  0  0  0
  9  8  2  0  0  0  0
 10 11  2  0  0  0  0
 10  9  1  0  0  0  0
 11 15  1  0  0  0  0
 12 11  1  0  0  0  0
 12 13  1  0  0  0  0
 13 14  2  0  0  0  0
 15 14  1  0  0  0  0
 15 16  2  0  0  0  0
 16 21  1  0  0  0  0
 18 10  1  0  0  0  0
 19 12  1  0  0  0  0
 20 13  1  0  0  0  0
 22 23  1  0  0  0  0
 22 24  1  0  0  0  0
 22  3  1  0  0  0  0
 25 22  1  0  0  0  0
 26  2  1  0  0  0  0
 28 27  1  0  0  0  0
 29 28  1  0  0  0  0
 29 26  1  0  0  0  0
 30 29  2  0  0  0  0
 31 30  1  0  0  0  0
 32 34  2  0  0  0  0
 32 30  1  0  0  0  0
 33 32  1  0  0  0  0
 34 36  1  0  0  0  0
 35 34  1  0  0  0  0
 36 37  1  0  0  0  0
 36 28  2  0  0  0  0
M  END
>  <minimizedAffinity>
-6.24240398

$$$$

 OpenBabel03242513053D

 37 40  0  0  0  0  0  0  0  0999 V2000
   36.9210   27.4200   39.3110 C   0  0  0  0  0  0  0  0  0  0  0  0
   36.9850   26.7750   40.5420 C   0  0  0  0  0  0  0  0  0  0  0  0
   37.3500   27.5570   41.6340 C   0  0  0  0  0  0  0  0  0  0  0  0
   37.6140   28.8800   41.4250 N   0  0  0  0  0  0  0  0  0  0  0  0
   37.5400   29.4700   40.2140 C   0  0  0  0  0  0  0  0  0  0  0  0
   37.1910   28.7370   39.1490 N   0  0  0  0  0  0  0  0  0  0  0  0
   36.6650   26.9400   38.3810 H   0  0  0  0  0  0  0  0  0  0  0  0
   36.9710   31.7310   39.4460 C   0  0  0  0  0  0  0  0  0  0  0  0
   37.8380   30.8770   40.0950 C   0  0  0  0  0  0  0  0  0  0  0  0
   39.0410   31.3170   40.6710 C   0  0  0  0  0  0  0  0  0  0  0  0
   39.3990   32.6600   40.5990 C   0  0  0  0  0  0  0  0  0  0  0  0
   40.4420   33.4170   41.0240 N   0  0  0  0  0  0  0  0  0  0  0  0
   40.1980   34.7130   40.6300 C   0  0  0  0  0  0  0  0  0  0  0  0
   39.0040   34.7240   39.9690 N   0  0  0  0  0  0  0  0  0  0  0  0
   38.5110   33.4790   39.9460 C   0  0  0  0  0  0  0  0  0  0  0  0
   37.3180   33.0800   39.3680 C   0  0  0  0  0  0  0  0  0  0  0  0
   36.0490   31.3880   39.0070 H   0  0  0  0  0  0  0  0  0  0  0  0
   39.7170   30.6410   41.1780 H   0  0  0  0  0  0  0  0  0  0  0  0
   41.2610   33.0140   41.5560 H   0  0  0  0  0  0  0  0  0  0  0  0
   40.8940   35.5080   40.8550 H   0  0  0  0  0  0  0  0  0  0  0  0
   36.6580   33.7750   38.8650 H   0  0  0  0  0  0  0  0  0  0  0  0
   37.4410   26.9430   42.9810 C   0  0  0  0  0  0  0  0  0  0  0  0
   37.8140   27.9010   43.9340 F   0  0  0  0  0  0  0  0  0  0  0  0
   36.2240   26.4690   43.3830 F   0  0  0  0  0  0  0  0  0  0  0  0
   38.3730   25.9390   42.9390 F   0  0  0  0  0  0  0  0  0  0  0  0
   36.7010   25.4510   40.6480 O   0  0  0  0  0  0  0  0  0  0  0  0
   34.9370   23.3620   39.3200 Cl  0  0  0  0  0  0  0  0  0  0  0  0
   36.6980   23.5350   39.3490 C   0  0  0  0  0  0  0  0  0  0  0  0
   37.4690   24.5120   39.9860 C   0  0  0  0  0  0  0  0  0  0  0  0
   38.8400   24.4300   39.8860 C   0  0  0  0  0  0  0  0  0  0  0  0
   39.3110   25.2590   40.4320 H   0  0  0  0  0  0  0  0  0  0  0  0
   39.4670   23.4240   39.1850 C   0  0  0  0  0  0  0  0  0  0  0  0
   40.5490   23.4730   39.1830 H   0  0  0  0  0  0  0  0  0  0  0  0
   38.6980   22.4640   38.5600 C   0  0  0  0  0  0  0  0  0  0  0  0
   39.2760   21.7140   38.0330 H   0  0  0  0  0  0  0  0  0  0  0  0
   37.3030   22.5130   38.6370 C   0  0  0  0  0  0  0  0  0  0  0  0
   36.5140   21.2240   37.7900 Cl  0  0  0  0  0  0  0  0  0  0  0  0
  1  2  1  0  0  0  0
  2 26  1  0  0  0  0
  2  3  2  0  0  0  0
  3 22  1  0  0  0  0
  4  3  1  0  0  0  0
  5  4  2  0  0  0  0
  6  1  2  0  0  0  0
  6  5  1  0  0  0  0
  7  1  1  0  0  0  0
  8  9  1  0  0  0  0
  9  5  1  0  0  0  0
  9 10  2  0  0  0  0
 10 18  1  0  0  0  0
 11 10  1  0  0  0  0
 11 12  1  0  0  0  0
 12 19  1  0  0  0  0
 13 20  1  0  0  0  0
 13 12  1  0  0  0  0
 14 13  2  0  0  0  0
 15 14  1  0  0  0  0
 15 11  2  0  0  0  0
 16  8  2  0  0  0  0
 16 15  1  0  0  0  0
 17  8  1  0  0  0  0
 21 16  1  0  0  0  0
 22 24  1  0  0  0  0
 22 23  1  0  0  0  0
 25 22  1  0  0  0  0
 27 28  1  0  0  0  0
 28 29  1  0  0  0  0
 29 26  1  0  0  0  0
 30 29  2  0  0  0  0
 30 31  1  0  0  0  0
 32 30  1  0  0  0  0
 33 32  1  0  0  0  0
 34 36  1  0  0  0  0
 34 32  2  0  0  0  0
 35 34  1  0  0  0  0
 36 28  2  0  0  0  0
 37 36  1  0  0  0  0
M  END
>  <minimizedAffinity>
-6.21616697

$$$$

 OpenBabel03242513053D

 37 40  0  0  0  0  0  0  0  0999 V2000
   37.6600   28.2310   39.3280 C   0  0  0  0  0  0  0  0  0  0  0  0
   37.3490   27.7870   40.6090 C   0  0  0  0  0  0  0  0  0  0  0  0
   37.8530   28.5380   41.6670 C   0  0  0  0  0  0  0  0  0  0  0  0
   38.6050   29.6410   41.3780 N   0  0  0  0  0  0  0  0  0  0  0  0
   38.8840   30.0410   40.1200 C   0  0  0  0  0  0  0  0  0  0  0  0
   38.4090   29.3330   39.0880 N   0  0  0  0  0  0  0  0  0  0  0  0
   37.3490   27.7440   38.4190 H   0  0  0  0  0  0  0  0  0  0  0  0
   40.0340   32.0300   40.9800 C   0  0  0  0  0  0  0  0  0  0  0  0
   39.6870   31.2230   39.9180 C   0  0  0  0  0  0  0  0  0  0  0  0
   40.0870   31.4950   38.6000 C   0  0  0  0  0  0  0  0  0  0  0  0
   40.8650   32.6170   38.3250 C   0  0  0  0  0  0  0  0  0  0  0  0
   41.4170   33.1750   37.2180 N   0  0  0  0  0  0  0  0  0  0  0  0
   42.0870   34.3070   37.6180 C   0  0  0  0  0  0  0  0  0  0  0  0
   41.9330   34.4210   38.9690 N   0  0  0  0  0  0  0  0  0  0  0  0
   41.1910   33.3960   39.4070 C   0  0  0  0  0  0  0  0  0  0  0  0
   40.8140   33.1580   40.7180 C   0  0  0  0  0  0  0  0  0  0  0  0
   39.7250   31.8160   41.9900 H   0  0  0  0  0  0  0  0  0  0  0  0
   39.8110   30.8570   37.7710 H   0  0  0  0  0  0  0  0  0  0  0  0
   41.3080   32.7590   36.2530 H   0  0  0  0  0  0  0  0  0  0  0  0
   42.6130   34.9290   36.9080 H   0  0  0  0  0  0  0  0  0  0  0  0
   41.1030   33.8110   41.5310 H   0  0  0  0  0  0  0  0  0  0  0  0
   37.5660   28.1290   43.0630 C   0  0  0  0  0  0  0  0  0  0  0  0
   38.4100   27.0790   43.4510 F   0  0  0  0  0  0  0  0  0  0  0  0
   37.8180   29.1530   43.9310 F   0  0  0  0  0  0  0  0  0  0  0  0
   36.2570   27.7290   43.1380 F   0  0  0  0  0  0  0  0  0  0  0  0
   36.5900   26.6750   40.7940 O   0  0  0  0  0  0  0  0  0  0  0  0
   35.5230   25.4510   38.2250 Cl  0  0  0  0  0  0  0  0  0  0  0  0
   36.6710   24.8180   39.4130 C   0  0  0  0  0  0  0  0  0  0  0  0
   37.1270   25.4170   40.5920 C   0  0  0  0  0  0  0  0  0  0  0  0
   38.0130   24.7170   41.3790 C   0  0  0  0  0  0  0  0  0  0  0  0
   38.2820   25.3070   42.2660 H   0  0  0  0  0  0  0  0  0  0  0  0
   38.4600   23.4580   41.0440 C   0  0  0  0  0  0  0  0  0  0  0  0
   39.1540   23.0160   41.7470 H   0  0  0  0  0  0  0  0  0  0  0  0
   38.0040   22.8750   39.8790 C   0  0  0  0  0  0  0  0  0  0  0  0
   38.4080   21.8870   39.6960 H   0  0  0  0  0  0  0  0  0  0  0  0
   37.1040   23.5530   39.0520 C   0  0  0  0  0  0  0  0  0  0  0  0
   36.6500   22.6610   37.6380 Cl  0  0  0  0  0  0  0  0  0  0  0  0
  1  2  1  0  0  0  0
  2 26  1  0  0  0  0
  2  3  2  0  0  0  0
  3 22  1  0  0  0  0
  4  3  1  0  0  0  0
  5  4  2  0  0  0  0
  6  1  2  0  0  0  0
  6  5  1  0  0  0  0
  7  1  1  0  0  0  0
  8 17  1  0  0  0  0
  9  5  1  0  0  0  0
  9  8  2  0  0  0  0
 10  9  1  0  0  0  0
 11 10  2  0  0  0  0
 11 15  1  0  0  0  0
 12 13  1  0  0  0  0
 12 11  1  0  0  0  0
 13 14  2  0  0  0  0
 14 15  1  0  0  0  0
 15 16  2  0  0  0  0
 16  8  1  0  0  0  0
 16 21  1  0  0  0  0
 18 10  1  0  0  0  0
 19 12  1  0  0  0  0
 20 13  1  0  0  0  0
 22 25  1  0  0  0  0
 22 23  1  0  0  0  0
 22 24  1  0  0  0  0
 27 28  1  0  0  0  0
 28 29  1  0  0  0  0
 29 26  1  0  0  0  0
 29 30  2  0  0  0  0
 30 31  1  0  0  0  0
 32 30  1  0  0  0  0
 32 33  1  0  0  0  0
 34 32  2  0  0  0  0
 35 34  1  0  0  0  0
 36 28  2  0  0  0  0
 36 34  1  0  0  0  0
 37 36  1  0  0  0  0
M  END
>  <minimizedAffinity>
-6.06733751

$$$$

 OpenBabel03242513053D

 37 40  0  0  0  0  0  0  0  0999 V2000
   38.5120   26.8560   39.2230 C   0  0  0  0  0  0  0  0  0  0  0  0
   38.3080   26.2120   40.4380 C   0  0  0  0  0  0  0  0  0  0  0  0
   38.0200   27.0240   41.5310 C   0  0  0  0  0  0  0  0  0  0  0  0
   37.9580   28.3740   41.3360 N   0  0  0  0  0  0  0  0  0  0  0  0
   38.1610   28.9620   40.1390 C   0  0  0  0  0  0  0  0  0  0  0  0
   38.4400   28.2000   39.0750 N   0  0  0  0  0  0  0  0  0  0  0  0
   38.7540   26.3580   38.2990 H   0  0  0  0  0  0  0  0  0  0  0  0
   37.0550   30.9940   39.3200 C   0  0  0  0  0  0  0  0  0  0  0  0
   38.0720   30.3990   40.0360 C   0  0  0  0  0  0  0  0  0  0  0  0
   39.0650   31.1410   40.6960 C   0  0  0  0  0  0  0  0  0  0  0  0
   39.0480   32.5320   40.6440 C   0  0  0  0  0  0  0  0  0  0  0  0
   39.8110   33.5380   41.1400 N   0  0  0  0  0  0  0  0  0  0  0  0
   39.2530   34.7240   40.7220 C   0  0  0  0  0  0  0  0  0  0  0  0
   38.1520   34.4190   39.9760 N   0  0  0  0  0  0  0  0  0  0  0  0
   38.0200   33.0880   39.9230 C   0  0  0  0  0  0  0  0  0  0  0  0
   37.0250   32.3880   39.2600 C   0  0  0  0  0  0  0  0  0  0  0  0
   36.2960   30.4200   38.8160 H   0  0  0  0  0  0  0  0  0  0  0  0
   39.8610   30.6670   41.2550 H   0  0  0  0  0  0  0  0  0  0  0  0
   40.6690   33.3650   41.7330 H   0  0  0  0  0  0  0  0  0  0  0  0
   39.6880   35.6750   40.9940 H   0  0  0  0  0  0  0  0  0  0  0  0
   36.2390   32.8840   38.7070 H   0  0  0  0  0  0  0  0  0  0  0  0
   37.7900   26.4130   42.8630 C   0  0  0  0  0  0  0  0  0  0  0  0
   38.8450   25.5530   43.1980 F   0  0  0  0  0  0  0  0  0  0  0  0
   37.7600   27.3680   43.8380 F   0  0  0  0  0  0  0  0  0  0  0  0
   36.6120   25.7120   42.8210 F   0  0  0  0  0  0  0  0  0  0  0  0
   38.3910   24.8590   40.5300 O   0  0  0  0  0  0  0  0  0  0  0  0
   39.6900   23.0920   38.4260 Cl  0  0  0  0  0  0  0  0  0  0  0  0
   38.0030   23.2140   38.9470 C   0  0  0  0  0  0  0  0  0  0  0  0
   37.4480   24.0540   39.9180 C   0  0  0  0  0  0  0  0  0  0  0  0
   36.0910   23.9880   40.1400 C   0  0  0  0  0  0  0  0  0  0  0  0
   35.7990   24.6990   40.9240 H   0  0  0  0  0  0  0  0  0  0  0  0
   35.2730   23.1280   39.4420 C   0  0  0  0  0  0  0  0  0  0  0  0
   34.2250   23.1730   39.7110 H   0  0  0  0  0  0  0  0  0  0  0  0
   35.8290   22.3020   38.4860 C   0  0  0  0  0  0  0  0  0  0  0  0
   35.1120   21.6610   37.9890 H   0  0  0  0  0  0  0  0  0  0  0  0
   37.2030   22.3390   38.2310 C   0  0  0  0  0  0  0  0  0  0  0  0
   37.7130   21.2320   37.0000 Cl  0  0  0  0  0  0  0  0  0  0  0  0
  1  2  1  0  0  0  0
  2 26  1  0  0  0  0
  2  3  2  0  0  0  0
  3 22  1  0  0  0  0
  4  3  1  0  0  0  0
  5  4  2  0  0  0  0
  6  1  2  0  0  0  0
  6  5  1  0  0  0  0
  7  1  1  0  0  0  0
  8  9  1  0  0  0  0
  9  5  1  0  0  0  0
  9 10  2  0  0  0  0
 10 18  1  0  0  0  0
 11 10  1  0  0  0  0
 11 12  1  0  0  0  0
 12 19  1  0  0  0  0
 13 20  1  0  0  0  0
 13 12  1  0  0  0  0
 14 13  2  0  0  0  0
 15 14  1  0  0  0  0
 15 11  2  0  0  0  0
 16  8  2  0  0  0  0
 16 15  1  0  0  0  0
 17  8  1  0  0  0  0
 21 16  1  0  0  0  0
 22 23  1  0  0  0  0
 22 24  1  0  0  0  0
 25 22  1  0  0  0  0
 27 28  1  0  0  0  0
 28 29  1  0  0  0  0
 29 30  2  0  0  0  0
 29 26  1  0  0  0  0
 30 31  1  0  0  0  0
 32 33  1  0  0  0  0
 32 30  1  0  0  0  0
 34 32  2  0  0  0  0
 35 34  1  0  0  0  0
 36 34  1  0  0  0  0
 36 28  2  0  0  0  0
 37 36  1  0  0  0  0
M  END
>  <minimizedAffinity>
-6.03937244

$$$$

 OpenBabel03242513053D

 37 40  0  0  0  0  0  0  0  0999 V2000
   38.2720   28.2540   38.4490 C   0  0  0  0  0  0  0  0  0  0  0  0
   37.1890   28.2060   39.3220 C   0  0  0  0  0  0  0  0  0  0  0  0
   36.9560   29.3470   40.0850 C   0  0  0  0  0  0  0  0  0  0  0  0
   37.7920   30.4150   39.9250 N   0  0  0  0  0  0  0  0  0  0  0  0
   38.8320   30.4230   39.0650 C   0  0  0  0  0  0  0  0  0  0  0  0
   39.0750   29.3360   38.3220 N   0  0  0  0  0  0  0  0  0  0  0  0
   38.5770   27.4430   37.8080 H   0  0  0  0  0  0  0  0  0  0  0  0
   39.5380   32.6250   39.8860 C   0  0  0  0  0  0  0  0  0  0  0  0
   39.6580   31.6030   38.9680 C   0  0  0  0  0  0  0  0  0  0  0  0
   40.5720   31.6460   37.9040 C   0  0  0  0  0  0  0  0  0  0  0  0
   41.4040   32.7510   37.7440 C   0  0  0  0  0  0  0  0  0  0  0  0
   42.3710   33.1270   36.8690 N   0  0  0  0  0  0  0  0  0  0  0  0
   42.8250   34.3640   37.2630 C   0  0  0  0  0  0  0  0  0  0  0  0
   42.1240   34.7240   38.3770 N   0  0  0  0  0  0  0  0  0  0  0  0
   41.2570   33.7480   38.6760 C   0  0  0  0  0  0  0  0  0  0  0  0
   40.3670   33.7390   39.7370 C   0  0  0  0  0  0  0  0  0  0  0  0
   38.8350   32.5860   40.7010 H   0  0  0  0  0  0  0  0  0  0  0  0
   40.6590   30.8410   37.1870 H   0  0  0  0  0  0  0  0  0  0  0  0
   42.6700   32.5250   36.0540 H   0  0  0  0  0  0  0  0  0  0  0  0
   43.6040   34.8760   36.7170 H   0  0  0  0  0  0  0  0  0  0  0  0
   40.2970   34.5560   40.4410 H   0  0  0  0  0  0  0  0  0  0  0  0
   35.8220   29.3760   41.0390 C   0  0  0  0  0  0  0  0  0  0  0  0
   34.6160   29.1030   40.3780 F   0  0  0  0  0  0  0  0  0  0  0  0
   35.9590   28.4010   41.9860 F   0  0  0  0  0  0  0  0  0  0  0  0
   35.7690   30.6190   41.6140 F   0  0  0  0  0  0  0  0  0  0  0  0
   36.4140   27.0940   39.4080 O   0  0  0  0  0  0  0  0  0  0  0  0
   35.4820   24.5930   37.9550 Cl  0  0  0  0  0  0  0  0  0  0  0  0
   36.4870   24.7800   39.4000 C   0  0  0  0  0  0  0  0  0  0  0  0
   36.8830   25.9580   40.0410 C   0  0  0  0  0  0  0  0  0  0  0  0
   37.6560   25.8550   41.1760 C   0  0  0  0  0  0  0  0  0  0  0  0
   37.8890   26.8550   41.5680 H   0  0  0  0  0  0  0  0  0  0  0  0
   38.0460   24.6400   41.6920 C   0  0  0  0  0  0  0  0  0  0  0  0
   38.6520   24.6960   42.5880 H   0  0  0  0  0  0  0  0  0  0  0  0
   37.6510   23.4830   41.0530 C   0  0  0  0  0  0  0  0  0  0  0  0
   38.0040   22.5760   41.5290 H   0  0  0  0  0  0  0  0  0  0  0  0
   36.8660   23.5450   39.8980 C   0  0  0  0  0  0  0  0  0  0  0  0
   36.4720   21.9910   39.2400 Cl  0  0  0  0  0  0  0  0  0  0  0  0
  1  2  1  0  0  0  0
  2 26  1  0  0  0  0
  2  3  2  0  0  0  0
  3 22  1  0  0  0  0
  4  3  1  0  0  0  0
  5  4  2  0  0  0  0
  6  1  2  0  0  0  0
  6  5  1  0  0  0  0
  7  1  1  0  0  0  0
  8 17  1  0  0  0  0
  9  5  1  0  0  0  0
  9  8  2  0  0  0  0
 10  9  1  0  0  0  0
 11 10  2  0  0  0  0
 11 15  1  0  0  0  0
 12 13  1  0  0  0  0
 12 11  1  0  0  0  0
 13 14  2  0  0  0  0
 14 15  1  0  0  0  0
 15 16  2  0  0  0  0
 16  8  1  0  0  0  0
 16 21  1  0  0  0  0
 18 10  1  0  0  0  0
 19 12  1  0  0  0  0
 20 13  1  0  0  0  0
 22 25  1  0  0  0  0
 22 24  1  0  0  0  0
 23 22  1  0  0  0  0
 26 29  1  0  0  0  0
 27 28  1  0  0  0  0
 28 36  2  0  0  0  0
 28 29  1  0  0  0  0
 29 30  2  0  0  0  0
 30 31  1  0  0  0  0
 30 32  1  0  0  0  0
 32 33  1  0  0  0  0
 34 35  1  0  0  0  0
 34 32  2  0  0  0  0
 36 34  1  0  0  0  0
 37 36  1  0  0  0  0
M  END
>  <minimizedAffinity>
-6.02537203

$$$$

 OpenBabel03242513053D

 37 40  0  0  0  0  0  0  0  0999 V2000
   37.6810   28.3330   39.4430 C   0  0  0  0  0  0  0  0  0  0  0  0
   37.2800   27.7980   40.6630 C   0  0  0  0  0  0  0  0  0  0  0  0
   37.6340   28.5150   41.8020 C   0  0  0  0  0  0  0  0  0  0  0  0
   38.3360   29.6760   41.6450 N   0  0  0  0  0  0  0  0  0  0  0  0
   38.7050   30.1630   40.4420 C   0  0  0  0  0  0  0  0  0  0  0  0
   38.3770   29.4890   39.3340 N   0  0  0  0  0  0  0  0  0  0  0  0
   37.4890   27.8820   38.4840 H   0  0  0  0  0  0  0  0  0  0  0  0
   39.0310   32.4320   39.5660 C   0  0  0  0  0  0  0  0  0  0  0  0
   39.4470   31.4000   40.3810 C   0  0  0  0  0  0  0  0  0  0  0  0
   40.5930   31.4880   41.1860 C   0  0  0  0  0  0  0  0  0  0  0  0
   41.3610   32.6500   41.1820 C   0  0  0  0  0  0  0  0  0  0  0  0
   42.4870   33.0780   41.8060 N   0  0  0  0  0  0  0  0  0  0  0  0
   42.7420   34.3560   41.3660 C   0  0  0  0  0  0  0  0  0  0  0  0
   41.7600   34.6880   40.4770 N   0  0  0  0  0  0  0  0  0  0  0  0
   40.9170   33.6550   40.3600 C   0  0  0  0  0  0  0  0  0  0  0  0
   39.7920   33.6030   39.5530 C   0  0  0  0  0  0  0  0  0  0  0  0
   38.1500   32.3600   38.9510 H   0  0  0  0  0  0  0  0  0  0  0  0
   40.9140   30.6740   41.8220 H   0  0  0  0  0  0  0  0  0  0  0  0
   43.0220   32.4810   42.4940 H   0  0  0  0  0  0  0  0  0  0  0  0
   43.5950   34.9140   41.7230 H   0  0  0  0  0  0  0  0  0  0  0  0
   39.4910   34.4300   38.9250 H   0  0  0  0  0  0  0  0  0  0  0  0
   37.2440   28.0100   43.1410 C   0  0  0  0  0  0  0  0  0  0  0  0
   35.9040   27.5970   43.1400 F   0  0  0  0  0  0  0  0  0  0  0  0
   37.9760   26.9070   43.4760 F   0  0  0  0  0  0  0  0  0  0  0  0
   37.4210   29.0170   44.0540 F   0  0  0  0  0  0  0  0  0  0  0  0
   36.5810   26.6340   40.7160 O   0  0  0  0  0  0  0  0  0  0  0  0
   35.5590   25.4110   38.1270 Cl  0  0  0  0  0  0  0  0  0  0  0  0
   36.7740   24.8310   39.2760 C   0  0  0  0  0  0  0  0  0  0  0  0
   37.2060   25.4260   40.4650 C   0  0  0  0  0  0  0  0  0  0  0  0
   38.1580   24.7720   41.2150 C   0  0  0  0  0  0  0  0  0  0  0  0
   38.3980   25.3550   42.1150 H   0  0  0  0  0  0  0  0  0  0  0  0
   38.6910   23.5620   40.8330 C   0  0  0  0  0  0  0  0  0  0  0  0
   39.4300   23.1520   41.5090 H   0  0  0  0  0  0  0  0  0  0  0  0
   38.2580   22.9810   39.6570 C   0  0  0  0  0  0  0  0  0  0  0  0
   38.7320   22.0320   39.4370 H   0  0  0  0  0  0  0  0  0  0  0  0
   37.2940   23.6140   38.8680 C   0  0  0  0  0  0  0  0  0  0  0  0
   36.8810   22.7330   37.4340 Cl  0  0  0  0  0  0  0  0  0  0  0  0
  1  2  1  0  0  0  0
  2 26  1  0  0  0  0
  2  3  2  0  0  0  0
  3 22  1  0  0  0  0
  4  3  1  0  0  0  0
  5  4  2  0  0  0  0
  6  1  2  0  0  0  0
  6  5  1  0  0  0  0
  7  1  1  0  0  0  0
  8  9  1  0  0  0  0
  9  5  1  0  0  0  0
  9 10  2  0  0  0  0
 10 18  1  0  0  0  0
 11 10  1  0  0  0  0
 11 12  1  0  0  0  0
 12 19  1  0  0  0  0
 13 20  1  0  0  0  0
 13 12  1  0  0  0  0
 14 13  2  0  0  0  0
 15 14  1  0  0  0  0
 15 11  2  0  0  0  0
 16  8  2  0  0  0  0
 16 15  1  0  0  0  0
 17  8  1  0  0  0  0
 21 16  1  0  0  0  0
 22 24  1  0  0  0  0
 22 25  1  0  0  0  0
 23 22  1  0  0  0  0
 27 28  1  0  0  0  0
 28 29  1  0  0  0  0
 29 26  1  0  0  0  0
 29 30  2  0  0  0  0
 30 31  1  0  0  0  0
 32 30  1  0  0  0  0
 32 33  1  0  0  0  0
 34 32  2  0  0  0  0
 35 34  1  0  0  0  0
 36 28  2  0  0  0  0
 36 34  1  0  0  0  0
 37 36  1  0  0  0  0
M  END
>  <minimizedAffinity>
-5.93277025

$$$$

 OpenBabel03242513053D

 37 40  0  0  0  0  0  0  0  0999 V2000
   37.8700   30.1330   40.7000 C   0  0  0  0  0  0  0  0  0  0  0  0
   37.5850   29.0060   41.4640 C   0  0  0  0  0  0  0  0  0  0  0  0
   38.5350   28.6450   42.4170 C   0  0  0  0  0  0  0  0  0  0  0  0
   39.6600   29.4110   42.5320 N   0  0  0  0  0  0  0  0  0  0  0  0
   39.8990   30.4990   41.7720 C   0  0  0  0  0  0  0  0  0  0  0  0
   39.0000   30.8640   40.8500 N   0  0  0  0  0  0  0  0  0  0  0  0
   37.2350   30.5200   39.9210 H   0  0  0  0  0  0  0  0  0  0  0  0
   41.9240   31.0000   43.0640 C   0  0  0  0  0  0  0  0  0  0  0  0
   41.1190   31.2440   41.9720 C   0  0  0  0  0  0  0  0  0  0  0  0
   41.4320   32.2120   41.0050 C   0  0  0  0  0  0  0  0  0  0  0  0
   42.5920   32.9710   41.1270 C   0  0  0  0  0  0  0  0  0  0  0  0
   43.1950   33.9570   40.4150 N   0  0  0  0  0  0  0  0  0  0  0  0
   44.3500   34.2980   41.0790 C   0  0  0  0  0  0  0  0  0  0  0  0
   44.4340   33.5100   42.1900 N   0  0  0  0  0  0  0  0  0  0  0  0
   43.3680   32.7000   42.2260 C   0  0  0  0  0  0  0  0  0  0  0  0
   43.0910   31.7530   43.1990 C   0  0  0  0  0  0  0  0  0  0  0  0
   41.6800   30.2550   43.8030 H   0  0  0  0  0  0  0  0  0  0  0  0
   40.7950   32.3990   40.1500 H   0  0  0  0  0  0  0  0  0  0  0  0
   42.7890   34.3440   39.5200 H   0  0  0  0  0  0  0  0  0  0  0  0
   45.0080   35.0680   40.7020 H   0  0  0  0  0  0  0  0  0  0  0  0
   43.7440   31.5850   44.0450 H   0  0  0  0  0  0  0  0  0  0  0  0
   38.3050   27.4550   43.2710 C   0  0  0  0  0  0  0  0  0  0  0  0
   38.0960   26.3160   42.4820 F   0  0  0  0  0  0  0  0  0  0  0  0
   39.4050   27.1860   44.0350 F   0  0  0  0  0  0  0  0  0  0  0  0
   37.2050   27.6890   44.0540 F   0  0  0  0  0  0  0  0  0  0  0  0
   36.4350   28.3090   41.2740 O   0  0  0  0  0  0  0  0  0  0  0  0
   37.6290   26.2190   39.4190 Cl  0  0  0  0  0  0  0  0  0  0  0  0
   36.3090   27.3690   39.1620 C   0  0  0  0  0  0  0  0  0  0  0  0
   35.7990   28.3240   40.0470 C   0  0  0  0  0  0  0  0  0  0  0  0
   34.7720   29.1330   39.6140 C   0  0  0  0  0  0  0  0  0  0  0  0
   34.4750   29.8290   40.4100 H   0  0  0  0  0  0  0  0  0  0  0  0
   34.2380   29.0300   38.3490 C   0  0  0  0  0  0  0  0  0  0  0  0
   33.4350   29.7230   38.1330 H   0  0  0  0  0  0  0  0  0  0  0  0
   34.7480   28.0850   37.4820 C   0  0  0  0  0  0  0  0  0  0  0  0
   34.2670   28.0750   36.5120 H   0  0  0  0  0  0  0  0  0  0  0  0
   35.7900   27.2440   37.8840 C   0  0  0  0  0  0  0  0  0  0  0  0
   36.2940   26.1260   36.6600 Cl  0  0  0  0  0  0  0  0  0  0  0  0
  1  6  2  0  0  0  0
  1  2  1  0  0  0  0
  2  3  2  0  0  0  0
  3  4  1  0  0  0  0
  3 22  1  0  0  0  0
  5  9  1  0  0  0  0
  5  4  2  0  0  0  0
  6  5  1  0  0  0  0
  7  1  1  0  0  0  0
  8 16  1  0  0  0  0
  8 17  1  0  0  0  0
  9  8  2  0  0  0  0
 10 11  2  0  0  0  0
 10  9  1  0  0  0  0
 11 15  1  0  0  0  0
 12 13  1  0  0  0  0
 12 11  1  0  0  0  0
 13 14  2  0  0  0  0
 14 15  1  0  0  0  0
 15 16  2  0  0  0  0
 16 21  1  0  0  0  0
 18 10  1  0  0  0  0
 19 12  1  0  0  0  0
 20 13  1  0  0  0  0
 22 24  1  0  0  0  0
 22 25  1  0  0  0  0
 23 22  1  0  0  0  0
 26  2  1  0  0  0  0
 28 27  1  0  0  0  0
 28 29  1  0  0  0  0
 29 26  1  0  0  0  0
 30 29  2  0  0  0  0
 30 31  1  0  0  0  0
 32 30  1  0  0  0  0
 33 32  1  0  0  0  0
 34 36  1  0  0  0  0
 34 32  2  0  0  0  0
 35 34  1  0  0  0  0
 36 28  2  0  0  0  0
 37 36  1  0  0  0  0
M  END
>  <minimizedAffinity>
-5.86818981

$$$$
