
 OpenBabel03252507463D

 39 41  0  0  0  0  0  0  0  0999 V2000
   48.3120   34.0940   41.5240 C   0  0  0  0  0  0  0  0  0  0  0  0
   48.8080   32.7990   41.3710 C   0  0  0  0  0  0  0  0  0  0  0  0
   50.0880   32.4810   41.8150 C   0  0  0  0  0  0  0  0  0  0  0  0
   50.8220   33.4710   42.3930 N   0  0  0  0  0  0  0  0  0  0  0  0
   50.3070   34.7190   42.5250 C   0  0  0  0  0  0  0  0  0  0  0  0
   49.0840   34.9960   42.0930 N   0  0  0  0  0  0  0  0  0  0  0  0
   50.4590   31.4750   41.6900 H   0  0  0  0  0  0  0  0  0  0  0  0
   50.9560   35.4570   42.9990 H   0  0  0  0  0  0  0  0  0  0  0  0
   46.9540   34.3470   41.0310 C   0  0  0  0  0  0  0  0  0  0  0  0
   46.4580   33.4570   40.6590 H   0  0  0  0  0  0  0  0  0  0  0  0
   47.0780   35.0160   40.1310 H   0  0  0  0  0  0  0  0  0  0  0  0
   46.1070   35.1180   41.9910 C   0  0  0  0  0  0  0  0  0  0  0  0
   46.3330   34.7910   43.0270 H   0  0  0  0  0  0  0  0  0  0  0  0
   46.3240   36.2150   41.9830 H   0  0  0  0  0  0  0  0  0  0  0  0
   44.6450   35.0070   41.7280 C   0  0  0  0  0  0  0  0  0  0  0  0
   43.7200   35.3840   42.7510 C   0  0  0  0  0  0  0  0  0  0  0  0
   42.0880   35.0720   41.9600 S   0  0  0  0  0  0  0  0  0  0  0  0
   42.9440   34.4810   40.3680 C   0  0  0  0  0  0  0  0  0  0  0  0
   44.0430   34.5950   40.6460 N   0  0  0  0  0  0  0  0  0  0  0  0
   43.9520   35.7580   43.7400 H   0  0  0  0  0  0  0  0  0  0  0  0
   42.2360   34.0540   39.2500 O   0  0  0  0  0  0  0  0  0  0  0  0
   40.3030   34.5750   37.5230 O   0  0  0  0  0  0  0  0  0  0  0  0
   41.4210   35.2260   38.3280 P   0  0  0  0  0  0  0  0  0  0  0  0
   40.7470   36.3520   39.4090 O   0  0  0  0  0  0  0  0  0  0  0  0
   40.1710   35.9070   40.0510 H   0  0  0  0  0  0  0  0  0  0  0  0
   42.5200   36.0350   37.3340 O   0  0  0  0  0  0  0  0  0  0  0  0
   42.7210   35.4660   36.5500 H   0  0  0  0  0  0  0  0  0  0  0  0
   47.7970   31.5220   40.5990 S   0  0  0  0  0  0  0  0  0  0  0  0
   47.9770   30.3990   43.5990 Cl  0  0  0  0  0  0  0  0  0  0  0  0
   46.4000   30.6360   42.8730 C   0  0  0  0  0  0  0  0  0  0  0  0
   46.3630   31.1200   41.5820 C   0  0  0  0  0  0  0  0  0  0  0  0
   45.1440   31.3240   40.9670 C   0  0  0  0  0  0  0  0  0  0  0  0
   45.0040   31.6940   39.9720 H   0  0  0  0  0  0  0  0  0  0  0  0
   43.9550   31.0580   41.6010 C   0  0  0  0  0  0  0  0  0  0  0  0
   42.9700   31.2020   41.1590 H   0  0  0  0  0  0  0  0  0  0  0  0
   43.9770   30.5670   42.9100 C   0  0  0  0  0  0  0  0  0  0  0  0
   43.0580   30.3360   43.4700 H   0  0  0  0  0  0  0  0  0  0  0  0
   45.2050   30.3730   43.5010 C   0  0  0  0  0  0  0  0  0  0  0  0
   45.2650   29.7600   45.1360 Cl  0  0  0  0  0  0  0  0  0  0  0  0
  1  6  1  0  0  0  0
  2  1  2  0  0  0  0
  2  3  1  0  0  0  0
  3  4  2  0  0  0  0
  4  5  1  0  0  0  0
  5  8  1  0  0  0  0
  6  5  2  0  0  0  0
  7  3  1  0  0  0  0
  9  1  1  0  0  0  0
  9 12  1  0  0  0  0
 10  9  1  0  0  0  0
 11  9  1  0  0  0  0
 12 13  1  0  0  0  0
 14 12  1  0  0  0  0
 15 12  1  0  0  0  0
 15 16  2  0  0  0  0
 16 20  1  0  0  0  0
 17 16  1  0  0  0  0
 18 19  2  0  0  0  0
 18 17  1  0  0  0  0
 19 15  1  0  0  0  0
 21 18  1  0  0  0  0
 22 23  2  0  0  0  0
 23 21  1  0  0  0  0
 23 24  1  0  0  0  0
 24 25  1  0  0  0  0
 26 23  1  0  0  0  0
 27 26  1  0  0  0  0
 28  2  1  0  0  0  0
 28 31  1  0  0  0  0
 30 38  1  0  0  0  0
 30 29  1  0  0  0  0
 31 30  2  0  0  0  0
 32 31  1  0  0  0  0
 32 34  2  0  0  0  0
 33 32  1  0  0  0  0
 34 36  1  0  0  0  0
 35 34  1  0  0  0  0
 36 37  1  0  0  0  0
 36 38  2  0  0  0  0
 38 39  1  0  0  0  0
M  END
>  <minimizedAffinity>
-4.53288889

>  <minimizedRMSD>
1.08632493

$$$$
