
 OpenBabel03252507463D

 39 41  0  0  0  0  0  0  0  0999 V2000
   48.2650   33.9650   41.5910 C   0  0  0  0  0  0  0  0  0  0  0  0
   48.4780   32.5990   41.7790 C   0  0  0  0  0  0  0  0  0  0  0  0
   49.6870   32.1420   42.2970 C   0  0  0  0  0  0  0  0  0  0  0  0
   50.6340   33.0690   42.6050 N   0  0  0  0  0  0  0  0  0  0  0  0
   50.3920   34.3890   42.4090 C   0  0  0  0  0  0  0  0  0  0  0  0
   49.2320   34.7980   41.9140 N   0  0  0  0  0  0  0  0  0  0  0  0
   49.8380   31.0830   42.4380 H   0  0  0  0  0  0  0  0  0  0  0  0
   51.2010   35.0700   42.6810 H   0  0  0  0  0  0  0  0  0  0  0  0
   46.9650   34.3640   41.0410 C   0  0  0  0  0  0  0  0  0  0  0  0
   46.4280   33.5480   40.5700 H   0  0  0  0  0  0  0  0  0  0  0  0
   47.1980   35.0880   40.2070 H   0  0  0  0  0  0  0  0  0  0  0  0
   46.1190   35.1260   42.0090 C   0  0  0  0  0  0  0  0  0  0  0  0
   46.3480   34.7910   43.0430 H   0  0  0  0  0  0  0  0  0  0  0  0
   46.3340   36.2230   42.0100 H   0  0  0  0  0  0  0  0  0  0  0  0
   44.6570   35.0140   41.7500 C   0  0  0  0  0  0  0  0  0  0  0  0
   43.7340   35.4050   42.7690 C   0  0  0  0  0  0  0  0  0  0  0  0
   42.1000   35.0860   41.9830 S   0  0  0  0  0  0  0  0  0  0  0  0
   42.9530   34.4740   40.3970 C   0  0  0  0  0  0  0  0  0  0  0  0
   44.0530   34.5900   40.6740 N   0  0  0  0  0  0  0  0  0  0  0  0
   43.9670   35.7900   43.7530 H   0  0  0  0  0  0  0  0  0  0  0  0
   42.2440   34.0350   39.2850 O   0  0  0  0  0  0  0  0  0  0  0  0
   40.3190   34.5320   37.5420 O   0  0  0  0  0  0  0  0  0  0  0  0
   41.4240   35.1960   38.3540 P   0  0  0  0  0  0  0  0  0  0  0  0
   40.7320   36.3190   39.4260 O   0  0  0  0  0  0  0  0  0  0  0  0
   40.1560   35.8700   40.0650 H   0  0  0  0  0  0  0  0  0  0  0  0
   42.5240   36.0120   37.3650 O   0  0  0  0  0  0  0  0  0  0  0  0
   42.7360   35.4430   36.5850 H   0  0  0  0  0  0  0  0  0  0  0  0
   47.1920   31.4100   41.3560 S   0  0  0  0  0  0  0  0  0  0  0  0
   45.6520   32.1760   44.0630 Cl  0  0  0  0  0  0  0  0  0  0  0  0
   46.2380   30.5410   43.8550 C   0  0  0  0  0  0  0  0  0  0  0  0
   46.8960   30.2470   42.6770 C   0  0  0  0  0  0  0  0  0  0  0  0
   47.3760   28.9710   42.4660 C   0  0  0  0  0  0  0  0  0  0  0  0
   47.8990   28.6400   41.5920 H   0  0  0  0  0  0  0  0  0  0  0  0
   47.2210   27.9720   43.3950 C   0  0  0  0  0  0  0  0  0  0  0  0
   47.5830   26.9500   43.2750 H   0  0  0  0  0  0  0  0  0  0  0  0
   46.5580   28.2530   44.5920 C   0  0  0  0  0  0  0  0  0  0  0  0
   46.4020   27.4950   45.3750 H   0  0  0  0  0  0  0  0  0  0  0  0
   46.0870   29.5320   44.7800 C   0  0  0  0  0  0  0  0  0  0  0  0
   45.2540   29.9160   46.2650 Cl  0  0  0  0  0  0  0  0  0  0  0  0
  1  2  2  0  0  0  0
  1  6  1  0  0  0  0
  2  3  1  0  0  0  0
  3  7  1  0  0  0  0
  3  4  2  0  0  0  0
  5  4  1  0  0  0  0
  5  8  1  0  0  0  0
  6  5  2  0  0  0  0
  9  1  1  0  0  0  0
  9 12  1  0  0  0  0
 10  9  1  0  0  0  0
 11  9  1  0  0  0  0
 12 14  1  0  0  0  0
 12 13  1  0  0  0  0
 15 12  1  0  0  0  0
 15 16  2  0  0  0  0
 16 20  1  0  0  0  0
 17 16  1  0  0  0  0
 18 19  2  0  0  0  0
 18 17  1  0  0  0  0
 19 15  1  0  0  0  0
 21 18  1  0  0  0  0
 22 23  2  0  0  0  0
 23 21  1  0  0  0  0
 23 24  1  0  0  0  0
 24 25  1  0  0  0  0
 26 23  1  0  0  0  0
 27 26  1  0  0  0  0
 28  2  1  0  0  0  0
 28 31  1  0  0  0  0
 30 29  1  0  0  0  0
 30 38  1  0  0  0  0
 31 30  2  0  0  0  0
 32 31  1  0  0  0  0
 32 34  2  0  0  0  0
 33 32  1  0  0  0  0
 34 36  1  0  0  0  0
 35 34  1  0  0  0  0
 36 38  2  0  0  0  0
 36 37  1  0  0  0  0
 38 39  1  0  0  0  0
M  END
>  <minimizedAffinity>
-4.32766342

>  <minimizedRMSD>
1.55825841

$$$$
