
 OpenBabel03242510333D

 45 47  0  0  1  0  0  0  0  0999 V2000
   44.4610   33.3410   41.4360 C   0  0  1  0  0  0  0  0  0  0  0  0
   43.7680   34.2840   40.3900 C   0  0  0  0  0  0  0  0  0  0  0  0
   43.4360   33.5270   39.1760 C   0  0  0  0  0  0  0  0  0  0  0  0
   44.7980   33.1640   38.5310 C   0  0  0  0  0  0  0  0  0  0  0  0
   45.5040   32.3940   39.4970 C   0  0  0  0  0  0  0  0  0  0  0  0
   45.7120   32.9350   40.9790 C   0  0  1  0  0  0  0  0  0  0  0  0
   43.7600   32.5020   41.6300 H   0  0  0  0  0  0  0  0  0  0  0  0
   44.4480   35.1190   40.1730 H   0  0  0  0  0  0  0  0  0  0  0  0
   42.7970   34.6080   40.8660 H   0  0  0  0  0  0  0  0  0  0  0  0
   42.9220   34.1730   38.4700 H   0  0  0  0  0  0  0  0  0  0  0  0
   42.9570   32.5510   39.3750 H   0  0  0  0  0  0  0  0  0  0  0  0
   44.4950   32.4700   37.7190 H   0  0  0  0  0  0  0  0  0  0  0  0
   45.2390   34.0490   38.0800 H   0  0  0  0  0  0  0  0  0  0  0  0
   44.6420   31.6750   39.8470 H   0  0  0  0  0  0  0  0  0  0  0  0
   46.1370   31.5590   39.2440 H   0  0  0  0  0  0  0  0  0  0  0  0
   46.1860   32.0640   41.4100 H   0  0  0  0  0  0  0  0  0  0  0  0
   44.6830   36.1540   44.0540 C   0  0  0  0  0  0  0  0  0  0  0  0
   44.4500   35.5500   42.8560 C   0  0  0  0  0  0  0  0  0  0  0  0
   44.6400   34.1680   42.6710 C   0  0  0  0  0  0  0  0  0  0  0  0
   45.0540   33.5040   43.7320 N   0  0  0  0  0  0  0  0  0  0  0  0
   45.2850   34.0770   44.9040 C   0  0  0  0  0  0  0  0  0  0  0  0
   45.0980   35.4250   45.0750 N   0  0  0  0  0  0  0  0  0  0  0  0
   44.4850   37.2280   44.0140 H   0  0  0  0  0  0  0  0  0  0  0  0
   44.1090   36.0480   41.9490 H   0  0  0  0  0  0  0  0  0  0  0  0
   45.6240   33.5460   45.7760 H   0  0  0  0  0  0  0  0  0  0  0  0
   46.6130   34.0280   40.8010 O   0  0  0  0  0  0  0  0  0  0  0  0
   47.8640   33.4800   41.3710 C   0  0  1  0  0  0  0  0  0  0  0  0
   47.3310   32.7330   41.7020 H   0  0  0  0  0  0  0  0  0  0  0  0
   50.0930   31.3950   42.1660 Cl  0  0  0  0  0  0  0  0  0  0  0  0
   49.8370   31.8890   40.5070 C   0  0  0  0  0  0  0  0  0  0  0  0
   48.7870   32.7860   40.3580 C   0  0  0  0  0  0  0  0  0  0  0  0
   48.5660   33.1260   39.0000 C   0  0  0  0  0  0  0  0  0  0  0  0
   47.7480   33.8340   38.7820 H   0  0  0  0  0  0  0  0  0  0  0  0
   49.2470   32.6830   37.9060 C   0  0  0  0  0  0  0  0  0  0  0  0
   48.9920   33.0090   36.9100 H   0  0  0  0  0  0  0  0  0  0  0  0
   50.2690   31.8000   38.1620 C   0  0  0  0  0  0  0  0  0  0  0  0
   50.8730   31.3870   37.3710 H   0  0  0  0  0  0  0  0  0  0  0  0
   50.5620   31.4060   39.4440 C   0  0  0  0  0  0  0  0  0  0  0  0
   51.8330   30.2930   39.9010 Cl  0  0  0  0  0  0  0  0  0  0  0  0
   48.5650   34.6600   41.0900 O   0  0  0  0  0  0  0  0  0  0  0  0
   49.2280   35.5050   41.8290 C   0  0  0  0  0  0  0  0  0  0  0  0
   49.3360   36.6780   41.6300 O   0  0  0  0  0  0  0  0  0  0  0  0
   49.8270   34.9230   42.9220 N   0  0  0  0  0  0  0  0  0  0  0  0
   50.5720   34.6380   43.6060 H   0  0  0  0  0  0  0  0  0  0  0  0
   50.8600   35.1020   42.9860 H   0  0  0  0  0  0  0  0  0  0  0  0
  1  7  1  1  0  0  0
  1 19  1  0  0  0  0
  2  9  1  0  0  0  0
  2  1  1  0  0  0  0
  3 11  1  0  0  0  0
  3  2  1  0  0  0  0
  4  3  1  0  0  0  0
  4  5  1  0  0  0  0
  5 14  1  0  0  0  0
  5  6  1  0  0  0  0
  6 16  1  1  0  0  0
  6  1  1  0  0  0  0
  8  2  1  0  0  0  0
 10  3  1  0  0  0  0
 12  4  1  0  0  0  0
 13  4  1  0  0  0  0
 15  5  1  0  0  0  0
 17 22  1  0  0  0  0
 18 17  2  0  0  0  0
 19 18  1  0  0  0  0
 19 20  2  0  0  0  0
 20 21  1  0  0  0  0
 21 22  2  0  0  0  0
 21 25  1  0  0  0  0
 23 17  1  0  0  0  0
 24 18  1  0  0  0  0
 26  6  1  0  0  0  0
 26 27  1  0  0  0  0
 27 28  1  1  0  0  0
 30 29  1  0  0  0  0
 31 30  1  0  0  0  0
 31 27  1  0  0  0  0
 32 31  2  0  0  0  0
 33 32  1  0  0  0  0
 34 36  2  0  0  0  0
 34 32  1  0  0  0  0
 35 34  1  0  0  0  0
 36 38  1  0  0  0  0
 37 36  1  0  0  0  0
 38 39  1  0  0  0  0
 38 30  2  0  0  0  0
 40 27  1  0  0  0  0
 40 41  1  0  0  0  0
 41 43  1  0  0  0  0
 42 41  2  0  0  0  0
 43 45  1  0  0  0  0
 43 44  1  0  0  0  0
M  END
>  <minimizedAffinity>
-5.29174376

>  <minimizedRMSD>
0.776142836

$$$$
