
 OpenBabel03242510503D

 24 25  0  0  0  0  0  0  0  0999 V2000
   45.5920   35.6940   42.7670 C   0  0  0  0  0  0  0  0  0  0  0  0
   46.7640   35.4940   42.0030 C   0  0  0  0  0  0  0  0  0  0  0  0
   47.4590   34.2900   42.2040 C   0  0  0  0  0  0  0  0  0  0  0  0
   46.9780   33.3850   43.1100 N   0  0  0  0  0  0  0  0  0  0  0  0
   45.8600   33.6180   43.8130 C   0  0  0  0  0  0  0  0  0  0  0  0
   45.1580   34.7780   43.6450 N   0  0  0  0  0  0  0  0  0  0  0  0
   46.3780   31.6550   45.1270 C   0  0  0  0  0  0  0  0  0  0  0  0
   47.5540   31.5910   44.7260 O   0  0  0  0  0  0  0  0  0  0  0  0
   45.4150   32.6380   44.7380 N   0  0  0  0  0  0  0  0  0  0  0  0
   45.0610   36.6180   42.6110 H   0  0  0  0  0  0  0  0  0  0  0  0
   47.1250   36.2230   41.2940 H   0  0  0  0  0  0  0  0  0  0  0  0
   48.3550   34.1430   41.6170 H   0  0  0  0  0  0  0  0  0  0  0  0
   44.4400   32.6470   45.1040 H   0  0  0  0  0  0  0  0  0  0  0  0
   45.8100   32.5230   47.9870 Cl  0  0  0  0  0  0  0  0  0  0  0  0
   45.6150   30.8880   47.4100 C   0  0  0  0  0  0  0  0  0  0  0  0
   45.9080   30.6370   46.0910 C   0  0  0  0  0  0  0  0  0  0  0  0
   45.7680   29.3560   45.5910 C   0  0  0  0  0  0  0  0  0  0  0  0
   45.9920   29.1150   44.5460 H   0  0  0  0  0  0  0  0  0  0  0  0
   45.3400   28.2930   46.3620 C   0  0  0  0  0  0  0  0  0  0  0  0
   45.2370   27.3020   45.9540 H   0  0  0  0  0  0  0  0  0  0  0  0
   45.0480   28.5610   47.6880 C   0  0  0  0  0  0  0  0  0  0  0  0
   44.7110   27.7320   48.3020 H   0  0  0  0  0  0  0  0  0  0  0  0
   45.1840   29.8500   48.2090 C   0  0  0  0  0  0  0  0  0  0  0  0
   44.8110   30.1710   49.8910 Cl  0  0  0  0  0  0  0  0  0  0  0  0
  1  6  1  0  0  0  0
  2  3  1  0  0  0  0
  2  1  2  0  0  0  0
  3  4  2  0  0  0  0
  4  5  1  0  0  0  0
  5  9  1  0  0  0  0
  6  5  2  0  0  0  0
  7 16  1  0  0  0  0
  8  7  2  0  0  0  0
  9 13  1  0  0  0  0
  9  7  1  0  0  0  0
 10  1  1  0  0  0  0
 11  2  1  0  0  0  0
 12  3  1  0  0  0  0
 15 14  1  0  0  0  0
 15 23  1  0  0  0  0
 16 15  2  0  0  0  0
 17 16  1  0  0  0  0
 17 19  2  0  0  0  0
 18 17  1  0  0  0  0
 19 21  1  0  0  0  0
 20 19  1  0  0  0  0
 21 23  2  0  0  0  0
 21 22  1  0  0  0  0
 23 24  1  0  0  0  0
M  END
>  <minimizedAffinity>
-3.69049716

>  <minimizedRMSD>
2.53772569

$$$$
