
 OpenBabel03242510223D

 40 43  0  0  1  0  0  0  0  0999 V2000
   47.9910   33.1460   43.0400 N   0  0  0  0  0  0  0  0  0  0  0  0
   49.1850   33.2090   42.3260 C   0  0  0  0  0  0  0  0  0  0  0  0
   50.3270   32.7540   42.5990 O   0  0  0  0  0  0  0  0  0  0  0  0
   47.4720   34.0510   43.0150 H   0  0  0  0  0  0  0  0  0  0  0  0
   46.1770   32.0020   44.2620 C   0  0  1  0  0  0  0  0  0  0  0  0
   46.3030   31.3290   43.0460 C   0  0  0  0  0  0  0  0  0  0  0  0
   47.5530   31.9760   43.7140 C   0  0  1  0  0  0  0  0  0  0  0  0
   45.9760   31.4800   45.2380 H   0  0  0  0  0  0  0  0  0  0  0  0
   46.2740   30.1940   43.0520 H   0  0  0  0  0  0  0  0  0  0  0  0
   46.0390   31.6920   42.0370 H   0  0  0  0  0  0  0  0  0  0  0  0
   48.2940   31.1880   43.9720 H   0  0  0  0  0  0  0  0  0  0  0  0
   44.9500   33.9640   43.0730 C   0  0  0  0  0  0  0  0  0  0  0  0
   45.4880   33.3730   44.2640 C   0  0  0  0  0  0  0  0  0  0  0  0
   45.3830   34.0970   45.4350 C   0  0  0  0  0  0  0  0  0  0  0  0
   44.7910   35.3110   45.4060 N   0  0  0  0  0  0  0  0  0  0  0  0
   44.2880   35.8580   44.2710 C   0  0  0  0  0  0  0  0  0  0  0  0
   44.3750   35.1510   43.0650 N   0  0  0  0  0  0  0  0  0  0  0  0
   45.0090   33.3960   42.1650 H   0  0  0  0  0  0  0  0  0  0  0  0
   45.7660   33.7090   46.3620 H   0  0  0  0  0  0  0  0  0  0  0  0
   43.8130   36.8310   44.2500 H   0  0  0  0  0  0  0  0  0  0  0  0
   49.2140   33.9180   40.9850 C   0  0  2  0  0  0  0  0  0  0  0  0
   48.5980   35.3650   40.9510 C   0  0  0  0  0  0  0  0  0  0  0  0
   47.9750   34.2040   40.2490 C   0  0  1  0  0  0  0  0  0  0  0  0
   50.1720   33.9260   40.4300 H   0  0  0  0  0  0  0  0  0  0  0  0
   48.1480   35.6720   41.9260 H   0  0  0  0  0  0  0  0  0  0  0  0
   49.0700   36.1100   40.3210 H   0  0  0  0  0  0  0  0  0  0  0  0
   47.0500   33.7280   40.6340 H   0  0  0  0  0  0  0  0  0  0  0  0
   48.0450   34.1790   38.7380 C   0  0  0  0  0  0  0  0  0  0  0  0
   48.6670   35.0540   38.1520 O   0  0  0  0  0  0  0  0  0  0  0  0
   49.8980   31.9950   37.9250 Cl  0  0  0  0  0  0  0  0  0  0  0  0
   48.1820   32.0900   37.5380 C   0  0  0  0  0  0  0  0  0  0  0  0
   47.3900   33.1390   37.9540 C   0  0  0  0  0  0  0  0  0  0  0  0
   46.0660   33.0920   37.5840 C   0  0  0  0  0  0  0  0  0  0  0  0
   45.4470   33.9110   37.9100 H   0  0  0  0  0  0  0  0  0  0  0  0
   45.5500   32.0540   36.8360 C   0  0  0  0  0  0  0  0  0  0  0  0
   44.4780   32.1220   36.5990 H   0  0  0  0  0  0  0  0  0  0  0  0
   46.3380   31.0010   36.4180 C   0  0  0  0  0  0  0  0  0  0  0  0
   45.9020   30.2080   35.8360 H   0  0  0  0  0  0  0  0  0  0  0  0
   47.6680   31.0320   36.7790 C   0  0  0  0  0  0  0  0  0  0  0  0
   48.6980   29.7100   36.2640 Cl  0  0  0  0  0  0  0  0  0  0  0  0
  1  7  1  0  0  0  0
  2  3  2  0  0  0  0
  2  1  1  0  0  0  0
  4  1  1  0  0  0  0
  5 13  1  0  0  0  0
  5  8  1  1  0  0  0
  6  9  1  0  0  0  0
  6  7  1  0  0  0  0
  6  5  1  0  0  0  0
  7 11  1  1  0  0  0
  7  5  1  0  0  0  0
 10  6  1  0  0  0  0
 12 13  1  0  0  0  0
 13 14  2  0  0  0  0
 14 19  1  0  0  0  0
 15 14  1  0  0  0  0
 16 15  2  0  0  0  0
 17 12  2  0  0  0  0
 17 16  1  0  0  0  0
 18 12  1  0  0  0  0
 20 16  1  0  0  0  0
 21 24  1  6  0  0  0
 21  2  1  0  0  0  0
 22 21  1  0  0  0  0
 22 25  1  0  0  0  0
 23 27  1  1  0  0  0
 23 22  1  0  0  0  0
 23 21  1  0  0  0  0
 26 22  1  0  0  0  0
 28 23  1  0  0  0  0
 29 28  2  0  0  0  0
 31 30  1  0  0  0  0
 31 32  1  0  0  0  0
 32 28  1  0  0  0  0
 33 34  1  0  0  0  0
 33 32  2  0  0  0  0
 35 33  1  0  0  0  0
 36 35  1  0  0  0  0
 37 39  1  0  0  0  0
 37 35  2  0  0  0  0
 38 37  1  0  0  0  0
 39 31  2  0  0  0  0
 40 39  1  0  0  0  0
M  END
>  <minimizedAffinity>
-4.89322138

>  <minimizedRMSD>
0.824978471

$$$$
