
 OpenBabel03242519253D

 42 45  0  0  0  0  0  0  0  0999 V2000
   47.8730   33.7230   42.8810 C   0  0  0  0  0  0  0  0  0  0  0  0
   48.5970   34.9270   42.7020 C   0  0  0  0  0  0  0  0  0  0  0  0
   49.9600   34.8840   42.3800 C   0  0  0  0  0  0  0  0  0  0  0  0
   50.5210   33.6360   42.2560 N   0  0  0  0  0  0  0  0  0  0  0  0
   49.7940   32.4890   42.4370 C   0  0  0  0  0  0  0  0  0  0  0  0
   48.5000   32.5360   42.7420 N   0  0  0  0  0  0  0  0  0  0  0  0
   48.2290   35.9220   42.7820 H   0  0  0  0  0  0  0  0  0  0  0  0
   50.5590   35.7480   42.2320 H   0  0  0  0  0  0  0  0  0  0  0  0
   46.4510   33.8740   43.2230 C   0  0  0  0  0  0  0  0  0  0  0  0
   45.7610   34.8860   42.4260 C   0  0  0  0  0  0  0  0  0  0  0  0
   45.3420   36.0880   43.1850 C   0  0  0  0  0  0  0  0  0  0  0  0
   44.5490   35.7650   44.4410 C   0  0  0  0  0  0  0  0  0  0  0  0
   44.9810   34.5010   45.1310 C   0  0  0  0  0  0  0  0  0  0  0  0
   46.4100   34.1580   44.7360 C   0  0  0  0  0  0  0  0  0  0  0  0
   45.9660   32.8600   43.1210 H   0  0  0  0  0  0  0  0  0  0  0  0
   44.8270   34.4500   41.9630 H   0  0  0  0  0  0  0  0  0  0  0  0
   46.3630   35.2070   41.5730 H   0  0  0  0  0  0  0  0  0  0  0  0
   44.6100   36.6430   42.5280 H   0  0  0  0  0  0  0  0  0  0  0  0
   46.1040   36.8160   43.4440 H   0  0  0  0  0  0  0  0  0  0  0  0
   44.6510   36.5990   45.1750 H   0  0  0  0  0  0  0  0  0  0  0  0
   43.4510   35.6870   44.2340 H   0  0  0  0  0  0  0  0  0  0  0  0
   44.9330   34.5810   46.2250 H   0  0  0  0  0  0  0  0  0  0  0  0
   44.3460   33.6400   44.7840 H   0  0  0  0  0  0  0  0  0  0  0  0
   46.9880   35.0880   44.8790 H   0  0  0  0  0  0  0  0  0  0  0  0
   46.7690   33.2890   45.2890 H   0  0  0  0  0  0  0  0  0  0  0  0
   50.5400   31.2510   42.2750 C   0  0  0  0  0  0  0  0  0  0  0  0
   51.5600   31.2500   41.3860 N   0  0  0  0  0  0  0  0  0  0  0  0
   52.1380   30.0330   41.3660 C   0  0  0  0  0  0  0  0  0  0  0  0
   51.4570   29.2680   42.2620 N   0  0  0  0  0  0  0  0  0  0  0  0
   50.4910   30.0090   42.8110 N   0  0  0  0  0  0  0  0  0  0  0  0
   52.9770   29.7580   40.7430 H   0  0  0  0  0  0  0  0  0  0  0  0
   49.8500   27.3790   40.6920 Cl  0  0  0  0  0  0  0  0  0  0  0  0
   51.0510   26.9110   41.8960 C   0  0  0  0  0  0  0  0  0  0  0  0
   51.7350   27.9070   42.5610 C   0  0  0  0  0  0  0  0  0  0  0  0
   52.6770   27.5880   43.5050 C   0  0  0  0  0  0  0  0  0  0  0  0
   53.2330   28.3330   44.0470 H   0  0  0  0  0  0  0  0  0  0  0  0
   52.9330   26.2480   43.7840 C   0  0  0  0  0  0  0  0  0  0  0  0
   53.6790   26.0150   44.5310 H   0  0  0  0  0  0  0  0  0  0  0  0
   52.2300   25.2520   43.0990 C   0  0  0  0  0  0  0  0  0  0  0  0
   52.4330   24.2150   43.3180 H   0  0  0  0  0  0  0  0  0  0  0  0
   51.2890   25.5780   42.1570 C   0  0  0  0  0  0  0  0  0  0  0  0
   50.3760   24.3600   41.2670 Cl  0  0  0  0  0  0  0  0  0  0  0  0
  1  9  1  0  0  0  0
  2  7  1  0  0  0  0
  2  1  2  0  0  0  0
  3  2  1  0  0  0  0
  4  3  2  0  0  0  0
  4  5  1  0  0  0  0
  5  6  2  0  0  0  0
  6  1  1  0  0  0  0
  8  3  1  0  0  0  0
  9 14  1  0  0  0  0
 10 11  1  0  0  0  0
 10  9  1  0  0  0  0
 11 19  1  0  0  0  0
 11 12  1  0  0  0  0
 12 13  1  0  0  0  0
 12 20  1  0  0  0  0
 13 22  1  0  0  0  0
 14 24  1  0  0  0  0
 14 13  1  0  0  0  0
 14 25  1  0  0  0  0
 15  9  1  0  0  0  0
 16 10  1  0  0  0  0
 17 10  1  0  0  0  0
 18 11  1  0  0  0  0
 21 12  1  0  0  0  0
 23 13  1  0  0  0  0
 26  5  1  0  0  0  0
 26 30  2  0  0  0  0
 27 26  1  0  0  0  0
 28 27  2  0  0  0  0
 28 29  1  0  0  0  0
 29 34  1  0  0  0  0
 29 30  1  0  0  0  0
 31 28  1  0  0  0  0
 32 33  1  0  0  0  0
 33 41  2  0  0  0  0
 33 34  1  0  0  0  0
 34 35  2  0  0  0  0
 35 37  1  0  0  0  0
 35 36  1  0  0  0  0
 37 38  1  0  0  0  0
 39 40  1  0  0  0  0
 39 37  2  0  0  0  0
 41 39  1  0  0  0  0
 42 41  1  0  0  0  0
M  END
>  <minimizedAffinity>
-4.14841366

>  <minimizedRMSD>
0.0880989879

$$$$
