
 OpenBabel03252507463D

 39 41  0  0  0  0  0  0  0  0999 V2000
   48.5200   33.9810   41.3370 C   0  0  0  0  0  0  0  0  0  0  0  0
   48.9160   32.7270   40.8710 C   0  0  0  0  0  0  0  0  0  0  0  0
   50.1530   32.2020   41.2330 C   0  0  0  0  0  0  0  0  0  0  0  0
   50.9460   32.9540   42.0460 N   0  0  0  0  0  0  0  0  0  0  0  0
   50.5270   34.1680   42.4800 C   0  0  0  0  0  0  0  0  0  0  0  0
   49.3430   34.6450   42.1200 N   0  0  0  0  0  0  0  0  0  0  0  0
   50.4470   31.2310   40.8650 H   0  0  0  0  0  0  0  0  0  0  0  0
   51.2180   34.7090   43.1290 H   0  0  0  0  0  0  0  0  0  0  0  0
   47.2010   34.4610   40.9090 C   0  0  0  0  0  0  0  0  0  0  0  0
   46.6660   33.7530   40.2860 H   0  0  0  0  0  0  0  0  0  0  0  0
   47.4040   35.3500   40.2440 H   0  0  0  0  0  0  0  0  0  0  0  0
   46.3660   34.9840   42.0330 C   0  0  0  0  0  0  0  0  0  0  0  0
   46.6000   34.4190   42.9600 H   0  0  0  0  0  0  0  0  0  0  0  0
   46.5870   36.0500   42.2840 H   0  0  0  0  0  0  0  0  0  0  0  0
   44.9020   34.9400   41.7660 C   0  0  0  0  0  0  0  0  0  0  0  0
   43.9970   35.4610   42.7430 C   0  0  0  0  0  0  0  0  0  0  0  0
   42.3520   35.1820   41.9650 S   0  0  0  0  0  0  0  0  0  0  0  0
   43.1770   34.4030   40.4390 C   0  0  0  0  0  0  0  0  0  0  0  0
   44.2800   34.4730   40.7180 N   0  0  0  0  0  0  0  0  0  0  0  0
   44.2460   35.9050   43.6980 H   0  0  0  0  0  0  0  0  0  0  0  0
   42.4500   33.9250   39.3550 O   0  0  0  0  0  0  0  0  0  0  0  0
   40.4790   34.3180   37.6370 O   0  0  0  0  0  0  0  0  0  0  0  0
   41.5500   35.0420   38.4450 P   0  0  0  0  0  0  0  0  0  0  0  0
   40.8010   36.1090   39.5360 O   0  0  0  0  0  0  0  0  0  0  0  0
   40.2600   35.6180   40.1760 H   0  0  0  0  0  0  0  0  0  0  0  0
   42.5850   35.9350   37.4530 O   0  0  0  0  0  0  0  0  0  0  0  0
   42.8240   35.3880   36.6650 H   0  0  0  0  0  0  0  0  0  0  0  0
   47.8310   31.7700   39.7960 S   0  0  0  0  0  0  0  0  0  0  0  0
   48.7210   28.8410   40.7540 Cl  0  0  0  0  0  0  0  0  0  0  0  0
   47.1150   29.4130   41.1510 C   0  0  0  0  0  0  0  0  0  0  0  0
   46.7670   30.6770   40.7220 C   0  0  0  0  0  0  0  0  0  0  0  0
   45.5110   31.1720   41.0100 C   0  0  0  0  0  0  0  0  0  0  0  0
   45.1420   32.1360   40.7260 H   0  0  0  0  0  0  0  0  0  0  0  0
   44.5860   30.4430   41.7160 C   0  0  0  0  0  0  0  0  0  0  0  0
   43.5830   30.7890   41.9680 H   0  0  0  0  0  0  0  0  0  0  0  0
   44.9220   29.1610   42.1570 C   0  0  0  0  0  0  0  0  0  0  0  0
   44.2240   28.5280   42.7260 H   0  0  0  0  0  0  0  0  0  0  0  0
   46.1800   28.6890   41.8570 C   0  0  0  0  0  0  0  0  0  0  0  0
   46.6320   27.0910   42.3940 Cl  0  0  0  0  0  0  0  0  0  0  0  0
  1  6  1  0  0  0  0
  2  3  1  0  0  0  0
  2  1  2  0  0  0  0
  3  4  2  0  0  0  0
  4  5  1  0  0  0  0
  5  8  1  0  0  0  0
  6  5  2  0  0  0  0
  7  3  1  0  0  0  0
  9  1  1  0  0  0  0
  9 12  1  0  0  0  0
 10  9  1  0  0  0  0
 11  9  1  0  0  0  0
 12 14  1  0  0  0  0
 12 13  1  0  0  0  0
 15 12  1  0  0  0  0
 15 16  2  0  0  0  0
 16 20  1  0  0  0  0
 17 16  1  0  0  0  0
 18 19  2  0  0  0  0
 18 17  1  0  0  0  0
 19 15  1  0  0  0  0
 21 18  1  0  0  0  0
 22 23  2  0  0  0  0
 23 21  1  0  0  0  0
 23 24  1  0  0  0  0
 24 25  1  0  0  0  0
 26 23  1  0  0  0  0
 27 26  1  0  0  0  0
 28 31  1  0  0  0  0
 28  2  1  0  0  0  0
 29 30  1  0  0  0  0
 30 38  1  0  0  0  0
 31 32  1  0  0  0  0
 31 30  2  0  0  0  0
 32 34  2  0  0  0  0
 33 32  1  0  0  0  0
 34 35  1  0  0  0  0
 34 36  1  0  0  0  0
 36 37  1  0  0  0  0
 38 36  2  0  0  0  0
 38 39  1  0  0  0  0
M  END
>  <minimizedAffinity>
-4.35889673

>  <minimizedRMSD>
0.371188492

$$$$
