
 OpenBabel03242519253D

 42 45  0  0  0  0  0  0  0  0999 V2000
   47.8960   33.7500   42.8750 C   0  0  0  0  0  0  0  0  0  0  0  0
   48.6030   34.9630   42.6840 C   0  0  0  0  0  0  0  0  0  0  0  0
   49.9680   34.9360   42.3670 C   0  0  0  0  0  0  0  0  0  0  0  0
   50.5470   33.6960   42.2600 N   0  0  0  0  0  0  0  0  0  0  0  0
   49.8360   32.5400   42.4510 C   0  0  0  0  0  0  0  0  0  0  0  0
   48.5410   32.5710   42.7510 N   0  0  0  0  0  0  0  0  0  0  0  0
   48.2200   35.9530   42.7520 H   0  0  0  0  0  0  0  0  0  0  0  0
   50.5540   35.8080   42.2120 H   0  0  0  0  0  0  0  0  0  0  0  0
   46.4710   33.8840   43.2110 C   0  0  0  0  0  0  0  0  0  0  0  0
   45.7750   34.8960   42.4180 C   0  0  0  0  0  0  0  0  0  0  0  0
   45.3400   36.0880   43.1850 C   0  0  0  0  0  0  0  0  0  0  0  0
   44.5430   35.7460   44.4340 C   0  0  0  0  0  0  0  0  0  0  0  0
   44.9840   34.4800   45.1150 C   0  0  0  0  0  0  0  0  0  0  0  0
   46.4180   34.1550   44.7250 C   0  0  0  0  0  0  0  0  0  0  0  0
   45.9960   32.8670   43.0970 H   0  0  0  0  0  0  0  0  0  0  0  0
   44.8480   34.4560   41.9460 H   0  0  0  0  0  0  0  0  0  0  0  0
   46.3780   35.2310   41.5710 H   0  0  0  0  0  0  0  0  0  0  0  0
   44.6060   36.6410   42.5290 H   0  0  0  0  0  0  0  0  0  0  0  0
   46.0930   36.8210   43.4550 H   0  0  0  0  0  0  0  0  0  0  0  0
   44.6340   36.5750   45.1760 H   0  0  0  0  0  0  0  0  0  0  0  0
   43.4480   35.6590   44.2210 H   0  0  0  0  0  0  0  0  0  0  0  0
   44.9290   34.5500   46.2100 H   0  0  0  0  0  0  0  0  0  0  0  0
   44.3600   33.6160   44.7580 H   0  0  0  0  0  0  0  0  0  0  0  0
   46.9870   35.0890   44.8790 H   0  0  0  0  0  0  0  0  0  0  0  0
   46.7840   33.2850   45.2730 H   0  0  0  0  0  0  0  0  0  0  0  0
   50.6010   31.3110   42.3060 C   0  0  0  0  0  0  0  0  0  0  0  0
   50.3970   30.5800   41.1860 N   0  0  0  0  0  0  0  0  0  0  0  0
   51.1820   29.4850   41.2150 C   0  0  0  0  0  0  0  0  0  0  0  0
   51.8840   29.5440   42.3790 N   0  0  0  0  0  0  0  0  0  0  0  0
   51.5300   30.6510   43.0370 N   0  0  0  0  0  0  0  0  0  0  0  0
   51.2170   28.7290   40.4430 H   0  0  0  0  0  0  0  0  0  0  0  0
   50.7530   27.5230   44.1810 Cl  0  0  0  0  0  0  0  0  0  0  0  0
   52.4400   27.5750   43.6690 C   0  0  0  0  0  0  0  0  0  0  0  0
   52.8360   28.5840   42.8160 C   0  0  0  0  0  0  0  0  0  0  0  0
   54.1370   28.6620   42.3920 C   0  0  0  0  0  0  0  0  0  0  0  0
   54.4880   29.4330   41.7280 H   0  0  0  0  0  0  0  0  0  0  0  0
   55.0530   27.7120   42.8320 C   0  0  0  0  0  0  0  0  0  0  0  0
   56.0750   27.7880   42.4890 H   0  0  0  0  0  0  0  0  0  0  0  0
   54.6350   26.6940   43.6960 C   0  0  0  0  0  0  0  0  0  0  0  0
   55.3480   25.9600   44.0350 H   0  0  0  0  0  0  0  0  0  0  0  0
   53.3310   26.6220   44.1170 C   0  0  0  0  0  0  0  0  0  0  0  0
   52.7540   25.3600   45.2050 Cl  0  0  0  0  0  0  0  0  0  0  0  0
  1  9  1  0  0  0  0
  2  7  1  0  0  0  0
  2  1  2  0  0  0  0
  3  2  1  0  0  0  0
  4  3  2  0  0  0  0
  4  5  1  0  0  0  0
  5  6  2  0  0  0  0
  6  1  1  0  0  0  0
  8  3  1  0  0  0  0
  9 14  1  0  0  0  0
 10 11  1  0  0  0  0
 10  9  1  0  0  0  0
 11 19  1  0  0  0  0
 11 12  1  0  0  0  0
 12 13  1  0  0  0  0
 12 20  1  0  0  0  0
 13 22  1  0  0  0  0
 14 24  1  0  0  0  0
 14 13  1  0  0  0  0
 14 25  1  0  0  0  0
 15  9  1  0  0  0  0
 16 10  1  0  0  0  0
 17 10  1  0  0  0  0
 18 11  1  0  0  0  0
 21 12  1  0  0  0  0
 23 13  1  0  0  0  0
 26  5  1  0  0  0  0
 26 30  2  0  0  0  0
 27 28  2  0  0  0  0
 27 26  1  0  0  0  0
 28 29  1  0  0  0  0
 29 34  1  0  0  0  0
 29 30  1  0  0  0  0
 31 28  1  0  0  0  0
 33 41  1  0  0  0  0
 33 32  1  0  0  0  0
 34 33  2  0  0  0  0
 35 34  1  0  0  0  0
 35 37  2  0  0  0  0
 36 35  1  0  0  0  0
 37 39  1  0  0  0  0
 38 37  1  0  0  0  0
 39 40  1  0  0  0  0
 39 41  2  0  0  0  0
 41 42  1  0  0  0  0
M  END
>  <minimizedAffinity>
-4.26405668

>  <minimizedRMSD>
1.40229356

$$$$
