
 OpenBabel03252507463D

 39 41  0  0  0  0  0  0  0  0999 V2000
   48.5940   33.9920   41.3230 C   0  0  0  0  0  0  0  0  0  0  0  0
   48.9620   32.7430   40.8190 C   0  0  0  0  0  0  0  0  0  0  0  0
   50.1800   32.1730   41.1770 C   0  0  0  0  0  0  0  0  0  0  0  0
   50.9830   32.8740   42.0240 N   0  0  0  0  0  0  0  0  0  0  0  0
   50.5920   34.0850   42.4940 C   0  0  0  0  0  0  0  0  0  0  0  0
   49.4260   34.6060   42.1370 N   0  0  0  0  0  0  0  0  0  0  0  0
   50.4510   31.2070   40.7800 H   0  0  0  0  0  0  0  0  0  0  0  0
   51.2900   34.5840   43.1690 H   0  0  0  0  0  0  0  0  0  0  0  0
   47.2950   34.5220   40.8970 C   0  0  0  0  0  0  0  0  0  0  0  0
   46.7350   33.8380   40.2690 H   0  0  0  0  0  0  0  0  0  0  0  0
   47.5300   35.4070   40.2380 H   0  0  0  0  0  0  0  0  0  0  0  0
   46.4780   35.0670   42.0240 C   0  0  0  0  0  0  0  0  0  0  0  0
   46.7390   34.5320   42.9610 H   0  0  0  0  0  0  0  0  0  0  0  0
   46.6910   36.1430   42.2390 H   0  0  0  0  0  0  0  0  0  0  0  0
   45.0090   34.9980   41.7910 C   0  0  0  0  0  0  0  0  0  0  0  0
   44.1180   35.5380   42.7710 C   0  0  0  0  0  0  0  0  0  0  0  0
   42.4610   35.2160   42.0380 S   0  0  0  0  0  0  0  0  0  0  0  0
   43.2630   34.4000   40.5180 C   0  0  0  0  0  0  0  0  0  0  0  0
   44.3700   34.4920   40.7710 N   0  0  0  0  0  0  0  0  0  0  0  0
   44.3830   36.0140   43.7060 H   0  0  0  0  0  0  0  0  0  0  0  0
   42.5180   33.8800   39.4660 O   0  0  0  0  0  0  0  0  0  0  0  0
   40.5840   34.2100   37.6940 O   0  0  0  0  0  0  0  0  0  0  0  0
   41.6260   34.9650   38.5090 P   0  0  0  0  0  0  0  0  0  0  0  0
   40.8380   36.0470   39.5580 O   0  0  0  0  0  0  0  0  0  0  0  0
   40.2890   35.5640   40.1960 H   0  0  0  0  0  0  0  0  0  0  0  0
   42.6740   35.8490   37.5220 O   0  0  0  0  0  0  0  0  0  0  0  0
   42.9380   35.2870   36.7530 H   0  0  0  0  0  0  0  0  0  0  0  0
   47.8640   31.8540   39.7010 S   0  0  0  0  0  0  0  0  0  0  0  0
   45.7210   31.4470   42.0520 Cl  0  0  0  0  0  0  0  0  0  0  0  0
   46.4930   30.0390   41.3530 C   0  0  0  0  0  0  0  0  0  0  0  0
   47.4090   30.2530   40.3440 C   0  0  0  0  0  0  0  0  0  0  0  0
   48.0440   29.1750   39.7610 C   0  0  0  0  0  0  0  0  0  0  0  0
   48.7690   29.2300   38.9750 H   0  0  0  0  0  0  0  0  0  0  0  0
   47.7930   27.8830   40.1550 C   0  0  0  0  0  0  0  0  0  0  0  0
   48.2680   26.9990   39.7250 H   0  0  0  0  0  0  0  0  0  0  0  0
   46.8680   27.6490   41.1750 C   0  0  0  0  0  0  0  0  0  0  0  0
   46.6240   26.6370   41.5330 H   0  0  0  0  0  0  0  0  0  0  0  0
   46.2480   28.7410   41.7410 C   0  0  0  0  0  0  0  0  0  0  0  0
   45.0860   28.4830   43.0180 Cl  0  0  0  0  0  0  0  0  0  0  0  0
  1  6  1  0  0  0  0
  2  3  1  0  0  0  0
  2  1  2  0  0  0  0
  3  4  2  0  0  0  0
  4  5  1  0  0  0  0
  5  8  1  0  0  0  0
  6  5  2  0  0  0  0
  7  3  1  0  0  0  0
  9  1  1  0  0  0  0
  9 12  1  0  0  0  0
 10  9  1  0  0  0  0
 11  9  1  0  0  0  0
 12 14  1  0  0  0  0
 12 13  1  0  0  0  0
 15 12  1  0  0  0  0
 15 16  2  0  0  0  0
 16 20  1  0  0  0  0
 17 16  1  0  0  0  0
 18 19  2  0  0  0  0
 18 17  1  0  0  0  0
 19 15  1  0  0  0  0
 21 18  1  0  0  0  0
 22 23  2  0  0  0  0
 23 21  1  0  0  0  0
 23 24  1  0  0  0  0
 24 25  1  0  0  0  0
 26 23  1  0  0  0  0
 27 26  1  0  0  0  0
 28 31  1  0  0  0  0
 28  2  1  0  0  0  0
 30 38  1  0  0  0  0
 30 29  1  0  0  0  0
 31 30  2  0  0  0  0
 32 34  2  0  0  0  0
 32 31  1  0  0  0  0
 33 32  1  0  0  0  0
 34 36  1  0  0  0  0
 35 34  1  0  0  0  0
 36 37  1  0  0  0  0
 36 38  2  0  0  0  0
 38 39  1  0  0  0  0
M  END
>  <minimizedAffinity>
-4.31420374

>  <minimizedRMSD>
0.827971339

$$$$
