
 OpenBabel03242517433D

 21 22  0  0  0  0  0  0  0  0999 V2000
   43.1390   33.6030   38.3480 Cl  0  0  0  0  0  0  0  0  0  0  0  0
   42.1550   34.5100   39.4850 C   0  0  0  0  0  0  0  0  0  0  0  0
   42.6450   34.9710   40.6930 C   0  0  0  0  0  0  0  0  0  0  0  0
   41.7930   35.6840   41.5370 C   0  0  0  0  0  0  0  0  0  0  0  0
   42.2300   36.0250   42.4790 H   0  0  0  0  0  0  0  0  0  0  0  0
   40.4830   35.9270   41.1750 C   0  0  0  0  0  0  0  0  0  0  0  0
   39.8700   36.4910   41.8820 H   0  0  0  0  0  0  0  0  0  0  0  0
   39.9820   35.4700   39.9670 C   0  0  0  0  0  0  0  0  0  0  0  0
   38.9470   35.6910   39.7370 H   0  0  0  0  0  0  0  0  0  0  0  0
   40.8360   34.7660   39.1410 C   0  0  0  0  0  0  0  0  0  0  0  0
   40.1170   34.2280   37.6370 Cl  0  0  0  0  0  0  0  0  0  0  0  0
   44.3530   34.5920   41.0470 S   0  0  0  0  0  0  0  0  0  0  0  0
   44.4430   35.7550   43.5730 C   0  0  0  0  0  0  0  0  0  0  0  0
   44.6630   34.5790   42.8080 C   0  0  0  0  0  0  0  0  0  0  0  0
   45.1170   33.4450   43.4670 C   0  0  0  0  0  0  0  0  0  0  0  0
   45.3350   33.4950   44.8070 N   0  0  0  0  0  0  0  0  0  0  0  0
   45.1150   34.6350   45.5050 C   0  0  0  0  0  0  0  0  0  0  0  0
   44.6790   35.7420   44.9020 N   0  0  0  0  0  0  0  0  0  0  0  0
   44.0940   36.6190   43.0440 H   0  0  0  0  0  0  0  0  0  0  0  0
   45.2850   32.5510   42.8900 H   0  0  0  0  0  0  0  0  0  0  0  0
   45.3250   34.5360   46.5470 H   0  0  0  0  0  0  0  0  0  0  0  0
  1  2  1  0  0  0  0
  2  3  1  0  0  0  0
  3 12  1  0  0  0  0
  3  4  2  0  0  0  0
  4  5  1  0  0  0  0
  6  4  1  0  0  0  0
  6  7  1  0  0  0  0
  8  6  2  0  0  0  0
  9  8  1  0  0  0  0
 10  2  2  0  0  0  0
 10  8  1  0  0  0  0
 11 10  1  0  0  0  0
 12 14  1  0  0  0  0
 13 18  1  0  0  0  0
 14 15  1  0  0  0  0
 14 13  2  0  0  0  0
 15 16  2  0  0  0  0
 16 17  1  0  0  0  0
 17 21  1  0  0  0  0
 18 17  2  0  0  0  0
 19 13  1  0  0  0  0
 20 15  1  0  0  0  0
M  END
>  <minimizedAffinity>
-4.76339531

>  <minimizedRMSD>
0.972769618

$$$$
