
 OpenBabel03242521193D

 40 42  0  0  0  0  0  0  0  0999 V2000
   37.2170   31.8490   39.5700 C   0  0  0  0  0  0  0  0  0  0  0  0
   36.6060   32.7320   39.2380 H   0  0  0  0  0  0  0  0  0  0  0  0
   37.2250   31.8910   40.6710 H   0  0  0  0  0  0  0  0  0  0  0  0
   40.2680   31.9610   37.4040 C   0  0  0  0  0  0  0  0  0  0  0  0
   41.1480   32.6810   38.2410 C   0  0  0  0  0  0  0  0  0  0  0  0
   40.6520   33.0740   39.4690 C   0  0  0  0  0  0  0  0  0  0  0  0
   39.3510   32.7580   39.8200 N   0  0  0  0  0  0  0  0  0  0  0  0
   38.5630   32.0650   38.9680 C   0  0  0  0  0  0  0  0  0  0  0  0
   39.0040   31.6590   37.7570 N   0  0  0  0  0  0  0  0  0  0  0  0
   40.6170   31.6340   36.4340 H   0  0  0  0  0  0  0  0  0  0  0  0
   42.1420   32.9070   37.9400 H   0  0  0  0  0  0  0  0  0  0  0  0
   41.5160   33.8020   40.3370 N   0  0  0  0  0  0  0  0  0  0  0  0
   42.4380   33.1110   41.0470 C   0  0  0  0  0  0  0  0  0  0  0  0
   43.2850   33.8110   41.8970 C   0  0  0  0  0  0  0  0  0  0  0  0
   43.1540   35.1620   41.9830 C   0  0  0  0  0  0  0  0  0  0  0  0
   43.9440   35.7780   42.7700 O   0  0  0  0  0  0  0  0  0  0  0  0
   42.2440   35.8490   41.2840 N   0  0  0  0  0  0  0  0  0  0  0  0
   41.4410   35.1270   40.4700 C   0  0  0  0  0  0  0  0  0  0  0  0
   40.5590   35.6820   39.7760 O   0  0  0  0  0  0  0  0  0  0  0  0
   42.5480   32.0340   40.9830 H   0  0  0  0  0  0  0  0  0  0  0  0
   44.0290   33.2940   42.4750 H   0  0  0  0  0  0  0  0  0  0  0  0
   42.1290   36.8800   41.3370 H   0  0  0  0  0  0  0  0  0  0  0  0
   36.5770   30.5940   39.0150 C   0  0  0  0  0  0  0  0  0  0  0  0
   35.5130   30.5640   39.2500 H   0  0  0  0  0  0  0  0  0  0  0  0
   36.7500   30.5690   37.9010 H   0  0  0  0  0  0  0  0  0  0  0  0
   36.6300   28.6730   40.5150 C   0  0  0  0  0  0  0  0  0  0  0  0
   35.5340   29.0710   40.9580 O   0  0  0  0  0  0  0  0  0  0  0  0
   37.2730   29.4490   39.5480 N   0  0  0  0  0  0  0  0  0  0  0  0
   38.2330   29.1890   39.2360 H   0  0  0  0  0  0  0  0  0  0  0  0
   38.3930   29.0780   42.8610 Cl  0  0  0  0  0  0  0  0  0  0  0  0
   38.0040   27.5170   42.1440 C   0  0  0  0  0  0  0  0  0  0  0  0
   37.1630   27.4190   41.0380 C   0  0  0  0  0  0  0  0  0  0  0  0
   36.8850   26.1770   40.5090 C   0  0  0  0  0  0  0  0  0  0  0  0
   36.2310   26.1150   39.6510 H   0  0  0  0  0  0  0  0  0  0  0  0
   37.4560   25.0760   41.1050 C   0  0  0  0  0  0  0  0  0  0  0  0
   37.2070   24.1090   40.6520 H   0  0  0  0  0  0  0  0  0  0  0  0
   38.2950   25.1050   42.1990 C   0  0  0  0  0  0  0  0  0  0  0  0
   38.7250   24.2130   42.6360 H   0  0  0  0  0  0  0  0  0  0  0  0
   38.5540   26.3810   42.7080 C   0  0  0  0  0  0  0  0  0  0  0  0
   39.6150   26.5380   44.1060 Cl  0  0  0  0  0  0  0  0  0  0  0  0
  1  3  1  0  0  0  0
  2  1  1  0  0  0  0
  4  9  2  0  0  0  0
  4  5  1  0  0  0  0
  5  6  2  0  0  0  0
  6  7  1  0  0  0  0
  6 12  1  0  0  0  0
  8  1  1  0  0  0  0
  8  7  2  0  0  0  0
  9  8  1  0  0  0  0
 10  4  1  0  0  0  0
 11  5  1  0  0  0  0
 12 18  1  0  0  0  0
 12 13  1  0  0  0  0
 13 14  2  0  0  0  0
 14 15  1  0  0  0  0
 14 21  1  0  0  0  0
 15 16  2  0  0  0  0
 17 22  1  0  0  0  0
 17 15  1  0  0  0  0
 18 17  1  0  0  0  0
 19 18  2  0  0  0  0
 20 13  1  0  0  0  0
 23 24  1  0  0  0  0
 23 28  1  0  0  0  0
 23  1  1  0  0  0  0
 25 23  1  0  0  0  0
 26 27  2  0  0  0  0
 26 32  1  0  0  0  0
 28 26  1  0  0  0  0
 29 28  1  0  0  0  0
 31 39  1  0  0  0  0
 31 30  1  0  0  0  0
 32 31  2  0  0  0  0
 33 32  1  0  0  0  0
 33 35  2  0  0  0  0
 34 33  1  0  0  0  0
 35 37  1  0  0  0  0
 36 35  1  0  0  0  0
 37 38  1  0  0  0  0
 37 39  2  0  0  0  0
 39 40  1  0  0  0  0
M  END
>  <minimizedAffinity>
-6.56737041

$$$$

 OpenBabel03242521193D

 40 42  0  0  0  0  0  0  0  0999 V2000
   36.8930   31.6210   40.6670 C   0  0  0  0  0  0  0  0  0  0  0  0
   36.0490   32.1330   40.1310 H   0  0  0  0  0  0  0  0  0  0  0  0
   36.9630   32.1130   41.6500 H   0  0  0  0  0  0  0  0  0  0  0  0
   39.4650   31.7470   37.9500 C   0  0  0  0  0  0  0  0  0  0  0  0
   40.4640   32.5190   38.5800 C   0  0  0  0  0  0  0  0  0  0  0  0
   40.2000   32.9400   39.8690 C   0  0  0  0  0  0  0  0  0  0  0  0
   39.0020   32.5990   40.4740 N   0  0  0  0  0  0  0  0  0  0  0  0
   38.0890   31.8550   39.8110 C   0  0  0  0  0  0  0  0  0  0  0  0
   38.3030   31.4200   38.5490 N   0  0  0  0  0  0  0  0  0  0  0  0
   39.6320   31.3970   36.9390 H   0  0  0  0  0  0  0  0  0  0  0  0
   41.3720   32.7640   38.0860 H   0  0  0  0  0  0  0  0  0  0  0  0
   41.1880   33.7210   40.5340 N   0  0  0  0  0  0  0  0  0  0  0  0
   42.2270   33.0780   41.1160 C   0  0  0  0  0  0  0  0  0  0  0  0
   43.1960   33.8300   41.7660 C   0  0  0  0  0  0  0  0  0  0  0  0
   43.0650   35.1840   41.7940 C   0  0  0  0  0  0  0  0  0  0  0  0
   43.9680   35.8490   42.3970 O   0  0  0  0  0  0  0  0  0  0  0  0
   42.0390   35.8240   41.2200 N   0  0  0  0  0  0  0  0  0  0  0  0
   41.1190   35.0520   40.5990 C   0  0  0  0  0  0  0  0  0  0  0  0
   40.1250   35.5610   40.0340 O   0  0  0  0  0  0  0  0  0  0  0  0
   42.3390   31.9990   41.0970 H   0  0  0  0  0  0  0  0  0  0  0  0
   44.0350   33.3510   42.2380 H   0  0  0  0  0  0  0  0  0  0  0  0
   41.9210   36.8560   41.2310 H   0  0  0  0  0  0  0  0  0  0  0  0
   36.5740   30.1430   40.7510 C   0  0  0  0  0  0  0  0  0  0  0  0
   35.8400   29.9480   41.5310 H   0  0  0  0  0  0  0  0  0  0  0  0
   36.2000   29.8020   39.7430 H   0  0  0  0  0  0  0  0  0  0  0  0
   38.0960   29.0110   42.2820 C   0  0  0  0  0  0  0  0  0  0  0  0
   37.3460   29.3910   43.2050 O   0  0  0  0  0  0  0  0  0  0  0  0
   37.8010   29.4210   40.9800 N   0  0  0  0  0  0  0  0  0  0  0  0
   38.4670   29.1990   40.2090 H   0  0  0  0  0  0  0  0  0  0  0  0
   37.3650   26.1450   42.4440 Cl  0  0  0  0  0  0  0  0  0  0  0  0
   38.9750   26.7970   42.7290 C   0  0  0  0  0  0  0  0  0  0  0  0
   39.2310   28.1630   42.6320 C   0  0  0  0  0  0  0  0  0  0  0  0
   40.5070   28.6300   42.8630 C   0  0  0  0  0  0  0  0  0  0  0  0
   40.6910   29.6910   42.7840 H   0  0  0  0  0  0  0  0  0  0  0  0
   41.4840   27.7150   43.1840 C   0  0  0  0  0  0  0  0  0  0  0  0
   42.4830   28.1300   43.3580 H   0  0  0  0  0  0  0  0  0  0  0  0
   41.2970   26.3530   43.2960 C   0  0  0  0  0  0  0  0  0  0  0  0
   42.0950   25.6680   43.5520 H   0  0  0  0  0  0  0  0  0  0  0  0
   39.9910   25.9170   43.0550 C   0  0  0  0  0  0  0  0  0  0  0  0
   39.6370   24.1950   43.1710 Cl  0  0  0  0  0  0  0  0  0  0  0  0
  1 23  1  0  0  0  0
  1  3  1  0  0  0  0
  2  1  1  0  0  0  0
  4  9  2  0  0  0  0
  4  5  1  0  0  0  0
  5  6  2  0  0  0  0
  6  7  1  0  0  0  0
  6 12  1  0  0  0  0
  8  7  2  0  0  0  0
  8  1  1  0  0  0  0
  9  8  1  0  0  0  0
 10  4  1  0  0  0  0
 11  5  1  0  0  0  0
 12 18  1  0  0  0  0
 12 13  1  0  0  0  0
 13 14  2  0  0  0  0
 14 15  1  0  0  0  0
 14 21  1  0  0  0  0
 15 16  2  0  0  0  0
 17 22  1  0  0  0  0
 17 15  1  0  0  0  0
 18 17  1  0  0  0  0
 19 18  2  0  0  0  0
 20 13  1  0  0  0  0
 23 28  1  0  0  0  0
 23 24  1  0  0  0  0
 25 23  1  0  0  0  0
 26 32  1  0  0  0  0
 26 27  2  0  0  0  0
 28 26  1  0  0  0  0
 29 28  1  0  0  0  0
 30 31  1  0  0  0  0
 31 39  1  0  0  0  0
 32 31  2  0  0  0  0
 32 33  1  0  0  0  0
 33 35  2  0  0  0  0
 34 33  1  0  0  0  0
 35 37  1  0  0  0  0
 35 36  1  0  0  0  0
 37 38  1  0  0  0  0
 39 40  1  0  0  0  0
 39 37  2  0  0  0  0
M  END
>  <minimizedAffinity>
-6.33064127

$$$$

 OpenBabel03242521193D

 40 42  0  0  0  0  0  0  0  0999 V2000
   37.0520   27.7390   39.8110 C   0  0  0  0  0  0  0  0  0  0  0  0
   36.4880   26.7990   39.5640 H   0  0  0  0  0  0  0  0  0  0  0  0
   37.9440   27.7270   39.1640 H   0  0  0  0  0  0  0  0  0  0  0  0
   37.0810   27.7180   43.5540 C   0  0  0  0  0  0  0  0  0  0  0  0
   38.3940   27.2620   43.7970 C   0  0  0  0  0  0  0  0  0  0  0  0
   39.1720   26.9950   42.6860 C   0  0  0  0  0  0  0  0  0  0  0  0
   38.6490   27.1800   41.4170 N   0  0  0  0  0  0  0  0  0  0  0  0
   37.3810   27.6200   41.2590 C   0  0  0  0  0  0  0  0  0  0  0  0
   36.5820   27.8950   42.3150 N   0  0  0  0  0  0  0  0  0  0  0  0
   36.4380   27.9380   44.3960 H   0  0  0  0  0  0  0  0  0  0  0  0
   38.7640   27.1310   44.7830 H   0  0  0  0  0  0  0  0  0  0  0  0
   40.5030   26.5340   42.8960 N   0  0  0  0  0  0  0  0  0  0  0  0
   41.4680   27.4520   43.1330 C   0  0  0  0  0  0  0  0  0  0  0  0
   42.7690   27.0120   43.3400 C   0  0  0  0  0  0  0  0  0  0  0  0
   43.0230   25.6770   43.2960 C   0  0  0  0  0  0  0  0  0  0  0  0
   44.2250   25.3020   43.4880 O   0  0  0  0  0  0  0  0  0  0  0  0
   42.0720   24.7660   43.0610 N   0  0  0  0  0  0  0  0  0  0  0  0
   40.8200   25.2390   42.8650 C   0  0  0  0  0  0  0  0  0  0  0  0
   39.8650   24.4620   42.6390 O   0  0  0  0  0  0  0  0  0  0  0  0
   41.2730   28.5180   43.1710 H   0  0  0  0  0  0  0  0  0  0  0  0
   43.5600   27.7150   43.5320 H   0  0  0  0  0  0  0  0  0  0  0  0
   42.2470   23.7420   43.0230 H   0  0  0  0  0  0  0  0  0  0  0  0
   36.1390   28.9200   39.5630 C   0  0  0  0  0  0  0  0  0  0  0  0
   35.4650   28.7220   38.7300 H   0  0  0  0  0  0  0  0  0  0  0  0
   35.5650   29.1310   40.5110 H   0  0  0  0  0  0  0  0  0  0  0  0
   36.9310   31.1130   40.2740 C   0  0  0  0  0  0  0  0  0  0  0  0
   36.1230   31.0260   41.2210 O   0  0  0  0  0  0  0  0  0  0  0  0
   36.9510   30.0880   39.3260 N   0  0  0  0  0  0  0  0  0  0  0  0
   37.5460   30.1860   38.4760 H   0  0  0  0  0  0  0  0  0  0  0  0
   39.6880   30.5200   41.1810 Cl  0  0  0  0  0  0  0  0  0  0  0  0
   39.1180   32.0940   40.6360 C   0  0  0  0  0  0  0  0  0  0  0  0
   37.8010   32.2840   40.2250 C   0  0  0  0  0  0  0  0  0  0  0  0
   37.3970   33.5340   39.8060 C   0  0  0  0  0  0  0  0  0  0  0  0
   36.3730   33.6670   39.4910 H   0  0  0  0  0  0  0  0  0  0  0  0
   38.3250   34.5500   39.8120 C   0  0  0  0  0  0  0  0  0  0  0  0
   37.9610   35.5260   39.4690 H   0  0  0  0  0  0  0  0  0  0  0  0
   39.6410   34.4280   40.2050 C   0  0  0  0  0  0  0  0  0  0  0  0
   40.3390   35.2560   40.1940 H   0  0  0  0  0  0  0  0  0  0  0  0
   40.0140   33.1470   40.6230 C   0  0  0  0  0  0  0  0  0  0  0  0
   41.6740   32.8750   41.1480 Cl  0  0  0  0  0  0  0  0  0  0  0  0
  1  8  1  0  0  0  0
  2  1  1  0  0  0  0
  3  1  1  0  0  0  0
  4  5  1  0  0  0  0
  4 10  1  0  0  0  0
  5 11  1  0  0  0  0
  6 12  1  0  0  0  0
  6  5  2  0  0  0  0
  7  6  1  0  0  0  0
  8  7  2  0  0  0  0
  8  9  1  0  0  0  0
  9  4  2  0  0  0  0
 12 13  1  0  0  0  0
 13 20  1  0  0  0  0
 13 14  2  0  0  0  0
 14 21  1  0  0  0  0
 15 14  1  0  0  0  0
 15 16  2  0  0  0  0
 17 15  1  0  0  0  0
 18 12  1  0  0  0  0
 18 17  1  0  0  0  0
 19 18  2  0  0  0  0
 22 17  1  0  0  0  0
 23  1  1  0  0  0  0
 23 25  1  0  0  0  0
 24 23  1  0  0  0  0
 26 27  2  0  0  0  0
 28 23  1  0  0  0  0
 28 26  1  0  0  0  0
 29 28  1  0  0  0  0
 31 30  1  0  0  0  0
 32 26  1  0  0  0  0
 32 31  2  0  0  0  0
 33 35  2  0  0  0  0
 33 32  1  0  0  0  0
 34 33  1  0  0  0  0
 35 37  1  0  0  0  0
 36 35  1  0  0  0  0
 37 39  2  0  0  0  0
 38 37  1  0  0  0  0
 39 31  1  0  0  0  0
 39 40  1  0  0  0  0
M  END
>  <minimizedAffinity>
-6.23387289

$$$$

 OpenBabel03242521193D

 40 42  0  0  0  0  0  0  0  0999 V2000
   39.9840   28.4550   37.3760 C   0  0  0  0  0  0  0  0  0  0  0  0
   39.8020   28.2570   36.2850 H   0  0  0  0  0  0  0  0  0  0  0  0
   40.2830   27.4860   37.8070 H   0  0  0  0  0  0  0  0  0  0  0  0
   36.5950   29.9590   37.8900 C   0  0  0  0  0  0  0  0  0  0  0  0
   36.4040   29.6960   39.2630 C   0  0  0  0  0  0  0  0  0  0  0  0
   37.4280   29.0320   39.9140 C   0  0  0  0  0  0  0  0  0  0  0  0
   38.5650   28.6640   39.2150 N   0  0  0  0  0  0  0  0  0  0  0  0
   38.6800   28.9490   37.8990 C   0  0  0  0  0  0  0  0  0  0  0  0
   37.7060   29.5960   37.2200 N   0  0  0  0  0  0  0  0  0  0  0  0
   35.8180   30.4770   37.3430 H   0  0  0  0  0  0  0  0  0  0  0  0
   35.5190   29.9920   39.7700 H   0  0  0  0  0  0  0  0  0  0  0  0
   37.2670   28.7520   41.3010 N   0  0  0  0  0  0  0  0  0  0  0  0
   36.6640   27.5920   41.6530 C   0  0  0  0  0  0  0  0  0  0  0  0
   36.5030   27.3090   43.0030 C   0  0  0  0  0  0  0  0  0  0  0  0
   36.9560   28.2060   43.9190 C   0  0  0  0  0  0  0  0  0  0  0  0
   36.7950   27.9210   45.1490 O   0  0  0  0  0  0  0  0  0  0  0  0
   37.5530   29.3540   43.5750 N   0  0  0  0  0  0  0  0  0  0  0  0
   37.6880   29.5880   42.2500 C   0  0  0  0  0  0  0  0  0  0  0  0
   38.2340   30.6350   41.8330 O   0  0  0  0  0  0  0  0  0  0  0  0
   36.3010   26.8720   40.9290 H   0  0  0  0  0  0  0  0  0  0  0  0
   36.0280   26.3970   43.3170 H   0  0  0  0  0  0  0  0  0  0  0  0
   37.9050   30.0510   44.2600 H   0  0  0  0  0  0  0  0  0  0  0  0
   41.0490   29.5250   37.4920 C   0  0  0  0  0  0  0  0  0  0  0  0
   42.0170   29.0850   37.7300 H   0  0  0  0  0  0  0  0  0  0  0  0
   41.0870   30.0950   36.5200 H   0  0  0  0  0  0  0  0  0  0  0  0
   40.3850   31.7920   38.0910 C   0  0  0  0  0  0  0  0  0  0  0  0
   40.6450   32.1100   36.9130 O   0  0  0  0  0  0  0  0  0  0  0  0
   40.6350   30.4780   38.4920 N   0  0  0  0  0  0  0  0  0  0  0  0
   40.5200   30.2160   39.4940 H   0  0  0  0  0  0  0  0  0  0  0  0
   42.4740   33.5830   39.1910 Cl  0  0  0  0  0  0  0  0  0  0  0  0
   40.7510   33.7080   39.5310 C   0  0  0  0  0  0  0  0  0  0  0  0
   39.8360   32.8210   38.9700 C   0  0  0  0  0  0  0  0  0  0  0  0
   38.4960   32.9550   39.2630 C   0  0  0  0  0  0  0  0  0  0  0  0
   37.7970   32.2600   38.8210 H   0  0  0  0  0  0  0  0  0  0  0  0
   38.1170   33.9730   40.1090 C   0  0  0  0  0  0  0  0  0  0  0  0
   37.0420   34.0430   40.3140 H   0  0  0  0  0  0  0  0  0  0  0  0
   38.9710   34.8830   40.6960 C   0  0  0  0  0  0  0  0  0  0  0  0
   38.6290   35.6690   41.3580 H   0  0  0  0  0  0  0  0  0  0  0  0
   40.3210   34.7150   40.3750 C   0  0  0  0  0  0  0  0  0  0  0  0
   41.5020   35.8220   41.0710 Cl  0  0  0  0  0  0  0  0  0  0  0  0
  1 23  1  0  0  0  0
  1  3  1  0  0  0  0
  1  8  1  0  0  0  0
  2  1  1  0  0  0  0
  4  5  1  0  0  0  0
  5 11  1  0  0  0  0
  5  6  2  0  0  0  0
  6 12  1  0  0  0  0
  7  6  1  0  0  0  0
  8  7  2  0  0  0  0
  9  4  2  0  0  0  0
  9  8  1  0  0  0  0
 10  4  1  0  0  0  0
 12 13  1  0  0  0  0
 12 18  1  0  0  0  0
 13 14  2  0  0  0  0
 14 21  1  0  0  0  0
 14 15  1  0  0  0  0
 15 16  2  0  0  0  0
 17 15  1  0  0  0  0
 17 22  1  0  0  0  0
 18 17  1  0  0  0  0
 19 18  2  0  0  0  0
 20 13  1  0  0  0  0
 23 24  1  0  0  0  0
 23 28  1  0  0  0  0
 25 23  1  0  0  0  0
 26 28  1  0  0  0  0
 26 32  1  0  0  0  0
 27 26  2  0  0  0  0
 28 29  1  0  0  0  0
 30 31  1  0  0  0  0
 31 39  1  0  0  0  0
 32 33  1  0  0  0  0
 32 31  2  0  0  0  0
 33 35  2  0  0  0  0
 34 33  1  0  0  0  0
 35 36  1  0  0  0  0
 35 37  1  0  0  0  0
 37 38  1  0  0  0  0
 39 37  2  0  0  0  0
 39 40  1  0  0  0  0
M  END
>  <minimizedAffinity>
-6.21500015

$$$$

 OpenBabel03242521193D

 40 42  0  0  0  0  0  0  0  0999 V2000
   38.3910   31.1310   37.2460 C   0  0  0  0  0  0  0  0  0  0  0  0
   39.4650   30.8050   37.1820 H   0  0  0  0  0  0  0  0  0  0  0  0
   38.1620   31.5900   36.2710 H   0  0  0  0  0  0  0  0  0  0  0  0
   37.4530   33.5510   39.9420 C   0  0  0  0  0  0  0  0  0  0  0  0
   38.7270   33.8610   40.4620 C   0  0  0  0  0  0  0  0  0  0  0  0
   39.8070   33.2340   39.8690 C   0  0  0  0  0  0  0  0  0  0  0  0
   39.6020   32.3540   38.8200 N   0  0  0  0  0  0  0  0  0  0  0  0
   38.3520   32.1040   38.3730 C   0  0  0  0  0  0  0  0  0  0  0  0
   37.2650   32.6930   38.9210 N   0  0  0  0  0  0  0  0  0  0  0  0
   36.5810   34.0210   40.3780 H   0  0  0  0  0  0  0  0  0  0  0  0
   38.8500   34.5410   41.2690 H   0  0  0  0  0  0  0  0  0  0  0  0
   41.1080   33.5250   40.3700 N   0  0  0  0  0  0  0  0  0  0  0  0
   41.6770   32.6420   41.2230 C   0  0  0  0  0  0  0  0  0  0  0  0
   42.9460   32.9160   41.7170 C   0  0  0  0  0  0  0  0  0  0  0  0
   43.5670   34.0610   41.3260 C   0  0  0  0  0  0  0  0  0  0  0  0
   44.7290   34.2880   41.7950 O   0  0  0  0  0  0  0  0  0  0  0  0
   43.0080   34.9380   40.4840 N   0  0  0  0  0  0  0  0  0  0  0  0
   41.7720   34.6300   40.0280 C   0  0  0  0  0  0  0  0  0  0  0  0
   41.1700   35.3890   39.2350 O   0  0  0  0  0  0  0  0  0  0  0  0
   41.1890   31.7270   41.5390 H   0  0  0  0  0  0  0  0  0  0  0  0
   43.4270   32.2360   42.3960 H   0  0  0  0  0  0  0  0  0  0  0  0
   43.4660   35.8170   40.1740 H   0  0  0  0  0  0  0  0  0  0  0  0
   37.5450   29.9150   37.5570 C   0  0  0  0  0  0  0  0  0  0  0  0
   36.4840   30.1480   37.4720 H   0  0  0  0  0  0  0  0  0  0  0  0
   37.8390   29.0860   36.8500 H   0  0  0  0  0  0  0  0  0  0  0  0
   36.8500   29.2300   39.7910 C   0  0  0  0  0  0  0  0  0  0  0  0
   35.6940   29.5680   39.4640 O   0  0  0  0  0  0  0  0  0  0  0  0
   37.8850   29.4440   38.8770 N   0  0  0  0  0  0  0  0  0  0  0  0
   38.8700   29.2620   39.1640 H   0  0  0  0  0  0  0  0  0  0  0  0
   36.5180   26.2870   39.7630 Cl  0  0  0  0  0  0  0  0  0  0  0  0
   36.9010   27.2490   41.1870 C   0  0  0  0  0  0  0  0  0  0  0  0
   37.0390   28.6330   41.1090 C   0  0  0  0  0  0  0  0  0  0  0  0
   37.3400   29.3470   42.2490 C   0  0  0  0  0  0  0  0  0  0  0  0
   37.4440   30.4190   42.1740 H   0  0  0  0  0  0  0  0  0  0  0  0
   37.4910   28.6530   43.4270 C   0  0  0  0  0  0  0  0  0  0  0  0
   37.7310   29.2610   44.3080 H   0  0  0  0  0  0  0  0  0  0  0  0
   37.3680   27.2870   43.5710 C   0  0  0  0  0  0  0  0  0  0  0  0
   37.4950   26.7800   44.5200 H   0  0  0  0  0  0  0  0  0  0  0  0
   37.0630   26.5960   42.3950 C   0  0  0  0  0  0  0  0  0  0  0  0
   36.8810   24.8450   42.4620 Cl  0  0  0  0  0  0  0  0  0  0  0  0
  1 23  1  0  0  0  0
  1  8  1  0  0  0  0
  2  1  1  0  0  0  0
  3  1  1  0  0  0  0
  4 10  1  0  0  0  0
  4  5  1  0  0  0  0
  5 11  1  0  0  0  0
  6 12  1  0  0  0  0
  6  5  2  0  0  0  0
  7  6  1  0  0  0  0
  8  7  2  0  0  0  0
  8  9  1  0  0  0  0
  9  4  2  0  0  0  0
 12 13  1  0  0  0  0
 13 20  1  0  0  0  0
 13 14  2  0  0  0  0
 14 21  1  0  0  0  0
 15 14  1  0  0  0  0
 15 16  2  0  0  0  0
 17 15  1  0  0  0  0
 18 12  1  0  0  0  0
 18 17  1  0  0  0  0
 19 18  2  0  0  0  0
 22 17  1  0  0  0  0
 23 28  1  0  0  0  0
 24 23  1  0  0  0  0
 25 23  1  0  0  0  0
 26 32  1  0  0  0  0
 27 26  2  0  0  0  0
 28 29  1  0  0  0  0
 28 26  1  0  0  0  0
 30 31  1  0  0  0  0
 31 39  1  0  0  0  0
 32 31  2  0  0  0  0
 32 33  1  0  0  0  0
 33 35  2  0  0  0  0
 34 33  1  0  0  0  0
 35 37  1  0  0  0  0
 35 36  1  0  0  0  0
 37 38  1  0  0  0  0
 39 40  1  0  0  0  0
 39 37  2  0  0  0  0
M  END
>  <minimizedAffinity>
-6.21167564

$$$$

 OpenBabel03242521193D

 40 42  0  0  0  0  0  0  0  0999 V2000
   35.8250   30.2340   40.7480 C   0  0  0  0  0  0  0  0  0  0  0  0
   34.8030   30.5210   40.3800 H   0  0  0  0  0  0  0  0  0  0  0  0
   35.9580   30.7710   41.7000 H   0  0  0  0  0  0  0  0  0  0  0  0
   37.6620   30.9390   37.5640 C   0  0  0  0  0  0  0  0  0  0  0  0
   38.7080   31.7540   38.0470 C   0  0  0  0  0  0  0  0  0  0  0  0
   38.7190   32.0050   39.4070 C   0  0  0  0  0  0  0  0  0  0  0  0
   37.7330   31.4660   40.2150 N   0  0  0  0  0  0  0  0  0  0  0  0
   36.7600   30.6930   39.6830 C   0  0  0  0  0  0  0  0  0  0  0  0
   36.7080   30.4190   38.3600 N   0  0  0  0  0  0  0  0  0  0  0  0
   37.6170   30.7180   36.5050 H   0  0  0  0  0  0  0  0  0  0  0  0
   39.4490   32.1520   37.3990 H   0  0  0  0  0  0  0  0  0  0  0  0
   39.7610   32.8230   39.9270 N   0  0  0  0  0  0  0  0  0  0  0  0
   40.9950   32.2820   40.0550 C   0  0  0  0  0  0  0  0  0  0  0  0
   42.0190   33.0720   40.5620 C   0  0  0  0  0  0  0  0  0  0  0  0
   41.7430   34.3570   40.9110 C   0  0  0  0  0  0  0  0  0  0  0  0
   42.7010   35.0580   41.3720 O   0  0  0  0  0  0  0  0  0  0  0  0
   40.5250   34.8960   40.7860 N   0  0  0  0  0  0  0  0  0  0  0  0
   39.5590   34.0910   40.2890 C   0  0  0  0  0  0  0  0  0  0  0  0
   38.3880   34.5070   40.1370 O   0  0  0  0  0  0  0  0  0  0  0  0
   41.2230   31.2590   39.7780 H   0  0  0  0  0  0  0  0  0  0  0  0
   43.0120   32.6740   40.6760 H   0  0  0  0  0  0  0  0  0  0  0  0
   40.2950   35.8750   41.0480 H   0  0  0  0  0  0  0  0  0  0  0  0
   35.8710   28.7270   40.8900 C   0  0  0  0  0  0  0  0  0  0  0  0
   35.1920   28.3890   41.6710 H   0  0  0  0  0  0  0  0  0  0  0  0
   35.6090   28.2680   39.8930 H   0  0  0  0  0  0  0  0  0  0  0  0
   37.5690   27.9610   42.4620 C   0  0  0  0  0  0  0  0  0  0  0  0
   36.7100   28.0980   43.3560 O   0  0  0  0  0  0  0  0  0  0  0  0
   37.2330   28.3330   41.1590 N   0  0  0  0  0  0  0  0  0  0  0  0
   37.9630   28.3200   40.4150 H   0  0  0  0  0  0  0  0  0  0  0  0
   39.6640   30.0470   42.6530 Cl  0  0  0  0  0  0  0  0  0  0  0  0
   39.9140   28.3310   42.9560 C   0  0  0  0  0  0  0  0  0  0  0  0
   38.8690   27.4160   42.8420 C   0  0  0  0  0  0  0  0  0  0  0  0
   39.1100   26.0820   43.0890 C   0  0  0  0  0  0  0  0  0  0  0  0
   38.2910   25.3840   42.9970 H   0  0  0  0  0  0  0  0  0  0  0  0
   40.3860   25.7080   43.4400 C   0  0  0  0  0  0  0  0  0  0  0  0
   40.5320   24.6370   43.6280 H   0  0  0  0  0  0  0  0  0  0  0  0
   41.4620   26.5610   43.5700 C   0  0  0  0  0  0  0  0  0  0  0  0
   42.4520   26.2230   43.8490 H   0  0  0  0  0  0  0  0  0  0  0  0
   41.1800   27.9060   43.3130 C   0  0  0  0  0  0  0  0  0  0  0  0
   42.4810   29.0860   43.4480 Cl  0  0  0  0  0  0  0  0  0  0  0  0
  1 23  1  0  0  0  0
  1  3  1  0  0  0  0
  2  1  1  0  0  0  0
  4  5  2  0  0  0  0
  4  9  1  0  0  0  0
  5  6  1  0  0  0  0
  6 12  1  0  0  0  0
  6  7  2  0  0  0  0
  8  7  1  0  0  0  0
  8  1  1  0  0  0  0
  9  8  2  0  0  0  0
 10  4  1  0  0  0  0
 11  5  1  0  0  0  0
 12 13  1  0  0  0  0
 12 18  1  0  0  0  0
 13 14  2  0  0  0  0
 14 21  1  0  0  0  0
 14 15  1  0  0  0  0
 15 16  2  0  0  0  0
 17 15  1  0  0  0  0
 17 22  1  0  0  0  0
 18 17  1  0  0  0  0
 19 18  2  0  0  0  0
 20 13  1  0  0  0  0
 23 28  1  0  0  0  0
 23 24  1  0  0  0  0
 25 23  1  0  0  0  0
 26 32  1  0  0  0  0
 26 27  2  0  0  0  0
 28 26  1  0  0  0  0
 29 28  1  0  0  0  0
 30 31  1  0  0  0  0
 31 39  1  0  0  0  0
 32 31  2  0  0  0  0
 32 33  1  0  0  0  0
 33 35  2  0  0  0  0
 34 33  1  0  0  0  0
 35 37  1  0  0  0  0
 35 36  1  0  0  0  0
 37 38  1  0  0  0  0
 39 40  1  0  0  0  0
 39 37  2  0  0  0  0
M  END
>  <minimizedAffinity>
-6.16897297

$$$$

 OpenBabel03242521193D

 40 42  0  0  0  0  0  0  0  0999 V2000
   36.9300   27.4340   39.9460 C   0  0  0  0  0  0  0  0  0  0  0  0
   37.7890   27.2630   39.2430 H   0  0  0  0  0  0  0  0  0  0  0  0
   36.0330   27.0860   39.4090 H   0  0  0  0  0  0  0  0  0  0  0  0
   36.2460   30.9430   41.0580 C   0  0  0  0  0  0  0  0  0  0  0  0
   37.2790   31.6300   40.3860 C   0  0  0  0  0  0  0  0  0  0  0  0
   38.1280   30.8640   39.6090 C   0  0  0  0  0  0  0  0  0  0  0  0
   37.9380   29.4950   39.5240 N   0  0  0  0  0  0  0  0  0  0  0  0
   36.9260   28.9030   40.1960 C   0  0  0  0  0  0  0  0  0  0  0  0
   36.0710   29.6100   40.9680 N   0  0  0  0  0  0  0  0  0  0  0  0
   35.5590   31.5050   41.6770 H   0  0  0  0  0  0  0  0  0  0  0  0
   37.3970   32.6820   40.4730 H   0  0  0  0  0  0  0  0  0  0  0  0
   39.1810   31.5270   38.9160 N   0  0  0  0  0  0  0  0  0  0  0  0
   40.2830   31.8840   39.6170 C   0  0  0  0  0  0  0  0  0  0  0  0
   41.3150   32.5310   38.9510 C   0  0  0  0  0  0  0  0  0  0  0  0
   41.1800   32.7810   37.6210 C   0  0  0  0  0  0  0  0  0  0  0  0
   42.1430   33.3750   37.0350 O   0  0  0  0  0  0  0  0  0  0  0  0
   40.0930   32.4300   36.9240 N   0  0  0  0  0  0  0  0  0  0  0  0
   39.1130   31.8030   37.6130 C   0  0  0  0  0  0  0  0  0  0  0  0
   38.0590   31.4370   37.0460 O   0  0  0  0  0  0  0  0  0  0  0  0
   40.3980   31.6870   40.6770 H   0  0  0  0  0  0  0  0  0  0  0  0
   42.2050   32.8270   39.4770 H   0  0  0  0  0  0  0  0  0  0  0  0
   39.9720   32.6130   35.9080 H   0  0  0  0  0  0  0  0  0  0  0  0
   37.2040   26.6730   41.2250 C   0  0  0  0  0  0  0  0  0  0  0  0
   36.5630   27.0250   42.0320 H   0  0  0  0  0  0  0  0  0  0  0  0
   37.0450   25.5740   41.0260 H   0  0  0  0  0  0  0  0  0  0  0  0
   38.9410   27.2040   42.8510 C   0  0  0  0  0  0  0  0  0  0  0  0
   38.0210   27.5250   43.6310 O   0  0  0  0  0  0  0  0  0  0  0  0
   38.6020   26.8150   41.5540 N   0  0  0  0  0  0  0  0  0  0  0  0
   39.3560   26.6380   40.8570 H   0  0  0  0  0  0  0  0  0  0  0  0
   40.2110   29.8440   42.4140 Cl  0  0  0  0  0  0  0  0  0  0  0  0
   40.9840   28.4650   43.1890 C   0  0  0  0  0  0  0  0  0  0  0  0
   40.3110   27.2570   43.3540 C   0  0  0  0  0  0  0  0  0  0  0  0
   40.9540   26.2030   43.9650 C   0  0  0  0  0  0  0  0  0  0  0  0
   40.4200   25.2710   44.0870 H   0  0  0  0  0  0  0  0  0  0  0  0
   42.2480   26.3920   44.3910 C   0  0  0  0  0  0  0  0  0  0  0  0
   42.7200   25.5280   44.8730 H   0  0  0  0  0  0  0  0  0  0  0  0
   42.9700   27.5610   44.2590 C   0  0  0  0  0  0  0  0  0  0  0  0
   43.9890   27.6670   44.6090 H   0  0  0  0  0  0  0  0  0  0  0  0
   42.2850   28.6070   43.6340 C   0  0  0  0  0  0  0  0  0  0  0  0
   43.1110   30.1470   43.4110 Cl  0  0  0  0  0  0  0  0  0  0  0  0
  1  8  1  0  0  0  0
  1 23  1  0  0  0  0
  2  1  1  0  0  0  0
  3  1  1  0  0  0  0
  4 10  1  0  0  0  0
  5 11  1  0  0  0  0
  5  4  2  0  0  0  0
  6  5  1  0  0  0  0
  7  6  2  0  0  0  0
  7  8  1  0  0  0  0
  8  9  2  0  0  0  0
  9  4  1  0  0  0  0
 12  6  1  0  0  0  0
 12 13  1  0  0  0  0
 13 20  1  0  0  0  0
 14 21  1  0  0  0  0
 14 13  2  0  0  0  0
 15 14  1  0  0  0  0
 16 15  2  0  0  0  0
 17 18  1  0  0  0  0
 17 15  1  0  0  0  0
 18 12  1  0  0  0  0
 19 18  2  0  0  0  0
 22 17  1  0  0  0  0
 23 28  1  0  0  0  0
 23 24  1  0  0  0  0
 25 23  1  0  0  0  0
 26 32  1  0  0  0  0
 26 27  2  0  0  0  0
 28 26  1  0  0  0  0
 29 28  1  0  0  0  0
 30 31  1  0  0  0  0
 31 32  2  0  0  0  0
 31 39  1  0  0  0  0
 32 33  1  0  0  0  0
 33 34  1  0  0  0  0
 33 35  2  0  0  0  0
 35 36  1  0  0  0  0
 37 35  1  0  0  0  0
 37 38  1  0  0  0  0
 39 37  2  0  0  0  0
 40 39  1  0  0  0  0
M  END
>  <minimizedAffinity>
-6.1041131

$$$$

 OpenBabel03242521193D

 40 42  0  0  0  0  0  0  0  0999 V2000
   40.0660   29.3760   42.3740 C   0  0  0  0  0  0  0  0  0  0  0  0
   40.7230   28.6280   41.8550 H   0  0  0  0  0  0  0  0  0  0  0  0
   40.6450   29.7260   43.2440 H   0  0  0  0  0  0  0  0  0  0  0  0
   36.8430   28.1400   43.8220 C   0  0  0  0  0  0  0  0  0  0  0  0
   36.7340   26.8920   43.1720 C   0  0  0  0  0  0  0  0  0  0  0  0
   37.7500   26.5580   42.2970 C   0  0  0  0  0  0  0  0  0  0  0  0
   38.8030   27.4350   42.0980 N   0  0  0  0  0  0  0  0  0  0  0  0
   38.8430   28.6150   42.7540 C   0  0  0  0  0  0  0  0  0  0  0  0
   37.8730   28.9850   43.6200 N   0  0  0  0  0  0  0  0  0  0  0  0
   36.0680   28.4400   44.5150 H   0  0  0  0  0  0  0  0  0  0  0  0
   35.9120   26.2430   43.3480 H   0  0  0  0  0  0  0  0  0  0  0  0
   37.6710   25.3050   41.6260 N   0  0  0  0  0  0  0  0  0  0  0  0
   36.8320   25.1970   40.5700 C   0  0  0  0  0  0  0  0  0  0  0  0
   36.7470   23.9790   39.9090 C   0  0  0  0  0  0  0  0  0  0  0  0
   37.5090   22.9410   40.3480 C   0  0  0  0  0  0  0  0  0  0  0  0
   37.4110   21.8360   39.7230 O   0  0  0  0  0  0  0  0  0  0  0  0
   38.3390   23.0430   41.3920 N   0  0  0  0  0  0  0  0  0  0  0  0
   38.3900   24.2470   42.0050 C   0  0  0  0  0  0  0  0  0  0  0  0
   39.1370   24.4380   42.9910 O   0  0  0  0  0  0  0  0  0  0  0  0
   36.2220   26.0200   40.2140 H   0  0  0  0  0  0  0  0  0  0  0  0
   36.0910   23.8590   39.0650 H   0  0  0  0  0  0  0  0  0  0  0  0
   38.9290   22.2620   41.7420 H   0  0  0  0  0  0  0  0  0  0  0  0
   39.7300   30.4760   41.3890 C   0  0  0  0  0  0  0  0  0  0  0  0
   39.1770   31.2780   41.8760 H   0  0  0  0  0  0  0  0  0  0  0  0
   40.6920   30.8560   40.9390 H   0  0  0  0  0  0  0  0  0  0  0  0
   37.9610   30.6580   39.7220 C   0  0  0  0  0  0  0  0  0  0  0  0
   37.6600   31.7460   40.2550 O   0  0  0  0  0  0  0  0  0  0  0  0
   38.9840   29.9010   40.2960 N   0  0  0  0  0  0  0  0  0  0  0  0
   39.1850   28.9470   39.9290 H   0  0  0  0  0  0  0  0  0  0  0  0
   35.4070   29.3060   40.3770 Cl  0  0  0  0  0  0  0  0  0  0  0  0
   36.0030   29.6100   38.7480 C   0  0  0  0  0  0  0  0  0  0  0  0
   37.2190   30.2540   38.5310 C   0  0  0  0  0  0  0  0  0  0  0  0
   37.6480   30.4720   37.2400 C   0  0  0  0  0  0  0  0  0  0  0  0
   38.5930   30.9720   37.0860 H   0  0  0  0  0  0  0  0  0  0  0  0
   36.8460   30.0370   36.2090 C   0  0  0  0  0  0  0  0  0  0  0  0
   37.2260   30.2320   35.1990 H   0  0  0  0  0  0  0  0  0  0  0  0
   35.6350   29.3950   36.3560 C   0  0  0  0  0  0  0  0  0  0  0  0
   35.0350   29.0690   35.5150 H   0  0  0  0  0  0  0  0  0  0  0  0
   35.2330   29.1920   37.6790 C   0  0  0  0  0  0  0  0  0  0  0  0
   33.7000   28.3800   37.9850 Cl  0  0  0  0  0  0  0  0  0  0  0  0
  1  8  1  0  0  0  0
  1  3  1  0  0  0  0
  2  1  1  0  0  0  0
  4 10  1  0  0  0  0
  5 11  1  0  0  0  0
  5  4  2  0  0  0  0
  6  5  1  0  0  0  0
  7  6  2  0  0  0  0
  7  8  1  0  0  0  0
  8  9  2  0  0  0  0
  9  4  1  0  0  0  0
 12 18  1  0  0  0  0
 12  6  1  0  0  0  0
 13 12  1  0  0  0  0
 14 15  1  0  0  0  0
 14 13  2  0  0  0  0
 15 17  1  0  0  0  0
 16 15  2  0  0  0  0
 17 22  1  0  0  0  0
 17 18  1  0  0  0  0
 18 19  2  0  0  0  0
 20 13  1  0  0  0  0
 21 14  1  0  0  0  0
 23 24  1  0  0  0  0
 23  1  1  0  0  0  0
 25 23  1  0  0  0  0
 26 27  2  0  0  0  0
 26 28  1  0  0  0  0
 28 23  1  0  0  0  0
 29 28  1  0  0  0  0
 31 30  1  0  0  0  0
 32 31  1  0  0  0  0
 32 26  1  0  0  0  0
 33 32  2  0  0  0  0
 34 33  1  0  0  0  0
 35 37  2  0  0  0  0
 35 33  1  0  0  0  0
 36 35  1  0  0  0  0
 37 39  1  0  0  0  0
 38 37  1  0  0  0  0
 39 40  1  0  0  0  0
 39 31  2  0  0  0  0
M  END
>  <minimizedAffinity>
-6.01741219

$$$$

 OpenBabel03242521193D

 40 42  0  0  0  0  0  0  0  0999 V2000
   36.8090   29.4740   41.6230 C   0  0  0  0  0  0  0  0  0  0  0  0
   37.8880   29.5390   41.9300 H   0  0  0  0  0  0  0  0  0  0  0  0
   36.2460   29.2990   42.5540 H   0  0  0  0  0  0  0  0  0  0  0  0
   36.6760   26.1220   39.9620 C   0  0  0  0  0  0  0  0  0  0  0  0
   36.6250   26.5110   38.6070 C   0  0  0  0  0  0  0  0  0  0  0  0
   36.6390   27.8700   38.3510 C   0  0  0  0  0  0  0  0  0  0  0  0
   36.7000   28.7680   39.4030 N   0  0  0  0  0  0  0  0  0  0  0  0
   36.7470   28.3240   40.6780 C   0  0  0  0  0  0  0  0  0  0  0  0
   36.7360   27.0060   40.9770 N   0  0  0  0  0  0  0  0  0  0  0  0
   36.6670   25.0680   40.2060 H   0  0  0  0  0  0  0  0  0  0  0  0
   36.5780   25.7950   37.8230 H   0  0  0  0  0  0  0  0  0  0  0  0
   36.5880   28.2960   36.9930 N   0  0  0  0  0  0  0  0  0  0  0  0
   35.3820   28.6070   36.4650 C   0  0  0  0  0  0  0  0  0  0  0  0
   35.3220   29.0240   35.1420 C   0  0  0  0  0  0  0  0  0  0  0  0
   36.4770   29.1020   34.4270 C   0  0  0  0  0  0  0  0  0  0  0  0
   36.3930   29.4870   33.2160 O   0  0  0  0  0  0  0  0  0  0  0  0
   37.6720   28.7940   34.9450 N   0  0  0  0  0  0  0  0  0  0  0  0
   37.6820   28.3940   36.2370 C   0  0  0  0  0  0  0  0  0  0  0  0
   38.7530   28.0850   36.8070 O   0  0  0  0  0  0  0  0  0  0  0  0
   34.4570   28.5480   37.0280 H   0  0  0  0  0  0  0  0  0  0  0  0
   34.3800   29.2800   34.6910 H   0  0  0  0  0  0  0  0  0  0  0  0
   38.5640   28.8480   34.4160 H   0  0  0  0  0  0  0  0  0  0  0  0
   36.4360   30.7640   40.9240 C   0  0  0  0  0  0  0  0  0  0  0  0
   36.0940   30.5700   39.9080 H   0  0  0  0  0  0  0  0  0  0  0  0
   35.6400   31.2820   41.5320 H   0  0  0  0  0  0  0  0  0  0  0  0
   37.7520   32.5290   39.8760 C   0  0  0  0  0  0  0  0  0  0  0  0
   36.9780   32.4380   38.9020 O   0  0  0  0  0  0  0  0  0  0  0  0
   37.5790   31.6440   40.9420 N   0  0  0  0  0  0  0  0  0  0  0  0
   38.2730   31.6360   41.7200 H   0  0  0  0  0  0  0  0  0  0  0  0
   40.3230   31.5190   38.8060 Cl  0  0  0  0  0  0  0  0  0  0  0  0
   40.0280   33.1700   39.3410 C   0  0  0  0  0  0  0  0  0  0  0  0
   38.7840   33.5600   39.8330 C   0  0  0  0  0  0  0  0  0  0  0  0
   38.5980   34.8630   40.2410 C   0  0  0  0  0  0  0  0  0  0  0  0
   37.6280   35.1520   40.6200 H   0  0  0  0  0  0  0  0  0  0  0  0
   39.6610   35.7310   40.1440 C   0  0  0  0  0  0  0  0  0  0  0  0
   39.4670   36.7570   40.4790 H   0  0  0  0  0  0  0  0  0  0  0  0
   40.9140   35.4090   39.6680 C   0  0  0  0  0  0  0  0  0  0  0  0
   41.7250   36.1250   39.6090 H   0  0  0  0  0  0  0  0  0  0  0  0
   41.0660   34.0790   39.2630 C   0  0  0  0  0  0  0  0  0  0  0  0
   42.6280   33.5560   38.6380 Cl  0  0  0  0  0  0  0  0  0  0  0  0
  1  2  1  0  0  0  0
  1  3  1  0  0  0  0
  4 10  1  0  0  0  0
  4  9  1  0  0  0  0
  5  4  2  0  0  0  0
  6  5  1  0  0  0  0
  6  7  2  0  0  0  0
  7  8  1  0  0  0  0
  8  9  2  0  0  0  0
  8  1  1  0  0  0  0
 11  5  1  0  0  0  0
 12  6  1  0  0  0  0
 13 12  1  0  0  0  0
 13 20  1  0  0  0  0
 14 13  2  0  0  0  0
 15 17  1  0  0  0  0
 15 14  1  0  0  0  0
 16 15  2  0  0  0  0
 17 18  1  0  0  0  0
 18 19  2  0  0  0  0
 18 12  1  0  0  0  0
 21 14  1  0  0  0  0
 22 17  1  0  0  0  0
 23 28  1  0  0  0  0
 23 25  1  0  0  0  0
 23  1  1  0  0  0  0
 24 23  1  0  0  0  0
 26 28  1  0  0  0  0
 27 26  2  0  0  0  0
 28 29  1  0  0  0  0
 30 31  1  0  0  0  0
 31 32  1  0  0  0  0
 32 26  1  0  0  0  0
 32 33  2  0  0  0  0
 33 34  1  0  0  0  0
 35 33  1  0  0  0  0
 35 36  1  0  0  0  0
 37 35  2  0  0  0  0
 38 37  1  0  0  0  0
 39 31  2  0  0  0  0
 39 37  1  0  0  0  0
 40 39  1  0  0  0  0
M  END
>  <minimizedAffinity>
-6.01537609

$$$$
