
 OpenBabel03252503223D

 42 46  0  0  1  0  0  0  0  0999 V2000
   47.2130   34.3620   42.5110 C   0  0  1  0  0  0  0  0  0  0  0  0
   46.3550   35.5020   42.7660 C   0  0  0  0  0  0  0  0  0  0  0  0
   45.8410   34.1190   43.0740 C   0  0  2  0  0  0  0  0  0  0  0  0
   48.1020   34.1940   43.1550 H   0  0  0  0  0  0  0  0  0  0  0  0
   45.9390   36.0470   41.8980 H   0  0  0  0  0  0  0  0  0  0  0  0
   46.5750   36.2010   43.6120 H   0  0  0  0  0  0  0  0  0  0  0  0
   45.0650   33.7330   42.4080 H   0  0  0  0  0  0  0  0  0  0  0  0
   45.7980   33.7490   44.5140 C   0  0  0  0  0  0  0  0  0  0  0  0
   45.0450   34.4150   45.4670 C   0  0  0  0  0  0  0  0  0  0  0  0
   45.0330   34.0050   46.7940 C   0  0  0  0  0  0  0  0  0  0  0  0
   45.7790   32.9170   47.1880 C   0  0  0  0  0  0  0  0  0  0  0  0
   45.7950   32.4710   48.4720 N   0  0  0  0  0  0  0  0  0  0  0  0
   46.5290   31.3950   48.8320 C   0  0  0  0  0  0  0  0  0  0  0  0
   47.3190   30.6620   47.9290 C   0  0  0  0  0  0  0  0  0  0  0  0
   47.3160   31.1000   46.6200 C   0  0  0  0  0  0  0  0  0  0  0  0
   46.5550   32.2100   46.2650 C   0  0  0  0  0  0  0  0  0  0  0  0
   46.5330   32.6610   44.9530 C   0  0  0  0  0  0  0  0  0  0  0  0
   44.4710   35.2660   45.1200 H   0  0  0  0  0  0  0  0  0  0  0  0
   44.4340   34.5440   47.5290 H   0  0  0  0  0  0  0  0  0  0  0  0
   46.5540   31.0260   49.8520 H   0  0  0  0  0  0  0  0  0  0  0  0
   47.8870   29.8080   48.2690 H   0  0  0  0  0  0  0  0  0  0  0  0
   47.9120   30.5610   45.9000 H   0  0  0  0  0  0  0  0  0  0  0  0
   47.1730   32.0650   44.3170 H   0  0  0  0  0  0  0  0  0  0  0  0
   47.1790   32.5480   40.7590 C   0  0  0  0  0  0  0  0  0  0  0  0
   47.4910   33.8920   41.1300 C   0  0  0  0  0  0  0  0  0  0  0  0
   48.0590   34.7190   40.1800 C   0  0  0  0  0  0  0  0  0  0  0  0
   48.2870   34.1900   38.9430 N   0  0  0  0  0  0  0  0  0  0  0  0
   47.9890   32.9220   38.6070 C   0  0  0  0  0  0  0  0  0  0  0  0
   47.4310   32.0950   39.5230 N   0  0  0  0  0  0  0  0  0  0  0  0
   46.7270   31.8670   41.4890 H   0  0  0  0  0  0  0  0  0  0  0  0
   48.3090   35.7430   40.4220 H   0  0  0  0  0  0  0  0  0  0  0  0
   50.7040   31.6460   38.2520 Cl  0  0  0  0  0  0  0  0  0  0  0  0
   49.5000   31.8490   36.9980 C   0  0  0  0  0  0  0  0  0  0  0  0
   48.2750   32.4460   37.2400 C   0  0  0  0  0  0  0  0  0  0  0  0
   47.2860   32.6350   36.2960 C   0  0  0  0  0  0  0  0  0  0  0  0
   46.3490   33.1090   36.5530 H   0  0  0  0  0  0  0  0  0  0  0  0
   47.5420   32.1910   35.0040 C   0  0  0  0  0  0  0  0  0  0  0  0
   46.8230   32.3050   34.2240 H   0  0  0  0  0  0  0  0  0  0  0  0
   48.7640   31.5810   34.6980 C   0  0  0  0  0  0  0  0  0  0  0  0
   49.0390   31.2120   33.7320 H   0  0  0  0  0  0  0  0  0  0  0  0
   49.7140   31.4210   35.6960 C   0  0  0  0  0  0  0  0  0  0  0  0
   51.2830   30.6610   35.4010 Cl  0  0  0  0  0  0  0  0  0  0  0  0
  1  2  1  0  0  0  0
  1  3  1  0  0  0  0
  1  4  1  1  0  0  0
  2  3  1  0  0  0  0
  2  6  1  0  0  0  0
  3  7  1  6  0  0  0
  3  8  1  0  0  0  0
  5  2  1  0  0  0  0
  8 17  2  0  0  0  0
  8  9  1  0  0  0  0
  9 10  2  0  0  0  0
 10 11  1  0  0  0  0
 10 19  1  0  0  0  0
 11 12  1  0  0  0  0
 12 13  2  0  0  0  0
 13 20  1  0  0  0  0
 14 21  1  0  0  0  0
 14 13  1  0  0  0  0
 15 14  2  0  0  0  0
 16 15  1  0  0  0  0
 16 11  2  0  0  0  0
 17 16  1  0  0  0  0
 18  9  1  0  0  0  0
 22 15  1  0  0  0  0
 23 17  1  0  0  0  0
 24 25  1  0  0  0  0
 24 30  1  0  0  0  0
 25  1  1  0  0  0  0
 26 31  1  0  0  0  0
 26 25  2  0  0  0  0
 27 26  1  0  0  0  0
 28 27  2  0  0  0  0
 28 29  1  0  0  0  0
 29 24  2  0  0  0  0
 33 34  1  0  0  0  0
 33 32  1  0  0  0  0
 34 28  1  0  0  0  0
 35 36  1  0  0  0  0
 35 34  2  0  0  0  0
 37 35  1  0  0  0  0
 38 37  1  0  0  0  0
 39 37  2  0  0  0  0
 39 41  1  0  0  0  0
 40 39  1  0  0  0  0
 41 33  2  0  0  0  0
 42 41  1  0  0  0  0
M  END
>  <minimizedAffinity>
-5.82255554

>  <minimizedRMSD>
9.58445644

$$$$
