
 OpenBabel03252507383D

 40 44  0  0  0  0  0  0  0  0999 V2000
   45.6970   34.7880   43.5020 C   0  0  0  0  0  0  0  0  0  0  0  0
   46.4040   33.7250   44.1110 C   0  0  0  0  0  0  0  0  0  0  0  0
   46.1520   33.4860   45.4520 C   0  0  0  0  0  0  0  0  0  0  0  0
   45.2620   34.2590   46.1110 N   0  0  0  0  0  0  0  0  0  0  0  0
   44.5970   35.2750   45.5000 C   0  0  0  0  0  0  0  0  0  0  0  0
   44.8180   35.5250   44.2230 N   0  0  0  0  0  0  0  0  0  0  0  0
   47.1080   33.1110   43.5980 H   0  0  0  0  0  0  0  0  0  0  0  0
   43.8980   35.8550   46.0860 H   0  0  0  0  0  0  0  0  0  0  0  0
   47.0340   32.6590   47.5670 C   0  0  0  0  0  0  0  0  0  0  0  0
   46.7980   32.4260   46.2210 C   0  0  0  0  0  0  0  0  0  0  0  0
   47.1840   31.2220   45.6930 C   0  0  0  0  0  0  0  0  0  0  0  0
   47.7910   30.2430   46.4490 C   0  0  0  0  0  0  0  0  0  0  0  0
   48.2440   28.9990   46.1400 N   0  0  0  0  0  0  0  0  0  0  0  0
   48.7630   28.4630   47.3060 C   0  0  0  0  0  0  0  0  0  0  0  0
   48.6170   29.3780   48.2920 N   0  0  0  0  0  0  0  0  0  0  0  0
   48.0280   30.4580   47.7740 C   0  0  0  0  0  0  0  0  0  0  0  0
   47.6510   31.6650   48.3340 C   0  0  0  0  0  0  0  0  0  0  0  0
   46.7660   33.5790   48.0740 H   0  0  0  0  0  0  0  0  0  0  0  0
   46.9990   31.0420   44.6410 H   0  0  0  0  0  0  0  0  0  0  0  0
   48.2240   28.5130   45.2210 H   0  0  0  0  0  0  0  0  0  0  0  0
   49.2090   27.4870   47.4270 H   0  0  0  0  0  0  0  0  0  0  0  0
   47.8420   31.8300   49.3910 H   0  0  0  0  0  0  0  0  0  0  0  0
   45.9310   35.0480   42.1630 O   0  0  0  0  0  0  0  0  0  0  0  0
   45.0530   34.5970   41.1850 C   0  0  0  0  0  0  0  0  0  0  0  0
   45.8200   33.7090   40.4840 C   0  0  0  0  0  0  0  0  0  0  0  0
   44.5900   33.1190   39.1670 S   0  0  0  0  0  0  0  0  0  0  0  0
   43.2720   34.2520   39.8960 C   0  0  0  0  0  0  0  0  0  0  0  0
   43.8290   34.7160   40.7300 N   0  0  0  0  0  0  0  0  0  0  0  0
   46.7830   33.1790   40.3110 H   0  0  0  0  0  0  0  0  0  0  0  0
   41.3570   32.6900   41.4390 Cl  0  0  0  0  0  0  0  0  0  0  0  0
   40.9110   33.6310   40.0330 C   0  0  0  0  0  0  0  0  0  0  0  0
   41.8560   34.3570   39.3320 C   0  0  0  0  0  0  0  0  0  0  0  0
   41.6770   35.1360   38.2250 C   0  0  0  0  0  0  0  0  0  0  0  0
   42.4710   35.6610   37.7520 H   0  0  0  0  0  0  0  0  0  0  0  0
   40.3730   35.1800   37.7770 C   0  0  0  0  0  0  0  0  0  0  0  0
   40.1070   35.7700   36.9000 H   0  0  0  0  0  0  0  0  0  0  0  0
   39.3520   34.4940   38.4000 C   0  0  0  0  0  0  0  0  0  0  0  0
   38.3150   34.5030   38.0780 H   0  0  0  0  0  0  0  0  0  0  0  0
   39.6530   33.7380   39.5130 C   0  0  0  0  0  0  0  0  0  0  0  0
   38.4110   32.8360   40.3640 Cl  0  0  0  0  0  0  0  0  0  0  0  0
  1  2  2  0  0  0  0
  1  6  1  0  0  0  0
  2  3  1  0  0  0  0
  3  4  2  0  0  0  0
  3 10  1  0  0  0  0
  5  8  1  0  0  0  0
  5  4  1  0  0  0  0
  6  5  2  0  0  0  0
  7  2  1  0  0  0  0
  9 18  1  0  0  0  0
  9 17  1  0  0  0  0
 10  9  2  0  0  0  0
 11 10  1  0  0  0  0
 11 12  2  0  0  0  0
 12 16  1  0  0  0  0
 13 12  1  0  0  0  0
 13 14  1  0  0  0  0
 14 21  1  0  0  0  0
 14 15  2  0  0  0  0
 16 15  1  0  0  0  0
 16 17  2  0  0  0  0
 17 22  1  0  0  0  0
 19 11  1  0  0  0  0
 20 13  1  0  0  0  0
 23  1  1  0  0  0  0
 24 23  1  0  0  0  0
 25 24  2  0  0  0  0
 26 27  1  0  0  0  0
 26 25  1  0  0  0  0
 27 28  2  0  0  0  0
 28 24  1  0  0  0  0
 29 25  1  0  0  0  0
 31 30  1  0  0  0  0
 32 27  1  0  0  0  0
 32 31  2  0  0  0  0
 33 32  1  0  0  0  0
 34 33  1  0  0  0  0
 35 33  2  0  0  0  0
 35 37  1  0  0  0  0
 36 35  1  0  0  0  0
 37 39  2  0  0  0  0
 38 37  1  0  0  0  0
 39 31  1  0  0  0  0
 39 40  1  0  0  0  0
M  END
>  <minimizedAffinity>
-7.33710575

>  <minimizedRMSD>
1.02611542

$$$$
