
 OpenBabel03242523383D

 21 22  0  0  0  0  0  0  0  0999 V2000
   48.1240   31.2680   43.6850 Cl  0  0  0  0  0  0  0  0  0  0  0  0
   47.4240   32.7670   43.1570 C   0  0  0  0  0  0  0  0  0  0  0  0
   47.5460   33.2450   41.8470 C   0  0  0  0  0  0  0  0  0  0  0  0
   46.9970   34.4350   41.4040 C   0  0  0  0  0  0  0  0  0  0  0  0
   47.1150   34.7580   40.4010 H   0  0  0  0  0  0  0  0  0  0  0  0
   46.2810   35.1910   42.3350 C   0  0  0  0  0  0  0  0  0  0  0  0
   45.8630   36.1170   41.9640 H   0  0  0  0  0  0  0  0  0  0  0  0
   46.1180   34.7850   43.6490 C   0  0  0  0  0  0  0  0  0  0  0  0
   45.5600   35.3840   44.3560 H   0  0  0  0  0  0  0  0  0  0  0  0
   46.7000   33.5840   44.0000 C   0  0  0  0  0  0  0  0  0  0  0  0
   46.4670   33.1020   45.6900 Cl  0  0  0  0  0  0  0  0  0  0  0  0
   48.3950   31.0770   39.0010 C   0  0  0  0  0  0  0  0  0  0  0  0
   49.7970   30.9410   39.1190 C   0  0  0  0  0  0  0  0  0  0  0  0
   50.4100   31.6100   40.1900 C   0  0  0  0  0  0  0  0  0  0  0  0
   49.6340   32.3430   41.0450 N   0  0  0  0  0  0  0  0  0  0  0  0
   48.3040   32.4320   40.8780 C   0  0  0  0  0  0  0  0  0  0  0  0
   47.6840   31.8090   39.8680 N   0  0  0  0  0  0  0  0  0  0  0  0
   47.8740   30.5860   38.1980 H   0  0  0  0  0  0  0  0  0  0  0  0
   50.3720   30.3460   38.4120 H   0  0  0  0  0  0  0  0  0  0  0  0
   52.1820   31.4850   40.4050 S   0  0  0  0  0  0  0  0  0  0  0  0
   52.7070   32.7860   40.5050 H   0  0  0  0  0  0  0  0  0  0  0  0
  2  1  1  0  0  0  0
  2 10  1  0  0  0  0
  3  2  2  0  0  0  0
  4  3  1  0  0  0  0
  4  6  2  0  0  0  0
  5  4  1  0  0  0  0
  6  8  1  0  0  0  0
  7  6  1  0  0  0  0
  8 10  2  0  0  0  0
  8  9  1  0  0  0  0
 10 11  1  0  0  0  0
 12 13  2  0  0  0  0
 12 17  1  0  0  0  0
 13 14  1  0  0  0  0
 14 20  1  0  0  0  0
 14 15  2  0  0  0  0
 16 15  1  0  0  0  0
 16  3  1  0  0  0  0
 17 16  2  0  0  0  0
 18 12  1  0  0  0  0
 19 13  1  0  0  0  0
 20 21  1  0  0  0  0
M  END
>  <minimizedAffinity>
-3.45813036

>  <minimizedRMSD>
5.96778584

$$$$
