
 OpenBabel03252506343D

 35 37  0  0  1  0  0  0  0  0999 V2000
   44.4630   35.9170   44.9730 C   0  0  0  0  0  0  0  0  0  0  0  0
   45.0730   35.9040   43.7100 C   0  0  0  0  0  0  0  0  0  0  0  0
   45.9320   34.8930   43.4070 C   0  0  0  0  0  0  0  0  0  0  0  0
   46.1400   33.9580   44.3640 N   0  0  0  0  0  0  0  0  0  0  0  0
   45.5510   33.9840   45.5660 C   0  0  0  0  0  0  0  0  0  0  0  0
   44.7100   34.9540   45.8900 N   0  0  0  0  0  0  0  0  0  0  0  0
   45.8580   32.9270   46.4830 N   0  0  0  0  0  0  0  0  0  0  0  0
   45.1050   32.6640   47.6980 C   0  0  0  0  0  0  0  0  0  0  0  0
   46.2070   32.2690   48.6500 C   0  0  0  0  0  0  0  0  0  0  0  0
   47.4550   32.0670   47.8370 C   0  0  0  0  0  0  0  0  0  0  0  0
   46.9250   31.9450   46.4090 C   0  0  1  0  0  0  0  0  0  0  0  0
   43.7640   36.7070   45.2650 H   0  0  0  0  0  0  0  0  0  0  0  0
   46.4010   34.8780   42.4440 H   0  0  0  0  0  0  0  0  0  0  0  0
   44.4570   31.7770   47.5920 H   0  0  0  0  0  0  0  0  0  0  0  0
   44.5410   33.5610   48.0360 H   0  0  0  0  0  0  0  0  0  0  0  0
   45.9570   31.4390   49.3080 H   0  0  0  0  0  0  0  0  0  0  0  0
   46.3620   33.1630   49.3170 H   0  0  0  0  0  0  0  0  0  0  0  0
   48.1070   32.9500   47.9060 H   0  0  0  0  0  0  0  0  0  0  0  0
   47.9730   31.1490   48.1830 H   0  0  0  0  0  0  0  0  0  0  0  0
   47.6120   32.3210   45.6510 H   0  0  0  0  0  0  0  0  0  0  0  0
   44.7270   36.9800   42.8240 N   0  0  0  0  0  0  0  0  0  0  0  0
   43.7900   37.4100   42.7710 H   0  0  0  0  0  0  0  0  0  0  0  0
   45.4750   37.3660   42.1800 H   0  0  0  0  0  0  0  0  0  0  0  0
   46.3010   30.2910   46.1770 S   0  0  0  0  0  0  0  0  0  0  0  0
   45.4460   27.5960   47.8490 Cl  0  0  0  0  0  0  0  0  0  0  0  0
   47.0970   27.8180   47.3740 C   0  0  0  0  0  0  0  0  0  0  0  0
   47.3440   28.9810   46.6830 C   0  0  0  0  0  0  0  0  0  0  0  0
   48.6750   29.2040   46.3030 C   0  0  0  0  0  0  0  0  0  0  0  0
   49.0860   30.0580   45.7520 H   0  0  0  0  0  0  0  0  0  0  0  0
   49.6540   28.2580   46.6330 C   0  0  0  0  0  0  0  0  0  0  0  0
   50.7100   28.3850   46.3590 H   0  0  0  0  0  0  0  0  0  0  0  0
   49.3430   27.1000   47.3330 C   0  0  0  0  0  0  0  0  0  0  0  0
   50.0960   26.3840   47.5810 H   0  0  0  0  0  0  0  0  0  0  0  0
   48.0390   26.8970   47.6980 C   0  0  0  0  0  0  0  0  0  0  0  0
   47.5280   25.4630   48.5880 Cl  0  0  0  0  0  0  0  0  0  0  0  0
  1 12  1  0  0  0  0
  1  6  1  0  0  0  0
  2  1  2  0  0  0  0
  3  2  1  0  0  0  0
  3  4  2  0  0  0  0
  4  5  1  0  0  0  0
  5  6  2  0  0  0  0
  5  7  1  0  0  0  0
  7  8  1  0  0  0  0
  8 15  1  0  0  0  0
  8  9  1  0  0  0  0
  9 16  1  0  0  0  0
  9 17  1  0  0  0  0
 10 18  1  0  0  0  0
 10 19  1  0  0  0  0
 10  9  1  0  0  0  0
 11 20  1  6  0  0  0
 11  7  1  0  0  0  0
 11 10  1  0  0  0  0
 13  3  1  0  0  0  0
 14  8  1  0  0  0  0
 21  2  1  0  0  0  0
 22 21  1  0  0  0  0
 23 21  1  0  0  0  0
 24 11  1  0  0  0  0
 24 27  1  0  0  0  0
 26 34  1  0  0  0  0
 26 25  1  0  0  0  0
 27 26  2  0  0  0  0
 28 30  2  0  0  0  0
 28 27  1  0  0  0  0
 29 28  1  0  0  0  0
 30 32  1  0  0  0  0
 31 30  1  0  0  0  0
 32 33  1  0  0  0  0
 32 34  2  0  0  0  0
 34 35  1  0  0  0  0
M  END
>  <minimizedAffinity>
-5.51701498

>  <minimizedRMSD>
0.935217917

$$$$
