
 OpenBabel03242518223D

 41 44  0  0  0  0  0  0  0  0999 V2000
   36.8480   30.2410   36.1120 C   0  0  0  0  0  0  0  0  0  0  0  0
   37.4680   31.3150   36.7500 C   0  0  0  0  0  0  0  0  0  0  0  0
   37.4840   31.3020   38.1240 C   0  0  0  0  0  0  0  0  0  0  0  0
   36.9090   30.2670   38.7980 N   0  0  0  0  0  0  0  0  0  0  0  0
   36.3200   29.2500   38.1350 C   0  0  0  0  0  0  0  0  0  0  0  0
   36.2870   29.2330   36.7890 N   0  0  0  0  0  0  0  0  0  0  0  0
   36.7790   30.1550   35.0240 H   0  0  0  0  0  0  0  0  0  0  0  0
   40.4030   30.8680   38.6880 Cl  0  0  0  0  0  0  0  0  0  0  0  0
   39.4290   32.2160   39.2370 C   0  0  0  0  0  0  0  0  0  0  0  0
   38.0910   32.3280   38.9190 C   0  0  0  0  0  0  0  0  0  0  0  0
   37.5410   33.4640   39.4540 C   0  0  0  0  0  0  0  0  0  0  0  0
   36.5150   33.6520   39.2730 H   0  0  0  0  0  0  0  0  0  0  0  0
   38.1780   34.4140   40.2170 C   0  0  0  0  0  0  0  0  0  0  0  0
   37.6730   35.2740   40.5960 H   0  0  0  0  0  0  0  0  0  0  0  0
   39.5090   34.2500   40.5010 C   0  0  0  0  0  0  0  0  0  0  0  0
   40.0370   34.9730   41.0950 H   0  0  0  0  0  0  0  0  0  0  0  0
   40.1370   33.1360   40.0030 C   0  0  0  0  0  0  0  0  0  0  0  0
   41.8340   32.9560   40.3830 Cl  0  0  0  0  0  0  0  0  0  0  0  0
   35.7020   28.1350   38.8980 C   0  0  0  0  0  0  0  0  0  0  0  0
   34.6210   28.3350   39.0360 H   0  0  0  0  0  0  0  0  0  0  0  0
   35.7770   27.2180   38.3000 H   0  0  0  0  0  0  0  0  0  0  0  0
   36.3720   27.9480   40.2250 C   0  0  0  0  0  0  0  0  0  0  0  0
   35.8800   28.4480   41.4060 C   0  0  0  0  0  0  0  0  0  0  0  0
   36.7300   28.0980   42.4200 C   0  0  0  0  0  0  0  0  0  0  0  0
   37.7430   27.3720   41.7950 C   0  0  0  0  0  0  0  0  0  0  0  0
   37.4610   27.3350   40.5430 O   0  0  0  0  0  0  0  0  0  0  0  0
   34.9930   29.0310   41.6370 H   0  0  0  0  0  0  0  0  0  0  0  0
   36.6750   28.3090   43.4740 H   0  0  0  0  0  0  0  0  0  0  0  0
   38.8920   26.7830   42.4760 C   0  0  0  0  0  0  0  0  0  0  0  0
   39.7540   27.5750   43.1870 C   0  0  0  0  0  0  0  0  0  0  0  0
   40.8650   27.0740   43.8570 C   0  0  0  0  0  0  0  0  0  0  0  0
   41.0160   25.6830   43.7350 C   0  0  0  0  0  0  0  0  0  0  0  0
   40.1670   24.8730   43.0290 C   0  0  0  0  0  0  0  0  0  0  0  0
   39.1270   25.4680   42.4220 N   0  0  0  0  0  0  0  0  0  0  0  0
   39.5670   28.6400   43.2330 H   0  0  0  0  0  0  0  0  0  0  0  0
   41.5390   27.6890   44.4120 H   0  0  0  0  0  0  0  0  0  0  0  0
   41.8650   25.2410   44.2360 H   0  0  0  0  0  0  0  0  0  0  0  0
   40.3760   23.8120   42.9980 H   0  0  0  0  0  0  0  0  0  0  0  0
   38.0290   32.3140   35.9550 N   0  0  0  0  0  0  0  0  0  0  0  0
   39.0080   31.9000   35.9130 H   0  0  0  0  0  0  0  0  0  0  0  0
   37.2840   33.0140   35.7460 H   0  0  0  0  0  0  0  0  0  0  0  0
  1  2  2  0  0  0  0
  1  6  1  0  0  0  0
  2  3  1  0  0  0  0
  3  4  2  0  0  0  0
  3 10  1  0  0  0  0
  5  4  1  0  0  0  0
  5 19  1  0  0  0  0
  6  5  2  0  0  0  0
  7  1  1  0  0  0  0
  8  9  1  0  0  0  0
  9 17  1  0  0  0  0
 10  9  2  0  0  0  0
 10 11  1  0  0  0  0
 11 13  2  0  0  0  0
 12 11  1  0  0  0  0
 13 15  1  0  0  0  0
 13 14  1  0  0  0  0
 15 16  1  0  0  0  0
 17 18  1  0  0  0  0
 17 15  2  0  0  0  0
 19 20  1  0  0  0  0
 19 22  1  0  0  0  0
 21 19  1  0  0  0  0
 22 26  1  0  0  0  0
 22 23  2  0  0  0  0
 23 27  1  0  0  0  0
 23 24  1  0  0  0  0
 24 28  1  0  0  0  0
 25 24  2  0  0  0  0
 25 29  1  0  0  0  0
 26 25  1  0  0  0  0
 29 30  1  0  0  0  0
 30 35  1  0  0  0  0
 30 31  2  0  0  0  0
 31 36  1  0  0  0  0
 32 31  1  0  0  0  0
 32 37  1  0  0  0  0
 33 32  2  0  0  0  0
 34 29  2  0  0  0  0
 34 33  1  0  0  0  0
 38 33  1  0  0  0  0
 39  2  1  0  0  0  0
 40 39  1  0  0  0  0
 41 39  1  0  0  0  0
M  END
>  <minimizedAffinity>
-6.69467735

$$$$

 OpenBabel03242518223D

 41 44  0  0  0  0  0  0  0  0999 V2000
   38.9590   32.5820   41.1530 C   0  0  0  0  0  0  0  0  0  0  0  0
   37.8090   32.1310   40.5050 C   0  0  0  0  0  0  0  0  0  0  0  0
   37.6680   30.7730   40.3530 C   0  0  0  0  0  0  0  0  0  0  0  0
   38.6310   29.9350   40.8300 N   0  0  0  0  0  0  0  0  0  0  0  0
   39.7270   30.4190   41.4510 C   0  0  0  0  0  0  0  0  0  0  0  0
   39.8950   31.7460   41.6150 N   0  0  0  0  0  0  0  0  0  0  0  0
   39.1680   33.6420   41.3240 H   0  0  0  0  0  0  0  0  0  0  0  0
   37.9000   30.5540   37.3660 Cl  0  0  0  0  0  0  0  0  0  0  0  0
   36.5490   30.0190   38.3440 C   0  0  0  0  0  0  0  0  0  0  0  0
   36.5400   30.1600   39.7170 C   0  0  0  0  0  0  0  0  0  0  0  0
   35.3840   29.6670   40.2650 C   0  0  0  0  0  0  0  0  0  0  0  0
   35.2690   29.7230   41.3150 H   0  0  0  0  0  0  0  0  0  0  0  0
   34.3290   29.0900   39.5960 C   0  0  0  0  0  0  0  0  0  0  0  0
   33.4620   28.7300   40.1030 H   0  0  0  0  0  0  0  0  0  0  0  0
   34.3950   28.9770   38.2320 C   0  0  0  0  0  0  0  0  0  0  0  0
   33.5880   28.5330   37.6800 H   0  0  0  0  0  0  0  0  0  0  0  0
   35.5200   29.4480   37.6030 C   0  0  0  0  0  0  0  0  0  0  0  0
   35.5710   29.2880   35.8640 Cl  0  0  0  0  0  0  0  0  0  0  0  0
   40.7580   29.4800   41.9600 C   0  0  0  0  0  0  0  0  0  0  0  0
   41.5810   29.3990   41.2240 H   0  0  0  0  0  0  0  0  0  0  0  0
   41.1950   29.9030   42.8740 H   0  0  0  0  0  0  0  0  0  0  0  0
   40.1720   28.1290   42.2390 C   0  0  0  0  0  0  0  0  0  0  0  0
   40.1980   27.5260   43.4730 C   0  0  0  0  0  0  0  0  0  0  0  0
   39.5800   26.3090   43.3810 C   0  0  0  0  0  0  0  0  0  0  0  0
   39.1870   26.2140   42.0460 C   0  0  0  0  0  0  0  0  0  0  0  0
   39.5640   27.2950   41.4660 O   0  0  0  0  0  0  0  0  0  0  0  0
   40.6020   27.8430   44.4300 H   0  0  0  0  0  0  0  0  0  0  0  0
   39.4100   25.5590   44.1340 H   0  0  0  0  0  0  0  0  0  0  0  0
   38.4810   25.0780   41.4610 C   0  0  0  0  0  0  0  0  0  0  0  0
   37.1130   25.0570   41.4310 C   0  0  0  0  0  0  0  0  0  0  0  0
   36.3840   24.0040   40.8870 C   0  0  0  0  0  0  0  0  0  0  0  0
   37.1850   22.9700   40.3750 C   0  0  0  0  0  0  0  0  0  0  0  0
   38.5530   22.9710   40.3960 C   0  0  0  0  0  0  0  0  0  0  0  0
   39.1500   24.0410   40.9460 N   0  0  0  0  0  0  0  0  0  0  0  0
   36.5680   25.8950   41.8460 H   0  0  0  0  0  0  0  0  0  0  0  0
   35.3160   23.9840   40.8620 H   0  0  0  0  0  0  0  0  0  0  0  0
   36.6680   22.1260   39.9410 H   0  0  0  0  0  0  0  0  0  0  0  0
   39.0740   22.1210   39.9750 H   0  0  0  0  0  0  0  0  0  0  0  0
   36.8900   33.0840   40.0650 N   0  0  0  0  0  0  0  0  0  0  0  0
   36.2810   33.0760   40.9380 H   0  0  0  0  0  0  0  0  0  0  0  0
   37.1740   33.3880   39.1090 H   0  0  0  0  0  0  0  0  0  0  0  0
  1  7  1  0  0  0  0
  1  6  1  0  0  0  0
  2  1  2  0  0  0  0
  3  2  1  0  0  0  0
  3  4  2  0  0  0  0
  4  5  1  0  0  0  0
  5  6  2  0  0  0  0
  5 19  1  0  0  0  0
  8  9  1  0  0  0  0
  9 10  1  0  0  0  0
 10 11  2  0  0  0  0
 10  3  1  0  0  0  0
 11 12  1  0  0  0  0
 13 14  1  0  0  0  0
 13 11  1  0  0  0  0
 15 13  2  0  0  0  0
 16 15  1  0  0  0  0
 17 15  1  0  0  0  0
 17  9  2  0  0  0  0
 18 17  1  0  0  0  0
 19 22  1  0  0  0  0
 19 21  1  0  0  0  0
 20 19  1  0  0  0  0
 22 23  2  0  0  0  0
 23 27  1  0  0  0  0
 24 23  1  0  0  0  0
 24 28  1  0  0  0  0
 25 24  2  0  0  0  0
 26 25  1  0  0  0  0
 26 22  1  0  0  0  0
 29 25  1  0  0  0  0
 30 29  1  0  0  0  0
 30 35  1  0  0  0  0
 31 30  2  0  0  0  0
 32 33  2  0  0  0  0
 32 31  1  0  0  0  0
 33 34  1  0  0  0  0
 34 29  2  0  0  0  0
 36 31  1  0  0  0  0
 37 32  1  0  0  0  0
 38 33  1  0  0  0  0
 39  2  1  0  0  0  0
 39 40  1  0  0  0  0
 41 39  1  0  0  0  0
M  END
>  <minimizedAffinity>
-6.66662121

$$$$

 OpenBabel03242518223D

 41 44  0  0  0  0  0  0  0  0999 V2000
   38.3100   32.0860   38.9270 C   0  0  0  0  0  0  0  0  0  0  0  0
   39.3440   31.8660   38.0180 C   0  0  0  0  0  0  0  0  0  0  0  0
   40.4800   31.2600   38.4970 C   0  0  0  0  0  0  0  0  0  0  0  0
   40.5540   30.9030   39.8110 N   0  0  0  0  0  0  0  0  0  0  0  0
   39.5260   31.1380   40.6520 C   0  0  0  0  0  0  0  0  0  0  0  0
   38.3990   31.7300   40.2130 N   0  0  0  0  0  0  0  0  0  0  0  0
   37.3640   32.5610   38.6490 H   0  0  0  0  0  0  0  0  0  0  0  0
   42.7060   33.2660   38.7030 Cl  0  0  0  0  0  0  0  0  0  0  0  0
   42.6960   31.8270   37.7060 C   0  0  0  0  0  0  0  0  0  0  0  0
   41.6220   30.9600   37.6850 C   0  0  0  0  0  0  0  0  0  0  0  0
   41.8440   29.9060   36.8380 C   0  0  0  0  0  0  0  0  0  0  0  0
   41.0830   29.1770   36.7430 H   0  0  0  0  0  0  0  0  0  0  0  0
   42.9660   29.6750   36.0770 C   0  0  0  0  0  0  0  0  0  0  0  0
   43.0580   28.8240   35.4390 H   0  0  0  0  0  0  0  0  0  0  0  0
   44.0010   30.5710   36.1380 C   0  0  0  0  0  0  0  0  0  0  0  0
   44.8920   30.4210   35.5560 H   0  0  0  0  0  0  0  0  0  0  0  0
   43.8600   31.6580   36.9640 C   0  0  0  0  0  0  0  0  0  0  0  0
   45.1980   32.7800   37.0200 Cl  0  0  0  0  0  0  0  0  0  0  0  0
   39.6370   30.7370   42.0780 C   0  0  0  0  0  0  0  0  0  0  0  0
   40.7050   30.6920   42.3680 H   0  0  0  0  0  0  0  0  0  0  0  0
   39.1760   31.5170   42.6970 H   0  0  0  0  0  0  0  0  0  0  0  0
   38.9730   29.4160   42.3240 C   0  0  0  0  0  0  0  0  0  0  0  0
   38.1190   29.1750   43.3720 C   0  0  0  0  0  0  0  0  0  0  0  0
   37.6930   27.8760   43.3020 C   0  0  0  0  0  0  0  0  0  0  0  0
   38.3280   27.3580   42.1740 C   0  0  0  0  0  0  0  0  0  0  0  0
   39.0390   28.3030   41.6760 O   0  0  0  0  0  0  0  0  0  0  0  0
   37.7600   29.8060   44.1800 H   0  0  0  0  0  0  0  0  0  0  0  0
   37.0230   27.3310   43.9440 H   0  0  0  0  0  0  0  0  0  0  0  0
   38.1820   25.9890   41.6880 C   0  0  0  0  0  0  0  0  0  0  0  0
   36.9760   25.3480   41.7810 C   0  0  0  0  0  0  0  0  0  0  0  0
   36.7740   24.0460   41.3350 C   0  0  0  0  0  0  0  0  0  0  0  0
   37.9230   23.4550   40.7830 C   0  0  0  0  0  0  0  0  0  0  0  0
   39.1380   24.0780   40.6810 C   0  0  0  0  0  0  0  0  0  0  0  0
   39.2150   25.3360   41.1450 N   0  0  0  0  0  0  0  0  0  0  0  0
   36.1380   25.8740   42.2200 H   0  0  0  0  0  0  0  0  0  0  0  0
   35.8350   23.5420   41.4070 H   0  0  0  0  0  0  0  0  0  0  0  0
   37.8210   22.4420   40.4220 H   0  0  0  0  0  0  0  0  0  0  0  0
   39.9600   23.5310   40.2390 H   0  0  0  0  0  0  0  0  0  0  0  0
   39.1510   32.2680   36.6970 N   0  0  0  0  0  0  0  0  0  0  0  0
   38.7740   31.3380   36.3420 H   0  0  0  0  0  0  0  0  0  0  0  0
   39.4450   33.2660   36.6180 H   0  0  0  0  0  0  0  0  0  0  0  0
  1  6  1  0  0  0  0
  2  3  1  0  0  0  0
  2  1  2  0  0  0  0
  3  4  2  0  0  0  0
  4  5  1  0  0  0  0
  5 19  1  0  0  0  0
  6  5  2  0  0  0  0
  7  1  1  0  0  0  0
  9  8  1  0  0  0  0
 10  9  1  0  0  0  0
 10  3  1  0  0  0  0
 11 10  2  0  0  0  0
 12 11  1  0  0  0  0
 13 15  2  0  0  0  0
 13 11  1  0  0  0  0
 14 13  1  0  0  0  0
 15 17  1  0  0  0  0
 16 15  1  0  0  0  0
 17 18  1  0  0  0  0
 17  9  2  0  0  0  0
 19 22  1  0  0  0  0
 19 20  1  0  0  0  0
 19 21  1  0  0  0  0
 22 23  2  0  0  0  0
 23 27  1  0  0  0  0
 24 23  1  0  0  0  0
 24 28  1  0  0  0  0
 25 24  2  0  0  0  0
 26 25  1  0  0  0  0
 26 22  1  0  0  0  0
 29 30  1  0  0  0  0
 29 25  1  0  0  0  0
 30 35  1  0  0  0  0
 31 36  1  0  0  0  0
 31 30  2  0  0  0  0
 32 31  1  0  0  0  0
 33 32  2  0  0  0  0
 33 34  1  0  0  0  0
 34 29  2  0  0  0  0
 37 32  1  0  0  0  0
 38 33  1  0  0  0  0
 39  2  1  0  0  0  0
 40 39  1  0  0  0  0
 41 39  1  0  0  0  0
M  END
>  <minimizedAffinity>
-6.30132866

$$$$

 OpenBabel03242518223D

 41 44  0  0  0  0  0  0  0  0999 V2000
   34.9530   29.1630   40.0540 C   0  0  0  0  0  0  0  0  0  0  0  0
   35.8240   30.2030   40.3770 C   0  0  0  0  0  0  0  0  0  0  0  0
   36.5400   30.7630   39.3470 C   0  0  0  0  0  0  0  0  0  0  0  0
   36.3760   30.2950   38.0770 N   0  0  0  0  0  0  0  0  0  0  0  0
   35.5210   29.2860   37.8150 C   0  0  0  0  0  0  0  0  0  0  0  0
   34.8050   28.7150   38.8030 N   0  0  0  0  0  0  0  0  0  0  0  0
   34.3390   28.6480   40.8000 H   0  0  0  0  0  0  0  0  0  0  0  0
   39.4050   29.9050   39.6130 Cl  0  0  0  0  0  0  0  0  0  0  0  0
   38.8070   31.5500   39.6580 C   0  0  0  0  0  0  0  0  0  0  0  0
   37.4650   31.8430   39.5200 C   0  0  0  0  0  0  0  0  0  0  0  0
   37.2370   33.1930   39.5820 C   0  0  0  0  0  0  0  0  0  0  0  0
   36.2400   33.5330   39.4880 H   0  0  0  0  0  0  0  0  0  0  0  0
   38.1740   34.1850   39.7560 C   0  0  0  0  0  0  0  0  0  0  0  0
   37.9090   35.2180   39.7930 H   0  0  0  0  0  0  0  0  0  0  0  0
   39.4920   33.8340   39.8870 C   0  0  0  0  0  0  0  0  0  0  0  0
   40.2480   34.5840   40.0250 H   0  0  0  0  0  0  0  0  0  0  0  0
   39.8070   32.4990   39.8370 C   0  0  0  0  0  0  0  0  0  0  0  0
   41.4960   32.0850   40.0070 Cl  0  0  0  0  0  0  0  0  0  0  0  0
   35.3640   28.7990   36.4200 C   0  0  0  0  0  0  0  0  0  0  0  0
   36.0650   29.3440   35.7570 H   0  0  0  0  0  0  0  0  0  0  0  0
   35.6570   27.7420   36.3840 H   0  0  0  0  0  0  0  0  0  0  0  0
   33.9550   28.9660   35.9410 C   0  0  0  0  0  0  0  0  0  0  0  0
   32.9200   28.1410   36.3100 C   0  0  0  0  0  0  0  0  0  0  0  0
   31.7740   28.5720   35.6980 C   0  0  0  0  0  0  0  0  0  0  0  0
   32.1690   29.6830   34.9530 C   0  0  0  0  0  0  0  0  0  0  0  0
   33.4290   29.8380   35.1490 O   0  0  0  0  0  0  0  0  0  0  0  0
   32.8780   27.2720   36.9590 H   0  0  0  0  0  0  0  0  0  0  0  0
   30.7740   28.1790   35.7460 H   0  0  0  0  0  0  0  0  0  0  0  0
   31.2830   30.4880   34.1200 C   0  0  0  0  0  0  0  0  0  0  0  0
   30.5440   29.9010   33.1280 C   0  0  0  0  0  0  0  0  0  0  0  0
   29.6810   30.6140   32.3020 C   0  0  0  0  0  0  0  0  0  0  0  0
   29.6430   31.9900   32.5830 C   0  0  0  0  0  0  0  0  0  0  0  0
   30.3730   32.5980   33.5680 C   0  0  0  0  0  0  0  0  0  0  0  0
   31.1730   31.8090   34.3040 N   0  0  0  0  0  0  0  0  0  0  0  0
   30.6290   28.8330   32.9770 H   0  0  0  0  0  0  0  0  0  0  0  0
   29.1040   30.1590   31.5280 H   0  0  0  0  0  0  0  0  0  0  0  0
   28.9890   32.5920   31.9690 H   0  0  0  0  0  0  0  0  0  0  0  0
   30.2700   33.6670   33.6990 H   0  0  0  0  0  0  0  0  0  0  0  0
   35.9020   30.6000   41.7120 N   0  0  0  0  0  0  0  0  0  0  0  0
   35.1660   31.3670   41.6530 H   0  0  0  0  0  0  0  0  0  0  0  0
   36.6170   30.0050   42.1840 H   0  0  0  0  0  0  0  0  0  0  0  0
  1  2  1  0  0  0  0
  1  7  1  0  0  0  0
  2 39  1  0  0  0  0
  3 10  1  0  0  0  0
  3  2  2  0  0  0  0
  4  3  1  0  0  0  0
  5  4  2  0  0  0  0
  5  6  1  0  0  0  0
  6  1  2  0  0  0  0
  8  9  1  0  0  0  0
  9 17  1  0  0  0  0
 10 11  1  0  0  0  0
 10  9  2  0  0  0  0
 11 13  2  0  0  0  0
 12 11  1  0  0  0  0
 13 14  1  0  0  0  0
 13 15  1  0  0  0  0
 15 16  1  0  0  0  0
 17 15  2  0  0  0  0
 17 18  1  0  0  0  0
 19  5  1  0  0  0  0
 20 19  1  0  0  0  0
 21 19  1  0  0  0  0
 22 23  2  0  0  0  0
 22 19  1  0  0  0  0
 23 27  1  0  0  0  0
 24 28  1  0  0  0  0
 24 23  1  0  0  0  0
 25 26  1  0  0  0  0
 25 24  2  0  0  0  0
 26 22  1  0  0  0  0
 29 34  1  0  0  0  0
 29 25  1  0  0  0  0
 30 29  2  0  0  0  0
 31 32  2  0  0  0  0
 31 30  1  0  0  0  0
 32 33  1  0  0  0  0
 33 38  1  0  0  0  0
 33 34  2  0  0  0  0
 35 30  1  0  0  0  0
 36 31  1  0  0  0  0
 37 32  1  0  0  0  0
 39 41  1  0  0  0  0
 40 39  1  0  0  0  0
M  END
>  <minimizedAffinity>
-6.19742441

$$$$

 OpenBabel03242518223D

 41 44  0  0  0  0  0  0  0  0999 V2000
   36.6180   31.4720   40.3330 C   0  0  0  0  0  0  0  0  0  0  0  0
   37.5990   32.1930   39.6540 C   0  0  0  0  0  0  0  0  0  0  0  0
   38.8990   32.0210   40.0650 C   0  0  0  0  0  0  0  0  0  0  0  0
   39.1760   31.1730   41.0950 N   0  0  0  0  0  0  0  0  0  0  0  0
   38.1910   30.4960   41.7210 C   0  0  0  0  0  0  0  0  0  0  0  0
   36.9070   30.6430   41.3420 N   0  0  0  0  0  0  0  0  0  0  0  0
   35.5540   31.5370   40.0850 H   0  0  0  0  0  0  0  0  0  0  0  0
   40.3470   30.3850   38.0050 Cl  0  0  0  0  0  0  0  0  0  0  0  0
   40.7490   32.0130   38.5060 C   0  0  0  0  0  0  0  0  0  0  0  0
   40.0150   32.6860   39.4620 C   0  0  0  0  0  0  0  0  0  0  0  0
   40.5140   33.9430   39.6850 C   0  0  0  0  0  0  0  0  0  0  0  0
   40.0270   34.5500   40.4020 H   0  0  0  0  0  0  0  0  0  0  0  0
   41.5990   34.5260   39.0730 C   0  0  0  0  0  0  0  0  0  0  0  0
   41.9220   35.5160   39.3070 H   0  0  0  0  0  0  0  0  0  0  0  0
   42.2900   33.8100   38.1310 C   0  0  0  0  0  0  0  0  0  0  0  0
   43.1420   34.2350   37.6350 H   0  0  0  0  0  0  0  0  0  0  0  0
   41.8560   32.5390   37.8480 C   0  0  0  0  0  0  0  0  0  0  0  0
   42.7580   31.6520   36.6420 Cl  0  0  0  0  0  0  0  0  0  0  0  0
   38.5250   29.5780   42.8390 C   0  0  0  0  0  0  0  0  0  0  0  0
   39.5870   29.7130   43.1250 H   0  0  0  0  0  0  0  0  0  0  0  0
   37.9260   29.8600   43.7150 H   0  0  0  0  0  0  0  0  0  0  0  0
   38.2630   28.1500   42.4670 C   0  0  0  0  0  0  0  0  0  0  0  0
   38.7670   27.0760   43.1590 C   0  0  0  0  0  0  0  0  0  0  0  0
   38.3370   25.9240   42.5570 C   0  0  0  0  0  0  0  0  0  0  0  0
   37.5600   26.3570   41.4830 C   0  0  0  0  0  0  0  0  0  0  0  0
   37.5710   27.6410   41.5050 O   0  0  0  0  0  0  0  0  0  0  0  0
   39.4020   27.0080   44.0370 H   0  0  0  0  0  0  0  0  0  0  0  0
   38.5270   24.8960   42.8130 H   0  0  0  0  0  0  0  0  0  0  0  0
   36.8800   25.4790   40.5360 C   0  0  0  0  0  0  0  0  0  0  0  0
   36.6250   24.1750   40.8640 C   0  0  0  0  0  0  0  0  0  0  0  0
   35.9810   23.2900   40.0060 C   0  0  0  0  0  0  0  0  0  0  0  0
   35.6200   23.8620   38.7740 C   0  0  0  0  0  0  0  0  0  0  0  0
   35.8660   25.1630   38.4260 C   0  0  0  0  0  0  0  0  0  0  0  0
   36.4950   25.9250   39.3360 N   0  0  0  0  0  0  0  0  0  0  0  0
   36.9350   23.8100   41.8350 H   0  0  0  0  0  0  0  0  0  0  0  0
   35.7810   22.2720   40.2580 H   0  0  0  0  0  0  0  0  0  0  0  0
   35.1170   23.2170   38.0690 H   0  0  0  0  0  0  0  0  0  0  0  0
   35.5470   25.5030   37.4500 H   0  0  0  0  0  0  0  0  0  0  0  0
   37.1960   33.0270   38.6110 N   0  0  0  0  0  0  0  0  0  0  0  0
   37.3210   32.3140   37.8320 H   0  0  0  0  0  0  0  0  0  0  0  0
   36.9530   33.9560   39.0180 H   0  0  0  0  0  0  0  0  0  0  0  0
  1  6  1  0  0  0  0
  2  3  1  0  0  0  0
  2  1  2  0  0  0  0
  3  4  2  0  0  0  0
  4  5  1  0  0  0  0
  5 19  1  0  0  0  0
  6  5  2  0  0  0  0
  7  1  1  0  0  0  0
  8  9  1  0  0  0  0
  9 10  1  0  0  0  0
 10 11  2  0  0  0  0
 10  3  1  0  0  0  0
 11 12  1  0  0  0  0
 13 14  1  0  0  0  0
 13 11  1  0  0  0  0
 15 13  2  0  0  0  0
 16 15  1  0  0  0  0
 17 15  1  0  0  0  0
 17  9  2  0  0  0  0
 18 17  1  0  0  0  0
 19 20  1  0  0  0  0
 19 21  1  0  0  0  0
 22 19  1  0  0  0  0
 22 23  2  0  0  0  0
 23 27  1  0  0  0  0
 24 28  1  0  0  0  0
 24 23  1  0  0  0  0
 25 26  1  0  0  0  0
 25 24  2  0  0  0  0
 26 22  1  0  0  0  0
 29 30  1  0  0  0  0
 29 25  1  0  0  0  0
 30 35  1  0  0  0  0
 31 36  1  0  0  0  0
 31 30  2  0  0  0  0
 32 31  1  0  0  0  0
 33 32  2  0  0  0  0
 33 34  1  0  0  0  0
 34 29  2  0  0  0  0
 37 32  1  0  0  0  0
 38 33  1  0  0  0  0
 39 41  1  0  0  0  0
 39  2  1  0  0  0  0
 40 39  1  0  0  0  0
M  END
>  <minimizedAffinity>
-6.1244607

$$$$

 OpenBabel03242518223D

 41 44  0  0  0  0  0  0  0  0999 V2000
   37.8560   31.2760   37.4130 C   0  0  0  0  0  0  0  0  0  0  0  0
   39.0510   31.9010   37.7670 C   0  0  0  0  0  0  0  0  0  0  0  0
   39.2950   32.0710   39.1080 C   0  0  0  0  0  0  0  0  0  0  0  0
   38.3840   31.6320   40.0220 N   0  0  0  0  0  0  0  0  0  0  0  0
   37.2410   31.0320   39.6300 C   0  0  0  0  0  0  0  0  0  0  0  0
   36.9720   30.8520   38.3220 N   0  0  0  0  0  0  0  0  0  0  0  0
   37.5650   31.0930   36.3730 H   0  0  0  0  0  0  0  0  0  0  0  0
   41.5460   30.1590   39.6510 Cl  0  0  0  0  0  0  0  0  0  0  0  0
   41.5690   31.8900   39.9140 C   0  0  0  0  0  0  0  0  0  0  0  0
   40.4800   32.6870   39.6260 C   0  0  0  0  0  0  0  0  0  0  0  0
   40.7330   34.0040   39.9080 C   0  0  0  0  0  0  0  0  0  0  0  0
   39.9640   34.7080   39.7250 H   0  0  0  0  0  0  0  0  0  0  0  0
   41.8970   34.5360   40.4120 C   0  0  0  0  0  0  0  0  0  0  0  0
   42.0110   35.5800   40.6030 H   0  0  0  0  0  0  0  0  0  0  0  0
   42.9460   33.6960   40.6780 C   0  0  0  0  0  0  0  0  0  0  0  0
   43.8690   34.0780   41.0730 H   0  0  0  0  0  0  0  0  0  0  0  0
   42.7750   32.3570   40.4250 C   0  0  0  0  0  0  0  0  0  0  0  0
   44.1320   31.3130   40.7750 Cl  0  0  0  0  0  0  0  0  0  0  0  0
   36.2680   30.5640   40.6500 C   0  0  0  0  0  0  0  0  0  0  0  0
   36.1490   31.3400   41.4320 H   0  0  0  0  0  0  0  0  0  0  0  0
   35.2870   30.4490   40.1710 H   0  0  0  0  0  0  0  0  0  0  0  0
   36.7050   29.2690   41.2630 C   0  0  0  0  0  0  0  0  0  0  0  0
   36.9930   29.1140   42.5970 C   0  0  0  0  0  0  0  0  0  0  0  0
   37.3570   27.8130   42.8200 C   0  0  0  0  0  0  0  0  0  0  0  0
   37.2740   27.2050   41.5690 C   0  0  0  0  0  0  0  0  0  0  0  0
   36.8950   28.1060   40.7370 O   0  0  0  0  0  0  0  0  0  0  0  0
   36.9760   29.8090   43.4310 H   0  0  0  0  0  0  0  0  0  0  0  0
   37.6490   27.3230   43.7320 H   0  0  0  0  0  0  0  0  0  0  0  0
   37.5730   25.8020   41.3000 C   0  0  0  0  0  0  0  0  0  0  0  0
   36.6180   24.9850   40.7560 C   0  0  0  0  0  0  0  0  0  0  0  0
   36.8420   23.6400   40.4770 C   0  0  0  0  0  0  0  0  0  0  0  0
   38.1360   23.2050   40.8060 C   0  0  0  0  0  0  0  0  0  0  0  0
   39.1040   24.0040   41.3510 C   0  0  0  0  0  0  0  0  0  0  0  0
   38.7750   25.2860   41.5780 N   0  0  0  0  0  0  0  0  0  0  0  0
   35.6440   25.3980   40.5300 H   0  0  0  0  0  0  0  0  0  0  0  0
   36.1000   23.0000   40.0520 H   0  0  0  0  0  0  0  0  0  0  0  0
   38.3630   22.1670   40.6100 H   0  0  0  0  0  0  0  0  0  0  0  0
   40.0700   23.5670   41.5690 H   0  0  0  0  0  0  0  0  0  0  0  0
   39.9090   32.3020   36.7420 N   0  0  0  0  0  0  0  0  0  0  0  0
   40.4940   31.4140   36.7220 H   0  0  0  0  0  0  0  0  0  0  0  0
   39.6270   33.2600   36.4430 H   0  0  0  0  0  0  0  0  0  0  0  0
  1  2  2  0  0  0  0
  1  6  1  0  0  0  0
  2  3  1  0  0  0  0
  3 10  1  0  0  0  0
  3  4  2  0  0  0  0
  5  4  1  0  0  0  0
  5 19  1  0  0  0  0
  6  5  2  0  0  0  0
  7  1  1  0  0  0  0
  8  9  1  0  0  0  0
  9 17  1  0  0  0  0
 10 11  1  0  0  0  0
 10  9  2  0  0  0  0
 11 13  2  0  0  0  0
 12 11  1  0  0  0  0
 13 14  1  0  0  0  0
 13 15  1  0  0  0  0
 15 16  1  0  0  0  0
 17 15  2  0  0  0  0
 17 18  1  0  0  0  0
 19 22  1  0  0  0  0
 19 20  1  0  0  0  0
 21 19  1  0  0  0  0
 22 23  2  0  0  0  0
 23 24  1  0  0  0  0
 23 27  1  0  0  0  0
 24 28  1  0  0  0  0
 25 24  2  0  0  0  0
 26 22  1  0  0  0  0
 26 25  1  0  0  0  0
 29 25  1  0  0  0  0
 29 34  1  0  0  0  0
 30 29  2  0  0  0  0
 31 30  1  0  0  0  0
 31 32  2  0  0  0  0
 32 33  1  0  0  0  0
 33 38  1  0  0  0  0
 33 34  2  0  0  0  0
 35 30  1  0  0  0  0
 36 31  1  0  0  0  0
 37 32  1  0  0  0  0
 39  2  1  0  0  0  0
 40 39  1  0  0  0  0
 41 39  1  0  0  0  0
M  END
>  <minimizedAffinity>
-6.12042904

$$$$

 OpenBabel03242518223D

 41 44  0  0  0  0  0  0  0  0999 V2000
   36.4650   30.8900   40.4760 C   0  0  0  0  0  0  0  0  0  0  0  0
   37.4240   31.2580   39.5330 C   0  0  0  0  0  0  0  0  0  0  0  0
   38.7330   30.9540   39.8210 C   0  0  0  0  0  0  0  0  0  0  0  0
   39.0390   30.3190   40.9870 N   0  0  0  0  0  0  0  0  0  0  0  0
   38.0740   29.9840   41.8690 C   0  0  0  0  0  0  0  0  0  0  0  0
   36.7820   30.2680   41.6160 N   0  0  0  0  0  0  0  0  0  0  0  0
   35.3960   31.0860   40.3440 H   0  0  0  0  0  0  0  0  0  0  0  0
   39.8420   33.7250   40.1530 Cl  0  0  0  0  0  0  0  0  0  0  0  0
   40.4030   32.5120   39.0210 C   0  0  0  0  0  0  0  0  0  0  0  0
   39.8270   31.2600   38.9490 C   0  0  0  0  0  0  0  0  0  0  0  0
   40.4340   30.4830   37.9960 C   0  0  0  0  0  0  0  0  0  0  0  0
   40.0720   29.4990   37.8540 H   0  0  0  0  0  0  0  0  0  0  0  0
   41.4850   30.8370   37.1820 C   0  0  0  0  0  0  0  0  0  0  0  0
   41.9000   30.1680   36.4630 H   0  0  0  0  0  0  0  0  0  0  0  0
   42.0160   32.0950   37.3000 C   0  0  0  0  0  0  0  0  0  0  0  0
   42.8360   32.4050   36.6790 H   0  0  0  0  0  0  0  0  0  0  0  0
   41.4650   32.9390   38.2320 C   0  0  0  0  0  0  0  0  0  0  0  0
   42.1650   34.5350   38.3560 Cl  0  0  0  0  0  0  0  0  0  0  0  0
   38.4400   29.2910   43.1310 C   0  0  0  0  0  0  0  0  0  0  0  0
   39.3830   29.7180   43.5280 H   0  0  0  0  0  0  0  0  0  0  0  0
   37.6640   29.4960   43.8800 H   0  0  0  0  0  0  0  0  0  0  0  0
   38.5840   27.8150   42.9190 C   0  0  0  0  0  0  0  0  0  0  0  0
   39.4100   27.0140   43.6680 C   0  0  0  0  0  0  0  0  0  0  0  0
   39.3030   25.7260   43.2160 C   0  0  0  0  0  0  0  0  0  0  0  0
   38.3820   25.7960   42.1710 C   0  0  0  0  0  0  0  0  0  0  0  0
   38.0230   27.0240   42.0690 O   0  0  0  0  0  0  0  0  0  0  0  0
   40.0800   27.2290   44.4960 H   0  0  0  0  0  0  0  0  0  0  0  0
   39.7940   24.8300   43.5530 H   0  0  0  0  0  0  0  0  0  0  0  0
   37.9400   24.6600   41.3690 C   0  0  0  0  0  0  0  0  0  0  0  0
   36.6570   24.6080   40.8930 C   0  0  0  0  0  0  0  0  0  0  0  0
   36.1770   23.5540   40.1240 C   0  0  0  0  0  0  0  0  0  0  0  0
   37.1310   22.5510   39.8850 C   0  0  0  0  0  0  0  0  0  0  0  0
   38.4170   22.5820   40.3510 C   0  0  0  0  0  0  0  0  0  0  0  0
   38.7700   23.6510   41.0840 N   0  0  0  0  0  0  0  0  0  0  0  0
   35.9830   25.4230   41.1220 H   0  0  0  0  0  0  0  0  0  0  0  0
   35.1770   23.5100   39.7510 H   0  0  0  0  0  0  0  0  0  0  0  0
   36.8090   21.7070   39.2920 H   0  0  0  0  0  0  0  0  0  0  0  0
   39.0720   21.7550   40.1100 H   0  0  0  0  0  0  0  0  0  0  0  0
   36.9900   31.8980   38.3720 N   0  0  0  0  0  0  0  0  0  0  0  0
   36.8880   31.0190   37.7810 H   0  0  0  0  0  0  0  0  0  0  0  0
   36.9500   32.9220   38.5650 H   0  0  0  0  0  0  0  0  0  0  0  0
  1  6  1  0  0  0  0
  2  3  1  0  0  0  0
  2  1  2  0  0  0  0
  3  4  2  0  0  0  0
  4  5  1  0  0  0  0
  5 19  1  0  0  0  0
  6  5  2  0  0  0  0
  7  1  1  0  0  0  0
  9  8  1  0  0  0  0
 10  9  1  0  0  0  0
 10  3  1  0  0  0  0
 11 10  2  0  0  0  0
 12 11  1  0  0  0  0
 13 15  2  0  0  0  0
 13 11  1  0  0  0  0
 14 13  1  0  0  0  0
 15 17  1  0  0  0  0
 16 15  1  0  0  0  0
 17 18  1  0  0  0  0
 17  9  2  0  0  0  0
 19 20  1  0  0  0  0
 19 21  1  0  0  0  0
 22 19  1  0  0  0  0
 22 23  2  0  0  0  0
 23 27  1  0  0  0  0
 24 28  1  0  0  0  0
 24 23  1  0  0  0  0
 25 24  2  0  0  0  0
 26 25  1  0  0  0  0
 26 22  1  0  0  0  0
 29 25  1  0  0  0  0
 30 35  1  0  0  0  0
 30 29  2  0  0  0  0
 31 30  1  0  0  0  0
 32 31  2  0  0  0  0
 32 33  1  0  0  0  0
 33 34  2  0  0  0  0
 34 29  1  0  0  0  0
 36 31  1  0  0  0  0
 37 32  1  0  0  0  0
 38 33  1  0  0  0  0
 39 41  1  0  0  0  0
 39  2  1  0  0  0  0
 40 39  1  0  0  0  0
M  END
>  <minimizedAffinity>
-6.11567545

$$$$

 OpenBabel03242518223D

 41 44  0  0  0  0  0  0  0  0999 V2000
   36.3100   27.2920   37.6090 C   0  0  0  0  0  0  0  0  0  0  0  0
   36.5610   26.9400   38.9350 C   0  0  0  0  0  0  0  0  0  0  0  0
   37.0590   27.9190   39.7590 C   0  0  0  0  0  0  0  0  0  0  0  0
   37.2830   29.1700   39.2660 N   0  0  0  0  0  0  0  0  0  0  0  0
   37.0250   29.4620   37.9740 C   0  0  0  0  0  0  0  0  0  0  0  0
   36.5370   28.5240   37.1400 N   0  0  0  0  0  0  0  0  0  0  0  0
   35.9140   26.5880   36.8710 H   0  0  0  0  0  0  0  0  0  0  0  0
   39.8040   26.8170   40.2810 Cl  0  0  0  0  0  0  0  0  0  0  0  0
   38.5940   27.2020   41.4870 C   0  0  0  0  0  0  0  0  0  0  0  0
   37.3580   27.7120   41.1450 C   0  0  0  0  0  0  0  0  0  0  0  0
   36.5850   27.9390   42.2530 C   0  0  0  0  0  0  0  0  0  0  0  0
   35.6120   28.3320   42.1090 H   0  0  0  0  0  0  0  0  0  0  0  0
   36.9290   27.7140   43.5660 C   0  0  0  0  0  0  0  0  0  0  0  0
   36.2630   27.9200   44.3740 H   0  0  0  0  0  0  0  0  0  0  0  0
   38.1710   27.2070   43.8450 C   0  0  0  0  0  0  0  0  0  0  0  0
   38.4710   27.0190   44.8590 H   0  0  0  0  0  0  0  0  0  0  0  0
   39.0100   26.9490   42.7900 C   0  0  0  0  0  0  0  0  0  0  0  0
   40.5860   26.3030   43.1800 Cl  0  0  0  0  0  0  0  0  0  0  0  0
   37.2790   30.8350   37.4670 C   0  0  0  0  0  0  0  0  0  0  0  0
   37.9130   30.7830   36.5600 H   0  0  0  0  0  0  0  0  0  0  0  0
   36.3230   31.2750   37.1560 H   0  0  0  0  0  0  0  0  0  0  0  0
   37.9310   31.6880   38.5110 C   0  0  0  0  0  0  0  0  0  0  0  0
   37.2520   32.5920   39.2910 C   0  0  0  0  0  0  0  0  0  0  0  0
   38.1410   33.1990   40.1370 C   0  0  0  0  0  0  0  0  0  0  0  0
   39.3710   32.6200   39.8280 C   0  0  0  0  0  0  0  0  0  0  0  0
   39.1610   31.7690   38.8900 O   0  0  0  0  0  0  0  0  0  0  0  0
   36.2040   32.8750   39.3340 H   0  0  0  0  0  0  0  0  0  0  0  0
   37.9800   33.9550   40.8850 H   0  0  0  0  0  0  0  0  0  0  0  0
   40.6370   32.9510   40.4750 C   0  0  0  0  0  0  0  0  0  0  0  0
   41.2330   34.1620   40.2470 C   0  0  0  0  0  0  0  0  0  0  0  0
   42.4370   34.5360   40.8340 C   0  0  0  0  0  0  0  0  0  0  0  0
   42.9800   33.5540   41.6800 C   0  0  0  0  0  0  0  0  0  0  0  0
   42.4020   32.3380   41.9210 C   0  0  0  0  0  0  0  0  0  0  0  0
   41.2380   32.0860   41.2990 N   0  0  0  0  0  0  0  0  0  0  0  0
   40.7490   34.8650   39.5820 H   0  0  0  0  0  0  0  0  0  0  0  0
   42.9050   35.4800   40.6590 H   0  0  0  0  0  0  0  0  0  0  0  0
   43.9170   33.7930   42.1610 H   0  0  0  0  0  0  0  0  0  0  0  0
   42.9050   31.6520   42.5900 H   0  0  0  0  0  0  0  0  0  0  0  0
   36.2860   25.6300   39.3270 N   0  0  0  0  0  0  0  0  0  0  0  0
   35.2940   25.8120   39.6670 H   0  0  0  0  0  0  0  0  0  0  0  0
   37.1310   25.0510   39.1310 H   0  0  0  0  0  0  0  0  0  0  0  0
  1  2  1  0  0  0  0
  2 39  1  0  0  0  0
  2  3  2  0  0  0  0
  3 10  1  0  0  0  0
  4  3  1  0  0  0  0
  5  4  2  0  0  0  0
  6  1  2  0  0  0  0
  6  5  1  0  0  0  0
  7  1  1  0  0  0  0
  8  9  1  0  0  0  0
  9 17  1  0  0  0  0
 10  9  2  0  0  0  0
 10 11  1  0  0  0  0
 11 13  2  0  0  0  0
 12 11  1  0  0  0  0
 13 15  1  0  0  0  0
 13 14  1  0  0  0  0
 15 16  1  0  0  0  0
 17 18  1  0  0  0  0
 17 15  2  0  0  0  0
 19  5  1  0  0  0  0
 19 22  1  0  0  0  0
 20 19  1  0  0  0  0
 21 19  1  0  0  0  0
 22 26  1  0  0  0  0
 22 23  2  0  0  0  0
 23 27  1  0  0  0  0
 23 24  1  0  0  0  0
 24 28  1  0  0  0  0
 25 24  2  0  0  0  0
 25 29  1  0  0  0  0
 26 25  1  0  0  0  0
 29 34  1  0  0  0  0
 30 29  2  0  0  0  0
 30 31  1  0  0  0  0
 31 32  2  0  0  0  0
 32 33  1  0  0  0  0
 32 37  1  0  0  0  0
 33 38  1  0  0  0  0
 34 33  2  0  0  0  0
 35 30  1  0  0  0  0
 36 31  1  0  0  0  0
 39 40  1  0  0  0  0
 41 39  1  0  0  0  0
M  END
>  <minimizedAffinity>
-6.035604

$$$$

 OpenBabel03242518223D

 41 44  0  0  0  0  0  0  0  0999 V2000
   36.9330   31.5330   38.9830 C   0  0  0  0  0  0  0  0  0  0  0  0
   36.9930   30.4270   39.8310 C   0  0  0  0  0  0  0  0  0  0  0  0
   37.9610   30.4370   40.8060 C   0  0  0  0  0  0  0  0  0  0  0  0
   38.8070   31.5010   40.9070 N   0  0  0  0  0  0  0  0  0  0  0  0
   38.7110   32.5480   40.0620 C   0  0  0  0  0  0  0  0  0  0  0  0
   37.7730   32.5680   39.0960 N   0  0  0  0  0  0  0  0  0  0  0  0
   36.2010   31.6240   38.1750 H   0  0  0  0  0  0  0  0  0  0  0  0
   39.9660   28.3600   39.9800 Cl  0  0  0  0  0  0  0  0  0  0  0  0
   39.0370   28.3730   41.4640 C   0  0  0  0  0  0  0  0  0  0  0  0
   38.1400   29.3800   41.7560 C   0  0  0  0  0  0  0  0  0  0  0  0
   37.5380   29.1800   42.9700 C   0  0  0  0  0  0  0  0  0  0  0  0
   36.8280   29.8940   43.2960 H   0  0  0  0  0  0  0  0  0  0  0  0
   37.7500   28.1360   43.8400 C   0  0  0  0  0  0  0  0  0  0  0  0
   37.2360   28.0550   44.7710 H   0  0  0  0  0  0  0  0  0  0  0  0
   38.6530   27.1640   43.4970 C   0  0  0  0  0  0  0  0  0  0  0  0
   38.8430   26.3340   44.1520 H   0  0  0  0  0  0  0  0  0  0  0  0
   39.3020   27.2880   42.2930 C   0  0  0  0  0  0  0  0  0  0  0  0
   40.4480   26.0330   41.8860 Cl  0  0  0  0  0  0  0  0  0  0  0  0
   39.6480   33.6920   40.1990 C   0  0  0  0  0  0  0  0  0  0  0  0
   39.1160   34.6360   39.9700 H   0  0  0  0  0  0  0  0  0  0  0  0
   39.9670   33.7580   41.2470 H   0  0  0  0  0  0  0  0  0  0  0  0
   40.8360   33.5310   39.3010 C   0  0  0  0  0  0  0  0  0  0  0  0
   41.7350   34.5360   39.0370 C   0  0  0  0  0  0  0  0  0  0  0  0
   42.6930   34.0570   38.1850 C   0  0  0  0  0  0  0  0  0  0  0  0
   42.3280   32.7310   37.9550 C   0  0  0  0  0  0  0  0  0  0  0  0
   41.2570   32.5140   38.6290 O   0  0  0  0  0  0  0  0  0  0  0  0
   41.7950   35.5670   39.3740 H   0  0  0  0  0  0  0  0  0  0  0  0
   43.5510   34.5490   37.7610 H   0  0  0  0  0  0  0  0  0  0  0  0
   43.0560   31.8010   37.0980 C   0  0  0  0  0  0  0  0  0  0  0  0
   42.4180   30.7150   36.5600 C   0  0  0  0  0  0  0  0  0  0  0  0
   43.0570   29.7940   35.7360 C   0  0  0  0  0  0  0  0  0  0  0  0
   44.4130   30.0830   35.5130 C   0  0  0  0  0  0  0  0  0  0  0  0
   45.0700   31.1610   36.0410 C   0  0  0  0  0  0  0  0  0  0  0  0
   44.3510   31.9850   36.8230 N   0  0  0  0  0  0  0  0  0  0  0  0
   41.3700   30.5630   36.7800 H   0  0  0  0  0  0  0  0  0  0  0  0
   42.5630   28.9460   35.3140 H   0  0  0  0  0  0  0  0  0  0  0  0
   44.9570   29.3970   34.8800 H   0  0  0  0  0  0  0  0  0  0  0  0
   46.1180   31.2910   35.8060 H   0  0  0  0  0  0  0  0  0  0  0  0
   36.0680   29.4020   39.6350 N   0  0  0  0  0  0  0  0  0  0  0  0
   35.3380   29.7640   40.3200 H   0  0  0  0  0  0  0  0  0  0  0  0
   36.4650   28.7410   38.9320 H   0  0  0  0  0  0  0  0  0  0  0  0
  1  6  2  0  0  0  0
  1  2  1  0  0  0  0
  2  3  2  0  0  0  0
  3  4  1  0  0  0  0
  3 10  1  0  0  0  0
  5 19  1  0  0  0  0
  5  4  2  0  0  0  0
  6  5  1  0  0  0  0
  7  1  1  0  0  0  0
  8  9  1  0  0  0  0
  9 10  2  0  0  0  0
  9 17  1  0  0  0  0
 10 11  1  0  0  0  0
 11 12  1  0  0  0  0
 11 13  2  0  0  0  0
 13 14  1  0  0  0  0
 15 13  1  0  0  0  0
 15 16  1  0  0  0  0
 17 15  2  0  0  0  0
 18 17  1  0  0  0  0
 19 21  1  0  0  0  0
 20 19  1  0  0  0  0
 22 19  1  0  0  0  0
 23 22  2  0  0  0  0
 23 27  1  0  0  0  0
 24 23  1  0  0  0  0
 25 24  2  0  0  0  0
 25 26  1  0  0  0  0
 26 22  1  0  0  0  0
 28 24  1  0  0  0  0
 29 25  1  0  0  0  0
 30 35  1  0  0  0  0
 30 29  2  0  0  0  0
 31 30  1  0  0  0  0
 32 31  2  0  0  0  0
 32 33  1  0  0  0  0
 33 34  2  0  0  0  0
 34 29  1  0  0  0  0
 36 31  1  0  0  0  0
 37 32  1  0  0  0  0
 38 33  1  0  0  0  0
 39  2  1  0  0  0  0
 39 40  1  0  0  0  0
 41 39  1  0  0  0  0
M  END
>  <minimizedAffinity>
-5.97327328

$$$$
