
 OpenBabel03252507333D

 51 54  0  0  1  0  0  0  0  0999 V2000
   47.0350   32.4770   45.3590 C   0  0  0  0  0  0  0  0  0  0  0  0
   46.0120   33.1890   45.9640 C   0  0  0  0  0  0  0  0  0  0  0  0
   45.3940   34.2550   45.2670 C   0  0  0  0  0  0  0  0  0  0  0  0
   45.8770   34.5180   43.9870 N   0  0  0  0  0  0  0  0  0  0  0  0
   46.8700   33.7920   43.4620 C   0  0  0  0  0  0  0  0  0  0  0  0
   47.4380   32.7910   44.1330 N   0  0  0  0  0  0  0  0  0  0  0  0
   45.5230   33.1870   46.9140 H   0  0  0  0  0  0  0  0  0  0  0  0
   44.6090   34.8990   45.5620 H   0  0  0  0  0  0  0  0  0  0  0  0
   47.6180   31.3780   46.1040 C   0  0  2  0  0  0  0  0  0  0  0  0
   47.1130   30.0010   45.5770 C   0  0  0  0  0  0  0  0  0  0  0  0
   47.8500   28.9050   46.2640 C   0  0  0  0  0  0  0  0  0  0  0  0
   48.0270   29.0550   47.7380 C   0  0  0  0  0  0  0  0  0  0  0  0
   48.2680   30.4080   48.1760 C   0  0  0  0  0  0  0  0  0  0  0  0
   47.3330   31.4500   47.5230 C   0  0  2  0  0  0  0  0  0  0  0  0
   48.7070   31.3310   45.8710 H   0  0  0  0  0  0  0  0  0  0  0  0
   46.0190   29.9350   45.6350 H   0  0  0  0  0  0  0  0  0  0  0  0
   47.3720   30.0250   44.4980 H   0  0  0  0  0  0  0  0  0  0  0  0
   47.2290   27.9720   46.1230 H   0  0  0  0  0  0  0  0  0  0  0  0
   48.7630   28.7140   45.6690 H   0  0  0  0  0  0  0  0  0  0  0  0
   47.6100   28.2860   48.3890 H   0  0  0  0  0  0  0  0  0  0  0  0
   49.1080   28.6360   47.8330 H   0  0  0  0  0  0  0  0  0  0  0  0
   49.2870   30.8450   48.0460 H   0  0  0  0  0  0  0  0  0  0  0  0
   48.0810   30.5000   49.2820 H   0  0  0  0  0  0  0  0  0  0  0  0
   47.6390   32.3600   48.0420 H   0  0  0  0  0  0  0  0  0  0  0  0
   45.9460   31.0570   47.7790 N   0  0  0  0  0  0  0  0  0  0  0  0
   45.2870   30.6700   48.9580 C   0  0  0  0  0  0  0  0  0  0  0  0
   44.9160   31.5070   49.8580 O   0  0  0  0  0  0  0  0  0  0  0  0
   45.0520   29.2660   49.0780 N   0  0  0  0  0  0  0  0  0  0  0  0
   45.2220   30.9520   46.9710 H   0  0  0  0  0  0  0  0  0  0  0  0
   44.4330   28.5430   48.6530 H   0  0  0  0  0  0  0  0  0  0  0  0
   45.2200   28.3060   49.4830 H   0  0  0  0  0  0  0  0  0  0  0  0
   47.3440   34.1360   42.1170 C   0  0  0  0  0  0  0  0  0  0  0  0
   48.2420   35.1620   41.9250 C   0  0  0  0  0  0  0  0  0  0  0  0
   48.7320   35.5410   40.6900 C   0  0  0  0  0  0  0  0  0  0  0  0
   48.2510   34.8040   39.6240 C   0  0  0  0  0  0  0  0  0  0  0  0
   47.3540   33.7790   39.8030 C   0  0  0  0  0  0  0  0  0  0  0  0
   46.9040   33.4490   41.0520 N   0  0  0  0  0  0  0  0  0  0  0  0
   48.5670   35.6840   42.8130 H   0  0  0  0  0  0  0  0  0  0  0  0
   49.4460   36.3640   40.5990 H   0  0  0  0  0  0  0  0  0  0  0  0
   48.6200   35.0830   38.6480 H   0  0  0  0  0  0  0  0  0  0  0  0
   44.3840   33.5270   39.6530 Cl  0  0  0  0  0  0  0  0  0  0  0  0
   45.4930   32.8010   38.4970 C   0  0  0  0  0  0  0  0  0  0  0  0
   46.8400   32.9980   38.6870 C   0  0  0  0  0  0  0  0  0  0  0  0
   47.6400   32.3980   37.7380 C   0  0  0  0  0  0  0  0  0  0  0  0
   48.6970   32.4870   37.7920 H   0  0  0  0  0  0  0  0  0  0  0  0
   47.1690   31.6610   36.6860 C   0  0  0  0  0  0  0  0  0  0  0  0
   47.8280   31.1950   35.9470 H   0  0  0  0  0  0  0  0  0  0  0  0
   45.8060   31.4850   36.5300 C   0  0  0  0  0  0  0  0  0  0  0  0
   45.3680   30.9190   35.7250 H   0  0  0  0  0  0  0  0  0  0  0  0
   44.9650   32.0680   37.4540 C   0  0  0  0  0  0  0  0  0  0  0  0
   43.2140   31.8850   37.3150 Cl  0  0  0  0  0  0  0  0  0  0  0  0
  1  2  1  0  0  0  0
  1  9  1  0  0  0  0
  2  7  1  0  0  0  0
  3  8  1  0  0  0  0
  3  2  2  0  0  0  0
  4  3  1  0  0  0  0
  5  4  2  0  0  0  0
  5  6  1  0  0  0  0
  6  1  2  0  0  0  0
  9 15  1  6  0  0  0
  9 14  1  0  0  0  0
 10 16  1  0  0  0  0
 10  9  1  0  0  0  0
 10 11  1  0  0  0  0
 11 12  1  0  0  0  0
 12 21  1  0  0  0  0
 12 13  1  0  0  0  0
 12 20  1  0  0  0  0
 13 23  1  0  0  0  0
 14 25  1  0  0  0  0
 14 24  1  1  0  0  0
 14 13  1  0  0  0  0
 17 10  1  0  0  0  0
 18 11  1  0  0  0  0
 19 11  1  0  0  0  0
 22 13  1  0  0  0  0
 25 26  1  0  0  0  0
 26 28  1  0  0  0  0
 26 27  2  0  0  0  0
 28 31  1  0  0  0  0
 29 25  1  0  0  0  0
 30 28  1  0  0  0  0
 32  5  1  0  0  0  0
 33 32  1  0  0  0  0
 33 38  1  0  0  0  0
 34 33  2  0  0  0  0
 35 36  2  0  0  0  0
 35 34  1  0  0  0  0
 36 37  1  0  0  0  0
 37 32  2  0  0  0  0
 39 34  1  0  0  0  0
 40 35  1  0  0  0  0
 42 43  1  0  0  0  0
 42 41  1  0  0  0  0
 43 36  1  0  0  0  0
 44 45  1  0  0  0  0
 44 43  2  0  0  0  0
 46 44  1  0  0  0  0
 47 46  1  0  0  0  0
 48 46  2  0  0  0  0
 48 50  1  0  0  0  0
 49 48  1  0  0  0  0
 50 42  2  0  0  0  0
 51 50  1  0  0  0  0
M  END
>  <minimizedAffinity>
-6.54777861

>  <minimizedRMSD>
1.18076622

$$$$
