
 OpenBabel03252506253D

 47 51  0  0  0  0  0  0  0  0999 V2000
   45.5350   27.7150   47.8440 C   0  0  0  0  0  0  0  0  0  0  0  0
   44.9830   28.9760   47.7430 C   0  0  0  0  0  0  0  0  0  0  0  0
   44.1600   29.2070   46.6390 C   0  0  0  0  0  0  0  0  0  0  0  0
   43.9090   28.2330   45.7000 C   0  0  0  0  0  0  0  0  0  0  0  0
   43.1850   28.1560   44.5660 N   0  0  0  0  0  0  0  0  0  0  0  0
   43.2830   26.9410   44.0130 C   0  0  0  0  0  0  0  0  0  0  0  0
   44.1050   26.1500   44.7930 C   0  0  0  0  0  0  0  0  0  0  0  0
   44.4690   26.9840   45.8200 C   0  0  0  0  0  0  0  0  0  0  0  0
   45.2820   26.7480   46.9060 C   0  0  0  0  0  0  0  0  0  0  0  0
   46.1640   27.6070   48.7290 H   0  0  0  0  0  0  0  0  0  0  0  0
   43.6610   30.1390   46.4270 H   0  0  0  0  0  0  0  0  0  0  0  0
   42.6210   28.9420   44.1720 H   0  0  0  0  0  0  0  0  0  0  0  0
   42.7930   26.6220   43.0940 H   0  0  0  0  0  0  0  0  0  0  0  0
   44.3850   25.1230   44.6210 H   0  0  0  0  0  0  0  0  0  0  0  0
   47.9790   26.2200   45.5840 Cl  0  0  0  0  0  0  0  0  0  0  0  0
   47.1370   25.0860   46.6170 C   0  0  0  0  0  0  0  0  0  0  0  0
   45.9310   25.4630   47.1420 C   0  0  0  0  0  0  0  0  0  0  0  0
   45.1820   24.6290   47.9790 C   0  0  0  0  0  0  0  0  0  0  0  0
   44.2250   24.8940   48.4110 H   0  0  0  0  0  0  0  0  0  0  0  0
   45.7010   23.3760   48.2760 C   0  0  0  0  0  0  0  0  0  0  0  0
   45.1310   22.7140   48.9250 H   0  0  0  0  0  0  0  0  0  0  0  0
   46.9230   22.9870   47.7480 C   0  0  0  0  0  0  0  0  0  0  0  0
   47.2900   22.0030   48.0050 H   0  0  0  0  0  0  0  0  0  0  0  0
   47.6500   23.8220   46.9230 C   0  0  0  0  0  0  0  0  0  0  0  0
   49.1870   23.3480   46.2520 Cl  0  0  0  0  0  0  0  0  0  0  0  0
   45.1150   30.1420   48.6140 C   0  0  0  0  0  0  0  0  0  0  0  0
   44.2610   30.8410   48.5000 H   0  0  0  0  0  0  0  0  0  0  0  0
   45.0110   29.7520   49.6650 H   0  0  0  0  0  0  0  0  0  0  0  0
   46.3970   30.8830   48.5620 C   0  0  0  0  0  0  0  0  0  0  0  0
   47.2640   30.2600   48.7850 H   0  0  0  0  0  0  0  0  0  0  0  0
   46.3420   31.6890   49.3280 H   0  0  0  0  0  0  0  0  0  0  0  0
   46.2580   32.9720   45.6710 C   0  0  0  0  0  0  0  0  0  0  0  0
   47.1940   31.9990   45.2750 C   0  0  0  0  0  0  0  0  0  0  0  0
   47.3610   31.1140   46.2870 C   0  0  0  0  0  0  0  0  0  0  0  0
   46.5500   31.5300   47.2730 N   0  0  0  0  0  0  0  0  0  0  0  0
   45.8960   32.6360   46.9050 N   0  0  0  0  0  0  0  0  0  0  0  0
   47.7510   31.8870   44.3340 H   0  0  0  0  0  0  0  0  0  0  0  0
   47.9940   30.2240   46.3690 H   0  0  0  0  0  0  0  0  0  0  0  0
   44.4870   35.9480   44.5300 C   0  0  0  0  0  0  0  0  0  0  0  0
   45.0200   36.1850   43.2660 C   0  0  0  0  0  0  0  0  0  0  0  0
   45.9980   35.3030   42.8160 C   0  0  0  0  0  0  0  0  0  0  0  0
   46.3640   34.2850   43.6230 N   0  0  0  0  0  0  0  0  0  0  0  0
   45.8420   34.0780   44.8270 C   0  0  0  0  0  0  0  0  0  0  0  0
   44.8960   34.9190   45.2780 N   0  0  0  0  0  0  0  0  0  0  0  0
   43.7250   36.6650   44.8380 H   0  0  0  0  0  0  0  0  0  0  0  0
   44.7870   36.9610   42.5720 H   0  0  0  0  0  0  0  0  0  0  0  0
   46.5350   35.3010   41.8860 H   0  0  0  0  0  0  0  0  0  0  0  0
  1 10  1  0  0  0  0
  2  1  1  0  0  0  0
  2 26  1  0  0  0  0
  3  2  2  0  0  0  0
  4  8  2  0  0  0  0
  4  3  1  0  0  0  0
  5  4  1  0  0  0  0
  6  5  1  0  0  0  0
  6  7  2  0  0  0  0
  7  8  1  0  0  0  0
  8  9  1  0  0  0  0
  9 17  1  0  0  0  0
  9  1  2  0  0  0  0
 11  3  1  0  0  0  0
 12  5  1  0  0  0  0
 13  6  1  0  0  0  0
 14  7  1  0  0  0  0
 15 16  1  0  0  0  0
 16 24  2  0  0  0  0
 16 17  1  0  0  0  0
 17 18  2  0  0  0  0
 18 20  1  0  0  0  0
 18 19  1  0  0  0  0
 20 21  1  0  0  0  0
 22 23  1  0  0  0  0
 22 20  2  0  0  0  0
 24 22  1  0  0  0  0
 25 24  1  0  0  0  0
 26 28  1  0  0  0  0
 27 26  1  0  0  0  0
 29 26  1  0  0  0  0
 29 30  1  0  0  0  0
 29 31  1  0  0  0  0
 32 36  2  0  0  0  0
 33 32  1  0  0  0  0
 33 34  2  0  0  0  0
 34 38  1  0  0  0  0
 34 35  1  0  0  0  0
 35 29  1  0  0  0  0
 36 35  1  0  0  0  0
 37 33  1  0  0  0  0
 39 45  1  0  0  0  0
 39 44  1  0  0  0  0
 40 39  2  0  0  0  0
 41 40  1  0  0  0  0
 41 42  2  0  0  0  0
 42 43  1  0  0  0  0
 43 44  2  0  0  0  0
 43 32  1  0  0  0  0
 46 40  1  0  0  0  0
 47 41  1  0  0  0  0
M  END
>  <minimizedAffinity>
-5.38402367

>  <minimizedRMSD>
1.89915419

$$$$
