
 OpenBabel03252502243D

 36 38  0  0  1  0  0  0  0  0999 V2000
   46.7640   34.5380   42.2790 N   0  0  0  0  0  0  0  0  0  0  0  0
   48.2260   34.6140   42.3030 C   0  0  0  0  0  0  0  0  0  0  0  0
   48.5530   35.3790   41.0010 C   0  0  0  0  0  0  0  0  0  0  0  0
   48.1960   34.5180   39.8250 C   0  0  0  0  0  0  0  0  0  0  0  0
   46.8880   33.8240   39.9490 C   0  0  0  0  0  0  0  0  0  0  0  0
   46.0010   34.2640   41.0810 C   0  0  1  0  0  0  0  0  0  0  0  0
   48.7080   33.6300   42.2640 H   0  0  0  0  0  0  0  0  0  0  0  0
   48.5340   35.2480   43.1450 H   0  0  0  0  0  0  0  0  0  0  0  0
   49.6360   35.5680   41.0270 H   0  0  0  0  0  0  0  0  0  0  0  0
   47.9680   36.3220   41.0350 H   0  0  0  0  0  0  0  0  0  0  0  0
   48.2640   35.1800   38.9260 H   0  0  0  0  0  0  0  0  0  0  0  0
   49.0140   33.7750   39.7070 H   0  0  0  0  0  0  0  0  0  0  0  0
   47.0340   32.7180   40.0440 H   0  0  0  0  0  0  0  0  0  0  0  0
   46.3190   33.9700   39.0070 H   0  0  0  0  0  0  0  0  0  0  0  0
   45.5750   35.2390   40.7800 H   0  0  0  0  0  0  0  0  0  0  0  0
   44.4580   35.9620   44.8660 C   0  0  0  0  0  0  0  0  0  0  0  0
   45.1400   35.8470   43.6400 C   0  0  0  0  0  0  0  0  0  0  0  0
   46.0240   34.7430   43.4870 C   0  0  0  0  0  0  0  0  0  0  0  0
   46.1400   33.8890   44.5330 N   0  0  0  0  0  0  0  0  0  0  0  0
   45.4680   34.0350   45.6910 C   0  0  0  0  0  0  0  0  0  0  0  0
   44.6210   35.0800   45.8550 N   0  0  0  0  0  0  0  0  0  0  0  0
   43.7750   36.7990   45.0080 H   0  0  0  0  0  0  0  0  0  0  0  0
   45.0260   36.5390   42.8370 H   0  0  0  0  0  0  0  0  0  0  0  0
   45.6740   33.2550   46.4370 H   0  0  0  0  0  0  0  0  0  0  0  0
   45.0980   33.2760   41.3450 O   0  0  0  0  0  0  0  0  0  0  0  0
   43.1160   35.5140   40.4840 Cl  0  0  0  0  0  0  0  0  0  0  0  0
   42.6900   33.9360   41.0440 C   0  0  0  0  0  0  0  0  0  0  0  0
   43.7680   33.1380   41.3610 C   0  0  0  0  0  0  0  0  0  0  0  0
   43.4320   31.8520   41.8190 C   0  0  0  0  0  0  0  0  0  0  0  0
   44.1180   31.0460   42.1290 H   0  0  0  0  0  0  0  0  0  0  0  0
   42.1080   31.4340   41.9370 C   0  0  0  0  0  0  0  0  0  0  0  0
   41.7970   30.4590   42.2820 H   0  0  0  0  0  0  0  0  0  0  0  0
   41.1160   32.2970   41.5990 C   0  0  0  0  0  0  0  0  0  0  0  0
   40.0660   32.0210   41.6710 H   0  0  0  0  0  0  0  0  0  0  0  0
   41.3720   33.5670   41.1450 C   0  0  0  0  0  0  0  0  0  0  0  0
   40.1550   34.7330   40.6900 Cl  0  0  0  0  0  0  0  0  0  0  0  0
  1  2  1  0  0  0  0
  1 18  1  0  0  0  0
  2  8  1  0  0  0  0
  3  9  1  0  0  0  0
  3 10  1  0  0  0  0
  3  2  1  0  0  0  0
  4  5  1  0  0  0  0
  4  3  1  0  0  0  0
  5 13  1  0  0  0  0
  5  6  1  0  0  0  0
  6 15  1  6  0  0  0
  6 25  1  0  0  0  0
  6  1  1  0  0  0  0
  7  2  1  0  0  0  0
 11  4  1  0  0  0  0
 12  4  1  0  0  0  0
 14  5  1  0  0  0  0
 16 22  1  0  0  0  0
 16 21  1  0  0  0  0
 17 16  2  0  0  0  0
 18 17  1  0  0  0  0
 18 19  2  0  0  0  0
 19 20  1  0  0  0  0
 20 21  2  0  0  0  0
 20 24  1  0  0  0  0
 23 17  1  0  0  0  0
 25 28  1  0  0  0  0
 26 27  1  0  0  0  0
 27 35  2  0  0  0  0
 27 28  1  0  0  0  0
 28 29  2  0  0  0  0
 29 31  1  0  0  0  0
 29 30  1  0  0  0  0
 31 32  1  0  0  0  0
 33 34  1  0  0  0  0
 33 31  2  0  0  0  0
 35 33  1  0  0  0  0
 36 35  1  0  0  0  0
M  END
>  <minimizedAffinity>
-6.11110687

>  <minimizedRMSD>
0.283244669

$$$$
