
 OpenBabel03252506463D

 44 47  0  0  1  0  0  0  0  0999 V2000
   49.1430   33.1610   41.4530 N   0  0  1  0  0  0  0  0  0  0  0  0
   50.5180   33.1300   41.8740 C   0  0  0  0  0  0  0  0  0  0  0  0
   51.1990   31.8240   41.6090 C   0  0  0  0  0  0  0  0  0  0  0  0
   50.5710   30.7570   42.4830 C   0  0  0  0  0  0  0  0  0  0  0  0
   49.0760   30.9740   42.5950 C   0  0  0  0  0  0  0  0  0  0  0  0
   48.5960   31.8310   41.4350 C   0  0  2  0  0  0  0  0  0  0  0  0
   51.0470   33.8930   41.2510 H   0  0  0  0  0  0  0  0  0  0  0  0
   50.6500   33.3920   42.9400 H   0  0  0  0  0  0  0  0  0  0  0  0
   52.2380   31.9400   41.9880 H   0  0  0  0  0  0  0  0  0  0  0  0
   51.2810   31.5560   40.5550 H   0  0  0  0  0  0  0  0  0  0  0  0
   50.7300   29.7960   41.9600 H   0  0  0  0  0  0  0  0  0  0  0  0
   51.0560   30.6730   43.4720 H   0  0  0  0  0  0  0  0  0  0  0  0
   48.8000   31.5210   43.5200 H   0  0  0  0  0  0  0  0  0  0  0  0
   48.5270   30.0150   42.5320 H   0  0  0  0  0  0  0  0  0  0  0  0
   47.4940   31.9300   41.5590 H   0  0  0  0  0  0  0  0  0  0  0  0
   47.0500   34.5630   42.0450 C   0  0  1  0  0  0  0  0  0  0  0  0
   48.2140   35.4360   41.7580 C   0  0  0  0  0  0  0  0  0  0  0  0
   48.4340   34.0710   42.2750 C   0  0  2  0  0  0  0  0  0  0  0  0
   46.4870   34.1570   41.1890 H   0  0  0  0  0  0  0  0  0  0  0  0
   48.4090   35.6550   40.6930 H   0  0  0  0  0  0  0  0  0  0  0  0
   48.3250   36.3450   42.3960 H   0  0  0  0  0  0  0  0  0  0  0  0
   48.7280   34.0350   43.3630 H   0  0  0  0  0  0  0  0  0  0  0  0
   45.4150   36.0510   43.2360 C   0  0  0  0  0  0  0  0  0  0  0  0
   46.1820   34.8670   43.2030 C   0  0  0  0  0  0  0  0  0  0  0  0
   46.0860   33.9920   44.2970 C   0  0  0  0  0  0  0  0  0  0  0  0
   45.2660   34.3320   45.3220 N   0  0  0  0  0  0  0  0  0  0  0  0
   44.5480   35.4720   45.3200 C   0  0  0  0  0  0  0  0  0  0  0  0
   44.6120   36.3450   44.2800 N   0  0  0  0  0  0  0  0  0  0  0  0
   45.4690   36.7420   42.4090 H   0  0  0  0  0  0  0  0  0  0  0  0
   46.6610   33.0820   44.2960 H   0  0  0  0  0  0  0  0  0  0  0  0
   43.9560   35.5570   46.2290 H   0  0  0  0  0  0  0  0  0  0  0  0
   48.8110   31.1200   40.2150 N   0  0  0  0  0  0  0  0  0  0  0  0
   49.1470   30.1100   40.2610 H   0  0  0  0  0  0  0  0  0  0  0  0
   46.0640   31.9460   39.2170 Cl  0  0  0  0  0  0  0  0  0  0  0  0
   47.4920   31.8920   38.2050 C   0  0  0  0  0  0  0  0  0  0  0  0
   48.6670   31.4870   38.8510 C   0  0  0  0  0  0  0  0  0  0  0  0
   49.7970   31.4440   38.0490 C   0  0  0  0  0  0  0  0  0  0  0  0
   50.7260   31.1440   38.4670 H   0  0  0  0  0  0  0  0  0  0  0  0
   49.8450   31.7610   36.7060 C   0  0  0  0  0  0  0  0  0  0  0  0
   50.7460   31.7110   36.1340 H   0  0  0  0  0  0  0  0  0  0  0  0
   48.6640   32.1570   36.0990 C   0  0  0  0  0  0  0  0  0  0  0  0
   48.6000   32.4250   35.0560 H   0  0  0  0  0  0  0  0  0  0  0  0
   47.5220   32.2110   36.8680 C   0  0  0  0  0  0  0  0  0  0  0  0
   45.9540   32.6930   36.2420 Cl  0  0  0  0  0  0  0  0  0  0  0  0
  1  2  1  1  0  0  0
  1 18  1  0  0  0  0
  2  8  1  0  0  0  0
  3  2  1  0  0  0  0
  3  9  1  0  0  0  0
  3  4  1  0  0  0  0
  4  5  1  0  0  0  0
  4 12  1  0  0  0  0
  5 13  1  0  0  0  0
  6  1  1  0  0  0  0
  6 15  1  1  0  0  0
  6  5  1  0  0  0  0
  7  2  1  0  0  0  0
 10  3  1  0  0  0  0
 11  4  1  0  0  0  0
 14  5  1  0  0  0  0
 16 19  1  6  0  0  0
 16 18  1  0  0  0  0
 16 24  1  0  0  0  0
 17 16  1  0  0  0  0
 17 18  1  0  0  0  0
 17 21  1  0  0  0  0
 18 22  1  1  0  0  0
 20 17  1  0  0  0  0
 23 28  1  0  0  0  0
 24 23  2  0  0  0  0
 24 25  1  0  0  0  0
 25 26  2  0  0  0  0
 27 26  1  0  0  0  0
 27 31  1  0  0  0  0
 28 27  2  0  0  0  0
 29 23  1  0  0  0  0
 30 25  1  0  0  0  0
 32 33  1  0  0  0  0
 32  6  1  0  0  0  0
 35 36  1  0  0  0  0
 35 34  1  0  0  0  0
 36 32  1  0  0  0  0
 37 38  1  0  0  0  0
 37 36  2  0  0  0  0
 39 37  1  0  0  0  0
 40 39  1  0  0  0  0
 41 39  2  0  0  0  0
 41 43  1  0  0  0  0
 42 41  1  0  0  0  0
 43 35  2  0  0  0  0
 44 43  1  0  0  0  0
M  END
>  <minimizedAffinity>
-5.1117754

>  <minimizedRMSD>
0.195143536

$$$$
