
 OpenBabel03242513183D

 39 42  0  0  0  0  0  0  0  0999 V2000
   46.9500   32.1810   46.7870 C   0  0  0  0  0  0  0  0  0  0  0  0
   47.3410   32.5330   47.9320 O   0  0  0  0  0  0  0  0  0  0  0  0
   44.7860   30.5590   48.0160 Cl  0  0  0  0  0  0  0  0  0  0  0  0
   46.0600   29.9190   46.9740 C   0  0  0  0  0  0  0  0  0  0  0  0
   47.0240   30.7610   46.4740 C   0  0  0  0  0  0  0  0  0  0  0  0
   47.9930   30.2110   45.6940 C   0  0  0  0  0  0  0  0  0  0  0  0
   48.0100   28.8670   45.4140 C   0  0  0  0  0  0  0  0  0  0  0  0
   47.0390   28.0250   45.9160 C   0  0  0  0  0  0  0  0  0  0  0  0
   46.0400   28.5840   46.7200 C   0  0  0  0  0  0  0  0  0  0  0  0
   48.7810   30.8220   45.2810 H   0  0  0  0  0  0  0  0  0  0  0  0
   48.8040   28.4710   44.7850 H   0  0  0  0  0  0  0  0  0  0  0  0
   47.0810   26.9710   45.6750 H   0  0  0  0  0  0  0  0  0  0  0  0
   45.0600   27.6080   47.1950 C   0  0  0  0  0  0  0  0  0  0  0  0
   43.9880   27.0270   46.5360 C   0  0  0  0  0  0  0  0  0  0  0  0
   43.3020   26.1490   47.3410 C   0  0  0  0  0  0  0  0  0  0  0  0
   44.0230   26.2370   48.5220 C   0  0  0  0  0  0  0  0  0  0  0  0
   45.0010   27.0730   48.3820 O   0  0  0  0  0  0  0  0  0  0  0  0
   43.7490   27.2680   45.4870 H   0  0  0  0  0  0  0  0  0  0  0  0
   42.4350   25.5500   47.1190 H   0  0  0  0  0  0  0  0  0  0  0  0
   43.8090   25.6840   49.4510 H   0  0  0  0  0  0  0  0  0  0  0  0
   44.8890   34.7690   45.3140 C   0  0  0  0  0  0  0  0  0  0  0  0
   45.4240   34.9720   44.0270 C   0  0  0  0  0  0  0  0  0  0  0  0
   46.5040   34.1870   43.7030 C   0  0  0  0  0  0  0  0  0  0  0  0
   46.9820   33.2910   44.6110 N   0  0  0  0  0  0  0  0  0  0  0  0
   46.4510   33.1270   45.8190 C   0  0  0  0  0  0  0  0  0  0  0  0
   45.3920   33.8830   46.1610 N   0  0  0  0  0  0  0  0  0  0  0  0
   44.0300   35.3430   45.6690 H   0  0  0  0  0  0  0  0  0  0  0  0
   44.9130   35.7120   43.4730 H   0  0  0  0  0  0  0  0  0  0  0  0
   45.2380   32.6930   41.3360 Cl  0  0  0  0  0  0  0  0  0  0  0  0
   46.6020   33.7660   41.2420 C   0  0  0  0  0  0  0  0  0  0  0  0
   47.0780   34.3770   42.3800 C   0  0  0  0  0  0  0  0  0  0  0  0
   48.1590   35.1910   42.1350 C   0  0  0  0  0  0  0  0  0  0  0  0
   48.6440   35.7400   42.9270 H   0  0  0  0  0  0  0  0  0  0  0  0
   48.7170   35.3870   40.9100 C   0  0  0  0  0  0  0  0  0  0  0  0
   49.5620   36.0270   40.7400 H   0  0  0  0  0  0  0  0  0  0  0  0
   48.2130   34.7600   39.8080 C   0  0  0  0  0  0  0  0  0  0  0  0
   48.6440   34.9030   38.8270 H   0  0  0  0  0  0  0  0  0  0  0  0
   47.1240   33.9250   39.9770 C   0  0  0  0  0  0  0  0  0  0  0  0
   46.4750   33.1170   38.5640 Cl  0  0  0  0  0  0  0  0  0  0  0  0
  1  2  2  0  0  0  0
  4  3  1  0  0  0  0
  5  1  1  0  0  0  0
  5  4  2  0  0  0  0
  6  5  1  0  0  0  0
  7  6  2  0  0  0  0
  7  8  1  0  0  0  0
  8  9  2  0  0  0  0
  9  4  1  0  0  0  0
  9 13  1  0  0  0  0
 10  6  1  0  0  0  0
 11  7  1  0  0  0  0
 12  8  1  0  0  0  0
 13 17  1  0  0  0  0
 14 13  2  0  0  0  0
 14 15  1  0  0  0  0
 15 16  2  0  0  0  0
 16 20  1  0  0  0  0
 17 16  1  0  0  0  0
 18 14  1  0  0  0  0
 19 15  1  0  0  0  0
 21 27  1  0  0  0  0
 21 26  1  0  0  0  0
 22 21  2  0  0  0  0
 23 22  1  0  0  0  0
 23 24  2  0  0  0  0
 24 25  1  0  0  0  0
 25 26  2  0  0  0  0
 25  1  1  0  0  0  0
 28 22  1  0  0  0  0
 30 29  1  0  0  0  0
 30 31  1  0  0  0  0
 31 23  1  0  0  0  0
 32 31  2  0  0  0  0
 32 33  1  0  0  0  0
 34 32  1  0  0  0  0
 35 34  1  0  0  0  0
 36 38  1  0  0  0  0
 36 34  2  0  0  0  0
 37 36  1  0  0  0  0
 38 30  2  0  0  0  0
 39 38  1  0  0  0  0
M  END
>  <minimizedAffinity>
-6.73846054

>  <minimizedRMSD>
1.32368541

$$$$
