
 OpenBabel03252506463D

 44 47  0  0  1  0  0  0  0  0999 V2000
   49.5970   33.5090   41.4980 N   0  0  1  0  0  0  0  0  0  0  0  0
   50.7720   33.1900   42.2650 C   0  0  0  0  0  0  0  0  0  0  0  0
   51.3830   31.8700   41.9080 C   0  0  0  0  0  0  0  0  0  0  0  0
   50.4270   30.7640   42.3080 C   0  0  0  0  0  0  0  0  0  0  0  0
   48.9940   31.1800   42.0480 C   0  0  0  0  0  0  0  0  0  0  0  0
   48.9670   32.3060   41.0270 C   0  0  2  0  0  0  0  0  0  0  0  0
   51.5310   33.9690   42.0030 H   0  0  0  0  0  0  0  0  0  0  0  0
   50.5970   33.2200   43.3550 H   0  0  0  0  0  0  0  0  0  0  0  0
   52.2640   31.7520   42.5760 H   0  0  0  0  0  0  0  0  0  0  0  0
   51.7560   31.8000   40.8860 H   0  0  0  0  0  0  0  0  0  0  0  0
   50.6510   29.9080   41.6450 H   0  0  0  0  0  0  0  0  0  0  0  0
   50.5800   30.4200   43.3460 H   0  0  0  0  0  0  0  0  0  0  0  0
   48.5010   31.5750   42.9600 H   0  0  0  0  0  0  0  0  0  0  0  0
   48.4070   30.3460   41.6190 H   0  0  0  0  0  0  0  0  0  0  0  0
   47.8910   32.5450   40.8600 H   0  0  0  0  0  0  0  0  0  0  0  0
   47.3380   34.6720   41.9820 C   0  0  1  0  0  0  0  0  0  0  0  0
   48.4070   35.6680   41.7290 C   0  0  0  0  0  0  0  0  0  0  0  0
   48.7560   34.3420   42.2760 C   0  0  2  0  0  0  0  0  0  0  0  0
   46.8600   34.1970   41.1100 H   0  0  0  0  0  0  0  0  0  0  0  0
   48.6210   35.8960   40.6700 H   0  0  0  0  0  0  0  0  0  0  0  0
   48.3880   36.5910   42.3570 H   0  0  0  0  0  0  0  0  0  0  0  0
   49.0070   34.3520   43.3760 H   0  0  0  0  0  0  0  0  0  0  0  0
   45.5660   36.0320   43.1290 C   0  0  0  0  0  0  0  0  0  0  0  0
   46.3930   34.8890   43.0990 C   0  0  0  0  0  0  0  0  0  0  0  0
   46.2820   33.9690   44.1530 C   0  0  0  0  0  0  0  0  0  0  0  0
   45.3900   34.2300   45.1420 N   0  0  0  0  0  0  0  0  0  0  0  0
   44.6160   35.3320   45.1400 C   0  0  0  0  0  0  0  0  0  0  0  0
   44.6920   36.2460   44.1360 N   0  0  0  0  0  0  0  0  0  0  0  0
   45.6300   36.7550   42.3320 H   0  0  0  0  0  0  0  0  0  0  0  0
   46.9010   33.0890   44.1530 H   0  0  0  0  0  0  0  0  0  0  0  0
   43.9710   35.3530   46.0160 H   0  0  0  0  0  0  0  0  0  0  0  0
   49.4770   31.8170   39.7860 N   0  0  0  0  0  0  0  0  0  0  0  0
   50.2160   31.0500   39.8010 H   0  0  0  0  0  0  0  0  0  0  0  0
   50.6410   30.0730   37.5890 Cl  0  0  0  0  0  0  0  0  0  0  0  0
   49.6410   31.4800   37.2890 C   0  0  0  0  0  0  0  0  0  0  0  0
   49.1990   32.1520   38.4350 C   0  0  0  0  0  0  0  0  0  0  0  0
   48.4070   33.2660   38.1970 C   0  0  0  0  0  0  0  0  0  0  0  0
   48.0350   33.8310   39.0160 H   0  0  0  0  0  0  0  0  0  0  0  0
   48.0390   33.7410   36.9540 C   0  0  0  0  0  0  0  0  0  0  0  0
   47.4240   34.6070   36.8280 H   0  0  0  0  0  0  0  0  0  0  0  0
   48.4950   33.0520   35.8420 C   0  0  0  0  0  0  0  0  0  0  0  0
   48.2610   33.3450   34.8300 H   0  0  0  0  0  0  0  0  0  0  0  0
   49.2840   31.9400   36.0440 C   0  0  0  0  0  0  0  0  0  0  0  0
   49.9360   30.9640   34.7380 Cl  0  0  0  0  0  0  0  0  0  0  0  0
  1  2  1  1  0  0  0
  1 18  1  0  0  0  0
  2  8  1  0  0  0  0
  3  2  1  0  0  0  0
  3  4  1  0  0  0  0
  3  9  1  0  0  0  0
  4 12  1  0  0  0  0
  5  4  1  0  0  0  0
  5 13  1  0  0  0  0
  6 15  1  6  0  0  0
  6  1  1  0  0  0  0
  6  5  1  0  0  0  0
  7  2  1  0  0  0  0
 10  3  1  0  0  0  0
 11  4  1  0  0  0  0
 14  5  1  0  0  0  0
 16 19  1  6  0  0  0
 16 18  1  0  0  0  0
 16 24  1  0  0  0  0
 17 16  1  0  0  0  0
 17 18  1  0  0  0  0
 17 21  1  0  0  0  0
 18 22  1  1  0  0  0
 20 17  1  0  0  0  0
 23 28  1  0  0  0  0
 24 23  2  0  0  0  0
 24 25  1  0  0  0  0
 25 30  1  0  0  0  0
 25 26  2  0  0  0  0
 27 26  1  0  0  0  0
 27 31  1  0  0  0  0
 28 27  2  0  0  0  0
 29 23  1  0  0  0  0
 32 33  1  0  0  0  0
 32  6  1  0  0  0  0
 35 34  1  0  0  0  0
 35 36  1  0  0  0  0
 36 32  1  0  0  0  0
 37 36  2  0  0  0  0
 37 38  1  0  0  0  0
 39 37  1  0  0  0  0
 40 39  1  0  0  0  0
 41 43  1  0  0  0  0
 41 39  2  0  0  0  0
 42 41  1  0  0  0  0
 43 35  2  0  0  0  0
 44 43  1  0  0  0  0
M  END
>  <minimizedAffinity>
-5.5046525

>  <minimizedRMSD>
0.474811345

$$$$
