
 OpenBabel03252502243D

 36 38  0  0  1  0  0  0  0  0999 V2000
   46.7800   34.5740   42.2480 N   0  0  0  0  0  0  0  0  0  0  0  0
   48.2430   34.5690   42.2980 C   0  0  0  0  0  0  0  0  0  0  0  0
   48.6330   35.3550   41.0260 C   0  0  0  0  0  0  0  0  0  0  0  0
   48.2510   34.5510   39.8170 C   0  0  0  0  0  0  0  0  0  0  0  0
   46.9060   33.9260   39.8990 C   0  0  0  0  0  0  0  0  0  0  0  0
   46.0240   34.3780   41.0310 C   0  0  1  0  0  0  0  0  0  0  0  0
   48.6730   33.5620   42.2340 H   0  0  0  0  0  0  0  0  0  0  0  0
   48.5700   35.1590   43.1640 H   0  0  0  0  0  0  0  0  0  0  0  0
   49.7240   35.4840   41.0740 H   0  0  0  0  0  0  0  0  0  0  0  0
   48.0990   36.3270   41.0810 H   0  0  0  0  0  0  0  0  0  0  0  0
   48.3700   35.2350   38.9410 H   0  0  0  0  0  0  0  0  0  0  0  0
   49.0300   33.7690   39.6890 H   0  0  0  0  0  0  0  0  0  0  0  0
   46.9900   32.8110   39.9610 H   0  0  0  0  0  0  0  0  0  0  0  0
   46.3610   34.1310   38.9540 H   0  0  0  0  0  0  0  0  0  0  0  0
   45.6560   35.3840   40.7540 H   0  0  0  0  0  0  0  0  0  0  0  0
   44.4770   36.0190   44.8270 C   0  0  0  0  0  0  0  0  0  0  0  0
   45.1700   35.9020   43.6070 C   0  0  0  0  0  0  0  0  0  0  0  0
   46.0310   34.7810   43.4510 C   0  0  0  0  0  0  0  0  0  0  0  0
   46.1170   33.9120   44.4870 N   0  0  0  0  0  0  0  0  0  0  0  0
   45.4350   34.0590   45.6400 C   0  0  0  0  0  0  0  0  0  0  0  0
   44.6100   35.1220   45.8070 N   0  0  0  0  0  0  0  0  0  0  0  0
   43.8120   36.8690   44.9710 H   0  0  0  0  0  0  0  0  0  0  0  0
   45.0810   36.6050   42.8110 H   0  0  0  0  0  0  0  0  0  0  0  0
   45.6160   33.2660   46.3790 H   0  0  0  0  0  0  0  0  0  0  0  0
   45.0640   33.4330   41.2490 O   0  0  0  0  0  0  0  0  0  0  0  0
   44.3480   31.1000   39.3200 Cl  0  0  0  0  0  0  0  0  0  0  0  0
   43.2400   32.2400   39.9960 C   0  0  0  0  0  0  0  0  0  0  0  0
   43.8240   33.1740   40.8220 C   0  0  0  0  0  0  0  0  0  0  0  0
   42.9310   34.1080   41.3770 C   0  0  0  0  0  0  0  0  0  0  0  0
   43.1630   34.9410   42.0620 H   0  0  0  0  0  0  0  0  0  0  0  0
   41.5640   34.0760   41.1010 C   0  0  0  0  0  0  0  0  0  0  0  0
   40.8380   34.7670   41.5000 H   0  0  0  0  0  0  0  0  0  0  0  0
   41.0880   33.1120   40.2710 C   0  0  0  0  0  0  0  0  0  0  0  0
   40.0300   33.0430   40.0230 H   0  0  0  0  0  0  0  0  0  0  0  0
   41.9040   32.1700   39.6960 C   0  0  0  0  0  0  0  0  0  0  0  0
   41.3670   30.9030   38.6210 Cl  0  0  0  0  0  0  0  0  0  0  0  0
  1  2  1  0  0  0  0
  1 18  1  0  0  0  0
  2  8  1  0  0  0  0
  3  9  1  0  0  0  0
  3 10  1  0  0  0  0
  3  2  1  0  0  0  0
  4  5  1  0  0  0  0
  4  3  1  0  0  0  0
  5 13  1  0  0  0  0
  5  6  1  0  0  0  0
  6 15  1  6  0  0  0
  6 25  1  0  0  0  0
  6  1  1  0  0  0  0
  7  2  1  0  0  0  0
 11  4  1  0  0  0  0
 12  4  1  0  0  0  0
 14  5  1  0  0  0  0
 16 22  1  0  0  0  0
 16 21  1  0  0  0  0
 17 16  2  0  0  0  0
 18 17  1  0  0  0  0
 18 19  2  0  0  0  0
 19 20  1  0  0  0  0
 20 21  2  0  0  0  0
 20 24  1  0  0  0  0
 23 17  1  0  0  0  0
 26 27  1  0  0  0  0
 27 28  1  0  0  0  0
 28 25  1  0  0  0  0
 28 29  2  0  0  0  0
 29 30  1  0  0  0  0
 31 29  1  0  0  0  0
 31 32  1  0  0  0  0
 33 31  2  0  0  0  0
 34 33  1  0  0  0  0
 35 27  2  0  0  0  0
 35 33  1  0  0  0  0
 36 35  1  0  0  0  0
M  END
>  <minimizedAffinity>
-5.48801088

>  <minimizedRMSD>
0.65121609

$$$$
