
 OpenBabel03242514563D

 21 22  0  0  0  0  0  0  0  0999 V2000
   36.5280   26.7410   39.6600 Cl  0  0  0  0  0  0  0  0  0  0  0  0
   36.9740   27.5140   41.1760 C   0  0  0  0  0  0  0  0  0  0  0  0
   37.1330   28.8680   41.1080 C   0  0  0  0  0  0  0  0  0  0  0  0
   37.4880   29.5480   42.2790 C   0  0  0  0  0  0  0  0  0  0  0  0
   37.6420   30.6050   42.3580 H   0  0  0  0  0  0  0  0  0  0  0  0
   37.6630   28.8170   43.4590 C   0  0  0  0  0  0  0  0  0  0  0  0
   37.9430   29.3410   44.3850 H   0  0  0  0  0  0  0  0  0  0  0  0
   37.5020   27.4440   43.5230 C   0  0  0  0  0  0  0  0  0  0  0  0
   37.6400   26.8920   44.4350 H   0  0  0  0  0  0  0  0  0  0  0  0
   37.1490   26.7990   42.3430 C   0  0  0  0  0  0  0  0  0  0  0  0
   36.9170   25.0610   42.3010 Cl  0  0  0  0  0  0  0  0  0  0  0  0
   36.9470   29.9210   39.7070 S   0  0  0  0  0  0  0  0  0  0  0  0
   38.0050   31.3700   39.7640 C   0  0  0  0  0  0  0  0  0  0  0  0
   37.3380   32.5870   39.9770 C   0  0  0  0  0  0  0  0  0  0  0  0
   38.1190   33.7580   40.0320 C   0  0  0  0  0  0  0  0  0  0  0  0
   39.4600   33.6510   39.8780 N   0  0  0  0  0  0  0  0  0  0  0  0
   40.0650   32.4560   39.6740 C   0  0  0  0  0  0  0  0  0  0  0  0
   39.3510   31.3040   39.6150 N   0  0  0  0  0  0  0  0  0  0  0  0
   36.2780   32.6690   40.0990 H   0  0  0  0  0  0  0  0  0  0  0  0
   37.6070   34.6940   40.1960 H   0  0  0  0  0  0  0  0  0  0  0  0
   41.1360   32.3620   39.5500 H   0  0  0  0  0  0  0  0  0  0  0  0
  1  2  1  0  0  0  0
  2 10  1  0  0  0  0
  3  2  2  0  0  0  0
  3  4  1  0  0  0  0
  4  5  1  0  0  0  0
  4  6  2  0  0  0  0
  6  8  1  0  0  0  0
  6  7  1  0  0  0  0
  8  9  1  0  0  0  0
 10  8  2  0  0  0  0
 11 10  1  0  0  0  0
 12 13  1  0  0  0  0
 12  3  1  0  0  0  0
 13 14  1  0  0  0  0
 14 15  2  0  0  0  0
 14 19  1  0  0  0  0
 15 20  1  0  0  0  0
 16 15  1  0  0  0  0
 17 16  2  0  0  0  0
 18 17  1  0  0  0  0
 18 13  2  0  0  0  0
 21 17  1  0  0  0  0
M  END
>  <minimizedAffinity>
-4.56458759

$$$$

 OpenBabel03242514563D

 21 22  0  0  0  0  0  0  0  0999 V2000
   35.7790   29.2660   40.9830 Cl  0  0  0  0  0  0  0  0  0  0  0  0
   37.3090   30.0590   41.3410 C   0  0  0  0  0  0  0  0  0  0  0  0
   37.9590   29.5850   42.4430 C   0  0  0  0  0  0  0  0  0  0  0  0
   39.1830   30.1710   42.7850 C   0  0  0  0  0  0  0  0  0  0  0  0
   39.7900   29.8920   43.6230 H   0  0  0  0  0  0  0  0  0  0  0  0
   39.6830   31.2080   41.9900 C   0  0  0  0  0  0  0  0  0  0  0  0
   40.6450   31.6750   42.2500 H   0  0  0  0  0  0  0  0  0  0  0  0
   39.0200   31.6860   40.8730 C   0  0  0  0  0  0  0  0  0  0  0  0
   39.4130   32.4830   40.2700 H   0  0  0  0  0  0  0  0  0  0  0  0
   37.8060   31.0820   40.5600 C   0  0  0  0  0  0  0  0  0  0  0  0
   36.8740   31.6020   39.1680 Cl  0  0  0  0  0  0  0  0  0  0  0  0
   37.4610   28.2950   43.5360 S   0  0  0  0  0  0  0  0  0  0  0  0
   38.2410   26.7200   43.1730 C   0  0  0  0  0  0  0  0  0  0  0  0
   37.5030   25.8670   42.3360 C   0  0  0  0  0  0  0  0  0  0  0  0
   38.0680   24.6170   42.0180 C   0  0  0  0  0  0  0  0  0  0  0  0
   39.2810   24.3040   42.5290 N   0  0  0  0  0  0  0  0  0  0  0  0
   39.9610   25.1550   43.3340 C   0  0  0  0  0  0  0  0  0  0  0  0
   39.4550   26.3690   43.6660 N   0  0  0  0  0  0  0  0  0  0  0  0
   36.5440   26.1180   41.9330 H   0  0  0  0  0  0  0  0  0  0  0  0
   37.5000   23.9610   41.3740 H   0  0  0  0  0  0  0  0  0  0  0  0
   40.9310   24.9130   43.7470 H   0  0  0  0  0  0  0  0  0  0  0  0
  1  2  1  0  0  0  0
  2  3  1  0  0  0  0
  3  4  2  0  0  0  0
  3 12  1  0  0  0  0
  4  5  1  0  0  0  0
  6  7  1  0  0  0  0
  6  4  1  0  0  0  0
  8  6  2  0  0  0  0
  9  8  1  0  0  0  0
 10  8  1  0  0  0  0
 10  2  2  0  0  0  0
 11 10  1  0  0  0  0
 13 12  1  0  0  0  0
 13 18  1  0  0  0  0
 14 13  2  0  0  0  0
 15 14  1  0  0  0  0
 15 16  2  0  0  0  0
 16 17  1  0  0  0  0
 17 18  2  0  0  0  0
 17 21  1  0  0  0  0
 19 14  1  0  0  0  0
 20 15  1  0  0  0  0
M  END
>  <minimizedAffinity>
-4.52974319

$$$$

 OpenBabel03242514563D

 21 22  0  0  0  0  0  0  0  0999 V2000
   36.5740   25.9750   39.8760 Cl  0  0  0  0  0  0  0  0  0  0  0  0
   37.2680   26.6780   41.3320 C   0  0  0  0  0  0  0  0  0  0  0  0
   36.8240   27.9340   41.6350 C   0  0  0  0  0  0  0  0  0  0  0  0
   37.3360   28.5530   42.7800 C   0  0  0  0  0  0  0  0  0  0  0  0
   37.0700   29.5310   43.1260 H   0  0  0  0  0  0  0  0  0  0  0  0
   38.2720   27.8650   43.5610 C   0  0  0  0  0  0  0  0  0  0  0  0
   38.6810   28.3430   44.4640 H   0  0  0  0  0  0  0  0  0  0  0  0
   38.7200   26.5930   43.2500 C   0  0  0  0  0  0  0  0  0  0  0  0
   39.4400   26.0740   43.8560 H   0  0  0  0  0  0  0  0  0  0  0  0
   38.1920   26.0060   42.1050 C   0  0  0  0  0  0  0  0  0  0  0  0
   38.6830   24.3960   41.6100 Cl  0  0  0  0  0  0  0  0  0  0  0  0
   35.6570   28.9200   40.7570 S   0  0  0  0  0  0  0  0  0  0  0  0
   36.4020   30.3270   39.9280 C   0  0  0  0  0  0  0  0  0  0  0  0
   36.6900   30.1340   38.5670 C   0  0  0  0  0  0  0  0  0  0  0  0
   37.2740   31.2060   37.8650 C   0  0  0  0  0  0  0  0  0  0  0  0
   37.5270   32.3570   38.5310 N   0  0  0  0  0  0  0  0  0  0  0  0
   37.2340   32.5030   39.8460 C   0  0  0  0  0  0  0  0  0  0  0  0
   36.6700   31.4970   40.5600 N   0  0  0  0  0  0  0  0  0  0  0  0
   36.4890   29.2230   38.0430 H   0  0  0  0  0  0  0  0  0  0  0  0
   37.4960   31.0570   36.8190 H   0  0  0  0  0  0  0  0  0  0  0  0
   37.4320   33.4190   40.3860 H   0  0  0  0  0  0  0  0  0  0  0  0
  1  2  1  0  0  0  0
  2  3  2  0  0  0  0
  2 10  1  0  0  0  0
  3  4  1  0  0  0  0
  4  5  1  0  0  0  0
  4  6  2  0  0  0  0
  6  7  1  0  0  0  0
  8  6  1  0  0  0  0
  8  9  1  0  0  0  0
 10  8  2  0  0  0  0
 11 10  1  0  0  0  0
 12  3  1  0  0  0  0
 13 18  1  0  0  0  0
 13 12  1  0  0  0  0
 14 13  2  0  0  0  0
 15 16  2  0  0  0  0
 15 14  1  0  0  0  0
 16 17  1  0  0  0  0
 17 21  1  0  0  0  0
 17 18  2  0  0  0  0
 19 14  1  0  0  0  0
 20 15  1  0  0  0  0
M  END
>  <minimizedAffinity>
-4.50650549

$$$$

 OpenBabel03242514563D

 21 22  0  0  0  0  0  0  0  0999 V2000
   39.4970   30.6190   41.7850 Cl  0  0  0  0  0  0  0  0  0  0  0  0
   38.5400   29.2050   42.2100 C   0  0  0  0  0  0  0  0  0  0  0  0
   37.2240   29.2710   41.8520 C   0  0  0  0  0  0  0  0  0  0  0  0
   36.4050   28.1800   42.1600 C   0  0  0  0  0  0  0  0  0  0  0  0
   35.3600   28.1070   41.9340 H   0  0  0  0  0  0  0  0  0  0  0  0
   36.9630   27.0780   42.8170 C   0  0  0  0  0  0  0  0  0  0  0  0
   36.3280   26.2140   43.0640 H   0  0  0  0  0  0  0  0  0  0  0  0
   38.2980   27.0160   43.1790 C   0  0  0  0  0  0  0  0  0  0  0  0
   38.7160   26.1640   43.6840 H   0  0  0  0  0  0  0  0  0  0  0  0
   39.0850   28.1160   42.8590 C   0  0  0  0  0  0  0  0  0  0  0  0
   40.7910   28.1530   43.2670 Cl  0  0  0  0  0  0  0  0  0  0  0  0
   36.3810   30.5800   41.0260 S   0  0  0  0  0  0  0  0  0  0  0  0
   36.7240   30.6430   39.2660 C   0  0  0  0  0  0  0  0  0  0  0  0
   36.1340   29.6190   38.5060 C   0  0  0  0  0  0  0  0  0  0  0  0
   36.3690   29.6200   37.1170 C   0  0  0  0  0  0  0  0  0  0  0  0
   37.1430   30.5970   36.5900 N   0  0  0  0  0  0  0  0  0  0  0  0
   37.6950   31.5670   37.3580 C   0  0  0  0  0  0  0  0  0  0  0  0
   37.4940   31.6050   38.7000 N   0  0  0  0  0  0  0  0  0  0  0  0
   35.5220   28.8480   38.9250 H   0  0  0  0  0  0  0  0  0  0  0  0
   35.9150   28.8330   36.5330 H   0  0  0  0  0  0  0  0  0  0  0  0
   38.3150   32.3510   36.9460 H   0  0  0  0  0  0  0  0  0  0  0  0
  1  2  1  0  0  0  0
  2 10  1  0  0  0  0
  3  4  1  0  0  0  0
  3  2  2  0  0  0  0
  4  6  2  0  0  0  0
  5  4  1  0  0  0  0
  6  7  1  0  0  0  0
  6  8  1  0  0  0  0
  8  9  1  0  0  0  0
 10  8  2  0  0  0  0
 10 11  1  0  0  0  0
 12  3  1  0  0  0  0
 13 12  1  0  0  0  0
 14 19  1  0  0  0  0
 14 13  2  0  0  0  0
 15 14  1  0  0  0  0
 16 15  2  0  0  0  0
 16 17  1  0  0  0  0
 17 18  2  0  0  0  0
 18 13  1  0  0  0  0
 20 15  1  0  0  0  0
 21 17  1  0  0  0  0
M  END
>  <minimizedAffinity>
-4.43137455

$$$$

 OpenBabel03242514563D

 21 22  0  0  0  0  0  0  0  0999 V2000
   39.0560   27.9430   39.7530 Cl  0  0  0  0  0  0  0  0  0  0  0  0
   38.1930   27.8210   41.2810 C   0  0  0  0  0  0  0  0  0  0  0  0
   38.5030   28.7850   42.1970 C   0  0  0  0  0  0  0  0  0  0  0  0
   37.8530   28.7480   43.4350 C   0  0  0  0  0  0  0  0  0  0  0  0
   38.0060   29.4420   44.2360 H   0  0  0  0  0  0  0  0  0  0  0  0
   36.9200   27.7340   43.6800 C   0  0  0  0  0  0  0  0  0  0  0  0
   36.4030   27.6950   44.6500 H   0  0  0  0  0  0  0  0  0  0  0  0
   36.6090   26.7580   42.7490 C   0  0  0  0  0  0  0  0  0  0  0  0
   35.8920   25.9830   42.9470 H   0  0  0  0  0  0  0  0  0  0  0  0
   37.2730   26.8230   41.5280 C   0  0  0  0  0  0  0  0  0  0  0  0
   36.9620   25.6420   40.2700 Cl  0  0  0  0  0  0  0  0  0  0  0  0
   39.6460   30.1170   42.0360 S   0  0  0  0  0  0  0  0  0  0  0  0
   38.9780   31.5180   41.1360 C   0  0  0  0  0  0  0  0  0  0  0  0
   39.8760   32.5770   40.9270 C   0  0  0  0  0  0  0  0  0  0  0  0
   39.4060   33.7030   40.2250 C   0  0  0  0  0  0  0  0  0  0  0  0
   38.1240   33.7090   39.7910 N   0  0  0  0  0  0  0  0  0  0  0  0
   37.2880   32.6660   40.0130 C   0  0  0  0  0  0  0  0  0  0  0  0
   37.6990   31.5610   40.6840 N   0  0  0  0  0  0  0  0  0  0  0  0
   40.8890   32.5710   41.2720 H   0  0  0  0  0  0  0  0  0  0  0  0
   40.0970   34.5180   40.0650 H   0  0  0  0  0  0  0  0  0  0  0  0
   36.2620   32.6610   39.6700 H   0  0  0  0  0  0  0  0  0  0  0  0
  1  2  1  0  0  0  0
  2 10  2  0  0  0  0
  2  3  1  0  0  0  0
  3  4  2  0  0  0  0
  4  6  1  0  0  0  0
  4  5  1  0  0  0  0
  6  7  1  0  0  0  0
  8  9  1  0  0  0  0
  8  6  2  0  0  0  0
 10  8  1  0  0  0  0
 11 10  1  0  0  0  0
 12  3  1  0  0  0  0
 13 12  1  0  0  0  0
 14 13  1  0  0  0  0
 14 19  1  0  0  0  0
 15 14  2  0  0  0  0
 16 17  2  0  0  0  0
 16 15  1  0  0  0  0
 17 18  1  0  0  0  0
 18 13  2  0  0  0  0
 20 15  1  0  0  0  0
 21 17  1  0  0  0  0
M  END
>  <minimizedAffinity>
-4.30142641

$$$$

 OpenBabel03242514563D

 21 22  0  0  0  0  0  0  0  0999 V2000
   39.7650   30.8210   42.5300 Cl  0  0  0  0  0  0  0  0  0  0  0  0
   38.2480   30.4490   41.7200 C   0  0  0  0  0  0  0  0  0  0  0  0
   37.7770   31.4320   40.8970 C   0  0  0  0  0  0  0  0  0  0  0  0
   36.5750   31.2030   40.2210 C   0  0  0  0  0  0  0  0  0  0  0  0
   36.1010   31.8900   39.5500 H   0  0  0  0  0  0  0  0  0  0  0  0
   35.9100   29.9860   40.4140 C   0  0  0  0  0  0  0  0  0  0  0  0
   34.9640   29.7960   39.8870 H   0  0  0  0  0  0  0  0  0  0  0  0
   36.3900   28.9930   41.2500 C   0  0  0  0  0  0  0  0  0  0  0  0
   35.8720   28.0620   41.3910 H   0  0  0  0  0  0  0  0  0  0  0  0
   37.5880   29.2520   41.9070 C   0  0  0  0  0  0  0  0  0  0  0  0
   38.2950   28.0680   42.9920 Cl  0  0  0  0  0  0  0  0  0  0  0  0
   38.4950   33.0040   40.5530 S   0  0  0  0  0  0  0  0  0  0  0  0
   39.7750   32.9380   39.2970 C   0  0  0  0  0  0  0  0  0  0  0  0
   39.6920   31.8470   38.4160 C   0  0  0  0  0  0  0  0  0  0  0  0
   40.6710   31.7450   37.4090 C   0  0  0  0  0  0  0  0  0  0  0  0
   41.6330   32.6940   37.3410 N   0  0  0  0  0  0  0  0  0  0  0  0
   41.6790   33.7330   38.2110 C   0  0  0  0  0  0  0  0  0  0  0  0
   40.7560   33.8700   39.1960 N   0  0  0  0  0  0  0  0  0  0  0  0
   38.9300   31.0980   38.4730 H   0  0  0  0  0  0  0  0  0  0  0  0
   40.6060   30.9060   36.7330 H   0  0  0  0  0  0  0  0  0  0  0  0
   42.4440   34.4950   38.1640 H   0  0  0  0  0  0  0  0  0  0  0  0
  2 10  1  0  0  0  0
  2  1  1  0  0  0  0
  3  2  2  0  0  0  0
  4  6  2  0  0  0  0
  4  3  1  0  0  0  0
  5  4  1  0  0  0  0
  6  8  1  0  0  0  0
  7  6  1  0  0  0  0
  8  9  1  0  0  0  0
  8 10  2  0  0  0  0
 10 11  1  0  0  0  0
 12  3  1  0  0  0  0
 13 12  1  0  0  0  0
 14 19  1  0  0  0  0
 14 13  2  0  0  0  0
 15 14  1  0  0  0  0
 16 15  2  0  0  0  0
 16 17  1  0  0  0  0
 17 18  2  0  0  0  0
 18 13  1  0  0  0  0
 20 15  1  0  0  0  0
 21 17  1  0  0  0  0
M  END
>  <minimizedAffinity>
-4.2519145

$$$$

 OpenBabel03242514563D

 21 22  0  0  0  0  0  0  0  0999 V2000
   40.5300   27.9860   43.0770 Cl  0  0  0  0  0  0  0  0  0  0  0  0
   39.2360   26.8500   42.7150 C   0  0  0  0  0  0  0  0  0  0  0  0
   38.0100   27.4170   42.5190 C   0  0  0  0  0  0  0  0  0  0  0  0
   36.9340   26.5700   42.2270 C   0  0  0  0  0  0  0  0  0  0  0  0
   35.9270   26.8880   42.0530 H   0  0  0  0  0  0  0  0  0  0  0  0
   37.1600   25.1910   42.1490 C   0  0  0  0  0  0  0  0  0  0  0  0
   36.3220   24.5170   41.9200 H   0  0  0  0  0  0  0  0  0  0  0  0
   38.4050   24.6210   42.3500 C   0  0  0  0  0  0  0  0  0  0  0  0
   38.5670   23.5600   42.2880 H   0  0  0  0  0  0  0  0  0  0  0  0
   39.4520   25.4900   42.6380 C   0  0  0  0  0  0  0  0  0  0  0  0
   41.0760   24.8840   42.9110 Cl  0  0  0  0  0  0  0  0  0  0  0  0
   37.5710   29.1220   42.5830 S   0  0  0  0  0  0  0  0  0  0  0  0
   37.6560   29.9350   40.9850 C   0  0  0  0  0  0  0  0  0  0  0  0
   36.8640   31.0880   40.8590 C   0  0  0  0  0  0  0  0  0  0  0  0
   36.8930   31.7670   39.6260 C   0  0  0  0  0  0  0  0  0  0  0  0
   37.6740   31.2800   38.6340 N   0  0  0  0  0  0  0  0  0  0  0  0
   38.4240   30.1630   38.7950 C   0  0  0  0  0  0  0  0  0  0  0  0
   38.4270   29.4780   39.9670 N   0  0  0  0  0  0  0  0  0  0  0  0
   36.2470   31.4710   41.6450 H   0  0  0  0  0  0  0  0  0  0  0  0
   36.2840   32.6540   39.5290 H   0  0  0  0  0  0  0  0  0  0  0  0
   39.0510   29.7660   38.0080 H   0  0  0  0  0  0  0  0  0  0  0  0
  2  1  1  0  0  0  0
  3 12  1  0  0  0  0
  3  2  2  0  0  0  0
  4  3  1  0  0  0  0
  5  4  1  0  0  0  0
  6  4  2  0  0  0  0
  6  8  1  0  0  0  0
  7  6  1  0  0  0  0
  8 10  2  0  0  0  0
  9  8  1  0  0  0  0
 10  2  1  0  0  0  0
 10 11  1  0  0  0  0
 13 12  1  0  0  0  0
 14 13  1  0  0  0  0
 14 19  1  0  0  0  0
 15 14  2  0  0  0  0
 16 17  2  0  0  0  0
 16 15  1  0  0  0  0
 17 18  1  0  0  0  0
 18 13  2  0  0  0  0
 20 15  1  0  0  0  0
 21 17  1  0  0  0  0
M  END
>  <minimizedAffinity>
-4.20738125

$$$$

 OpenBabel03242514563D

 21 22  0  0  0  0  0  0  0  0999 V2000
   37.2230   26.4740   42.5970 Cl  0  0  0  0  0  0  0  0  0  0  0  0
   38.7400   27.3610   42.6710 C   0  0  0  0  0  0  0  0  0  0  0  0
   38.6630   28.6690   42.2870 C   0  0  0  0  0  0  0  0  0  0  0  0
   39.8340   29.4330   42.3220 C   0  0  0  0  0  0  0  0  0  0  0  0
   39.9080   30.4660   42.0470 H   0  0  0  0  0  0  0  0  0  0  0  0
   41.0240   28.8310   42.7450 C   0  0  0  0  0  0  0  0  0  0  0  0
   41.9510   29.4230   42.7760 H   0  0  0  0  0  0  0  0  0  0  0  0
   41.0980   27.5040   43.1330 C   0  0  0  0  0  0  0  0  0  0  0  0
   42.0180   27.0510   43.4560 H   0  0  0  0  0  0  0  0  0  0  0  0
   39.9170   26.7720   43.0870 C   0  0  0  0  0  0  0  0  0  0  0  0
   39.8860   25.0820   43.5550 Cl  0  0  0  0  0  0  0  0  0  0  0  0
   37.2490   29.5640   41.7350 S   0  0  0  0  0  0  0  0  0  0  0  0
   37.6610   31.1220   40.9450 C   0  0  0  0  0  0  0  0  0  0  0  0
   36.9290   31.4130   39.7820 C   0  0  0  0  0  0  0  0  0  0  0  0
   37.2100   32.6240   39.1210 C   0  0  0  0  0  0  0  0  0  0  0  0
   38.1620   33.4380   39.6340 N   0  0  0  0  0  0  0  0  0  0  0  0
   38.8470   33.1200   40.7590 C   0  0  0  0  0  0  0  0  0  0  0  0
   38.6080   31.9640   41.4280 N   0  0  0  0  0  0  0  0  0  0  0  0
   36.1760   30.7680   39.3790 H   0  0  0  0  0  0  0  0  0  0  0  0
   36.6470   32.8490   38.2270 H   0  0  0  0  0  0  0  0  0  0  0  0
   39.6100   33.7630   41.1760 H   0  0  0  0  0  0  0  0  0  0  0  0
  1  2  1  0  0  0  0
  2 10  1  0  0  0  0
  3  4  1  0  0  0  0
  3  2  2  0  0  0  0
  4  6  2  0  0  0  0
  5  4  1  0  0  0  0
  6  7  1  0  0  0  0
  6  8  1  0  0  0  0
  8  9  1  0  0  0  0
 10  8  2  0  0  0  0
 10 11  1  0  0  0  0
 12  3  1  0  0  0  0
 13 18  1  0  0  0  0
 13 12  1  0  0  0  0
 14 13  2  0  0  0  0
 15 16  2  0  0  0  0
 15 14  1  0  0  0  0
 16 17  1  0  0  0  0
 17 21  1  0  0  0  0
 17 18  2  0  0  0  0
 19 14  1  0  0  0  0
 20 15  1  0  0  0  0
M  END
>  <minimizedAffinity>
-4.17843962

$$$$

 OpenBabel03242514563D

 21 22  0  0  0  0  0  0  0  0999 V2000
   38.7630   30.4700   37.9970 Cl  0  0  0  0  0  0  0  0  0  0  0  0
   39.2220   31.9270   38.8700 C   0  0  0  0  0  0  0  0  0  0  0  0
   38.3890   32.2710   39.8950 C   0  0  0  0  0  0  0  0  0  0  0  0
   38.6950   33.4200   40.6320 C   0  0  0  0  0  0  0  0  0  0  0  0
   38.1250   33.7970   41.4570 H   0  0  0  0  0  0  0  0  0  0  0  0
   39.8320   34.1610   40.2900 C   0  0  0  0  0  0  0  0  0  0  0  0
   40.0820   35.0670   40.8630 H   0  0  0  0  0  0  0  0  0  0  0  0
   40.6730   33.8090   39.2490 C   0  0  0  0  0  0  0  0  0  0  0  0
   41.5440   34.3860   38.9950 H   0  0  0  0  0  0  0  0  0  0  0  0
   40.3410   32.6620   38.5360 C   0  0  0  0  0  0  0  0  0  0  0  0
   41.3320   32.1160   37.1960 Cl  0  0  0  0  0  0  0  0  0  0  0  0
   36.9320   31.4450   40.4430 S   0  0  0  0  0  0  0  0  0  0  0  0
   37.2740   30.0030   41.4550 C   0  0  0  0  0  0  0  0  0  0  0  0
   38.4980   30.0330   42.1420 C   0  0  0  0  0  0  0  0  0  0  0  0
   38.8190   28.9270   42.9530 C   0  0  0  0  0  0  0  0  0  0  0  0
   37.9390   27.9000   43.0270 N   0  0  0  0  0  0  0  0  0  0  0  0
   36.7670   27.9100   42.3470 C   0  0  0  0  0  0  0  0  0  0  0  0
   36.4190   28.9550   41.5560 N   0  0  0  0  0  0  0  0  0  0  0  0
   39.1920   30.8460   42.0820 H   0  0  0  0  0  0  0  0  0  0  0  0
   39.7600   28.9500   43.4810 H   0  0  0  0  0  0  0  0  0  0  0  0
   36.0590   27.0940   42.4000 H   0  0  0  0  0  0  0  0  0  0  0  0
  1  2  1  0  0  0  0
  2  3  1  0  0  0  0
  3 12  1  0  0  0  0
  3  4  2  0  0  0  0
  4  5  1  0  0  0  0
  6  4  1  0  0  0  0
  6  7  1  0  0  0  0
  8  6  2  0  0  0  0
  9  8  1  0  0  0  0
 10  2  2  0  0  0  0
 10  8  1  0  0  0  0
 11 10  1  0  0  0  0
 12 13  1  0  0  0  0
 13 18  2  0  0  0  0
 13 14  1  0  0  0  0
 14 15  2  0  0  0  0
 15 16  1  0  0  0  0
 15 20  1  0  0  0  0
 17 21  1  0  0  0  0
 17 16  2  0  0  0  0
 18 17  1  0  0  0  0
 19 14  1  0  0  0  0
M  END
>  <minimizedAffinity>
-4.14764738

$$$$
