
 OpenBabel03252508033D

 44 47  0  0  1  0  0  0  0  0999 V2000
   42.2090   33.2910   41.0970 C   0  0  0  0  0  0  0  0  0  0  0  0
   42.8750   34.4540   41.3650 C   0  0  0  0  0  0  0  0  0  0  0  0
   42.1330   35.6520   41.3870 C   0  0  0  0  0  0  0  0  0  0  0  0
   40.7780   35.7060   41.1520 C   0  0  0  0  0  0  0  0  0  0  0  0
   40.1190   34.5370   40.8860 C   0  0  0  0  0  0  0  0  0  0  0  0
   40.8310   33.3750   40.8620 C   0  0  0  0  0  0  0  0  0  0  0  0
   42.5740   36.6210   41.5800 H   0  0  0  0  0  0  0  0  0  0  0  0
   40.2240   36.6050   41.1690 H   0  0  0  0  0  0  0  0  0  0  0  0
   39.0750   34.5020   40.6960 H   0  0  0  0  0  0  0  0  0  0  0  0
   40.2890   32.4400   40.6460 H   0  0  0  0  0  0  0  0  0  0  0  0
   42.9500   31.7830   41.1500 S   0  0  0  0  0  0  0  0  0  0  0  0
   41.9570   30.9560   40.2690 O   0  0  0  0  0  0  0  0  0  0  0  0
   42.9460   31.1790   42.5060 O   0  0  0  0  0  0  0  0  0  0  0  0
   43.1260   32.9170   38.3210 Cl  0  0  0  0  0  0  0  0  0  0  0  0
   44.2770   31.6930   38.9050 C   0  0  0  0  0  0  0  0  0  0  0  0
   44.1870   31.1310   40.2110 C   0  0  0  0  0  0  0  0  0  0  0  0
   45.2050   30.2070   40.4050 C   0  0  0  0  0  0  0  0  0  0  0  0
   45.1480   29.8260   41.4410 H   0  0  0  0  0  0  0  0  0  0  0  0
   46.2230   29.7670   39.5970 C   0  0  0  0  0  0  0  0  0  0  0  0
   46.9040   29.0300   39.9640 H   0  0  0  0  0  0  0  0  0  0  0  0
   46.1440   30.4120   38.4000 C   0  0  0  0  0  0  0  0  0  0  0  0
   46.9110   30.1300   37.6800 H   0  0  0  0  0  0  0  0  0  0  0  0
   45.2400   31.3520   37.9880 C   0  0  0  0  0  0  0  0  0  0  0  0
   45.3490   32.0590   36.3920 Cl  0  0  0  0  0  0  0  0  0  0  0  0
   44.3030   34.5040   41.6270 C   0  0  0  0  0  0  0  0  0  0  0  0
   45.1960   34.5210   40.7300 O   0  0  0  0  0  0  0  0  0  0  0  0
   44.6190   34.5350   43.0350 C   0  0  0  0  0  0  0  0  0  0  0  0
   44.3070   35.7650   43.7140 C   0  0  0  0  0  0  0  0  0  0  0  0
   44.6000   35.8200   45.0640 C   0  0  0  0  0  0  0  0  0  0  0  0
   45.1550   34.7260   45.6540 N   0  0  0  0  0  0  0  0  0  0  0  0
   45.4300   33.5800   44.9570 C   0  0  0  0  0  0  0  0  0  0  0  0
   45.1630   33.5150   43.6980 N   0  0  0  0  0  0  0  0  0  0  0  0
   43.8810   36.6520   43.3310 H   0  0  0  0  0  0  0  0  0  0  0  0
   44.4080   36.6970   45.6790 H   0  0  0  0  0  0  0  0  0  0  0  0
   46.0310   32.4370   45.6820 C   0  0  1  0  0  0  0  0  0  0  0  0
   46.9840   32.7100   46.8230 C   0  0  0  0  0  0  0  0  0  0  0  0
   45.5700   32.2790   47.0790 C   0  0  1  0  0  0  0  0  0  0  0  0
   46.2040   31.5280   45.1060 H   0  0  0  0  0  0  0  0  0  0  0  0
   47.2900   33.7760   46.9400 H   0  0  0  0  0  0  0  0  0  0  0  0
   47.8220   31.9900   46.9390 H   0  0  0  0  0  0  0  0  0  0  0  0
   45.4510   31.2580   47.5120 H   0  0  0  0  0  0  0  0  0  0  0  0
   44.7740   33.3230   47.7080 N   0  0  0  0  0  0  0  0  0  0  0  0
   43.7990   33.0230   47.8220 H   0  0  0  0  0  0  0  0  0  0  0  0
   45.2410   33.7160   48.5400 H   0  0  0  0  0  0  0  0  0  0  0  0
  1 11  1  0  0  0  0
  1  2  1  0  0  0  0
  2  3  2  0  0  0  0
  2 25  1  0  0  0  0
  3  7  1  0  0  0  0
  4  8  1  0  0  0  0
  4  3  1  0  0  0  0
  5  4  2  0  0  0  0
  6  5  1  0  0  0  0
  6  1  2  0  0  0  0
  9  5  1  0  0  0  0
 10  6  1  0  0  0  0
 11 13  2  0  0  0  0
 12 11  2  0  0  0  0
 14 15  1  0  0  0  0
 15 16  1  0  0  0  0
 16 17  2  0  0  0  0
 16 11  1  0  0  0  0
 17 18  1  0  0  0  0
 19 20  1  0  0  0  0
 19 17  1  0  0  0  0
 21 19  2  0  0  0  0
 22 21  1  0  0  0  0
 23 21  1  0  0  0  0
 23 15  2  0  0  0  0
 24 23  1  0  0  0  0
 25 27  1  0  0  0  0
 26 25  2  0  0  0  0
 27 32  2  0  0  0  0
 27 28  1  0  0  0  0
 28 29  2  0  0  0  0
 29 30  1  0  0  0  0
 29 34  1  0  0  0  0
 31 30  2  0  0  0  0
 31 35  1  0  0  0  0
 32 31  1  0  0  0  0
 33 28  1  0  0  0  0
 35 38  1  6  0  0  0
 35 36  1  0  0  0  0
 35 37  1  0  0  0  0
 36 40  1  0  0  0  0
 36 39  1  0  0  0  0
 36 37  1  0  0  0  0
 37 41  1  1  0  0  0
 37 42  1  0  0  0  0
 42 43  1  0  0  0  0
 42 44  1  0  0  0  0
M  END
>  <minimizedAffinity>
-5.98602772

>  <minimizedRMSD>
1.37085438

$$$$
