
 OpenBabel03242523073D

 47 51  0  0  1  0  0  0  0  0999 V2000
   46.5950   32.2620   45.7520 C   0  0  0  0  0  0  0  0  0  0  0  0
   46.6820   32.8050   44.4430 C   0  0  0  0  0  0  0  0  0  0  0  0
   47.4280   31.9750   43.6220 C   0  0  0  0  0  0  0  0  0  0  0  0
   48.0180   30.7910   43.9670 C   0  0  0  0  0  0  0  0  0  0  0  0
   47.8800   30.3440   45.2460 C   0  0  0  0  0  0  0  0  0  0  0  0
   47.1680   31.0770   46.1500 C   0  0  0  0  0  0  0  0  0  0  0  0
   48.5660   29.1470   45.2920 O   0  0  0  0  0  0  0  0  0  0  0  0
   49.1610   28.8800   44.0540 C   0  0  1  0  0  0  0  0  0  0  0  0
   48.7690   29.9360   43.1910 O   0  0  0  0  0  0  0  0  0  0  0  0
   46.0830   32.6630   46.6340 H   0  0  0  0  0  0  0  0  0  0  0  0
   47.5010   32.3770   42.6600 H   0  0  0  0  0  0  0  0  0  0  0  0
   47.1170   30.6410   47.1320 H   0  0  0  0  0  0  0  0  0  0  0  0
   48.7360   27.9320   43.6420 H   0  0  0  0  0  0  0  0  0  0  0  0
   50.3980   26.3490   45.3430 Cl  0  0  0  0  0  0  0  0  0  0  0  0
   51.3190   27.7190   44.7660 C   0  0  0  0  0  0  0  0  0  0  0  0
   50.6110   28.7610   44.2210 C   0  0  0  0  0  0  0  0  0  0  0  0
   51.4210   29.8110   43.7870 C   0  0  0  0  0  0  0  0  0  0  0  0
   50.9340   30.6820   43.3400 H   0  0  0  0  0  0  0  0  0  0  0  0
   52.7980   29.8580   43.8690 C   0  0  0  0  0  0  0  0  0  0  0  0
   53.3290   30.7250   43.5010 H   0  0  0  0  0  0  0  0  0  0  0  0
   53.4360   28.7720   44.4290 C   0  0  0  0  0  0  0  0  0  0  0  0
   54.5090   28.7460   44.5220 H   0  0  0  0  0  0  0  0  0  0  0  0
   52.6910   27.7060   44.8760 C   0  0  0  0  0  0  0  0  0  0  0  0
   53.5070   26.3400   45.5820 Cl  0  0  0  0  0  0  0  0  0  0  0  0
   45.1840   36.0910   43.4680 C   0  0  0  0  0  0  0  0  0  0  0  0
   45.9490   34.9400   43.2770 C   0  0  0  0  0  0  0  0  0  0  0  0
   45.9960   34.0290   44.2910 C   0  0  0  0  0  0  0  0  0  0  0  0
   45.2990   34.2880   45.4130 N   0  0  0  0  0  0  0  0  0  0  0  0
   44.5650   35.3950   45.5920 C   0  0  0  0  0  0  0  0  0  0  0  0
   44.5130   36.2870   44.6250 N   0  0  0  0  0  0  0  0  0  0  0  0
   45.1390   36.8340   42.6630 H   0  0  0  0  0  0  0  0  0  0  0  0
   43.9870   35.6590   46.4660 H   0  0  0  0  0  0  0  0  0  0  0  0
   46.5800   34.7700   42.0380 N   0  0  0  0  0  0  0  0  0  0  0  0
   47.8830   35.1350   41.7670 C   0  0  0  0  0  0  0  0  0  0  0  0
   48.3950   34.7140   40.4070 C   0  0  0  0  0  0  0  0  0  0  0  0
   48.0080   33.4350   39.9780 N   0  0  0  0  0  0  0  0  0  0  0  0
   46.6730   33.0660   40.2350 C   0  0  0  0  0  0  0  0  0  0  0  0
   45.9030   34.1890   40.8930 C   0  0  0  0  0  0  0  0  0  0  0  0
   47.9700   36.2620   41.7800 H   0  0  0  0  0  0  0  0  0  0  0  0
   48.6470   34.8220   42.5260 H   0  0  0  0  0  0  0  0  0  0  0  0
   48.0390   35.4740   39.6590 H   0  0  0  0  0  0  0  0  0  0  0  0
   49.4890   34.7930   40.4300 H   0  0  0  0  0  0  0  0  0  0  0  0
   48.3970   33.2570   39.0520 H   0  0  0  0  0  0  0  0  0  0  0  0
   46.5300   32.0910   40.7450 H   0  0  0  0  0  0  0  0  0  0  0  0
   46.1580   32.9200   39.2410 H   0  0  0  0  0  0  0  0  0  0  0  0
   45.8350   35.0210   40.1370 H   0  0  0  0  0  0  0  0  0  0  0  0
   44.8650   33.9060   41.1280 H   0  0  0  0  0  0  0  0  0  0  0  0
  1  6  1  0  0  0  0
  1 10  1  0  0  0  0
  2  1  2  0  0  0  0
  3  4  2  0  0  0  0
  3  2  1  0  0  0  0
  4  5  1  0  0  0  0
  5  7  1  0  0  0  0
  5  6  2  0  0  0  0
  6 12  1  0  0  0  0
  8 13  1  6  0  0  0
  8 16  1  0  0  0  0
  8  7  1  0  0  0  0
  9  4  1  0  0  0  0
  9  8  1  0  0  0  0
 11  3  1  0  0  0  0
 15 23  1  0  0  0  0
 15 14  1  0  0  0  0
 16 15  2  0  0  0  0
 17 19  2  0  0  0  0
 17 16  1  0  0  0  0
 18 17  1  0  0  0  0
 19 21  1  0  0  0  0
 20 19  1  0  0  0  0
 21 22  1  0  0  0  0
 21 23  2  0  0  0  0
 23 24  1  0  0  0  0
 25 30  1  0  0  0  0
 26 25  2  0  0  0  0
 26 27  1  0  0  0  0
 27  2  1  0  0  0  0
 27 28  2  0  0  0  0
 28 29  1  0  0  0  0
 29 32  1  0  0  0  0
 30 29  2  0  0  0  0
 31 25  1  0  0  0  0
 33 26  1  0  0  0  0
 34 39  1  0  0  0  0
 34 33  1  0  0  0  0
 34 40  1  0  0  0  0
 35 42  1  0  0  0  0
 35 34  1  0  0  0  0
 36 37  1  0  0  0  0
 36 35  1  0  0  0  0
 37 44  1  0  0  0  0
 37 38  1  0  0  0  0
 38 47  1  0  0  0  0
 38 33  1  0  0  0  0
 41 35  1  0  0  0  0
 43 36  1  0  0  0  0
 45 37  1  0  0  0  0
 46 38  1  0  0  0  0
M  END
>  <minimizedAffinity>
-5.32655334

>  <minimizedRMSD>
0.657238424

$$$$
