
 OpenBabel03242523383D

 21 22  0  0  0  0  0  0  0  0999 V2000
   47.4670   31.5980   44.7030 Cl  0  0  0  0  0  0  0  0  0  0  0  0
   46.7290   31.7570   46.2670 C   0  0  0  0  0  0  0  0  0  0  0  0
   45.8900   32.8230   46.6100 C   0  0  0  0  0  0  0  0  0  0  0  0
   45.2930   32.9690   47.8490 C   0  0  0  0  0  0  0  0  0  0  0  0
   44.6630   33.7950   48.0660 H   0  0  0  0  0  0  0  0  0  0  0  0
   45.5550   31.9830   48.8030 C   0  0  0  0  0  0  0  0  0  0  0  0
   45.0760   32.1210   49.7640 H   0  0  0  0  0  0  0  0  0  0  0  0
   46.3750   30.8980   48.5390 C   0  0  0  0  0  0  0  0  0  0  0  0
   46.5670   30.1440   49.2910 H   0  0  0  0  0  0  0  0  0  0  0  0
   46.9280   30.8350   47.2760 C   0  0  0  0  0  0  0  0  0  0  0  0
   47.9690   29.4330   46.9800 Cl  0  0  0  0  0  0  0  0  0  0  0  0
   44.5180   35.7620   44.8770 C   0  0  0  0  0  0  0  0  0  0  0  0
   45.1910   35.7340   43.6350 C   0  0  0  0  0  0  0  0  0  0  0  0
   46.1070   34.6890   43.4340 C   0  0  0  0  0  0  0  0  0  0  0  0
   46.2960   33.7720   44.4310 N   0  0  0  0  0  0  0  0  0  0  0  0
   45.6240   33.8540   45.5910 C   0  0  0  0  0  0  0  0  0  0  0  0
   44.7420   34.8360   45.8190 N   0  0  0  0  0  0  0  0  0  0  0  0
   43.8050   36.5400   45.0850 H   0  0  0  0  0  0  0  0  0  0  0  0
   45.0060   36.4880   42.8710 H   0  0  0  0  0  0  0  0  0  0  0  0
   46.9970   34.5870   41.8850 S   0  0  0  0  0  0  0  0  0  0  0  0
   48.3710   34.4940   42.1710 H   0  0  0  0  0  0  0  0  0  0  0  0
  1  2  1  0  0  0  0
  2  3  2  0  0  0  0
  2 10  1  0  0  0  0
  3  4  1  0  0  0  0
  4  5  1  0  0  0  0
  4  6  2  0  0  0  0
  6  7  1  0  0  0  0
  8  6  1  0  0  0  0
  8  9  1  0  0  0  0
 10  8  2  0  0  0  0
 11 10  1  0  0  0  0
 12 18  1  0  0  0  0
 12 17  1  0  0  0  0
 13 12  2  0  0  0  0
 14 13  1  0  0  0  0
 14 15  2  0  0  0  0
 15 16  1  0  0  0  0
 16 17  2  0  0  0  0
 16  3  1  0  0  0  0
 19 13  1  0  0  0  0
 20 21  1  0  0  0  0
 20 14  1  0  0  0  0
M  END
>  <minimizedAffinity>
-5.01421022

>  <minimizedRMSD>
0.67299968

$$$$
