
 OpenBabel03242514553D

 21 22  0  0  0  0  0  0  0  0999 V2000
   42.1020   31.9250   41.7080 Cl  0  0  0  0  0  0  0  0  0  0  0  0
   41.2690   33.3550   41.1120 C   0  0  0  0  0  0  0  0  0  0  0  0
   42.0750   34.4240   40.8450 C   0  0  0  0  0  0  0  0  0  0  0  0
   41.4770   35.5950   40.3670 C   0  0  0  0  0  0  0  0  0  0  0  0
   41.9960   36.4990   40.1210 H   0  0  0  0  0  0  0  0  0  0  0  0
   40.0900   35.6210   40.1850 C   0  0  0  0  0  0  0  0  0  0  0  0
   39.6090   36.5370   39.8100 H   0  0  0  0  0  0  0  0  0  0  0  0
   39.2750   34.5360   40.4580 C   0  0  0  0  0  0  0  0  0  0  0  0
   38.2110   34.5670   40.3150 H   0  0  0  0  0  0  0  0  0  0  0  0
   39.9010   33.3870   40.9310 C   0  0  0  0  0  0  0  0  0  0  0  0
   38.9730   31.9480   41.3120 Cl  0  0  0  0  0  0  0  0  0  0  0  0
   43.8250   34.5430   41.0210 S   0  0  0  0  0  0  0  0  0  0  0  0
   44.3600   34.6250   42.7320 C   0  0  0  0  0  0  0  0  0  0  0  0
   45.0300   33.4850   43.2040 C   0  0  0  0  0  0  0  0  0  0  0  0
   45.4730   33.4940   44.5400 C   0  0  0  0  0  0  0  0  0  0  0  0
   45.2330   34.5920   45.2960 N   0  0  0  0  0  0  0  0  0  0  0  0
   44.5820   35.6730   44.8030 C   0  0  0  0  0  0  0  0  0  0  0  0
   44.1380   35.7060   43.5210 N   0  0  0  0  0  0  0  0  0  0  0  0
   45.2190   32.6190   42.6040 H   0  0  0  0  0  0  0  0  0  0  0  0
   45.9890   32.6180   44.9020 H   0  0  0  0  0  0  0  0  0  0  0  0
   44.3850   36.5530   45.4000 H   0  0  0  0  0  0  0  0  0  0  0  0
  2  1  1  0  0  0  0
  3 12  1  0  0  0  0
  3  2  2  0  0  0  0
  4  3  1  0  0  0  0
  5  4  1  0  0  0  0
  6  4  2  0  0  0  0
  6  8  1  0  0  0  0
  7  6  1  0  0  0  0
  8 10  2  0  0  0  0
  9  8  1  0  0  0  0
 10  2  1  0  0  0  0
 10 11  1  0  0  0  0
 12 13  1  0  0  0  0
 13 14  2  0  0  0  0
 13 18  1  0  0  0  0
 14 15  1  0  0  0  0
 15 20  1  0  0  0  0
 15 16  2  0  0  0  0
 17 16  1  0  0  0  0
 17 21  1  0  0  0  0
 18 17  2  0  0  0  0
 19 14  1  0  0  0  0
M  END
>  <minimizedAffinity>
-4.61870766

>  <minimizedRMSD>
2.21349359

$$$$
