
 OpenBabel03242523123D

 48 52  0  0  1  0  0  0  0  0999 V2000
   46.5700   32.1890   45.6920 C   0  0  0  0  0  0  0  0  0  0  0  0
   46.7190   32.8020   44.4270 C   0  0  0  0  0  0  0  0  0  0  0  0
   47.5700   32.0810   43.6230 C   0  0  0  0  0  0  0  0  0  0  0  0
   48.2090   30.9270   43.9590 C   0  0  0  0  0  0  0  0  0  0  0  0
   48.0110   30.3900   45.2290 C   0  0  0  0  0  0  0  0  0  0  0  0
   47.1780   31.0340   46.1040 C   0  0  0  0  0  0  0  0  0  0  0  0
   48.7850   29.2470   45.2620 O   0  0  0  0  0  0  0  0  0  0  0  0
   49.4320   29.0490   44.0120 C   0  0  2  0  0  0  0  0  0  0  0  0
   49.0680   30.1690   43.1890 O   0  0  0  0  0  0  0  0  0  0  0  0
   45.9520   32.5040   46.5590 H   0  0  0  0  0  0  0  0  0  0  0  0
   47.6930   32.5150   42.6800 H   0  0  0  0  0  0  0  0  0  0  0  0
   47.1010   30.5370   47.0340 H   0  0  0  0  0  0  0  0  0  0  0  0
   50.5270   29.1040   44.1420 H   0  0  0  0  0  0  0  0  0  0  0  0
   45.0900   36.0430   43.5000 C   0  0  0  0  0  0  0  0  0  0  0  0
   45.8920   34.9180   43.2970 C   0  0  0  0  0  0  0  0  0  0  0  0
   46.0230   34.0050   44.2990 C   0  0  0  0  0  0  0  0  0  0  0  0
   45.3500   34.2530   45.4650 N   0  0  0  0  0  0  0  0  0  0  0  0
   44.5830   35.3330   45.6550 C   0  0  0  0  0  0  0  0  0  0  0  0
   44.4590   36.2070   44.6880 N   0  0  0  0  0  0  0  0  0  0  0  0
   44.9800   36.7730   42.7070 H   0  0  0  0  0  0  0  0  0  0  0  0
   44.0280   35.5880   46.5470 H   0  0  0  0  0  0  0  0  0  0  0  0
   46.5420   34.8100   42.0690 N   0  0  0  0  0  0  0  0  0  0  0  0
   47.8730   35.2850   41.8730 C   0  0  0  0  0  0  0  0  0  0  0  0
   48.4820   34.9360   40.5500 C   0  0  0  0  0  0  0  0  0  0  0  0
   48.1870   33.6460   40.0810 N   0  0  0  0  0  0  0  0  0  0  0  0
   46.8870   33.2070   40.2400 C   0  0  0  0  0  0  0  0  0  0  0  0
   46.0040   34.2480   40.8930 C   0  0  0  0  0  0  0  0  0  0  0  0
   47.8300   36.4060   41.9080 H   0  0  0  0  0  0  0  0  0  0  0  0
   48.5670   35.0080   42.6950 H   0  0  0  0  0  0  0  0  0  0  0  0
   48.1550   35.6870   39.7900 H   0  0  0  0  0  0  0  0  0  0  0  0
   49.5880   35.0620   40.6260 H   0  0  0  0  0  0  0  0  0  0  0  0
   48.6000   33.5050   39.1490 H   0  0  0  0  0  0  0  0  0  0  0  0
   46.4360   33.0010   39.2300 H   0  0  0  0  0  0  0  0  0  0  0  0
   46.7160   32.2580   40.8080 H   0  0  0  0  0  0  0  0  0  0  0  0
   44.9530   33.9010   40.9780 H   0  0  0  0  0  0  0  0  0  0  0  0
   45.9530   35.0800   40.1310 H   0  0  0  0  0  0  0  0  0  0  0  0
   48.9170   27.9110   43.4480 O   0  0  0  0  0  0  0  0  0  0  0  0
   45.7860   28.5120   43.1460 Cl  0  0  0  0  0  0  0  0  0  0  0  0
   46.5070   27.1350   43.9120 C   0  0  0  0  0  0  0  0  0  0  0  0
   47.8790   27.1670   43.8770 C   0  0  0  0  0  0  0  0  0  0  0  0
   48.4840   26.0520   44.4960 C   0  0  0  0  0  0  0  0  0  0  0  0
   49.5330   25.7730   44.6400 H   0  0  0  0  0  0  0  0  0  0  0  0
   47.7520   25.0100   45.0900 C   0  0  0  0  0  0  0  0  0  0  0  0
   48.1080   24.1210   45.5850 H   0  0  0  0  0  0  0  0  0  0  0  0
   46.3610   25.0620   45.0770 C   0  0  0  0  0  0  0  0  0  0  0  0
   45.6700   24.3480   45.4860 H   0  0  0  0  0  0  0  0  0  0  0  0
   45.7640   26.1350   44.4820 C   0  0  0  0  0  0  0  0  0  0  0  0
   44.0300   26.3420   44.3860 Cl  0  0  0  0  0  0  0  0  0  0  0  0
  1  6  1  0  0  0  0
  1 10  1  0  0  0  0
  2  1  2  0  0  0  0
  3  4  2  0  0  0  0
  3  2  1  0  0  0  0
  4  5  1  0  0  0  0
  5  7  1  0  0  0  0
  5  6  2  0  0  0  0
  6 12  1  0  0  0  0
  8 13  1  1  0  0  0
  8  7  1  0  0  0  0
  9  4  1  0  0  0  0
  9  8  1  0  0  0  0
 11  3  1  0  0  0  0
 14 19  1  0  0  0  0
 15 14  2  0  0  0  0
 15 16  1  0  0  0  0
 16  2  1  0  0  0  0
 16 17  2  0  0  0  0
 17 18  1  0  0  0  0
 18 21  1  0  0  0  0
 19 18  2  0  0  0  0
 20 14  1  0  0  0  0
 22 15  1  0  0  0  0
 23 28  1  0  0  0  0
 23 22  1  0  0  0  0
 23 29  1  0  0  0  0
 24 31  1  0  0  0  0
 24 23  1  0  0  0  0
 25 26  1  0  0  0  0
 25 24  1  0  0  0  0
 26 34  1  0  0  0  0
 26 27  1  0  0  0  0
 27 35  1  0  0  0  0
 27 22  1  0  0  0  0
 30 24  1  0  0  0  0
 32 25  1  0  0  0  0
 33 26  1  0  0  0  0
 36 27  1  0  0  0  0
 37 40  1  0  0  0  0
 37  8  1  0  0  0  0
 38 39  1  0  0  0  0
 39 47  1  0  0  0  0
 40 39  2  0  0  0  0
 40 41  1  0  0  0  0
 41 42  1  0  0  0  0
 41 43  2  0  0  0  0
 43 44  1  0  0  0  0
 45 43  1  0  0  0  0
 45 46  1  0  0  0  0
 47 45  2  0  0  0  0
 48 47  1  0  0  0  0
M  END
>  <minimizedAffinity>
-4.88083315

>  <minimizedRMSD>
2.94246602

$$$$
