
 OpenBabel03252506483D

 44 47  0  0  1  0  0  0  0  0999 V2000
   40.4290   32.8710   39.6750 N   0  0  1  0  0  0  0  0  0  0  0  0
   39.8630   34.1920   39.7380 C   0  0  0  0  0  0  0  0  0  0  0  0
   38.5500   34.2500   40.4560 C   0  0  0  0  0  0  0  0  0  0  0  0
   37.5160   33.4940   39.6470 C   0  0  0  0  0  0  0  0  0  0  0  0
   38.1300   32.2620   39.0170 C   0  0  0  0  0  0  0  0  0  0  0  0
   39.3930   31.8790   39.7710 C   0  0  2  0  0  0  0  0  0  0  0  0
   40.5790   34.8050   40.3400 H   0  0  0  0  0  0  0  0  0  0  0  0
   39.7480   34.6600   38.7430 H   0  0  0  0  0  0  0  0  0  0  0  0
   38.2310   35.3160   40.4190 H   0  0  0  0  0  0  0  0  0  0  0  0
   38.5930   33.9750   41.5090 H   0  0  0  0  0  0  0  0  0  0  0  0
   36.7490   33.1530   40.3680 H   0  0  0  0  0  0  0  0  0  0  0  0
   37.0020   34.1310   38.9040 H   0  0  0  0  0  0  0  0  0  0  0  0
   38.4370   32.4380   37.9660 H   0  0  0  0  0  0  0  0  0  0  0  0
   37.4440   31.3950   39.0810 H   0  0  0  0  0  0  0  0  0  0  0  0
   39.7780   30.9560   39.2790 H   0  0  0  0  0  0  0  0  0  0  0  0
   42.7040   32.6110   38.4710 C   0  0  1  0  0  0  0  0  0  0  0  0
   42.0820   33.9210   38.1610 C   0  0  0  0  0  0  0  0  0  0  0  0
   41.2270   32.7700   38.5090 C   0  0  2  0  0  0  0  0  0  0  0  0
   43.2440   32.5110   39.4260 H   0  0  0  0  0  0  0  0  0  0  0  0
   42.2440   34.7250   38.9000 H   0  0  0  0  0  0  0  0  0  0  0  0
   42.1940   34.2910   37.1130 H   0  0  0  0  0  0  0  0  0  0  0  0
   40.6980   32.3080   37.6270 H   0  0  0  0  0  0  0  0  0  0  0  0
   42.5730   30.8710   36.6660 C   0  0  0  0  0  0  0  0  0  0  0  0
   43.3250   31.8260   37.3830 C   0  0  0  0  0  0  0  0  0  0  0  0
   44.6700   32.0080   37.0240 C   0  0  0  0  0  0  0  0  0  0  0  0
   45.1720   31.2570   36.0120 N   0  0  0  0  0  0  0  0  0  0  0  0
   44.4250   30.3530   35.3490 C   0  0  0  0  0  0  0  0  0  0  0  0
   43.1190   30.1480   35.6650 N   0  0  0  0  0  0  0  0  0  0  0  0
   41.5380   30.7100   36.9200 H   0  0  0  0  0  0  0  0  0  0  0  0
   45.2640   32.7300   37.5550 H   0  0  0  0  0  0  0  0  0  0  0  0
   45.0120   29.8590   34.5770 H   0  0  0  0  0  0  0  0  0  0  0  0
   39.0420   31.5170   41.1070 N   0  0  0  0  0  0  0  0  0  0  0  0
   38.7490   32.2840   41.7870 H   0  0  0  0  0  0  0  0  0  0  0  0
   36.3390   30.1940   41.5180 Cl  0  0  0  0  0  0  0  0  0  0  0  0
   37.8530   29.5090   42.0710 C   0  0  0  0  0  0  0  0  0  0  0  0
   38.9920   30.2700   41.7830 C   0  0  0  0  0  0  0  0  0  0  0  0
   40.1920   29.7260   42.2210 C   0  0  0  0  0  0  0  0  0  0  0  0
   41.1000   30.2460   42.0430 H   0  0  0  0  0  0  0  0  0  0  0  0
   40.3340   28.5310   42.8960 C   0  0  0  0  0  0  0  0  0  0  0  0
   41.2850   28.1570   43.2120 H   0  0  0  0  0  0  0  0  0  0  0  0
   39.1850   27.8040   43.1650 C   0  0  0  0  0  0  0  0  0  0  0  0
   39.1940   26.8590   43.6860 H   0  0  0  0  0  0  0  0  0  0  0  0
   37.9770   28.3160   42.7420 C   0  0  0  0  0  0  0  0  0  0  0  0
   36.4390   27.5120   43.0070 Cl  0  0  0  0  0  0  0  0  0  0  0  0
  1  2  1  6  0  0  0
  1  6  1  0  0  0  0
  2  7  1  0  0  0  0
  2  3  1  0  0  0  0
  3 10  1  0  0  0  0
  4 11  1  0  0  0  0
  4  3  1  0  0  0  0
  5 14  1  0  0  0  0
  5  4  1  0  0  0  0
  5  6  1  0  0  0  0
  6 15  1  6  0  0  0
  6 32  1  0  0  0  0
  8  2  1  0  0  0  0
  9  3  1  0  0  0  0
 12  4  1  0  0  0  0
 13  5  1  0  0  0  0
 16 18  1  0  0  0  0
 16 19  1  1  0  0  0
 17 16  1  0  0  0  0
 17 18  1  0  0  0  0
 17 20  1  0  0  0  0
 18 22  1  6  0  0  0
 18  1  1  0  0  0  0
 21 17  1  0  0  0  0
 23 29  1  0  0  0  0
 23 24  1  0  0  0  0
 24 16  1  0  0  0  0
 25 24  2  0  0  0  0
 25 30  1  0  0  0  0
 26 25  1  0  0  0  0
 27 28  1  0  0  0  0
 27 26  2  0  0  0  0
 28 23  2  0  0  0  0
 31 27  1  0  0  0  0
 32 36  1  0  0  0  0
 32 33  1  0  0  0  0
 34 35  1  0  0  0  0
 35 43  1  0  0  0  0
 36 35  2  0  0  0  0
 36 37  1  0  0  0  0
 37 39  2  0  0  0  0
 38 37  1  0  0  0  0
 39 41  1  0  0  0  0
 39 40  1  0  0  0  0
 41 42  1  0  0  0  0
 43 44  1  0  0  0  0
 43 41  2  0  0  0  0
M  END
>  <minimizedAffinity>
-5.93676853

$$$$

 OpenBabel03252506483D

 44 47  0  0  1  0  0  0  0  0999 V2000
   37.6110   30.3620   41.0080 N   0  0  1  0  0  0  0  0  0  0  0  0
   36.2260   30.5720   40.6800 C   0  0  0  0  0  0  0  0  0  0  0  0
   35.4070   29.3190   40.6970 C   0  0  0  0  0  0  0  0  0  0  0  0
   35.8700   28.4140   39.5740 C   0  0  0  0  0  0  0  0  0  0  0  0
   37.3750   28.4910   39.4160 C   0  0  0  0  0  0  0  0  0  0  0  0
   37.9970   29.0110   40.7010 C   0  0  2  0  0  0  0  0  0  0  0  0
   35.8150   31.2280   41.4870 H   0  0  0  0  0  0  0  0  0  0  0  0
   36.0840   31.0780   39.7080 H   0  0  0  0  0  0  0  0  0  0  0  0
   34.3740   29.6260   40.4200 H   0  0  0  0  0  0  0  0  0  0  0  0
   35.3350   28.8320   41.6700 H   0  0  0  0  0  0  0  0  0  0  0  0
   35.6200   27.3830   39.8830 H   0  0  0  0  0  0  0  0  0  0  0  0
   35.3410   28.6050   38.6230 H   0  0  0  0  0  0  0  0  0  0  0  0
   37.6770   29.1980   38.6160 H   0  0  0  0  0  0  0  0  0  0  0  0
   37.8100   27.4900   39.2320 H   0  0  0  0  0  0  0  0  0  0  0  0
   39.0980   29.0180   40.5310 H   0  0  0  0  0  0  0  0  0  0  0  0
   39.0790   32.4920   41.0190 C   0  0  1  0  0  0  0  0  0  0  0  0
   37.8250   32.7120   40.2590 C   0  0  0  0  0  0  0  0  0  0  0  0
   38.3890   31.3520   40.3610 C   0  0  2  0  0  0  0  0  0  0  0  0
   39.0350   32.5650   42.1180 H   0  0  0  0  0  0  0  0  0  0  0  0
   36.9340   32.9790   40.8540 H   0  0  0  0  0  0  0  0  0  0  0  0
   37.9050   33.3280   39.3310 H   0  0  0  0  0  0  0  0  0  0  0  0
   38.8990   30.9960   39.4190 H   0  0  0  0  0  0  0  0  0  0  0  0
   41.5890   32.5010   40.9600 C   0  0  0  0  0  0  0  0  0  0  0  0
   40.3590   32.9870   40.4680 C   0  0  0  0  0  0  0  0  0  0  0  0
   40.3920   33.9430   39.4410 C   0  0  0  0  0  0  0  0  0  0  0  0
   41.6020   34.3480   38.9790 N   0  0  0  0  0  0  0  0  0  0  0  0
   42.7580   33.8630   39.4720 C   0  0  0  0  0  0  0  0  0  0  0  0
   42.7680   32.9360   40.4670 N   0  0  0  0  0  0  0  0  0  0  0  0
   41.5930   31.7660   41.7480 H   0  0  0  0  0  0  0  0  0  0  0  0
   39.4680   34.3290   39.0480 H   0  0  0  0  0  0  0  0  0  0  0  0
   43.6120   34.3140   38.9690 H   0  0  0  0  0  0  0  0  0  0  0  0
   37.7480   28.0720   41.7480 N   0  0  0  0  0  0  0  0  0  0  0  0
   36.9290   28.2440   42.4080 H   0  0  0  0  0  0  0  0  0  0  0  0
   40.5480   28.2430   42.9130 Cl  0  0  0  0  0  0  0  0  0  0  0  0
   39.6780   26.7410   42.6850 C   0  0  0  0  0  0  0  0  0  0  0  0
   38.3970   26.8700   42.1350 C   0  0  0  0  0  0  0  0  0  0  0  0
   37.7080   25.6790   41.9550 C   0  0  0  0  0  0  0  0  0  0  0  0
   36.7310   25.6960   41.5400 H   0  0  0  0  0  0  0  0  0  0  0  0
   38.1810   24.4210   42.2690 C   0  0  0  0  0  0  0  0  0  0  0  0
   37.6060   23.5340   42.1090 H   0  0  0  0  0  0  0  0  0  0  0  0
   39.4530   24.3300   42.8110 C   0  0  0  0  0  0  0  0  0  0  0  0
   39.9090   23.3920   43.0880 H   0  0  0  0  0  0  0  0  0  0  0  0
   40.1640   25.4950   43.0030 C   0  0  0  0  0  0  0  0  0  0  0  0
   41.7840   25.5410   43.6790 Cl  0  0  0  0  0  0  0  0  0  0  0  0
  1  2  1  6  0  0  0
  2  3  1  0  0  0  0
  2  7  1  0  0  0  0
  3 10  1  0  0  0  0
  4 11  1  0  0  0  0
  4  3  1  0  0  0  0
  5  4  1  0  0  0  0
  5  6  1  0  0  0  0
  6 15  1  6  0  0  0
  6  1  1  0  0  0  0
  6 32  1  0  0  0  0
  8  2  1  0  0  0  0
  9  3  1  0  0  0  0
 12  4  1  0  0  0  0
 13  5  1  0  0  0  0
 14  5  1  0  0  0  0
 16 19  1  1  0  0  0
 17 18  1  0  0  0  0
 17 20  1  0  0  0  0
 17 16  1  0  0  0  0
 18 22  1  6  0  0  0
 18  1  1  0  0  0  0
 18 16  1  0  0  0  0
 21 17  1  0  0  0  0
 23 29  1  0  0  0  0
 24 23  1  0  0  0  0
 24 16  1  0  0  0  0
 25 24  2  0  0  0  0
 26 25  1  0  0  0  0
 26 27  2  0  0  0  0
 27 28  1  0  0  0  0
 28 23  2  0  0  0  0
 30 25  1  0  0  0  0
 31 27  1  0  0  0  0
 32 36  1  0  0  0  0
 32 33  1  0  0  0  0
 35 34  1  0  0  0  0
 35 43  1  0  0  0  0
 36 35  2  0  0  0  0
 37 36  1  0  0  0  0
 37 39  2  0  0  0  0
 38 37  1  0  0  0  0
 39 41  1  0  0  0  0
 40 39  1  0  0  0  0
 41 43  2  0  0  0  0
 41 42  1  0  0  0  0
 43 44  1  0  0  0  0
M  END
>  <minimizedAffinity>
-5.62475538

$$$$

 OpenBabel03252506483D

 44 47  0  0  1  0  0  0  0  0999 V2000
   38.3360   31.3920   40.6620 N   0  0  1  0  0  0  0  0  0  0  0  0
   36.9700   31.7350   40.3680 C   0  0  0  0  0  0  0  0  0  0  0  0
   36.0110   30.6020   40.5630 C   0  0  0  0  0  0  0  0  0  0  0  0
   36.3030   29.5290   39.5350 C   0  0  0  0  0  0  0  0  0  0  0  0
   37.7950   29.4010   39.3080 C   0  0  0  0  0  0  0  0  0  0  0  0
   38.5430   29.9790   40.4990 C   0  0  2  0  0  0  0  0  0  0  0  0
   36.6840   32.5220   41.1090 H   0  0  0  0  0  0  0  0  0  0  0  0
   36.8370   32.1440   39.3500 H   0  0  0  0  0  0  0  0  0  0  0  0
   35.0080   31.0030   40.2940 H   0  0  0  0  0  0  0  0  0  0  0  0
   35.9350   30.2390   41.5880 H   0  0  0  0  0  0  0  0  0  0  0  0
   35.9490   28.5770   39.9720 H   0  0  0  0  0  0  0  0  0  0  0  0
   35.7490   29.6780   38.5900 H   0  0  0  0  0  0  0  0  0  0  0  0
   38.1350   29.9730   38.4200 H   0  0  0  0  0  0  0  0  0  0  0  0
   38.0980   28.3400   39.2250 H   0  0  0  0  0  0  0  0  0  0  0  0
   39.6260   29.8300   40.2840 H   0  0  0  0  0  0  0  0  0  0  0  0
   40.3920   32.9310   40.3520 C   0  0  1  0  0  0  0  0  0  0  0  0
   39.1330   33.6620   40.0750 C   0  0  0  0  0  0  0  0  0  0  0  0
   39.1900   32.2020   39.8730 C   0  0  2  0  0  0  0  0  0  0  0  0
   40.6950   32.8070   41.4050 H   0  0  0  0  0  0  0  0  0  0  0  0
   38.6030   34.0720   40.9530 H   0  0  0  0  0  0  0  0  0  0  0  0
   39.1530   34.3870   39.2260 H   0  0  0  0  0  0  0  0  0  0  0  0
   39.2500   31.8910   38.7900 H   0  0  0  0  0  0  0  0  0  0  0  0
   41.5760   34.1650   38.5130 C   0  0  0  0  0  0  0  0  0  0  0  0
   41.5490   33.1070   39.4470 C   0  0  0  0  0  0  0  0  0  0  0  0
   42.6510   32.2400   39.4900 C   0  0  0  0  0  0  0  0  0  0  0  0
   43.6790   32.4650   38.6340 N   0  0  0  0  0  0  0  0  0  0  0  0
   43.6730   33.4850   37.7550 C   0  0  0  0  0  0  0  0  0  0  0  0
   42.6240   34.3470   37.6820 N   0  0  0  0  0  0  0  0  0  0  0  0
   40.7430   34.8470   38.4580 H   0  0  0  0  0  0  0  0  0  0  0  0
   42.6550   31.4260   40.1940 H   0  0  0  0  0  0  0  0  0  0  0  0
   44.5860   33.4910   37.1630 H   0  0  0  0  0  0  0  0  0  0  0  0
   38.2410   29.2000   41.6560 N   0  0  0  0  0  0  0  0  0  0  0  0
   37.4030   29.4720   42.2560 H   0  0  0  0  0  0  0  0  0  0  0  0
   36.9490   26.4850   41.2260 Cl  0  0  0  0  0  0  0  0  0  0  0  0
   38.4160   26.7300   42.1500 C   0  0  0  0  0  0  0  0  0  0  0  0
   38.8550   28.0560   42.2320 C   0  0  0  0  0  0  0  0  0  0  0  0
   40.0190   28.2490   42.9630 C   0  0  0  0  0  0  0  0  0  0  0  0
   40.4130   29.2280   43.0740 H   0  0  0  0  0  0  0  0  0  0  0  0
   40.7450   27.2590   43.5940 C   0  0  0  0  0  0  0  0  0  0  0  0
   41.6380   27.4640   44.1470 H   0  0  0  0  0  0  0  0  0  0  0  0
   40.2810   25.9580   43.4930 C   0  0  0  0  0  0  0  0  0  0  0  0
   40.7800   25.1170   43.9500 H   0  0  0  0  0  0  0  0  0  0  0  0
   39.1280   25.7320   42.7720 C   0  0  0  0  0  0  0  0  0  0  0  0
   38.4190   24.1410   42.5540 Cl  0  0  0  0  0  0  0  0  0  0  0  0
  1  2  1  6  0  0  0
  2  3  1  0  0  0  0
  2  7  1  0  0  0  0
  3 10  1  0  0  0  0
  4 11  1  0  0  0  0
  4  3  1  0  0  0  0
  5  4  1  0  0  0  0
  5  6  1  0  0  0  0
  6 15  1  6  0  0  0
  6  1  1  0  0  0  0
  6 32  1  0  0  0  0
  8  2  1  0  0  0  0
  9  3  1  0  0  0  0
 12  4  1  0  0  0  0
 13  5  1  0  0  0  0
 14  5  1  0  0  0  0
 16 19  1  1  0  0  0
 17 16  1  0  0  0  0
 17 20  1  0  0  0  0
 18 22  1  6  0  0  0
 18 17  1  0  0  0  0
 18 16  1  0  0  0  0
 18  1  1  0  0  0  0
 21 17  1  0  0  0  0
 23 24  1  0  0  0  0
 24 25  2  0  0  0  0
 24 16  1  0  0  0  0
 25 30  1  0  0  0  0
 26 25  1  0  0  0  0
 27 26  2  0  0  0  0
 28 27  1  0  0  0  0
 28 23  2  0  0  0  0
 29 23  1  0  0  0  0
 31 27  1  0  0  0  0
 32 36  1  0  0  0  0
 32 33  1  0  0  0  0
 34 35  1  0  0  0  0
 35 36  2  0  0  0  0
 35 43  1  0  0  0  0
 36 37  1  0  0  0  0
 37 38  1  0  0  0  0
 37 39  2  0  0  0  0
 39 40  1  0  0  0  0
 41 39  1  0  0  0  0
 41 42  1  0  0  0  0
 43 41  2  0  0  0  0
 44 43  1  0  0  0  0
M  END
>  <minimizedAffinity>
-5.48542309

$$$$

 OpenBabel03252506483D

 44 47  0  0  1  0  0  0  0  0999 V2000
   37.6510   30.5320   38.8570 N   0  0  1  0  0  0  0  0  0  0  0  0
   38.8540   31.1490   38.3660 C   0  0  0  0  0  0  0  0  0  0  0  0
   39.5470   32.0050   39.3810 C   0  0  0  0  0  0  0  0  0  0  0  0
   38.6740   33.2040   39.6900 C   0  0  0  0  0  0  0  0  0  0  0  0
   37.2130   32.8050   39.7140 C   0  0  0  0  0  0  0  0  0  0  0  0
   37.0970   31.3060   39.9360 C   0  0  2  0  0  0  0  0  0  0  0  0
   39.5550   30.3110   38.1300 H   0  0  0  0  0  0  0  0  0  0  0  0
   38.6910   31.7430   37.4490 H   0  0  0  0  0  0  0  0  0  0  0  0
   40.4430   32.4190   38.8670 H   0  0  0  0  0  0  0  0  0  0  0  0
   39.9120   31.4710   40.2580 H   0  0  0  0  0  0  0  0  0  0  0  0
   38.9470   33.5300   40.7110 H   0  0  0  0  0  0  0  0  0  0  0  0
   38.8620   34.0580   39.0160 H   0  0  0  0  0  0  0  0  0  0  0  0
   36.7050   33.0170   38.7500 H   0  0  0  0  0  0  0  0  0  0  0  0
   36.6780   33.2940   40.5500 H   0  0  0  0  0  0  0  0  0  0  0  0
   36.0060   31.0820   39.9700 H   0  0  0  0  0  0  0  0  0  0  0  0
   36.1290   29.0410   37.3900 C   0  0  1  0  0  0  0  0  0  0  0  0
   37.2680   29.5740   36.6070 C   0  0  0  0  0  0  0  0  0  0  0  0
   36.7650   30.3280   37.7700 C   0  0  2  0  0  0  0  0  0  0  0  0
   36.3090   28.1600   38.0280 H   0  0  0  0  0  0  0  0  0  0  0  0
   38.2180   29.0160   36.6860 H   0  0  0  0  0  0  0  0  0  0  0  0
   37.0520   29.8780   35.5540 H   0  0  0  0  0  0  0  0  0  0  0  0
   36.1530   31.2360   37.4990 H   0  0  0  0  0  0  0  0  0  0  0  0
   33.6280   28.9900   37.6190 C   0  0  0  0  0  0  0  0  0  0  0  0
   34.7740   29.0440   36.7960 C   0  0  0  0  0  0  0  0  0  0  0  0
   34.5840   29.1090   35.4070 C   0  0  0  0  0  0  0  0  0  0  0  0
   33.3130   29.1150   34.9330 N   0  0  0  0  0  0  0  0  0  0  0  0
   32.2410   29.0600   35.7460 C   0  0  0  0  0  0  0  0  0  0  0  0
   32.3830   28.9980   37.0970 N   0  0  0  0  0  0  0  0  0  0  0  0
   33.7450   28.9390   38.6890 H   0  0  0  0  0  0  0  0  0  0  0  0
   35.4420   29.1520   34.7590 H   0  0  0  0  0  0  0  0  0  0  0  0
   31.3180   29.0760   35.1710 H   0  0  0  0  0  0  0  0  0  0  0  0
   37.6230   30.9870   41.2240 N   0  0  0  0  0  0  0  0  0  0  0  0
   37.7280   31.7660   41.9430 H   0  0  0  0  0  0  0  0  0  0  0  0
   35.7580   28.5900   41.2000 Cl  0  0  0  0  0  0  0  0  0  0  0  0
   37.3660   28.5660   41.8940 C   0  0  0  0  0  0  0  0  0  0  0  0
   38.0720   29.7710   41.8040 C   0  0  0  0  0  0  0  0  0  0  0  0
   39.3460   29.7520   42.3530 C   0  0  0  0  0  0  0  0  0  0  0  0
   39.9430   30.6300   42.3270 H   0  0  0  0  0  0  0  0  0  0  0  0
   39.9440   28.6660   42.9600 C   0  0  0  0  0  0  0  0  0  0  0  0
   40.9320   28.7060   43.3680 H   0  0  0  0  0  0  0  0  0  0  0  0
   39.2160   27.4890   43.0320 C   0  0  0  0  0  0  0  0  0  0  0  0
   39.5970   26.5870   43.4860 H   0  0  0  0  0  0  0  0  0  0  0  0
   37.9470   27.4750   42.4950 C   0  0  0  0  0  0  0  0  0  0  0  0
   36.9050   26.0620   42.5080 Cl  0  0  0  0  0  0  0  0  0  0  0  0
  1  2  1  6  0  0  0
  1  6  1  0  0  0  0
  2  3  1  0  0  0  0
  3  4  1  0  0  0  0
  3 10  1  0  0  0  0
  4  5  1  0  0  0  0
  4 11  1  0  0  0  0
  5  6  1  0  0  0  0
  5 14  1  0  0  0  0
  6 15  1  1  0  0  0
  6 32  1  0  0  0  0
  7  2  1  0  0  0  0
  8  2  1  0  0  0  0
  9  3  1  0  0  0  0
 12  4  1  0  0  0  0
 13  5  1  0  0  0  0
 16 18  1  0  0  0  0
 16 19  1  1  0  0  0
 17 20  1  0  0  0  0
 17 16  1  0  0  0  0
 17 18  1  0  0  0  0
 18 22  1  6  0  0  0
 18  1  1  0  0  0  0
 21 17  1  0  0  0  0
 23 29  1  0  0  0  0
 24 16  1  0  0  0  0
 24 23  2  0  0  0  0
 25 24  1  0  0  0  0
 26 25  2  0  0  0  0
 26 27  1  0  0  0  0
 27 28  2  0  0  0  0
 28 23  1  0  0  0  0
 30 25  1  0  0  0  0
 31 27  1  0  0  0  0
 32 36  1  0  0  0  0
 32 33  1  0  0  0  0
 34 35  1  0  0  0  0
 35 43  1  0  0  0  0
 36 35  2  0  0  0  0
 36 37  1  0  0  0  0
 37 39  2  0  0  0  0
 38 37  1  0  0  0  0
 39 41  1  0  0  0  0
 39 40  1  0  0  0  0
 41 42  1  0  0  0  0
 43 44  1  0  0  0  0
 43 41  2  0  0  0  0
M  END
>  <minimizedAffinity>
-5.46064901

$$$$

 OpenBabel03252506483D

 44 47  0  0  1  0  0  0  0  0999 V2000
   37.6750   30.2680   41.1980 N   0  0  1  0  0  0  0  0  0  0  0  0
   36.3540   30.7220   40.8520 C   0  0  0  0  0  0  0  0  0  0  0  0
   35.3960   29.6110   40.5520 C   0  0  0  0  0  0  0  0  0  0  0  0
   35.8390   28.9120   39.2830 C   0  0  0  0  0  0  0  0  0  0  0  0
   37.3500   28.8230   39.2250 C   0  0  0  0  0  0  0  0  0  0  0  0
   37.9250   28.9740   40.6230 C   0  0  2  0  0  0  0  0  0  0  0  0
   35.9600   31.2410   41.7610 H   0  0  0  0  0  0  0  0  0  0  0  0
   36.3500   31.4350   40.0090 H   0  0  0  0  0  0  0  0  0  0  0  0
   34.4320   30.1020   40.2950 H   0  0  0  0  0  0  0  0  0  0  0  0
   35.1920   28.9440   41.3890 H   0  0  0  0  0  0  0  0  0  0  0  0
   35.4470   27.8790   39.3450 H   0  0  0  0  0  0  0  0  0  0  0  0
   35.4130   29.3660   38.3710 H   0  0  0  0  0  0  0  0  0  0  0  0
   37.7950   29.6370   38.6160 H   0  0  0  0  0  0  0  0  0  0  0  0
   37.6790   27.8350   38.8490 H   0  0  0  0  0  0  0  0  0  0  0  0
   39.0290   28.8730   40.5170 H   0  0  0  0  0  0  0  0  0  0  0  0
   40.0390   31.0350   40.4790 C   0  0  1  0  0  0  0  0  0  0  0  0
   39.6690   31.6090   41.7950 C   0  0  0  0  0  0  0  0  0  0  0  0
   38.6120   31.2630   40.8250 C   0  0  2  0  0  0  0  0  0  0  0  0
   40.4120   29.9980   40.4560 H   0  0  0  0  0  0  0  0  0  0  0  0
   39.8370   30.9620   42.6740 H   0  0  0  0  0  0  0  0  0  0  0  0
   39.9870   32.6620   41.9880 H   0  0  0  0  0  0  0  0  0  0  0  0
   38.1560   32.1550   40.3070 H   0  0  0  0  0  0  0  0  0  0  0  0
   40.6790   31.5370   38.1030 C   0  0  0  0  0  0  0  0  0  0  0  0
   40.6910   31.8960   39.4690 C   0  0  0  0  0  0  0  0  0  0  0  0
   41.3310   33.0910   39.8290 C   0  0  0  0  0  0  0  0  0  0  0  0
   41.9030   33.8340   38.8490 N   0  0  0  0  0  0  0  0  0  0  0  0
   41.8740   33.4620   37.5550 C   0  0  0  0  0  0  0  0  0  0  0  0
   41.2630   32.3120   37.1640 N   0  0  0  0  0  0  0  0  0  0  0  0
   40.1950   30.6240   37.7980 H   0  0  0  0  0  0  0  0  0  0  0  0
   41.3530   33.3870   40.8640 H   0  0  0  0  0  0  0  0  0  0  0  0
   42.3860   34.1920   36.9310 H   0  0  0  0  0  0  0  0  0  0  0  0
   37.4860   27.8760   41.4250 N   0  0  0  0  0  0  0  0  0  0  0  0
   36.5170   27.9180   41.8670 H   0  0  0  0  0  0  0  0  0  0  0  0
   36.6960   25.3530   39.9300 Cl  0  0  0  0  0  0  0  0  0  0  0  0
   37.8690   25.3880   41.2300 C   0  0  0  0  0  0  0  0  0  0  0  0
   38.0990   26.6500   41.7920 C   0  0  0  0  0  0  0  0  0  0  0  0
   39.0290   26.6770   42.8210 C   0  0  0  0  0  0  0  0  0  0  0  0
   39.2550   27.5970   43.3000 H   0  0  0  0  0  0  0  0  0  0  0  0
   39.7180   25.5860   43.3120 C   0  0  0  0  0  0  0  0  0  0  0  0
   40.4260   25.6640   44.1100 H   0  0  0  0  0  0  0  0  0  0  0  0
   39.4650   24.3530   42.7330 C   0  0  0  0  0  0  0  0  0  0  0  0
   39.9530   23.4430   43.0470 H   0  0  0  0  0  0  0  0  0  0  0  0
   38.5470   24.2920   41.7070 C   0  0  0  0  0  0  0  0  0  0  0  0
   38.1220   22.8050   40.8760 Cl  0  0  0  0  0  0  0  0  0  0  0  0
  1  2  1  6  0  0  0
  2  7  1  0  0  0  0
  3  2  1  0  0  0  0
  3 10  1  0  0  0  0
  4 11  1  0  0  0  0
  4  3  1  0  0  0  0
  5  4  1  0  0  0  0
  5  6  1  0  0  0  0
  6 15  1  6  0  0  0
  6  1  1  0  0  0  0
  6 32  1  0  0  0  0
  8  2  1  0  0  0  0
  9  3  1  0  0  0  0
 12  4  1  0  0  0  0
 13  5  1  0  0  0  0
 14  5  1  0  0  0  0
 16 19  1  1  0  0  0
 16 18  1  0  0  0  0
 16 17  1  0  0  0  0
 17 21  1  0  0  0  0
 17 20  1  0  0  0  0
 18 22  1  6  0  0  0
 18  1  1  0  0  0  0
 18 17  1  0  0  0  0
 23 24  1  0  0  0  0
 24 25  2  0  0  0  0
 24 16  1  0  0  0  0
 25 30  1  0  0  0  0
 26 25  1  0  0  0  0
 27 26  2  0  0  0  0
 28 27  1  0  0  0  0
 28 23  2  0  0  0  0
 29 23  1  0  0  0  0
 31 27  1  0  0  0  0
 32 36  1  0  0  0  0
 32 33  1  0  0  0  0
 34 35  1  0  0  0  0
 35 43  2  0  0  0  0
 35 36  1  0  0  0  0
 36 37  2  0  0  0  0
 37 38  1  0  0  0  0
 37 39  1  0  0  0  0
 39 40  1  0  0  0  0
 41 42  1  0  0  0  0
 41 39  2  0  0  0  0
 43 41  1  0  0  0  0
 44 43  1  0  0  0  0
M  END
>  <minimizedAffinity>
-5.42782497

$$$$

 OpenBabel03252506483D

 44 47  0  0  1  0  0  0  0  0999 V2000
   37.1910   29.6890   40.5090 N   0  0  1  0  0  0  0  0  0  0  0  0
   37.0580   31.0090   41.0650 C   0  0  0  0  0  0  0  0  0  0  0  0
   36.9710   32.0900   40.0320 C   0  0  0  0  0  0  0  0  0  0  0  0
   38.2970   32.1790   39.3040 C   0  0  0  0  0  0  0  0  0  0  0  0
   38.8850   30.7990   39.0980 C   0  0  0  0  0  0  0  0  0  0  0  0
   37.7840   29.7550   39.2010 C   0  0  2  0  0  0  0  0  0  0  0  0
   36.0820   31.0160   41.6100 H   0  0  0  0  0  0  0  0  0  0  0  0
   37.8630   31.2600   41.7790 H   0  0  0  0  0  0  0  0  0  0  0  0
   36.8820   33.0440   40.5970 H   0  0  0  0  0  0  0  0  0  0  0  0
   36.0990   32.0320   39.3810 H   0  0  0  0  0  0  0  0  0  0  0  0
   38.0740   32.5990   38.3050 H   0  0  0  0  0  0  0  0  0  0  0  0
   39.0100   32.8680   39.7920 H   0  0  0  0  0  0  0  0  0  0  0  0
   39.6310   30.5410   39.8770 H   0  0  0  0  0  0  0  0  0  0  0  0
   39.3270   30.6980   38.0890 H   0  0  0  0  0  0  0  0  0  0  0  0
   38.2730   28.7720   39.0140 H   0  0  0  0  0  0  0  0  0  0  0  0
   37.3170   27.7850   42.2560 C   0  0  1  0  0  0  0  0  0  0  0  0
   37.6530   29.0940   42.8670 C   0  0  0  0  0  0  0  0  0  0  0  0
   37.8970   28.8750   41.4290 C   0  0  2  0  0  0  0  0  0  0  0  0
   36.2520   27.5370   42.1230 H   0  0  0  0  0  0  0  0  0  0  0  0
   36.7990   29.7160   43.1890 H   0  0  0  0  0  0  0  0  0  0  0  0
   38.4750   29.0960   43.6230 H   0  0  0  0  0  0  0  0  0  0  0  0
   38.9820   28.7180   41.1670 H   0  0  0  0  0  0  0  0  0  0  0  0
   37.8280   25.3370   42.0340 C   0  0  0  0  0  0  0  0  0  0  0  0
   38.1400   26.6000   42.5810 C   0  0  0  0  0  0  0  0  0  0  0  0
   39.2530   26.6920   43.4300 C   0  0  0  0  0  0  0  0  0  0  0  0
   39.9660   25.5640   43.6800 N   0  0  0  0  0  0  0  0  0  0  0  0
   39.6390   24.3740   43.1410 C   0  0  0  0  0  0  0  0  0  0  0  0
   38.5690   24.2430   42.3130 N   0  0  0  0  0  0  0  0  0  0  0  0
   36.9780   25.2370   41.3780 H   0  0  0  0  0  0  0  0  0  0  0  0
   39.5120   27.6440   43.8600 H   0  0  0  0  0  0  0  0  0  0  0  0
   40.3330   23.6000   43.4640 H   0  0  0  0  0  0  0  0  0  0  0  0
   36.8520   29.9600   38.1390 N   0  0  0  0  0  0  0  0  0  0  0  0
   36.7980   30.9200   37.6800 H   0  0  0  0  0  0  0  0  0  0  0  0
   37.7690   28.2650   35.7910 Cl  0  0  0  0  0  0  0  0  0  0  0  0
   36.1350   28.2550   36.4200 C   0  0  0  0  0  0  0  0  0  0  0  0
   35.9100   29.1050   37.5090 C   0  0  0  0  0  0  0  0  0  0  0  0
   34.6150   29.0960   38.0080 C   0  0  0  0  0  0  0  0  0  0  0  0
   34.3650   29.7170   38.8320 H   0  0  0  0  0  0  0  0  0  0  0  0
   33.5710   28.3350   37.5210 C   0  0  0  0  0  0  0  0  0  0  0  0
   32.5890   28.3670   37.9450 H   0  0  0  0  0  0  0  0  0  0  0  0
   33.8300   27.5050   36.4420 C   0  0  0  0  0  0  0  0  0  0  0  0
   33.0800   26.8720   35.9930 H   0  0  0  0  0  0  0  0  0  0  0  0
   35.1060   27.4900   35.9240 C   0  0  0  0  0  0  0  0  0  0  0  0
   35.5870   26.4920   34.5620 Cl  0  0  0  0  0  0  0  0  0  0  0  0
  1  2  1  1  0  0  0
  1 18  1  0  0  0  0
  2  7  1  0  0  0  0
  2  8  1  0  0  0  0
  3  9  1  0  0  0  0
  3  2  1  0  0  0  0
  4 12  1  0  0  0  0
  4  3  1  0  0  0  0
  5  6  1  0  0  0  0
  5  4  1  0  0  0  0
  5 13  1  0  0  0  0
  6 15  1  6  0  0  0
  6  1  1  0  0  0  0
 10  3  1  0  0  0  0
 11  4  1  0  0  0  0
 14  5  1  0  0  0  0
 16 19  1  6  0  0  0
 16 24  1  0  0  0  0
 16 17  1  0  0  0  0
 17 20  1  0  0  0  0
 17 21  1  0  0  0  0
 18 22  1  6  0  0  0
 18 16  1  0  0  0  0
 18 17  1  0  0  0  0
 23 28  2  0  0  0  0
 23 24  1  0  0  0  0
 24 25  2  0  0  0  0
 25 26  1  0  0  0  0
 25 30  1  0  0  0  0
 27 31  1  0  0  0  0
 27 26  2  0  0  0  0
 28 27  1  0  0  0  0
 29 23  1  0  0  0  0
 32  6  1  0  0  0  0
 33 32  1  0  0  0  0
 34 35  1  0  0  0  0
 35 36  1  0  0  0  0
 36 37  2  0  0  0  0
 36 32  1  0  0  0  0
 37 38  1  0  0  0  0
 39 40  1  0  0  0  0
 39 37  1  0  0  0  0
 41 39  2  0  0  0  0
 42 41  1  0  0  0  0
 43 35  2  0  0  0  0
 43 41  1  0  0  0  0
 44 43  1  0  0  0  0
M  END
>  <minimizedAffinity>
-5.42768335

$$$$

 OpenBabel03252506483D

 44 47  0  0  1  0  0  0  0  0999 V2000
   38.2950   31.6430   39.3450 N   0  0  1  0  0  0  0  0  0  0  0  0
   37.6600   31.8750   38.0750 C   0  0  0  0  0  0  0  0  0  0  0  0
   36.9180   30.6870   37.5480 C   0  0  0  0  0  0  0  0  0  0  0  0
   37.9140   29.5940   37.2150 C   0  0  0  0  0  0  0  0  0  0  0  0
   39.0300   29.5630   38.2390 C   0  0  0  0  0  0  0  0  0  0  0  0
   38.5680   30.2420   39.5180 C   0  0  2  0  0  0  0  0  0  0  0  0
   36.8950   32.6710   38.2540 H   0  0  0  0  0  0  0  0  0  0  0  0
   38.3630   32.2300   37.3000 H   0  0  0  0  0  0  0  0  0  0  0  0
   36.4920   31.0030   36.5690 H   0  0  0  0  0  0  0  0  0  0  0  0
   36.0780   30.3630   38.1610 H   0  0  0  0  0  0  0  0  0  0  0  0
   37.3630   28.6390   37.2930 H   0  0  0  0  0  0  0  0  0  0  0  0
   38.2980   29.6630   36.1810 H   0  0  0  0  0  0  0  0  0  0  0  0
   39.9270   30.1190   37.8980 H   0  0  0  0  0  0  0  0  0  0  0  0
   39.2970   28.5230   38.5080 H   0  0  0  0  0  0  0  0  0  0  0  0
   39.4170   30.1620   40.2340 H   0  0  0  0  0  0  0  0  0  0  0  0
   40.0420   32.9820   40.7040 C   0  0  1  0  0  0  0  0  0  0  0  0
   39.2280   33.8800   39.8500 C   0  0  0  0  0  0  0  0  0  0  0  0
   39.4360   32.4770   39.4450 C   0  0  2  0  0  0  0  0  0  0  0  0
   39.6100   32.6520   41.6620 H   0  0  0  0  0  0  0  0  0  0  0  0
   38.2510   34.1910   40.2600 H   0  0  0  0  0  0  0  0  0  0  0  0
   39.7650   34.7310   39.3660 H   0  0  0  0  0  0  0  0  0  0  0  0
   40.1770   32.3470   38.6050 H   0  0  0  0  0  0  0  0  0  0  0  0
   42.3090   32.3220   41.5580 C   0  0  0  0  0  0  0  0  0  0  0  0
   41.5050   33.1820   40.7800 C   0  0  0  0  0  0  0  0  0  0  0  0
   42.1390   34.2210   40.0810 C   0  0  0  0  0  0  0  0  0  0  0  0
   43.4860   34.3420   40.1930 N   0  0  0  0  0  0  0  0  0  0  0  0
   44.2230   33.5020   40.9450 C   0  0  0  0  0  0  0  0  0  0  0  0
   43.6470   32.4830   41.6360 N   0  0  0  0  0  0  0  0  0  0  0  0
   41.8480   31.5150   42.1050 H   0  0  0  0  0  0  0  0  0  0  0  0
   41.5490   34.8910   39.4810 H   0  0  0  0  0  0  0  0  0  0  0  0
   45.2770   33.7680   40.9010 H   0  0  0  0  0  0  0  0  0  0  0  0
   37.4870   29.4930   40.0750 N   0  0  0  0  0  0  0  0  0  0  0  0
   36.5390   29.5200   39.5890 H   0  0  0  0  0  0  0  0  0  0  0  0
   36.9360   26.5340   39.6680 Cl  0  0  0  0  0  0  0  0  0  0  0  0
   37.1360   27.2810   41.2400 C   0  0  0  0  0  0  0  0  0  0  0  0
   37.3860   28.6580   41.2180 C   0  0  0  0  0  0  0  0  0  0  0  0
   37.5450   29.2490   42.4640 C   0  0  0  0  0  0  0  0  0  0  0  0
   37.7350   30.2910   42.5300 H   0  0  0  0  0  0  0  0  0  0  0  0
   37.4760   28.5960   43.6780 C   0  0  0  0  0  0  0  0  0  0  0  0
   37.6060   29.1020   44.6120 H   0  0  0  0  0  0  0  0  0  0  0  0
   37.2260   27.2330   43.6620 C   0  0  0  0  0  0  0  0  0  0  0  0
   37.1540   26.6370   44.5580 H   0  0  0  0  0  0  0  0  0  0  0  0
   37.0630   26.6160   42.4400 C   0  0  0  0  0  0  0  0  0  0  0  0
   36.7430   24.8990   42.2580 Cl  0  0  0  0  0  0  0  0  0  0  0  0
  1  2  1  6  0  0  0
  1 18  1  0  0  0  0
  1  6  1  0  0  0  0
  2  7  1  0  0  0  0
  3  2  1  0  0  0  0
  3 10  1  0  0  0  0
  4 11  1  0  0  0  0
  4  3  1  0  0  0  0
  4  5  1  0  0  0  0
  5 14  1  0  0  0  0
  5  6  1  0  0  0  0
  6 32  1  0  0  0  0
  6 15  1  1  0  0  0
  8  2  1  0  0  0  0
  9  3  1  0  0  0  0
 12  4  1  0  0  0  0
 13  5  1  0  0  0  0
 16 24  1  0  0  0  0
 16 19  1  1  0  0  0
 17 20  1  0  0  0  0
 17 16  1  0  0  0  0
 18 22  1  6  0  0  0
 18 17  1  0  0  0  0
 18 16  1  0  0  0  0
 21 17  1  0  0  0  0
 23 28  1  0  0  0  0
 23 29  1  0  0  0  0
 24 23  2  0  0  0  0
 25 26  2  0  0  0  0
 25 24  1  0  0  0  0
 26 27  1  0  0  0  0
 27 28  2  0  0  0  0
 30 25  1  0  0  0  0
 31 27  1  0  0  0  0
 32 36  1  0  0  0  0
 33 32  1  0  0  0  0
 34 35  1  0  0  0  0
 35 43  1  0  0  0  0
 36 35  2  0  0  0  0
 36 37  1  0  0  0  0
 37 38  1  0  0  0  0
 37 39  2  0  0  0  0
 39 40  1  0  0  0  0
 41 39  1  0  0  0  0
 41 42  1  0  0  0  0
 43 41  2  0  0  0  0
 44 43  1  0  0  0  0
M  END
>  <minimizedAffinity>
-5.42573547

$$$$

 OpenBabel03252506483D

 44 47  0  0  1  0  0  0  0  0999 V2000
   37.8680   31.1370   39.6920 N   0  0  1  0  0  0  0  0  0  0  0  0
   37.0250   32.2760   39.9380 C   0  0  0  0  0  0  0  0  0  0  0  0
   37.6900   33.5880   39.6590 C   0  0  0  0  0  0  0  0  0  0  0  0
   38.8090   33.7930   40.6610 C   0  0  0  0  0  0  0  0  0  0  0  0
   39.5120   32.4830   40.9480 C   0  0  0  0  0  0  0  0  0  0  0  0
   39.2530   31.5060   39.8130 C   0  0  2  0  0  0  0  0  0  0  0  0
   36.1770   32.1930   39.2140 H   0  0  0  0  0  0  0  0  0  0  0  0
   36.6130   32.2950   40.9630 H   0  0  0  0  0  0  0  0  0  0  0  0
   36.9350   34.3690   39.8990 H   0  0  0  0  0  0  0  0  0  0  0  0
   37.9790   33.7430   38.6200 H   0  0  0  0  0  0  0  0  0  0  0  0
   39.5400   34.4650   40.1740 H   0  0  0  0  0  0  0  0  0  0  0  0
   38.4710   34.2960   41.5850 H   0  0  0  0  0  0  0  0  0  0  0  0
   39.1330   31.9970   41.8700 H   0  0  0  0  0  0  0  0  0  0  0  0
   40.6090   32.6220   41.0060 H   0  0  0  0  0  0  0  0  0  0  0  0
   39.8160   30.5790   40.0690 H   0  0  0  0  0  0  0  0  0  0  0  0
   36.5390   28.9760   40.1970 C   0  0  1  0  0  0  0  0  0  0  0  0
   36.0850   30.0950   41.0580 C   0  0  0  0  0  0  0  0  0  0  0  0
   37.4690   30.0800   40.5470 C   0  0  2  0  0  0  0  0  0  0  0  0
   36.1480   28.9270   39.1670 H   0  0  0  0  0  0  0  0  0  0  0  0
   35.3460   30.7840   40.6130 H   0  0  0  0  0  0  0  0  0  0  0  0
   35.8320   29.8400   42.1150 H   0  0  0  0  0  0  0  0  0  0  0  0
   38.2400   29.7960   41.3200 H   0  0  0  0  0  0  0  0  0  0  0  0
   36.8480   26.4940   39.9700 C   0  0  0  0  0  0  0  0  0  0  0  0
   36.7390   27.6370   40.7920 C   0  0  0  0  0  0  0  0  0  0  0  0
   36.8340   27.4590   42.1810 C   0  0  0  0  0  0  0  0  0  0  0  0
   37.0230   26.2030   42.6560 N   0  0  0  0  0  0  0  0  0  0  0  0
   37.1220   25.1340   41.8430 C   0  0  0  0  0  0  0  0  0  0  0  0
   37.0370   25.2640   40.4920 N   0  0  0  0  0  0  0  0  0  0  0  0
   36.7790   26.6010   38.9000 H   0  0  0  0  0  0  0  0  0  0  0  0
   36.7540   28.3150   42.8290 H   0  0  0  0  0  0  0  0  0  0  0  0
   37.2720   24.2230   42.4190 H   0  0  0  0  0  0  0  0  0  0  0  0
   39.8340   32.0220   38.6160 N   0  0  0  0  0  0  0  0  0  0  0  0
   39.2720   32.7090   38.0260 H   0  0  0  0  0  0  0  0  0  0  0  0
   41.9720   34.1640   38.8750 Cl  0  0  0  0  0  0  0  0  0  0  0  0
   42.1920   32.6700   37.9880 C   0  0  0  0  0  0  0  0  0  0  0  0
   41.0890   31.8090   37.9870 C   0  0  0  0  0  0  0  0  0  0  0  0
   41.2650   30.6250   37.2850 C   0  0  0  0  0  0  0  0  0  0  0  0
   40.4710   29.9210   37.2350 H   0  0  0  0  0  0  0  0  0  0  0  0
   42.4100   30.2520   36.6110 C   0  0  0  0  0  0  0  0  0  0  0  0
   42.4920   29.3250   36.0840 H   0  0  0  0  0  0  0  0  0  0  0  0
   43.4830   31.1290   36.6320 C   0  0  0  0  0  0  0  0  0  0  0  0
   44.4190   30.9270   36.1360 H   0  0  0  0  0  0  0  0  0  0  0  0
   43.3410   32.3140   37.3220 C   0  0  0  0  0  0  0  0  0  0  0  0
   44.6080   33.5230   37.4400 Cl  0  0  0  0  0  0  0  0  0  0  0  0
  1  6  1  0  0  0  0
  1  2  1  1  0  0  0
  1 18  1  0  0  0  0
  2  8  1  0  0  0  0
  3  9  1  0  0  0  0
  3  2  1  0  0  0  0
  3  4  1  0  0  0  0
  4  5  1  0  0  0  0
  4 12  1  0  0  0  0
  5 14  1  0  0  0  0
  5 13  1  0  0  0  0
  6 15  1  1  0  0  0
  6  5  1  0  0  0  0
  7  2  1  0  0  0  0
 10  3  1  0  0  0  0
 11  4  1  0  0  0  0
 16 19  1  6  0  0  0
 16 18  1  0  0  0  0
 16 24  1  0  0  0  0
 16 17  1  0  0  0  0
 17 21  1  0  0  0  0
 18 17  1  0  0  0  0
 18 22  1  1  0  0  0
 20 17  1  0  0  0  0
 23 28  2  0  0  0  0
 23 24  1  0  0  0  0
 24 25  2  0  0  0  0
 25 26  1  0  0  0  0
 25 30  1  0  0  0  0
 27 31  1  0  0  0  0
 27 26  2  0  0  0  0
 28 27  1  0  0  0  0
 29 23  1  0  0  0  0
 32  6  1  0  0  0  0
 33 32  1  0  0  0  0
 35 34  1  0  0  0  0
 36 35  1  0  0  0  0
 36 32  1  0  0  0  0
 37 36  2  0  0  0  0
 38 37  1  0  0  0  0
 39 41  2  0  0  0  0
 39 37  1  0  0  0  0
 40 39  1  0  0  0  0
 41 43  1  0  0  0  0
 42 41  1  0  0  0  0
 43 44  1  0  0  0  0
 43 35  2  0  0  0  0
M  END
>  <minimizedAffinity>
-5.35645771

$$$$

 OpenBabel03252506483D

 44 47  0  0  1  0  0  0  0  0999 V2000
   37.3030   29.3450   41.5160 N   0  0  1  0  0  0  0  0  0  0  0  0
   36.9580   28.4170   42.5600 C   0  0  0  0  0  0  0  0  0  0  0  0
   38.0380   28.2300   43.5800 C   0  0  0  0  0  0  0  0  0  0  0  0
   39.2220   27.5510   42.9220 C   0  0  0  0  0  0  0  0  0  0  0  0
   39.4120   28.0630   41.5100 C   0  0  0  0  0  0  0  0  0  0  0  0
   38.7310   29.4140   41.3610 C   0  0  2  0  0  0  0  0  0  0  0  0
   36.0900   28.8690   43.0990 H   0  0  0  0  0  0  0  0  0  0  0  0
   36.6560   27.4260   42.1740 H   0  0  0  0  0  0  0  0  0  0  0  0
   37.6430   27.4900   44.3100 H   0  0  0  0  0  0  0  0  0  0  0  0
   38.2880   29.1250   44.1500 H   0  0  0  0  0  0  0  0  0  0  0  0
   40.1130   27.8460   43.5070 H   0  0  0  0  0  0  0  0  0  0  0  0
   39.1600   26.4480   42.9610 H   0  0  0  0  0  0  0  0  0  0  0  0
   38.9460   27.3960   40.7550 H   0  0  0  0  0  0  0  0  0  0  0  0
   40.4830   28.2190   41.2810 H   0  0  0  0  0  0  0  0  0  0  0  0
   38.9290   29.7470   40.3160 H   0  0  0  0  0  0  0  0  0  0  0  0
   35.8640   29.9140   39.4430 C   0  0  1  0  0  0  0  0  0  0  0  0
   35.1300   29.0230   40.3740 C   0  0  0  0  0  0  0  0  0  0  0  0
   36.6040   28.9870   40.3370 C   0  0  2  0  0  0  0  0  0  0  0  0
   35.8870   30.9920   39.6730 H   0  0  0  0  0  0  0  0  0  0  0  0
   34.6160   29.5160   41.2180 H   0  0  0  0  0  0  0  0  0  0  0  0
   34.4970   28.2290   39.9090 H   0  0  0  0  0  0  0  0  0  0  0  0
   37.0280   28.0860   39.8060 H   0  0  0  0  0  0  0  0  0  0  0  0
   34.7080   28.9830   37.4170 C   0  0  0  0  0  0  0  0  0  0  0  0
   35.8160   29.6440   37.9900 C   0  0  0  0  0  0  0  0  0  0  0  0
   36.8570   30.0410   37.1370 C   0  0  0  0  0  0  0  0  0  0  0  0
   36.7440   29.7660   35.8130 N   0  0  0  0  0  0  0  0  0  0  0  0
   35.6720   29.1310   35.3000 C   0  0  0  0  0  0  0  0  0  0  0  0
   34.6420   28.7320   36.0930 N   0  0  0  0  0  0  0  0  0  0  0  0
   33.8940   28.6670   38.0490 H   0  0  0  0  0  0  0  0  0  0  0  0
   37.7130   30.5480   37.5490 H   0  0  0  0  0  0  0  0  0  0  0  0
   35.7750   29.0080   34.2240 H   0  0  0  0  0  0  0  0  0  0  0  0
   39.3740   30.3540   42.2220 N   0  0  0  0  0  0  0  0  0  0  0  0
   38.9640   30.5290   43.1900 H   0  0  0  0  0  0  0  0  0  0  0  0
   39.3890   32.4370   40.0130 Cl  0  0  0  0  0  0  0  0  0  0  0  0
   40.7260   32.1750   41.1120 C   0  0  0  0  0  0  0  0  0  0  0  0
   40.5260   31.1690   42.0650 C   0  0  0  0  0  0  0  0  0  0  0  0
   41.5860   30.9620   42.9370 C   0  0  0  0  0  0  0  0  0  0  0  0
   41.5110   30.2130   43.6850 H   0  0  0  0  0  0  0  0  0  0  0  0
   42.7800   31.6540   42.9300 C   0  0  0  0  0  0  0  0  0  0  0  0
   43.5660   31.4530   43.6270 H   0  0  0  0  0  0  0  0  0  0  0  0
   42.9440   32.6430   41.9730 C   0  0  0  0  0  0  0  0  0  0  0  0
   43.8400   33.2370   41.8880 H   0  0  0  0  0  0  0  0  0  0  0  0
   41.9090   32.8740   41.0920 C   0  0  0  0  0  0  0  0  0  0  0  0
   41.9680   34.0910   39.8280 Cl  0  0  0  0  0  0  0  0  0  0  0  0
  1  2  1  1  0  0  0
  2  7  1  0  0  0  0
  2  3  1  0  0  0  0
  3 10  1  0  0  0  0
  3  9  1  0  0  0  0
  4 12  1  0  0  0  0
  4 11  1  0  0  0  0
  4  3  1  0  0  0  0
  5  4  1  0  0  0  0
  6 15  1  6  0  0  0
  6  5  1  0  0  0  0
  6  1  1  0  0  0  0
  6 32  1  0  0  0  0
  8  2  1  0  0  0  0
 13  5  1  0  0  0  0
 14  5  1  0  0  0  0
 16 19  1  1  0  0  0
 16 18  1  0  0  0  0
 16 17  1  0  0  0  0
 17 20  1  0  0  0  0
 18 22  1  6  0  0  0
 18 17  1  0  0  0  0
 18  1  1  0  0  0  0
 21 17  1  0  0  0  0
 23 24  1  0  0  0  0
 23 29  1  0  0  0  0
 24 16  1  0  0  0  0
 25 30  1  0  0  0  0
 25 24  2  0  0  0  0
 26 25  1  0  0  0  0
 27 26  2  0  0  0  0
 27 28  1  0  0  0  0
 28 23  2  0  0  0  0
 31 27  1  0  0  0  0
 32 33  1  0  0  0  0
 34 35  1  0  0  0  0
 35 36  1  0  0  0  0
 36 32  1  0  0  0  0
 36 37  2  0  0  0  0
 37 38  1  0  0  0  0
 39 37  1  0  0  0  0
 39 40  1  0  0  0  0
 41 39  2  0  0  0  0
 42 41  1  0  0  0  0
 43 35  2  0  0  0  0
 43 41  1  0  0  0  0
 44 43  1  0  0  0  0
M  END
>  <minimizedAffinity>
-5.27792215

$$$$
