
 OpenBabel03252506473D

 44 47  0  0  1  0  0  0  0  0999 V2000
   49.1900   33.2090   41.4500 N   0  0  1  0  0  0  0  0  0  0  0  0
   50.5540   33.1490   41.9040 C   0  0  0  0  0  0  0  0  0  0  0  0
   51.2300   31.8470   41.6070 C   0  0  0  0  0  0  0  0  0  0  0  0
   50.5710   30.7540   42.4230 C   0  0  0  0  0  0  0  0  0  0  0  0
   49.0750   30.9810   42.5050 C   0  0  0  0  0  0  0  0  0  0  0  0
   48.6330   31.8850   41.3670 C   0  0  2  0  0  0  0  0  0  0  0  0
   51.1060   33.9300   41.3250 H   0  0  0  0  0  0  0  0  0  0  0  0
   50.6600   33.3690   42.9820 H   0  0  0  0  0  0  0  0  0  0  0  0
   52.2600   31.9380   42.0170 H   0  0  0  0  0  0  0  0  0  0  0  0
   51.3370   31.6190   40.5460 H   0  0  0  0  0  0  0  0  0  0  0  0
   50.7350   29.8110   41.8680 H   0  0  0  0  0  0  0  0  0  0  0  0
   51.0280   30.6270   43.4210 H   0  0  0  0  0  0  0  0  0  0  0  0
   48.7800   31.4940   43.4430 H   0  0  0  0  0  0  0  0  0  0  0  0
   48.5190   30.0300   42.3920 H   0  0  0  0  0  0  0  0  0  0  0  0
   47.5280   31.9900   41.4660 H   0  0  0  0  0  0  0  0  0  0  0  0
   47.0730   34.5580   42.0730 C   0  0  1  0  0  0  0  0  0  0  0  0
   48.2150   35.4590   41.7880 C   0  0  0  0  0  0  0  0  0  0  0  0
   48.4680   34.0940   42.2870 C   0  0  2  0  0  0  0  0  0  0  0  0
   46.5120   34.1510   41.2160 H   0  0  0  0  0  0  0  0  0  0  0  0
   48.3980   35.6950   40.7250 H   0  0  0  0  0  0  0  0  0  0  0  0
   48.3110   36.3640   42.4360 H   0  0  0  0  0  0  0  0  0  0  0  0
   48.7700   34.0520   43.3730 H   0  0  0  0  0  0  0  0  0  0  0  0
   45.4040   35.9900   43.2850 C   0  0  0  0  0  0  0  0  0  0  0  0
   46.2070   34.8300   43.2400 C   0  0  0  0  0  0  0  0  0  0  0  0
   46.1480   33.9480   44.3300 C   0  0  0  0  0  0  0  0  0  0  0  0
   45.3270   34.2580   45.3640 N   0  0  0  0  0  0  0  0  0  0  0  0
   44.5750   35.3750   45.3750 C   0  0  0  0  0  0  0  0  0  0  0  0
   44.6020   36.2550   44.3380 N   0  0  0  0  0  0  0  0  0  0  0  0
   45.4290   36.6850   42.4620 H   0  0  0  0  0  0  0  0  0  0  0  0
   46.7510   33.0560   44.3200 H   0  0  0  0  0  0  0  0  0  0  0  0
   43.9890   35.4380   46.2900 H   0  0  0  0  0  0  0  0  0  0  0  0
   48.8740   31.2200   40.1270 N   0  0  0  0  0  0  0  0  0  0  0  0
   49.4230   30.3070   40.1310 H   0  0  0  0  0  0  0  0  0  0  0  0
   46.0320   30.6560   39.2140 Cl  0  0  0  0  0  0  0  0  0  0  0  0
   47.2690   31.3390   38.1800 C   0  0  0  0  0  0  0  0  0  0  0  0
   48.5180   31.5260   38.7870 C   0  0  0  0  0  0  0  0  0  0  0  0
   49.4980   32.0670   37.9680 C   0  0  0  0  0  0  0  0  0  0  0  0
   50.4710   32.2360   38.3550 H   0  0  0  0  0  0  0  0  0  0  0  0
   49.3340   32.4210   36.6430 C   0  0  0  0  0  0  0  0  0  0  0  0
   50.1260   32.8360   36.0550 H   0  0  0  0  0  0  0  0  0  0  0  0
   48.0870   32.2220   36.0750 C   0  0  0  0  0  0  0  0  0  0  0  0
   47.8600   32.4670   35.0480 H   0  0  0  0  0  0  0  0  0  0  0  0
   47.0900   31.6870   36.8620 C   0  0  0  0  0  0  0  0  0  0  0  0
   45.4610   31.3760   36.2860 Cl  0  0  0  0  0  0  0  0  0  0  0  0
  1  2  1  1  0  0  0
  1 18  1  0  0  0  0
  2  8  1  0  0  0  0
  3  2  1  0  0  0  0
  3  9  1  0  0  0  0
  3  4  1  0  0  0  0
  4  5  1  0  0  0  0
  4 12  1  0  0  0  0
  5 13  1  0  0  0  0
  6  1  1  0  0  0  0
  6 15  1  1  0  0  0
  6  5  1  0  0  0  0
  7  2  1  0  0  0  0
 10  3  1  0  0  0  0
 11  4  1  0  0  0  0
 14  5  1  0  0  0  0
 16 19  1  6  0  0  0
 16 18  1  0  0  0  0
 16 24  1  0  0  0  0
 17 16  1  0  0  0  0
 17 18  1  0  0  0  0
 17 21  1  0  0  0  0
 18 22  1  1  0  0  0
 20 17  1  0  0  0  0
 23 28  1  0  0  0  0
 24 23  2  0  0  0  0
 24 25  1  0  0  0  0
 25 26  2  0  0  0  0
 26 27  1  0  0  0  0
 27 31  1  0  0  0  0
 28 27  2  0  0  0  0
 29 23  1  0  0  0  0
 30 25  1  0  0  0  0
 32 33  1  0  0  0  0
 32  6  1  0  0  0  0
 35 36  1  0  0  0  0
 35 34  1  0  0  0  0
 36 32  1  0  0  0  0
 37 38  1  0  0  0  0
 37 36  2  0  0  0  0
 39 37  1  0  0  0  0
 40 39  1  0  0  0  0
 41 39  2  0  0  0  0
 41 43  1  0  0  0  0
 42 41  1  0  0  0  0
 43 35  2  0  0  0  0
 44 43  1  0  0  0  0
M  END
>  <minimizedAffinity>
-5.02324581

>  <minimizedRMSD>
0.381282896

$$$$
