
 OpenBabel03252506523D

 33 36  0  0  0  0  0  0  0  0999 V2000
   46.7260   31.2730   45.0510 C   0  0  0  0  0  0  0  0  0  0  0  0
   46.6480   32.6570   45.1570 C   0  0  0  0  0  0  0  0  0  0  0  0
   46.2540   33.3040   46.3280 C   0  0  0  0  0  0  0  0  0  0  0  0
   45.9220   32.5400   47.4450 C   0  0  0  0  0  0  0  0  0  0  0  0
   45.5070   32.8160   48.7170 N   0  0  0  0  0  0  0  0  0  0  0  0
   45.3350   31.6400   49.3760 C   0  0  0  0  0  0  0  0  0  0  0  0
   45.6470   30.6440   48.4950 N   0  0  0  0  0  0  0  0  0  0  0  0
   46.0060   31.1760   47.3180 C   0  0  0  0  0  0  0  0  0  0  0  0
   46.3900   30.5170   46.1800 C   0  0  0  0  0  0  0  0  0  0  0  0
   47.0380   30.8310   44.1190 H   0  0  0  0  0  0  0  0  0  0  0  0
   46.1970   34.3800   46.3990 H   0  0  0  0  0  0  0  0  0  0  0  0
   45.3570   33.7780   49.0920 H   0  0  0  0  0  0  0  0  0  0  0  0
   45.0150   31.5290   50.3890 H   0  0  0  0  0  0  0  0  0  0  0  0
   48.9990   29.4620   47.0710 Cl  0  0  0  0  0  0  0  0  0  0  0  0
   47.6640   28.4740   46.4600 C   0  0  0  0  0  0  0  0  0  0  0  0
   46.4740   29.0630   46.0650 C   0  0  0  0  0  0  0  0  0  0  0  0
   45.4440   28.2780   45.5900 C   0  0  0  0  0  0  0  0  0  0  0  0
   44.5190   28.7450   45.2840 H   0  0  0  0  0  0  0  0  0  0  0  0
   45.6570   26.9230   45.5330 C   0  0  0  0  0  0  0  0  0  0  0  0
   44.8180   26.3230   45.1510 H   0  0  0  0  0  0  0  0  0  0  0  0
   46.8240   26.2900   45.9150 C   0  0  0  0  0  0  0  0  0  0  0  0
   46.8520   25.2060   45.8150 H   0  0  0  0  0  0  0  0  0  0  0  0
   47.8290   27.1210   46.3840 C   0  0  0  0  0  0  0  0  0  0  0  0
   49.3200   26.3270   46.8740 Cl  0  0  0  0  0  0  0  0  0  0  0  0
   46.4620   35.2100   42.5220 C   0  0  0  0  0  0  0  0  0  0  0  0
   47.6730   35.0280   41.8410 C   0  0  0  0  0  0  0  0  0  0  0  0
   48.5450   34.0290   42.2900 C   0  0  0  0  0  0  0  0  0  0  0  0
   48.1660   33.2830   43.3750 N   0  0  0  0  0  0  0  0  0  0  0  0
   46.9870   33.4840   44.0130 C   0  0  0  0  0  0  0  0  0  0  0  0
   46.1580   34.4360   43.5830 N   0  0  0  0  0  0  0  0  0  0  0  0
   45.7340   35.9570   42.2410 H   0  0  0  0  0  0  0  0  0  0  0  0
   47.9030   35.6530   40.9950 H   0  0  0  0  0  0  0  0  0  0  0  0
   49.4870   33.8600   41.7890 H   0  0  0  0  0  0  0  0  0  0  0  0
  1  2  2  0  0  0  0
  1  9  1  0  0  0  0
  2  3  1  0  0  0  0
  3 11  1  0  0  0  0
  3  4  2  0  0  0  0
  4  5  1  0  0  0  0
  5 12  1  0  0  0  0
  5  6  1  0  0  0  0
  6 13  1  0  0  0  0
  7  6  2  0  0  0  0
  8  4  1  0  0  0  0
  8  7  1  0  0  0  0
  9  8  2  0  0  0  0
 10  1  1  0  0  0  0
 15 14  1  0  0  0  0
 16  9  1  0  0  0  0
 16 15  2  0  0  0  0
 17 16  1  0  0  0  0
 18 17  1  0  0  0  0
 19 17  2  0  0  0  0
 19 21  1  0  0  0  0
 20 19  1  0  0  0  0
 21 23  2  0  0  0  0
 22 21  1  0  0  0  0
 23 15  1  0  0  0  0
 23 24  1  0  0  0  0
 25 30  1  0  0  0  0
 26 27  1  0  0  0  0
 26 25  2  0  0  0  0
 27 28  2  0  0  0  0
 28 29  1  0  0  0  0
 29  2  1  0  0  0  0
 30 29  2  0  0  0  0
 31 25  1  0  0  0  0
 32 26  1  0  0  0  0
 33 27  1  0  0  0  0
M  END
>  <minimizedAffinity>
-5.36723137

>  <minimizedRMSD>
0.874757826

$$$$
