
 OpenBabel03252506533D

 33 36  0  0  0  0  0  0  0  0999 V2000
   46.1250   30.7850   45.2360 C   0  0  0  0  0  0  0  0  0  0  0  0
   46.6480   32.0700   45.3330 C   0  0  0  0  0  0  0  0  0  0  0  0
   46.6160   32.8100   46.5150 C   0  0  0  0  0  0  0  0  0  0  0  0
   46.0380   32.2490   47.6510 C   0  0  0  0  0  0  0  0  0  0  0  0
   45.8330   32.6610   48.9370 N   0  0  0  0  0  0  0  0  0  0  0  0
   45.2030   31.6640   49.6120 C   0  0  0  0  0  0  0  0  0  0  0  0
   45.0260   30.6390   48.7270 N   0  0  0  0  0  0  0  0  0  0  0  0
   45.5280   30.9800   47.5320 C   0  0  0  0  0  0  0  0  0  0  0  0
   45.5470   30.2320   46.3840 C   0  0  0  0  0  0  0  0  0  0  0  0
   46.1810   30.2630   44.2940 H   0  0  0  0  0  0  0  0  0  0  0  0
   47.0260   33.8080   46.5790 H   0  0  0  0  0  0  0  0  0  0  0  0
   46.1220   33.5920   49.3110 H   0  0  0  0  0  0  0  0  0  0  0  0
   44.9090   31.6890   50.6390 H   0  0  0  0  0  0  0  0  0  0  0  0
   47.4850   28.1600   47.1960 Cl  0  0  0  0  0  0  0  0  0  0  0  0
   45.8380   27.8400   46.6360 C   0  0  0  0  0  0  0  0  0  0  0  0
   44.9990   28.8820   46.2770 C   0  0  0  0  0  0  0  0  0  0  0  0
   43.7170   28.6140   45.8420 C   0  0  0  0  0  0  0  0  0  0  0  0
   43.0690   29.4330   45.5620 H   0  0  0  0  0  0  0  0  0  0  0  0
   43.3310   27.2990   45.7880 C   0  0  0  0  0  0  0  0  0  0  0  0
   42.3050   27.1160   45.4390 H   0  0  0  0  0  0  0  0  0  0  0  0
   44.1290   26.2250   46.1360 C   0  0  0  0  0  0  0  0  0  0  0  0
   43.6890   25.2340   46.0430 H   0  0  0  0  0  0  0  0  0  0  0  0
   45.4060   26.5450   46.5660 C   0  0  0  0  0  0  0  0  0  0  0  0
   46.4330   25.1880   47.0130 Cl  0  0  0  0  0  0  0  0  0  0  0  0
   47.5490   34.5320   42.7590 C   0  0  0  0  0  0  0  0  0  0  0  0
   48.4420   33.8130   41.9550 C   0  0  0  0  0  0  0  0  0  0  0  0
   48.7290   32.4860   42.3010 C   0  0  0  0  0  0  0  0  0  0  0  0
   48.1190   31.9640   43.4110 N   0  0  0  0  0  0  0  0  0  0  0  0
   47.2590   32.6870   44.1700 C   0  0  0  0  0  0  0  0  0  0  0  0
   46.9880   33.9490   43.8380 N   0  0  0  0  0  0  0  0  0  0  0  0
   47.2740   35.5580   42.5640 H   0  0  0  0  0  0  0  0  0  0  0  0
   48.8830   34.2900   41.0960 H   0  0  0  0  0  0  0  0  0  0  0  0
   49.4130   31.9010   41.7020 H   0  0  0  0  0  0  0  0  0  0  0  0
  1  2  2  0  0  0  0
  1  9  1  0  0  0  0
  2  3  1  0  0  0  0
  3 11  1  0  0  0  0
  3  4  2  0  0  0  0
  4  5  1  0  0  0  0
  5 12  1  0  0  0  0
  5  6  1  0  0  0  0
  6 13  1  0  0  0  0
  7  6  2  0  0  0  0
  8  4  1  0  0  0  0
  8  7  1  0  0  0  0
  9  8  2  0  0  0  0
 10  1  1  0  0  0  0
 15 14  1  0  0  0  0
 16  9  1  0  0  0  0
 16 15  2  0  0  0  0
 17 16  1  0  0  0  0
 18 17  1  0  0  0  0
 19 17  2  0  0  0  0
 19 21  1  0  0  0  0
 20 19  1  0  0  0  0
 21 23  2  0  0  0  0
 22 21  1  0  0  0  0
 23 15  1  0  0  0  0
 23 24  1  0  0  0  0
 25 30  1  0  0  0  0
 26 27  1  0  0  0  0
 26 25  2  0  0  0  0
 27 28  2  0  0  0  0
 28 29  1  0  0  0  0
 29  2  1  0  0  0  0
 30 29  2  0  0  0  0
 31 25  1  0  0  0  0
 32 26  1  0  0  0  0
 33 27  1  0  0  0  0
M  END
>  <minimizedAffinity>
-5.40145922

>  <minimizedRMSD>
2.33508372

$$$$
