
 OpenBabel03252506253D

 47 51  0  0  0  0  0  0  0  0999 V2000
   45.5520   27.7810   47.9440 C   0  0  0  0  0  0  0  0  0  0  0  0
   45.0000   29.0390   47.8190 C   0  0  0  0  0  0  0  0  0  0  0  0
   44.1880   29.2530   46.7040 C   0  0  0  0  0  0  0  0  0  0  0  0
   43.9480   28.2650   45.7770 C   0  0  0  0  0  0  0  0  0  0  0  0
   43.2350   28.1700   44.6370 N   0  0  0  0  0  0  0  0  0  0  0  0
   43.3410   26.9480   44.1030 C   0  0  0  0  0  0  0  0  0  0  0  0
   44.1560   26.1700   44.9020 C   0  0  0  0  0  0  0  0  0  0  0  0
   44.5080   27.0190   45.9210 C   0  0  0  0  0  0  0  0  0  0  0  0
   45.3110   26.8000   47.0180 C   0  0  0  0  0  0  0  0  0  0  0  0
   46.1730   27.6870   48.8370 H   0  0  0  0  0  0  0  0  0  0  0  0
   43.6890   30.1810   46.4740 H   0  0  0  0  0  0  0  0  0  0  0  0
   42.6740   28.9500   44.2260 H   0  0  0  0  0  0  0  0  0  0  0  0
   42.8610   26.6150   43.1830 H   0  0  0  0  0  0  0  0  0  0  0  0
   44.4390   25.1410   44.7470 H   0  0  0  0  0  0  0  0  0  0  0  0
   47.9810   26.2240   45.6590 Cl  0  0  0  0  0  0  0  0  0  0  0  0
   47.1540   25.1230   46.7410 C   0  0  0  0  0  0  0  0  0  0  0  0
   45.9590   25.5190   47.2790 C   0  0  0  0  0  0  0  0  0  0  0  0
   45.2240   24.7130   48.1530 C   0  0  0  0  0  0  0  0  0  0  0  0
   44.2770   24.9930   48.5960 H   0  0  0  0  0  0  0  0  0  0  0  0
   45.7440   23.4670   48.4750 C   0  0  0  0  0  0  0  0  0  0  0  0
   45.1850   22.8250   49.1540 H   0  0  0  0  0  0  0  0  0  0  0  0
   46.9550   23.0590   47.9350 C   0  0  0  0  0  0  0  0  0  0  0  0
   47.3230   22.0800   48.2120 H   0  0  0  0  0  0  0  0  0  0  0  0
   47.6690   23.8660   47.0730 C   0  0  0  0  0  0  0  0  0  0  0  0
   49.1920   23.3680   46.3860 Cl  0  0  0  0  0  0  0  0  0  0  0  0
   45.1210   30.2180   48.6750 C   0  0  0  0  0  0  0  0  0  0  0  0
   44.2630   30.9100   48.5490 H   0  0  0  0  0  0  0  0  0  0  0  0
   45.0160   29.8410   49.7310 H   0  0  0  0  0  0  0  0  0  0  0  0
   46.3980   30.9660   48.6170 C   0  0  0  0  0  0  0  0  0  0  0  0
   47.2690   30.3520   48.8530 H   0  0  0  0  0  0  0  0  0  0  0  0
   46.3350   31.7830   49.3720 H   0  0  0  0  0  0  0  0  0  0  0  0
   46.2590   33.0150   45.6970 C   0  0  0  0  0  0  0  0  0  0  0  0
   47.2000   32.0410   45.3170 C   0  0  0  0  0  0  0  0  0  0  0  0
   47.3680   31.1700   46.3420 C   0  0  0  0  0  0  0  0  0  0  0  0
   46.5530   31.5960   47.3200 N   0  0  0  0  0  0  0  0  0  0  0  0
   45.8950   32.6940   46.9350 N   0  0  0  0  0  0  0  0  0  0  0  0
   47.7600   31.9170   44.3800 H   0  0  0  0  0  0  0  0  0  0  0  0
   48.0050   30.2840   46.4380 H   0  0  0  0  0  0  0  0  0  0  0  0
   44.4800   35.9680   44.5110 C   0  0  0  0  0  0  0  0  0  0  0  0
   45.0150   36.1900   43.2450 C   0  0  0  0  0  0  0  0  0  0  0  0
   45.9970   35.3040   42.8100 C   0  0  0  0  0  0  0  0  0  0  0  0
   46.3650   34.3000   43.6310 N   0  0  0  0  0  0  0  0  0  0  0  0
   45.8410   34.1070   44.8370 C   0  0  0  0  0  0  0  0  0  0  0  0
   44.8910   34.9510   45.2740 N   0  0  0  0  0  0  0  0  0  0  0  0
   43.7140   36.6860   44.8080 H   0  0  0  0  0  0  0  0  0  0  0  0
   44.7810   36.9550   42.5390 H   0  0  0  0  0  0  0  0  0  0  0  0
   46.5360   35.2920   41.8810 H   0  0  0  0  0  0  0  0  0  0  0  0
  1 10  1  0  0  0  0
  2  1  1  0  0  0  0
  2 26  1  0  0  0  0
  3  2  2  0  0  0  0
  4  8  2  0  0  0  0
  4  3  1  0  0  0  0
  5  4  1  0  0  0  0
  6  5  1  0  0  0  0
  6  7  2  0  0  0  0
  7  8  1  0  0  0  0
  8  9  1  0  0  0  0
  9 17  1  0  0  0  0
  9  1  2  0  0  0  0
 11  3  1  0  0  0  0
 12  5  1  0  0  0  0
 13  6  1  0  0  0  0
 14  7  1  0  0  0  0
 15 16  1  0  0  0  0
 16 24  2  0  0  0  0
 16 17  1  0  0  0  0
 17 18  2  0  0  0  0
 18 20  1  0  0  0  0
 18 19  1  0  0  0  0
 20 21  1  0  0  0  0
 22 23  1  0  0  0  0
 22 20  2  0  0  0  0
 24 22  1  0  0  0  0
 25 24  1  0  0  0  0
 26 28  1  0  0  0  0
 27 26  1  0  0  0  0
 29 26  1  0  0  0  0
 29 30  1  0  0  0  0
 29 31  1  0  0  0  0
 32 36  2  0  0  0  0
 33 32  1  0  0  0  0
 33 34  2  0  0  0  0
 34 38  1  0  0  0  0
 34 35  1  0  0  0  0
 35 29  1  0  0  0  0
 36 35  1  0  0  0  0
 37 33  1  0  0  0  0
 39 45  1  0  0  0  0
 39 44  1  0  0  0  0
 40 39  2  0  0  0  0
 41 40  1  0  0  0  0
 41 42  2  0  0  0  0
 42 43  1  0  0  0  0
 43 44  2  0  0  0  0
 43 32  1  0  0  0  0
 46 40  1  0  0  0  0
 47 41  1  0  0  0  0
M  END
>  <minimizedAffinity>
-5.39081335

>  <minimizedRMSD>
1.53813851

$$$$
