
 OpenBabel03252508033D

 44 47  0  0  1  0  0  0  0  0999 V2000
   42.0100   33.2810   41.1010 C   0  0  0  0  0  0  0  0  0  0  0  0
   42.7690   34.3990   41.3010 C   0  0  0  0  0  0  0  0  0  0  0  0
   42.1200   35.6500   41.2920 C   0  0  0  0  0  0  0  0  0  0  0  0
   40.7660   35.7970   41.0940 C   0  0  0  0  0  0  0  0  0  0  0  0
   40.0130   34.6710   40.8960 C   0  0  0  0  0  0  0  0  0  0  0  0
   40.6350   33.4590   40.9020 C   0  0  0  0  0  0  0  0  0  0  0  0
   42.6380   36.5900   41.4320 H   0  0  0  0  0  0  0  0  0  0  0  0
   40.2810   36.7350   41.0880 H   0  0  0  0  0  0  0  0  0  0  0  0
   38.9640   34.7090   40.7380 H   0  0  0  0  0  0  0  0  0  0  0  0
   40.0190   32.5600   40.7420 H   0  0  0  0  0  0  0  0  0  0  0  0
   42.6380   31.7240   41.1980 S   0  0  0  0  0  0  0  0  0  0  0  0
   41.5010   30.9230   40.4810 O   0  0  0  0  0  0  0  0  0  0  0  0
   42.7260   31.2160   42.5900 O   0  0  0  0  0  0  0  0  0  0  0  0
   42.6660   32.6970   38.3040 Cl  0  0  0  0  0  0  0  0  0  0  0  0
   43.7460   31.3970   38.8570 C   0  0  0  0  0  0  0  0  0  0  0  0
   43.7210   30.9110   40.1960 C   0  0  0  0  0  0  0  0  0  0  0  0
   44.6610   29.9030   40.3550 C   0  0  0  0  0  0  0  0  0  0  0  0
   44.6620   29.5800   41.4130 H   0  0  0  0  0  0  0  0  0  0  0  0
   45.5600   29.3260   39.4910 C   0  0  0  0  0  0  0  0  0  0  0  0
   46.1990   28.5450   39.8420 H   0  0  0  0  0  0  0  0  0  0  0  0
   45.4340   29.9190   38.2710 C   0  0  0  0  0  0  0  0  0  0  0  0
   46.1050   29.5270   37.5070 H   0  0  0  0  0  0  0  0  0  0  0  0
   44.5880   30.9210   37.8840 C   0  0  0  0  0  0  0  0  0  0  0  0
   44.6200   31.5360   36.2470 Cl  0  0  0  0  0  0  0  0  0  0  0  0
   44.2040   34.3510   41.5190 C   0  0  0  0  0  0  0  0  0  0  0  0
   45.0660   34.2430   40.5990 O   0  0  0  0  0  0  0  0  0  0  0  0
   44.5670   34.4420   42.9140 C   0  0  0  0  0  0  0  0  0  0  0  0
   44.3120   35.7130   43.5400 C   0  0  0  0  0  0  0  0  0  0  0  0
   44.6500   35.8250   44.8750 C   0  0  0  0  0  0  0  0  0  0  0  0
   45.1930   34.7450   45.5020 N   0  0  0  0  0  0  0  0  0  0  0  0
   45.4140   33.5600   44.8550 C   0  0  0  0  0  0  0  0  0  0  0  0
   45.1040   33.4410   43.6100 N   0  0  0  0  0  0  0  0  0  0  0  0
   43.8980   36.5920   43.1260 H   0  0  0  0  0  0  0  0  0  0  0  0
   44.5020   36.7370   45.4510 H   0  0  0  0  0  0  0  0  0  0  0  0
   46.0060   32.4360   45.6170 C   0  0  1  0  0  0  0  0  0  0  0  0
   46.9690   32.7390   46.7430 C   0  0  0  0  0  0  0  0  0  0  0  0
   45.5510   32.3330   47.0210 C   0  0  1  0  0  0  0  0  0  0  0  0
   46.1670   31.5060   45.0720 H   0  0  0  0  0  0  0  0  0  0  0  0
   47.2870   33.8060   46.8200 H   0  0  0  0  0  0  0  0  0  0  0  0
   47.7990   32.0150   46.8790 H   0  0  0  0  0  0  0  0  0  0  0  0
   45.4230   31.3290   47.4900 H   0  0  0  0  0  0  0  0  0  0  0  0
   44.7700   33.4070   47.6160 N   0  0  0  0  0  0  0  0  0  0  0  0
   43.7920   33.1220   47.7460 H   0  0  0  0  0  0  0  0  0  0  0  0
   45.2460   33.8240   48.4310 H   0  0  0  0  0  0  0  0  0  0  0  0
  1 11  1  0  0  0  0
  1  2  1  0  0  0  0
  2 25  1  0  0  0  0
  3  2  2  0  0  0  0
  3  7  1  0  0  0  0
  4  3  1  0  0  0  0
  5  6  1  0  0  0  0
  5  4  2  0  0  0  0
  6  1  2  0  0  0  0
  8  4  1  0  0  0  0
  9  5  1  0  0  0  0
 10  6  1  0  0  0  0
 11 13  2  0  0  0  0
 12 11  2  0  0  0  0
 14 15  1  0  0  0  0
 15 16  1  0  0  0  0
 16 17  2  0  0  0  0
 16 11  1  0  0  0  0
 17 18  1  0  0  0  0
 19 20  1  0  0  0  0
 19 17  1  0  0  0  0
 21 19  2  0  0  0  0
 22 21  1  0  0  0  0
 23 21  1  0  0  0  0
 23 15  2  0  0  0  0
 24 23  1  0  0  0  0
 25 27  1  0  0  0  0
 26 25  2  0  0  0  0
 27 28  2  0  0  0  0
 27 32  1  0  0  0  0
 28 29  1  0  0  0  0
 29 34  1  0  0  0  0
 29 30  2  0  0  0  0
 31 30  1  0  0  0  0
 31 35  1  0  0  0  0
 32 31  2  0  0  0  0
 33 28  1  0  0  0  0
 35 38  1  6  0  0  0
 35 36  1  0  0  0  0
 35 37  1  0  0  0  0
 36 39  1  0  0  0  0
 36 40  1  0  0  0  0
 36 37  1  0  0  0  0
 37 41  1  1  0  0  0
 37 42  1  0  0  0  0
 42 43  1  0  0  0  0
 42 44  1  0  0  0  0
M  END
>  <minimizedAffinity>
-6.02596188

>  <minimizedRMSD>
1.52220428

$$$$
