
 OpenBabel03252505083D

 45 48  0  0  1  0  0  0  0  0999 V2000
   44.5730   35.5310   44.5350 C   0  0  0  0  0  0  0  0  0  0  0  0
   45.2460   35.5510   43.2950 C   0  0  0  0  0  0  0  0  0  0  0  0
   46.3470   34.6650   43.1400 C   0  0  0  0  0  0  0  0  0  0  0  0
   46.6860   33.8590   44.1800 N   0  0  0  0  0  0  0  0  0  0  0  0
   46.0120   33.8780   45.3420 C   0  0  0  0  0  0  0  0  0  0  0  0
   44.9520   34.7120   45.5280 N   0  0  0  0  0  0  0  0  0  0  0  0
   43.7530   36.2180   44.5930 H   0  0  0  0  0  0  0  0  0  0  0  0
   44.9610   36.2000   42.4810 H   0  0  0  0  0  0  0  0  0  0  0  0
   46.4360   32.9730   46.4460 C   0  0  2  0  0  0  0  0  0  0  0  0
   46.9700   31.7350   45.7770 C   0  0  0  0  0  0  0  0  0  0  0  0
   46.1010   30.5490   45.8180 C   0  0  0  0  0  0  0  0  0  0  0  0
   45.7990   30.3140   47.2920 C   0  0  0  0  0  0  0  0  0  0  0  0
   45.0100   31.3970   47.8720 C   0  0  0  0  0  0  0  0  0  0  0  0
   45.3740   32.7600   47.4050 C   0  0  0  0  0  0  0  0  0  0  0  0
   47.2710   33.5140   46.9500 H   0  0  0  0  0  0  0  0  0  0  0  0
   47.9320   31.4770   46.2690 H   0  0  0  0  0  0  0  0  0  0  0  0
   47.2500   31.9160   44.7060 H   0  0  0  0  0  0  0  0  0  0  0  0
   45.1900   30.6540   45.2170 H   0  0  0  0  0  0  0  0  0  0  0  0
   46.6700   29.6750   45.4880 H   0  0  0  0  0  0  0  0  0  0  0  0
   46.7330   30.1430   47.8280 H   0  0  0  0  0  0  0  0  0  0  0  0
   45.1090   29.4330   47.2850 H   0  0  0  0  0  0  0  0  0  0  0  0
   44.2100   31.4630   48.5690 H   0  0  0  0  0  0  0  0  0  0  0  0
   44.6810   33.8910   47.8930 N   0  0  0  0  0  0  0  0  0  0  0  0
   43.8370   34.4560   47.6520 H   0  0  0  0  0  0  0  0  0  0  0  0
   45.2860   34.1230   48.7150 H   0  0  0  0  0  0  0  0  0  0  0  0
   47.0630   34.6540   41.8780 C   0  0  0  0  0  0  0  0  0  0  0  0
   48.1590   35.4440   41.7510 C   0  0  0  0  0  0  0  0  0  0  0  0
   48.8270   35.4080   40.5170 C   0  0  0  0  0  0  0  0  0  0  0  0
   48.2950   34.5700   39.5620 C   0  0  0  0  0  0  0  0  0  0  0  0
   47.2010   33.7810   39.6880 C   0  0  0  0  0  0  0  0  0  0  0  0
   46.5860   33.8510   40.9070 N   0  0  0  0  0  0  0  0  0  0  0  0
   48.5210   36.0800   42.5470 H   0  0  0  0  0  0  0  0  0  0  0  0
   49.7080   36.0120   40.3470 H   0  0  0  0  0  0  0  0  0  0  0  0
   48.8440   34.5750   38.6280 H   0  0  0  0  0  0  0  0  0  0  0  0
   48.1850   30.9990   39.8210 Cl  0  0  0  0  0  0  0  0  0  0  0  0
   47.0430   31.5900   38.6120 C   0  0  0  0  0  0  0  0  0  0  0  0
   46.6720   32.9180   38.6730 C   0  0  0  0  0  0  0  0  0  0  0  0
   45.7790   33.3590   37.7190 C   0  0  0  0  0  0  0  0  0  0  0  0
   45.4340   34.3840   37.6940 H   0  0  0  0  0  0  0  0  0  0  0  0
   45.2540   32.5290   36.7250 C   0  0  0  0  0  0  0  0  0  0  0  0
   44.5490   32.9160   35.9890 H   0  0  0  0  0  0  0  0  0  0  0  0
   45.6530   31.2120   36.7040 C   0  0  0  0  0  0  0  0  0  0  0  0
   45.2410   30.5860   35.9320 H   0  0  0  0  0  0  0  0  0  0  0  0
   46.5320   30.7520   37.6330 C   0  0  0  0  0  0  0  0  0  0  0  0
   47.0620   29.0750   37.6330 Cl  0  0  0  0  0  0  0  0  0  0  0  0
  1  7  1  0  0  0  0
  1  6  1  0  0  0  0
  2  1  2  0  0  0  0
  3  2  1  0  0  0  0
  3  4  2  0  0  0  0
  4  5  1  0  0  0  0
  5  6  2  0  0  0  0
  5  9  1  0  0  0  0
  8  2  1  0  0  0  0
  9 15  1  1  0  0  0
  9 14  1  0  0  0  0
 10 11  1  0  0  0  0
 10 16  1  0  0  0  0
 10  9  1  0  0  0  0
 11 12  1  0  0  0  0
 12 20  1  0  0  0  0
 12 13  1  0  0  0  0
 13 22  1  0  0  0  0
 14 13  2  0  0  0  0
 14 23  1  0  0  0  0
 17 10  1  0  0  0  0
 18 11  1  0  0  0  0
 19 11  1  0  0  0  0
 21 12  1  0  0  0  0
 23 25  1  0  0  0  0
 24 23  1  0  0  0  0
 26  3  1  0  0  0  0
 27 26  1  0  0  0  0
 27 32  1  0  0  0  0
 28 27  2  0  0  0  0
 29 30  2  0  0  0  0
 29 28  1  0  0  0  0
 30 31  1  0  0  0  0
 31 26  2  0  0  0  0
 33 28  1  0  0  0  0
 34 29  1  0  0  0  0
 36 37  1  0  0  0  0
 36 35  1  0  0  0  0
 37 30  1  0  0  0  0
 38 37  2  0  0  0  0
 39 38  1  0  0  0  0
 40 38  1  0  0  0  0
 41 40  1  0  0  0  0
 42 40  2  0  0  0  0
 42 44  1  0  0  0  0
 43 42  1  0  0  0  0
 44 36  2  0  0  0  0
 45 44  1  0  0  0  0
M  END
>  <minimizedAffinity>
-7.23016405

>  <minimizedRMSD>
0.931097865

$$$$
