
 OpenBabel03252506343D

 35 37  0  0  1  0  0  0  0  0999 V2000
   44.4440   35.8610   44.9720 C   0  0  0  0  0  0  0  0  0  0  0  0
   45.0710   35.8560   43.7180 C   0  0  0  0  0  0  0  0  0  0  0  0
   45.9650   34.8690   43.4360 C   0  0  0  0  0  0  0  0  0  0  0  0
   46.1880   33.9490   44.4030 N   0  0  0  0  0  0  0  0  0  0  0  0
   45.5810   33.9660   45.5970 C   0  0  0  0  0  0  0  0  0  0  0  0
   44.7070   34.9130   45.9010 N   0  0  0  0  0  0  0  0  0  0  0  0
   45.9070   32.9260   46.5280 N   0  0  0  0  0  0  0  0  0  0  0  0
   45.1460   32.6510   47.7340 C   0  0  0  0  0  0  0  0  0  0  0  0
   46.2450   32.2980   48.7050 C   0  0  0  0  0  0  0  0  0  0  0  0
   47.5100   32.1270   47.9110 C   0  0  0  0  0  0  0  0  0  0  0  0
   47.0050   31.9770   46.4770 C   0  0  1  0  0  0  0  0  0  0  0  0
   43.7170   36.6310   45.2470 H   0  0  0  0  0  0  0  0  0  0  0  0
   46.4470   34.8600   42.4800 H   0  0  0  0  0  0  0  0  0  0  0  0
   44.5260   31.7440   47.6270 H   0  0  0  0  0  0  0  0  0  0  0  0
   44.5490   33.5340   48.0570 H   0  0  0  0  0  0  0  0  0  0  0  0
   46.0110   31.4660   49.3670 H   0  0  0  0  0  0  0  0  0  0  0  0
   46.3630   33.2020   49.3660 H   0  0  0  0  0  0  0  0  0  0  0  0
   48.1340   33.0300   47.9820 H   0  0  0  0  0  0  0  0  0  0  0  0
   48.0510   31.2280   48.2730 H   0  0  0  0  0  0  0  0  0  0  0  0
   47.6910   32.3680   45.7250 H   0  0  0  0  0  0  0  0  0  0  0  0
   44.7060   36.9130   42.8180 N   0  0  0  0  0  0  0  0  0  0  0  0
   43.7570   37.3140   42.7480 H   0  0  0  0  0  0  0  0  0  0  0  0
   45.4510   37.3160   42.1810 H   0  0  0  0  0  0  0  0  0  0  0  0
   46.4340   30.3030   46.2510 S   0  0  0  0  0  0  0  0  0  0  0  0
   49.0150   29.8730   44.2680 Cl  0  0  0  0  0  0  0  0  0  0  0  0
   48.7540   28.7730   45.5790 C   0  0  0  0  0  0  0  0  0  0  0  0
   47.6430   29.0430   46.3430 C   0  0  0  0  0  0  0  0  0  0  0  0
   47.3900   28.1580   47.4010 C   0  0  0  0  0  0  0  0  0  0  0  0
   46.5660   28.1890   48.1230 H   0  0  0  0  0  0  0  0  0  0  0  0
   48.2550   27.0790   47.6180 C   0  0  0  0  0  0  0  0  0  0  0  0
   48.1010   26.3570   48.4320 H   0  0  0  0  0  0  0  0  0  0  0  0
   49.3650   26.8560   46.8130 C   0  0  0  0  0  0  0  0  0  0  0  0
   50.0190   26.0310   46.9850 H   0  0  0  0  0  0  0  0  0  0  0  0
   49.5990   27.7290   45.7820 C   0  0  0  0  0  0  0  0  0  0  0  0
   50.9740   27.5480   44.6960 Cl  0  0  0  0  0  0  0  0  0  0  0  0
  1 12  1  0  0  0  0
  1  6  1  0  0  0  0
  2  1  2  0  0  0  0
  3  2  1  0  0  0  0
  3  4  2  0  0  0  0
  4  5  1  0  0  0  0
  5  6  2  0  0  0  0
  5  7  1  0  0  0  0
  7  8  1  0  0  0  0
  8 15  1  0  0  0  0
  8  9  1  0  0  0  0
  9 17  1  0  0  0  0
  9 16  1  0  0  0  0
 10 18  1  0  0  0  0
 10 19  1  0  0  0  0
 10  9  1  0  0  0  0
 11 20  1  6  0  0  0
 11  7  1  0  0  0  0
 11 10  1  0  0  0  0
 13  3  1  0  0  0  0
 14  8  1  0  0  0  0
 21  2  1  0  0  0  0
 22 21  1  0  0  0  0
 23 21  1  0  0  0  0
 24 27  1  0  0  0  0
 24 11  1  0  0  0  0
 25 26  1  0  0  0  0
 26 34  2  0  0  0  0
 26 27  1  0  0  0  0
 27 28  2  0  0  0  0
 28 30  1  0  0  0  0
 28 29  1  0  0  0  0
 30 31  1  0  0  0  0
 32 33  1  0  0  0  0
 32 30  2  0  0  0  0
 34 32  1  0  0  0  0
 35 34  1  0  0  0  0
M  END
>  <minimizedAffinity>
-5.13172245

>  <minimizedRMSD>
0.350640595

$$$$
