
 OpenBabel03242513083D

 43 47  0  0  0  0  0  0  0  0999 V2000
   45.9800   33.3000   41.6410 C   0  0  0  0  0  0  0  0  0  0  0  0
   47.1810   33.9700   41.3570 C   0  0  0  0  0  0  0  0  0  0  0  0
   48.1450   33.9870   42.3470 C   0  0  0  0  0  0  0  0  0  0  0  0
   47.8570   33.3560   43.5210 N   0  0  0  0  0  0  0  0  0  0  0  0
   46.7070   32.7220   43.7770 C   0  0  0  0  0  0  0  0  0  0  0  0
   45.7580   32.6920   42.8320 N   0  0  0  0  0  0  0  0  0  0  0  0
   45.2260   33.2840   40.8700 H   0  0  0  0  0  0  0  0  0  0  0  0
   46.6970   30.7370   45.2200 C   0  0  0  0  0  0  0  0  0  0  0  0
   46.5080   32.0840   45.0630 C   0  0  0  0  0  0  0  0  0  0  0  0
   46.1140   32.9240   46.1250 C   0  0  0  0  0  0  0  0  0  0  0  0
   45.9020   32.3900   47.3910 C   0  0  0  0  0  0  0  0  0  0  0  0
   45.5340   32.8570   48.6070 N   0  0  0  0  0  0  0  0  0  0  0  0
   45.5060   31.8000   49.4740 C   0  0  0  0  0  0  0  0  0  0  0  0
   45.8540   30.7070   48.7820 N   0  0  0  0  0  0  0  0  0  0  0  0
   46.1030   31.0360   47.5050 C   0  0  0  0  0  0  0  0  0  0  0  0
   46.4900   30.1820   46.4820 C   0  0  0  0  0  0  0  0  0  0  0  0
   46.9970   30.1250   44.3900 H   0  0  0  0  0  0  0  0  0  0  0  0
   45.9620   33.9930   46.0030 H   0  0  0  0  0  0  0  0  0  0  0  0
   45.3440   33.8860   48.6770 H   0  0  0  0  0  0  0  0  0  0  0  0
   45.2250   32.0270   50.4950 H   0  0  0  0  0  0  0  0  0  0  0  0
   46.6270   29.1260   46.6490 H   0  0  0  0  0  0  0  0  0  0  0  0
   49.4330   34.6800   42.1020 C   0  0  0  0  0  0  0  0  0  0  0  0
   49.2430   35.7980   41.2790 F   0  0  0  0  0  0  0  0  0  0  0  0
   49.9510   35.1600   43.2790 F   0  0  0  0  0  0  0  0  0  0  0  0
   50.2880   33.7960   41.4890 F   0  0  0  0  0  0  0  0  0  0  0  0
   47.3370   34.5570   40.1430 O   0  0  0  0  0  0  0  0  0  0  0  0
   47.3580   33.8420   38.9720 C   0  0  0  0  0  0  0  0  0  0  0  0
   48.4280   34.3960   38.2820 C   0  0  0  0  0  0  0  0  0  0  0  0
   48.4600   33.4340   36.7060 S   0  0  0  0  0  0  0  0  0  0  0  0
   46.9850   32.4290   37.2740 C   0  0  0  0  0  0  0  0  0  0  0  0
   46.8300   32.9030   38.2550 N   0  0  0  0  0  0  0  0  0  0  0  0
   49.3640   35.1730   38.1440 H   0  0  0  0  0  0  0  0  0  0  0  0
   44.0730   32.4410   37.4730 Cl  0  0  0  0  0  0  0  0  0  0  0  0
   44.9810   31.2940   36.5170 C   0  0  0  0  0  0  0  0  0  0  0  0
   46.3560   31.3360   36.4610 C   0  0  0  0  0  0  0  0  0  0  0  0
   47.1810   30.5090   35.7610 C   0  0  0  0  0  0  0  0  0  0  0  0
   48.2560   30.6060   35.7670 H   0  0  0  0  0  0  0  0  0  0  0  0
   46.5890   29.5090   35.0170 C   0  0  0  0  0  0  0  0  0  0  0  0
   47.1180   28.7990   34.4280 H   0  0  0  0  0  0  0  0  0  0  0  0
   45.2040   29.4040   35.0260 C   0  0  0  0  0  0  0  0  0  0  0  0
   44.6410   28.6470   34.4710 H   0  0  0  0  0  0  0  0  0  0  0  0
   44.4190   30.2850   35.7650 C   0  0  0  0  0  0  0  0  0  0  0  0
   42.6730   30.1820   35.7980 Cl  0  0  0  0  0  0  0  0  0  0  0  0
  1  6  1  0  0  0  0
  2  1  2  0  0  0  0
  2  3  1  0  0  0  0
  3  4  2  0  0  0  0
  4  5  1  0  0  0  0
  5  9  1  0  0  0  0
  6  5  2  0  0  0  0
  7  1  1  0  0  0  0
  8 16  1  0  0  0  0
  9  8  2  0  0  0  0
  9 10  1  0  0  0  0
 10 11  2  0  0  0  0
 11 15  1  0  0  0  0
 11 12  1  0  0  0  0
 12 19  1  0  0  0  0
 12 13  1  0  0  0  0
 13 20  1  0  0  0  0
 14 13  2  0  0  0  0
 15 14  1  0  0  0  0
 16 21  1  0  0  0  0
 16 15  2  0  0  0  0
 17  8  1  0  0  0  0
 18 10  1  0  0  0  0
 22  3  1  0  0  0  0
 22 24  1  0  0  0  0
 23 22  1  0  0  0  0
 25 22  1  0  0  0  0
 26  2  1  0  0  0  0
 27 26  1  0  0  0  0
 28 27  2  0  0  0  0
 29 30  1  0  0  0  0
 29 28  1  0  0  0  0
 30 31  2  0  0  0  0
 31 27  1  0  0  0  0
 32 28  1  0  0  0  0
 34 33  1  0  0  0  0
 35 34  1  0  0  0  0
 35 30  1  0  0  0  0
 36 37  1  0  0  0  0
 36 35  2  0  0  0  0
 38 40  2  0  0  0  0
 38 36  1  0  0  0  0
 39 38  1  0  0  0  0
 40 42  1  0  0  0  0
 41 40  1  0  0  0  0
 42 43  1  0  0  0  0
 42 34  2  0  0  0  0
M  END
>  <minimizedAffinity>
-6.50442934

>  <minimizedRMSD>
0.646840811

$$$$
