
 OpenBabel03252506263D

 47 51  0  0  0  0  0  0  0  0999 V2000
   45.4410   27.6590   48.4340 C   0  0  0  0  0  0  0  0  0  0  0  0
   44.9660   28.8070   47.8320 C   0  0  0  0  0  0  0  0  0  0  0  0
   44.1590   28.6290   46.7070 C   0  0  0  0  0  0  0  0  0  0  0  0
   43.8500   27.3800   46.2210 C   0  0  0  0  0  0  0  0  0  0  0  0
   43.1230   26.9030   45.1920 N   0  0  0  0  0  0  0  0  0  0  0  0
   43.1480   25.5650   45.1640 C   0  0  0  0  0  0  0  0  0  0  0  0
   43.9200   25.1010   46.2110 C   0  0  0  0  0  0  0  0  0  0  0  0
   44.3330   26.2500   46.8360 C   0  0  0  0  0  0  0  0  0  0  0  0
   45.1300   26.4170   47.9470 C   0  0  0  0  0  0  0  0  0  0  0  0
   46.0620   27.8740   49.3060 H   0  0  0  0  0  0  0  0  0  0  0  0
   43.7170   29.4290   46.1340 H   0  0  0  0  0  0  0  0  0  0  0  0
   42.6070   27.5000   44.5070 H   0  0  0  0  0  0  0  0  0  0  0  0
   42.6390   24.9370   44.4320 H   0  0  0  0  0  0  0  0  0  0  0  0
   44.1370   24.0750   46.4630 H   0  0  0  0  0  0  0  0  0  0  0  0
   43.9450   25.7170   50.6690 Cl  0  0  0  0  0  0  0  0  0  0  0  0
   45.2740   24.8660   49.9120 C   0  0  0  0  0  0  0  0  0  0  0  0
   45.7010   25.2940   48.6840 C   0  0  0  0  0  0  0  0  0  0  0  0
   46.7540   24.6810   47.9980 C   0  0  0  0  0  0  0  0  0  0  0  0
   47.1170   24.9930   47.0280 H   0  0  0  0  0  0  0  0  0  0  0  0
   47.3770   23.5990   48.6040 C   0  0  0  0  0  0  0  0  0  0  0  0
   48.1990   23.1090   48.0840 H   0  0  0  0  0  0  0  0  0  0  0  0
   46.9500   23.1580   49.8470 C   0  0  0  0  0  0  0  0  0  0  0  0
   47.4630   22.3120   50.2830 H   0  0  0  0  0  0  0  0  0  0  0  0
   45.9090   23.7750   50.5130 C   0  0  0  0  0  0  0  0  0  0  0  0
   45.3610   23.2330   52.0770 Cl  0  0  0  0  0  0  0  0  0  0  0  0
   45.1680   30.2130   48.1780 C   0  0  0  0  0  0  0  0  0  0  0  0
   44.4220   30.8700   47.6860 H   0  0  0  0  0  0  0  0  0  0  0  0
   44.9250   30.2960   49.2750 H   0  0  0  0  0  0  0  0  0  0  0  0
   46.5330   30.7620   48.0030 C   0  0  0  0  0  0  0  0  0  0  0  0
   47.3150   30.0060   48.0840 H   0  0  0  0  0  0  0  0  0  0  0  0
   46.6910   31.5130   48.8110 H   0  0  0  0  0  0  0  0  0  0  0  0
   46.3070   33.0050   45.2350 C   0  0  0  0  0  0  0  0  0  0  0  0
   47.1620   32.0090   44.7270 C   0  0  0  0  0  0  0  0  0  0  0  0
   47.3500   31.0650   45.6790 C   0  0  0  0  0  0  0  0  0  0  0  0
   46.6320   31.4670   46.7400 N   0  0  0  0  0  0  0  0  0  0  0  0
   46.0130   32.6220   46.4740 N   0  0  0  0  0  0  0  0  0  0  0  0
   47.6460   31.9190   43.7450 H   0  0  0  0  0  0  0  0  0  0  0  0
   47.9400   30.1410   45.6730 H   0  0  0  0  0  0  0  0  0  0  0  0
   44.5560   36.0730   44.3340 C   0  0  0  0  0  0  0  0  0  0  0  0
   45.0760   36.3950   43.0830 C   0  0  0  0  0  0  0  0  0  0  0  0
   46.0390   35.5370   42.5590 C   0  0  0  0  0  0  0  0  0  0  0  0
   46.4030   34.4600   43.2850 N   0  0  0  0  0  0  0  0  0  0  0  0
   45.8930   34.1720   44.4780 C   0  0  0  0  0  0  0  0  0  0  0  0
   44.9630   34.9890   45.0010 N   0  0  0  0  0  0  0  0  0  0  0  0
   43.8060   36.7740   44.7030 H   0  0  0  0  0  0  0  0  0  0  0  0
   44.8440   37.2210   42.4500 H   0  0  0  0  0  0  0  0  0  0  0  0
   46.5650   35.5970   41.6240 H   0  0  0  0  0  0  0  0  0  0  0  0
  1 10  1  0  0  0  0
  2 26  1  0  0  0  0
  2  1  2  0  0  0  0
  3  2  1  0  0  0  0
  4  3  2  0  0  0  0
  4  8  1  0  0  0  0
  5  4  1  0  0  0  0
  6  5  1  0  0  0  0
  6  7  2  0  0  0  0
  7 14  1  0  0  0  0
  7  8  1  0  0  0  0
  8  9  2  0  0  0  0
  9  1  1  0  0  0  0
  9 17  1  0  0  0  0
 11  3  1  0  0  0  0
 12  5  1  0  0  0  0
 13  6  1  0  0  0  0
 16 24  1  0  0  0  0
 16 15  1  0  0  0  0
 17 16  2  0  0  0  0
 18 20  2  0  0  0  0
 18 17  1  0  0  0  0
 19 18  1  0  0  0  0
 20 22  1  0  0  0  0
 21 20  1  0  0  0  0
 22 23  1  0  0  0  0
 22 24  2  0  0  0  0
 24 25  1  0  0  0  0
 26 28  1  0  0  0  0
 27 26  1  0  0  0  0
 29 30  1  0  0  0  0
 29 26  1  0  0  0  0
 29 31  1  0  0  0  0
 32 36  2  0  0  0  0
 33 32  1  0  0  0  0
 33 34  2  0  0  0  0
 34 35  1  0  0  0  0
 35 29  1  0  0  0  0
 36 35  1  0  0  0  0
 37 33  1  0  0  0  0
 38 34  1  0  0  0  0
 39 45  1  0  0  0  0
 39 44  1  0  0  0  0
 40 39  2  0  0  0  0
 41 40  1  0  0  0  0
 41 42  2  0  0  0  0
 42 43  1  0  0  0  0
 43 44  2  0  0  0  0
 43 32  1  0  0  0  0
 46 40  1  0  0  0  0
 47 41  1  0  0  0  0
M  END
>  <minimizedAffinity>
-5.85494471

>  <minimizedRMSD>
1.56178117

$$$$
