
 OpenBabel03252507203D

 46 49  0  0  1  0  0  0  0  0999 V2000
   46.9270   32.2660   44.1890 C   0  0  0  0  0  0  0  0  0  0  0  0
   48.1640   32.3600   44.4370 O   0  0  0  0  0  0  0  0  0  0  0  0
   46.3150   31.1230   43.5880 N   0  0  0  0  0  0  0  0  0  0  0  0
   45.0810   30.4170   43.9300 C   0  0  0  0  0  0  0  0  0  0  0  0
   44.2060   30.2750   42.6780 C   0  0  0  0  0  0  0  0  0  0  0  0
   44.9170   29.4240   41.6580 C   0  0  0  0  0  0  0  0  0  0  0  0
   46.3620   29.2650   42.0410 C   0  0  0  0  0  0  0  0  0  0  0  0
   46.9980   30.5580   42.4570 C   0  0  2  0  0  0  0  0  0  0  0  0
   45.2570   29.4690   44.4400 H   0  0  0  0  0  0  0  0  0  0  0  0
   44.5390   31.1340   44.6050 H   0  0  0  0  0  0  0  0  0  0  0  0
   43.2150   29.9220   42.9600 H   0  0  0  0  0  0  0  0  0  0  0  0
   44.0890   31.3250   42.3160 H   0  0  0  0  0  0  0  0  0  0  0  0
   44.4510   28.4170   41.6810 H   0  0  0  0  0  0  0  0  0  0  0  0
   44.7960   29.8280   40.6310 H   0  0  0  0  0  0  0  0  0  0  0  0
   46.9480   28.8460   41.1880 H   0  0  0  0  0  0  0  0  0  0  0  0
   46.4200   28.5340   42.8840 H   0  0  0  0  0  0  0  0  0  0  0  0
   46.8670   31.2790   41.6240 H   0  0  0  0  0  0  0  0  0  0  0  0
   48.6940   32.1980   40.6940 Cl  0  0  0  0  0  0  0  0  0  0  0  0
   49.3570   31.0580   41.8660 C   0  0  0  0  0  0  0  0  0  0  0  0
   48.4490   30.3380   42.6510 C   0  0  0  0  0  0  0  0  0  0  0  0
   49.0580   29.4730   43.5370 C   0  0  0  0  0  0  0  0  0  0  0  0
   48.3710   28.8940   44.1640 H   0  0  0  0  0  0  0  0  0  0  0  0
   50.4290   29.3550   43.6140 C   0  0  0  0  0  0  0  0  0  0  0  0
   50.8210   28.6430   44.3470 H   0  0  0  0  0  0  0  0  0  0  0  0
   51.2740   30.0920   42.8130 C   0  0  0  0  0  0  0  0  0  0  0  0
   52.3370   30.0050   42.8670 H   0  0  0  0  0  0  0  0  0  0  0  0
   50.7280   30.9730   41.9070 C   0  0  0  0  0  0  0  0  0  0  0  0
   51.7450   31.9220   40.8780 Cl  0  0  0  0  0  0  0  0  0  0  0  0
   45.7130   34.2800   43.5080 C   0  0  0  0  0  0  0  0  0  0  0  0
   46.0940   33.3860   44.5390 C   0  0  0  0  0  0  0  0  0  0  0  0
   45.6590   33.6220   45.8260 C   0  0  0  0  0  0  0  0  0  0  0  0
   44.8820   34.7020   46.0570 N   0  0  0  0  0  0  0  0  0  0  0  0
   44.5090   35.5650   45.0820 C   0  0  0  0  0  0  0  0  0  0  0  0
   44.9340   35.3350   43.8210 N   0  0  0  0  0  0  0  0  0  0  0  0
   46.0560   34.0850   42.5130 H   0  0  0  0  0  0  0  0  0  0  0  0
   43.8860   36.4240   45.2880 H   0  0  0  0  0  0  0  0  0  0  0  0
   46.0620   32.7060   46.8720 C   0  0  0  0  0  0  0  0  0  0  0  0
   45.2130   31.7240   47.2890 C   0  0  0  0  0  0  0  0  0  0  0  0
   45.6110   30.8610   48.2830 C   0  0  0  0  0  0  0  0  0  0  0  0
   46.8550   30.9400   48.8970 C   0  0  0  0  0  0  0  0  0  0  0  0
   47.6750   31.9550   48.4350 C   0  0  0  0  0  0  0  0  0  0  0  0
   47.2550   32.7760   47.4640 N   0  0  0  0  0  0  0  0  0  0  0  0
   44.2180   31.5190   46.9350 H   0  0  0  0  0  0  0  0  0  0  0  0
   44.9830   30.0480   48.6700 H   0  0  0  0  0  0  0  0  0  0  0  0
   47.1750   30.2740   49.6730 H   0  0  0  0  0  0  0  0  0  0  0  0
   48.6720   32.0790   48.8710 H   0  0  0  0  0  0  0  0  0  0  0  0
  1  2  2  0  0  0  0
  1 30  1  0  0  0  0
  3  4  1  0  0  0  0
  3  1  1  0  0  0  0
  4  9  1  0  0  0  0
  4 10  1  0  0  0  0
  5 11  1  0  0  0  0
  5  4  1  0  0  0  0
  6 13  1  0  0  0  0
  6  7  1  0  0  0  0
  6  5  1  0  0  0  0
  7  8  1  0  0  0  0
  7 16  1  0  0  0  0
  8 17  1  6  0  0  0
  8 20  1  0  0  0  0
  8  3  1  0  0  0  0
 12  5  1  0  0  0  0
 14  6  1  0  0  0  0
 15  7  1  0  0  0  0
 18 19  1  0  0  0  0
 19 27  2  0  0  0  0
 19 20  1  0  0  0  0
 20 21  2  0  0  0  0
 21 23  1  0  0  0  0
 21 22  1  0  0  0  0
 23 24  1  0  0  0  0
 25 26  1  0  0  0  0
 25 23  2  0  0  0  0
 27 25  1  0  0  0  0
 28 27  1  0  0  0  0
 29 34  2  0  0  0  0
 29 30  1  0  0  0  0
 30 31  2  0  0  0  0
 31 32  1  0  0  0  0
 31 37  1  0  0  0  0
 33 36  1  0  0  0  0
 33 32  2  0  0  0  0
 34 33  1  0  0  0  0
 35 29  1  0  0  0  0
 37 38  2  0  0  0  0
 37 42  1  0  0  0  0
 38 39  1  0  0  0  0
 39 44  1  0  0  0  0
 39 40  2  0  0  0  0
 40 45  1  0  0  0  0
 41 46  1  0  0  0  0
 41 40  1  0  0  0  0
 42 41  2  0  0  0  0
 43 38  1  0  0  0  0
M  END
>  <minimizedAffinity>
-4.97690916

>  <minimizedRMSD>
2.94872403

$$$$
