
 OpenBabel03252506473D

 44 47  0  0  1  0  0  0  0  0999 V2000
   49.4890   33.4370   41.4170 N   0  0  1  0  0  0  0  0  0  0  0  0
   50.7130   33.1310   42.1070 C   0  0  0  0  0  0  0  0  0  0  0  0
   51.3060   31.8110   41.7240 C   0  0  0  0  0  0  0  0  0  0  0  0
   50.3850   30.7040   42.1960 C   0  0  0  0  0  0  0  0  0  0  0  0
   48.9360   31.1110   42.0270 C   0  0  0  0  0  0  0  0  0  0  0  0
   48.8350   32.2260   41.0000 C   0  0  2  0  0  0  0  0  0  0  0  0
   51.4490   33.9110   41.7890 H   0  0  0  0  0  0  0  0  0  0  0  0
   50.6100   33.1710   43.2070 H   0  0  0  0  0  0  0  0  0  0  0  0
   52.2300   31.7040   42.3340 H   0  0  0  0  0  0  0  0  0  0  0  0
   51.6120   31.7320   40.6810 H   0  0  0  0  0  0  0  0  0  0  0  0
   50.5690   29.8420   41.5290 H   0  0  0  0  0  0  0  0  0  0  0  0
   50.6070   30.3710   43.2260 H   0  0  0  0  0  0  0  0  0  0  0  0
   48.5010   31.5120   42.9660 H   0  0  0  0  0  0  0  0  0  0  0  0
   48.3250   30.2700   41.6460 H   0  0  0  0  0  0  0  0  0  0  0  0
   47.7500   32.4590   40.9020 H   0  0  0  0  0  0  0  0  0  0  0  0
   47.3010   34.7040   41.9650 C   0  0  1  0  0  0  0  0  0  0  0  0
   48.4290   35.6460   41.7700 C   0  0  0  0  0  0  0  0  0  0  0  0
   48.6960   34.2740   42.2400 C   0  0  2  0  0  0  0  0  0  0  0  0
   46.7990   34.3090   41.0670 H   0  0  0  0  0  0  0  0  0  0  0  0
   48.6600   35.9210   40.7250 H   0  0  0  0  0  0  0  0  0  0  0  0
   48.4630   36.5320   42.4490 H   0  0  0  0  0  0  0  0  0  0  0  0
   48.9420   34.2060   43.3390 H   0  0  0  0  0  0  0  0  0  0  0  0
   45.5450   36.0610   43.1410 C   0  0  0  0  0  0  0  0  0  0  0  0
   46.3670   34.9140   43.0920 C   0  0  0  0  0  0  0  0  0  0  0  0
   46.2600   33.9840   44.1380 C   0  0  0  0  0  0  0  0  0  0  0  0
   45.3770   34.2390   45.1360 N   0  0  0  0  0  0  0  0  0  0  0  0
   44.6090   35.3450   45.1520 C   0  0  0  0  0  0  0  0  0  0  0  0
   44.6810   36.2690   44.1570 N   0  0  0  0  0  0  0  0  0  0  0  0
   45.6060   36.7920   42.3510 H   0  0  0  0  0  0  0  0  0  0  0  0
   46.8750   33.1010   44.1230 H   0  0  0  0  0  0  0  0  0  0  0  0
   43.9720   35.3600   46.0340 H   0  0  0  0  0  0  0  0  0  0  0  0
   49.2650   31.7280   39.7330 N   0  0  0  0  0  0  0  0  0  0  0  0
   50.3100   31.6750   39.5290 H   0  0  0  0  0  0  0  0  0  0  0  0
   47.4990   33.6660   38.1990 Cl  0  0  0  0  0  0  0  0  0  0  0  0
   47.7000   31.9810   37.7680 C   0  0  0  0  0  0  0  0  0  0  0  0
   48.5580   31.2500   38.5980 C   0  0  0  0  0  0  0  0  0  0  0  0
   48.7150   29.9150   38.2560 C   0  0  0  0  0  0  0  0  0  0  0  0
   49.3490   29.2940   38.8400 H   0  0  0  0  0  0  0  0  0  0  0  0
   48.1060   29.2800   37.1930 C   0  0  0  0  0  0  0  0  0  0  0  0
   48.2640   28.2440   36.9740 H   0  0  0  0  0  0  0  0  0  0  0  0
   47.2630   30.0330   36.3920 C   0  0  0  0  0  0  0  0  0  0  0  0
   46.7420   29.6260   35.5400 H   0  0  0  0  0  0  0  0  0  0  0  0
   47.0850   31.3630   36.7040 C   0  0  0  0  0  0  0  0  0  0  0  0
   46.0500   32.4440   35.7870 Cl  0  0  0  0  0  0  0  0  0  0  0  0
  1  2  1  1  0  0  0
  1 18  1  0  0  0  0
  2  8  1  0  0  0  0
  3  2  1  0  0  0  0
  3  4  1  0  0  0  0
  3  9  1  0  0  0  0
  4 12  1  0  0  0  0
  5  4  1  0  0  0  0
  5 13  1  0  0  0  0
  6 15  1  6  0  0  0
  6  1  1  0  0  0  0
  6  5  1  0  0  0  0
  7  2  1  0  0  0  0
 10  3  1  0  0  0  0
 11  4  1  0  0  0  0
 14  5  1  0  0  0  0
 16 19  1  6  0  0  0
 16 18  1  0  0  0  0
 16 24  1  0  0  0  0
 17 16  1  0  0  0  0
 17 18  1  0  0  0  0
 17 21  1  0  0  0  0
 18 22  1  1  0  0  0
 20 17  1  0  0  0  0
 23 28  1  0  0  0  0
 24 23  2  0  0  0  0
 24 25  1  0  0  0  0
 25 26  2  0  0  0  0
 26 27  1  0  0  0  0
 27 31  1  0  0  0  0
 28 27  2  0  0  0  0
 29 23  1  0  0  0  0
 30 25  1  0  0  0  0
 32  6  1  0  0  0  0
 33 32  1  0  0  0  0
 35 34  1  0  0  0  0
 35 36  1  0  0  0  0
 36 32  1  0  0  0  0
 37 36  2  0  0  0  0
 37 38  1  0  0  0  0
 39 37  1  0  0  0  0
 40 39  1  0  0  0  0
 41 43  1  0  0  0  0
 41 39  2  0  0  0  0
 42 41  1  0  0  0  0
 43 35  2  0  0  0  0
 44 43  1  0  0  0  0
M  END
>  <minimizedAffinity>
-5.08422041

>  <minimizedRMSD>
1.29563737

$$$$
