
 OpenBabel03252502243D

 36 38  0  0  1  0  0  0  0  0999 V2000
   46.9020   34.5700   42.1850 N   0  0  0  0  0  0  0  0  0  0  0  0
   48.3530   34.7600   42.2280 C   0  0  0  0  0  0  0  0  0  0  0  0
   48.6400   35.5220   40.9150 C   0  0  0  0  0  0  0  0  0  0  0  0
   48.3700   34.6110   39.7520 C   0  0  0  0  0  0  0  0  0  0  0  0
   47.1190   33.8190   39.8730 C   0  0  0  0  0  0  0  0  0  0  0  0
   46.1820   34.2110   40.9830 C   0  0  1  0  0  0  0  0  0  0  0  0
   48.9110   33.8170   42.2170 H   0  0  0  0  0  0  0  0  0  0  0  0
   48.5970   35.4330   43.0600 H   0  0  0  0  0  0  0  0  0  0  0  0
   49.7050   35.7960   40.9520 H   0  0  0  0  0  0  0  0  0  0  0  0
   47.9820   36.4160   40.9200 H   0  0  0  0  0  0  0  0  0  0  0  0
   48.4010   35.2570   38.8410 H   0  0  0  0  0  0  0  0  0  0  0  0
   49.2460   33.9320   39.6630 H   0  0  0  0  0  0  0  0  0  0  0  0
   47.3490   32.7300   39.9940 H   0  0  0  0  0  0  0  0  0  0  0  0
   46.5550   33.9000   38.9200 H   0  0  0  0  0  0  0  0  0  0  0  0
   45.6860   35.1440   40.6540 H   0  0  0  0  0  0  0  0  0  0  0  0
   44.4940   35.8980   44.7300 C   0  0  0  0  0  0  0  0  0  0  0  0
   45.2070   35.8150   43.5190 C   0  0  0  0  0  0  0  0  0  0  0  0
   46.1290   34.7400   43.3780 C   0  0  0  0  0  0  0  0  0  0  0  0
   46.2490   33.8810   44.4190 N   0  0  0  0  0  0  0  0  0  0  0  0
   45.5460   33.9960   45.5630 C   0  0  0  0  0  0  0  0  0  0  0  0
   44.6640   35.0130   45.7160 N   0  0  0  0  0  0  0  0  0  0  0  0
   43.7820   36.7120   44.8630 H   0  0  0  0  0  0  0  0  0  0  0  0
   45.0890   36.5090   42.7190 H   0  0  0  0  0  0  0  0  0  0  0  0
   45.7610   33.2160   46.3070 H   0  0  0  0  0  0  0  0  0  0  0  0
   45.3540   33.1610   41.2550 O   0  0  0  0  0  0  0  0  0  0  0  0
   43.7900   33.9030   38.6700 Cl  0  0  0  0  0  0  0  0  0  0  0  0
   43.1660   33.0290   40.0240 C   0  0  0  0  0  0  0  0  0  0  0  0
   44.0760   32.8360   41.0400 C   0  0  0  0  0  0  0  0  0  0  0  0
   43.5780   32.1250   42.1470 C   0  0  0  0  0  0  0  0  0  0  0  0
   44.1140   31.8530   43.0710 H   0  0  0  0  0  0  0  0  0  0  0  0
   42.2640   31.6610   42.1950 C   0  0  0  0  0  0  0  0  0  0  0  0
   41.8330   31.1120   43.0190 H   0  0  0  0  0  0  0  0  0  0  0  0
   41.4460   31.9030   41.1390 C   0  0  0  0  0  0  0  0  0  0  0  0
   40.4110   31.5620   41.1250 H   0  0  0  0  0  0  0  0  0  0  0  0
   41.8670   32.5900   40.0270 C   0  0  0  0  0  0  0  0  0  0  0  0
   40.8760   32.9410   38.6340 Cl  0  0  0  0  0  0  0  0  0  0  0  0
  1  2  1  0  0  0  0
  1 18  1  0  0  0  0
  2  8  1  0  0  0  0
  3 10  1  0  0  0  0
  3  9  1  0  0  0  0
  3  2  1  0  0  0  0
  4  5  1  0  0  0  0
  4  3  1  0  0  0  0
  5 13  1  0  0  0  0
  5  6  1  0  0  0  0
  6 15  1  6  0  0  0
  6 25  1  0  0  0  0
  6  1  1  0  0  0  0
  7  2  1  0  0  0  0
 11  4  1  0  0  0  0
 12  4  1  0  0  0  0
 14  5  1  0  0  0  0
 16 22  1  0  0  0  0
 16 21  1  0  0  0  0
 17 16  2  0  0  0  0
 18 17  1  0  0  0  0
 18 19  2  0  0  0  0
 19 20  1  0  0  0  0
 20 21  2  0  0  0  0
 20 24  1  0  0  0  0
 23 17  1  0  0  0  0
 26 27  1  0  0  0  0
 27 35  2  0  0  0  0
 27 28  1  0  0  0  0
 28 25  1  0  0  0  0
 28 29  2  0  0  0  0
 29 31  1  0  0  0  0
 29 30  1  0  0  0  0
 31 32  1  0  0  0  0
 33 31  2  0  0  0  0
 34 33  1  0  0  0  0
 35 33  1  0  0  0  0
 36 35  1  0  0  0  0
M  END
>  <minimizedAffinity>
-5.50222683

>  <minimizedRMSD>
0.373665392

$$$$
