
 OpenBabel03252502243D

 36 38  0  0  1  0  0  0  0  0999 V2000
   46.7150   34.5250   42.2830 N   0  0  0  0  0  0  0  0  0  0  0  0
   48.1790   34.5200   42.3020 C   0  0  0  0  0  0  0  0  0  0  0  0
   48.5420   35.2990   41.0170 C   0  0  0  0  0  0  0  0  0  0  0  0
   48.1340   34.4870   39.8220 C   0  0  0  0  0  0  0  0  0  0  0  0
   46.7910   33.8620   39.9370 C   0  0  0  0  0  0  0  0  0  0  0  0
   45.9330   34.3210   41.0830 C   0  0  1  0  0  0  0  0  0  0  0  0
   48.6070   33.5130   42.2360 H   0  0  0  0  0  0  0  0  0  0  0  0
   48.5230   35.1160   43.1570 H   0  0  0  0  0  0  0  0  0  0  0  0
   49.6330   35.4280   41.0420 H   0  0  0  0  0  0  0  0  0  0  0  0
   48.0080   36.2710   41.0770 H   0  0  0  0  0  0  0  0  0  0  0  0
   48.2350   35.1650   38.9400 H   0  0  0  0  0  0  0  0  0  0  0  0
   48.9100   33.7040   39.6830 H   0  0  0  0  0  0  0  0  0  0  0  0
   46.8770   32.7470   40.0040 H   0  0  0  0  0  0  0  0  0  0  0  0
   46.2270   34.0610   39.0010 H   0  0  0  0  0  0  0  0  0  0  0  0
   45.5600   35.3250   40.8070 H   0  0  0  0  0  0  0  0  0  0  0  0
   44.4780   35.9950   44.9060 C   0  0  0  0  0  0  0  0  0  0  0  0
   45.1470   35.8720   43.6730 C   0  0  0  0  0  0  0  0  0  0  0  0
   45.9910   34.7400   43.5000 C   0  0  0  0  0  0  0  0  0  0  0  0
   46.0860   33.8690   44.5340 N   0  0  0  0  0  0  0  0  0  0  0  0
   45.4270   34.0240   45.7000 C   0  0  0  0  0  0  0  0  0  0  0  0
   44.6190   35.0960   45.8830 N   0  0  0  0  0  0  0  0  0  0  0  0
   43.8260   36.8530   45.0630 H   0  0  0  0  0  0  0  0  0  0  0  0
   45.0510   36.5760   42.8790 H   0  0  0  0  0  0  0  0  0  0  0  0
   45.6130   33.2280   46.4340 H   0  0  0  0  0  0  0  0  0  0  0  0
   44.9790   33.3770   41.3280 O   0  0  0  0  0  0  0  0  0  0  0  0
   42.9050   35.6900   41.1530 Cl  0  0  0  0  0  0  0  0  0  0  0  0
   42.5810   34.0100   40.9190 C   0  0  0  0  0  0  0  0  0  0  0  0
   43.6830   33.1950   41.0530 C   0  0  0  0  0  0  0  0  0  0  0  0
   43.4280   31.8250   40.8640 C   0  0  0  0  0  0  0  0  0  0  0  0
   44.1480   30.9920   40.9210 H   0  0  0  0  0  0  0  0  0  0  0  0
   42.1540   31.3470   40.5640 C   0  0  0  0  0  0  0  0  0  0  0  0
   41.9070   30.3070   40.4090 H   0  0  0  0  0  0  0  0  0  0  0  0
   41.1320   32.2340   40.4520 C   0  0  0  0  0  0  0  0  0  0  0  0
   40.1180   31.9130   40.2180 H   0  0  0  0  0  0  0  0  0  0  0  0
   41.3100   33.5840   40.6240 C   0  0  0  0  0  0  0  0  0  0  0  0
   40.0490   34.7840   40.4960 Cl  0  0  0  0  0  0  0  0  0  0  0  0
  1  2  1  0  0  0  0
  1 18  1  0  0  0  0
  2  8  1  0  0  0  0
  3  9  1  0  0  0  0
  3 10  1  0  0  0  0
  3  2  1  0  0  0  0
  4  5  1  0  0  0  0
  4  3  1  0  0  0  0
  5 13  1  0  0  0  0
  5  6  1  0  0  0  0
  6 15  1  6  0  0  0
  6 25  1  0  0  0  0
  6  1  1  0  0  0  0
  7  2  1  0  0  0  0
 11  4  1  0  0  0  0
 12  4  1  0  0  0  0
 14  5  1  0  0  0  0
 16 22  1  0  0  0  0
 16 21  1  0  0  0  0
 17 16  2  0  0  0  0
 18 17  1  0  0  0  0
 18 19  2  0  0  0  0
 19 20  1  0  0  0  0
 20 21  2  0  0  0  0
 20 24  1  0  0  0  0
 23 17  1  0  0  0  0
 27 28  1  0  0  0  0
 27 26  1  0  0  0  0
 28 25  1  0  0  0  0
 29 30  1  0  0  0  0
 29 28  2  0  0  0  0
 31 29  1  0  0  0  0
 32 31  1  0  0  0  0
 33 31  2  0  0  0  0
 33 35  1  0  0  0  0
 34 33  1  0  0  0  0
 35 27  2  0  0  0  0
 36 35  1  0  0  0  0
M  END
>  <minimizedAffinity>
-5.86804914

>  <minimizedRMSD>
0.657014191

$$$$
