
 OpenBabel03252507203D

 46 49  0  0  1  0  0  0  0  0999 V2000
   46.9160   32.2830   44.2430 C   0  0  0  0  0  0  0  0  0  0  0  0
   48.1570   32.3980   44.4640 O   0  0  0  0  0  0  0  0  0  0  0  0
   46.3040   31.1130   43.6980 N   0  0  0  0  0  0  0  0  0  0  0  0
   45.0830   30.4090   44.0890 C   0  0  0  0  0  0  0  0  0  0  0  0
   44.1870   30.2120   42.8600 C   0  0  0  0  0  0  0  0  0  0  0  0
   44.8880   29.3280   41.8600 C   0  0  0  0  0  0  0  0  0  0  0  0
   46.3420   29.1960   42.2230 C   0  0  0  0  0  0  0  0  0  0  0  0
   46.9720   30.5100   42.5770 C   0  0  2  0  0  0  0  0  0  0  0  0
   45.2770   29.4830   44.6320 H   0  0  0  0  0  0  0  0  0  0  0  0
   44.5470   31.1470   44.7460 H   0  0  0  0  0  0  0  0  0  0  0  0
   43.2060   29.8610   43.1730 H   0  0  0  0  0  0  0  0  0  0  0  0
   44.0540   31.2460   42.4600 H   0  0  0  0  0  0  0  0  0  0  0  0
   44.4330   28.3190   41.9300 H   0  0  0  0  0  0  0  0  0  0  0  0
   44.7460   29.6900   40.8210 H   0  0  0  0  0  0  0  0  0  0  0  0
   46.9160   28.7500   41.3760 H   0  0  0  0  0  0  0  0  0  0  0  0
   46.4210   28.4990   43.0920 H   0  0  0  0  0  0  0  0  0  0  0  0
   46.8200   31.1970   41.7200 H   0  0  0  0  0  0  0  0  0  0  0  0
   48.6240   32.1730   40.7920 Cl  0  0  0  0  0  0  0  0  0  0  0  0
   49.3160   31.0430   41.9570 C   0  0  0  0  0  0  0  0  0  0  0  0
   48.4280   30.3110   42.7530 C   0  0  0  0  0  0  0  0  0  0  0  0
   49.0620   29.4550   43.6310 C   0  0  0  0  0  0  0  0  0  0  0  0
   48.3900   28.8660   44.2670 H   0  0  0  0  0  0  0  0  0  0  0  0
   50.4350   29.3560   43.6910 C   0  0  0  0  0  0  0  0  0  0  0  0
   50.8450   28.6480   44.4190 H   0  0  0  0  0  0  0  0  0  0  0  0
   51.2590   30.1040   42.8790 C   0  0  0  0  0  0  0  0  0  0  0  0
   52.3230   30.0320   42.9200 H   0  0  0  0  0  0  0  0  0  0  0  0
   50.6890   30.9780   41.9800 C   0  0  0  0  0  0  0  0  0  0  0  0
   51.6800   31.9400   40.9390 Cl  0  0  0  0  0  0  0  0  0  0  0  0
   45.7120   34.2860   43.5150 C   0  0  0  0  0  0  0  0  0  0  0  0
   46.0790   33.4080   44.5650 C   0  0  0  0  0  0  0  0  0  0  0  0
   45.6280   33.6640   45.8420 C   0  0  0  0  0  0  0  0  0  0  0  0
   44.8470   34.7480   46.0460 N   0  0  0  0  0  0  0  0  0  0  0  0
   44.4880   35.5960   45.0530 C   0  0  0  0  0  0  0  0  0  0  0  0
   44.9300   35.3470   43.8020 N   0  0  0  0  0  0  0  0  0  0  0  0
   46.0690   34.0760   42.5280 H   0  0  0  0  0  0  0  0  0  0  0  0
   43.8630   36.4580   45.2380 H   0  0  0  0  0  0  0  0  0  0  0  0
   46.0160   32.7640   46.9070 C   0  0  0  0  0  0  0  0  0  0  0  0
   45.1120   31.8850   47.4270 C   0  0  0  0  0  0  0  0  0  0  0  0
   45.4980   31.0360   48.4380 C   0  0  0  0  0  0  0  0  0  0  0  0
   46.7820   31.0280   48.9680 C   0  0  0  0  0  0  0  0  0  0  0  0
   47.6570   31.9400   48.4040 C   0  0  0  0  0  0  0  0  0  0  0  0
   47.2480   32.7510   47.4190 N   0  0  0  0  0  0  0  0  0  0  0  0
   44.0820   31.7570   47.1480 H   0  0  0  0  0  0  0  0  0  0  0  0
   44.8260   30.3030   48.9060 H   0  0  0  0  0  0  0  0  0  0  0  0
   47.0920   30.3720   49.7560 H   0  0  0  0  0  0  0  0  0  0  0  0
   48.6870   31.9910   48.7690 H   0  0  0  0  0  0  0  0  0  0  0  0
  1  2  2  0  0  0  0
  1 30  1  0  0  0  0
  3  4  1  0  0  0  0
  3  1  1  0  0  0  0
  4  9  1  0  0  0  0
  4 10  1  0  0  0  0
  5 11  1  0  0  0  0
  5  4  1  0  0  0  0
  6 13  1  0  0  0  0
  6  7  1  0  0  0  0
  6  5  1  0  0  0  0
  7  8  1  0  0  0  0
  7 16  1  0  0  0  0
  8 17  1  6  0  0  0
  8 20  1  0  0  0  0
  8  3  1  0  0  0  0
 12  5  1  0  0  0  0
 14  6  1  0  0  0  0
 15  7  1  0  0  0  0
 18 19  1  0  0  0  0
 19 27  2  0  0  0  0
 19 20  1  0  0  0  0
 20 21  2  0  0  0  0
 21 23  1  0  0  0  0
 21 22  1  0  0  0  0
 23 24  1  0  0  0  0
 25 26  1  0  0  0  0
 25 23  2  0  0  0  0
 27 25  1  0  0  0  0
 28 27  1  0  0  0  0
 29 34  2  0  0  0  0
 29 30  1  0  0  0  0
 30 31  2  0  0  0  0
 31 32  1  0  0  0  0
 31 37  1  0  0  0  0
 33 36  1  0  0  0  0
 33 32  2  0  0  0  0
 34 33  1  0  0  0  0
 35 29  1  0  0  0  0
 37 42  2  0  0  0  0
 37 38  1  0  0  0  0
 38 39  2  0  0  0  0
 39 44  1  0  0  0  0
 39 40  1  0  0  0  0
 40 45  1  0  0  0  0
 41 46  1  0  0  0  0
 41 40  2  0  0  0  0
 42 41  1  0  0  0  0
 43 38  1  0  0  0  0
M  END
>  <minimizedAffinity>
-5.03292799

>  <minimizedRMSD>
3.01078081

$$$$
