
 OpenBabel03252505083D

 45 48  0  0  1  0  0  0  0  0999 V2000
   44.5940   35.5650   44.6370 C   0  0  0  0  0  0  0  0  0  0  0  0
   45.2460   35.5860   43.3850 C   0  0  0  0  0  0  0  0  0  0  0  0
   46.3290   34.6830   43.2020 C   0  0  0  0  0  0  0  0  0  0  0  0
   46.6720   33.8600   44.2280 N   0  0  0  0  0  0  0  0  0  0  0  0
   46.0170   33.8780   45.4020 C   0  0  0  0  0  0  0  0  0  0  0  0
   44.9750   34.7280   45.6140 N   0  0  0  0  0  0  0  0  0  0  0  0
   43.7880   36.2640   44.7160 H   0  0  0  0  0  0  0  0  0  0  0  0
   44.9580   36.2480   42.5840 H   0  0  0  0  0  0  0  0  0  0  0  0
   46.4440   32.9540   46.4880 C   0  0  2  0  0  0  0  0  0  0  0  0
   46.9750   31.7280   45.7970 C   0  0  0  0  0  0  0  0  0  0  0  0
   46.1050   30.5420   45.8200 C   0  0  0  0  0  0  0  0  0  0  0  0
   45.8080   30.2820   47.2920 C   0  0  0  0  0  0  0  0  0  0  0  0
   45.0220   31.3560   47.8920 C   0  0  0  0  0  0  0  0  0  0  0  0
   45.3850   32.7260   47.4470 C   0  0  0  0  0  0  0  0  0  0  0  0
   47.2820   33.4860   46.9990 H   0  0  0  0  0  0  0  0  0  0  0  0
   47.9390   31.4600   46.2810 H   0  0  0  0  0  0  0  0  0  0  0  0
   47.2520   31.9270   44.7280 H   0  0  0  0  0  0  0  0  0  0  0  0
   45.1920   30.6580   45.2240 H   0  0  0  0  0  0  0  0  0  0  0  0
   46.6720   29.6730   45.4740 H   0  0  0  0  0  0  0  0  0  0  0  0
   46.7430   30.1010   47.8210 H   0  0  0  0  0  0  0  0  0  0  0  0
   45.1160   29.4020   47.2720 H   0  0  0  0  0  0  0  0  0  0  0  0
   44.2240   31.4110   48.5930 H   0  0  0  0  0  0  0  0  0  0  0  0
   44.6950   33.8500   47.9560 N   0  0  0  0  0  0  0  0  0  0  0  0
   43.8510   34.4190   47.7290 H   0  0  0  0  0  0  0  0  0  0  0  0
   45.3040   34.0670   48.7800 H   0  0  0  0  0  0  0  0  0  0  0  0
   47.0230   34.6740   41.9280 C   0  0  0  0  0  0  0  0  0  0  0  0
   48.1340   35.4410   41.7930 C   0  0  0  0  0  0  0  0  0  0  0  0
   48.7800   35.4060   40.5470 C   0  0  0  0  0  0  0  0  0  0  0  0
   48.2140   34.5930   39.5900 C   0  0  0  0  0  0  0  0  0  0  0  0
   47.1050   33.8270   39.7250 C   0  0  0  0  0  0  0  0  0  0  0  0
   46.5120   33.8950   40.9550 N   0  0  0  0  0  0  0  0  0  0  0  0
   48.5230   36.0570   42.5900 H   0  0  0  0  0  0  0  0  0  0  0  0
   49.6710   35.9940   40.3700 H   0  0  0  0  0  0  0  0  0  0  0  0
   48.7470   34.5990   38.6480 H   0  0  0  0  0  0  0  0  0  0  0  0
   44.1530   33.7100   39.7470 Cl  0  0  0  0  0  0  0  0  0  0  0  0
   45.1710   32.8400   38.5980 C   0  0  0  0  0  0  0  0  0  0  0  0
   46.5390   32.9900   38.7080 C   0  0  0  0  0  0  0  0  0  0  0  0
   47.3160   32.3000   37.8000 C   0  0  0  0  0  0  0  0  0  0  0  0
   48.3960   32.3620   37.8150 H   0  0  0  0  0  0  0  0  0  0  0  0
   46.7790   31.4820   36.8040 C   0  0  0  0  0  0  0  0  0  0  0  0
   47.4270   30.9530   36.1050 H   0  0  0  0  0  0  0  0  0  0  0  0
   45.4090   31.3620   36.7330 C   0  0  0  0  0  0  0  0  0  0  0  0
   45.0110   30.7260   35.9610 H   0  0  0  0  0  0  0  0  0  0  0  0
   44.6210   32.0300   37.6160 C   0  0  0  0  0  0  0  0  0  0  0  0
   42.8680   31.8980   37.5510 Cl  0  0  0  0  0  0  0  0  0  0  0  0
  1  7  1  0  0  0  0
  1  6  1  0  0  0  0
  2  1  2  0  0  0  0
  3  2  1  0  0  0  0
  3  4  2  0  0  0  0
  4  5  1  0  0  0  0
  5  6  2  0  0  0  0
  5  9  1  0  0  0  0
  8  2  1  0  0  0  0
  9 15  1  1  0  0  0
  9 14  1  0  0  0  0
 10 11  1  0  0  0  0
 10 16  1  0  0  0  0
 10  9  1  0  0  0  0
 11 12  1  0  0  0  0
 12 20  1  0  0  0  0
 12 13  1  0  0  0  0
 13 22  1  0  0  0  0
 14 13  2  0  0  0  0
 14 23  1  0  0  0  0
 17 10  1  0  0  0  0
 18 11  1  0  0  0  0
 19 11  1  0  0  0  0
 21 12  1  0  0  0  0
 23 25  1  0  0  0  0
 24 23  1  0  0  0  0
 26  3  1  0  0  0  0
 27 26  1  0  0  0  0
 27 32  1  0  0  0  0
 28 27  2  0  0  0  0
 29 30  2  0  0  0  0
 29 28  1  0  0  0  0
 30 31  1  0  0  0  0
 31 26  2  0  0  0  0
 33 28  1  0  0  0  0
 34 29  1  0  0  0  0
 36 37  1  0  0  0  0
 36 35  1  0  0  0  0
 37 30  1  0  0  0  0
 38 39  1  0  0  0  0
 38 37  2  0  0  0  0
 40 38  1  0  0  0  0
 41 40  1  0  0  0  0
 42 40  2  0  0  0  0
 42 44  1  0  0  0  0
 43 42  1  0  0  0  0
 44 36  2  0  0  0  0
 45 44  1  0  0  0  0
M  END
>  <minimizedAffinity>
-7.60304689

>  <minimizedRMSD>
0.107826695

$$$$
