
 OpenBabel03252506263D

 47 51  0  0  0  0  0  0  0  0999 V2000
   45.4040   27.8290   48.4100 C   0  0  0  0  0  0  0  0  0  0  0  0
   44.9100   28.9940   47.8590 C   0  0  0  0  0  0  0  0  0  0  0  0
   44.1260   28.8550   46.7120 C   0  0  0  0  0  0  0  0  0  0  0  0
   43.8570   27.6240   46.1570 C   0  0  0  0  0  0  0  0  0  0  0  0
   43.1600   27.1830   45.0930 N   0  0  0  0  0  0  0  0  0  0  0  0
   43.2190   25.8490   44.9970 C   0  0  0  0  0  0  0  0  0  0  0  0
   43.9860   25.3510   46.0320 C   0  0  0  0  0  0  0  0  0  0  0  0
   44.3590   26.4770   46.7230 C   0  0  0  0  0  0  0  0  0  0  0  0
   45.1330   26.6060   47.8540 C   0  0  0  0  0  0  0  0  0  0  0  0
   46.0050   28.0140   49.3020 H   0  0  0  0  0  0  0  0  0  0  0  0
   43.6730   29.6710   46.1730 H   0  0  0  0  0  0  0  0  0  0  0  0
   42.6410   27.8020   44.4300 H   0  0  0  0  0  0  0  0  0  0  0  0
   42.7400   25.2470   44.2250 H   0  0  0  0  0  0  0  0  0  0  0  0
   44.2250   24.3200   46.2350 H   0  0  0  0  0  0  0  0  0  0  0  0
   43.9970   25.8080   50.5710 Cl  0  0  0  0  0  0  0  0  0  0  0  0
   45.3160   24.9900   49.7630 C   0  0  0  0  0  0  0  0  0  0  0  0
   45.7200   25.4610   48.5430 C   0  0  0  0  0  0  0  0  0  0  0  0
   46.7640   24.8770   47.8200 C   0  0  0  0  0  0  0  0  0  0  0  0
   47.1090   25.2230   46.8540 H   0  0  0  0  0  0  0  0  0  0  0  0
   47.4010   23.7760   48.3770 C   0  0  0  0  0  0  0  0  0  0  0  0
   48.2160   23.3090   47.8280 H   0  0  0  0  0  0  0  0  0  0  0  0
   46.9970   23.2920   49.6120 C   0  0  0  0  0  0  0  0  0  0  0  0
   47.5210   22.4340   50.0100 H   0  0  0  0  0  0  0  0  0  0  0  0
   45.9650   23.8810   50.3150 C   0  0  0  0  0  0  0  0  0  0  0  0
   45.4460   23.2850   51.8700 Cl  0  0  0  0  0  0  0  0  0  0  0  0
   45.0700   30.3850   48.2790 C   0  0  0  0  0  0  0  0  0  0  0  0
   44.3070   31.0450   47.8190 H   0  0  0  0  0  0  0  0  0  0  0  0
   44.8210   30.4030   49.3780 H   0  0  0  0  0  0  0  0  0  0  0  0
   46.4180   30.9810   48.1400 C   0  0  0  0  0  0  0  0  0  0  0  0
   47.2260   30.2620   48.2880 H   0  0  0  0  0  0  0  0  0  0  0  0
   46.5100   31.7710   48.9200 H   0  0  0  0  0  0  0  0  0  0  0  0
   46.2610   33.1150   45.2830 C   0  0  0  0  0  0  0  0  0  0  0  0
   47.1220   32.0970   44.8320 C   0  0  0  0  0  0  0  0  0  0  0  0
   47.2850   31.1900   45.8250 C   0  0  0  0  0  0  0  0  0  0  0  0
   46.5470   31.6370   46.8540 N   0  0  0  0  0  0  0  0  0  0  0  0
   45.9390   32.7820   46.5290 N   0  0  0  0  0  0  0  0  0  0  0  0
   47.6260   31.9670   43.8640 H   0  0  0  0  0  0  0  0  0  0  0  0
   47.8710   30.2650   45.8660 H   0  0  0  0  0  0  0  0  0  0  0  0
   44.5450   36.1540   44.2270 C   0  0  0  0  0  0  0  0  0  0  0  0
   45.0920   36.4240   42.9750 C   0  0  0  0  0  0  0  0  0  0  0  0
   46.0600   35.5410   42.5040 C   0  0  0  0  0  0  0  0  0  0  0  0
   46.4040   34.4920   43.2800 N   0  0  0  0  0  0  0  0  0  0  0  0
   45.8690   34.2540   44.4730 C   0  0  0  0  0  0  0  0  0  0  0  0
   44.9320   35.0950   44.9440 N   0  0  0  0  0  0  0  0  0  0  0  0
   43.7910   36.8720   44.5520 H   0  0  0  0  0  0  0  0  0  0  0  0
   44.8760   37.2250   42.3050 H   0  0  0  0  0  0  0  0  0  0  0  0
   46.6040   35.5610   41.5790 H   0  0  0  0  0  0  0  0  0  0  0  0
  1 10  1  0  0  0  0
  2 26  1  0  0  0  0
  2  1  1  0  0  0  0
  3  2  2  0  0  0  0
  4  3  1  0  0  0  0
  4  8  2  0  0  0  0
  5  4  1  0  0  0  0
  6  5  1  0  0  0  0
  6  7  2  0  0  0  0
  7 14  1  0  0  0  0
  7  8  1  0  0  0  0
  8  9  1  0  0  0  0
  9  1  2  0  0  0  0
  9 17  1  0  0  0  0
 11  3  1  0  0  0  0
 12  5  1  0  0  0  0
 13  6  1  0  0  0  0
 16 24  1  0  0  0  0
 16 15  1  0  0  0  0
 17 16  2  0  0  0  0
 18 20  2  0  0  0  0
 18 17  1  0  0  0  0
 19 18  1  0  0  0  0
 20 22  1  0  0  0  0
 21 20  1  0  0  0  0
 22 23  1  0  0  0  0
 22 24  2  0  0  0  0
 24 25  1  0  0  0  0
 26 28  1  0  0  0  0
 27 26  1  0  0  0  0
 29 26  1  0  0  0  0
 29 30  1  0  0  0  0
 29 31  1  0  0  0  0
 32 36  2  0  0  0  0
 33 32  1  0  0  0  0
 33 34  2  0  0  0  0
 34 38  1  0  0  0  0
 34 35  1  0  0  0  0
 35 29  1  0  0  0  0
 36 35  1  0  0  0  0
 37 33  1  0  0  0  0
 39 45  1  0  0  0  0
 39 44  1  0  0  0  0
 40 39  2  0  0  0  0
 41 40  1  0  0  0  0
 41 42  2  0  0  0  0
 42 43  1  0  0  0  0
 43 44  2  0  0  0  0
 43 32  1  0  0  0  0
 46 40  1  0  0  0  0
 47 41  1  0  0  0  0
M  END
>  <minimizedAffinity>
-5.89408827

>  <minimizedRMSD>
1.4824909

$$$$
