
 OpenBabel03252501483D

 35 37  0  0  0  0  0  0  0  0999 V2000
   43.9380   33.2600   40.6390 C   0  0  0  0  0  0  0  0  0  0  0  0
   44.3390   34.4310   41.2980 C   0  0  0  0  0  0  0  0  0  0  0  0
   43.4430   35.5260   41.3610 C   0  0  0  0  0  0  0  0  0  0  0  0
   42.2250   35.3770   40.7720 N   0  0  0  0  0  0  0  0  0  0  0  0
   41.8800   34.2430   40.1530 C   0  0  0  0  0  0  0  0  0  0  0  0
   42.7300   33.2280   40.1010 N   0  0  0  0  0  0  0  0  0  0  0  0
   44.6670   32.4540   40.6230 H   0  0  0  0  0  0  0  0  0  0  0  0
   43.6670   36.4580   41.8450 H   0  0  0  0  0  0  0  0  0  0  0  0
   39.6280   33.6070   41.6250 F   0  0  0  0  0  0  0  0  0  0  0  0
   39.4530   33.8190   40.3050 C   0  0  0  0  0  0  0  0  0  0  0  0
   40.5610   34.1400   39.5340 C   0  0  0  0  0  0  0  0  0  0  0  0
   40.4720   34.3740   38.1680 C   0  0  0  0  0  0  0  0  0  0  0  0
   39.2050   34.2720   37.5960 C   0  0  0  0  0  0  0  0  0  0  0  0
   38.0700   33.9510   38.3370 C   0  0  0  0  0  0  0  0  0  0  0  0
   38.2080   33.7250   39.7060 C   0  0  0  0  0  0  0  0  0  0  0  0
   41.3060   34.6250   37.5330 H   0  0  0  0  0  0  0  0  0  0  0  0
   39.1170   34.4500   36.5280 H   0  0  0  0  0  0  0  0  0  0  0  0
   37.1210   33.8880   37.8330 H   0  0  0  0  0  0  0  0  0  0  0  0
   37.3330   33.4740   40.3050 H   0  0  0  0  0  0  0  0  0  0  0  0
   45.6570   34.6170   41.9390 C   0  0  0  0  0  0  0  0  0  0  0  0
   45.9660   34.0010   43.0890 C   0  0  0  0  0  0  0  0  0  0  0  0
   47.3200   34.2080   43.7020 C   0  0  0  0  0  0  0  0  0  0  0  0
   47.3030   34.2850   44.7890 H   0  0  0  0  0  0  0  0  0  0  0  0
   47.7560   35.1300   43.2640 H   0  0  0  0  0  0  0  0  0  0  0  0
   49.9350   34.8220   42.2340 Cl  0  0  0  0  0  0  0  0  0  0  0  0
   49.3220   33.2150   42.5670 C   0  0  0  0  0  0  0  0  0  0  0  0
   48.1300   33.0260   43.2380 C   0  0  0  0  0  0  0  0  0  0  0  0
   47.6440   31.7580   43.5020 C   0  0  0  0  0  0  0  0  0  0  0  0
   46.6980   31.6250   44.0340 H   0  0  0  0  0  0  0  0  0  0  0  0
   48.3340   30.6210   43.1020 C   0  0  0  0  0  0  0  0  0  0  0  0
   47.9770   29.6310   43.2960 H   0  0  0  0  0  0  0  0  0  0  0  0
   49.5230   30.8320   42.4340 C   0  0  0  0  0  0  0  0  0  0  0  0
   50.0500   29.9190   42.1280 H   0  0  0  0  0  0  0  0  0  0  0  0
   50.0440   32.0960   42.1490 C   0  0  0  0  0  0  0  0  0  0  0  0
   51.5740   32.2540   41.2880 Cl  0  0  0  0  0  0  0  0  0  0  0  0
  1  2  1  0  0  0  0
  2  3  2  0  0  0  0
  2 20  1  0  0  0  0
  3  8  1  0  0  0  0
  4  3  1  0  0  0  0
  5  4  2  0  0  0  0
  6  5  1  0  0  0  0
  6  1  2  0  0  0  0
  7  1  1  0  0  0  0
 10  9  1  0  0  0  0
 11  5  1  0  0  0  0
 11 10  2  0  0  0  0
 12 11  1  0  0  0  0
 13 12  2  0  0  0  0
 13 14  1  0  0  0  0
 14 15  2  0  0  0  0
 15 19  1  0  0  0  0
 15 10  1  0  0  0  0
 16 12  1  0  0  0  0
 17 13  1  0  0  0  0
 18 14  1  0  0  0  0
 20 21  2  0  0  0  0
 21 22  1  0  0  0  0
 22 23  1  0  0  0  0
 24 22  1  0  0  0  0
 25 26  1  0  0  0  0
 26 27  1  0  0  0  0
 27 28  2  0  0  0  0
 27 22  1  0  0  0  0
 28 29  1  0  0  0  0
 30 31  1  0  0  0  0
 30 28  1  0  0  0  0
 32 30  2  0  0  0  0
 33 32  1  0  0  0  0
 34 32  1  0  0  0  0
 34 26  2  0  0  0  0
 35 34  1  0  0  0  0
M  END
>  <minimizedAffinity>
-6.05794382

>  <minimizedRMSD>
3.33576608

$$$$
