
 OpenBabel03252505043D

 36 38  0  0  1  0  0  0  0  0999 V2000
   45.6690   34.5460   44.0290 C   0  0  0  0  0  0  0  0  0  0  0  0
   46.4310   33.9130   43.0420 C   0  0  0  0  0  0  0  0  0  0  0  0
   47.2520   32.8560   43.4010 C   0  0  0  0  0  0  0  0  0  0  0  0
   47.2470   32.5170   44.7190 N   0  0  0  0  0  0  0  0  0  0  0  0
   46.5170   33.1270   45.6520 C   0  0  0  0  0  0  0  0  0  0  0  0
   45.7100   34.1610   45.3070 N   0  0  0  0  0  0  0  0  0  0  0  0
   45.0470   35.3660   43.6810 H   0  0  0  0  0  0  0  0  0  0  0  0
   46.3990   34.2300   42.0450 H   0  0  0  0  0  0  0  0  0  0  0  0
   46.6110   32.6680   47.0600 C   0  0  2  0  0  0  0  0  0  0  0  0
   47.2630   31.3350   47.0440 C   0  0  0  0  0  0  0  0  0  0  0  0
   46.3640   30.1890   47.2720 C   0  0  0  0  0  0  0  0  0  0  0  0
   45.6790   30.4460   48.5990 C   0  0  0  0  0  0  0  0  0  0  0  0
   44.7950   31.6160   48.5400 C   0  0  0  0  0  0  0  0  0  0  0  0
   45.3160   32.7670   47.7190 C   0  0  0  0  0  0  0  0  0  0  0  0
   47.2990   33.4160   47.5550 H   0  0  0  0  0  0  0  0  0  0  0  0
   48.0460   31.3130   47.8350 H   0  0  0  0  0  0  0  0  0  0  0  0
   47.8520   31.1750   46.0940 H   0  0  0  0  0  0  0  0  0  0  0  0
   45.5800   30.1560   46.4860 H   0  0  0  0  0  0  0  0  0  0  0  0
   46.9360   29.2610   47.3140 H   0  0  0  0  0  0  0  0  0  0  0  0
   44.9890   29.5830   48.7320 H   0  0  0  0  0  0  0  0  0  0  0  0
   46.4070   30.4230   49.4040 H   0  0  0  0  0  0  0  0  0  0  0  0
   43.8470   31.8140   48.9650 H   0  0  0  0  0  0  0  0  0  0  0  0
   44.5500   33.9610   47.5760 N   0  0  0  0  0  0  0  0  0  0  0  0
   44.7730   34.8230   48.1260 H   0  0  0  0  0  0  0  0  0  0  0  0
   43.7590   34.4070   47.0980 H   0  0  0  0  0  0  0  0  0  0  0  0
   50.1440   33.8370   42.6120 Cl  0  0  0  0  0  0  0  0  0  0  0  0
   49.3960   32.3580   42.1460 C   0  0  0  0  0  0  0  0  0  0  0  0
   48.1320   32.0690   42.5630 C   0  0  0  0  0  0  0  0  0  0  0  0
   47.6710   30.8620   42.0850 C   0  0  0  0  0  0  0  0  0  0  0  0
   46.6850   30.4720   42.3160 H   0  0  0  0  0  0  0  0  0  0  0  0
   48.4000   30.0250   41.2700 C   0  0  0  0  0  0  0  0  0  0  0  0
   48.0100   29.0950   40.9190 H   0  0  0  0  0  0  0  0  0  0  0  0
   49.6690   30.3630   40.8790 C   0  0  0  0  0  0  0  0  0  0  0  0
   50.2320   29.6990   40.2420 H   0  0  0  0  0  0  0  0  0  0  0  0
   50.1640   31.5620   41.3370 C   0  0  0  0  0  0  0  0  0  0  0  0
   51.7820   31.9980   40.8420 Cl  0  0  0  0  0  0  0  0  0  0  0  0
  1  6  1  0  0  0  0
  2  3  1  0  0  0  0
  2  1  2  0  0  0  0
  3  4  2  0  0  0  0
  4  5  1  0  0  0  0
  5  9  1  0  0  0  0
  6  5  2  0  0  0  0
  7  1  1  0  0  0  0
  8  2  1  0  0  0  0
  9 15  1  1  0  0  0
  9 14  1  0  0  0  0
 10  9  1  0  0  0  0
 10 11  1  0  0  0  0
 10 16  1  0  0  0  0
 11 19  1  0  0  0  0
 11 12  1  0  0  0  0
 12 20  1  0  0  0  0
 12 21  1  0  0  0  0
 13 12  1  0  0  0  0
 13 22  1  0  0  0  0
 14 13  2  0  0  0  0
 17 10  1  0  0  0  0
 18 11  1  0  0  0  0
 23 14  1  0  0  0  0
 23 24  1  0  0  0  0
 25 23  1  0  0  0  0
 27 28  1  0  0  0  0
 27 26  1  0  0  0  0
 28  3  1  0  0  0  0
 29 30  1  0  0  0  0
 29 28  2  0  0  0  0
 31 29  1  0  0  0  0
 32 31  1  0  0  0  0
 33 31  2  0  0  0  0
 33 35  1  0  0  0  0
 34 33  1  0  0  0  0
 35 27  2  0  0  0  0
 36 35  1  0  0  0  0
M  END
>  <minimizedAffinity>
-5.89531231

>  <minimizedRMSD>
1.45746207

$$$$
