
 OpenBabel03252507493D

 47 49  0  0  0  0  0  0  0  0999 V2000
   47.2740   35.2490   41.9950 C   0  0  0  0  0  0  0  0  0  0  0  0
   47.4240   36.3360   42.0350 H   0  0  0  0  0  0  0  0  0  0  0  0
   47.8100   34.8520   42.9020 H   0  0  0  0  0  0  0  0  0  0  0  0
   45.8500   34.8980   42.1590 C   0  0  0  0  0  0  0  0  0  0  0  0
   44.8660   35.9240   42.2490 C   0  0  0  0  0  0  0  0  0  0  0  0
   43.3030   35.0100   42.4380 S   0  0  0  0  0  0  0  0  0  0  0  0
   44.2470   33.3400   42.3650 C   0  0  0  0  0  0  0  0  0  0  0  0
   45.3190   33.7050   42.2390 N   0  0  0  0  0  0  0  0  0  0  0  0
   44.9990   36.9970   42.2150 H   0  0  0  0  0  0  0  0  0  0  0  0
   43.6160   32.1060   42.4570 O   0  0  0  0  0  0  0  0  0  0  0  0
   42.0400   30.3230   41.3260 O   0  0  0  0  0  0  0  0  0  0  0  0
   42.2760   31.8390   41.4310 P   0  0  1  0  0  0  0  0  0  0  0  0
   40.9290   32.5360   42.1840 O   0  0  0  0  0  0  0  0  0  0  0  0
   40.8880   33.4950   42.0550 H   0  0  0  0  0  0  0  0  0  0  0  0
   42.5510   32.5540   39.9450 O   0  0  0  0  0  0  0  0  0  0  0  0
   39.8020   31.5660   39.0430 Cl  0  0  0  0  0  0  0  0  0  0  0  0
   40.4640   33.1390   38.6550 C   0  0  0  0  0  0  0  0  0  0  0  0
   41.7220   33.3290   39.1860 C   0  0  0  0  0  0  0  0  0  0  0  0
   42.3410   34.5610   38.9320 C   0  0  0  0  0  0  0  0  0  0  0  0
   43.3350   34.8990   39.2680 H   0  0  0  0  0  0  0  0  0  0  0  0
   41.7090   35.5510   38.1730 C   0  0  0  0  0  0  0  0  0  0  0  0
   42.1480   36.5140   37.9530 H   0  0  0  0  0  0  0  0  0  0  0  0
   40.4500   35.3310   37.6560 C   0  0  0  0  0  0  0  0  0  0  0  0
   39.9110   36.0630   37.0590 H   0  0  0  0  0  0  0  0  0  0  0  0
   39.8460   34.1170   37.9080 C   0  0  0  0  0  0  0  0  0  0  0  0
   38.2580   33.6950   37.3200 Cl  0  0  0  0  0  0  0  0  0  0  0  0
   47.9390   34.6080   40.8120 C   0  0  0  0  0  0  0  0  0  0  0  0
   47.1520   34.0530   40.2680 H   0  0  0  0  0  0  0  0  0  0  0  0
   48.2840   35.4240   40.1280 H   0  0  0  0  0  0  0  0  0  0  0  0
   49.0860   33.7670   41.1560 C   0  0  0  0  0  0  0  0  0  0  0  0
   49.2790   32.6230   40.3910 C   0  0  0  0  0  0  0  0  0  0  0  0
   50.3320   31.7650   40.6380 C   0  0  0  0  0  0  0  0  0  0  0  0
   51.1770   32.1110   41.6830 N   0  0  0  0  0  0  0  0  0  0  0  0
   50.9500   33.2410   42.4040 C   0  0  0  0  0  0  0  0  0  0  0  0
   49.9240   34.0550   42.1460 N   0  0  0  0  0  0  0  0  0  0  0  0
   50.5040   30.8790   40.0660 H   0  0  0  0  0  0  0  0  0  0  0  0
   51.6790   33.4140   43.2040 H   0  0  0  0  0  0  0  0  0  0  0  0
   48.1440   32.2480   39.0610 S   0  0  0  0  0  0  0  0  0  0  0  0
   48.9600   32.4430   37.4680 C   0  0  0  0  0  0  0  0  0  0  0  0
   48.8030   31.5220   36.8420 H   0  0  0  0  0  0  0  0  0  0  0  0
   50.0680   32.5020   37.6500 H   0  0  0  0  0  0  0  0  0  0  0  0
   48.4280   33.6800   36.7970 C   0  0  0  0  0  0  0  0  0  0  0  0
   47.5280   34.0610   37.3040 H   0  0  0  0  0  0  0  0  0  0  0  0
   49.1860   34.5040   36.8280 H   0  0  0  0  0  0  0  0  0  0  0  0
   48.0550   33.3540   35.4570 N   0  0  0  0  0  0  0  0  0  0  0  0
   48.4310   32.4400   35.1780 H   0  0  0  0  0  0  0  0  0  0  0  0
   48.4490   34.0490   34.7560 H   0  0  0  0  0  0  0  0  0  0  0  0
  1  2  1  0  0  0  0
  1  4  1  0  0  0  0
  1  3  1  0  0  0  0
  4  8  1  0  0  0  0
  4  5  2  0  0  0  0
  5  6  1  0  0  0  0
  7  6  1  0  0  0  0
  7 10  1  0  0  0  0
  8  7  2  0  0  0  0
  9  5  1  0  0  0  0
 12 11  2  6  0  0  0
 12 13  1  0  0  0  0
 12 10  1  0  0  0  0
 14 13  1  0  0  0  0
 15 12  1  0  0  0  0
 17 16  1  0  0  0  0
 17 18  1  0  0  0  0
 18 15  1  0  0  0  0
 19 18  2  0  0  0  0
 19 20  1  0  0  0  0
 21 19  1  0  0  0  0
 22 21  1  0  0  0  0
 23 25  1  0  0  0  0
 23 21  2  0  0  0  0
 24 23  1  0  0  0  0
 25 17  2  0  0  0  0
 26 25  1  0  0  0  0
 27 30  1  0  0  0  0
 27  1  1  0  0  0  0
 28 27  1  0  0  0  0
 29 27  1  0  0  0  0
 30 35  1  0  0  0  0
 31 32  1  0  0  0  0
 31 30  2  0  0  0  0
 32 33  2  0  0  0  0
 33 34  1  0  0  0  0
 34 37  1  0  0  0  0
 35 34  2  0  0  0  0
 36 32  1  0  0  0  0
 38 31  1  0  0  0  0
 39 41  1  0  0  0  0
 39 38  1  0  0  0  0
 40 39  1  0  0  0  0
 42 44  1  0  0  0  0
 42 43  1  0  0  0  0
 42 39  1  0  0  0  0
 45 42  1  0  0  0  0
 46 45  1  0  0  0  0
 47 45  1  0  0  0  0
M  END
>  <minimizedAffinity>
-5.40442133

>  <minimizedRMSD>
3.14631915

$$$$
