
 OpenBabel03252502243D

 36 38  0  0  1  0  0  0  0  0999 V2000
   46.6540   34.4750   42.2560 N   0  0  0  0  0  0  0  0  0  0  0  0
   48.1010   34.2540   42.3040 C   0  0  0  0  0  0  0  0  0  0  0  0
   48.6090   35.0230   41.0640 C   0  0  0  0  0  0  0  0  0  0  0  0
   48.1190   34.3310   39.8250 C   0  0  0  0  0  0  0  0  0  0  0  0
   46.6960   33.9060   39.8830 C   0  0  0  0  0  0  0  0  0  0  0  0
   45.8840   34.4390   41.0320 C   0  0  1  0  0  0  0  0  0  0  0  0
   48.3780   33.1980   42.2020 H   0  0  0  0  0  0  0  0  0  0  0  0
   48.5060   34.7560   43.1920 H   0  0  0  0  0  0  0  0  0  0  0  0
   49.7060   34.9890   41.1160 H   0  0  0  0  0  0  0  0  0  0  0  0
   48.2220   36.0600   41.1560 H   0  0  0  0  0  0  0  0  0  0  0  0
   48.3410   35.0230   38.9760 H   0  0  0  0  0  0  0  0  0  0  0  0
   48.7750   33.4480   39.6660 H   0  0  0  0  0  0  0  0  0  0  0  0
   46.6160   32.7900   39.9020 H   0  0  0  0  0  0  0  0  0  0  0  0
   46.1930   34.2260   38.9460 H   0  0  0  0  0  0  0  0  0  0  0  0
   45.6690   35.4980   40.7940 H   0  0  0  0  0  0  0  0  0  0  0  0
   44.4680   36.0830   44.8390 C   0  0  0  0  0  0  0  0  0  0  0  0
   45.1330   35.9080   43.6110 C   0  0  0  0  0  0  0  0  0  0  0  0
   45.9370   34.7430   43.4660 C   0  0  0  0  0  0  0  0  0  0  0  0
   46.0000   33.8950   44.5200 N   0  0  0  0  0  0  0  0  0  0  0  0
   45.3470   34.0990   45.6800 C   0  0  0  0  0  0  0  0  0  0  0  0
   44.5760   35.2020   45.8370 N   0  0  0  0  0  0  0  0  0  0  0  0
   43.8460   36.9670   44.9750 H   0  0  0  0  0  0  0  0  0  0  0  0
   45.0620   36.5970   42.8010 H   0  0  0  0  0  0  0  0  0  0  0  0
   45.5040   33.3140   46.4340 H   0  0  0  0  0  0  0  0  0  0  0  0
   44.7950   33.6370   41.2140 O   0  0  0  0  0  0  0  0  0  0  0  0
   42.7780   31.5090   42.2550 Cl  0  0  0  0  0  0  0  0  0  0  0  0
   42.3820   32.9590   41.4030 C   0  0  0  0  0  0  0  0  0  0  0  0
   43.4710   33.7270   41.0560 C   0  0  0  0  0  0  0  0  0  0  0  0
   43.1580   34.9100   40.3620 C   0  0  0  0  0  0  0  0  0  0  0  0
   43.8570   35.6760   39.9850 H   0  0  0  0  0  0  0  0  0  0  0  0
   41.8430   35.2610   40.0580 C   0  0  0  0  0  0  0  0  0  0  0  0
   41.5510   36.1550   39.5290 H   0  0  0  0  0  0  0  0  0  0  0  0
   40.8390   34.4330   40.4450 C   0  0  0  0  0  0  0  0  0  0  0  0
   39.7960   34.6600   40.2330 H   0  0  0  0  0  0  0  0  0  0  0  0
   41.0730   33.2640   41.1250 C   0  0  0  0  0  0  0  0  0  0  0  0
   39.8390   32.1500   41.6550 Cl  0  0  0  0  0  0  0  0  0  0  0  0
  1  2  1  0  0  0  0
  1 18  1  0  0  0  0
  2  8  1  0  0  0  0
  3  9  1  0  0  0  0
  3 10  1  0  0  0  0
  3  2  1  0  0  0  0
  4  5  1  0  0  0  0
  4  3  1  0  0  0  0
  5 13  1  0  0  0  0
  5  6  1  0  0  0  0
  6 15  1  6  0  0  0
  6 25  1  0  0  0  0
  6  1  1  0  0  0  0
  7  2  1  0  0  0  0
 11  4  1  0  0  0  0
 12  4  1  0  0  0  0
 14  5  1  0  0  0  0
 16 22  1  0  0  0  0
 16 21  1  0  0  0  0
 17 16  2  0  0  0  0
 18 17  1  0  0  0  0
 18 19  2  0  0  0  0
 19 20  1  0  0  0  0
 20 21  2  0  0  0  0
 20 24  1  0  0  0  0
 23 17  1  0  0  0  0
 27 26  1  0  0  0  0
 28 25  1  0  0  0  0
 28 27  2  0  0  0  0
 29 28  1  0  0  0  0
 30 29  1  0  0  0  0
 31 29  2  0  0  0  0
 31 33  1  0  0  0  0
 32 31  1  0  0  0  0
 33 35  2  0  0  0  0
 34 33  1  0  0  0  0
 35 27  1  0  0  0  0
 35 36  1  0  0  0  0
M  END
>  <minimizedAffinity>
-6.04263592

>  <minimizedRMSD>
1.01573753

$$$$
