
 OpenBabel03252506263D

 47 51  0  0  0  0  0  0  0  0999 V2000
   45.9310   27.8450   47.6440 C   0  0  0  0  0  0  0  0  0  0  0  0
   45.6100   29.1840   47.7410 C   0  0  0  0  0  0  0  0  0  0  0  0
   44.5050   29.6130   47.0030 C   0  0  0  0  0  0  0  0  0  0  0  0
   43.7720   28.7520   46.2200 C   0  0  0  0  0  0  0  0  0  0  0  0
   42.6930   28.8630   45.4200 N   0  0  0  0  0  0  0  0  0  0  0  0
   42.3750   27.6840   44.8730 C   0  0  0  0  0  0  0  0  0  0  0  0
   43.2660   26.7230   45.3110 C   0  0  0  0  0  0  0  0  0  0  0  0
   44.1090   27.4220   46.1370 C   0  0  0  0  0  0  0  0  0  0  0  0
   45.1970   26.9910   46.8620 C   0  0  0  0  0  0  0  0  0  0  0  0
   46.8020   27.5820   48.2460 H   0  0  0  0  0  0  0  0  0  0  0  0
   44.1360   30.6260   46.9800 H   0  0  0  0  0  0  0  0  0  0  0  0
   42.1750   29.7540   45.2500 H   0  0  0  0  0  0  0  0  0  0  0  0
   41.5440   27.5060   44.1910 H   0  0  0  0  0  0  0  0  0  0  0  0
   43.2810   25.6760   45.0540 H   0  0  0  0  0  0  0  0  0  0  0  0
   47.0760   26.0890   44.6330 Cl  0  0  0  0  0  0  0  0  0  0  0  0
   46.4900   25.0590   45.9220 C   0  0  0  0  0  0  0  0  0  0  0  0
   45.6500   25.6040   46.8550 C   0  0  0  0  0  0  0  0  0  0  0  0
   45.1300   24.8630   47.9210 C   0  0  0  0  0  0  0  0  0  0  0  0
   44.4640   25.2620   48.6760 H   0  0  0  0  0  0  0  0  0  0  0  0
   45.4920   23.5270   48.0180 C   0  0  0  0  0  0  0  0  0  0  0  0
   45.0960   22.9360   48.8420 H   0  0  0  0  0  0  0  0  0  0  0  0
   46.3420   22.9680   47.0770 C   0  0  0  0  0  0  0  0  0  0  0  0
   46.5990   21.9230   47.1890 H   0  0  0  0  0  0  0  0  0  0  0  0
   46.8490   23.7120   46.0290 C   0  0  0  0  0  0  0  0  0  0  0  0
   47.9180   23.0230   44.8370 Cl  0  0  0  0  0  0  0  0  0  0  0  0
   46.2430   30.2580   48.5030 C   0  0  0  0  0  0  0  0  0  0  0  0
   45.5310   31.0760   48.7340 H   0  0  0  0  0  0  0  0  0  0  0  0
   46.4880   29.8160   49.5100 H   0  0  0  0  0  0  0  0  0  0  0  0
   47.5070   30.8130   47.9650 C   0  0  0  0  0  0  0  0  0  0  0  0
   48.3050   30.0730   47.8890 H   0  0  0  0  0  0  0  0  0  0  0  0
   47.8410   31.6110   48.6670 H   0  0  0  0  0  0  0  0  0  0  0  0
   46.5960   32.9190   45.2310 C   0  0  0  0  0  0  0  0  0  0  0  0
   47.2280   31.8510   44.5700 C   0  0  0  0  0  0  0  0  0  0  0  0
   47.6410   30.9480   45.4910 C   0  0  0  0  0  0  0  0  0  0  0  0
   47.2720   31.4460   46.6820 N   0  0  0  0  0  0  0  0  0  0  0  0
   46.6510   32.6190   46.5250 N   0  0  0  0  0  0  0  0  0  0  0  0
   47.4090   31.6820   43.4990 H   0  0  0  0  0  0  0  0  0  0  0  0
   48.1660   29.9920   45.3790 H   0  0  0  0  0  0  0  0  0  0  0  0
   44.5220   35.8410   44.5550 C   0  0  0  0  0  0  0  0  0  0  0  0
   44.9320   36.2520   43.2900 C   0  0  0  0  0  0  0  0  0  0  0  0
   45.9340   35.5040   42.6770 C   0  0  0  0  0  0  0  0  0  0  0  0
   46.4390   34.4420   43.3380 N   0  0  0  0  0  0  0  0  0  0  0  0
   46.0320   34.0690   44.5460 C   0  0  0  0  0  0  0  0  0  0  0  0
   45.0650   34.7780   45.1540 N   0  0  0  0  0  0  0  0  0  0  0  0
   43.7360   36.4570   44.9950 H   0  0  0  0  0  0  0  0  0  0  0  0
   44.5870   37.0740   42.7040 H   0  0  0  0  0  0  0  0  0  0  0  0
   46.3930   35.6440   41.7160 H   0  0  0  0  0  0  0  0  0  0  0  0
  1  2  1  0  0  0  0
  1 10  1  0  0  0  0
  2 26  1  0  0  0  0
  3  2  2  0  0  0  0
  4  3  1  0  0  0  0
  5  4  1  0  0  0  0
  6  7  2  0  0  0  0
  6  5  1  0  0  0  0
  7  8  1  0  0  0  0
  8  4  2  0  0  0  0
  8  9  1  0  0  0  0
  9  1  2  0  0  0  0
 11  3  1  0  0  0  0
 12  5  1  0  0  0  0
 13  6  1  0  0  0  0
 14  7  1  0  0  0  0
 15 16  1  0  0  0  0
 16 24  2  0  0  0  0
 16 17  1  0  0  0  0
 17  9  1  0  0  0  0
 17 18  2  0  0  0  0
 18 20  1  0  0  0  0
 18 19  1  0  0  0  0
 20 21  1  0  0  0  0
 22 23  1  0  0  0  0
 22 20  2  0  0  0  0
 24 22  1  0  0  0  0
 25 24  1  0  0  0  0
 26 27  1  0  0  0  0
 26 28  1  0  0  0  0
 29 26  1  0  0  0  0
 29 31  1  0  0  0  0
 30 29  1  0  0  0  0
 32 36  2  0  0  0  0
 33 32  1  0  0  0  0
 33 34  2  0  0  0  0
 34 35  1  0  0  0  0
 35 29  1  0  0  0  0
 36 35  1  0  0  0  0
 37 33  1  0  0  0  0
 38 34  1  0  0  0  0
 39 45  1  0  0  0  0
 39 44  1  0  0  0  0
 40 39  2  0  0  0  0
 41 40  1  0  0  0  0
 41 42  2  0  0  0  0
 42 43  1  0  0  0  0
 43 44  2  0  0  0  0
 43 32  1  0  0  0  0
 46 40  1  0  0  0  0
 47 41  1  0  0  0  0
M  END
>  <minimizedAffinity>
-5.34931374

>  <minimizedRMSD>
1.81417549

$$$$
