
 OpenBabel03252502223D

 35 37  0  0  1  0  0  0  0  0999 V2000
   38.8030   31.4200   40.5870 N   0  0  0  0  0  0  0  0  0  0  0  0
   39.8900   32.3070   40.1900 C   0  0  0  0  0  0  0  0  0  0  0  0
   39.4600   33.7000   40.6960 C   0  0  0  0  0  0  0  0  0  0  0  0
   38.2490   34.1610   39.9560 C   0  0  0  0  0  0  0  0  0  0  0  0
   37.2380   33.1010   39.7130 C   0  0  0  0  0  0  0  0  0  0  0  0
   37.4370   31.8190   40.4400 C   0  0  1  0  0  0  0  0  0  0  0  0
   39.9400   32.4040   39.0730 H   0  0  0  0  0  0  0  0  0  0  0  0
   40.8570   32.0210   40.5970 H   0  0  0  0  0  0  0  0  0  0  0  0
   39.1640   33.5200   41.7500 H   0  0  0  0  0  0  0  0  0  0  0  0
   40.2710   34.4380   40.5700 H   0  0  0  0  0  0  0  0  0  0  0  0
   38.5840   34.5570   38.9730 H   0  0  0  0  0  0  0  0  0  0  0  0
   37.8220   35.0390   40.4910 H   0  0  0  0  0  0  0  0  0  0  0  0
   37.0820   32.8930   38.6170 H   0  0  0  0  0  0  0  0  0  0  0  0
   36.2330   33.4980   40.0430 H   0  0  0  0  0  0  0  0  0  0  0  0
   37.0430   31.9380   41.4920 H   0  0  0  0  0  0  0  0  0  0  0  0
   37.8070   31.3790   37.5030 Cl  0  0  0  0  0  0  0  0  0  0  0  0
   36.6360   30.5100   38.4600 C   0  0  0  0  0  0  0  0  0  0  0  0
   36.5600   30.8040   39.8130 C   0  0  0  0  0  0  0  0  0  0  0  0
   35.6210   30.0940   40.5320 C   0  0  0  0  0  0  0  0  0  0  0  0
   35.4930   30.2550   41.5850 H   0  0  0  0  0  0  0  0  0  0  0  0
   34.7930   29.1380   39.9520 C   0  0  0  0  0  0  0  0  0  0  0  0
   34.0510   28.5790   40.5270 H   0  0  0  0  0  0  0  0  0  0  0  0
   34.9260   28.8960   38.5810 C   0  0  0  0  0  0  0  0  0  0  0  0
   34.2950   28.1590   38.1000 H   0  0  0  0  0  0  0  0  0  0  0  0
   35.8460   29.5770   37.8220 C   0  0  0  0  0  0  0  0  0  0  0  0
   36.0020   29.2600   36.1030 Cl  0  0  0  0  0  0  0  0  0  0  0  0
   39.1350   28.5420   42.9470 C   0  0  0  0  0  0  0  0  0  0  0  0
   38.8540   29.8230   42.4800 C   0  0  0  0  0  0  0  0  0  0  0  0
   39.0660   30.1370   41.1310 C   0  0  0  0  0  0  0  0  0  0  0  0
   39.5480   29.1440   40.3390 N   0  0  0  0  0  0  0  0  0  0  0  0
   39.8170   27.9010   40.8090 C   0  0  0  0  0  0  0  0  0  0  0  0
   39.6110   27.6020   42.1090 N   0  0  0  0  0  0  0  0  0  0  0  0
   38.9750   28.2860   43.9850 H   0  0  0  0  0  0  0  0  0  0  0  0
   38.4730   30.5870   43.1370 H   0  0  0  0  0  0  0  0  0  0  0  0
   40.1980   27.1010   40.2010 H   0  0  0  0  0  0  0  0  0  0  0  0
  1 29  1  0  0  0  0
  2  1  1  0  0  0  0
  2  8  1  0  0  0  0
  2  3  1  0  0  0  0
  3  9  1  0  0  0  0
  4 12  1  0  0  0  0
  4  3  1  0  0  0  0
  5  4  1  0  0  0  0
  5 14  1  0  0  0  0
  5  6  1  0  0  0  0
  6  1  1  0  0  0  0
  6 15  1  1  0  0  0
  7  2  1  0  0  0  0
 10  3  1  0  0  0  0
 11  4  1  0  0  0  0
 13  5  1  0  0  0  0
 16 17  1  0  0  0  0
 17 18  1  0  0  0  0
 18  6  1  0  0  0  0
 18 19  2  0  0  0  0
 19 20  1  0  0  0  0
 21 22  1  0  0  0  0
 21 19  1  0  0  0  0
 23 21  2  0  0  0  0
 24 23  1  0  0  0  0
 25 17  2  0  0  0  0
 25 23  1  0  0  0  0
 26 25  1  0  0  0  0
 27 33  1  0  0  0  0
 28 27  1  0  0  0  0
 28 34  1  0  0  0  0
 29 28  2  0  0  0  0
 30 31  2  0  0  0  0
 30 29  1  0  0  0  0
 31 32  1  0  0  0  0
 32 27  2  0  0  0  0
 35 31  1  0  0  0  0
M  END
>  <minimizedAffinity>
-5.57030249

$$$$

 OpenBabel03252502223D

 35 37  0  0  1  0  0  0  0  0999 V2000
   37.6750   29.3670   41.3620 N   0  0  0  0  0  0  0  0  0  0  0  0
   37.5440   29.2790   42.8120 C   0  0  0  0  0  0  0  0  0  0  0  0
   38.2350   27.9510   43.1860 C   0  0  0  0  0  0  0  0  0  0  0  0
   37.4690   26.8010   42.6230 C   0  0  0  0  0  0  0  0  0  0  0  0
   36.9510   27.0210   41.2490 C   0  0  0  0  0  0  0  0  0  0  0  0
   37.4650   28.2190   40.5350 C   0  0  1  0  0  0  0  0  0  0  0  0
   36.4700   29.1440   43.1100 H   0  0  0  0  0  0  0  0  0  0  0  0
   37.9890   30.1180   43.3420 H   0  0  0  0  0  0  0  0  0  0  0  0
   39.2090   28.0000   42.6560 H   0  0  0  0  0  0  0  0  0  0  0  0
   38.3170   27.8390   44.2810 H   0  0  0  0  0  0  0  0  0  0  0  0
   36.6050   26.6080   43.2970 H   0  0  0  0  0  0  0  0  0  0  0  0
   38.1010   25.8870   42.6970 H   0  0  0  0  0  0  0  0  0  0  0  0
   35.8250   27.0070   41.2030 H   0  0  0  0  0  0  0  0  0  0  0  0
   37.2430   26.1290   40.6220 H   0  0  0  0  0  0  0  0  0  0  0  0
   38.4770   27.9710   40.1000 H   0  0  0  0  0  0  0  0  0  0  0  0
   38.8020   28.1880   37.8580 Cl  0  0  0  0  0  0  0  0  0  0  0  0
   37.0930   28.4630   38.0690 C   0  0  0  0  0  0  0  0  0  0  0  0
   36.5910   28.4540   39.3620 C   0  0  0  0  0  0  0  0  0  0  0  0
   35.2350   28.6750   39.4830 C   0  0  0  0  0  0  0  0  0  0  0  0
   34.7610   28.6850   40.4450 H   0  0  0  0  0  0  0  0  0  0  0  0
   34.4070   28.8960   38.3870 C   0  0  0  0  0  0  0  0  0  0  0  0
   33.3330   29.0710   38.4900 H   0  0  0  0  0  0  0  0  0  0  0  0
   34.9840   28.8920   37.1140 C   0  0  0  0  0  0  0  0  0  0  0  0
   34.3660   29.0620   36.2410 H   0  0  0  0  0  0  0  0  0  0  0  0
   36.3290   28.6760   36.9410 C   0  0  0  0  0  0  0  0  0  0  0  0
   37.0390   28.6730   35.3350 Cl  0  0  0  0  0  0  0  0  0  0  0  0
   37.5150   32.8260   39.9600 C   0  0  0  0  0  0  0  0  0  0  0  0
   37.1130   31.6530   40.5930 C   0  0  0  0  0  0  0  0  0  0  0  0
   38.0160   30.5890   40.7300 C   0  0  0  0  0  0  0  0  0  0  0  0
   39.2620   30.7730   40.2220 N   0  0  0  0  0  0  0  0  0  0  0  0
   39.6370   31.9230   39.6070 C   0  0  0  0  0  0  0  0  0  0  0  0
   38.7660   32.9450   39.4780 N   0  0  0  0  0  0  0  0  0  0  0  0
   36.8280   33.6550   39.8480 H   0  0  0  0  0  0  0  0  0  0  0  0
   36.1160   31.5410   40.9840 H   0  0  0  0  0  0  0  0  0  0  0  0
   40.6170   32.0900   39.1990 H   0  0  0  0  0  0  0  0  0  0  0  0
  1  2  1  0  0  0  0
  2  7  1  0  0  0  0
  2  3  1  0  0  0  0
  2  8  1  0  0  0  0
  3 10  1  0  0  0  0
  4 12  1  0  0  0  0
  4  3  1  0  0  0  0
  4 11  1  0  0  0  0
  5  4  1  0  0  0  0
  6 15  1  6  0  0  0
  6  5  1  0  0  0  0
  6  1  1  0  0  0  0
  9  3  1  0  0  0  0
 13  5  1  0  0  0  0
 14  5  1  0  0  0  0
 16 17  1  0  0  0  0
 17 18  1  0  0  0  0
 18 19  2  0  0  0  0
 18  6  1  0  0  0  0
 19 20  1  0  0  0  0
 21 22  1  0  0  0  0
 21 19  1  0  0  0  0
 23 21  2  0  0  0  0
 24 23  1  0  0  0  0
 25 23  1  0  0  0  0
 25 17  2  0  0  0  0
 26 25  1  0  0  0  0
 27 28  1  0  0  0  0
 28 29  2  0  0  0  0
 28 34  1  0  0  0  0
 29  1  1  0  0  0  0
 30 29  1  0  0  0  0
 31 30  2  0  0  0  0
 32 31  1  0  0  0  0
 32 27  2  0  0  0  0
 33 27  1  0  0  0  0
 35 31  1  0  0  0  0
M  END
>  <minimizedAffinity>
-5.18222904

$$$$

 OpenBabel03252502223D

 35 37  0  0  1  0  0  0  0  0999 V2000
   37.6130   31.0130   40.2000 N   0  0  0  0  0  0  0  0  0  0  0  0
   37.5640   32.4690   40.2680 C   0  0  0  0  0  0  0  0  0  0  0  0
   39.0040   32.9220   39.9480 C   0  0  0  0  0  0  0  0  0  0  0  0
   39.9300   32.4810   41.0320 C   0  0  0  0  0  0  0  0  0  0  0  0
   39.6660   31.1130   41.5470 C   0  0  0  0  0  0  0  0  0  0  0  0
   38.7090   30.2880   40.7640 C   0  0  1  0  0  0  0  0  0  0  0  0
   37.3740   32.8150   41.3190 H   0  0  0  0  0  0  0  0  0  0  0  0
   36.8490   32.9140   39.5800 H   0  0  0  0  0  0  0  0  0  0  0  0
   39.2630   32.3550   39.0310 H   0  0  0  0  0  0  0  0  0  0  0  0
   39.0610   34.0190   39.8390 H   0  0  0  0  0  0  0  0  0  0  0  0
   39.8300   33.1980   41.8760 H   0  0  0  0  0  0  0  0  0  0  0  0
   40.9760   32.6040   40.6730 H   0  0  0  0  0  0  0  0  0  0  0  0
   39.3690   31.1090   42.6340 H   0  0  0  0  0  0  0  0  0  0  0  0
   40.6440   30.5480   41.5480 H   0  0  0  0  0  0  0  0  0  0  0  0
   39.2570   29.8370   39.8860 H   0  0  0  0  0  0  0  0  0  0  0  0
   39.0610   27.5790   39.5420 Cl  0  0  0  0  0  0  0  0  0  0  0  0
   38.4350   27.8270   41.1510 C   0  0  0  0  0  0  0  0  0  0  0  0
   38.3180   29.1320   41.6050 C   0  0  0  0  0  0  0  0  0  0  0  0
   37.8190   29.2820   42.8820 C   0  0  0  0  0  0  0  0  0  0  0  0
   37.6950   30.2560   43.3160 H   0  0  0  0  0  0  0  0  0  0  0  0
   37.4500   28.2030   43.6790 C   0  0  0  0  0  0  0  0  0  0  0  0
   37.0560   28.3290   44.6900 H   0  0  0  0  0  0  0  0  0  0  0  0
   37.5950   26.9160   43.1530 C   0  0  0  0  0  0  0  0  0  0  0  0
   37.3160   26.0560   43.7470 H   0  0  0  0  0  0  0  0  0  0  0  0
   38.0870   26.7140   41.8860 C   0  0  0  0  0  0  0  0  0  0  0  0
   38.2640   25.0920   41.2400 Cl  0  0  0  0  0  0  0  0  0  0  0  0
   35.5570   29.1920   37.6670 C   0  0  0  0  0  0  0  0  0  0  0  0
   36.6090   29.9180   38.2180 C   0  0  0  0  0  0  0  0  0  0  0  0
   36.5780   30.2740   39.5730 C   0  0  0  0  0  0  0  0  0  0  0  0
   35.4920   29.8770   40.2860 N   0  0  0  0  0  0  0  0  0  0  0  0
   34.4750   29.1690   39.7340 C   0  0  0  0  0  0  0  0  0  0  0  0
   34.5090   28.8290   38.4290 N   0  0  0  0  0  0  0  0  0  0  0  0
   35.5690   28.9110   36.6220 H   0  0  0  0  0  0  0  0  0  0  0  0
   37.4550   30.2170   37.6220 H   0  0  0  0  0  0  0  0  0  0  0  0
   33.6070   28.8450   40.2790 H   0  0  0  0  0  0  0  0  0  0  0  0
  1  2  1  0  0  0  0
  1  6  1  0  0  0  0
  2  7  1  0  0  0  0
  3  2  1  0  0  0  0
  3  4  1  0  0  0  0
  4  5  1  0  0  0  0
  4 11  1  0  0  0  0
  5 14  1  0  0  0  0
  5 13  1  0  0  0  0
  6 15  1  6  0  0  0
  6  5  1  0  0  0  0
  6 18  1  0  0  0  0
  8  2  1  0  0  0  0
  9  3  1  0  0  0  0
 10  3  1  0  0  0  0
 12  4  1  0  0  0  0
 16 17  1  0  0  0  0
 17 18  2  0  0  0  0
 17 25  1  0  0  0  0
 18 19  1  0  0  0  0
 19 20  1  0  0  0  0
 19 21  2  0  0  0  0
 21 22  1  0  0  0  0
 23 21  1  0  0  0  0
 23 24  1  0  0  0  0
 25 23  2  0  0  0  0
 26 25  1  0  0  0  0
 27 28  2  0  0  0  0
 27 32  1  0  0  0  0
 28 29  1  0  0  0  0
 29  1  1  0  0  0  0
 29 30  2  0  0  0  0
 31 35  1  0  0  0  0
 31 30  1  0  0  0  0
 32 31  2  0  0  0  0
 33 27  1  0  0  0  0
 34 28  1  0  0  0  0
M  END
>  <minimizedAffinity>
-5.09859943

$$$$

 OpenBabel03252502223D

 35 37  0  0  1  0  0  0  0  0999 V2000
   37.6930   28.2340   40.7210 N   0  0  0  0  0  0  0  0  0  0  0  0
   38.1720   27.0030   41.3380 C   0  0  0  0  0  0  0  0  0  0  0  0
   37.1970   26.7480   42.5070 C   0  0  0  0  0  0  0  0  0  0  0  0
   37.3430   27.8190   43.5360 C   0  0  0  0  0  0  0  0  0  0  0  0
   37.5150   29.1850   42.9800 C   0  0  0  0  0  0  0  0  0  0  0  0
   37.2680   29.3400   41.5220 C   0  0  1  0  0  0  0  0  0  0  0  0
   39.1740   27.1590   41.8210 H   0  0  0  0  0  0  0  0  0  0  0  0
   38.2010   26.1560   40.6570 H   0  0  0  0  0  0  0  0  0  0  0  0
   36.1950   26.8580   42.0450 H   0  0  0  0  0  0  0  0  0  0  0  0
   37.3810   25.7640   42.9710 H   0  0  0  0  0  0  0  0  0  0  0  0
   38.2370   27.5770   44.1520 H   0  0  0  0  0  0  0  0  0  0  0  0
   36.4830   27.7520   44.2380 H   0  0  0  0  0  0  0  0  0  0  0  0
   38.5120   29.6390   43.2450 H   0  0  0  0  0  0  0  0  0  0  0  0
   36.7780   29.8660   43.5000 H   0  0  0  0  0  0  0  0  0  0  0  0
   36.1540   29.4250   41.3540 H   0  0  0  0  0  0  0  0  0  0  0  0
   40.1850   29.7720   42.0280 Cl  0  0  0  0  0  0  0  0  0  0  0  0
   39.1560   30.9700   41.2900 C   0  0  0  0  0  0  0  0  0  0  0  0
   37.8190   30.6520   41.1090 C   0  0  0  0  0  0  0  0  0  0  0  0
   37.0410   31.6280   40.5220 C   0  0  0  0  0  0  0  0  0  0  0  0
   35.9960   31.4680   40.3420 H   0  0  0  0  0  0  0  0  0  0  0  0
   37.5500   32.8620   40.1300 C   0  0  0  0  0  0  0  0  0  0  0  0
   36.9290   33.6310   39.6650 H   0  0  0  0  0  0  0  0  0  0  0  0
   38.9080   33.1130   40.3460 C   0  0  0  0  0  0  0  0  0  0  0  0
   39.3340   34.0640   40.0520 H   0  0  0  0  0  0  0  0  0  0  0  0
   39.7240   32.1730   40.9260 C   0  0  0  0  0  0  0  0  0  0  0  0
   41.4280   32.5030   41.1890 Cl  0  0  0  0  0  0  0  0  0  0  0  0
   38.6440   28.5740   37.1240 C   0  0  0  0  0  0  0  0  0  0  0  0
   38.7760   28.4380   38.5030 C   0  0  0  0  0  0  0  0  0  0  0  0
   37.6330   28.3720   39.3110 C   0  0  0  0  0  0  0  0  0  0  0  0
   36.4320   28.4480   38.6810 N   0  0  0  0  0  0  0  0  0  0  0  0
   36.3210   28.5810   37.3360 C   0  0  0  0  0  0  0  0  0  0  0  0
   37.4240   28.6440   36.5610 N   0  0  0  0  0  0  0  0  0  0  0  0
   39.5180   28.6260   36.4890 H   0  0  0  0  0  0  0  0  0  0  0  0
   39.7460   28.3810   38.9700 H   0  0  0  0  0  0  0  0  0  0  0  0
   35.3820   28.6420   36.8170 H   0  0  0  0  0  0  0  0  0  0  0  0
  1  2  1  0  0  0  0
  1  6  1  0  0  0  0
  2  7  1  0  0  0  0
  2  3  1  0  0  0  0
  3 10  1  0  0  0  0
  3  4  1  0  0  0  0
  4 11  1  0  0  0  0
  4 12  1  0  0  0  0
  5 13  1  0  0  0  0
  5 14  1  0  0  0  0
  5  4  1  0  0  0  0
  6 15  1  6  0  0  0
  6  5  1  0  0  0  0
  8  2  1  0  0  0  0
  9  3  1  0  0  0  0
 17 16  1  0  0  0  0
 18 17  1  0  0  0  0
 18  6  1  0  0  0  0
 19 18  2  0  0  0  0
 20 19  1  0  0  0  0
 21 23  2  0  0  0  0
 21 19  1  0  0  0  0
 22 21  1  0  0  0  0
 23 25  1  0  0  0  0
 24 23  1  0  0  0  0
 25 26  1  0  0  0  0
 25 17  2  0  0  0  0
 27 28  1  0  0  0  0
 28 34  1  0  0  0  0
 28 29  2  0  0  0  0
 29  1  1  0  0  0  0
 30 29  1  0  0  0  0
 31 30  2  0  0  0  0
 32 27  2  0  0  0  0
 32 31  1  0  0  0  0
 33 27  1  0  0  0  0
 35 31  1  0  0  0  0
M  END
>  <minimizedAffinity>
-4.98016119

$$$$

 OpenBabel03252502223D

 35 37  0  0  1  0  0  0  0  0999 V2000
   40.0880   30.4070   41.4860 N   0  0  0  0  0  0  0  0  0  0  0  0
   40.9550   31.4520   42.0180 C   0  0  0  0  0  0  0  0  0  0  0  0
   42.3740   30.8460   41.9640 C   0  0  0  0  0  0  0  0  0  0  0  0
   42.4730   29.6940   42.9070 C   0  0  0  0  0  0  0  0  0  0  0  0
   41.2770   28.8150   42.9310 C   0  0  0  0  0  0  0  0  0  0  0  0
   40.2720   29.0380   41.8590 C   0  0  1  0  0  0  0  0  0  0  0  0
   40.7520   31.6240   43.1090 H   0  0  0  0  0  0  0  0  0  0  0  0
   40.9040   32.3860   41.4640 H   0  0  0  0  0  0  0  0  0  0  0  0
   42.4510   30.4450   40.9320 H   0  0  0  0  0  0  0  0  0  0  0  0
   43.1380   31.5990   42.2200 H   0  0  0  0  0  0  0  0  0  0  0  0
   42.6250   30.1060   43.9290 H   0  0  0  0  0  0  0  0  0  0  0  0
   43.4070   29.1330   42.6810 H   0  0  0  0  0  0  0  0  0  0  0  0
   40.7650   28.8070   43.9350 H   0  0  0  0  0  0  0  0  0  0  0  0
   41.6290   27.7480   42.8170 H   0  0  0  0  0  0  0  0  0  0  0  0
   40.6230   28.5140   40.9220 H   0  0  0  0  0  0  0  0  0  0  0  0
   39.5450   26.6340   40.2330 Cl  0  0  0  0  0  0  0  0  0  0  0  0
   38.5890   27.2050   41.5740 C   0  0  0  0  0  0  0  0  0  0  0  0
   39.0300   28.3320   42.2510 C   0  0  0  0  0  0  0  0  0  0  0  0
   38.2440   28.7490   43.3040 C   0  0  0  0  0  0  0  0  0  0  0  0
   38.5090   29.6110   43.8850 H   0  0  0  0  0  0  0  0  0  0  0  0
   37.0760   28.0910   43.6800 C   0  0  0  0  0  0  0  0  0  0  0  0
   36.4580   28.4270   44.5150 H   0  0  0  0  0  0  0  0  0  0  0  0
   36.6930   26.9620   42.9500 C   0  0  0  0  0  0  0  0  0  0  0  0
   35.7890   26.4290   43.2160 H   0  0  0  0  0  0  0  0  0  0  0  0
   37.4420   26.5070   41.8930 C   0  0  0  0  0  0  0  0  0  0  0  0
   36.9480   25.0870   40.9870 Cl  0  0  0  0  0  0  0  0  0  0  0  0
   37.9440   30.5860   38.4310 C   0  0  0  0  0  0  0  0  0  0  0  0
   39.0050   30.2420   39.2640 C   0  0  0  0  0  0  0  0  0  0  0  0
   39.0390   30.7150   40.5830 C   0  0  0  0  0  0  0  0  0  0  0  0
   38.0060   31.5020   40.9780 N   0  0  0  0  0  0  0  0  0  0  0  0
   36.9790   31.8280   40.1540 C   0  0  0  0  0  0  0  0  0  0  0  0
   36.9500   31.3710   38.8850 N   0  0  0  0  0  0  0  0  0  0  0  0
   37.9060   30.2270   37.4110 H   0  0  0  0  0  0  0  0  0  0  0  0
   39.8100   29.6160   38.9170 H   0  0  0  0  0  0  0  0  0  0  0  0
   36.1510   32.4490   40.4460 H   0  0  0  0  0  0  0  0  0  0  0  0
  1  6  1  0  0  0  0
  1  2  1  0  0  0  0
  2  7  1  0  0  0  0
  3  2  1  0  0  0  0
  3 10  1  0  0  0  0
  3  4  1  0  0  0  0
  4  5  1  0  0  0  0
  4 11  1  0  0  0  0
  5 13  1  0  0  0  0
  6 15  1  6  0  0  0
  6 18  1  0  0  0  0
  6  5  1  0  0  0  0
  8  2  1  0  0  0  0
  9  3  1  0  0  0  0
 12  4  1  0  0  0  0
 14  5  1  0  0  0  0
 16 17  1  0  0  0  0
 17 25  2  0  0  0  0
 17 18  1  0  0  0  0
 18 19  2  0  0  0  0
 19 21  1  0  0  0  0
 19 20  1  0  0  0  0
 21 22  1  0  0  0  0
 23 24  1  0  0  0  0
 23 21  2  0  0  0  0
 25 23  1  0  0  0  0
 26 25  1  0  0  0  0
 27 32  2  0  0  0  0
 27 28  1  0  0  0  0
 28 29  2  0  0  0  0
 29 30  1  0  0  0  0
 29  1  1  0  0  0  0
 31 35  1  0  0  0  0
 31 30  2  0  0  0  0
 32 31  1  0  0  0  0
 33 27  1  0  0  0  0
 34 28  1  0  0  0  0
M  END
>  <minimizedAffinity>
-4.96560669

$$$$

 OpenBabel03252502223D

 35 37  0  0  1  0  0  0  0  0999 V2000
   36.2860   28.8650   39.9920 N   0  0  0  0  0  0  0  0  0  0  0  0
   34.8700   29.2120   39.9370 C   0  0  0  0  0  0  0  0  0  0  0  0
   34.3740   28.6120   38.6040 C   0  0  0  0  0  0  0  0  0  0  0  0
   35.0240   29.3100   37.4560 C   0  0  0  0  0  0  0  0  0  0  0  0
   36.4640   29.6140   37.6580 C   0  0  0  0  0  0  0  0  0  0  0  0
   37.1150   28.9740   38.8320 C   0  0  1  0  0  0  0  0  0  0  0  0
   34.7340   30.3210   39.8270 H   0  0  0  0  0  0  0  0  0  0  0  0
   34.2950   28.8330   40.7780 H   0  0  0  0  0  0  0  0  0  0  0  0
   34.7540   27.5700   38.6240 H   0  0  0  0  0  0  0  0  0  0  0  0
   33.2780   28.6970   38.5130 H   0  0  0  0  0  0  0  0  0  0  0  0
   34.4840   30.2690   37.2930 H   0  0  0  0  0  0  0  0  0  0  0  0
   34.8420   28.7160   36.5340 H   0  0  0  0  0  0  0  0  0  0  0  0
   36.6770   30.7200   37.6640 H   0  0  0  0  0  0  0  0  0  0  0  0
   37.0250   29.2510   36.7480 H   0  0  0  0  0  0  0  0  0  0  0  0
   37.3900   27.9140   38.5560 H   0  0  0  0  0  0  0  0  0  0  0  0
   36.9820   31.9110   39.3890 Cl  0  0  0  0  0  0  0  0  0  0  0  0
   38.4780   31.0170   39.3260 C   0  0  0  0  0  0  0  0  0  0  0  0
   38.4090   29.6580   39.0580 C   0  0  0  0  0  0  0  0  0  0  0  0
   39.6150   28.9910   39.0180 C   0  0  0  0  0  0  0  0  0  0  0  0
   39.6570   27.9370   38.8180 H   0  0  0  0  0  0  0  0  0  0  0  0
   40.8350   29.6250   39.2300 C   0  0  0  0  0  0  0  0  0  0  0  0
   41.7870   29.0910   39.1960 H   0  0  0  0  0  0  0  0  0  0  0  0
   40.8260   30.9980   39.4930 C   0  0  0  0  0  0  0  0  0  0  0  0
   41.7590   31.5210   39.6620 H   0  0  0  0  0  0  0  0  0  0  0  0
   39.6510   31.7070   39.5440 C   0  0  0  0  0  0  0  0  0  0  0  0
   39.6570   33.4310   39.8780 Cl  0  0  0  0  0  0  0  0  0  0  0  0
   37.8070   26.6890   42.6210 C   0  0  0  0  0  0  0  0  0  0  0  0
   37.2260   27.0680   41.4140 C   0  0  0  0  0  0  0  0  0  0  0  0
   36.8810   28.4080   41.1950 C   0  0  0  0  0  0  0  0  0  0  0  0
   37.1420   29.2810   42.2030 N   0  0  0  0  0  0  0  0  0  0  0  0
   37.7090   28.8960   43.3730 C   0  0  0  0  0  0  0  0  0  0  0  0
   38.0400   27.6040   43.5800 N   0  0  0  0  0  0  0  0  0  0  0  0
   38.0790   25.6580   42.8020 H   0  0  0  0  0  0  0  0  0  0  0  0
   37.0320   26.3480   40.6360 H   0  0  0  0  0  0  0  0  0  0  0  0
   37.9250   29.5680   44.1830 H   0  0  0  0  0  0  0  0  0  0  0  0
  1 29  1  0  0  0  0
  2  1  1  0  0  0  0
  2  8  1  0  0  0  0
  3  9  1  0  0  0  0
  3  2  1  0  0  0  0
  4  5  1  0  0  0  0
  4  3  1  0  0  0  0
  5 13  1  0  0  0  0
  5  6  1  0  0  0  0
  6 15  1  6  0  0  0
  6 18  1  0  0  0  0
  6  1  1  0  0  0  0
  7  2  1  0  0  0  0
 10  3  1  0  0  0  0
 11  4  1  0  0  0  0
 12  4  1  0  0  0  0
 14  5  1  0  0  0  0
 17 16  1  0  0  0  0
 17 25  1  0  0  0  0
 18 17  2  0  0  0  0
 19 18  1  0  0  0  0
 19 21  2  0  0  0  0
 20 19  1  0  0  0  0
 21 23  1  0  0  0  0
 22 21  1  0  0  0  0
 23 25  2  0  0  0  0
 23 24  1  0  0  0  0
 25 26  1  0  0  0  0
 27 33  1  0  0  0  0
 27 32  1  0  0  0  0
 28 27  2  0  0  0  0
 29 28  1  0  0  0  0
 29 30  2  0  0  0  0
 30 31  1  0  0  0  0
 31 32  2  0  0  0  0
 31 35  1  0  0  0  0
 34 28  1  0  0  0  0
M  END
>  <minimizedAffinity>
-4.95390463

$$$$

 OpenBabel03252502223D

 35 37  0  0  1  0  0  0  0  0999 V2000
   38.0630   27.8970   40.9870 N   0  0  0  0  0  0  0  0  0  0  0  0
   38.2910   26.6120   41.6360 C   0  0  0  0  0  0  0  0  0  0  0  0
   37.1000   26.4490   42.6050 C   0  0  0  0  0  0  0  0  0  0  0  0
   37.1710   27.4820   43.6800 C   0  0  0  0  0  0  0  0  0  0  0  0
   37.5830   28.8290   43.2100 C   0  0  0  0  0  0  0  0  0  0  0  0
   37.6200   29.0320   41.7380 C   0  0  1  0  0  0  0  0  0  0  0  0
   39.2000   26.6500   42.2940 H   0  0  0  0  0  0  0  0  0  0  0  0
   38.3510   25.7770   40.9420 H   0  0  0  0  0  0  0  0  0  0  0  0
   36.2140   26.6750   41.9770 H   0  0  0  0  0  0  0  0  0  0  0  0
   37.0920   25.4430   43.0610 H   0  0  0  0  0  0  0  0  0  0  0  0
   37.9090   27.1340   44.4350 H   0  0  0  0  0  0  0  0  0  0  0  0
   36.1960   27.5000   44.2160 H   0  0  0  0  0  0  0  0  0  0  0  0
   38.5580   29.1660   43.6630 H   0  0  0  0  0  0  0  0  0  0  0  0
   36.8410   29.5780   43.6140 H   0  0  0  0  0  0  0  0  0  0  0  0
   36.5700   29.2410   41.3780 H   0  0  0  0  0  0  0  0  0  0  0  0
   36.1300   31.2000   40.3130 Cl  0  0  0  0  0  0  0  0  0  0  0  0
   37.7900   31.3570   40.8210 C   0  0  0  0  0  0  0  0  0  0  0  0
   38.3720   30.2800   41.4730 C   0  0  0  0  0  0  0  0  0  0  0  0
   39.6860   30.4470   41.8580 C   0  0  0  0  0  0  0  0  0  0  0  0
   40.2150   29.6660   42.3690 H   0  0  0  0  0  0  0  0  0  0  0  0
   40.4000   31.6160   41.6140 C   0  0  0  0  0  0  0  0  0  0  0  0
   41.4400   31.7420   41.9210 H   0  0  0  0  0  0  0  0  0  0  0  0
   39.7480   32.6590   40.9490 C   0  0  0  0  0  0  0  0  0  0  0  0
   40.2760   33.5820   40.7440 H   0  0  0  0  0  0  0  0  0  0  0  0
   38.4400   32.5420   40.5470 C   0  0  0  0  0  0  0  0  0  0  0  0
   37.6350   33.8620   39.7150 Cl  0  0  0  0  0  0  0  0  0  0  0  0
   39.6770   28.2020   37.6320 C   0  0  0  0  0  0  0  0  0  0  0  0
   39.5440   28.0330   39.0070 C   0  0  0  0  0  0  0  0  0  0  0  0
   38.2720   28.0620   39.5950 C   0  0  0  0  0  0  0  0  0  0  0  0
   37.2170   28.2580   38.7620 N   0  0  0  0  0  0  0  0  0  0  0  0
   37.3640   28.4220   37.4240 C   0  0  0  0  0  0  0  0  0  0  0  0
   38.5900   28.3940   36.8620 N   0  0  0  0  0  0  0  0  0  0  0  0
   40.6530   28.1820   37.1650 H   0  0  0  0  0  0  0  0  0  0  0  0
   40.4040   27.8800   39.6380 H   0  0  0  0  0  0  0  0  0  0  0  0
   36.5430   28.5780   36.7470 H   0  0  0  0  0  0  0  0  0  0  0  0
  1  2  1  0  0  0  0
  1  6  1  0  0  0  0
  2  7  1  0  0  0  0
  2  3  1  0  0  0  0
  3 10  1  0  0  0  0
  3  4  1  0  0  0  0
  4 12  1  0  0  0  0
  4 11  1  0  0  0  0
  5 14  1  0  0  0  0
  5 13  1  0  0  0  0
  5  4  1  0  0  0  0
  6 15  1  6  0  0  0
  6  5  1  0  0  0  0
  8  2  1  0  0  0  0
  9  3  1  0  0  0  0
 16 17  1  0  0  0  0
 17 18  1  0  0  0  0
 18  6  1  0  0  0  0
 18 19  2  0  0  0  0
 19 20  1  0  0  0  0
 21 19  1  0  0  0  0
 21 22  1  0  0  0  0
 23 21  2  0  0  0  0
 24 23  1  0  0  0  0
 25 17  2  0  0  0  0
 25 23  1  0  0  0  0
 26 25  1  0  0  0  0
 27 28  1  0  0  0  0
 28 29  2  0  0  0  0
 28 34  1  0  0  0  0
 29  1  1  0  0  0  0
 30 29  1  0  0  0  0
 31 30  2  0  0  0  0
 32 31  1  0  0  0  0
 32 27  2  0  0  0  0
 33 27  1  0  0  0  0
 35 31  1  0  0  0  0
M  END
>  <minimizedAffinity>
-4.94275284

$$$$

 OpenBabel03252502223D

 35 37  0  0  1  0  0  0  0  0999 V2000
   37.4380   29.9370   39.2440 N   0  0  0  0  0  0  0  0  0  0  0  0
   37.3490   29.7400   37.8020 C   0  0  0  0  0  0  0  0  0  0  0  0
   35.8360   29.6190   37.5190 C   0  0  0  0  0  0  0  0  0  0  0  0
   35.2970   28.3780   38.1490 C   0  0  0  0  0  0  0  0  0  0  0  0
   35.8370   28.0910   39.5020 C   0  0  0  0  0  0  0  0  0  0  0  0
   36.6240   29.1780   40.1420 C   0  0  1  0  0  0  0  0  0  0  0  0
   37.7820   28.7480   37.5050 H   0  0  0  0  0  0  0  0  0  0  0  0
   37.7950   30.5450   37.2230 H   0  0  0  0  0  0  0  0  0  0  0  0
   35.3960   30.4870   38.0520 H   0  0  0  0  0  0  0  0  0  0  0  0
   35.6340   29.6000   36.4340 H   0  0  0  0  0  0  0  0  0  0  0  0
   35.5490   27.5240   37.4830 H   0  0  0  0  0  0  0  0  0  0  0  0
   34.1850   28.4330   38.1390 H   0  0  0  0  0  0  0  0  0  0  0  0
   36.4210   27.1280   39.5400 H   0  0  0  0  0  0  0  0  0  0  0  0
   34.9630   27.8870   40.1870 H   0  0  0  0  0  0  0  0  0  0  0  0
   35.9060   29.9200   40.5990 H   0  0  0  0  0  0  0  0  0  0  0  0
   38.5680   26.9940   39.5040 Cl  0  0  0  0  0  0  0  0  0  0  0  0
   38.2790   27.5730   41.1230 C   0  0  0  0  0  0  0  0  0  0  0  0
   37.3520   28.5900   41.2910 C   0  0  0  0  0  0  0  0  0  0  0  0
   37.1540   29.0170   42.5870 C   0  0  0  0  0  0  0  0  0  0  0  0
   36.4560   29.8010   42.8100 H   0  0  0  0  0  0  0  0  0  0  0  0
   37.8330   28.4720   43.6720 C   0  0  0  0  0  0  0  0  0  0  0  0
   37.6720   28.8140   44.6970 H   0  0  0  0  0  0  0  0  0  0  0  0
   38.7520   27.4470   43.4260 C   0  0  0  0  0  0  0  0  0  0  0  0
   39.2960   27.0020   44.2500 H   0  0  0  0  0  0  0  0  0  0  0  0
   38.9850   26.9880   42.1530 C   0  0  0  0  0  0  0  0  0  0  0  0
   40.1430   25.7010   41.8610 Cl  0  0  0  0  0  0  0  0  0  0  0  0
   38.8390   32.9630   40.9310 C   0  0  0  0  0  0  0  0  0  0  0  0
   37.9040   32.0740   40.4070 C   0  0  0  0  0  0  0  0  0  0  0  0
   38.3330   30.8870   39.7990 C   0  0  0  0  0  0  0  0  0  0  0  0
   39.6730   30.6700   39.7560 N   0  0  0  0  0  0  0  0  0  0  0  0
   40.5720   31.5470   40.2710 C   0  0  0  0  0  0  0  0  0  0  0  0
   40.1540   32.6890   40.8560 N   0  0  0  0  0  0  0  0  0  0  0  0
   38.5210   33.8820   41.4030 H   0  0  0  0  0  0  0  0  0  0  0  0
   36.8470   32.2780   40.4580 H   0  0  0  0  0  0  0  0  0  0  0  0
   41.6350   31.3960   40.2480 H   0  0  0  0  0  0  0  0  0  0  0  0
  1 29  1  0  0  0  0
  1  6  1  0  0  0  0
  2  1  1  0  0  0  0
  3  2  1  0  0  0  0
  3  9  1  0  0  0  0
  3  4  1  0  0  0  0
  4  5  1  0  0  0  0
  5 13  1  0  0  0  0
  5  6  1  0  0  0  0
  5 14  1  0  0  0  0
  6 15  1  1  0  0  0
  6 18  1  0  0  0  0
  7  2  1  0  0  0  0
  8  2  1  0  0  0  0
 10  3  1  0  0  0  0
 11  4  1  0  0  0  0
 12  4  1  0  0  0  0
 16 17  1  0  0  0  0
 17 18  2  0  0  0  0
 17 25  1  0  0  0  0
 18 19  1  0  0  0  0
 19 20  1  0  0  0  0
 19 21  2  0  0  0  0
 21 22  1  0  0  0  0
 23 21  1  0  0  0  0
 23 24  1  0  0  0  0
 25 23  2  0  0  0  0
 26 25  1  0  0  0  0
 27 33  1  0  0  0  0
 28 34  1  0  0  0  0
 28 27  2  0  0  0  0
 29 28  1  0  0  0  0
 30 29  2  0  0  0  0
 30 31  1  0  0  0  0
 31 32  2  0  0  0  0
 32 27  1  0  0  0  0
 35 31  1  0  0  0  0
M  END
>  <minimizedAffinity>
-4.90664291

$$$$

 OpenBabel03252502223D

 35 37  0  0  1  0  0  0  0  0999 V2000
   37.5880   29.1250   38.7330 N   0  0  0  0  0  0  0  0  0  0  0  0
   37.2480   28.7590   37.3630 C   0  0  0  0  0  0  0  0  0  0  0  0
   35.9830   29.5850   37.0430 C   0  0  0  0  0  0  0  0  0  0  0  0
   34.8470   29.1300   37.8950 C   0  0  0  0  0  0  0  0  0  0  0  0
   35.2160   28.8290   39.3020 C   0  0  0  0  0  0  0  0  0  0  0  0
   36.5740   29.2550   39.7330 C   0  0  1  0  0  0  0  0  0  0  0  0
   36.9190   27.6870   37.3040 H   0  0  0  0  0  0  0  0  0  0  0  0
   38.0410   28.9600   36.6470 H   0  0  0  0  0  0  0  0  0  0  0  0
   36.2520   30.6140   37.3590 H   0  0  0  0  0  0  0  0  0  0  0  0
   35.7060   29.4920   35.9780 H   0  0  0  0  0  0  0  0  0  0  0  0
   34.4300   28.2060   37.4380 H   0  0  0  0  0  0  0  0  0  0  0  0
   34.0290   29.8810   37.8230 H   0  0  0  0  0  0  0  0  0  0  0  0
   35.0560   27.7470   39.5700 H   0  0  0  0  0  0  0  0  0  0  0  0
   34.4870   29.3700   39.9740 H   0  0  0  0  0  0  0  0  0  0  0  0
   36.5410   30.3540   39.9890 H   0  0  0  0  0  0  0  0  0  0  0  0
   36.4860   26.2640   39.6920 Cl  0  0  0  0  0  0  0  0  0  0  0  0
   36.8670   27.1890   41.1200 C   0  0  0  0  0  0  0  0  0  0  0  0
   36.8750   28.5720   41.0120 C   0  0  0  0  0  0  0  0  0  0  0  0
   37.1810   29.2640   42.1650 C   0  0  0  0  0  0  0  0  0  0  0  0
   37.2110   30.3370   42.1740 H   0  0  0  0  0  0  0  0  0  0  0  0
   37.4660   28.6310   43.3710 C   0  0  0  0  0  0  0  0  0  0  0  0
   37.7070   29.1860   44.2810 H   0  0  0  0  0  0  0  0  0  0  0  0
   37.4370   27.2340   43.4050 C   0  0  0  0  0  0  0  0  0  0  0  0
   37.6530   26.7120   44.3280 H   0  0  0  0  0  0  0  0  0  0  0  0
   37.1380   26.5000   42.2830 C   0  0  0  0  0  0  0  0  0  0  0  0
   37.1080   24.7450   42.3410 Cl  0  0  0  0  0  0  0  0  0  0  0  0
   41.2060   28.6570   39.5400 C   0  0  0  0  0  0  0  0  0  0  0  0
   39.9040   28.3530   39.1550 C   0  0  0  0  0  0  0  0  0  0  0  0
   38.9330   29.3630   39.1140 C   0  0  0  0  0  0  0  0  0  0  0  0
   39.3340   30.6120   39.4630 N   0  0  0  0  0  0  0  0  0  0  0  0
   40.6080   30.8930   39.8360 C   0  0  0  0  0  0  0  0  0  0  0  0
   41.5400   29.9180   39.8740 N   0  0  0  0  0  0  0  0  0  0  0  0
   41.9650   27.8870   39.5750 H   0  0  0  0  0  0  0  0  0  0  0  0
   39.6200   27.3490   38.8850 H   0  0  0  0  0  0  0  0  0  0  0  0
   40.9470   31.8740   40.1160 H   0  0  0  0  0  0  0  0  0  0  0  0
  1 29  1  0  0  0  0
  1  6  1  0  0  0  0
  2  1  1  0  0  0  0
  3  9  1  0  0  0  0
  3  2  1  0  0  0  0
  3  4  1  0  0  0  0
  4  5  1  0  0  0  0
  5 13  1  0  0  0  0
  5  6  1  0  0  0  0
  5 14  1  0  0  0  0
  6 15  1  1  0  0  0
  6 18  1  0  0  0  0
  7  2  1  0  0  0  0
  8  2  1  0  0  0  0
 10  3  1  0  0  0  0
 11  4  1  0  0  0  0
 12  4  1  0  0  0  0
 16 17  1  0  0  0  0
 17 25  1  0  0  0  0
 18 17  2  0  0  0  0
 18 19  1  0  0  0  0
 19 20  1  0  0  0  0
 19 21  2  0  0  0  0
 21 23  1  0  0  0  0
 21 22  1  0  0  0  0
 23 24  1  0  0  0  0
 25 26  1  0  0  0  0
 25 23  2  0  0  0  0
 27 33  1  0  0  0  0
 27 32  1  0  0  0  0
 28 27  2  0  0  0  0
 29 28  1  0  0  0  0
 29 30  2  0  0  0  0
 30 31  1  0  0  0  0
 31 32  2  0  0  0  0
 31 35  1  0  0  0  0
 34 28  1  0  0  0  0
M  END
>  <minimizedAffinity>
-4.89788246

$$$$
