
 OpenBabel03252508033D

 44 47  0  0  1  0  0  0  0  0999 V2000
   42.0880   33.2590   41.1610 C   0  0  0  0  0  0  0  0  0  0  0  0
   42.8220   34.3990   41.3290 C   0  0  0  0  0  0  0  0  0  0  0  0
   42.1480   35.6360   41.2630 C   0  0  0  0  0  0  0  0  0  0  0  0
   40.7950   35.7470   41.0400 C   0  0  0  0  0  0  0  0  0  0  0  0
   40.0670   34.6000   40.8750 C   0  0  0  0  0  0  0  0  0  0  0  0
   40.7130   33.4020   40.9360 C   0  0  0  0  0  0  0  0  0  0  0  0
   42.6450   36.5900   41.3750 H   0  0  0  0  0  0  0  0  0  0  0  0
   40.2910   36.6750   40.9920 H   0  0  0  0  0  0  0  0  0  0  0  0
   39.0200   34.6100   40.7000 H   0  0  0  0  0  0  0  0  0  0  0  0
   40.1170   32.4850   40.8000 H   0  0  0  0  0  0  0  0  0  0  0  0
   42.7450   31.7200   41.3260 S   0  0  0  0  0  0  0  0  0  0  0  0
   42.0000   30.9770   40.1680 O   0  0  0  0  0  0  0  0  0  0  0  0
   42.3610   31.0550   42.5960 O   0  0  0  0  0  0  0  0  0  0  0  0
   44.4110   30.1830   43.3700 Cl  0  0  0  0  0  0  0  0  0  0  0  0
   44.9190   30.3190   41.6700 C   0  0  0  0  0  0  0  0  0  0  0  0
   44.1690   31.0600   40.7140 C   0  0  0  0  0  0  0  0  0  0  0  0
   44.7870   31.0010   39.4730 C   0  0  0  0  0  0  0  0  0  0  0  0
   44.1600   31.5360   38.7350 H   0  0  0  0  0  0  0  0  0  0  0  0
   45.9350   30.3860   39.0360 C   0  0  0  0  0  0  0  0  0  0  0  0
   46.2250   30.4800   38.0120 H   0  0  0  0  0  0  0  0  0  0  0  0
   46.5090   29.7330   40.0850 C   0  0  0  0  0  0  0  0  0  0  0  0
   47.4330   29.2130   39.8440 H   0  0  0  0  0  0  0  0  0  0  0  0
   46.0830   29.6520   41.3820 C   0  0  0  0  0  0  0  0  0  0  0  0
   46.9890   28.7320   42.5640 Cl  0  0  0  0  0  0  0  0  0  0  0  0
   44.2540   34.3890   41.5700 C   0  0  0  0  0  0  0  0  0  0  0  0
   45.1330   34.3190   40.6620 O   0  0  0  0  0  0  0  0  0  0  0  0
   44.5920   34.4680   42.9720 C   0  0  0  0  0  0  0  0  0  0  0  0
   44.3010   35.7250   43.6100 C   0  0  0  0  0  0  0  0  0  0  0  0
   44.6150   35.8260   44.9520 C   0  0  0  0  0  0  0  0  0  0  0  0
   45.1700   34.7500   45.5740 N   0  0  0  0  0  0  0  0  0  0  0  0
   45.4250   33.5770   44.9150 C   0  0  0  0  0  0  0  0  0  0  0  0
   45.1380   33.4690   43.6630 N   0  0  0  0  0  0  0  0  0  0  0  0
   43.8760   36.6020   43.2010 H   0  0  0  0  0  0  0  0  0  0  0  0
   44.4400   36.7270   45.5370 H   0  0  0  0  0  0  0  0  0  0  0  0
   46.0270   32.4560   45.6720 C   0  0  1  0  0  0  0  0  0  0  0  0
   46.9760   32.7620   46.8080 C   0  0  0  0  0  0  0  0  0  0  0  0
   45.5620   32.3340   47.0710 C   0  0  1  0  0  0  0  0  0  0  0  0
   46.2050   31.5330   45.1210 H   0  0  0  0  0  0  0  0  0  0  0  0
   47.2780   33.8330   46.8980 H   0  0  0  0  0  0  0  0  0  0  0  0
   47.8160   32.0490   46.9450 H   0  0  0  0  0  0  0  0  0  0  0  0
   45.4450   31.3240   47.5310 H   0  0  0  0  0  0  0  0  0  0  0  0
   44.7610   33.3910   47.6690 N   0  0  0  0  0  0  0  0  0  0  0  0
   43.7860   33.0910   47.7880 H   0  0  0  0  0  0  0  0  0  0  0  0
   45.2240   33.8070   48.4920 H   0  0  0  0  0  0  0  0  0  0  0  0
  1 11  1  0  0  0  0
  1  2  1  0  0  0  0
  2 25  1  0  0  0  0
  3  2  2  0  0  0  0
  3  7  1  0  0  0  0
  4  3  1  0  0  0  0
  5  6  1  0  0  0  0
  5  4  2  0  0  0  0
  6  1  2  0  0  0  0
  8  4  1  0  0  0  0
  9  5  1  0  0  0  0
 10  6  1  0  0  0  0
 11 13  2  0  0  0  0
 12 11  2  0  0  0  0
 15 14  1  0  0  0  0
 16 11  1  0  0  0  0
 16 15  2  0  0  0  0
 17 16  1  0  0  0  0
 18 17  1  0  0  0  0
 19 17  2  0  0  0  0
 19 21  1  0  0  0  0
 20 19  1  0  0  0  0
 21 23  2  0  0  0  0
 22 21  1  0  0  0  0
 23 15  1  0  0  0  0
 23 24  1  0  0  0  0
 25 27  1  0  0  0  0
 26 25  2  0  0  0  0
 27 28  2  0  0  0  0
 27 32  1  0  0  0  0
 28 29  1  0  0  0  0
 29 34  1  0  0  0  0
 29 30  2  0  0  0  0
 31 30  1  0  0  0  0
 31 35  1  0  0  0  0
 32 31  2  0  0  0  0
 33 28  1  0  0  0  0
 35 38  1  6  0  0  0
 35 36  1  0  0  0  0
 35 37  1  0  0  0  0
 36 39  1  0  0  0  0
 36 40  1  0  0  0  0
 36 37  1  0  0  0  0
 37 41  1  1  0  0  0
 37 42  1  0  0  0  0
 42 43  1  0  0  0  0
 42 44  1  0  0  0  0
M  END
>  <minimizedAffinity>
-5.81271124

>  <minimizedRMSD>
0.937683165

$$$$
