
 OpenBabel03252508033D

 44 47  0  0  1  0  0  0  0  0999 V2000
   42.0890   33.2610   41.1600 C   0  0  0  0  0  0  0  0  0  0  0  0
   42.8230   34.4000   41.3280 C   0  0  0  0  0  0  0  0  0  0  0  0
   42.1510   35.6380   41.2630 C   0  0  0  0  0  0  0  0  0  0  0  0
   40.7970   35.7500   41.0390 C   0  0  0  0  0  0  0  0  0  0  0  0
   40.0690   34.6040   40.8730 C   0  0  0  0  0  0  0  0  0  0  0  0
   40.7140   33.4050   40.9340 C   0  0  0  0  0  0  0  0  0  0  0  0
   42.6490   36.5910   41.3740 H   0  0  0  0  0  0  0  0  0  0  0  0
   40.2950   36.6780   40.9900 H   0  0  0  0  0  0  0  0  0  0  0  0
   39.0220   34.6150   40.6980 H   0  0  0  0  0  0  0  0  0  0  0  0
   40.1170   32.4890   40.7980 H   0  0  0  0  0  0  0  0  0  0  0  0
   42.7440   31.7210   41.3240 S   0  0  0  0  0  0  0  0  0  0  0  0
   41.9990   30.9790   40.1660 O   0  0  0  0  0  0  0  0  0  0  0  0
   42.3590   31.0560   42.5940 O   0  0  0  0  0  0  0  0  0  0  0  0
   44.4100   30.1840   43.3690 Cl  0  0  0  0  0  0  0  0  0  0  0  0
   44.9180   30.3190   41.6700 C   0  0  0  0  0  0  0  0  0  0  0  0
   44.1680   31.0610   40.7130 C   0  0  0  0  0  0  0  0  0  0  0  0
   44.7860   30.9990   39.4710 C   0  0  0  0  0  0  0  0  0  0  0  0
   44.1580   31.5340   38.7340 H   0  0  0  0  0  0  0  0  0  0  0  0
   45.9340   30.3840   39.0360 C   0  0  0  0  0  0  0  0  0  0  0  0
   46.2240   30.4780   38.0110 H   0  0  0  0  0  0  0  0  0  0  0  0
   46.5070   29.7320   40.0860 C   0  0  0  0  0  0  0  0  0  0  0  0
   47.4320   29.2110   39.8440 H   0  0  0  0  0  0  0  0  0  0  0  0
   46.0820   29.6520   41.3820 C   0  0  0  0  0  0  0  0  0  0  0  0
   46.9880   28.7330   42.5650 Cl  0  0  0  0  0  0  0  0  0  0  0  0
   44.2550   34.3890   41.5700 C   0  0  0  0  0  0  0  0  0  0  0  0
   45.1350   34.3180   40.6620 O   0  0  0  0  0  0  0  0  0  0  0  0
   44.5930   34.4680   42.9710 C   0  0  0  0  0  0  0  0  0  0  0  0
   44.3010   35.7250   43.6100 C   0  0  0  0  0  0  0  0  0  0  0  0
   44.6140   35.8260   44.9510 C   0  0  0  0  0  0  0  0  0  0  0  0
   45.1700   34.7500   45.5730 N   0  0  0  0  0  0  0  0  0  0  0  0
   45.4260   33.5780   44.9150 C   0  0  0  0  0  0  0  0  0  0  0  0
   45.1390   33.4690   43.6630 N   0  0  0  0  0  0  0  0  0  0  0  0
   43.8760   36.6010   43.2000 H   0  0  0  0  0  0  0  0  0  0  0  0
   44.4380   36.7270   45.5370 H   0  0  0  0  0  0  0  0  0  0  0  0
   46.0290   32.4560   45.6720 C   0  0  1  0  0  0  0  0  0  0  0  0
   46.9760   32.7630   46.8090 C   0  0  0  0  0  0  0  0  0  0  0  0
   45.5630   32.3330   47.0700 C   0  0  1  0  0  0  0  0  0  0  0  0
   46.2090   31.5340   45.1200 H   0  0  0  0  0  0  0  0  0  0  0  0
   47.2770   33.8340   46.8990 H   0  0  0  0  0  0  0  0  0  0  0  0
   47.8170   32.0510   46.9470 H   0  0  0  0  0  0  0  0  0  0  0  0
   45.4460   31.3230   47.5300 H   0  0  0  0  0  0  0  0  0  0  0  0
   44.7590   33.3900   47.6680 N   0  0  0  0  0  0  0  0  0  0  0  0
   43.7850   33.0880   47.7870 H   0  0  0  0  0  0  0  0  0  0  0  0
   45.2210   33.8060   48.4910 H   0  0  0  0  0  0  0  0  0  0  0  0
  1 11  1  0  0  0  0
  1  2  1  0  0  0  0
  2 25  1  0  0  0  0
  3  2  2  0  0  0  0
  3  7  1  0  0  0  0
  4  3  1  0  0  0  0
  5  6  1  0  0  0  0
  5  4  2  0  0  0  0
  6  1  2  0  0  0  0
  8  4  1  0  0  0  0
  9  5  1  0  0  0  0
 10  6  1  0  0  0  0
 11 13  2  0  0  0  0
 12 11  2  0  0  0  0
 15 14  1  0  0  0  0
 16 11  1  0  0  0  0
 16 15  2  0  0  0  0
 17 16  1  0  0  0  0
 18 17  1  0  0  0  0
 19 17  2  0  0  0  0
 19 21  1  0  0  0  0
 20 19  1  0  0  0  0
 21 23  2  0  0  0  0
 22 21  1  0  0  0  0
 23 15  1  0  0  0  0
 23 24  1  0  0  0  0
 25 27  1  0  0  0  0
 26 25  2  0  0  0  0
 27 28  2  0  0  0  0
 27 32  1  0  0  0  0
 28 29  1  0  0  0  0
 29 34  1  0  0  0  0
 29 30  2  0  0  0  0
 31 30  1  0  0  0  0
 31 35  1  0  0  0  0
 32 31  2  0  0  0  0
 33 28  1  0  0  0  0
 35 38  1  6  0  0  0
 35 36  1  0  0  0  0
 35 37  1  0  0  0  0
 36 39  1  0  0  0  0
 36 40  1  0  0  0  0
 36 37  1  0  0  0  0
 37 41  1  1  0  0  0
 37 42  1  0  0  0  0
 42 43  1  0  0  0  0
 42 44  1  0  0  0  0
M  END
>  <minimizedAffinity>
-5.81254721

>  <minimizedRMSD>
0.960466325

$$$$
