
 OpenBabel03252506253D

 47 51  0  0  0  0  0  0  0  0999 V2000
   45.4630   27.5930   48.5290 C   0  0  0  0  0  0  0  0  0  0  0  0
   45.0290   28.7200   47.8610 C   0  0  0  0  0  0  0  0  0  0  0  0
   44.1800   28.5100   46.7730 C   0  0  0  0  0  0  0  0  0  0  0  0
   43.7930   27.2480   46.3840 C   0  0  0  0  0  0  0  0  0  0  0  0
   43.0110   26.7420   45.4100 N   0  0  0  0  0  0  0  0  0  0  0  0
   42.9670   25.4050   45.4740 C   0  0  0  0  0  0  0  0  0  0  0  0
   43.7470   24.9730   46.5290 C   0  0  0  0  0  0  0  0  0  0  0  0
   44.2370   26.1390   47.0620 C   0  0  0  0  0  0  0  0  0  0  0  0
   45.0750   26.3380   48.1370 C   0  0  0  0  0  0  0  0  0  0  0  0
   46.1210   27.8320   49.3660 H   0  0  0  0  0  0  0  0  0  0  0  0
   43.7620   29.2910   46.1590 H   0  0  0  0  0  0  0  0  0  0  0  0
   42.5060   27.3180   44.7000 H   0  0  0  0  0  0  0  0  0  0  0  0
   42.4050   24.7570   44.8020 H   0  0  0  0  0  0  0  0  0  0  0  0
   43.9190   23.9570   46.8460 H   0  0  0  0  0  0  0  0  0  0  0  0
   43.7150   25.6710   50.7850 Cl  0  0  0  0  0  0  0  0  0  0  0  0
   45.1050   24.8280   50.1380 C   0  0  0  0  0  0  0  0  0  0  0  0
   45.6090   25.2390   48.9340 C   0  0  0  0  0  0  0  0  0  0  0  0
   46.7160   24.6310   48.3350 C   0  0  0  0  0  0  0  0  0  0  0  0
   47.1410   24.9290   47.3860 H   0  0  0  0  0  0  0  0  0  0  0  0
   47.3120   23.5690   49.0040 C   0  0  0  0  0  0  0  0  0  0  0  0
   48.1750   23.0830   48.5530 H   0  0  0  0  0  0  0  0  0  0  0  0
   46.8060   23.1470   50.2240 C   0  0  0  0  0  0  0  0  0  0  0  0
   47.3010   22.3170   50.7120 H   0  0  0  0  0  0  0  0  0  0  0  0
   45.7130   23.7580   50.8040 C   0  0  0  0  0  0  0  0  0  0  0  0
   45.0660   23.2390   52.3370 Cl  0  0  0  0  0  0  0  0  0  0  0  0
   45.3130   30.1330   48.1030 C   0  0  0  0  0  0  0  0  0  0  0  0
   44.5790   30.7940   47.5990 H   0  0  0  0  0  0  0  0  0  0  0  0
   45.1230   30.3000   49.2010 H   0  0  0  0  0  0  0  0  0  0  0  0
   46.6940   30.6000   47.8370 C   0  0  0  0  0  0  0  0  0  0  0  0
   47.4270   29.7920   47.8250 H   0  0  0  0  0  0  0  0  0  0  0  0
   46.9660   31.3050   48.6550 H   0  0  0  0  0  0  0  0  0  0  0  0
   46.3500   32.9380   45.1620 C   0  0  0  0  0  0  0  0  0  0  0  0
   47.1840   31.9640   44.5830 C   0  0  0  0  0  0  0  0  0  0  0  0
   47.4130   30.9870   45.4930 C   0  0  0  0  0  0  0  0  0  0  0  0
   46.7390   31.3500   46.5970 N   0  0  0  0  0  0  0  0  0  0  0  0
   46.1080   32.5110   46.3970 N   0  0  0  0  0  0  0  0  0  0  0  0
   47.6280   31.9090   43.5790 H   0  0  0  0  0  0  0  0  0  0  0  0
   48.0030   30.0660   45.4300 H   0  0  0  0  0  0  0  0  0  0  0  0
   44.5360   36.0140   44.4280 C   0  0  0  0  0  0  0  0  0  0  0  0
   45.0260   36.3980   43.1830 C   0  0  0  0  0  0  0  0  0  0  0  0
   45.9920   35.5790   42.6040 C   0  0  0  0  0  0  0  0  0  0  0  0
   46.3860   34.4780   43.2750 N   0  0  0  0  0  0  0  0  0  0  0  0
   45.9040   34.1310   44.4640 C   0  0  0  0  0  0  0  0  0  0  0  0
   44.9720   34.9090   45.0390 N   0  0  0  0  0  0  0  0  0  0  0  0
   43.7820   36.6870   44.8410 H   0  0  0  0  0  0  0  0  0  0  0  0
   44.7690   37.2470   42.5900 H   0  0  0  0  0  0  0  0  0  0  0  0
   46.4980   35.6880   41.6630 H   0  0  0  0  0  0  0  0  0  0  0  0
  1 10  1  0  0  0  0
  2 26  1  0  0  0  0
  2  1  2  0  0  0  0
  3  2  1  0  0  0  0
  4  3  2  0  0  0  0
  4  8  1  0  0  0  0
  5  6  1  0  0  0  0
  5  4  1  0  0  0  0
  6  7  2  0  0  0  0
  7 14  1  0  0  0  0
  7  8  1  0  0  0  0
  8  9  2  0  0  0  0
  9  1  1  0  0  0  0
  9 17  1  0  0  0  0
 11  3  1  0  0  0  0
 12  5  1  0  0  0  0
 13  6  1  0  0  0  0
 16 15  1  0  0  0  0
 16 24  1  0  0  0  0
 17 16  2  0  0  0  0
 18 17  1  0  0  0  0
 18 20  2  0  0  0  0
 19 18  1  0  0  0  0
 20 22  1  0  0  0  0
 21 20  1  0  0  0  0
 22 23  1  0  0  0  0
 22 24  2  0  0  0  0
 24 25  1  0  0  0  0
 26 28  1  0  0  0  0
 27 26  1  0  0  0  0
 29 26  1  0  0  0  0
 29 31  1  0  0  0  0
 30 29  1  0  0  0  0
 32 36  2  0  0  0  0
 33 32  1  0  0  0  0
 33 34  2  0  0  0  0
 34 35  1  0  0  0  0
 35 29  1  0  0  0  0
 36 35  1  0  0  0  0
 37 33  1  0  0  0  0
 38 34  1  0  0  0  0
 39 45  1  0  0  0  0
 39 44  1  0  0  0  0
 40 39  2  0  0  0  0
 41 40  1  0  0  0  0
 41 42  2  0  0  0  0
 42 43  1  0  0  0  0
 43 44  2  0  0  0  0
 43 32  1  0  0  0  0
 46 40  1  0  0  0  0
 47 41  1  0  0  0  0
M  END
>  <minimizedAffinity>
-5.77652216

>  <minimizedRMSD>
1.70156837

$$$$
