
 OpenBabel03252502243D

 36 38  0  0  1  0  0  0  0  0999 V2000
   46.6410   34.4890   42.2230 N   0  0  0  0  0  0  0  0  0  0  0  0
   48.0920   34.3040   42.2610 C   0  0  0  0  0  0  0  0  0  0  0  0
   48.5700   35.0630   41.0030 C   0  0  0  0  0  0  0  0  0  0  0  0
   48.0860   34.3380   39.7810 C   0  0  0  0  0  0  0  0  0  0  0  0
   46.6740   33.8800   39.8610 C   0  0  0  0  0  0  0  0  0  0  0  0
   45.8600   34.4130   41.0080 C   0  0  1  0  0  0  0  0  0  0  0  0
   48.3950   33.2540   42.1750 H   0  0  0  0  0  0  0  0  0  0  0  0
   48.4930   34.8320   43.1370 H   0  0  0  0  0  0  0  0  0  0  0  0
   49.6680   35.0570   41.0460 H   0  0  0  0  0  0  0  0  0  0  0  0
   48.1590   36.0920   41.0810 H   0  0  0  0  0  0  0  0  0  0  0  0
   48.2830   35.0200   38.9180 H   0  0  0  0  0  0  0  0  0  0  0  0
   48.7620   33.4690   39.6310 H   0  0  0  0  0  0  0  0  0  0  0  0
   46.6220   32.7620   39.8990 H   0  0  0  0  0  0  0  0  0  0  0  0
   46.1550   34.1710   38.9230 H   0  0  0  0  0  0  0  0  0  0  0  0
   45.6170   35.4620   40.7530 H   0  0  0  0  0  0  0  0  0  0  0  0
   44.4680   36.1080   44.8120 C   0  0  0  0  0  0  0  0  0  0  0  0
   45.1290   35.9290   43.5810 C   0  0  0  0  0  0  0  0  0  0  0  0
   45.9280   34.7620   43.4350 C   0  0  0  0  0  0  0  0  0  0  0  0
   45.9920   33.9140   44.4900 N   0  0  0  0  0  0  0  0  0  0  0  0
   45.3430   34.1220   45.6520 C   0  0  0  0  0  0  0  0  0  0  0  0
   44.5760   35.2280   45.8100 N   0  0  0  0  0  0  0  0  0  0  0  0
   43.8500   36.9940   44.9490 H   0  0  0  0  0  0  0  0  0  0  0  0
   45.0580   36.6180   42.7710 H   0  0  0  0  0  0  0  0  0  0  0  0
   45.4990   33.3370   46.4060 H   0  0  0  0  0  0  0  0  0  0  0  0
   44.7930   33.5890   41.2140 O   0  0  0  0  0  0  0  0  0  0  0  0
   42.8540   31.3990   42.2760 Cl  0  0  0  0  0  0  0  0  0  0  0  0
   42.4000   32.8630   41.4800 C   0  0  0  0  0  0  0  0  0  0  0  0
   43.4620   33.6590   41.1110 C   0  0  0  0  0  0  0  0  0  0  0  0
   43.1020   34.8540   40.4630 C   0  0  0  0  0  0  0  0  0  0  0  0
   43.7730   35.6420   40.0790 H   0  0  0  0  0  0  0  0  0  0  0  0
   41.7710   35.1910   40.2190 C   0  0  0  0  0  0  0  0  0  0  0  0
   41.4430   36.0930   39.7260 H   0  0  0  0  0  0  0  0  0  0  0  0
   40.7970   34.3350   40.6240 C   0  0  0  0  0  0  0  0  0  0  0  0
   39.7420   34.5490   40.4590 H   0  0  0  0  0  0  0  0  0  0  0  0
   41.0770   33.1530   41.2630 C   0  0  0  0  0  0  0  0  0  0  0  0
   39.8820   32.0040   41.8110 Cl  0  0  0  0  0  0  0  0  0  0  0  0
  1  2  1  0  0  0  0
  1 18  1  0  0  0  0
  2  8  1  0  0  0  0
  3  9  1  0  0  0  0
  3 10  1  0  0  0  0
  3  2  1  0  0  0  0
  4  5  1  0  0  0  0
  4  3  1  0  0  0  0
  5 13  1  0  0  0  0
  5  6  1  0  0  0  0
  6 15  1  6  0  0  0
  6 25  1  0  0  0  0
  6  1  1  0  0  0  0
  7  2  1  0  0  0  0
 11  4  1  0  0  0  0
 12  4  1  0  0  0  0
 14  5  1  0  0  0  0
 16 22  1  0  0  0  0
 16 21  1  0  0  0  0
 17 16  2  0  0  0  0
 18 17  1  0  0  0  0
 18 19  2  0  0  0  0
 19 20  1  0  0  0  0
 20 21  2  0  0  0  0
 20 24  1  0  0  0  0
 23 17  1  0  0  0  0
 27 26  1  0  0  0  0
 28 25  1  0  0  0  0
 28 27  2  0  0  0  0
 29 28  1  0  0  0  0
 30 29  1  0  0  0  0
 31 29  2  0  0  0  0
 31 33  1  0  0  0  0
 32 31  1  0  0  0  0
 33 35  2  0  0  0  0
 34 33  1  0  0  0  0
 35 27  1  0  0  0  0
 35 36  1  0  0  0  0
M  END
>  <minimizedAffinity>
-6.0239048

>  <minimizedRMSD>
0.955585897

$$$$
