
 OpenBabel03252507333D

 51 54  0  0  1  0  0  0  0  0999 V2000
   46.9840   32.7480   45.5470 C   0  0  0  0  0  0  0  0  0  0  0  0
   45.9030   33.4280   46.0850 C   0  0  0  0  0  0  0  0  0  0  0  0
   45.2200   34.3880   45.3020 C   0  0  0  0  0  0  0  0  0  0  0  0
   45.7010   34.5860   44.0090 N   0  0  0  0  0  0  0  0  0  0  0  0
   46.7520   33.8960   43.5520 C   0  0  0  0  0  0  0  0  0  0  0  0
   47.3820   32.9950   44.3040 N   0  0  0  0  0  0  0  0  0  0  0  0
   45.4020   33.4630   47.0280 H   0  0  0  0  0  0  0  0  0  0  0  0
   44.3860   34.9930   45.5370 H   0  0  0  0  0  0  0  0  0  0  0  0
   47.6340   31.7560   46.3820 C   0  0  2  0  0  0  0  0  0  0  0  0
   47.4030   30.3140   45.8380 C   0  0  0  0  0  0  0  0  0  0  0  0
   48.2100   29.3480   46.6310 C   0  0  0  0  0  0  0  0  0  0  0  0
   48.1930   29.5360   48.1110 C   0  0  0  0  0  0  0  0  0  0  0  0
   48.1800   30.9140   48.5380 C   0  0  0  0  0  0  0  0  0  0  0  0
   47.1810   31.7970   47.7570 C   0  0  2  0  0  0  0  0  0  0  0  0
   48.7370   31.8710   46.2730 H   0  0  0  0  0  0  0  0  0  0  0  0
   46.3310   30.0850   45.7740 H   0  0  0  0  0  0  0  0  0  0  0  0
   47.7770   30.3660   44.7940 H   0  0  0  0  0  0  0  0  0  0  0  0
   47.7550   28.3310   46.4460 H   0  0  0  0  0  0  0  0  0  0  0  0
   49.2040   29.2900   46.1470 H   0  0  0  0  0  0  0  0  0  0  0  0
   47.8240   28.7190   48.7320 H   0  0  0  0  0  0  0  0  0  0  0  0
   49.3070   29.2860   48.3380 H   0  0  0  0  0  0  0  0  0  0  0  0
   49.1310   31.4980   48.5100 H   0  0  0  0  0  0  0  0  0  0  0  0
   47.8560   30.9870   49.6130 H   0  0  0  0  0  0  0  0  0  0  0  0
   47.2880   32.7480   48.2830 H   0  0  0  0  0  0  0  0  0  0  0  0
   45.8480   31.2030   47.8670 N   0  0  0  0  0  0  0  0  0  0  0  0
   45.1550   30.6600   48.9610 C   0  0  0  0  0  0  0  0  0  0  0  0
   44.5940   31.3820   49.8620 O   0  0  0  0  0  0  0  0  0  0  0  0
   45.1120   29.2320   48.9930 N   0  0  0  0  0  0  0  0  0  0  0  0
   45.2170   31.0480   46.9930 H   0  0  0  0  0  0  0  0  0  0  0  0
   44.6400   28.4570   48.4800 H   0  0  0  0  0  0  0  0  0  0  0  0
   45.3800   28.2820   49.3660 H   0  0  0  0  0  0  0  0  0  0  0  0
   47.2190   34.1690   42.1880 C   0  0  0  0  0  0  0  0  0  0  0  0
   48.1680   35.1370   41.9460 C   0  0  0  0  0  0  0  0  0  0  0  0
   48.6560   35.4470   40.6910 C   0  0  0  0  0  0  0  0  0  0  0  0
   48.1160   34.7030   39.6600 C   0  0  0  0  0  0  0  0  0  0  0  0
   47.1680   33.7360   39.8880 C   0  0  0  0  0  0  0  0  0  0  0  0
   46.7230   33.4720   41.1550 N   0  0  0  0  0  0  0  0  0  0  0  0
   48.5370   35.6700   42.8110 H   0  0  0  0  0  0  0  0  0  0  0  0
   49.4110   36.2270   40.5610 H   0  0  0  0  0  0  0  0  0  0  0  0
   48.4820   34.9290   38.6680 H   0  0  0  0  0  0  0  0  0  0  0  0
   44.1860   33.6350   39.8000 Cl  0  0  0  0  0  0  0  0  0  0  0  0
   45.2330   32.8140   38.6480 C   0  0  0  0  0  0  0  0  0  0  0  0
   46.5920   32.9470   38.8070 C   0  0  0  0  0  0  0  0  0  0  0  0
   47.3410   32.2740   37.8650 C   0  0  0  0  0  0  0  0  0  0  0  0
   48.4020   32.3100   37.8970 H   0  0  0  0  0  0  0  0  0  0  0  0
   46.8120   31.5300   36.8470 C   0  0  0  0  0  0  0  0  0  0  0  0
   47.4310   31.0070   36.1130 H   0  0  0  0  0  0  0  0  0  0  0  0
   45.4390   31.4220   36.7210 C   0  0  0  0  0  0  0  0  0  0  0  0
   44.9570   30.8540   35.9430 H   0  0  0  0  0  0  0  0  0  0  0  0
   44.6480   32.0780   37.6400 C   0  0  0  0  0  0  0  0  0  0  0  0
   42.8870   31.9830   37.5380 Cl  0  0  0  0  0  0  0  0  0  0  0  0
  1  2  1  0  0  0  0
  1  9  1  0  0  0  0
  2  7  1  0  0  0  0
  3  8  1  0  0  0  0
  3  2  2  0  0  0  0
  4  3  1  0  0  0  0
  5  4  2  0  0  0  0
  5  6  1  0  0  0  0
  6  1  2  0  0  0  0
  9 15  1  6  0  0  0
  9 14  1  0  0  0  0
 10  9  1  0  0  0  0
 10 11  1  0  0  0  0
 11 12  1  0  0  0  0
 12 21  1  0  0  0  0
 12 13  1  0  0  0  0
 12 20  1  0  0  0  0
 13 23  1  0  0  0  0
 14 25  1  0  0  0  0
 14 24  1  1  0  0  0
 14 13  1  0  0  0  0
 16 10  1  0  0  0  0
 17 10  1  0  0  0  0
 18 11  1  0  0  0  0
 19 11  1  0  0  0  0
 22 13  1  0  0  0  0
 25 26  1  0  0  0  0
 26 28  1  0  0  0  0
 26 27  2  0  0  0  0
 28 31  1  0  0  0  0
 29 25  1  0  0  0  0
 30 28  1  0  0  0  0
 32  5  1  0  0  0  0
 33 32  1  0  0  0  0
 33 38  1  0  0  0  0
 34 33  2  0  0  0  0
 35 36  2  0  0  0  0
 35 34  1  0  0  0  0
 36 37  1  0  0  0  0
 37 32  2  0  0  0  0
 39 34  1  0  0  0  0
 40 35  1  0  0  0  0
 42 43  1  0  0  0  0
 42 41  1  0  0  0  0
 43 36  1  0  0  0  0
 44 45  1  0  0  0  0
 44 43  2  0  0  0  0
 46 44  1  0  0  0  0
 47 46  1  0  0  0  0
 48 46  2  0  0  0  0
 48 50  1  0  0  0  0
 49 48  1  0  0  0  0
 50 42  2  0  0  0  0
 51 50  1  0  0  0  0
M  END
>  <minimizedAffinity>
-6.57153845

>  <minimizedRMSD>
0.42635566

$$$$
