
 OpenBabel03252502243D

 36 38  0  0  1  0  0  0  0  0999 V2000
   46.9730   34.6160   42.1700 N   0  0  0  0  0  0  0  0  0  0  0  0
   48.4240   34.7950   42.2490 C   0  0  0  0  0  0  0  0  0  0  0  0
   48.7430   35.5910   40.9640 C   0  0  0  0  0  0  0  0  0  0  0  0
   48.4920   34.7160   39.7710 C   0  0  0  0  0  0  0  0  0  0  0  0
   47.2330   33.9290   39.8430 C   0  0  0  0  0  0  0  0  0  0  0  0
   46.2760   34.2960   40.9430 C   0  0  1  0  0  0  0  0  0  0  0  0
   48.9760   33.8480   42.2220 H   0  0  0  0  0  0  0  0  0  0  0  0
   48.6540   35.4420   43.1050 H   0  0  0  0  0  0  0  0  0  0  0  0
   49.8080   35.8570   41.0310 H   0  0  0  0  0  0  0  0  0  0  0  0
   48.0910   36.4900   40.9810 H   0  0  0  0  0  0  0  0  0  0  0  0
   48.5460   35.3870   38.8790 H   0  0  0  0  0  0  0  0  0  0  0  0
   49.3650   34.0340   39.6800 H   0  0  0  0  0  0  0  0  0  0  0  0
   47.4540   32.8360   39.9370 H   0  0  0  0  0  0  0  0  0  0  0  0
   46.6900   34.0420   38.8810 H   0  0  0  0  0  0  0  0  0  0  0  0
   45.7930   35.2410   40.6300 H   0  0  0  0  0  0  0  0  0  0  0  0
   44.4970   35.8700   44.6880 C   0  0  0  0  0  0  0  0  0  0  0  0
   45.2330   35.8140   43.4880 C   0  0  0  0  0  0  0  0  0  0  0  0
   46.1750   34.7580   43.3500 C   0  0  0  0  0  0  0  0  0  0  0  0
   46.2920   33.8880   44.3830 N   0  0  0  0  0  0  0  0  0  0  0  0
   45.5670   33.9760   45.5150 C   0  0  0  0  0  0  0  0  0  0  0  0
   44.6640   34.9750   45.6650 N   0  0  0  0  0  0  0  0  0  0  0  0
   43.7690   36.6700   44.8180 H   0  0  0  0  0  0  0  0  0  0  0  0
   45.1170   36.5170   42.6950 H   0  0  0  0  0  0  0  0  0  0  0  0
   45.7820   33.1900   46.2530 H   0  0  0  0  0  0  0  0  0  0  0  0
   45.4360   33.2450   41.1680 O   0  0  0  0  0  0  0  0  0  0  0  0
   44.2390   33.4680   38.3050 Cl  0  0  0  0  0  0  0  0  0  0  0  0
   43.4150   32.9010   39.7120 C   0  0  0  0  0  0  0  0  0  0  0  0
   44.1810   32.9050   40.8560 C   0  0  0  0  0  0  0  0  0  0  0  0
   43.5180   32.4450   42.0090 C   0  0  0  0  0  0  0  0  0  0  0  0
   43.9240   32.3580   43.0320 H   0  0  0  0  0  0  0  0  0  0  0  0
   42.1900   32.0220   41.9770 C   0  0  0  0  0  0  0  0  0  0  0  0
   41.6370   31.6610   42.8310 H   0  0  0  0  0  0  0  0  0  0  0  0
   41.5210   32.0580   40.7950 C   0  0  0  0  0  0  0  0  0  0  0  0
   40.4830   31.7380   40.7150 H   0  0  0  0  0  0  0  0  0  0  0  0
   42.1070   32.4950   39.6330 C   0  0  0  0  0  0  0  0  0  0  0  0
   41.3140   32.5700   38.0800 Cl  0  0  0  0  0  0  0  0  0  0  0  0
  1  2  1  0  0  0  0
  1 18  1  0  0  0  0
  2  8  1  0  0  0  0
  3 10  1  0  0  0  0
  3  9  1  0  0  0  0
  3  2  1  0  0  0  0
  4  5  1  0  0  0  0
  4  3  1  0  0  0  0
  5 13  1  0  0  0  0
  5  6  1  0  0  0  0
  6 15  1  6  0  0  0
  6 25  1  0  0  0  0
  6  1  1  0  0  0  0
  7  2  1  0  0  0  0
 11  4  1  0  0  0  0
 12  4  1  0  0  0  0
 14  5  1  0  0  0  0
 16 22  1  0  0  0  0
 16 21  1  0  0  0  0
 17 16  2  0  0  0  0
 18 17  1  0  0  0  0
 18 19  2  0  0  0  0
 19 20  1  0  0  0  0
 20 21  2  0  0  0  0
 20 24  1  0  0  0  0
 23 17  1  0  0  0  0
 26 27  1  0  0  0  0
 27 28  1  0  0  0  0
 28 25  1  0  0  0  0
 28 29  2  0  0  0  0
 29 30  1  0  0  0  0
 31 29  1  0  0  0  0
 31 32  1  0  0  0  0
 33 31  2  0  0  0  0
 34 33  1  0  0  0  0
 35 27  2  0  0  0  0
 35 33  1  0  0  0  0
 36 35  1  0  0  0  0
M  END
>  <minimizedAffinity>
-5.48195934

>  <minimizedRMSD>
0.613262475

$$$$
