
 OpenBabel03242518083D

 37 39  0  0  1  0  0  0  0  0999 V2000
   46.3790   34.2480   42.6390 N   0  0  0  0  0  0  0  0  0  0  0  0
   47.1190   35.4530   42.3820 C   0  0  0  0  0  0  0  0  0  0  0  0
   48.1000   35.2300   41.3120 C   0  0  0  0  0  0  0  0  0  0  0  0
   47.9130   34.0660   40.4150 C   0  0  0  0  0  0  0  0  0  0  0  0
   46.5600   33.4830   40.3420 C   0  0  0  0  0  0  0  0  0  0  0  0
   45.7290   33.5420   41.5940 C   0  0  2  0  0  0  0  0  0  0  0  0
   46.4360   36.3100   42.2290 H   0  0  0  0  0  0  0  0  0  0  0  0
   47.6960   35.7550   43.3110 H   0  0  0  0  0  0  0  0  0  0  0  0
   49.1450   35.2110   41.6860 H   0  0  0  0  0  0  0  0  0  0  0  0
   48.0790   36.1490   40.6520 H   0  0  0  0  0  0  0  0  0  0  0  0
   48.2380   34.2960   39.3780 H   0  0  0  0  0  0  0  0  0  0  0  0
   48.6050   33.2340   40.7300 H   0  0  0  0  0  0  0  0  0  0  0  0
   46.6140   32.4740   39.8850 H   0  0  0  0  0  0  0  0  0  0  0  0
   45.9820   34.0890   39.5820 H   0  0  0  0  0  0  0  0  0  0  0  0
   45.7150   32.4530   41.9320 H   0  0  0  0  0  0  0  0  0  0  0  0
   45.3840   34.2890   44.8760 C   0  0  0  0  0  0  0  0  0  0  0  0
   46.3160   33.7530   43.9780 C   0  0  0  0  0  0  0  0  0  0  0  0
   47.1700   32.7160   44.4470 C   0  0  0  0  0  0  0  0  0  0  0  0
   47.0260   32.3190   45.7240 N   0  0  0  0  0  0  0  0  0  0  0  0
   46.1200   32.8560   46.5570 C   0  0  0  0  0  0  0  0  0  0  0  0
   45.2950   33.8450   46.1350 N   0  0  0  0  0  0  0  0  0  0  0  0
   44.5350   35.3150   44.4190 N   0  0  0  0  0  0  0  0  0  0  0  0
   47.8880   32.3010   43.7610 H   0  0  0  0  0  0  0  0  0  0  0  0
   46.0780   32.4710   47.5660 H   0  0  0  0  0  0  0  0  0  0  0  0
   43.5050   35.1840   44.4350 H   0  0  0  0  0  0  0  0  0  0  0  0
   44.9230   36.2310   44.0550 H   0  0  0  0  0  0  0  0  0  0  0  0
   43.7220   31.4680   42.4330 Cl  0  0  0  0  0  0  0  0  0  0  0  0
   43.2660   32.9880   41.6450 C   0  0  0  0  0  0  0  0  0  0  0  0
   44.3190   33.8610   41.3250 C   0  0  0  0  0  0  0  0  0  0  0  0
   43.8390   35.0110   40.7140 C   0  0  0  0  0  0  0  0  0  0  0  0
   44.5290   35.7570   40.4160 H   0  0  0  0  0  0  0  0  0  0  0  0
   42.5120   35.2710   40.4540 C   0  0  0  0  0  0  0  0  0  0  0  0
   42.2080   36.1910   39.9740 H   0  0  0  0  0  0  0  0  0  0  0  0
   41.5670   34.3430   40.8130 C   0  0  0  0  0  0  0  0  0  0  0  0
   40.5300   34.5530   40.6070 H   0  0  0  0  0  0  0  0  0  0  0  0
   41.9390   33.1780   41.4200 C   0  0  0  0  0  0  0  0  0  0  0  0
   40.7500   31.9830   41.8850 Cl  0  0  0  0  0  0  0  0  0  0  0  0
  1 17  1  0  0  0  0
  2  1  1  0  0  0  0
  2  8  1  0  0  0  0
  3  9  1  0  0  0  0
  3  2  1  0  0  0  0
  4 12  1  0  0  0  0
  4  3  1  0  0  0  0
  5  4  1  0  0  0  0
  5  6  1  0  0  0  0
  6 15  1  1  0  0  0
  6  1  1  0  0  0  0
  7  2  1  0  0  0  0
 10  3  1  0  0  0  0
 11  4  1  0  0  0  0
 13  5  1  0  0  0  0
 14  5  1  0  0  0  0
 16 21  1  0  0  0  0
 17 18  1  0  0  0  0
 17 16  2  0  0  0  0
 18 19  2  0  0  0  0
 19 20  1  0  0  0  0
 20 24  1  0  0  0  0
 21 20  2  0  0  0  0
 22 25  1  0  0  0  0
 22 16  1  0  0  0  0
 23 18  1  0  0  0  0
 26 22  1  0  0  0  0
 28 27  1  0  0  0  0
 29  6  1  0  0  0  0
 29 28  2  0  0  0  0
 30 29  1  0  0  0  0
 31 30  1  0  0  0  0
 32 30  2  0  0  0  0
 32 34  1  0  0  0  0
 33 32  1  0  0  0  0
 34 36  2  0  0  0  0
 35 34  1  0  0  0  0
 36 28  1  0  0  0  0
 36 37  1  0  0  0  0
M  END
>  <minimizedAffinity>
-5.64760971

>  <minimizedRMSD>
2.11839509

$$$$
