
 OpenBabel03252506263D

 47 51  0  0  0  0  0  0  0  0999 V2000
   45.5360   27.7140   47.8460 C   0  0  0  0  0  0  0  0  0  0  0  0
   44.9850   28.9750   47.7440 C   0  0  0  0  0  0  0  0  0  0  0  0
   44.1620   29.2050   46.6400 C   0  0  0  0  0  0  0  0  0  0  0  0
   43.9100   28.2300   45.7020 C   0  0  0  0  0  0  0  0  0  0  0  0
   43.1860   28.1530   44.5680 N   0  0  0  0  0  0  0  0  0  0  0  0
   43.2840   26.9370   44.0160 C   0  0  0  0  0  0  0  0  0  0  0  0
   44.1070   26.1470   44.7960 C   0  0  0  0  0  0  0  0  0  0  0  0
   44.4700   26.9810   45.8230 C   0  0  0  0  0  0  0  0  0  0  0  0
   45.2840   26.7470   46.9090 C   0  0  0  0  0  0  0  0  0  0  0  0
   46.1660   27.6070   48.7310 H   0  0  0  0  0  0  0  0  0  0  0  0
   43.6620   30.1370   46.4280 H   0  0  0  0  0  0  0  0  0  0  0  0
   42.6220   28.9390   44.1740 H   0  0  0  0  0  0  0  0  0  0  0  0
   42.7940   26.6180   43.0970 H   0  0  0  0  0  0  0  0  0  0  0  0
   44.3860   25.1200   44.6240 H   0  0  0  0  0  0  0  0  0  0  0  0
   47.9800   26.2170   45.5840 Cl  0  0  0  0  0  0  0  0  0  0  0  0
   47.1390   25.0840   46.6200 C   0  0  0  0  0  0  0  0  0  0  0  0
   45.9330   25.4610   47.1450 C   0  0  0  0  0  0  0  0  0  0  0  0
   45.1850   24.6280   47.9830 C   0  0  0  0  0  0  0  0  0  0  0  0
   44.2290   24.8940   48.4160 H   0  0  0  0  0  0  0  0  0  0  0  0
   45.7040   23.3760   48.2810 C   0  0  0  0  0  0  0  0  0  0  0  0
   45.1350   22.7140   48.9320 H   0  0  0  0  0  0  0  0  0  0  0  0
   46.9260   22.9870   47.7520 C   0  0  0  0  0  0  0  0  0  0  0  0
   47.2940   22.0020   48.0100 H   0  0  0  0  0  0  0  0  0  0  0  0
   47.6530   23.8200   46.9260 C   0  0  0  0  0  0  0  0  0  0  0  0
   49.1890   23.3460   46.2540 Cl  0  0  0  0  0  0  0  0  0  0  0  0
   45.1170   30.1420   48.6140 C   0  0  0  0  0  0  0  0  0  0  0  0
   44.2630   30.8400   48.5000 H   0  0  0  0  0  0  0  0  0  0  0  0
   45.0130   29.7520   49.6660 H   0  0  0  0  0  0  0  0  0  0  0  0
   46.3990   30.8820   48.5610 C   0  0  0  0  0  0  0  0  0  0  0  0
   47.2660   30.2590   48.7840 H   0  0  0  0  0  0  0  0  0  0  0  0
   46.3440   31.6890   49.3280 H   0  0  0  0  0  0  0  0  0  0  0  0
   46.2590   32.9720   45.6710 C   0  0  0  0  0  0  0  0  0  0  0  0
   47.1950   31.9990   45.2740 C   0  0  0  0  0  0  0  0  0  0  0  0
   47.3620   31.1140   46.2860 C   0  0  0  0  0  0  0  0  0  0  0  0
   46.5520   31.5290   47.2730 N   0  0  0  0  0  0  0  0  0  0  0  0
   45.8970   32.6350   46.9050 N   0  0  0  0  0  0  0  0  0  0  0  0
   47.7510   31.8870   44.3330 H   0  0  0  0  0  0  0  0  0  0  0  0
   47.9950   30.2230   46.3680 H   0  0  0  0  0  0  0  0  0  0  0  0
   44.4860   35.9470   44.5310 C   0  0  0  0  0  0  0  0  0  0  0  0
   45.0190   36.1850   43.2660 C   0  0  0  0  0  0  0  0  0  0  0  0
   45.9980   35.3030   42.8170 C   0  0  0  0  0  0  0  0  0  0  0  0
   46.3640   34.2850   43.6230 N   0  0  0  0  0  0  0  0  0  0  0  0
   45.8420   34.0770   44.8270 C   0  0  0  0  0  0  0  0  0  0  0  0
   44.8960   34.9180   45.2780 N   0  0  0  0  0  0  0  0  0  0  0  0
   43.7240   36.6640   44.8390 H   0  0  0  0  0  0  0  0  0  0  0  0
   44.7860   36.9610   42.5730 H   0  0  0  0  0  0  0  0  0  0  0  0
   46.5350   35.3020   41.8870 H   0  0  0  0  0  0  0  0  0  0  0  0
  1 10  1  0  0  0  0
  2  1  1  0  0  0  0
  2 26  1  0  0  0  0
  3  2  2  0  0  0  0
  4  8  2  0  0  0  0
  4  3  1  0  0  0  0
  5  4  1  0  0  0  0
  6  5  1  0  0  0  0
  6  7  2  0  0  0  0
  7  8  1  0  0  0  0
  8  9  1  0  0  0  0
  9 17  1  0  0  0  0
  9  1  2  0  0  0  0
 11  3  1  0  0  0  0
 12  5  1  0  0  0  0
 13  6  1  0  0  0  0
 14  7  1  0  0  0  0
 15 16  1  0  0  0  0
 16 24  2  0  0  0  0
 16 17  1  0  0  0  0
 17 18  2  0  0  0  0
 18 20  1  0  0  0  0
 18 19  1  0  0  0  0
 20 21  1  0  0  0  0
 22 23  1  0  0  0  0
 22 20  2  0  0  0  0
 24 22  1  0  0  0  0
 25 24  1  0  0  0  0
 26 28  1  0  0  0  0
 27 26  1  0  0  0  0
 29 26  1  0  0  0  0
 29 30  1  0  0  0  0
 29 31  1  0  0  0  0
 32 36  2  0  0  0  0
 33 32  1  0  0  0  0
 33 34  2  0  0  0  0
 34 38  1  0  0  0  0
 34 35  1  0  0  0  0
 35 29  1  0  0  0  0
 36 35  1  0  0  0  0
 37 33  1  0  0  0  0
 39 45  1  0  0  0  0
 39 44  1  0  0  0  0
 40 39  2  0  0  0  0
 41 40  1  0  0  0  0
 41 42  2  0  0  0  0
 42 43  1  0  0  0  0
 43 44  2  0  0  0  0
 43 32  1  0  0  0  0
 46 40  1  0  0  0  0
 47 41  1  0  0  0  0
M  END
>  <minimizedAffinity>
-5.38119745

>  <minimizedRMSD>
1.77910602

$$$$
