
 OpenBabel03242511093D

 45 49  0  0  1  0  0  0  0  0999 V2000
   47.2530   32.7620   44.2020 C   0  0  0  0  0  0  0  0  0  0  0  0
   47.2530   31.8960   45.2840 C   0  0  0  0  0  0  0  0  0  0  0  0
   46.4490   32.0730   46.4070 C   0  0  0  0  0  0  0  0  0  0  0  0
   45.5940   33.1630   46.4710 C   0  0  0  0  0  0  0  0  0  0  0  0
   45.5670   34.0300   45.4320 C   0  0  0  0  0  0  0  0  0  0  0  0
   44.7110   35.1070   45.4580 C   0  0  0  0  0  0  0  0  0  0  0  0
   44.6190   36.0120   44.4210 C   0  0  0  0  0  0  0  0  0  0  0  0
   45.4410   35.7920   43.3220 C   0  0  0  0  0  0  0  0  0  0  0  0
   46.2980   34.7050   43.3080 C   0  0  0  0  0  0  0  0  0  0  0  0
   46.3860   33.8130   44.3330 C   0  0  0  0  0  0  0  0  0  0  0  0
   47.8470   31.0010   45.3790 H   0  0  0  0  0  0  0  0  0  0  0  0
   46.4300   31.4140   47.2630 H   0  0  0  0  0  0  0  0  0  0  0  0
   44.9640   33.3260   47.3220 H   0  0  0  0  0  0  0  0  0  0  0  0
   44.0960   35.2280   46.3400 H   0  0  0  0  0  0  0  0  0  0  0  0
   43.9040   36.8240   44.5600 H   0  0  0  0  0  0  0  0  0  0  0  0
   45.2840   36.5610   42.5710 H   0  0  0  0  0  0  0  0  0  0  0  0
   44.9460   33.0670   41.2860 Cl  0  0  0  0  0  0  0  0  0  0  0  0
   46.4260   34.0210   41.0640 C   0  0  0  0  0  0  0  0  0  0  0  0
   47.0540   34.7720   42.0730 C   0  0  0  0  0  0  0  0  0  0  0  0
   48.2210   35.3830   41.6750 C   0  0  0  0  0  0  0  0  0  0  0  0
   48.6300   35.9370   42.5250 H   0  0  0  0  0  0  0  0  0  0  0  0
   48.7320   35.2760   40.4120 C   0  0  0  0  0  0  0  0  0  0  0  0
   49.6540   35.8290   40.3040 H   0  0  0  0  0  0  0  0  0  0  0  0
   48.1010   34.5360   39.4360 C   0  0  0  0  0  0  0  0  0  0  0  0
   48.6230   34.5490   38.4980 H   0  0  0  0  0  0  0  0  0  0  0  0
   46.9140   33.8940   39.7810 C   0  0  0  0  0  0  0  0  0  0  0  0
   46.1860   32.9860   38.4960 Cl  0  0  0  0  0  0  0  0  0  0  0  0
   48.1040   32.4850   43.1250 N   0  0  0  0  0  0  0  0  0  0  0  0
   47.7660   33.3000   42.5830 H   0  0  0  0  0  0  0  0  0  0  0  0
   49.9790   31.1330   42.0920 C   0  0  1  0  0  0  0  0  0  0  0  0
   48.7360   30.2730   42.0740 C   0  0  0  0  0  0  0  0  0  0  0  0
   48.9770   31.3470   43.1220 C   0  0  2  0  0  0  0  0  0  0  0  0
   50.0700   31.8340   41.2400 H   0  0  0  0  0  0  0  0  0  0  0  0
   48.0140   30.4930   41.2660 H   0  0  0  0  0  0  0  0  0  0  0  0
   48.8610   29.1980   42.3750 H   0  0  0  0  0  0  0  0  0  0  0  0
   49.1790   30.9570   44.1550 H   0  0  0  0  0  0  0  0  0  0  0  0
   53.3260   29.6060   41.6960 C   0  0  0  0  0  0  0  0  0  0  0  0
   53.6410   29.2560   43.0430 C   0  0  0  0  0  0  0  0  0  0  0  0
   52.6960   29.5670   44.0550 C   0  0  0  0  0  0  0  0  0  0  0  0
   51.5540   30.1710   43.7160 N   0  0  0  0  0  0  0  0  0  0  0  0
   51.2900   30.4900   42.4170 C   0  0  0  0  0  0  0  0  0  0  0  0
   52.1680   30.2130   41.3980 N   0  0  0  0  0  0  0  0  0  0  0  0
   54.0820   29.3490   40.9440 H   0  0  0  0  0  0  0  0  0  0  0  0
   54.5410   28.7730   43.3510 H   0  0  0  0  0  0  0  0  0  0  0  0
   52.9380   29.3010   45.0750 H   0  0  0  0  0  0  0  0  0  0  0  0
  1 10  2  0  0  0  0
  1  2  1  0  0  0  0
  2 11  1  0  0  0  0
  2  3  2  0  0  0  0
  3  4  1  0  0  0  0
  3 12  1  0  0  0  0
  4 13  1  0  0  0  0
  5  6  1  0  0  0  0
  5  4  2  0  0  0  0
  6 14  1  0  0  0  0
  7 15  1  0  0  0  0
  7  6  2  0  0  0  0
  8  7  1  0  0  0  0
  9  8  2  0  0  0  0
  9 10  1  0  0  0  0
 10  5  1  0  0  0  0
 16  8  1  0  0  0  0
 18 17  1  0  0  0  0
 18 19  1  0  0  0  0
 19  9  1  0  0  0  0
 20 19  2  0  0  0  0
 20 21  1  0  0  0  0
 22 20  1  0  0  0  0
 23 22  1  0  0  0  0
 24 26  1  0  0  0  0
 24 22  2  0  0  0  0
 25 24  1  0  0  0  0
 26 18  2  0  0  0  0
 27 26  1  0  0  0  0
 28  1  1  0  0  0  0
 29 28  1  0  0  0  0
 30 33  1  6  0  0  0
 30 41  1  0  0  0  0
 30 32  1  0  0  0  0
 31 30  1  0  0  0  0
 31 35  1  0  0  0  0
 31 32  1  0  0  0  0
 32 28  1  0  0  0  0
 32 36  1  1  0  0  0
 34 31  1  0  0  0  0
 37 38  1  0  0  0  0
 38 44  1  0  0  0  0
 38 39  2  0  0  0  0
 39 45  1  0  0  0  0
 40 39  1  0  0  0  0
 41 40  2  0  0  0  0
 42 37  2  0  0  0  0
 42 41  1  0  0  0  0
 43 37  1  0  0  0  0
M  END
>  <minimizedAffinity>
-6.54007912

>  <minimizedRMSD>
2.58391857

$$$$
