
 OpenBabel03252507333D

 51 54  0  0  1  0  0  0  0  0999 V2000
   47.0690   32.4520   45.3160 C   0  0  0  0  0  0  0  0  0  0  0  0
   46.0060   33.1240   45.9010 C   0  0  0  0  0  0  0  0  0  0  0  0
   45.3720   34.1760   45.1990 C   0  0  0  0  0  0  0  0  0  0  0  0
   45.8790   34.4690   43.9340 N   0  0  0  0  0  0  0  0  0  0  0  0
   46.9100   33.7830   43.4290 C   0  0  0  0  0  0  0  0  0  0  0  0
   47.4940   32.7940   44.1050 N   0  0  0  0  0  0  0  0  0  0  0  0
   45.4930   33.0940   46.8370 H   0  0  0  0  0  0  0  0  0  0  0  0
   44.5580   34.7900   45.4780 H   0  0  0  0  0  0  0  0  0  0  0  0
   47.6690   31.3660   46.0660 C   0  0  2  0  0  0  0  0  0  0  0  0
   47.2560   29.9790   45.4870 C   0  0  0  0  0  0  0  0  0  0  0  0
   48.0120   28.9040   46.1860 C   0  0  0  0  0  0  0  0  0  0  0  0
   48.1120   29.0290   47.6700 C   0  0  0  0  0  0  0  0  0  0  0  0
   48.2680   30.3810   48.1460 C   0  0  0  0  0  0  0  0  0  0  0  0
   47.3150   31.3920   47.4710 C   0  0  2  0  0  0  0  0  0  0  0  0
   48.7680   31.3760   45.8840 H   0  0  0  0  0  0  0  0  0  0  0  0
   46.1640   29.8600   45.4920 H   0  0  0  0  0  0  0  0  0  0  0  0
   47.5630   30.0390   44.4220 H   0  0  0  0  0  0  0  0  0  0  0  0
   47.4430   27.9460   45.9970 H   0  0  0  0  0  0  0  0  0  0  0  0
   48.9590   28.7690   45.6310 H   0  0  0  0  0  0  0  0  0  0  0  0
   47.7040   28.2260   48.2850 H   0  0  0  0  0  0  0  0  0  0  0  0
   49.2070   28.6590   47.8070 H   0  0  0  0  0  0  0  0  0  0  0  0
   49.2700   30.8680   48.0730 H   0  0  0  0  0  0  0  0  0  0  0  0
   48.0260   30.4390   49.2430 H   0  0  0  0  0  0  0  0  0  0  0  0
   47.5530   32.3040   48.0220 H   0  0  0  0  0  0  0  0  0  0  0  0
   45.9390   30.9290   47.6520 N   0  0  0  0  0  0  0  0  0  0  0  0
   45.2130   30.5860   48.8060 C   0  0  0  0  0  0  0  0  0  0  0  0
   44.7230   31.4600   49.6090 O   0  0  0  0  0  0  0  0  0  0  0  0
   45.0530   29.1820   49.0160 N   0  0  0  0  0  0  0  0  0  0  0  0
   45.2880   30.7190   46.8040 H   0  0  0  0  0  0  0  0  0  0  0  0
   44.5140   28.3910   48.6040 H   0  0  0  0  0  0  0  0  0  0  0  0
   45.2460   28.2670   49.5050 H   0  0  0  0  0  0  0  0  0  0  0  0
   47.4070   34.1570   42.1010 C   0  0  0  0  0  0  0  0  0  0  0  0
   48.2850   35.2070   41.9440 C   0  0  0  0  0  0  0  0  0  0  0  0
   48.7950   35.6150   40.7270 C   0  0  0  0  0  0  0  0  0  0  0  0
   48.3570   34.8820   39.6400 C   0  0  0  0  0  0  0  0  0  0  0  0
   47.4810   33.8340   39.7830 C   0  0  0  0  0  0  0  0  0  0  0  0
   47.0100   33.4750   41.0160 N   0  0  0  0  0  0  0  0  0  0  0  0
   48.5750   35.7240   42.8470 H   0  0  0  0  0  0  0  0  0  0  0  0
   49.4900   36.4570   40.6650 H   0  0  0  0  0  0  0  0  0  0  0  0
   48.7430   35.1840   38.6770 H   0  0  0  0  0  0  0  0  0  0  0  0
   49.3490   31.7250   38.7960 Cl  0  0  0  0  0  0  0  0  0  0  0  0
   47.7720   32.0540   38.0870 C   0  0  0  0  0  0  0  0  0  0  0  0
   47.0140   33.0560   38.6440 C   0  0  0  0  0  0  0  0  0  0  0  0
   45.7940   33.2500   38.0330 C   0  0  0  0  0  0  0  0  0  0  0  0
   45.1290   33.9990   38.3830 H   0  0  0  0  0  0  0  0  0  0  0  0
   45.3440   32.5260   36.9620 C   0  0  0  0  0  0  0  0  0  0  0  0
   44.3700   32.7010   36.4960 H   0  0  0  0  0  0  0  0  0  0  0  0
   46.1370   31.5250   36.4310 C   0  0  0  0  0  0  0  0  0  0  0  0
   45.8460   30.9180   35.5910 H   0  0  0  0  0  0  0  0  0  0  0  0
   47.3670   31.2940   37.0110 C   0  0  0  0  0  0  0  0  0  0  0  0
   48.4330   30.0310   36.3830 Cl  0  0  0  0  0  0  0  0  0  0  0  0
  1  2  1  0  0  0  0
  1  9  1  0  0  0  0
  2  7  1  0  0  0  0
  3  8  1  0  0  0  0
  3  2  2  0  0  0  0
  4  3  1  0  0  0  0
  5  4  2  0  0  0  0
  5  6  1  0  0  0  0
  6  1  2  0  0  0  0
  9 15  1  6  0  0  0
  9 14  1  0  0  0  0
 10 16  1  0  0  0  0
 10  9  1  0  0  0  0
 10 11  1  0  0  0  0
 11 12  1  0  0  0  0
 12 21  1  0  0  0  0
 12 13  1  0  0  0  0
 12 20  1  0  0  0  0
 13 23  1  0  0  0  0
 14 25  1  0  0  0  0
 14 24  1  1  0  0  0
 14 13  1  0  0  0  0
 17 10  1  0  0  0  0
 18 11  1  0  0  0  0
 19 11  1  0  0  0  0
 22 13  1  0  0  0  0
 25 26  1  0  0  0  0
 26 28  1  0  0  0  0
 26 27  2  0  0  0  0
 28 31  1  0  0  0  0
 29 25  1  0  0  0  0
 30 28  1  0  0  0  0
 32  5  1  0  0  0  0
 33 32  1  0  0  0  0
 33 38  1  0  0  0  0
 34 33  2  0  0  0  0
 35 36  2  0  0  0  0
 35 34  1  0  0  0  0
 36 37  1  0  0  0  0
 37 32  2  0  0  0  0
 39 34  1  0  0  0  0
 40 35  1  0  0  0  0
 42 43  1  0  0  0  0
 42 41  1  0  0  0  0
 43 36  1  0  0  0  0
 44 45  1  0  0  0  0
 44 43  2  0  0  0  0
 46 44  1  0  0  0  0
 47 46  1  0  0  0  0
 48 46  2  0  0  0  0
 48 50  1  0  0  0  0
 49 48  1  0  0  0  0
 50 42  2  0  0  0  0
 51 50  1  0  0  0  0
M  END
>  <minimizedAffinity>
-6.38998652

>  <minimizedRMSD>
0.63709718

$$$$
