
 OpenBabel03242510233D

 40 44  0  0  1  0  0  0  0  0999 V2000
   48.0220   33.1110   43.2940 N   0  0  0  0  0  0  0  0  0  0  0  0
   49.1300   33.0640   42.4580 C   0  0  0  0  0  0  0  0  0  0  0  0
   50.2570   32.5250   42.6120 O   0  0  0  0  0  0  0  0  0  0  0  0
   47.5770   34.0540   43.2980 H   0  0  0  0  0  0  0  0  0  0  0  0
   46.1810   32.0540   44.5530 C   0  0  1  0  0  0  0  0  0  0  0  0
   46.3380   31.2930   43.3900 C   0  0  0  0  0  0  0  0  0  0  0  0
   47.5690   31.9970   44.0460 C   0  0  1  0  0  0  0  0  0  0  0  0
   45.9680   31.6130   45.5560 H   0  0  0  0  0  0  0  0  0  0  0  0
   46.1150   31.5730   42.3470 H   0  0  0  0  0  0  0  0  0  0  0  0
   46.3360   30.1640   43.4860 H   0  0  0  0  0  0  0  0  0  0  0  0
   48.2870   31.2580   44.4570 H   0  0  0  0  0  0  0  0  0  0  0  0
   45.0110   33.9320   43.1770 C   0  0  0  0  0  0  0  0  0  0  0  0
   45.4820   33.4200   44.4290 C   0  0  0  0  0  0  0  0  0  0  0  0
   45.3090   34.2100   45.5450 C   0  0  0  0  0  0  0  0  0  0  0  0
   44.7150   35.4150   45.4130 N   0  0  0  0  0  0  0  0  0  0  0  0
   44.2740   35.8890   44.2190 C   0  0  0  0  0  0  0  0  0  0  0  0
   44.4330   35.1120   43.0670 N   0  0  0  0  0  0  0  0  0  0  0  0
   45.1290   33.3090   42.3130 H   0  0  0  0  0  0  0  0  0  0  0  0
   45.6540   33.8520   46.5120 H   0  0  0  0  0  0  0  0  0  0  0  0
   43.8060   36.8620   44.1760 H   0  0  0  0  0  0  0  0  0  0  0  0
   49.0620   33.7470   41.1010 C   0  0  2  0  0  0  0  0  0  0  0  0
   48.5450   35.2340   41.1020 C   0  0  0  0  0  0  0  0  0  0  0  0
   47.7800   34.1000   40.4860 C   0  0  1  0  0  0  0  0  0  0  0  0
   49.9590   33.6790   40.4530 H   0  0  0  0  0  0  0  0  0  0  0  0
   48.2240   35.5570   42.1140 H   0  0  0  0  0  0  0  0  0  0  0  0
   49.0040   35.9330   40.4090 H   0  0  0  0  0  0  0  0  0  0  0  0
   46.9240   33.5880   40.9760 H   0  0  0  0  0  0  0  0  0  0  0  0
   47.6970   34.0590   38.9780 C   0  0  0  0  0  0  0  0  0  0  0  0
   48.4930   34.7160   38.3140 O   0  0  0  0  0  0  0  0  0  0  0  0
   45.7880   32.4080   38.8800 C   0  0  0  0  0  3  0  0  0  0  0  0
   46.6950   33.2580   38.2850 C   0  0  0  0  0  0  0  0  0  0  0  0
   46.5970   33.3120   36.9100 C   0  0  0  0  0  0  0  0  0  0  0  0
   47.2460   33.9390   36.3050 H   0  0  0  0  0  0  0  0  0  0  0  0
   45.6800   32.5900   36.1750 C   0  0  0  0  0  0  0  0  0  0  0  0
   44.7930   31.7540   36.8170 C   0  0  0  0  0  0  0  0  0  0  0  0
   44.8560   31.6690   38.1830 C   0  0  0  0  0  3  0  0  0  0  0  0
   43.9920   31.1570   35.8430 O   0  0  0  0  0  0  0  0  0  0  0  0
   44.7010   31.2300   34.5980 C   0  0  0  0  0  3  0  0  0  0  0  0
   45.5320   30.4760   34.5640 H   0  0  0  0  0  0  0  0  0  0  0  0
   45.3860   32.4740   34.8130 O   0  0  0  0  0  0  0  0  0  0  0  0
  1  4  1  0  0  0  0
  1  7  1  0  0  0  0
  2  3  2  0  0  0  0
  2  1  1  0  0  0  0
  5  8  1  1  0  0  0
  6 10  1  0  0  0  0
  6  7  1  0  0  0  0
  6  5  1  0  0  0  0
  7 11  1  1  0  0  0
  7  5  1  0  0  0  0
  9  6  1  0  0  0  0
 12 13  1  0  0  0  0
 13  5  1  0  0  0  0
 13 14  2  0  0  0  0
 14 19  1  0  0  0  0
 15 14  1  0  0  0  0
 16 15  2  0  0  0  0
 17 12  2  0  0  0  0
 17 16  1  0  0  0  0
 18 12  1  0  0  0  0
 20 16  1  0  0  0  0
 21 24  1  6  0  0  0
 21 22  1  0  0  0  0
 21  2  1  0  0  0  0
 22 25  1  0  0  0  0
 23 27  1  1  0  0  0
 23 21  1  0  0  0  0
 23 22  1  0  0  0  0
 26 22  1  0  0  0  0
 28 23  1  0  0  0  0
 29 28  2  0  0  0  0
 31 30  1  0  0  0  0
 31 28  1  0  0  0  0
 32 31  2  0  0  0  0
 33 32  1  0  0  0  0
 34 35  2  0  0  0  0
 34 32  1  0  0  0  0
 35 36  1  0  0  0  0
 36 30  2  0  0  0  0
 37 35  1  0  0  0  0
 38 40  1  0  0  0  0
 38 37  1  0  0  0  0
 39 38  1  0  0  0  0
 40 34  1  0  0  0  0
M  END
>  <minimizedAffinity>
-5.39627266

>  <minimizedRMSD>
0.508429229

$$$$
