
 OpenBabel03242516163D

 45 49  0  0  1  0  0  0  0  0999 V2000
   46.4170   36.0870   42.4460 C   0  0  0  0  0  0  0  0  0  0  0  0
   47.0730   34.8550   42.5460 C   0  0  0  0  0  0  0  0  0  0  0  0
   46.5200   33.8850   43.3880 C   0  0  0  0  0  0  0  0  0  0  0  0
   45.3780   34.1900   44.0630 N   0  0  0  0  0  0  0  0  0  0  0  0
   44.7990   35.3850   43.9270 C   0  0  0  0  0  0  0  0  0  0  0  0
   45.2900   36.3170   43.1450 N   0  0  0  0  0  0  0  0  0  0  0  0
   43.5980   35.7270   44.6290 N   0  0  0  0  0  0  0  0  0  0  0  0
   46.8470   36.8390   41.7900 H   0  0  0  0  0  0  0  0  0  0  0  0
   43.6950   36.5630   45.2630 H   0  0  0  0  0  0  0  0  0  0  0  0
   42.7400   35.1290   44.4580 H   0  0  0  0  0  0  0  0  0  0  0  0
   48.3350   34.6070   41.7750 C   0  0  0  0  0  0  0  0  0  0  0  0
   49.3950   35.6980   41.8890 C   0  0  0  0  0  0  0  0  0  0  0  0
   49.5490   34.3900   42.5000 C   0  0  0  0  0  0  0  0  0  0  0  0
   50.0180   35.9540   41.0040 H   0  0  0  0  0  0  0  0  0  0  0  0
   49.0590   36.6270   42.4000 H   0  0  0  0  0  0  0  0  0  0  0  0
   50.3230   33.7150   42.0330 H   0  0  0  0  0  0  0  0  0  0  0  0
   49.8030   34.5760   43.5570 H   0  0  0  0  0  0  0  0  0  0  0  0
   48.1950   34.0940   40.3840 C   0  0  0  0  0  0  0  0  0  0  0  0
   46.8020   33.6400   39.9950 C   0  0  0  0  0  0  0  0  0  0  0  0
   46.8850   33.2700   38.5220 C   0  0  0  0  0  0  0  0  0  0  0  0
   47.5400   32.0210   38.4730 O   0  0  0  0  0  0  0  0  0  0  0  0
   48.8890   32.3690   38.7470 C   0  0  0  0  0  0  0  0  0  0  0  0
   49.0260   32.7970   40.1970 C   0  0  0  0  0  0  0  0  0  0  0  0
   48.5400   34.8220   39.6510 H   0  0  0  0  0  0  0  0  0  0  0  0
   46.0970   34.5160   40.0340 H   0  0  0  0  0  0  0  0  0  0  0  0
   46.4470   32.7720   40.5840 H   0  0  0  0  0  0  0  0  0  0  0  0
   45.8680   33.1360   38.0730 H   0  0  0  0  0  0  0  0  0  0  0  0
   47.4900   33.9960   37.9590 H   0  0  0  0  0  0  0  0  0  0  0  0
   49.4590   31.4410   38.5940 H   0  0  0  0  0  0  0  0  0  0  0  0
   49.2080   33.2180   38.1250 H   0  0  0  0  0  0  0  0  0  0  0  0
   50.0970   33.0870   40.3090 H   0  0  0  0  0  0  0  0  0  0  0  0
   48.7230   32.0310   40.9150 H   0  0  0  0  0  0  0  0  0  0  0  0
   47.1080   32.6010   43.5840 C   0  0  2  0  0  3  0  0  0  0  0  0
   47.5440   32.1310   44.7150 O   0  0  0  0  0  1  0  0  0  0  0  0
   46.7990   30.5600   42.1250 C   0  0  0  0  0  3  0  0  0  0  0  0
   47.5130   31.3700   42.9650 C   0  0  0  0  0  0  0  0  0  0  0  0
   48.7680   30.8650   43.3330 C   0  0  0  0  0  0  0  0  0  0  0  0
   49.4050   31.4380   43.9950 H   0  0  0  0  0  0  0  0  0  0  0  0
   49.3080   29.6770   42.9330 C   0  0  0  0  0  0  0  0  0  0  0  0
   48.5610   28.8950   42.0910 C   0  0  0  0  0  0  0  0  0  0  0  0
   47.3250   29.3340   41.6950 C   0  0  0  0  0  3  0  0  0  0  0  0
   49.3050   27.7380   41.8160 O   0  0  0  0  0  0  0  0  0  0  0  0
   50.3090   27.6190   42.8190 C   0  0  0  0  0  3  0  0  0  0  0  0
   51.1970   27.1360   42.4190 H   0  0  0  0  0  0  0  0  0  0  0  0
   50.5150   28.9960   43.1770 O   0  0  0  0  0  0  0  0  0  0  0  0
  1  2  2  0  0  0  0
  1  6  1  0  0  0  0
  2  3  1  0  0  0  0
  3 33  1  0  0  0  0
  3  4  2  0  0  0  0
  5  4  1  0  0  0  0
  5  7  1  0  0  0  0
  6  5  2  0  0  0  0
  7  9  1  0  0  0  0
  8  1  1  0  0  0  0
 10  7  1  0  0  0  0
 11 12  1  0  0  0  0
 11 13  1  0  0  0  0
 11  2  1  0  0  0  0
 12 15  1  0  0  0  0
 12 13  1  0  0  0  0
 13 17  1  0  0  0  0
 14 12  1  0  0  0  0
 16 13  1  0  0  0  0
 18 11  1  0  0  0  0
 19 25  1  0  0  0  0
 19 18  1  0  0  0  0
 19 26  1  0  0  0  0
 20 19  1  0  0  0  0
 21 20  1  0  0  0  0
 21 22  1  0  0  0  0
 22 23  1  0  0  0  0
 23 31  1  0  0  0  0
 23 18  1  0  0  0  0
 23 32  1  0  0  0  0
 24 18  1  0  0  0  0
 27 20  1  0  0  0  0
 28 20  1  0  0  0  0
 29 22  1  0  0  0  0
 30 22  1  0  0  0  0
 33 34  1  6  0  0  0
 35 36  1  0  0  0  0
 36 37  2  0  0  0  0
 36 33  1  0  0  0  0
 37 38  1  0  0  0  0
 39 45  1  0  0  0  0
 39 37  1  0  0  0  0
 40 39  2  0  0  0  0
 41 40  1  0  0  0  0
 41 35  2  0  0  0  0
 42 40  1  0  0  0  0
 42 43  1  0  0  0  0
 43 45  1  0  0  0  0
 44 43  1  0  0  0  0
M  END
>  <minimizedAffinity>
-4.93772697

>  <minimizedRMSD>
2.42539644

$$$$
