
 OpenBabel03242523383D

 21 23  0  0  0  0  0  0  0  0999 V2000
   45.1320   33.2580   47.4640 C   0  0  0  0  0  3  0  0  0  0  0  0
   45.9530   33.2310   46.3640 C   0  0  0  0  0  0  0  0  0  0  0  0
   47.0720   32.3960   46.2540 C   0  0  0  0  0  0  0  0  0  0  0  0
   47.6980   32.3850   45.3970 H   0  0  0  0  0  0  0  0  0  0  0  0
   47.2860   31.5850   47.3650 C   0  0  0  0  0  0  0  0  0  0  0  0
   46.5070   31.5570   48.5040 C   0  0  0  0  0  0  0  0  0  0  0  0
   45.4250   32.4250   48.5050 C   0  0  0  0  0  3  0  0  0  0  0  0
   47.0750   30.6160   49.3480 O   0  0  0  0  0  0  0  0  0  0  0  0
   48.3060   30.2030   48.8190 C   0  0  0  0  0  3  0  0  0  0  0  0
   48.3940   29.0950   48.8360 H   0  0  0  0  0  0  0  0  0  0  0  0
   48.3400   30.6630   47.4960 O   0  0  0  0  0  0  0  0  0  0  0  0
   44.4810   35.9050   44.3100 C   0  0  0  0  0  0  0  0  0  0  0  0
   45.1570   35.7490   43.0740 C   0  0  0  0  0  0  0  0  0  0  0  0
   46.1130   34.7130   42.9810 C   0  0  0  0  0  0  0  0  0  0  0  0
   46.3290   33.9360   44.0650 N   0  0  0  0  0  0  0  0  0  0  0  0
   45.6640   34.1200   45.2200 C   0  0  0  0  0  0  0  0  0  0  0  0
   44.7550   35.0900   45.3410 N   0  0  0  0  0  0  0  0  0  0  0  0
   43.7800   36.7130   44.2810 H   0  0  0  0  0  0  0  0  0  0  0  0
   44.9710   36.3780   42.2220 H   0  0  0  0  0  0  0  0  0  0  0  0
   46.9940   34.4640   41.4590 S   0  0  0  0  0  0  0  0  0  0  0  0
   47.6330   33.1920   41.5420 H   0  0  0  0  0  0  0  0  0  0  0  0
  1  7  1  0  0  0  0
  2  1  2  0  0  0  0
  3  2  1  0  0  0  0
  3  5  2  0  0  0  0
  4  3  1  0  0  0  0
  5 11  1  0  0  0  0
  5  6  1  0  0  0  0
  6  7  2  0  0  0  0
  6  8  1  0  0  0  0
  9 10  1  0  0  0  0
  9  8  1  0  0  0  0
 11  9  1  0  0  0  0
 12 17  1  0  0  0  0
 13 12  2  0  0  0  0
 14 13  1  0  0  0  0
 14 15  2  0  0  0  0
 15 16  1  0  0  0  0
 16 17  2  0  0  0  0
 16  2  1  0  0  0  0
 18 12  1  0  0  0  0
 19 13  1  0  0  0  0
 20 21  1  0  0  0  0
 20 14  1  0  0  0  0
M  END
>  <minimizedAffinity>
-5.10002232

>  <minimizedRMSD>
0.421619713

$$$$
