
 OpenBabel03242520403D

 41 45  0  0  1  0  0  0  0  0999 V2000
   45.8520   33.5110   45.7520 C   0  0  0  0  0  0  0  0  0  0  0  0
   46.6620   33.6580   44.5950 C   0  0  0  0  0  0  0  0  0  0  0  0
   47.3430   32.5040   44.1070 C   0  0  0  0  0  0  0  0  0  0  0  0
   47.1880   31.3150   44.7650 N   0  0  0  0  0  0  0  0  0  0  0  0
   46.4000   31.2380   45.8660 C   0  0  0  0  0  0  0  0  0  0  0  0
   45.7450   32.3230   46.3470 N   0  0  0  0  0  0  0  0  0  0  0  0
   46.2980   29.9840   46.4790 N   0  0  0  0  0  0  0  0  0  0  0  0
   47.4570   29.3210   46.9800 C   0  0  2  0  0  0  0  0  0  0  0  0
   47.2510   27.8970   47.3600 C   0  0  0  0  0  0  0  0  0  0  0  0
   45.9650   27.5330   47.8170 N   0  0  0  0  0  0  0  0  0  0  0  0
   45.0470   28.6120   47.9270 C   0  0  0  0  0  0  0  0  0  0  0  0
   45.0060   29.3470   46.6130 C   0  0  0  0  0  0  0  0  0  0  0  0
   45.3750   34.4180   46.0570 H   0  0  0  0  0  0  0  0  0  0  0  0
   46.8330   34.5430   44.0280 H   0  0  0  0  0  0  0  0  0  0  0  0
   47.9720   32.5640   43.2290 H   0  0  0  0  0  0  0  0  0  0  0  0
   48.1730   29.2630   46.1010 H   0  0  0  0  0  0  0  0  0  0  0  0
   47.9800   27.6770   48.1930 H   0  0  0  0  0  0  0  0  0  0  0  0
   47.5330   27.1820   46.5590 H   0  0  0  0  0  0  0  0  0  0  0  0
   45.9450   26.8370   48.5920 H   0  0  0  0  0  0  0  0  0  0  0  0
   44.0240   28.1420   48.0470 H   0  0  0  0  0  0  0  0  0  0  0  0
   45.1760   29.2620   48.7930 H   0  0  0  0  0  0  0  0  0  0  0  0
   44.9490   28.5900   45.8230 H   0  0  0  0  0  0  0  0  0  0  0  0
   44.1900   30.0990   46.5550 H   0  0  0  0  0  0  0  0  0  0  0  0
   48.1390   30.1150   48.0360 C   0  0  0  0  0  0  0  0  0  0  0  0
   47.6760   30.8110   49.1250 C   0  0  0  0  0  0  0  0  0  0  0  0
   48.6710   31.3740   49.8170 N   0  0  0  0  0  0  0  0  0  0  0  0
   49.7850   31.0390   49.1730 C   0  0  0  0  0  0  0  0  0  0  0  0
   49.4700   30.2850   48.1060 N   0  0  0  0  0  0  0  0  0  0  0  0
   46.6320   30.8950   49.3870 H   0  0  0  0  0  0  0  0  0  0  0  0
   48.6270   31.9570   50.6800 H   0  0  0  0  0  0  0  0  0  0  0  0
   51.6350   32.5870   49.9270 C   0  0  0  0  0  3  0  0  0  0  0  0
   51.1870   31.3660   49.4640 C   0  0  0  0  0  0  0  0  0  0  0  0
   52.1210   30.3720   49.2550 C   0  0  0  0  0  0  0  0  0  0  0  0
   51.8080   29.4050   48.8940 H   0  0  0  0  0  0  0  0  0  0  0  0
   53.4690   30.5640   49.4940 C   0  0  0  0  0  0  0  0  0  0  0  0
   53.9230   31.7960   49.9610 C   0  0  0  0  0  0  0  0  0  0  0  0
   52.9810   32.7820   50.1670 C   0  0  0  0  0  3  0  0  0  0  0  0
   55.3180   31.7350   50.1230 O   0  0  0  0  0  0  0  0  0  0  0  0
   55.7070   30.6640   49.2520 C   0  0  0  0  0  3  0  0  0  0  0  0
   56.6560   30.2820   49.6260 H   0  0  0  0  0  0  0  0  0  0  0  0
   54.6150   29.7730   49.3810 O   0  0  0  0  0  0  0  0  0  0  0  0
  1 13  1  0  0  0  0
  1  6  1  0  0  0  0
  2  1  2  0  0  0  0
  3  2  1  0  0  0  0
  3  4  2  0  0  0  0
  4  5  1  0  0  0  0
  5  6  2  0  0  0  0
  5  7  1  0  0  0  0
  7 12  1  0  0  0  0
  7  8  1  0  0  0  0
  8 16  1  6  0  0  0
  8  9  1  0  0  0  0
  8 24  1  0  0  0  0
  9 10  1  0  0  0  0
  9 17  1  0  0  0  0
 10 11  1  0  0  0  0
 10 19  1  0  0  0  0
 11 20  1  0  0  0  0
 11 21  1  0  0  0  0
 12 11  1  0  0  0  0
 14  2  1  0  0  0  0
 15  3  1  0  0  0  0
 18  9  1  0  0  0  0
 22 12  1  0  0  0  0
 23 12  1  0  0  0  0
 24 28  1  0  0  0  0
 24 25  2  0  0  0  0
 25 29  1  0  0  0  0
 25 26  1  0  0  0  0
 26 30  1  0  0  0  0
 27 32  1  0  0  0  0
 27 26  1  0  0  0  0
 28 27  2  0  0  0  0
 31 37  1  0  0  0  0
 32 31  2  0  0  0  0
 33 32  1  0  0  0  0
 33 35  2  0  0  0  0
 34 33  1  0  0  0  0
 35 36  1  0  0  0  0
 36 38  1  0  0  0  0
 36 37  2  0  0  0  0
 39 41  1  0  0  0  0
 39 40  1  0  0  0  0
 39 38  1  0  0  0  0
 41 35  1  0  0  0  0
M  END
>  <minimizedAffinity>
-5.18779993

>  <minimizedRMSD>
0.449068457

$$$$
