
 OpenBabel03252507393D

 40 45  0  0  0  0  0  0  0  0999 V2000
   37.5090   26.6000   42.6610 C   0  0  0  0  0  0  0  0  0  0  0  0
   38.8110   26.8970   43.1090 C   0  0  0  0  0  0  0  0  0  0  0  0
   39.7450   25.8790   43.0950 C   0  0  0  0  0  0  0  0  0  0  0  0
   39.3810   24.6630   42.6590 N   0  0  0  0  0  0  0  0  0  0  0  0
   38.1190   24.3910   42.2280 C   0  0  0  0  0  0  0  0  0  0  0  0
   37.2050   25.3520   42.2330 N   0  0  0  0  0  0  0  0  0  0  0  0
   39.1090   27.8710   43.4600 H   0  0  0  0  0  0  0  0  0  0  0  0
   37.9690   23.3680   41.9060 H   0  0  0  0  0  0  0  0  0  0  0  0
   41.4020   27.1230   44.3760 C   0  0  0  0  0  0  0  0  0  0  0  0
   41.1310   26.0490   43.5310 C   0  0  0  0  0  0  0  0  0  0  0  0
   42.1680   25.2260   43.1640 C   0  0  0  0  0  0  0  0  0  0  0  0
   43.4570   25.4310   43.6060 C   0  0  0  0  0  0  0  0  0  0  0  0
   44.6140   24.7530   43.3730 N   0  0  0  0  0  0  0  0  0  0  0  0
   45.6090   25.4090   44.0790 C   0  0  0  0  0  0  0  0  0  0  0  0
   45.0530   26.4480   44.7100 N   0  0  0  0  0  0  0  0  0  0  0  0
   43.7330   26.4830   44.4370 C   0  0  0  0  0  0  0  0  0  0  0  0
   42.7110   27.3240   44.8190 C   0  0  0  0  0  0  0  0  0  0  0  0
   40.6440   27.8260   44.7190 H   0  0  0  0  0  0  0  0  0  0  0  0
   41.9500   24.3900   42.5050 H   0  0  0  0  0  0  0  0  0  0  0  0
   44.7120   23.8970   42.7700 H   0  0  0  0  0  0  0  0  0  0  0  0
   46.6480   25.1230   44.1060 H   0  0  0  0  0  0  0  0  0  0  0  0
   42.9400   28.1550   45.4780 H   0  0  0  0  0  0  0  0  0  0  0  0
   36.5580   27.6170   42.6690 O   0  0  0  0  0  0  0  0  0  0  0  0
   36.7330   28.7480   41.8810 C   0  0  0  0  0  0  0  0  0  0  0  0
   35.7680   28.5620   40.9580 C   0  0  0  0  0  0  0  0  0  0  0  0
   35.9930   30.1150   39.8620 S   0  0  0  0  0  0  0  0  0  0  0  0
   37.4110   30.6650   40.9760 C   0  0  0  0  0  0  0  0  0  0  0  0
   37.4290   29.8450   41.7070 N   0  0  0  0  0  0  0  0  0  0  0  0
   34.8570   28.0460   40.3840 H   0  0  0  0  0  0  0  0  0  0  0  0
   37.4210   33.0160   40.1060 C   0  0  0  0  0  3  0  0  0  0  0  0
   38.1060   31.9580   40.6330 C   0  0  0  0  0  0  0  0  0  0  0  0
   39.4340   31.8960   40.9190 C   0  0  0  0  0  0  0  0  0  0  0  0
   39.9460   31.0420   41.3370 H   0  0  0  0  0  0  0  0  0  0  0  0
   40.1660   33.0550   40.6330 C   0  0  0  0  0  0  0  0  0  0  0  0
   39.5220   34.1690   40.0930 C   0  0  0  0  0  0  0  0  0  0  0  0
   38.1560   34.1550   39.8280 C   0  0  0  0  0  3  0  0  0  0  0  0
   40.4950   35.1680   39.9150 O   0  0  0  0  0  0  0  0  0  0  0  0
   41.6400   34.8040   40.6840 C   0  0  0  0  0  3  0  0  0  0  0  0
   42.5800   35.1080   40.2120 H   0  0  0  0  0  0  0  0  0  0  0  0
   41.5230   33.3940   40.7760 O   0  0  0  0  0  0  0  0  0  0  0  0
  1 23  1  0  0  0  0
  1  2  1  0  0  0  0
  2  7  1  0  0  0  0
  3  2  2  0  0  0  0
  3 10  1  0  0  0  0
  4  3  1  0  0  0  0
  5  6  1  0  0  0  0
  5  4  2  0  0  0  0
  6  1  2  0  0  0  0
  8  5  1  0  0  0  0
  9 18  1  0  0  0  0
  9 17  1  0  0  0  0
 10  9  2  0  0  0  0
 11 10  1  0  0  0  0
 11 12  2  0  0  0  0
 12 16  1  0  0  0  0
 13 12  1  0  0  0  0
 13 14  1  0  0  0  0
 14 21  1  0  0  0  0
 14 15  2  0  0  0  0
 16 15  1  0  0  0  0
 16 17  2  0  0  0  0
 17 22  1  0  0  0  0
 19 11  1  0  0  0  0
 20 13  1  0  0  0  0
 24 23  1  0  0  0  0
 25 24  2  0  0  0  0
 26 25  1  0  0  0  0
 26 27  1  0  0  0  0
 27 28  2  0  0  0  0
 28 24  1  0  0  0  0
 29 25  1  0  0  0  0
 30 31  1  0  0  0  0
 31 32  2  0  0  0  0
 31 27  1  0  0  0  0
 32 33  1  0  0  0  0
 34 40  1  0  0  0  0
 34 32  1  0  0  0  0
 35 34  2  0  0  0  0
 36 35  1  0  0  0  0
 36 30  2  0  0  0  0
 37 35  1  0  0  0  0
 37 38  1  0  0  0  0
 38 40  1  0  0  0  0
 39 38  1  0  0  0  0
M  END
>  <minimizedAffinity>
-7.44711542

$$$$

 OpenBabel03252507393D

 40 45  0  0  0  0  0  0  0  0999 V2000
   38.7340   33.6620   40.0420 C   0  0  0  0  0  0  0  0  0  0  0  0
   39.8570   33.0790   39.4240 C   0  0  0  0  0  0  0  0  0  0  0  0
   40.9550   33.8850   39.1920 C   0  0  0  0  0  0  0  0  0  0  0  0
   40.9110   35.1750   39.5610 N   0  0  0  0  0  0  0  0  0  0  0  0
   39.8180   35.7240   40.1580 C   0  0  0  0  0  0  0  0  0  0  0  0
   38.7510   34.9710   40.3900 N   0  0  0  0  0  0  0  0  0  0  0  0
   39.8990   32.0450   39.1260 H   0  0  0  0  0  0  0  0  0  0  0  0
   39.9230   36.7750   40.3990 H   0  0  0  0  0  0  0  0  0  0  0  0
   43.3790   33.9960   38.9770 C   0  0  0  0  0  0  0  0  0  0  0  0
   42.1870   33.4100   38.5610 C   0  0  0  0  0  0  0  0  0  0  0  0
   42.2390   32.4330   37.5950 C   0  0  0  0  0  0  0  0  0  0  0  0
   43.4270   32.0210   37.0340 C   0  0  0  0  0  0  0  0  0  0  0  0
   43.7060   31.0880   36.0830 N   0  0  0  0  0  0  0  0  0  0  0  0
   45.0800   31.0960   35.9080 C   0  0  0  0  0  0  0  0  0  0  0  0
   45.5980   32.0100   36.7350 N   0  0  0  0  0  0  0  0  0  0  0  0
   44.6050   32.5920   37.4380 C   0  0  0  0  0  0  0  0  0  0  0  0
   44.5800   33.5740   38.4030 C   0  0  0  0  0  0  0  0  0  0  0  0
   43.4350   34.7760   39.7350 H   0  0  0  0  0  0  0  0  0  0  0  0
   41.3040   31.9800   37.2750 H   0  0  0  0  0  0  0  0  0  0  0  0
   42.9990   30.4870   35.5880 H   0  0  0  0  0  0  0  0  0  0  0  0
   45.6260   30.4690   35.2230 H   0  0  0  0  0  0  0  0  0  0  0  0
   45.5190   34.0190   38.7160 H   0  0  0  0  0  0  0  0  0  0  0  0
   37.6200   32.8620   40.2810 O   0  0  0  0  0  0  0  0  0  0  0  0
   37.7680   31.6160   40.8790 C   0  0  0  0  0  0  0  0  0  0  0  0
   36.5360   31.1010   40.6930 C   0  0  0  0  0  0  0  0  0  0  0  0
   36.7230   29.3790   41.5080 S   0  0  0  0  0  0  0  0  0  0  0  0
   38.5140   29.7980   41.9240 C   0  0  0  0  0  0  0  0  0  0  0  0
   38.5900   30.8110   41.5060 N   0  0  0  0  0  0  0  0  0  0  0  0
   35.3970   31.0310   40.3440 H   0  0  0  0  0  0  0  0  0  0  0  0
   38.7290   27.6740   43.2390 C   0  0  0  0  0  3  0  0  0  0  0  0
   39.3240   28.7540   42.6500 C   0  0  0  0  0  0  0  0  0  0  0  0
   40.6510   29.0500   42.6210 C   0  0  0  0  0  0  0  0  0  0  0  0
   41.0900   29.9150   42.1450 H   0  0  0  0  0  0  0  0  0  0  0  0
   41.4860   28.1350   43.2730 C   0  0  0  0  0  0  0  0  0  0  0  0
   40.9370   27.0120   43.8930 C   0  0  0  0  0  0  0  0  0  0  0  0
   39.5650   26.7780   43.8800 C   0  0  0  0  0  3  0  0  0  0  0  0
   42.0010   26.2850   44.4560 O   0  0  0  0  0  0  0  0  0  0  0  0
   43.2110   26.7540   43.8650 C   0  0  0  0  0  3  0  0  0  0  0  0
   44.0560   26.7380   44.5630 H   0  0  0  0  0  0  0  0  0  0  0  0
   42.8770   28.0740   43.4680 O   0  0  0  0  0  0  0  0  0  0  0  0
  1 23  1  0  0  0  0
  1  6  1  0  0  0  0
  2  1  2  0  0  0  0
  3  2  1  0  0  0  0
  3  4  2  0  0  0  0
  4  5  1  0  0  0  0
  5  6  2  0  0  0  0
  5  8  1  0  0  0  0
  7  2  1  0  0  0  0
  9 18  1  0  0  0  0
 10  9  1  0  0  0  0
 10  3  1  0  0  0  0
 11 10  2  0  0  0  0
 12 16  2  0  0  0  0
 12 11  1  0  0  0  0
 13 12  1  0  0  0  0
 14 13  1  0  0  0  0
 14 15  2  0  0  0  0
 15 16  1  0  0  0  0
 16 17  1  0  0  0  0
 17 22  1  0  0  0  0
 17  9  2  0  0  0  0
 19 11  1  0  0  0  0
 20 13  1  0  0  0  0
 21 14  1  0  0  0  0
 23 24  1  0  0  0  0
 24 28  1  0  0  0  0
 25 24  2  0  0  0  0
 25 26  1  0  0  0  0
 26 27  1  0  0  0  0
 27 31  1  0  0  0  0
 28 27  2  0  0  0  0
 29 25  1  0  0  0  0
 30 36  1  0  0  0  0
 31 30  2  0  0  0  0
 32 31  1  0  0  0  0
 32 34  2  0  0  0  0
 33 32  1  0  0  0  0
 34 40  1  0  0  0  0
 34 35  1  0  0  0  0
 35 37  1  0  0  0  0
 36 35  2  0  0  0  0
 38 37  1  0  0  0  0
 38 39  1  0  0  0  0
 40 38  1  0  0  0  0
M  END
>  <minimizedAffinity>
-7.1980238

$$$$

 OpenBabel03252507393D

 40 45  0  0  0  0  0  0  0  0999 V2000
   38.9590   34.0870   40.0660 C   0  0  0  0  0  0  0  0  0  0  0  0
   39.8120   33.2440   39.3270 C   0  0  0  0  0  0  0  0  0  0  0  0
   41.0440   33.7430   38.9510 C   0  0  0  0  0  0  0  0  0  0  0  0
   41.3770   34.9950   39.3010 N   0  0  0  0  0  0  0  0  0  0  0  0
   40.5430   35.7980   40.0160 C   0  0  0  0  0  0  0  0  0  0  0  0
   39.3540   35.3410   40.3870 N   0  0  0  0  0  0  0  0  0  0  0  0
   39.5510   32.2380   39.0430 H   0  0  0  0  0  0  0  0  0  0  0  0
   40.9420   36.7830   40.2250 H   0  0  0  0  0  0  0  0  0  0  0  0
   43.3550   33.3870   38.2660 C   0  0  0  0  0  0  0  0  0  0  0  0
   42.0260   32.9770   38.1840 C   0  0  0  0  0  0  0  0  0  0  0  0
   41.7240   31.8900   37.3990 C   0  0  0  0  0  0  0  0  0  0  0  0
   42.6890   31.2020   36.6970 C   0  0  0  0  0  0  0  0  0  0  0  0
   42.6150   30.1190   35.8760 N   0  0  0  0  0  0  0  0  0  0  0  0
   43.9050   29.8570   35.4460 C   0  0  0  0  0  0  0  0  0  0  0  0
   44.7190   30.7620   35.9990 N   0  0  0  0  0  0  0  0  0  0  0  0
   43.9980   31.5990   36.7720 C   0  0  0  0  0  0  0  0  0  0  0  0
   44.3280   32.6860   37.5520 C   0  0  0  0  0  0  0  0  0  0  0  0
   43.6870   34.2360   38.8620 H   0  0  0  0  0  0  0  0  0  0  0  0
   40.6850   31.5750   37.3400 H   0  0  0  0  0  0  0  0  0  0  0  0
   41.7370   29.5970   35.6280 H   0  0  0  0  0  0  0  0  0  0  0  0
   44.1920   29.0590   34.7810 H   0  0  0  0  0  0  0  0  0  0  0  0
   45.3670   32.9920   37.6040 H   0  0  0  0  0  0  0  0  0  0  0  0
   37.7140   33.5960   40.4510 O   0  0  0  0  0  0  0  0  0  0  0  0
   37.4440   32.2350   40.3760 C   0  0  0  0  0  0  0  0  0  0  0  0
   36.9330   32.1490   39.1310 C   0  0  0  0  0  0  0  0  0  0  0  0
   36.5580   30.2760   39.0090 S   0  0  0  0  0  0  0  0  0  0  0  0
   37.2170   30.0550   40.7610 C   0  0  0  0  0  0  0  0  0  0  0  0
   37.4960   31.0880   41.0090 N   0  0  0  0  0  0  0  0  0  0  0  0
   36.5620   32.4950   38.0510 H   0  0  0  0  0  0  0  0  0  0  0  0
   37.3210   28.4510   42.6850 C   0  0  0  0  0  3  0  0  0  0  0  0
   37.2060   28.6630   41.3410 C   0  0  0  0  0  0  0  0  0  0  0  0
   37.0720   27.7230   40.3660 C   0  0  0  0  0  0  0  0  0  0  0  0
   36.9830   27.9250   39.3090 H   0  0  0  0  0  0  0  0  0  0  0  0
   37.0510   26.3950   40.8100 C   0  0  0  0  0  0  0  0  0  0  0  0
   37.1640   26.1150   42.1720 C   0  0  0  0  0  0  0  0  0  0  0  0
   37.2990   27.1340   43.1100 C   0  0  0  0  0  3  0  0  0  0  0  0
   37.1130   24.7170   42.3160 O   0  0  0  0  0  0  0  0  0  0  0  0
   36.5960   24.1730   41.1030 C   0  0  0  0  0  3  0  0  0  0  0  0
   37.0330   23.1990   40.8580 H   0  0  0  0  0  0  0  0  0  0  0  0
   36.9320   25.1620   40.1450 O   0  0  0  0  0  0  0  0  0  0  0  0
  1  6  1  0  0  0  0
  1 23  1  0  0  0  0
  2  1  2  0  0  0  0
  3  4  2  0  0  0  0
  3  2  1  0  0  0  0
  4  5  1  0  0  0  0
  5  8  1  0  0  0  0
  5  6  2  0  0  0  0
  7  2  1  0  0  0  0
  9 18  1  0  0  0  0
 10  9  1  0  0  0  0
 10  3  1  0  0  0  0
 11 10  2  0  0  0  0
 12 16  2  0  0  0  0
 12 11  1  0  0  0  0
 13 12  1  0  0  0  0
 14 13  1  0  0  0  0
 14 15  2  0  0  0  0
 15 16  1  0  0  0  0
 16 17  1  0  0  0  0
 17 22  1  0  0  0  0
 17  9  2  0  0  0  0
 19 11  1  0  0  0  0
 20 13  1  0  0  0  0
 21 14  1  0  0  0  0
 24 23  1  0  0  0  0
 24 28  1  0  0  0  0
 25 24  2  0  0  0  0
 26 25  1  0  0  0  0
 26 27  1  0  0  0  0
 27 28  2  0  0  0  0
 27 31  1  0  0  0  0
 29 25  1  0  0  0  0
 30 36  1  0  0  0  0
 31 30  2  0  0  0  0
 32 34  2  0  0  0  0
 32 31  1  0  0  0  0
 33 32  1  0  0  0  0
 34 35  1  0  0  0  0
 35 37  1  0  0  0  0
 35 36  2  0  0  0  0
 38 37  1  0  0  0  0
 39 38  1  0  0  0  0
 40 34  1  0  0  0  0
 40 38  1  0  0  0  0
M  END
>  <minimizedAffinity>
-7.15930843

$$$$

 OpenBabel03252507393D

 40 45  0  0  0  0  0  0  0  0999 V2000
   37.0610   29.0500   41.9250 C   0  0  0  0  0  0  0  0  0  0  0  0
   38.0110   30.0840   41.8260 C   0  0  0  0  0  0  0  0  0  0  0  0
   37.7620   31.1050   40.9290 C   0  0  0  0  0  0  0  0  0  0  0  0
   36.6370   31.0730   40.1970 N   0  0  0  0  0  0  0  0  0  0  0  0
   35.7270   30.0670   40.3040 C   0  0  0  0  0  0  0  0  0  0  0  0
   35.9460   29.0750   41.1570 N   0  0  0  0  0  0  0  0  0  0  0  0
   38.9150   30.1160   42.4110 H   0  0  0  0  0  0  0  0  0  0  0  0
   34.8690   30.1700   39.6520 H   0  0  0  0  0  0  0  0  0  0  0  0
   40.0250   32.0050   40.8900 C   0  0  0  0  0  0  0  0  0  0  0  0
   38.6620   32.2400   40.7270 C   0  0  0  0  0  0  0  0  0  0  0  0
   38.2520   33.5080   40.3890 C   0  0  0  0  0  0  0  0  0  0  0  0
   39.1430   34.5420   40.2090 C   0  0  0  0  0  0  0  0  0  0  0  0
   38.9610   35.8500   39.8780 N   0  0  0  0  0  0  0  0  0  0  0  0
   40.2180   36.4290   39.8360 C   0  0  0  0  0  0  0  0  0  0  0  0
   41.1190   35.4870   40.1350 N   0  0  0  0  0  0  0  0  0  0  0  0
   40.4860   34.3200   40.3670 C   0  0  0  0  0  0  0  0  0  0  0  0
   40.9230   33.0580   40.7060 C   0  0  0  0  0  0  0  0  0  0  0  0
   40.4410   31.0340   41.1560 H   0  0  0  0  0  0  0  0  0  0  0  0
   37.1870   33.6850   40.2640 H   0  0  0  0  0  0  0  0  0  0  0  0
   38.0340   36.3120   39.6950 H   0  0  0  0  0  0  0  0  0  0  0  0
   40.4230   37.4610   39.6020 H   0  0  0  0  0  0  0  0  0  0  0  0
   41.9880   32.8930   40.8290 H   0  0  0  0  0  0  0  0  0  0  0  0
   37.3000   28.0150   42.8250 O   0  0  0  0  0  0  0  0  0  0  0  0
   37.5660   26.7320   42.3630 C   0  0  0  0  0  0  0  0  0  0  0  0
   38.7300   26.4740   42.9930 C   0  0  0  0  0  0  0  0  0  0  0  0
   39.1110   24.7050   42.3690 S   0  0  0  0  0  0  0  0  0  0  0  0
   37.5210   24.7480   41.3550 C   0  0  0  0  0  0  0  0  0  0  0  0
   37.1450   25.7490   41.6040 N   0  0  0  0  0  0  0  0  0  0  0  0
   39.6800   26.6440   43.6950 H   0  0  0  0  0  0  0  0  0  0  0  0
   38.0570   22.4830   40.4230 C   0  0  0  0  0  3  0  0  0  0  0  0
   37.1840   23.5280   40.5350 C   0  0  0  0  0  0  0  0  0  0  0  0
   35.9520   23.6390   39.9690 C   0  0  0  0  0  0  0  0  0  0  0  0
   35.2850   24.4810   40.0790 H   0  0  0  0  0  0  0  0  0  0  0  0
   35.5510   22.5500   39.1860 C   0  0  0  0  0  0  0  0  0  0  0  0
   36.3990   21.4530   39.0330 C   0  0  0  0  0  0  0  0  0  0  0  0
   37.6470   21.4140   39.6460 C   0  0  0  0  0  3  0  0  0  0  0  0
   35.7380   20.5270   38.2050 O   0  0  0  0  0  0  0  0  0  0  0  0
   34.3580   20.8870   38.1630 C   0  0  0  0  0  3  0  0  0  0  0  0
   33.8960   20.6760   37.1930 H   0  0  0  0  0  0  0  0  0  0  0  0
   34.3850   22.2760   38.4480 O   0  0  0  0  0  0  0  0  0  0  0  0
  1 23  1  0  0  0  0
  2  1  1  0  0  0  0
  2  7  1  0  0  0  0
  3  2  2  0  0  0  0
  4  5  2  0  0  0  0
  4  3  1  0  0  0  0
  5  6  1  0  0  0  0
  6  1  2  0  0  0  0
  8  5  1  0  0  0  0
  9 18  1  0  0  0  0
 10  9  1  0  0  0  0
 10  3  1  0  0  0  0
 11 10  2  0  0  0  0
 12 16  2  0  0  0  0
 12 11  1  0  0  0  0
 13 12  1  0  0  0  0
 14 13  1  0  0  0  0
 14 15  2  0  0  0  0
 15 16  1  0  0  0  0
 16 17  1  0  0  0  0
 17 22  1  0  0  0  0
 17  9  2  0  0  0  0
 19 11  1  0  0  0  0
 20 13  1  0  0  0  0
 21 14  1  0  0  0  0
 24 23  1  0  0  0  0
 24 25  2  0  0  0  0
 25 29  1  0  0  0  0
 26 25  1  0  0  0  0
 27 28  2  0  0  0  0
 27 26  1  0  0  0  0
 28 24  1  0  0  0  0
 30 31  1  0  0  0  0
 31 27  1  0  0  0  0
 32 33  1  0  0  0  0
 32 31  2  0  0  0  0
 34 32  1  0  0  0  0
 35 34  2  0  0  0  0
 35 36  1  0  0  0  0
 36 30  2  0  0  0  0
 37 35  1  0  0  0  0
 38 37  1  0  0  0  0
 38 40  1  0  0  0  0
 39 38  1  0  0  0  0
 40 34  1  0  0  0  0
M  END
>  <minimizedAffinity>
-7.05857182

$$$$

 OpenBabel03252507393D

 40 45  0  0  0  0  0  0  0  0999 V2000
   37.3700   29.1920   42.1110 C   0  0  0  0  0  0  0  0  0  0  0  0
   38.3040   30.2320   41.9410 C   0  0  0  0  0  0  0  0  0  0  0  0
   37.9770   31.2560   41.0720 C   0  0  0  0  0  0  0  0  0  0  0  0
   36.7970   31.2200   40.4330 N   0  0  0  0  0  0  0  0  0  0  0  0
   35.9040   30.2090   40.6080 C   0  0  0  0  0  0  0  0  0  0  0  0
   36.1960   29.2140   41.4360 N   0  0  0  0  0  0  0  0  0  0  0  0
   39.2520   30.2660   42.4510 H   0  0  0  0  0  0  0  0  0  0  0  0
   34.9960   30.3110   40.0280 H   0  0  0  0  0  0  0  0  0  0  0  0
   40.2250   32.1750   40.8840 C   0  0  0  0  0  0  0  0  0  0  0  0
   38.8520   32.3970   40.8040 C   0  0  0  0  0  0  0  0  0  0  0  0
   38.4100   33.6570   40.4800 C   0  0  0  0  0  0  0  0  0  0  0  0
   39.2780   34.6980   40.2350 C   0  0  0  0  0  0  0  0  0  0  0  0
   39.0630   36.0010   39.9040 N   0  0  0  0  0  0  0  0  0  0  0  0
   40.3100   36.5900   39.7790 C   0  0  0  0  0  0  0  0  0  0  0  0
   41.2370   35.6600   40.0300 N   0  0  0  0  0  0  0  0  0  0  0  0
   40.6300   34.4890   40.3120 C   0  0  0  0  0  0  0  0  0  0  0  0
   41.0990   33.2350   40.6350 C   0  0  0  0  0  0  0  0  0  0  0  0
   40.6660   31.2110   41.1340 H   0  0  0  0  0  0  0  0  0  0  0  0
   37.3370   33.8230   40.4190 H   0  0  0  0  0  0  0  0  0  0  0  0
   38.1230   36.4520   39.7740 H   0  0  0  0  0  0  0  0  0  0  0  0
   40.4900   37.6220   39.5220 H   0  0  0  0  0  0  0  0  0  0  0  0
   42.1720   33.0810   40.6930 H   0  0  0  0  0  0  0  0  0  0  0  0
   37.6870   28.1540   42.9830 O   0  0  0  0  0  0  0  0  0  0  0  0
   37.8460   26.8590   42.5030 C   0  0  0  0  0  0  0  0  0  0  0  0
   38.9730   26.4900   43.1460 C   0  0  0  0  0  0  0  0  0  0  0  0
   39.2060   24.7050   42.4990 S   0  0  0  0  0  0  0  0  0  0  0  0
   37.6430   24.9030   41.4630 C   0  0  0  0  0  0  0  0  0  0  0  0
   37.3530   25.9300   41.7220 N   0  0  0  0  0  0  0  0  0  0  0  0
   39.9220   26.5650   43.8640 H   0  0  0  0  0  0  0  0  0  0  0  0
   36.0380   23.7480   39.9220 C   0  0  0  0  0  3  0  0  0  0  0  0
   37.2130   23.7300   40.6170 C   0  0  0  0  0  0  0  0  0  0  0  0
   38.1290   22.7260   40.6630 C   0  0  0  0  0  0  0  0  0  0  0  0
   39.0520   22.7440   41.2250 H   0  0  0  0  0  0  0  0  0  0  0  0
   37.8150   21.5900   39.9070 C   0  0  0  0  0  0  0  0  0  0  0  0
   36.6280   21.5490   39.1750 C   0  0  0  0  0  0  0  0  0  0  0  0
   35.7390   22.6200   39.1790 C   0  0  0  0  0  3  0  0  0  0  0  0
   36.5830   20.3030   38.5240 O   0  0  0  0  0  0  0  0  0  0  0  0
   37.8960   19.7470   38.5550 C   0  0  0  0  0  3  0  0  0  0  0  0
   37.8900   18.6550   38.6420 H   0  0  0  0  0  0  0  0  0  0  0  0
   38.4740   20.3670   39.6910 O   0  0  0  0  0  0  0  0  0  0  0  0
  1 23  1  0  0  0  0
  2  1  1  0  0  0  0
  2  7  1  0  0  0  0
  3  2  2  0  0  0  0
  4  5  2  0  0  0  0
  4  3  1  0  0  0  0
  5  6  1  0  0  0  0
  6  1  2  0  0  0  0
  8  5  1  0  0  0  0
  9 18  1  0  0  0  0
 10  9  1  0  0  0  0
 10  3  1  0  0  0  0
 11 10  2  0  0  0  0
 12 16  2  0  0  0  0
 12 11  1  0  0  0  0
 13 12  1  0  0  0  0
 14 13  1  0  0  0  0
 14 15  2  0  0  0  0
 15 16  1  0  0  0  0
 16 17  1  0  0  0  0
 17 22  1  0  0  0  0
 17  9  2  0  0  0  0
 19 11  1  0  0  0  0
 20 13  1  0  0  0  0
 21 14  1  0  0  0  0
 24 23  1  0  0  0  0
 24 25  2  0  0  0  0
 25 29  1  0  0  0  0
 26 25  1  0  0  0  0
 27 28  2  0  0  0  0
 27 26  1  0  0  0  0
 28 24  1  0  0  0  0
 30 31  1  0  0  0  0
 31 32  2  0  0  0  0
 31 27  1  0  0  0  0
 32 33  1  0  0  0  0
 34 32  1  0  0  0  0
 35 36  1  0  0  0  0
 35 34  2  0  0  0  0
 36 30  2  0  0  0  0
 37 38  1  0  0  0  0
 37 35  1  0  0  0  0
 38 39  1  0  0  0  0
 38 40  1  0  0  0  0
 40 34  1  0  0  0  0
M  END
>  <minimizedAffinity>
-7.03476238

$$$$

 OpenBabel03252507393D

 40 45  0  0  0  0  0  0  0  0999 V2000
   37.0730   28.8750   42.1620 C   0  0  0  0  0  0  0  0  0  0  0  0
   36.8750   27.7430   41.3480 C   0  0  0  0  0  0  0  0  0  0  0  0
   37.4060   26.5410   41.7750 C   0  0  0  0  0  0  0  0  0  0  0  0
   38.0800   26.4990   42.9340 N   0  0  0  0  0  0  0  0  0  0  0  0
   38.2630   27.6010   43.7120 C   0  0  0  0  0  0  0  0  0  0  0  0
   37.7630   28.7660   43.3220 N   0  0  0  0  0  0  0  0  0  0  0  0
   36.3340   27.7710   40.4160 H   0  0  0  0  0  0  0  0  0  0  0  0
   38.8270   27.4190   44.6180 H   0  0  0  0  0  0  0  0  0  0  0  0
   36.4720   25.3120   39.8900 C   0  0  0  0  0  0  0  0  0  0  0  0
   37.2740   25.2900   41.0280 C   0  0  0  0  0  0  0  0  0  0  0  0
   37.8860   24.1090   41.3760 C   0  0  0  0  0  0  0  0  0  0  0  0
   37.7290   22.9580   40.6360 C   0  0  0  0  0  0  0  0  0  0  0  0
   38.2320   21.7030   40.7920 N   0  0  0  0  0  0  0  0  0  0  0  0
   37.7390   20.9430   39.7460 C   0  0  0  0  0  0  0  0  0  0  0  0
   36.9640   21.7280   38.9910 N   0  0  0  0  0  0  0  0  0  0  0  0
   36.9420   22.9710   39.5150 C   0  0  0  0  0  0  0  0  0  0  0  0
   36.3170   24.1410   39.1460 C   0  0  0  0  0  0  0  0  0  0  0  0
   35.9480   26.2010   39.5400 H   0  0  0  0  0  0  0  0  0  0  0  0
   38.5110   24.0990   42.2650 H   0  0  0  0  0  0  0  0  0  0  0  0
   38.8720   21.3920   41.5680 H   0  0  0  0  0  0  0  0  0  0  0  0
   37.9500   19.8990   39.5780 H   0  0  0  0  0  0  0  0  0  0  0  0
   35.6950   24.1400   38.2560 H   0  0  0  0  0  0  0  0  0  0  0  0
   36.5420   30.0930   41.7440 O   0  0  0  0  0  0  0  0  0  0  0  0
   37.2400   30.8880   40.8430 C   0  0  0  0  0  0  0  0  0  0  0  0
   36.3570   30.9480   39.8250 C   0  0  0  0  0  0  0  0  0  0  0  0
   37.3020   32.0450   38.5740 S   0  0  0  0  0  0  0  0  0  0  0  0
   38.7340   32.1600   39.7940 C   0  0  0  0  0  0  0  0  0  0  0  0
   38.3480   31.5530   40.6240 N   0  0  0  0  0  0  0  0  0  0  0  0
   35.3580   30.7530   39.2020 H   0  0  0  0  0  0  0  0  0  0  0  0
   40.1160   34.2520   39.8230 C   0  0  0  0  0  3  0  0  0  0  0  0
   39.9380   32.9710   39.3830 C   0  0  0  0  0  0  0  0  0  0  0  0
   40.7540   32.2600   38.5600 C   0  0  0  0  0  0  0  0  0  0  0  0
   40.5830   31.2460   38.2310 H   0  0  0  0  0  0  0  0  0  0  0  0
   41.9020   32.9330   38.1240 C   0  0  0  0  0  0  0  0  0  0  0  0
   42.1400   34.2440   38.5390 C   0  0  0  0  0  0  0  0  0  0  0  0
   41.2540   34.9050   39.3840 C   0  0  0  0  0  3  0  0  0  0  0  0
   43.3500   34.6540   37.9510 O   0  0  0  0  0  0  0  0  0  0  0  0
   44.0300   33.4880   37.4920 C   0  0  0  0  0  3  0  0  0  0  0  0
   44.6010   33.6650   36.5750 H   0  0  0  0  0  0  0  0  0  0  0  0
   42.9720   32.5660   37.2890 O   0  0  0  0  0  0  0  0  0  0  0  0
  1  6  1  0  0  0  0
  2  3  1  0  0  0  0
  2  1  2  0  0  0  0
  3  4  2  0  0  0  0
  4  5  1  0  0  0  0
  5  8  1  0  0  0  0
  6  5  2  0  0  0  0
  7  2  1  0  0  0  0
  9 10  1  0  0  0  0
 10 11  2  0  0  0  0
 10  3  1  0  0  0  0
 11 19  1  0  0  0  0
 12 13  1  0  0  0  0
 12 11  1  0  0  0  0
 13 20  1  0  0  0  0
 14 13  1  0  0  0  0
 15 16  1  0  0  0  0
 15 14  2  0  0  0  0
 16 12  2  0  0  0  0
 17 16  1  0  0  0  0
 17  9  2  0  0  0  0
 18  9  1  0  0  0  0
 21 14  1  0  0  0  0
 22 17  1  0  0  0  0
 23  1  1  0  0  0  0
 24 23  1  0  0  0  0
 25 24  2  0  0  0  0
 26 27  1  0  0  0  0
 26 25  1  0  0  0  0
 27 28  2  0  0  0  0
 28 24  1  0  0  0  0
 29 25  1  0  0  0  0
 31 27  1  0  0  0  0
 31 30  2  0  0  0  0
 32 31  1  0  0  0  0
 33 32  1  0  0  0  0
 34 35  1  0  0  0  0
 34 32  2  0  0  0  0
 35 36  2  0  0  0  0
 36 30  1  0  0  0  0
 37 35  1  0  0  0  0
 38 37  1  0  0  0  0
 39 38  1  0  0  0  0
 40 38  1  0  0  0  0
 40 34  1  0  0  0  0
M  END
>  <minimizedAffinity>
-6.91230774

$$$$

 OpenBabel03252507393D

 40 45  0  0  0  0  0  0  0  0999 V2000
   36.3460   28.3390   41.3770 C   0  0  0  0  0  0  0  0  0  0  0  0
   36.7110   27.2330   40.5850 C   0  0  0  0  0  0  0  0  0  0  0  0
   37.2950   26.1530   41.2170 C   0  0  0  0  0  0  0  0  0  0  0  0
   37.4890   26.1980   42.5450 N   0  0  0  0  0  0  0  0  0  0  0  0
   37.1310   27.2730   43.2970 C   0  0  0  0  0  0  0  0  0  0  0  0
   36.5690   28.3230   42.7120 N   0  0  0  0  0  0  0  0  0  0  0  0
   36.5580   27.1910   39.5200 H   0  0  0  0  0  0  0  0  0  0  0  0
   37.3480   27.1710   44.3530 H   0  0  0  0  0  0  0  0  0  0  0  0
   38.1620   25.0890   39.2050 C   0  0  0  0  0  0  0  0  0  0  0  0
   37.7210   24.9410   40.5170 C   0  0  0  0  0  0  0  0  0  0  0  0
   37.7130   23.6820   41.0670 C   0  0  0  0  0  0  0  0  0  0  0  0
   38.1260   22.5720   40.3630 C   0  0  0  0  0  0  0  0  0  0  0  0
   38.2010   21.2570   40.7050 N   0  0  0  0  0  0  0  0  0  0  0  0
   38.6920   20.5860   39.5970 C   0  0  0  0  0  0  0  0  0  0  0  0
   38.9010   21.4820   38.6270 N   0  0  0  0  0  0  0  0  0  0  0  0
   38.5620   22.7090   39.0720 C   0  0  0  0  0  0  0  0  0  0  0  0
   38.5790   23.9600   38.4970 C   0  0  0  0  0  0  0  0  0  0  0  0
   38.2020   26.0470   38.6870 H   0  0  0  0  0  0  0  0  0  0  0  0
   37.3670   23.5730   42.0920 H   0  0  0  0  0  0  0  0  0  0  0  0
   37.9330   20.8490   41.6360 H   0  0  0  0  0  0  0  0  0  0  0  0
   38.8720   19.5240   39.5390 H   0  0  0  0  0  0  0  0  0  0  0  0
   38.9260   24.0570   37.4730 H   0  0  0  0  0  0  0  0  0  0  0  0
   35.7560   29.4350   40.7520 O   0  0  0  0  0  0  0  0  0  0  0  0
   36.5420   30.4770   40.2770 C   0  0  0  0  0  0  0  0  0  0  0  0
   36.3680   30.3360   38.9470 C   0  0  0  0  0  0  0  0  0  0  0  0
   37.4430   31.7690   38.2730 S   0  0  0  0  0  0  0  0  0  0  0  0
   37.8900   32.2330   40.0450 C   0  0  0  0  0  0  0  0  0  0  0  0
   37.3290   31.4730   40.6050 N   0  0  0  0  0  0  0  0  0  0  0  0
   35.9700   29.8870   37.9150 H   0  0  0  0  0  0  0  0  0  0  0  0
   38.3690   34.6940   40.0850 C   0  0  0  0  0  3  0  0  0  0  0  0
   38.8100   33.4110   40.2470 C   0  0  0  0  0  0  0  0  0  0  0  0
   40.0610   33.0060   40.5940 C   0  0  0  0  0  0  0  0  0  0  0  0
   40.3770   31.9800   40.7150 H   0  0  0  0  0  0  0  0  0  0  0  0
   40.9890   34.0340   40.8030 C   0  0  0  0  0  0  0  0  0  0  0  0
   40.5990   35.3650   40.6520 C   0  0  0  0  0  0  0  0  0  0  0  0
   39.2970   35.6990   40.2940 C   0  0  0  0  0  3  0  0  0  0  0  0
   41.7250   36.1620   40.9220 O   0  0  0  0  0  0  0  0  0  0  0  0
   42.6840   35.3500   41.5950 C   0  0  0  0  0  3  0  0  0  0  0  0
   43.7160   35.6130   41.3390 H   0  0  0  0  0  0  0  0  0  0  0  0
   42.3480   34.0410   41.1630 O   0  0  0  0  0  0  0  0  0  0  0  0
  1  6  1  0  0  0  0
  2  3  1  0  0  0  0
  2  1  2  0  0  0  0
  3  4  2  0  0  0  0
  4  5  1  0  0  0  0
  5  8  1  0  0  0  0
  6  5  2  0  0  0  0
  7  2  1  0  0  0  0
  9 10  1  0  0  0  0
 10 11  2  0  0  0  0
 10  3  1  0  0  0  0
 11 19  1  0  0  0  0
 12 13  1  0  0  0  0
 12 11  1  0  0  0  0
 13 20  1  0  0  0  0
 14 13  1  0  0  0  0
 15 16  1  0  0  0  0
 15 14  2  0  0  0  0
 16 12  2  0  0  0  0
 17 16  1  0  0  0  0
 17  9  2  0  0  0  0
 18  9  1  0  0  0  0
 21 14  1  0  0  0  0
 22 17  1  0  0  0  0
 23  1  1  0  0  0  0
 24 28  1  0  0  0  0
 24 23  1  0  0  0  0
 25 24  2  0  0  0  0
 26 25  1  0  0  0  0
 26 27  1  0  0  0  0
 27 31  1  0  0  0  0
 27 28  2  0  0  0  0
 29 25  1  0  0  0  0
 30 31  2  0  0  0  0
 30 36  1  0  0  0  0
 31 32  1  0  0  0  0
 32 33  1  0  0  0  0
 32 34  2  0  0  0  0
 34 40  1  0  0  0  0
 35 34  1  0  0  0  0
 35 37  1  0  0  0  0
 36 35  2  0  0  0  0
 37 38  1  0  0  0  0
 39 38  1  0  0  0  0
 40 38  1  0  0  0  0
M  END
>  <minimizedAffinity>
-6.88926649

$$$$

 OpenBabel03252507393D

 40 45  0  0  0  0  0  0  0  0999 V2000
   36.8190   27.9070   40.4730 C   0  0  0  0  0  0  0  0  0  0  0  0
   37.1160   29.2150   40.0420 C   0  0  0  0  0  0  0  0  0  0  0  0
   37.5140   30.1320   40.9950 C   0  0  0  0  0  0  0  0  0  0  0  0
   37.6030   29.7460   42.2780 N   0  0  0  0  0  0  0  0  0  0  0  0
   37.3140   28.4790   42.6790 C   0  0  0  0  0  0  0  0  0  0  0  0
   36.9280   27.5810   41.7820 N   0  0  0  0  0  0  0  0  0  0  0  0
   37.0460   29.5310   39.0150 H   0  0  0  0  0  0  0  0  0  0  0  0
   37.4290   28.3100   43.7430 H   0  0  0  0  0  0  0  0  0  0  0  0
   36.9590   32.2300   39.8890 C   0  0  0  0  0  0  0  0  0  0  0  0
   37.8540   31.5210   40.6870 C   0  0  0  0  0  0  0  0  0  0  0  0
   38.9850   32.1630   41.1310 C   0  0  0  0  0  0  0  0  0  0  0  0
   39.2560   33.4750   40.8120 C   0  0  0  0  0  0  0  0  0  0  0  0
   40.2950   34.2920   41.1380 N   0  0  0  0  0  0  0  0  0  0  0  0
   40.0430   35.5150   40.5370 C   0  0  0  0  0  0  0  0  0  0  0  0
   38.8860   35.4210   39.8740 N   0  0  0  0  0  0  0  0  0  0  0  0
   38.3820   34.1800   40.0280 C   0  0  0  0  0  0  0  0  0  0  0  0
   37.2410   33.5590   39.5680 C   0  0  0  0  0  0  0  0  0  0  0  0
   36.0390   31.8040   39.4910 H   0  0  0  0  0  0  0  0  0  0  0  0
   39.6790   31.6040   41.7540 H   0  0  0  0  0  0  0  0  0  0  0  0
   41.1210   34.0260   41.7320 H   0  0  0  0  0  0  0  0  0  0  0  0
   40.6770   36.3840   40.6010 H   0  0  0  0  0  0  0  0  0  0  0  0
   36.5550   34.1270   38.9470 H   0  0  0  0  0  0  0  0  0  0  0  0
   36.4160   26.9730   39.5220 O   0  0  0  0  0  0  0  0  0  0  0  0
   35.6350   27.3650   38.4420 C   0  0  0  0  0  0  0  0  0  0  0  0
   36.1570   26.5980   37.4630 C   0  0  0  0  0  0  0  0  0  0  0  0
   35.0880   27.1230   35.9650 S   0  0  0  0  0  0  0  0  0  0  0  0
   34.1470   28.3120   37.0850 C   0  0  0  0  0  0  0  0  0  0  0  0
   34.6540   28.1380   38.0430 N   0  0  0  0  0  0  0  0  0  0  0  0
   36.8630   25.7970   36.9310 H   0  0  0  0  0  0  0  0  0  0  0  0
   33.0510   29.4420   35.1330 C   0  0  0  0  0  3  0  0  0  0  0  0
   33.0430   29.1300   36.4640 C   0  0  0  0  0  0  0  0  0  0  0  0
   32.1060   29.4780   37.3860 C   0  0  0  0  0  0  0  0  0  0  0  0
   32.1300   29.2140   38.4340 H   0  0  0  0  0  0  0  0  0  0  0  0
   31.0380   30.2420   36.9010 C   0  0  0  0  0  0  0  0  0  0  0  0
   30.9910   30.5920   35.5510 C   0  0  0  0  0  0  0  0  0  0  0  0
   31.9900   30.1970   34.6670 C   0  0  0  0  0  3  0  0  0  0  0  0
   29.8210   31.3480   35.3580 O   0  0  0  0  0  0  0  0  0  0  0  0
   28.9760   31.1420   36.4880 C   0  0  0  0  0  3  0  0  0  0  0  0
   28.3940   32.0320   36.7490 H   0  0  0  0  0  0  0  0  0  0  0  0
   29.8950   30.7910   37.5090 O   0  0  0  0  0  0  0  0  0  0  0  0
  1  6  1  0  0  0  0
  2  1  2  0  0  0  0
  2  3  1  0  0  0  0
  3  4  2  0  0  0  0
  4  5  1  0  0  0  0
  5  8  1  0  0  0  0
  6  5  2  0  0  0  0
  7  2  1  0  0  0  0
  9 10  1  0  0  0  0
 10  3  1  0  0  0  0
 10 11  2  0  0  0  0
 11 19  1  0  0  0  0
 12 11  1  0  0  0  0
 12 13  1  0  0  0  0
 13 20  1  0  0  0  0
 14 21  1  0  0  0  0
 14 13  1  0  0  0  0
 15 16  1  0  0  0  0
 15 14  2  0  0  0  0
 16 12  2  0  0  0  0
 17  9  2  0  0  0  0
 17 16  1  0  0  0  0
 18  9  1  0  0  0  0
 22 17  1  0  0  0  0
 23  1  1  0  0  0  0
 24 23  1  0  0  0  0
 25 24  2  0  0  0  0
 26 27  1  0  0  0  0
 26 25  1  0  0  0  0
 27 28  2  0  0  0  0
 28 24  1  0  0  0  0
 29 25  1  0  0  0  0
 30 31  1  0  0  0  0
 31 27  1  0  0  0  0
 31 32  2  0  0  0  0
 32 33  1  0  0  0  0
 34 32  1  0  0  0  0
 34 40  1  0  0  0  0
 35 34  2  0  0  0  0
 36 30  2  0  0  0  0
 36 35  1  0  0  0  0
 37 35  1  0  0  0  0
 37 38  1  0  0  0  0
 38 39  1  0  0  0  0
 38 40  1  0  0  0  0
M  END
>  <minimizedAffinity>
-6.73696995

$$$$

 OpenBabel03252507393D

 40 45  0  0  0  0  0  0  0  0999 V2000
   37.6630   28.3420   42.3590 C   0  0  0  0  0  0  0  0  0  0  0  0
   39.0140   28.2040   42.7320 C   0  0  0  0  0  0  0  0  0  0  0  0
   39.5560   26.9330   42.7320 C   0  0  0  0  0  0  0  0  0  0  0  0
   38.7850   25.8930   42.3790 N   0  0  0  0  0  0  0  0  0  0  0  0
   37.4810   26.0410   42.0200 C   0  0  0  0  0  0  0  0  0  0  0  0
   36.9380   27.2510   42.0140 N   0  0  0  0  0  0  0  0  0  0  0  0
   39.6380   29.0350   43.0150 H   0  0  0  0  0  0  0  0  0  0  0  0
   36.9810   25.1160   41.7620 H   0  0  0  0  0  0  0  0  0  0  0  0
   41.3440   26.9910   44.3850 C   0  0  0  0  0  0  0  0  0  0  0  0
   40.9440   26.6480   43.0960 C   0  0  0  0  0  0  0  0  0  0  0  0
   41.8650   26.0690   42.2560 C   0  0  0  0  0  0  0  0  0  0  0  0
   43.1610   25.8200   42.6510 C   0  0  0  0  0  0  0  0  0  0  0  0
   44.2180   25.2650   41.9970 N   0  0  0  0  0  0  0  0  0  0  0  0
   45.2800   25.2650   42.8860 C   0  0  0  0  0  0  0  0  0  0  0  0
   44.8600   25.8050   44.0350 N   0  0  0  0  0  0  0  0  0  0  0  0
   43.5630   26.1540   43.9170 C   0  0  0  0  0  0  0  0  0  0  0  0
   42.6590   26.7360   44.7780 C   0  0  0  0  0  0  0  0  0  0  0  0
   40.6840   27.4530   45.1180 H   0  0  0  0  0  0  0  0  0  0  0  0
   41.5460   25.8030   41.2520 H   0  0  0  0  0  0  0  0  0  0  0  0
   44.2090   24.9120   41.0070 H   0  0  0  0  0  0  0  0  0  0  0  0
   46.2690   24.8900   42.6770 H   0  0  0  0  0  0  0  0  0  0  0  0
   42.9880   26.9970   45.7790 H   0  0  0  0  0  0  0  0  0  0  0  0
   37.1040   29.6170   42.3540 O   0  0  0  0  0  0  0  0  0  0  0  0
   37.5580   30.5780   41.4600 C   0  0  0  0  0  0  0  0  0  0  0  0
   36.4300   30.8270   40.7640 C   0  0  0  0  0  0  0  0  0  0  0  0
   37.0370   32.1540   39.5260 S   0  0  0  0  0  0  0  0  0  0  0  0
   38.7580   32.0430   40.2910 C   0  0  0  0  0  0  0  0  0  0  0  0
   38.5900   31.2830   41.0660 N   0  0  0  0  0  0  0  0  0  0  0  0
   35.2890   30.7480   40.4240 H   0  0  0  0  0  0  0  0  0  0  0  0
   39.8850   34.2640   40.0020 C   0  0  0  0  0  3  0  0  0  0  0  0
   39.8350   32.9290   39.7160 C   0  0  0  0  0  0  0  0  0  0  0  0
   40.6840   32.2230   38.9230 C   0  0  0  0  0  0  0  0  0  0  0  0
   40.6160   31.1640   38.7180 H   0  0  0  0  0  0  0  0  0  0  0  0
   41.7210   32.9640   38.3430 C   0  0  0  0  0  0  0  0  0  0  0  0
   41.8260   34.3310   38.5980 C   0  0  0  0  0  0  0  0  0  0  0  0
   40.9140   34.9840   39.4220 C   0  0  0  0  0  3  0  0  0  0  0  0
   42.9460   34.8020   37.8910 O   0  0  0  0  0  0  0  0  0  0  0  0
   43.7330   33.6730   37.5170 C   0  0  0  0  0  3  0  0  0  0  0  0
   44.2310   33.8060   36.5510 H   0  0  0  0  0  0  0  0  0  0  0  0
   42.7810   32.6230   37.4840 O   0  0  0  0  0  0  0  0  0  0  0  0
  1  2  1  0  0  0  0
  2  7  1  0  0  0  0
  3  2  2  0  0  0  0
  3 10  1  0  0  0  0
  4  3  1  0  0  0  0
  5  4  2  0  0  0  0
  6  5  1  0  0  0  0
  6  1  2  0  0  0  0
  8  5  1  0  0  0  0
  9 17  1  0  0  0  0
  9 18  1  0  0  0  0
 10  9  2  0  0  0  0
 11 12  2  0  0  0  0
 11 10  1  0  0  0  0
 12 16  1  0  0  0  0
 13 12  1  0  0  0  0
 13 14  1  0  0  0  0
 14 15  2  0  0  0  0
 16 15  1  0  0  0  0
 16 17  2  0  0  0  0
 17 22  1  0  0  0  0
 19 11  1  0  0  0  0
 20 13  1  0  0  0  0
 21 14  1  0  0  0  0
 23  1  1  0  0  0  0
 24 23  1  0  0  0  0
 25 24  2  0  0  0  0
 26 27  1  0  0  0  0
 26 25  1  0  0  0  0
 27 28  2  0  0  0  0
 28 24  1  0  0  0  0
 29 25  1  0  0  0  0
 31 30  1  0  0  0  0
 31 27  1  0  0  0  0
 32 31  2  0  0  0  0
 33 32  1  0  0  0  0
 34 35  2  0  0  0  0
 34 32  1  0  0  0  0
 35 36  1  0  0  0  0
 36 30  2  0  0  0  0
 37 35  1  0  0  0  0
 38 37  1  0  0  0  0
 39 38  1  0  0  0  0
 40 38  1  0  0  0  0
 40 34  1  0  0  0  0
M  END
>  <minimizedAffinity>
-6.48167181

$$$$
