
 OpenBabel03242510223D

 40 44  0  0  1  0  0  0  0  0999 V2000
   48.0720   33.2450   43.2330 N   0  0  0  0  0  0  0  0  0  0  0  0
   49.2360   33.2880   42.4770 C   0  0  0  0  0  0  0  0  0  0  0  0
   50.3950   32.8590   42.7200 O   0  0  0  0  0  0  0  0  0  0  0  0
   47.5440   34.1420   43.1850 H   0  0  0  0  0  0  0  0  0  0  0  0
   46.2900   32.1070   44.5060 C   0  0  1  0  0  0  0  0  0  0  0  0
   46.4550   31.3670   43.3300 C   0  0  0  0  0  0  0  0  0  0  0  0
   47.6710   32.1050   43.9760 C   0  0  1  0  0  0  0  0  0  0  0  0
   46.1100   31.6440   45.5060 H   0  0  0  0  0  0  0  0  0  0  0  0
   46.2050   31.6540   42.2950 H   0  0  0  0  0  0  0  0  0  0  0  0
   46.4930   30.2370   43.4090 H   0  0  0  0  0  0  0  0  0  0  0  0
   48.4210   31.3860   44.3640 H   0  0  0  0  0  0  0  0  0  0  0  0
   45.0580   33.9750   43.1720 C   0  0  0  0  0  0  0  0  0  0  0  0
   45.5420   33.4490   44.4130 C   0  0  0  0  0  0  0  0  0  0  0  0
   45.3360   34.2030   45.5480 C   0  0  0  0  0  0  0  0  0  0  0  0
   44.6970   35.3880   45.4430 N   0  0  0  0  0  0  0  0  0  0  0  0
   44.2450   35.8760   44.2590 C   0  0  0  0  0  0  0  0  0  0  0  0
   44.4380   35.1350   43.0890 N   0  0  0  0  0  0  0  0  0  0  0  0
   45.2030   33.3790   42.2930 H   0  0  0  0  0  0  0  0  0  0  0  0
   45.6890   33.8330   46.5070 H   0  0  0  0  0  0  0  0  0  0  0  0
   43.7420   36.8320   44.2380 H   0  0  0  0  0  0  0  0  0  0  0  0
   49.2020   33.9410   41.1040 C   0  0  2  0  0  0  0  0  0  0  0  0
   48.7470   35.4470   41.0670 C   0  0  0  0  0  0  0  0  0  0  0  0
   47.9380   34.3320   40.4730 C   0  0  1  0  0  0  0  0  0  0  0  0
   50.0980   33.8200   40.4620 H   0  0  0  0  0  0  0  0  0  0  0  0
   48.4370   35.8070   42.0690 H   0  0  0  0  0  0  0  0  0  0  0  0
   49.2380   36.1100   40.3590 H   0  0  0  0  0  0  0  0  0  0  0  0
   47.0600   33.8670   40.9710 H   0  0  0  0  0  0  0  0  0  0  0  0
   47.8600   34.2590   38.9670 C   0  0  0  0  0  0  0  0  0  0  0  0
   48.7070   34.8360   38.2910 O   0  0  0  0  0  0  0  0  0  0  0  0
   46.7880   33.1790   36.9510 C   0  0  0  0  0  3  0  0  0  0  0  0
   46.8040   33.5170   38.2870 C   0  0  0  0  0  0  0  0  0  0  0  0
   45.6970   33.0880   38.9890 C   0  0  0  0  0  0  0  0  0  0  0  0
   45.5720   33.2820   40.0500 H   0  0  0  0  0  0  0  0  0  0  0  0
   44.6550   32.3820   38.4250 C   0  0  0  0  0  0  0  0  0  0  0  0
   44.6850   32.0680   37.0850 C   0  0  0  0  0  0  0  0  0  0  0  0
   45.7680   32.4750   36.3480 C   0  0  0  0  0  3  0  0  0  0  0  0
   43.5200   31.3610   36.7880 O   0  0  0  0  0  0  0  0  0  0  0  0
   42.5560   31.6740   37.8030 C   0  0  0  0  0  3  0  0  0  0  0  0
   42.1300   32.7010   37.6480 H   0  0  0  0  0  0  0  0  0  0  0  0
   43.4560   31.8480   38.9080 O   0  0  0  0  0  0  0  0  0  0  0  0
  1  7  1  0  0  0  0
  2  3  2  0  0  0  0
  2  1  1  0  0  0  0
  4  1  1  0  0  0  0
  5  8  1  1  0  0  0
  6 10  1  0  0  0  0
  6  7  1  0  0  0  0
  6  5  1  0  0  0  0
  7 11  1  1  0  0  0
  7  5  1  0  0  0  0
  9  6  1  0  0  0  0
 12 13  1  0  0  0  0
 13  5  1  0  0  0  0
 13 14  2  0  0  0  0
 14 19  1  0  0  0  0
 15 14  1  0  0  0  0
 16 15  2  0  0  0  0
 17 12  2  0  0  0  0
 17 16  1  0  0  0  0
 18 12  1  0  0  0  0
 20 16  1  0  0  0  0
 21 24  1  6  0  0  0
 21  2  1  0  0  0  0
 22 21  1  0  0  0  0
 22 25  1  0  0  0  0
 23 27  1  1  0  0  0
 23 22  1  0  0  0  0
 23 21  1  0  0  0  0
 26 22  1  0  0  0  0
 28 23  1  0  0  0  0
 29 28  2  0  0  0  0
 30 31  1  0  0  0  0
 31 28  1  0  0  0  0
 31 32  2  0  0  0  0
 32 33  1  0  0  0  0
 34 40  1  0  0  0  0
 34 32  1  0  0  0  0
 35 34  2  0  0  0  0
 36 30  2  0  0  0  0
 36 35  1  0  0  0  0
 37 35  1  0  0  0  0
 37 38  1  0  0  0  0
 38 40  1  0  0  0  0
 39 38  1  0  0  0  0
M  END
>  <minimizedAffinity>
-5.19660521

>  <minimizedRMSD>
0.520005643

$$$$
