
 OpenBabel03252507213D

 46 50  0  0  1  0  0  0  0  0999 V2000
   38.9840   29.4500   39.7240 C   0  0  0  0  0  0  0  0  0  0  0  0
   38.4370   28.5640   39.0130 O   0  0  0  0  0  0  0  0  0  0  0  0
   38.4410   30.7590   39.9570 N   0  0  0  0  0  0  0  0  0  0  0  0
   38.3150   31.5340   41.1810 C   0  0  0  0  0  0  0  0  0  0  0  0
   38.9220   32.9310   40.9380 C   0  0  0  0  0  0  0  0  0  0  0  0
   38.0930   33.6540   39.9050 C   0  0  0  0  0  0  0  0  0  0  0  0
   37.2020   32.6850   39.1830 C   0  0  0  0  0  0  0  0  0  0  0  0
   37.9350   31.4330   38.7770 C   0  0  2  0  0  0  0  0  0  0  0  0
   38.9520   31.0960   41.9770 H   0  0  0  0  0  0  0  0  0  0  0  0
   37.2980   31.6600   41.5410 H   0  0  0  0  0  0  0  0  0  0  0  0
   39.9260   32.7080   40.4920 H   0  0  0  0  0  0  0  0  0  0  0  0
   38.9970   33.4640   41.8910 H   0  0  0  0  0  0  0  0  0  0  0  0
   37.4220   34.3450   40.4820 H   0  0  0  0  0  0  0  0  0  0  0  0
   38.6990   34.2780   39.2310 H   0  0  0  0  0  0  0  0  0  0  0  0
   36.8550   33.1760   38.2520 H   0  0  0  0  0  0  0  0  0  0  0  0
   36.3330   32.4610   39.8550 H   0  0  0  0  0  0  0  0  0  0  0  0
   38.8250   31.7520   38.1980 H   0  0  0  0  0  0  0  0  0  0  0  0
   37.3450   30.3000   36.5680 C   0  0  0  0  0  3  0  0  0  0  0  0
   37.1060   30.5880   37.8980 C   0  0  0  0  0  0  0  0  0  0  0  0
   35.9420   29.9800   38.3890 C   0  0  0  0  0  0  0  0  0  0  0  0
   35.7130   30.1810   39.4420 H   0  0  0  0  0  0  0  0  0  0  0  0
   35.0990   29.1830   37.6810 C   0  0  0  0  0  0  0  0  0  0  0  0
   35.3790   28.9270   36.3690 C   0  0  0  0  0  0  0  0  0  0  0  0
   36.5090   29.4940   35.8220 C   0  0  0  0  0  3  0  0  0  0  0  0
   34.3600   28.1010   35.9180 O   0  0  0  0  0  0  0  0  0  0  0  0
   33.4980   27.7610   36.9610 C   0  0  0  0  0  3  0  0  0  0  0  0
   33.5620   26.7020   37.2820 H   0  0  0  0  0  0  0  0  0  0  0  0
   33.9340   28.5360   38.0610 O   0  0  0  0  0  0  0  0  0  0  0  0
   41.4300   29.5740   39.7400 C   0  0  0  0  0  0  0  0  0  0  0  0
   40.2440   29.1210   40.3490 C   0  0  0  0  0  0  0  0  0  0  0  0
   40.3230   28.3800   41.5160 C   0  0  0  0  0  0  0  0  0  0  0  0
   41.5440   28.1200   42.0280 N   0  0  0  0  0  0  0  0  0  0  0  0
   42.6940   28.5550   41.4440 C   0  0  0  0  0  0  0  0  0  0  0  0
   42.6130   29.2760   40.3060 N   0  0  0  0  0  0  0  0  0  0  0  0
   41.3330   30.1540   38.8240 H   0  0  0  0  0  0  0  0  0  0  0  0
   43.6370   28.3300   41.8770 H   0  0  0  0  0  0  0  0  0  0  0  0
   39.0950   27.9180   42.1270 C   0  0  0  0  0  0  0  0  0  0  0  0
   38.4980   28.6580   43.1040 C   0  0  0  0  0  0  0  0  0  0  0  0
   37.3300   28.2080   43.6790 C   0  0  0  0  0  0  0  0  0  0  0  0
   36.7210   27.0130   43.3000 C   0  0  0  0  0  0  0  0  0  0  0  0
   37.3740   26.2990   42.2980 C   0  0  0  0  0  0  0  0  0  0  0  0
   38.5080   26.7780   41.7700 N   0  0  0  0  0  0  0  0  0  0  0  0
   38.8280   29.5770   43.5090 H   0  0  0  0  0  0  0  0  0  0  0  0
   36.7910   28.7370   44.4630 H   0  0  0  0  0  0  0  0  0  0  0  0
   35.8040   26.6650   43.7540 H   0  0  0  0  0  0  0  0  0  0  0  0
   36.9210   25.3690   41.9870 H   0  0  0  0  0  0  0  0  0  0  0  0
  1  3  1  0  0  0  0
  1 30  1  0  0  0  0
  2  1  2  0  0  0  0
  3  4  1  0  0  0  0
  4 10  1  0  0  0  0
  4  9  1  0  0  0  0
  5  4  1  0  0  0  0
  5 12  1  0  0  0  0
  6 13  1  0  0  0  0
  6  5  1  0  0  0  0
  7 16  1  0  0  0  0
  7  6  1  0  0  0  0
  8 17  1  6  0  0  0
  8  7  1  0  0  0  0
  8  3  1  0  0  0  0
 11  5  1  0  0  0  0
 14  6  1  0  0  0  0
 15  7  1  0  0  0  0
 18 19  1  0  0  0  0
 19 20  2  0  0  0  0
 19  8  1  0  0  0  0
 20 21  1  0  0  0  0
 22 28  1  0  0  0  0
 22 20  1  0  0  0  0
 23 22  2  0  0  0  0
 24 23  1  0  0  0  0
 24 18  2  0  0  0  0
 25 23  1  0  0  0  0
 25 26  1  0  0  0  0
 26 27  1  0  0  0  0
 26 28  1  0  0  0  0
 29 34  2  0  0  0  0
 29 30  1  0  0  0  0
 30 31  2  0  0  0  0
 31 32  1  0  0  0  0
 31 37  1  0  0  0  0
 33 36  1  0  0  0  0
 33 32  2  0  0  0  0
 34 33  1  0  0  0  0
 35 29  1  0  0  0  0
 37 38  1  0  0  0  0
 38 43  1  0  0  0  0
 38 39  2  0  0  0  0
 39 44  1  0  0  0  0
 40 39  1  0  0  0  0
 40 45  1  0  0  0  0
 41 40  2  0  0  0  0
 42 37  2  0  0  0  0
 42 41  1  0  0  0  0
 46 41  1  0  0  0  0
M  END
>  <minimizedAffinity>
-6.36613035

$$$$

 OpenBabel03252507213D

 46 50  0  0  1  0  0  0  0  0999 V2000
   38.5070   28.2590   39.8270 C   0  0  0  0  0  0  0  0  0  0  0  0
   38.6370   27.4800   38.8440 O   0  0  0  0  0  0  0  0  0  0  0  0
   38.1550   27.8440   41.1570 N   0  0  0  0  0  0  0  0  0  0  0  0
   38.7080   28.2180   42.4480 C   0  0  0  0  0  0  0  0  0  0  0  0
   37.5500   28.6600   43.3650 C   0  0  0  0  0  0  0  0  0  0  0  0
   36.6520   27.4750   43.6280 C   0  0  0  0  0  0  0  0  0  0  0  0
   36.9390   26.3780   42.6440 C   0  0  0  0  0  0  0  0  0  0  0  0
   37.0610   26.8970   41.2350 C   0  0  2  0  0  0  0  0  0  0  0  0
   39.3360   29.1280   42.3470 H   0  0  0  0  0  0  0  0  0  0  0  0
   39.2650   27.4330   42.9540 H   0  0  0  0  0  0  0  0  0  0  0  0
   36.9850   29.3990   42.7400 H   0  0  0  0  0  0  0  0  0  0  0  0
   37.9590   29.1090   44.2750 H   0  0  0  0  0  0  0  0  0  0  0  0
   36.9450   27.0890   44.6410 H   0  0  0  0  0  0  0  0  0  0  0  0
   35.5880   27.7490   43.6810 H   0  0  0  0  0  0  0  0  0  0  0  0
   36.0800   25.6780   42.6610 H   0  0  0  0  0  0  0  0  0  0  0  0
   37.8730   25.8590   42.9810 H   0  0  0  0  0  0  0  0  0  0  0  0
   36.1380   27.4710   41.0200 H   0  0  0  0  0  0  0  0  0  0  0  0
   36.3280   25.6060   39.1580 C   0  0  0  0  0  3  0  0  0  0  0  0
   37.1390   25.7900   40.2620 C   0  0  0  0  0  0  0  0  0  0  0  0
   38.1070   24.7860   40.4040 C   0  0  0  0  0  0  0  0  0  0  0  0
   38.7730   24.8930   41.2690 H   0  0  0  0  0  0  0  0  0  0  0  0
   38.2790   23.7210   39.5780 C   0  0  0  0  0  0  0  0  0  0  0  0
   37.4520   23.5830   38.5000 C   0  0  0  0  0  0  0  0  0  0  0  0
   36.4770   24.5360   38.3000 C   0  0  0  0  0  3  0  0  0  0  0  0
   37.8600   22.4250   37.8550 O   0  0  0  0  0  0  0  0  0  0  0  0
   38.9940   21.8890   38.4670 C   0  0  0  0  0  3  0  0  0  0  0  0
   39.9220   21.9750   37.8680 H   0  0  0  0  0  0  0  0  0  0  0  0
   39.1930   22.6800   39.6220 O   0  0  0  0  0  0  0  0  0  0  0  0
   40.0070   30.1950   39.8570 C   0  0  0  0  0  0  0  0  0  0  0  0
   38.7280   29.6680   39.5960 C   0  0  0  0  0  0  0  0  0  0  0  0
   37.7320   30.5090   39.1300 C   0  0  0  0  0  0  0  0  0  0  0  0
   38.0290   31.8110   38.9440 N   0  0  0  0  0  0  0  0  0  0  0  0
   39.2620   32.3280   39.1950 C   0  0  0  0  0  0  0  0  0  0  0  0
   40.2310   31.5050   39.6490 N   0  0  0  0  0  0  0  0  0  0  0  0
   40.7680   29.5080   40.2220 H   0  0  0  0  0  0  0  0  0  0  0  0
   39.4590   33.3590   39.0360 H   0  0  0  0  0  0  0  0  0  0  0  0
   36.4210   29.9520   38.8700 C   0  0  0  0  0  0  0  0  0  0  0  0
   35.5430   29.7650   39.8970 C   0  0  0  0  0  0  0  0  0  0  0  0
   34.2990   29.2340   39.6380 C   0  0  0  0  0  0  0  0  0  0  0  0
   33.8910   28.8750   38.3550 C   0  0  0  0  0  0  0  0  0  0  0  0
   34.8280   29.0880   37.3460 C   0  0  0  0  0  0  0  0  0  0  0  0
   36.0250   29.6070   37.6480 N   0  0  0  0  0  0  0  0  0  0  0  0
   35.6950   29.9770   40.9210 H   0  0  0  0  0  0  0  0  0  0  0  0
   33.5420   29.0530   40.3980 H   0  0  0  0  0  0  0  0  0  0  0  0
   32.9130   28.4590   38.1580 H   0  0  0  0  0  0  0  0  0  0  0  0
   34.5340   28.8170   36.3420 H   0  0  0  0  0  0  0  0  0  0  0  0
  1  3  1  0  0  0  0
  2  1  2  0  0  0  0
  3  8  1  0  0  0  0
  3  4  1  0  0  0  0
  4 10  1  0  0  0  0
  4  5  1  0  0  0  0
  5  6  1  0  0  0  0
  5 12  1  0  0  0  0
  6 14  1  0  0  0  0
  6 13  1  0  0  0  0
  7 15  1  0  0  0  0
  7 16  1  0  0  0  0
  7  6  1  0  0  0  0
  8 17  1  6  0  0  0
  8  7  1  0  0  0  0
  9  4  1  0  0  0  0
 11  5  1  0  0  0  0
 18 19  1  0  0  0  0
 19 20  2  0  0  0  0
 19  8  1  0  0  0  0
 20 21  1  0  0  0  0
 22 28  1  0  0  0  0
 22 20  1  0  0  0  0
 23 22  2  0  0  0  0
 24 23  1  0  0  0  0
 24 18  2  0  0  0  0
 25 26  1  0  0  0  0
 25 23  1  0  0  0  0
 26 28  1  0  0  0  0
 27 26  1  0  0  0  0
 29 35  1  0  0  0  0
 30  1  1  0  0  0  0
 30 29  2  0  0  0  0
 31 30  1  0  0  0  0
 32 31  2  0  0  0  0
 32 33  1  0  0  0  0
 33 34  2  0  0  0  0
 34 29  1  0  0  0  0
 36 33  1  0  0  0  0
 37 31  1  0  0  0  0
 37 38  1  0  0  0  0
 38 43  1  0  0  0  0
 39 38  2  0  0  0  0
 39 44  1  0  0  0  0
 40 39  1  0  0  0  0
 41 42  1  0  0  0  0
 41 40  2  0  0  0  0
 42 37  2  0  0  0  0
 45 40  1  0  0  0  0
 46 41  1  0  0  0  0
M  END
>  <minimizedAffinity>
-6.2997818

$$$$

 OpenBabel03252507213D

 46 50  0  0  1  0  0  0  0  0999 V2000
   38.7810   28.3730   39.9590 C   0  0  0  0  0  0  0  0  0  0  0  0
   39.0000   27.5800   39.0030 O   0  0  0  0  0  0  0  0  0  0  0  0
   38.3760   27.9690   41.2770 N   0  0  0  0  0  0  0  0  0  0  0  0
   38.8410   28.3960   42.5870 C   0  0  0  0  0  0  0  0  0  0  0  0
   37.6150   28.8020   43.4300 C   0  0  0  0  0  0  0  0  0  0  0  0
   36.7590   27.5820   43.6720 C   0  0  0  0  0  0  0  0  0  0  0  0
   37.1490   26.4790   42.7310 C   0  0  0  0  0  0  0  0  0  0  0  0
   37.3240   26.9740   41.3190 C   0  0  2  0  0  0  0  0  0  0  0  0
   39.4300   29.3320   42.4970 H   0  0  0  0  0  0  0  0  0  0  0  0
   39.4040   27.6490   43.1390 H   0  0  0  0  0  0  0  0  0  0  0  0
   37.0520   29.5000   42.7580 H   0  0  0  0  0  0  0  0  0  0  0  0
   37.9530   29.2890   44.3500 H   0  0  0  0  0  0  0  0  0  0  0  0
   37.0140   27.2320   44.7080 H   0  0  0  0  0  0  0  0  0  0  0  0
   35.6820   27.8070   43.6620 H   0  0  0  0  0  0  0  0  0  0  0  0
   36.3230   25.7400   42.7180 H   0  0  0  0  0  0  0  0  0  0  0  0
   38.0860   26.0120   43.1300 H   0  0  0  0  0  0  0  0  0  0  0  0
   36.3890   27.4990   41.0410 H   0  0  0  0  0  0  0  0  0  0  0  0
   38.5060   24.8990   40.4150 C   0  0  0  0  0  3  0  0  0  0  0  0
   37.5050   25.8520   40.3780 C   0  0  0  0  0  0  0  0  0  0  0  0
   36.6120   25.6660   39.3130 C   0  0  0  0  0  0  0  0  0  0  0  0
   35.8000   26.4000   39.2460 H   0  0  0  0  0  0  0  0  0  0  0  0
   36.6720   24.6750   38.3850 C   0  0  0  0  0  0  0  0  0  0  0  0
   37.6800   23.7580   38.4640 C   0  0  0  0  0  0  0  0  0  0  0  0
   38.5950   23.8810   39.4880 C   0  0  0  0  0  3  0  0  0  0  0  0
   37.4850   22.8870   37.4030 O   0  0  0  0  0  0  0  0  0  0  0  0
   36.3100   23.1970   36.7160 C   0  0  0  0  0  3  0  0  0  0  0  0
   35.4950   22.4570   36.8460 H   0  0  0  0  0  0  0  0  0  0  0  0
   35.8520   24.3990   37.3030 O   0  0  0  0  0  0  0  0  0  0  0  0
   40.2110   30.3610   39.9490 C   0  0  0  0  0  0  0  0  0  0  0  0
   38.9500   29.7850   39.7070 C   0  0  0  0  0  0  0  0  0  0  0  0
   37.9200   30.5840   39.2390 C   0  0  0  0  0  0  0  0  0  0  0  0
   38.1690   31.8930   39.0320 N   0  0  0  0  0  0  0  0  0  0  0  0
   39.3850   32.4570   39.2650 C   0  0  0  0  0  0  0  0  0  0  0  0
   40.3870   31.6750   39.7210 N   0  0  0  0  0  0  0  0  0  0  0  0
   40.9990   29.7060   40.3150 H   0  0  0  0  0  0  0  0  0  0  0  0
   39.5430   33.4920   39.0910 H   0  0  0  0  0  0  0  0  0  0  0  0
   36.6270   29.9770   38.9990 C   0  0  0  0  0  0  0  0  0  0  0  0
   35.7510   29.8080   40.0290 C   0  0  0  0  0  0  0  0  0  0  0  0
   34.5240   29.2300   39.7890 C   0  0  0  0  0  0  0  0  0  0  0  0
   34.1330   28.8030   38.5210 C   0  0  0  0  0  0  0  0  0  0  0  0
   35.0680   29.0010   37.5080 C   0  0  0  0  0  0  0  0  0  0  0  0
   36.2480   29.5680   37.7910 N   0  0  0  0  0  0  0  0  0  0  0  0
   35.8900   30.0700   41.0440 H   0  0  0  0  0  0  0  0  0  0  0  0
   33.7680   29.0590   40.5540 H   0  0  0  0  0  0  0  0  0  0  0  0
   33.1680   28.3500   38.3390 H   0  0  0  0  0  0  0  0  0  0  0  0
   34.7870   28.6780   36.5150 H   0  0  0  0  0  0  0  0  0  0  0  0
  1  3  1  0  0  0  0
  2  1  2  0  0  0  0
  3  8  1  0  0  0  0
  3  4  1  0  0  0  0
  4 10  1  0  0  0  0
  4  5  1  0  0  0  0
  5  6  1  0  0  0  0
  5 12  1  0  0  0  0
  6 13  1  0  0  0  0
  7 16  1  0  0  0  0
  7  6  1  0  0  0  0
  8 17  1  6  0  0  0
  8  7  1  0  0  0  0
  9  4  1  0  0  0  0
 11  5  1  0  0  0  0
 14  6  1  0  0  0  0
 15  7  1  0  0  0  0
 19 18  1  0  0  0  0
 19  8  1  0  0  0  0
 20 19  2  0  0  0  0
 21 20  1  0  0  0  0
 22 23  2  0  0  0  0
 22 20  1  0  0  0  0
 23 24  1  0  0  0  0
 24 18  2  0  0  0  0
 25 23  1  0  0  0  0
 26 27  1  0  0  0  0
 26 28  1  0  0  0  0
 26 25  1  0  0  0  0
 28 22  1  0  0  0  0
 29 35  1  0  0  0  0
 30 29  2  0  0  0  0
 30  1  1  0  0  0  0
 31 30  1  0  0  0  0
 32 31  2  0  0  0  0
 32 33  1  0  0  0  0
 33 34  2  0  0  0  0
 34 29  1  0  0  0  0
 36 33  1  0  0  0  0
 37 31  1  0  0  0  0
 37 38  1  0  0  0  0
 38 43  1  0  0  0  0
 39 38  2  0  0  0  0
 39 44  1  0  0  0  0
 40 39  1  0  0  0  0
 41 42  1  0  0  0  0
 41 40  2  0  0  0  0
 42 37  2  0  0  0  0
 45 40  1  0  0  0  0
 46 41  1  0  0  0  0
M  END
>  <minimizedAffinity>
-6.24252748

$$$$

 OpenBabel03252507213D

 46 50  0  0  1  0  0  0  0  0999 V2000
   38.9960   29.1570   40.4160 C   0  0  0  0  0  0  0  0  0  0  0  0
   39.5540   28.6720   39.3940 O   0  0  0  0  0  0  0  0  0  0  0  0
   38.5070   28.3830   41.5240 N   0  0  0  0  0  0  0  0  0  0  0  0
   38.6410   28.5840   42.9570 C   0  0  0  0  0  0  0  0  0  0  0  0
   37.2370   28.5130   43.5920 C   0  0  0  0  0  0  0  0  0  0  0  0
   36.6900   27.1170   43.4200 C   0  0  0  0  0  0  0  0  0  0  0  0
   37.4870   26.3700   42.3890 C   0  0  0  0  0  0  0  0  0  0  0  0
   37.7480   27.2030   41.1610 C   0  0  2  0  0  0  0  0  0  0  0  0
   38.9810   29.6200   43.1680 H   0  0  0  0  0  0  0  0  0  0  0  0
   39.2820   27.8680   43.4640 H   0  0  0  0  0  0  0  0  0  0  0  0
   36.6270   29.2110   42.9620 H   0  0  0  0  0  0  0  0  0  0  0  0
   37.2940   28.8360   44.6360 H   0  0  0  0  0  0  0  0  0  0  0  0
   36.8610   26.5990   44.4010 H   0  0  0  0  0  0  0  0  0  0  0  0
   35.6060   27.1020   43.2310 H   0  0  0  0  0  0  0  0  0  0  0  0
   36.8870   25.4950   42.0690 H   0  0  0  0  0  0  0  0  0  0  0  0
   38.4390   26.0350   42.8770 H   0  0  0  0  0  0  0  0  0  0  0  0
   36.7650   27.5660   40.8010 H   0  0  0  0  0  0  0  0  0  0  0  0
   39.5340   25.6850   40.1520 C   0  0  0  0  0  3  0  0  0  0  0  0
   38.3500   26.3940   40.0840 C   0  0  0  0  0  0  0  0  0  0  0  0
   37.7170   26.2850   38.8390 C   0  0  0  0  0  0  0  0  0  0  0  0
   36.7720   26.8330   38.7410 H   0  0  0  0  0  0  0  0  0  0  0  0
   38.1690   25.5730   37.7730 C   0  0  0  0  0  0  0  0  0  0  0  0
   39.3450   24.8880   37.8890 C   0  0  0  0  0  0  0  0  0  0  0  0
   40.0210   24.9520   39.0880 C   0  0  0  0  0  3  0  0  0  0  0  0
   39.5450   24.2690   36.6640 O   0  0  0  0  0  0  0  0  0  0  0  0
   38.4590   24.4850   35.8150 C   0  0  0  0  0  3  0  0  0  0  0  0
   37.8400   23.5850   35.6250 H   0  0  0  0  0  0  0  0  0  0  0  0
   37.6300   25.3960   36.5090 O   0  0  0  0  0  0  0  0  0  0  0  0
   39.9100   31.3610   40.9680 C   0  0  0  0  0  0  0  0  0  0  0  0
   38.8390   30.5920   40.4740 C   0  0  0  0  0  0  0  0  0  0  0  0
   37.6810   31.2290   40.0620 C   0  0  0  0  0  0  0  0  0  0  0  0
   37.6240   32.5730   40.1520 N   0  0  0  0  0  0  0  0  0  0  0  0
   38.6530   33.3230   40.6290 C   0  0  0  0  0  0  0  0  0  0  0  0
   39.7810   32.6990   41.0300 N   0  0  0  0  0  0  0  0  0  0  0  0
   40.8060   30.8300   41.2820 H   0  0  0  0  0  0  0  0  0  0  0  0
   38.5710   34.3800   40.6850 H   0  0  0  0  0  0  0  0  0  0  0  0
   36.5880   30.4220   39.5610 C   0  0  0  0  0  0  0  0  0  0  0  0
   35.6250   29.9710   40.4140 C   0  0  0  0  0  0  0  0  0  0  0  0
   34.5900   29.2050   39.9260 C   0  0  0  0  0  0  0  0  0  0  0  0
   34.4820   28.8650   38.5780 C   0  0  0  0  0  0  0  0  0  0  0  0
   35.4930   29.3530   37.7540 C   0  0  0  0  0  0  0  0  0  0  0  0
   36.4780   30.0940   38.2760 N   0  0  0  0  0  0  0  0  0  0  0  0
   35.5610   30.1320   41.4570 H   0  0  0  0  0  0  0  0  0  0  0  0
   33.7830   28.8060   40.5370 H   0  0  0  0  0  0  0  0  0  0  0  0
   33.6670   28.2630   38.2010 H   0  0  0  0  0  0  0  0  0  0  0  0
   35.4300   29.1020   36.7040 H   0  0  0  0  0  0  0  0  0  0  0  0
  1 30  1  0  0  0  0
  1  3  1  0  0  0  0
  2  1  2  0  0  0  0
  3  4  1  0  0  0  0
  4  9  1  0  0  0  0
  4 10  1  0  0  0  0
  4  5  1  0  0  0  0
  5 12  1  0  0  0  0
  6  5  1  0  0  0  0
  6 13  1  0  0  0  0
  7 16  1  0  0  0  0
  7  6  1  0  0  0  0
  8 17  1  6  0  0  0
  8  3  1  0  0  0  0
  8  7  1  0  0  0  0
 11  5  1  0  0  0  0
 14  6  1  0  0  0  0
 15  7  1  0  0  0  0
 19 18  1  0  0  0  0
 19  8  1  0  0  0  0
 20 19  2  0  0  0  0
 21 20  1  0  0  0  0
 22 23  2  0  0  0  0
 22 20  1  0  0  0  0
 23 24  1  0  0  0  0
 24 18  2  0  0  0  0
 25 23  1  0  0  0  0
 26 28  1  0  0  0  0
 26 25  1  0  0  0  0
 27 26  1  0  0  0  0
 28 22  1  0  0  0  0
 29 34  1  0  0  0  0
 29 35  1  0  0  0  0
 30 29  2  0  0  0  0
 31 32  2  0  0  0  0
 31 30  1  0  0  0  0
 32 33  1  0  0  0  0
 33 36  1  0  0  0  0
 33 34  2  0  0  0  0
 37 31  1  0  0  0  0
 37 38  1  0  0  0  0
 38 43  1  0  0  0  0
 39 38  2  0  0  0  0
 39 44  1  0  0  0  0
 40 39  1  0  0  0  0
 41 42  1  0  0  0  0
 41 40  2  0  0  0  0
 42 37  2  0  0  0  0
 45 40  1  0  0  0  0
 46 41  1  0  0  0  0
M  END
>  <minimizedAffinity>
-6.21187115

$$$$

 OpenBabel03252507213D

 46 50  0  0  1  0  0  0  0  0999 V2000
   38.0720   30.1500   39.7900 C   0  0  0  0  0  0  0  0  0  0  0  0
   37.6020   29.9350   38.6390 O   0  0  0  0  0  0  0  0  0  0  0  0
   37.9140   29.2680   40.9130 N   0  0  0  0  0  0  0  0  0  0  0  0
   38.8750   28.8060   41.9010 C   0  0  0  0  0  0  0  0  0  0  0  0
   38.2910   29.0620   43.3060 C   0  0  0  0  0  0  0  0  0  0  0  0
   37.0630   28.2030   43.4910 C   0  0  0  0  0  0  0  0  0  0  0  0
   36.5910   27.6800   42.1650 C   0  0  0  0  0  0  0  0  0  0  0  0
   36.5750   28.7510   41.1050 C   0  0  2  0  0  0  0  0  0  0  0  0
   39.7900   29.4350   41.8700 H   0  0  0  0  0  0  0  0  0  0  0  0
   39.1400   27.7550   41.8270 H   0  0  0  0  0  0  0  0  0  0  0  0
   37.9700   30.1340   43.2660 H   0  0  0  0  0  0  0  0  0  0  0  0
   39.0660   28.8850   44.0580 H   0  0  0  0  0  0  0  0  0  0  0  0
   37.3990   27.3160   44.0900 H   0  0  0  0  0  0  0  0  0  0  0  0
   36.2740   28.7060   44.0700 H   0  0  0  0  0  0  0  0  0  0  0  0
   35.5470   27.3320   42.2930 H   0  0  0  0  0  0  0  0  0  0  0  0
   37.2570   26.8240   41.8840 H   0  0  0  0  0  0  0  0  0  0  0  0
   35.9720   29.5920   41.5040 H   0  0  0  0  0  0  0  0  0  0  0  0
   36.2750   27.1640   39.1290 C   0  0  0  0  0  3  0  0  0  0  0  0
   35.9200   28.2740   39.8720 C   0  0  0  0  0  0  0  0  0  0  0  0
   34.8200   28.9610   39.3400 C   0  0  0  0  0  0  0  0  0  0  0  0
   34.5040   29.8500   39.8990 H   0  0  0  0  0  0  0  0  0  0  0  0
   34.1350   28.6220   38.2160 C   0  0  0  0  0  0  0  0  0  0  0  0
   34.5240   27.5160   37.5150 C   0  0  0  0  0  0  0  0  0  0  0  0
   35.6000   26.7930   37.9840 C   0  0  0  0  0  3  0  0  0  0  0  0
   33.6550   27.4250   36.4380 O   0  0  0  0  0  0  0  0  0  0  0  0
   32.6690   28.4090   36.5120 C   0  0  0  0  0  3  0  0  0  0  0  0
   31.6550   28.0260   36.7440 H   0  0  0  0  0  0  0  0  0  0  0  0
   33.0450   29.2220   37.6060 O   0  0  0  0  0  0  0  0  0  0  0  0
   38.1700   32.4600   40.5990 C   0  0  0  0  0  0  0  0  0  0  0  0
   38.8190   31.3700   39.9890 C   0  0  0  0  0  0  0  0  0  0  0  0
   40.1420   31.5010   39.6020 C   0  0  0  0  0  0  0  0  0  0  0  0
   40.7620   32.6780   39.8270 N   0  0  0  0  0  0  0  0  0  0  0  0
   40.1400   33.7350   40.4150 C   0  0  0  0  0  0  0  0  0  0  0  0
   38.8500   33.6040   40.7910 N   0  0  0  0  0  0  0  0  0  0  0  0
   37.1310   32.3240   40.8920 H   0  0  0  0  0  0  0  0  0  0  0  0
   40.6610   34.6470   40.5750 H   0  0  0  0  0  0  0  0  0  0  0  0
   40.7950   30.3720   38.9720 C   0  0  0  0  0  0  0  0  0  0  0  0
   40.8300   30.2750   37.6130 C   0  0  0  0  0  0  0  0  0  0  0  0
   41.4520   29.1970   37.0240 C   0  0  0  0  0  0  0  0  0  0  0  0
   42.0580   28.1850   37.7680 C   0  0  0  0  0  0  0  0  0  0  0  0
   41.9920   28.3360   39.1510 C   0  0  0  0  0  0  0  0  0  0  0  0
   41.3750   29.4030   39.6760 N   0  0  0  0  0  0  0  0  0  0  0  0
   40.4180   30.9470   36.9080 H   0  0  0  0  0  0  0  0  0  0  0  0
   41.5250   29.0450   35.9490 H   0  0  0  0  0  0  0  0  0  0  0  0
   42.5460   27.3410   37.3000 H   0  0  0  0  0  0  0  0  0  0  0  0
   42.4550   27.5640   39.7490 H   0  0  0  0  0  0  0  0  0  0  0  0
  1 30  1  0  0  0  0
  1  3  1  0  0  0  0
  2  1  2  0  0  0  0
  3  8  1  0  0  0  0
  3  4  1  0  0  0  0
  4  5  1  0  0  0  0
  5  6  1  0  0  0  0
  5 12  1  0  0  0  0
  6 14  1  0  0  0  0
  6 13  1  0  0  0  0
  7 15  1  0  0  0  0
  7  6  1  0  0  0  0
  8 17  1  1  0  0  0
  8  7  1  0  0  0  0
  9  4  1  0  0  0  0
 10  4  1  0  0  0  0
 11  5  1  0  0  0  0
 16  7  1  0  0  0  0
 18 19  1  0  0  0  0
 19  8  1  0  0  0  0
 20 19  2  0  0  0  0
 20 21  1  0  0  0  0
 22 20  1  0  0  0  0
 23 24  1  0  0  0  0
 23 22  2  0  0  0  0
 24 18  2  0  0  0  0
 25 26  1  0  0  0  0
 25 23  1  0  0  0  0
 26 27  1  0  0  0  0
 26 28  1  0  0  0  0
 28 22  1  0  0  0  0
 29 34  1  0  0  0  0
 29 35  1  0  0  0  0
 30 29  2  0  0  0  0
 31 32  2  0  0  0  0
 31 30  1  0  0  0  0
 32 33  1  0  0  0  0
 33 36  1  0  0  0  0
 33 34  2  0  0  0  0
 37 31  1  0  0  0  0
 37 42  1  0  0  0  0
 38 37  2  0  0  0  0
 39 38  1  0  0  0  0
 39 40  2  0  0  0  0
 40 41  1  0  0  0  0
 41 42  2  0  0  0  0
 41 46  1  0  0  0  0
 43 38  1  0  0  0  0
 44 39  1  0  0  0  0
 45 40  1  0  0  0  0
M  END
>  <minimizedAffinity>
-6.17406893

$$$$

 OpenBabel03252507213D

 46 50  0  0  1  0  0  0  0  0999 V2000
   38.2200   30.0390   39.8220 C   0  0  0  0  0  0  0  0  0  0  0  0
   37.6930   29.9040   38.6840 O   0  0  0  0  0  0  0  0  0  0  0  0
   38.0000   29.1540   40.9330 N   0  0  0  0  0  0  0  0  0  0  0  0
   38.9330   28.5640   41.8780 C   0  0  0  0  0  0  0  0  0  0  0  0
   38.4270   28.8520   43.3070 C   0  0  0  0  0  0  0  0  0  0  0  0
   37.1170   28.1330   43.5170 C   0  0  0  0  0  0  0  0  0  0  0  0
   36.5460   27.6970   42.1980 C   0  0  0  0  0  0  0  0  0  0  0  0
   36.6170   28.7870   41.1610 C   0  0  2  0  0  0  0  0  0  0  0  0
   39.9120   29.0870   41.8270 H   0  0  0  0  0  0  0  0  0  0  0  0
   39.0750   27.4920   41.7750 H   0  0  0  0  0  0  0  0  0  0  0  0
   38.2280   29.9550   43.2990 H   0  0  0  0  0  0  0  0  0  0  0  0
   39.2010   28.5720   44.0290 H   0  0  0  0  0  0  0  0  0  0  0  0
   37.3680   27.2000   44.0870 H   0  0  0  0  0  0  0  0  0  0  0  0
   36.4080   28.7080   44.1320 H   0  0  0  0  0  0  0  0  0  0  0  0
   35.4730   27.4660   42.3560 H   0  0  0  0  0  0  0  0  0  0  0  0
   37.1010   26.7780   41.8780 H   0  0  0  0  0  0  0  0  0  0  0  0
   36.1270   29.6810   41.5960 H   0  0  0  0  0  0  0  0  0  0  0  0
   34.8150   29.1040   39.3810 C   0  0  0  0  0  3  0  0  0  0  0  0
   35.8740   28.4150   39.9420 C   0  0  0  0  0  0  0  0  0  0  0  0
   36.2170   27.2610   39.2250 C   0  0  0  0  0  0  0  0  0  0  0  0
   37.0540   26.6830   39.6350 H   0  0  0  0  0  0  0  0  0  0  0  0
   35.6110   26.8150   38.0930 C   0  0  0  0  0  0  0  0  0  0  0  0
   34.5690   27.5310   37.5770 C   0  0  0  0  0  0  0  0  0  0  0  0
   34.1790   28.6780   38.2330 C   0  0  0  0  0  3  0  0  0  0  0  0
   34.1620   26.8440   36.4430 O   0  0  0  0  0  0  0  0  0  0  0  0
   35.0000   25.7570   36.1930 C   0  0  0  0  0  3  0  0  0  0  0  0
   35.6490   25.8740   35.3020 H   0  0  0  0  0  0  0  0  0  0  0  0
   35.8660   25.7000   37.3100 O   0  0  0  0  0  0  0  0  0  0  0  0
   38.6130   32.2940   40.6930 C   0  0  0  0  0  0  0  0  0  0  0  0
   39.1070   31.1620   40.0190 C   0  0  0  0  0  0  0  0  0  0  0  0
   40.4170   31.1610   39.5690 C   0  0  0  0  0  0  0  0  0  0  0  0
   41.1730   32.2540   39.7970 N   0  0  0  0  0  0  0  0  0  0  0  0
   40.7020   33.3520   40.4470 C   0  0  0  0  0  0  0  0  0  0  0  0
   39.4240   33.3500   40.8840 N   0  0  0  0  0  0  0  0  0  0  0  0
   37.5800   32.2630   41.0350 H   0  0  0  0  0  0  0  0  0  0  0  0
   41.3270   34.1950   40.6080 H   0  0  0  0  0  0  0  0  0  0  0  0
   40.9090   29.9900   38.8730 C   0  0  0  0  0  0  0  0  0  0  0  0
   40.9350   29.9660   37.5100 C   0  0  0  0  0  0  0  0  0  0  0  0
   41.4050   28.8480   36.8590 C   0  0  0  0  0  0  0  0  0  0  0  0
   41.8630   27.7220   37.5420 C   0  0  0  0  0  0  0  0  0  0  0  0
   41.8130   27.8020   38.9310 C   0  0  0  0  0  0  0  0  0  0  0  0
   41.3480   28.9120   39.5190 N   0  0  0  0  0  0  0  0  0  0  0  0
   40.6230   30.7280   36.8460 H   0  0  0  0  0  0  0  0  0  0  0  0
   41.4590   28.7480   35.7770 H   0  0  0  0  0  0  0  0  0  0  0  0
   42.2310   26.8460   37.0250 H   0  0  0  0  0  0  0  0  0  0  0  0
   42.1630   26.9400   39.4830 H   0  0  0  0  0  0  0  0  0  0  0  0
  1 30  1  0  0  0  0
  1  3  1  0  0  0  0
  2  1  2  0  0  0  0
  3  8  1  0  0  0  0
  3  4  1  0  0  0  0
  4  5  1  0  0  0  0
  5  6  1  0  0  0  0
  5 12  1  0  0  0  0
  6 13  1  0  0  0  0
  6 14  1  0  0  0  0
  7 15  1  0  0  0  0
  7  6  1  0  0  0  0
  8 17  1  1  0  0  0
  8  7  1  0  0  0  0
  9  4  1  0  0  0  0
 10  4  1  0  0  0  0
 11  5  1  0  0  0  0
 16  7  1  0  0  0  0
 18 19  1  0  0  0  0
 19  8  1  0  0  0  0
 20 21  1  0  0  0  0
 20 19  2  0  0  0  0
 22 20  1  0  0  0  0
 23 22  2  0  0  0  0
 23 24  1  0  0  0  0
 24 18  2  0  0  0  0
 25 23  1  0  0  0  0
 26 25  1  0  0  0  0
 26 28  1  0  0  0  0
 27 26  1  0  0  0  0
 28 22  1  0  0  0  0
 29 34  1  0  0  0  0
 29 35  1  0  0  0  0
 30 29  2  0  0  0  0
 31 32  2  0  0  0  0
 31 30  1  0  0  0  0
 32 33  1  0  0  0  0
 33 36  1  0  0  0  0
 33 34  2  0  0  0  0
 37 42  1  0  0  0  0
 37 31  1  0  0  0  0
 38 37  2  0  0  0  0
 39 38  1  0  0  0  0
 39 40  2  0  0  0  0
 40 41  1  0  0  0  0
 41 46  1  0  0  0  0
 41 42  2  0  0  0  0
 43 38  1  0  0  0  0
 44 39  1  0  0  0  0
 45 40  1  0  0  0  0
M  END
>  <minimizedAffinity>
-5.97359896

$$$$

 OpenBabel03252507213D

 46 50  0  0  1  0  0  0  0  0999 V2000
   39.1640   27.7910   39.1110 C   0  0  0  0  0  0  0  0  0  0  0  0
   40.2520   28.4250   39.1900 O   0  0  0  0  0  0  0  0  0  0  0  0
   37.8910   28.3900   38.8200 N   0  0  0  0  0  0  0  0  0  0  0  0
   36.8290   27.9750   37.9180 C   0  0  0  0  0  0  0  0  0  0  0  0
   35.5030   27.9500   38.7040 C   0  0  0  0  0  0  0  0  0  0  0  0
   35.1570   29.3560   39.1300 C   0  0  0  0  0  0  0  0  0  0  0  0
   36.3570   30.2490   38.9950 C   0  0  0  0  0  0  0  0  0  0  0  0
   37.6050   29.6100   39.5470 C   0  0  2  0  0  0  0  0  0  0  0  0
   36.9810   26.9200   37.6080 H   0  0  0  0  0  0  0  0  0  0  0  0
   36.6970   28.6070   37.0440 H   0  0  0  0  0  0  0  0  0  0  0  0
   35.7520   27.3540   39.6210 H   0  0  0  0  0  0  0  0  0  0  0  0
   34.7290   27.4740   38.0950 H   0  0  0  0  0  0  0  0  0  0  0  0
   34.3960   29.7200   38.3910 H   0  0  0  0  0  0  0  0  0  0  0  0
   34.6890   29.3990   40.1250 H   0  0  0  0  0  0  0  0  0  0  0  0
   36.1660   31.1620   39.5930 H   0  0  0  0  0  0  0  0  0  0  0  0
   36.4640   30.5080   37.9100 H   0  0  0  0  0  0  0  0  0  0  0  0
   37.3800   29.3050   40.5880 H   0  0  0  0  0  0  0  0  0  0  0  0
   39.3760   31.0230   40.7240 C   0  0  0  0  0  3  0  0  0  0  0  0
   38.7230   30.5720   39.5920 C   0  0  0  0  0  0  0  0  0  0  0  0
   39.2300   31.1280   38.4090 C   0  0  0  0  0  0  0  0  0  0  0  0
   38.7410   30.7970   37.4860 H   0  0  0  0  0  0  0  0  0  0  0  0
   40.2520   32.0200   38.3210 C   0  0  0  0  0  0  0  0  0  0  0  0
   40.8660   32.4350   39.4680 C   0  0  0  0  0  0  0  0  0  0  0  0
   40.4170   31.9270   40.6680 C   0  0  0  0  0  3  0  0  0  0  0  0
   41.8510   33.3260   39.0700 O   0  0  0  0  0  0  0  0  0  0  0  0
   41.9210   33.4000   37.6780 C   0  0  0  0  0  3  0  0  0  0  0  0
   42.8310   32.9440   37.2400 H   0  0  0  0  0  0  0  0  0  0  0  0
   40.8300   32.6270   37.2170 O   0  0  0  0  0  0  0  0  0  0  0  0
   39.6450   25.5390   38.2780 C   0  0  0  0  0  0  0  0  0  0  0  0
   39.2050   26.3640   39.3300 C   0  0  0  0  0  0  0  0  0  0  0  0
   38.8300   25.7870   40.5310 C   0  0  0  0  0  0  0  0  0  0  0  0
   38.9000   24.4450   40.6460 N   0  0  0  0  0  0  0  0  0  0  0  0
   39.3230   23.6410   39.6330 C   0  0  0  0  0  0  0  0  0  0  0  0
   39.6880   24.2080   38.4630 N   0  0  0  0  0  0  0  0  0  0  0  0
   39.9330   26.0240   37.3470 H   0  0  0  0  0  0  0  0  0  0  0  0
   39.3650   22.5880   39.7610 H   0  0  0  0  0  0  0  0  0  0  0  0
   38.3760   26.6490   41.6030 C   0  0  0  0  0  0  0  0  0  0  0  0
   37.0490   26.7200   41.9070 C   0  0  0  0  0  0  0  0  0  0  0  0
   36.6290   27.5440   42.9270 C   0  0  0  0  0  0  0  0  0  0  0  0
   37.5140   28.3190   43.6750 C   0  0  0  0  0  0  0  0  0  0  0  0
   38.8560   28.2070   43.3210 C   0  0  0  0  0  0  0  0  0  0  0  0
   39.2160   27.3920   42.3200 N   0  0  0  0  0  0  0  0  0  0  0  0
   36.2520   26.2060   41.4390 H   0  0  0  0  0  0  0  0  0  0  0  0
   35.5910   27.6580   43.2330 H   0  0  0  0  0  0  0  0  0  0  0  0
   37.1780   28.9640   44.4750 H   0  0  0  0  0  0  0  0  0  0  0  0
   39.5620   28.7990   43.8870 H   0  0  0  0  0  0  0  0  0  0  0  0
  1  2  2  0  0  0  0
  1 30  1  0  0  0  0
  3  1  1  0  0  0  0
  3  8  1  0  0  0  0
  4  5  1  0  0  0  0
  4  3  1  0  0  0  0
  5  6  1  0  0  0  0
  5 11  1  0  0  0  0
  6 14  1  0  0  0  0
  7  6  1  0  0  0  0
  7  8  1  0  0  0  0
  7 15  1  0  0  0  0
  8 19  1  0  0  0  0
  8 17  1  1  0  0  0
  9  4  1  0  0  0  0
 10  4  1  0  0  0  0
 12  5  1  0  0  0  0
 13  6  1  0  0  0  0
 16  7  1  0  0  0  0
 19 18  2  0  0  0  0
 20 19  1  0  0  0  0
 21 20  1  0  0  0  0
 22 20  2  0  0  0  0
 22 23  1  0  0  0  0
 23 24  2  0  0  0  0
 24 18  1  0  0  0  0
 25 23  1  0  0  0  0
 26 25  1  0  0  0  0
 27 26  1  0  0  0  0
 28 26  1  0  0  0  0
 28 22  1  0  0  0  0
 29 34  2  0  0  0  0
 29 30  1  0  0  0  0
 30 31  2  0  0  0  0
 31 32  1  0  0  0  0
 31 37  1  0  0  0  0
 33 36  1  0  0  0  0
 33 32  2  0  0  0  0
 34 33  1  0  0  0  0
 35 29  1  0  0  0  0
 37 38  2  0  0  0  0
 37 42  1  0  0  0  0
 38 39  1  0  0  0  0
 39 44  1  0  0  0  0
 39 40  2  0  0  0  0
 40 45  1  0  0  0  0
 41 40  1  0  0  0  0
 41 46  1  0  0  0  0
 42 41  2  0  0  0  0
 43 38  1  0  0  0  0
M  END
>  <minimizedAffinity>
-5.88988876

$$$$

 OpenBabel03252507213D

 46 50  0  0  1  0  0  0  0  0999 V2000
   37.9500   26.8790   39.7320 C   0  0  0  0  0  0  0  0  0  0  0  0
   38.6660   27.2810   38.7740 O   0  0  0  0  0  0  0  0  0  0  0  0
   37.6510   27.6500   40.9060 N   0  0  0  0  0  0  0  0  0  0  0  0
   36.3970   27.8600   41.6120 C   0  0  0  0  0  0  0  0  0  0  0  0
   36.6200   27.5450   43.1050 C   0  0  0  0  0  0  0  0  0  0  0  0
   37.5900   28.5490   43.6800 C   0  0  0  0  0  0  0  0  0  0  0  0
   38.3030   29.2730   42.5740 C   0  0  0  0  0  0  0  0  0  0  0  0
   38.7830   28.3340   41.4980 C   0  0  2  0  0  0  0  0  0  0  0  0
   35.6440   27.1120   41.2870 H   0  0  0  0  0  0  0  0  0  0  0  0
   35.9870   28.8630   41.5310 H   0  0  0  0  0  0  0  0  0  0  0  0
   37.1170   26.5410   43.0920 H   0  0  0  0  0  0  0  0  0  0  0  0
   35.6540   27.5260   43.6200 H   0  0  0  0  0  0  0  0  0  0  0  0
   36.9610   29.3090   44.2140 H   0  0  0  0  0  0  0  0  0  0  0  0
   38.2690   28.1080   44.4250 H   0  0  0  0  0  0  0  0  0  0  0  0
   39.2010   29.7540   43.0110 H   0  0  0  0  0  0  0  0  0  0  0  0
   37.6010   30.0470   42.1710 H   0  0  0  0  0  0  0  0  0  0  0  0
   39.3910   27.5530   41.9960 H   0  0  0  0  0  0  0  0  0  0  0  0
   40.9520   28.6940   40.2010 C   0  0  0  0  0  3  0  0  0  0  0  0
   39.6520   29.0300   40.5300 C   0  0  0  0  0  0  0  0  0  0  0  0
   39.1830   30.1510   39.8320 C   0  0  0  0  0  0  0  0  0  0  0  0
   38.1540   30.4520   40.0610 H   0  0  0  0  0  0  0  0  0  0  0  0
   39.8840   30.8730   38.9180 C   0  0  0  0  0  0  0  0  0  0  0  0
   41.1650   30.5030   38.6280 C   0  0  0  0  0  0  0  0  0  0  0  0
   41.6900   29.4070   39.2790 C   0  0  0  0  0  3  0  0  0  0  0  0
   41.6170   31.4090   37.6810 O   0  0  0  0  0  0  0  0  0  0  0  0
   40.5980   32.2860   37.3070 C   0  0  0  0  0  3  0  0  0  0  0  0
   40.2170   32.1340   36.2780 H   0  0  0  0  0  0  0  0  0  0  0  0
   39.5230   31.9870   38.1760 O   0  0  0  0  0  0  0  0  0  0  0  0
   36.2910   25.3440   38.7880 C   0  0  0  0  0  0  0  0  0  0  0  0
   37.3940   25.5490   39.6380 C   0  0  0  0  0  0  0  0  0  0  0  0
   37.9080   24.4780   40.3500 C   0  0  0  0  0  0  0  0  0  0  0  0
   37.3250   23.2710   40.1990 N   0  0  0  0  0  0  0  0  0  0  0  0
   36.2570   23.0660   39.3810 C   0  0  0  0  0  0  0  0  0  0  0  0
   35.7590   24.1130   38.6890 N   0  0  0  0  0  0  0  0  0  0  0  0
   35.9120   26.2060   38.2420 H   0  0  0  0  0  0  0  0  0  0  0  0
   35.8250   22.1010   39.2890 H   0  0  0  0  0  0  0  0  0  0  0  0
   39.0410   24.7050   41.2220 C   0  0  0  0  0  0  0  0  0  0  0  0
   38.8770   24.6790   42.5750 C   0  0  0  0  0  0  0  0  0  0  0  0
   39.9610   24.8970   43.3950 C   0  0  0  0  0  0  0  0  0  0  0  0
   41.2390   25.1470   42.8960 C   0  0  0  0  0  0  0  0  0  0  0  0
   41.3470   25.1620   41.5070 C   0  0  0  0  0  0  0  0  0  0  0  0
   40.2630   24.9450   40.7520 N   0  0  0  0  0  0  0  0  0  0  0  0
   37.9820   24.5100   43.1130 H   0  0  0  0  0  0  0  0  0  0  0  0
   39.9160   24.8930   44.4830 H   0  0  0  0  0  0  0  0  0  0  0  0
   42.0870   25.3170   43.5450 H   0  0  0  0  0  0  0  0  0  0  0  0
   42.3290   25.3540   41.0970 H   0  0  0  0  0  0  0  0  0  0  0  0
  1  3  1  0  0  0  0
  2  1  2  0  0  0  0
  3  8  1  0  0  0  0
  3  4  1  0  0  0  0
  4  5  1  0  0  0  0
  5 12  1  0  0  0  0
  5  6  1  0  0  0  0
  6 13  1  0  0  0  0
  6 14  1  0  0  0  0
  7 15  1  0  0  0  0
  7  6  1  0  0  0  0
  8 17  1  1  0  0  0
  8  7  1  0  0  0  0
  9  4  1  0  0  0  0
 10  4  1  0  0  0  0
 11  5  1  0  0  0  0
 16  7  1  0  0  0  0
 18 19  1  0  0  0  0
 19  8  1  0  0  0  0
 20 21  1  0  0  0  0
 20 19  2  0  0  0  0
 22 20  1  0  0  0  0
 23 22  2  0  0  0  0
 23 24  1  0  0  0  0
 24 18  2  0  0  0  0
 25 23  1  0  0  0  0
 26 25  1  0  0  0  0
 26 28  1  0  0  0  0
 27 26  1  0  0  0  0
 28 22  1  0  0  0  0
 29 30  1  0  0  0  0
 30  1  1  0  0  0  0
 30 31  2  0  0  0  0
 31 37  1  0  0  0  0
 32 31  1  0  0  0  0
 33 32  2  0  0  0  0
 34 29  2  0  0  0  0
 34 33  1  0  0  0  0
 35 29  1  0  0  0  0
 36 33  1  0  0  0  0
 37 38  1  0  0  0  0
 38 43  1  0  0  0  0
 38 39  2  0  0  0  0
 39 44  1  0  0  0  0
 40 39  1  0  0  0  0
 40 45  1  0  0  0  0
 41 40  2  0  0  0  0
 42 37  2  0  0  0  0
 42 41  1  0  0  0  0
 46 41  1  0  0  0  0
M  END
>  <minimizedAffinity>
-5.82212543

$$$$

 OpenBabel03252507213D

 46 50  0  0  1  0  0  0  0  0999 V2000
   39.1150   29.0820   40.0610 C   0  0  0  0  0  0  0  0  0  0  0  0
   40.3640   29.2530   40.0020 O   0  0  0  0  0  0  0  0  0  0  0  0
   38.3860   28.8050   41.2680 N   0  0  0  0  0  0  0  0  0  0  0  0
   37.1420   29.3600   41.7760 C   0  0  0  0  0  0  0  0  0  0  0  0
   36.1990   28.1930   42.1350 C   0  0  0  0  0  0  0  0  0  0  0  0
   36.8000   27.4110   43.2780 C   0  0  0  0  0  0  0  0  0  0  0  0
   38.2490   27.7660   43.4460 C   0  0  0  0  0  0  0  0  0  0  0  0
   38.9800   27.8030   42.1290 C   0  0  2  0  0  0  0  0  0  0  0  0
   36.6060   29.9010   40.9680 H   0  0  0  0  0  0  0  0  0  0  0  0
   37.2460   29.9970   42.6490 H   0  0  0  0  0  0  0  0  0  0  0  0
   36.2170   27.5480   41.2190 H   0  0  0  0  0  0  0  0  0  0  0  0
   35.2010   28.5860   42.3510 H   0  0  0  0  0  0  0  0  0  0  0  0
   36.2690   27.7650   44.2020 H   0  0  0  0  0  0  0  0  0  0  0  0
   36.6210   26.3290   43.1970 H   0  0  0  0  0  0  0  0  0  0  0  0
   38.7220   26.9730   44.0590 H   0  0  0  0  0  0  0  0  0  0  0  0
   38.2960   28.7520   43.9770 H   0  0  0  0  0  0  0  0  0  0  0  0
   38.8050   26.8260   41.6340 H   0  0  0  0  0  0  0  0  0  0  0  0
   41.0790   29.0150   42.9300 C   0  0  0  0  0  3  0  0  0  0  0  0
   40.4350   27.9510   42.3280 C   0  0  0  0  0  0  0  0  0  0  0  0
   41.3170   26.9530   41.8910 C   0  0  0  0  0  0  0  0  0  0  0  0
   40.8470   26.0880   41.4070 H   0  0  0  0  0  0  0  0  0  0  0  0
   42.6700   26.9730   42.0170 C   0  0  0  0  0  0  0  0  0  0  0  0
   43.2600   28.0470   42.6190 C   0  0  0  0  0  0  0  0  0  0  0  0
   42.4510   29.0660   43.0730 C   0  0  0  0  0  3  0  0  0  0  0  0
   44.6230   27.7900   42.6020 O   0  0  0  0  0  0  0  0  0  0  0  0
   44.8820   26.5220   42.0800 C   0  0  0  0  0  3  0  0  0  0  0  0
   45.2400   25.7840   42.8250 H   0  0  0  0  0  0  0  0  0  0  0  0
   43.6290   26.0510   41.6260 O   0  0  0  0  0  0  0  0  0  0  0  0
   37.9520   27.9770   38.2110 C   0  0  0  0  0  0  0  0  0  0  0  0
   38.3700   29.1710   38.8270 C   0  0  0  0  0  0  0  0  0  0  0  0
   38.0550   30.3830   38.2360 C   0  0  0  0  0  0  0  0  0  0  0  0
   37.3560   30.3710   37.0830 N   0  0  0  0  0  0  0  0  0  0  0  0
   36.9500   29.2200   36.4820 C   0  0  0  0  0  0  0  0  0  0  0  0
   37.2580   28.0400   37.0610 N   0  0  0  0  0  0  0  0  0  0  0  0
   38.2150   27.0410   38.7010 H   0  0  0  0  0  0  0  0  0  0  0  0
   36.4010   29.2500   35.5730 H   0  0  0  0  0  0  0  0  0  0  0  0
   38.4950   31.6030   38.8810 C   0  0  0  0  0  0  0  0  0  0  0  0
   37.6450   32.2890   39.6970 C   0  0  0  0  0  0  0  0  0  0  0  0
   38.0740   33.4480   40.3050 C   0  0  0  0  0  0  0  0  0  0  0  0
   39.3590   33.9580   40.1210 C   0  0  0  0  0  0  0  0  0  0  0  0
   40.1830   33.2160   39.2780 C   0  0  0  0  0  0  0  0  0  0  0  0
   39.7200   32.0950   38.7100 N   0  0  0  0  0  0  0  0  0  0  0  0
   36.6450   32.0440   39.9370 H   0  0  0  0  0  0  0  0  0  0  0  0
   37.4610   34.0530   40.9690 H   0  0  0  0  0  0  0  0  0  0  0  0
   39.6900   34.8680   40.6010 H   0  0  0  0  0  0  0  0  0  0  0  0
   41.1840   33.5920   39.1200 H   0  0  0  0  0  0  0  0  0  0  0  0
  1  3  1  0  0  0  0
  2  1  2  0  0  0  0
  3  4  1  0  0  0  0
  3  8  1  0  0  0  0
  4  5  1  0  0  0  0
  4 10  1  0  0  0  0
  5 12  1  0  0  0  0
  5  6  1  0  0  0  0
  6  7  1  0  0  0  0
  6 13  1  0  0  0  0
  7 16  1  0  0  0  0
  7 15  1  0  0  0  0
  8 17  1  6  0  0  0
  8 19  1  0  0  0  0
  8  7  1  0  0  0  0
  9  4  1  0  0  0  0
 11  5  1  0  0  0  0
 14  6  1  0  0  0  0
 18 24  1  0  0  0  0
 19 18  2  0  0  0  0
 20 22  2  0  0  0  0
 20 19  1  0  0  0  0
 21 20  1  0  0  0  0
 22 23  1  0  0  0  0
 23 24  2  0  0  0  0
 25 23  1  0  0  0  0
 26 25  1  0  0  0  0
 26 27  1  0  0  0  0
 28 22  1  0  0  0  0
 28 26  1  0  0  0  0
 29 35  1  0  0  0  0
 29 30  1  0  0  0  0
 30  1  1  0  0  0  0
 31 30  2  0  0  0  0
 31 37  1  0  0  0  0
 32 31  1  0  0  0  0
 33 34  1  0  0  0  0
 33 32  2  0  0  0  0
 34 29  2  0  0  0  0
 36 33  1  0  0  0  0
 37 38  1  0  0  0  0
 38 43  1  0  0  0  0
 38 39  2  0  0  0  0
 39 44  1  0  0  0  0
 40 39  1  0  0  0  0
 40 45  1  0  0  0  0
 41 40  2  0  0  0  0
 42 37  2  0  0  0  0
 42 41  1  0  0  0  0
 46 41  1  0  0  0  0
M  END
>  <minimizedAffinity>
-5.78206444

$$$$
