
 OpenBabel03252506423D

 42 46  0  0  1  0  0  0  0  0999 V2000
   48.9900   33.3520   40.9120 N   0  0  1  0  0  0  0  0  0  0  0  0
   50.1130   32.6050   41.4270 C   0  0  0  0  0  0  0  0  0  0  0  0
   50.3830   31.3590   40.6210 C   0  0  0  0  0  0  0  0  0  0  0  0
   49.2610   30.3940   40.9060 C   0  0  0  0  0  0  0  0  0  0  0  0
   47.9380   31.1230   40.9140 C   0  0  0  0  0  0  0  0  0  0  0  0
   48.0530   32.4570   40.2540 C   0  0  2  0  0  0  0  0  0  0  0  0
   51.0200   33.2340   41.5620 H   0  0  0  0  0  0  0  0  0  0  0  0
   49.8410   32.2430   42.4500 H   0  0  0  0  0  0  0  0  0  0  0  0
   50.4900   31.6040   39.5650 H   0  0  0  0  0  0  0  0  0  0  0  0
   51.3680   30.9790   40.9650 H   0  0  0  0  0  0  0  0  0  0  0  0
   49.4240   29.8210   41.8410 H   0  0  0  0  0  0  0  0  0  0  0  0
   49.2350   29.6440   40.1000 H   0  0  0  0  0  0  0  0  0  0  0  0
   47.1430   30.5620   40.3900 H   0  0  0  0  0  0  0  0  0  0  0  0
   47.6640   31.3090   41.9660 H   0  0  0  0  0  0  0  0  0  0  0  0
   47.0500   32.9540   40.4590 H   0  0  0  0  0  0  0  0  0  0  0  0
   48.4010   33.7640   38.3380 C   0  0  0  0  0  3  0  0  0  0  0  0
   48.1870   32.4570   38.7980 C   0  0  0  0  0  0  0  0  0  0  0  0
   48.1360   31.4660   37.8670 C   0  0  0  0  0  0  0  0  0  0  0  0
   47.9640   30.4990   38.2900 H   0  0  0  0  0  0  0  0  0  0  0  0
   48.2900   31.7360   36.5250 C   0  0  0  0  0  0  0  0  0  0  0  0
   48.5020   33.0000   36.0180 C   0  0  0  0  0  0  0  0  0  0  0  0
   48.5540   34.0130   36.9690 C   0  0  0  0  0  3  0  0  0  0  0  0
   48.6170   32.9590   34.6360 O   0  0  0  0  0  0  0  0  0  0  0  0
   48.1210   31.7050   34.2360 C   0  0  0  0  0  3  0  0  0  0  0  0
   48.8010   31.2850   33.4740 H   0  0  0  0  0  0  0  0  0  0  0  0
   48.2760   30.9110   35.4100 O   0  0  0  0  0  0  0  0  0  0  0  0
   47.1480   34.8890   41.8810 C   0  0  1  0  0  0  0  0  0  0  0  0
   48.4230   35.5730   41.8090 C   0  0  0  0  0  0  0  0  0  0  0  0
   48.4380   34.0880   42.0040 C   0  0  2  0  0  0  0  0  0  0  0  0
   46.5720   34.5630   40.9850 H   0  0  0  0  0  0  0  0  0  0  0  0
   48.6930   35.9830   40.7920 H   0  0  0  0  0  0  0  0  0  0  0  0
   48.7510   36.2550   42.6030 H   0  0  0  0  0  0  0  0  0  0  0  0
   48.6700   33.7630   43.0410 H   0  0  0  0  0  0  0  0  0  0  0  0
   45.3970   36.0720   43.2700 C   0  0  0  0  0  0  0  0  0  0  0  0
   46.2800   34.9770   43.0910 C   0  0  0  0  0  0  0  0  0  0  0  0
   46.3090   34.0040   44.0710 C   0  0  0  0  0  0  0  0  0  0  0  0
   45.4840   34.1650   45.1440 N   0  0  0  0  0  0  0  0  0  0  0  0
   44.6530   35.2130   45.2930 C   0  0  0  0  0  0  0  0  0  0  0  0
   44.6000   36.1820   44.3560 N   0  0  0  0  0  0  0  0  0  0  0  0
   45.3470   36.8550   42.5220 H   0  0  0  0  0  0  0  0  0  0  0  0
   46.9560   33.1500   43.9930 H   0  0  0  0  0  0  0  0  0  0  0  0
   44.0620   35.1880   46.2100 H   0  0  0  0  0  0  0  0  0  0  0  0
  1  2  1  1  0  0  0
  1 29  1  0  0  0  0
  2  7  1  0  0  0  0
  2  8  1  0  0  0  0
  3  4  1  0  0  0  0
  3 10  1  0  0  0  0
  3  2  1  0  0  0  0
  4  5  1  0  0  0  0
  4 11  1  0  0  0  0
  5 14  1  0  0  0  0
  6 15  1  1  0  0  0
  6  1  1  0  0  0  0
  6  5  1  0  0  0  0
  9  3  1  0  0  0  0
 12  4  1  0  0  0  0
 13  5  1  0  0  0  0
 16 17  1  0  0  0  0
 17  6  1  0  0  0  0
 18 19  1  0  0  0  0
 18 17  2  0  0  0  0
 20 18  1  0  0  0  0
 21 20  2  0  0  0  0
 21 22  1  0  0  0  0
 22 16  2  0  0  0  0
 23 21  1  0  0  0  0
 24 23  1  0  0  0  0
 24 26  1  0  0  0  0
 25 24  1  0  0  0  0
 26 20  1  0  0  0  0
 27 30  1  6  0  0  0
 27 29  1  0  0  0  0
 27 35  1  0  0  0  0
 28 27  1  0  0  0  0
 28 29  1  0  0  0  0
 28 32  1  0  0  0  0
 29 33  1  1  0  0  0
 31 28  1  0  0  0  0
 34 39  1  0  0  0  0
 35 34  2  0  0  0  0
 35 36  1  0  0  0  0
 36 37  2  0  0  0  0
 37 38  1  0  0  0  0
 38 42  1  0  0  0  0
 39 38  2  0  0  0  0
 40 34  1  0  0  0  0
 41 36  1  0  0  0  0
M  END
>  <minimizedAffinity>
-5.79965734

>  <minimizedRMSD>
1.84791481

$$$$
