
 OpenBabel03252502463D

 47 51  0  0  1  0  0  0  0  0999 V2000
   46.6780   35.5000   42.1610 C   0  0  0  0  0  0  0  0  0  0  0  0
   46.1010   36.2800   41.6000 H   0  0  0  0  0  0  0  0  0  0  0  0
   46.9620   35.9800   43.1120 H   0  0  0  0  0  0  0  0  0  0  0  0
   47.9140   35.0590   41.4410 C   0  0  1  0  0  0  0  0  0  0  0  0
   49.1380   35.9140   41.5790 C   0  0  0  0  0  0  0  0  0  0  0  0
   49.0290   34.5870   42.2520 C   0  0  2  0  0  0  0  0  0  0  0  0
   47.7150   34.6660   40.4490 H   0  0  0  0  0  0  0  0  0  0  0  0
   49.7700   36.0470   40.6740 H   0  0  0  0  0  0  0  0  0  0  0  0
   49.1010   36.8520   42.1820 H   0  0  0  0  0  0  0  0  0  0  0  0
   49.1020   34.6430   43.3310 H   0  0  0  0  0  0  0  0  0  0  0  0
   49.8280   33.5580   41.5980 N   0  0  0  0  0  0  0  0  0  0  0  0
   49.0780   32.6650   40.7940 C   0  0  0  0  0  0  0  0  0  0  0  0
   50.0780   31.6770   40.2240 C   0  0  0  0  0  0  0  0  0  0  0  0
   50.7290   30.9250   41.2330 N   0  0  0  0  0  0  0  0  0  0  0  0
   50.8150   31.5980   42.5170 C   0  0  0  0  0  0  0  0  0  0  0  0
   50.9560   33.1070   42.2910 C   0  0  0  0  0  0  0  0  0  0  0  0
   48.6930   33.2340   39.9150 H   0  0  0  0  0  0  0  0  0  0  0  0
   48.2220   32.1810   41.2720 H   0  0  0  0  0  0  0  0  0  0  0  0
   50.7350   32.2070   39.5090 H   0  0  0  0  0  0  0  0  0  0  0  0
   49.4710   30.9690   39.6170 H   0  0  0  0  0  0  0  0  0  0  0  0
   51.6160   30.5070   40.9310 H   0  0  0  0  0  0  0  0  0  0  0  0
   49.9570   31.4070   43.1740 H   0  0  0  0  0  0  0  0  0  0  0  0
   51.7370   31.2320   42.9930 H   0  0  0  0  0  0  0  0  0  0  0  0
   50.9360   33.5430   43.3320 H   0  0  0  0  0  0  0  0  0  0  0  0
   51.9360   33.3440   41.8690 H   0  0  0  0  0  0  0  0  0  0  0  0
   45.8650   34.2590   42.4240 C   0  0  0  0  0  0  0  0  0  0  0  0
   46.1660   33.3590   41.9150 H   0  0  0  0  0  0  0  0  0  0  0  0
   44.8250   34.4830   42.0620 H   0  0  0  0  0  0  0  0  0  0  0  0
   44.6810   34.8390   45.9400 C   0  0  0  0  0  0  0  0  0  0  0  0
   44.8310   34.9760   44.5370 C   0  0  0  0  0  0  0  0  0  0  0  0
   45.6910   34.1260   43.9070 C   0  0  0  0  0  0  0  0  0  0  0  0
   46.3640   33.1930   44.6290 N   0  0  0  0  0  0  0  0  0  0  0  0
   46.2250   33.0670   45.9290 C   0  0  0  0  0  0  0  0  0  0  0  0
   45.3930   33.8760   46.5990 N   0  0  0  0  0  0  0  0  0  0  0  0
   44.0130   35.4840   46.4930 H   0  0  0  0  0  0  0  0  0  0  0  0
   44.2480   35.7510   44.0630 H   0  0  0  0  0  0  0  0  0  0  0  0
   47.1980   30.8060   46.0840 C   0  0  0  0  0  0  0  0  0  0  0  0
   46.9780   32.0440   46.6510 C   0  0  0  0  0  0  0  0  0  0  0  0
   47.4990   32.2540   47.9120 C   0  0  0  0  0  0  0  0  0  0  0  0
   47.3220   33.2280   48.3480 H   0  0  0  0  0  0  0  0  0  0  0  0
   48.1990   31.2450   48.5360 C   0  0  0  0  0  0  0  0  0  0  0  0
   48.4120   30.0060   47.9530 C   0  0  0  0  0  0  0  0  0  0  0  0
   47.8990   29.7850   46.7000 C   0  0  0  0  0  0  0  0  0  0  0  0
   49.1480   29.2620   48.8710 O   0  0  0  0  0  0  0  0  0  0  0  0
   49.6690   30.1290   49.8710 C   0  0  0  0  0  0  0  0  0  0  0  0
   50.6810   30.4900   49.6230 H   0  0  0  0  0  0  0  0  0  0  0  0
   48.8020   31.2530   49.7970 O   0  0  0  0  0  0  0  0  0  0  0  0
  1 26  1  0  0  0  0
  1  3  1  0  0  0  0
  2  1  1  0  0  0  0
  4  7  1  6  0  0  0
  4  5  1  0  0  0  0
  4  1  1  0  0  0  0
  4  6  1  0  0  0  0
  5  9  1  0  0  0  0
  5  6  1  0  0  0  0
  6 10  1  1  0  0  0
  8  5  1  0  0  0  0
 11  6  1  0  0  0  0
 11 16  1  0  0  0  0
 12 18  1  0  0  0  0
 12 11  1  0  0  0  0
 13 12  1  0  0  0  0
 13 14  1  0  0  0  0
 14 15  1  0  0  0  0
 15 23  1  0  0  0  0
 15 22  1  0  0  0  0
 16 15  1  0  0  0  0
 16 24  1  0  0  0  0
 17 12  1  0  0  0  0
 19 13  1  0  0  0  0
 20 13  1  0  0  0  0
 21 14  1  0  0  0  0
 25 16  1  0  0  0  0
 26 31  1  0  0  0  0
 27 26  1  0  0  0  0
 28 26  1  0  0  0  0
 29 35  1  0  0  0  0
 29 34  1  0  0  0  0
 30 29  2  0  0  0  0
 31 30  1  0  0  0  0
 31 32  2  0  0  0  0
 32 33  1  0  0  0  0
 33 34  2  0  0  0  0
 33 38  1  0  0  0  0
 36 30  1  0  0  0  0
 37 38  2  0  0  0  0
 37 43  1  0  0  0  0
 38 39  1  0  0  0  0
 39 40  1  0  0  0  0
 39 41  2  0  0  0  0
 41 47  1  0  0  0  0
 42 41  1  0  0  0  0
 42 44  1  0  0  0  0
 43 42  2  0  0  0  0
 44 45  1  0  0  0  0
 46 45  1  0  0  0  0
 47 45  1  0  0  0  0
M  END
>  <minimizedAffinity>
-6.08334398

>  <minimizedRMSD>
1.76319027

$$$$
