
 OpenBabel03242523373D

 21 23  0  0  0  0  0  0  0  0999 V2000
   46.1210   31.5270   45.0570 C   0  0  0  0  0  3  0  0  0  0  0  0
   45.9070   32.8220   45.4620 C   0  0  0  0  0  0  0  0  0  0  0  0
   45.6890   33.1890   46.7950 C   0  0  0  0  0  0  0  0  0  0  0  0
   45.5250   34.1950   47.0950 H   0  0  0  0  0  0  0  0  0  0  0  0
   45.7070   32.1200   47.6870 C   0  0  0  0  0  0  0  0  0  0  0  0
   45.9140   30.7980   47.3560 C   0  0  0  0  0  0  0  0  0  0  0  0
   46.1190   30.5490   46.0070 C   0  0  0  0  0  3  0  0  0  0  0  0
   45.8500   30.0780   48.5400 O   0  0  0  0  0  0  0  0  0  0  0  0
   45.4140   30.9240   49.5710 C   0  0  0  0  0  3  0  0  0  0  0  0
   46.0550   30.8110   50.4720 H   0  0  0  0  0  0  0  0  0  0  0  0
   45.5130   32.2310   49.0760 O   0  0  0  0  0  0  0  0  0  0  0  0
   44.9790   35.8750   43.6270 C   0  0  0  0  0  0  0  0  0  0  0  0
   45.9280   35.8980   42.5750 C   0  0  0  0  0  0  0  0  0  0  0  0
   46.8720   34.8480   42.5240 C   0  0  0  0  0  0  0  0  0  0  0  0
   46.8200   33.8890   43.4750 N   0  0  0  0  0  0  0  0  0  0  0  0
   45.9020   33.9060   44.4580 C   0  0  0  0  0  0  0  0  0  0  0  0
   44.9970   34.8830   44.5340 N   0  0  0  0  0  0  0  0  0  0  0  0
   44.3110   36.7080   43.5800 H   0  0  0  0  0  0  0  0  0  0  0  0
   45.9540   36.6700   41.8270 H   0  0  0  0  0  0  0  0  0  0  0  0
   48.0870   34.8180   41.2290 S   0  0  0  0  0  0  0  0  0  0  0  0
   48.6800   33.5220   41.2330 H   0  0  0  0  0  0  0  0  0  0  0  0
  1  2  2  0  0  0  0
  1  7  1  0  0  0  0
  2  3  1  0  0  0  0
  3  4  1  0  0  0  0
  3  5  2  0  0  0  0
  5 11  1  0  0  0  0
  6  5  1  0  0  0  0
  6  8  1  0  0  0  0
  7  6  2  0  0  0  0
  8  9  1  0  0  0  0
  9 10  1  0  0  0  0
 11  9  1  0  0  0  0
 12 17  1  0  0  0  0
 13 12  2  0  0  0  0
 14 13  1  0  0  0  0
 14 15  2  0  0  0  0
 15 16  1  0  0  0  0
 16 17  2  0  0  0  0
 16  2  1  0  0  0  0
 18 12  1  0  0  0  0
 19 13  1  0  0  0  0
 20 21  1  0  0  0  0
 20 14  1  0  0  0  0
M  END
>  <minimizedAffinity>
-4.76216888

>  <minimizedRMSD>
1.25925279

$$$$
