
 OpenBabel03252508333D

 34 37  0  0  1  0  0  0  0  0999 V2000
   38.4310   30.5720   40.9920 N   0  0  0  0  0  0  0  0  0  0  0  0
   37.1800   31.1600   40.7010 C   0  0  1  0  0  0  0  0  0  0  0  0
   37.2170   32.5560   40.1990 C   0  0  0  0  0  0  0  0  0  0  0  0
   38.2400   33.3860   40.6820 N   0  0  0  0  0  0  0  0  0  0  0  0
   39.4770   32.7940   40.9950 C   0  0  0  0  0  0  0  0  0  0  0  0
   39.5490   31.3470   40.5480 C   0  0  0  0  0  0  0  0  0  0  0  0
   36.5650   31.1510   41.6440 H   0  0  0  0  0  0  0  0  0  0  0  0
   36.2280   33.0360   40.3450 H   0  0  0  0  0  0  0  0  0  0  0  0
   37.3360   32.5020   39.0760 H   0  0  0  0  0  0  0  0  0  0  0  0
   37.8870   33.8510   41.5700 H   0  0  0  0  0  0  0  0  0  0  0  0
   39.8010   32.8510   42.0500 H   0  0  0  0  0  0  0  0  0  0  0  0
   40.2650   33.3280   40.4040 H   0  0  0  0  0  0  0  0  0  0  0  0
   39.5990   31.3220   39.4200 H   0  0  0  0  0  0  0  0  0  0  0  0
   40.5410   30.9960   40.8860 H   0  0  0  0  0  0  0  0  0  0  0  0
   35.2750   29.6340   40.0180 C   0  0  0  0  0  3  0  0  0  0  0  0
   36.3850   30.3780   39.6880 C   0  0  0  0  0  0  0  0  0  0  0  0
   36.7150   30.3290   38.3290 C   0  0  0  0  0  0  0  0  0  0  0  0
   37.5800   30.8920   38.0000 H   0  0  0  0  0  0  0  0  0  0  0  0
   36.0070   29.6070   37.3950 C   0  0  0  0  0  0  0  0  0  0  0  0
   34.9070   28.8870   37.8040 C   0  0  0  0  0  0  0  0  0  0  0  0
   34.5330   28.8980   39.1320 C   0  0  0  0  0  3  0  0  0  0  0  0
   34.3940   28.2630   36.6550 O   0  0  0  0  0  0  0  0  0  0  0  0
   35.3630   28.3300   35.6170 C   0  0  0  0  0  3  0  0  0  0  0  0
   35.9120   27.3660   35.6080 H   0  0  0  0  0  0  0  0  0  0  0  0
   36.1570   29.4250   36.0310 O   0  0  0  0  0  0  0  0  0  0  0  0
   37.8790   29.2900   42.9320 C   0  0  0  0  0  0  0  0  0  0  0  0
   38.4640   29.3280   41.6600 C   0  0  0  0  0  0  0  0  0  0  0  0
   39.0180   28.1570   41.1770 C   0  0  0  0  0  0  0  0  0  0  0  0
   38.9990   27.0100   41.9090 N   0  0  0  0  0  0  0  0  0  0  0  0
   38.4180   27.0130   43.1480 C   0  0  0  0  0  0  0  0  0  0  0  0
   37.8720   28.1460   43.6350 N   0  0  0  0  0  0  0  0  0  0  0  0
   37.3990   30.0790   43.4880 H   0  0  0  0  0  0  0  0  0  0  0  0
   39.4650   28.1730   40.2010 H   0  0  0  0  0  0  0  0  0  0  0  0
   38.4130   26.0880   43.7130 H   0  0  0  0  0  0  0  0  0  0  0  0
  1 27  1  0  0  0  0
  2  1  1  0  0  0  0
  2  7  1  1  0  0  0
  3  8  1  0  0  0  0
  3  4  1  0  0  0  0
  3  2  1  0  0  0  0
  4  5  1  0  0  0  0
  4 10  1  0  0  0  0
  5 11  1  0  0  0  0
  6 14  1  0  0  0  0
  6  1  1  0  0  0  0
  6  5  1  0  0  0  0
  9  3  1  0  0  0  0
 12  5  1  0  0  0  0
 13  6  1  0  0  0  0
 16 15  1  0  0  0  0
 16  2  1  0  0  0  0
 17 16  2  0  0  0  0
 18 17  1  0  0  0  0
 19 20  2  0  0  0  0
 19 17  1  0  0  0  0
 20 21  1  0  0  0  0
 21 15  2  0  0  0  0
 22 20  1  0  0  0  0
 23 25  1  0  0  0  0
 23 22  1  0  0  0  0
 24 23  1  0  0  0  0
 25 19  1  0  0  0  0
 26 32  1  0  0  0  0
 26 31  1  0  0  0  0
 27 26  2  0  0  0  0
 28 27  1  0  0  0  0
 28 29  2  0  0  0  0
 29 30  1  0  0  0  0
 30 31  2  0  0  0  0
 30 34  1  0  0  0  0
 33 28  1  0  0  0  0
M  END
>  <minimizedAffinity>
-5.43811798

$$$$

 OpenBabel03252508333D

 34 37  0  0  1  0  0  0  0  0999 V2000
   36.1810   29.1180   40.0960 N   0  0  0  0  0  0  0  0  0  0  0  0
   36.9790   29.6100   39.0390 C   0  0  1  0  0  0  0  0  0  0  0  0
   36.2640   29.9310   37.7780 C   0  0  0  0  0  0  0  0  0  0  0  0
   35.1490   29.1440   37.4530 N   0  0  0  0  0  0  0  0  0  0  0  0
   34.3710   28.6340   38.5070 C   0  0  0  0  0  0  0  0  0  0  0  0
   34.7740   29.2150   39.8480 C   0  0  0  0  0  0  0  0  0  0  0  0
   37.7580   28.8320   38.8030 H   0  0  0  0  0  0  0  0  0  0  0  0
   36.9830   29.9530   36.9340 H   0  0  0  0  0  0  0  0  0  0  0  0
   35.9040   30.9990   37.8650 H   0  0  0  0  0  0  0  0  0  0  0  0
   35.4950   28.3090   36.8930 H   0  0  0  0  0  0  0  0  0  0  0  0
   34.3230   27.5350   38.6020 H   0  0  0  0  0  0  0  0  0  0  0  0
   33.3160   28.9740   38.3410 H   0  0  0  0  0  0  0  0  0  0  0  0
   34.4610   30.2990   39.8800 H   0  0  0  0  0  0  0  0  0  0  0  0
   34.1220   28.7080   40.5830 H   0  0  0  0  0  0  0  0  0  0  0  0
   37.1390   32.0760   39.6010 C   0  0  0  0  0  3  0  0  0  0  0  0
   37.7430   30.8540   39.4100 C   0  0  0  0  0  0  0  0  0  0  0  0
   39.1320   30.8770   39.5750 C   0  0  0  0  0  0  0  0  0  0  0  0
   39.6720   29.9480   39.4380 H   0  0  0  0  0  0  0  0  0  0  0  0
   39.8450   32.0090   39.8990 C   0  0  0  0  0  0  0  0  0  0  0  0
   39.1680   33.1950   40.0750 C   0  0  0  0  0  0  0  0  0  0  0  0
   37.7980   33.2330   39.9240 C   0  0  0  0  0  3  0  0  0  0  0  0
   40.1380   34.1600   40.3930 O   0  0  0  0  0  0  0  0  0  0  0  0
   41.4270   33.6430   40.0860 C   0  0  0  0  0  3  0  0  0  0  0  0
   41.7130   34.0280   39.0860 H   0  0  0  0  0  0  0  0  0  0  0  0
   41.1930   32.2490   40.1070 O   0  0  0  0  0  0  0  0  0  0  0  0
   37.1160   27.2360   41.2330 C   0  0  0  0  0  0  0  0  0  0  0  0
   36.8130   28.6030   41.2490 C   0  0  0  0  0  0  0  0  0  0  0  0
   37.1530   29.3190   42.3820 C   0  0  0  0  0  0  0  0  0  0  0  0
   37.7600   28.7210   43.4430 N   0  0  0  0  0  0  0  0  0  0  0  0
   38.0390   27.3820   43.3900 C   0  0  0  0  0  0  0  0  0  0  0  0
   37.7150   26.6680   42.2920 N   0  0  0  0  0  0  0  0  0  0  0  0
   36.9380   26.5050   40.4620 H   0  0  0  0  0  0  0  0  0  0  0  0
   36.9310   30.3700   42.4030 H   0  0  0  0  0  0  0  0  0  0  0  0
   38.5230   26.9260   44.2460 H   0  0  0  0  0  0  0  0  0  0  0  0
  1 27  1  0  0  0  0
  2  7  1  6  0  0  0
  2 16  1  0  0  0  0
  2  1  1  0  0  0  0
  3  9  1  0  0  0  0
  3  2  1  0  0  0  0
  4  3  1  0  0  0  0
  4  5  1  0  0  0  0
  5 11  1  0  0  0  0
  5  6  1  0  0  0  0
  6 13  1  0  0  0  0
  6  1  1  0  0  0  0
  6 14  1  0  0  0  0
  8  3  1  0  0  0  0
 10  4  1  0  0  0  0
 12  5  1  0  0  0  0
 15 21  1  0  0  0  0
 16 17  1  0  0  0  0
 16 15  2  0  0  0  0
 17 19  2  0  0  0  0
 18 17  1  0  0  0  0
 19 20  1  0  0  0  0
 19 25  1  0  0  0  0
 20 22  1  0  0  0  0
 21 20  2  0  0  0  0
 23 25  1  0  0  0  0
 23 22  1  0  0  0  0
 24 23  1  0  0  0  0
 26 27  2  0  0  0  0
 26 31  1  0  0  0  0
 27 28  1  0  0  0  0
 28 33  1  0  0  0  0
 28 29  2  0  0  0  0
 30 29  1  0  0  0  0
 30 34  1  0  0  0  0
 31 30  2  0  0  0  0
 32 26  1  0  0  0  0
M  END
>  <minimizedAffinity>
-5.32320499

$$$$

 OpenBabel03252508333D

 34 37  0  0  1  0  0  0  0  0999 V2000
   38.2660   31.0480   40.7440 N   0  0  0  0  0  0  0  0  0  0  0  0
   37.0640   31.4870   40.1460 C   0  0  1  0  0  0  0  0  0  0  0  0
   37.0630   32.8810   39.6330 C   0  0  0  0  0  0  0  0  0  0  0  0
   37.8370   33.8220   40.3280 N   0  0  0  0  0  0  0  0  0  0  0  0
   39.0210   33.3770   40.9450 C   0  0  0  0  0  0  0  0  0  0  0  0
   39.3630   31.9500   40.5640 C   0  0  0  0  0  0  0  0  0  0  0  0
   36.2450   31.4030   40.9130 H   0  0  0  0  0  0  0  0  0  0  0  0
   36.0200   33.2410   39.5250 H   0  0  0  0  0  0  0  0  0  0  0  0
   37.4560   32.8440   38.5740 H   0  0  0  0  0  0  0  0  0  0  0  0
   37.2280   34.2390   41.0940 H   0  0  0  0  0  0  0  0  0  0  0  0
   39.0710   33.4670   42.0450 H   0  0  0  0  0  0  0  0  0  0  0  0
   39.8620   34.0010   40.5480 H   0  0  0  0  0  0  0  0  0  0  0  0
   39.6870   31.9350   39.4820 H   0  0  0  0  0  0  0  0  0  0  0  0
   40.2770   31.7160   41.1390 H   0  0  0  0  0  0  0  0  0  0  0  0
   37.2150   30.6870   37.7460 C   0  0  0  0  0  3  0  0  0  0  0  0
   36.6330   30.6220   38.9910 C   0  0  0  0  0  0  0  0  0  0  0  0
   35.5920   29.6910   39.0810 C   0  0  0  0  0  0  0  0  0  0  0  0
   35.0880   29.5880   40.0340 H   0  0  0  0  0  0  0  0  0  0  0  0
   35.1770   28.9040   38.0300 C   0  0  0  0  0  0  0  0  0  0  0  0
   35.8110   29.0270   36.8140 C   0  0  0  0  0  0  0  0  0  0  0  0
   36.8440   29.9290   36.6660 C   0  0  0  0  0  3  0  0  0  0  0  0
   35.1850   28.1150   35.9490 O   0  0  0  0  0  0  0  0  0  0  0  0
   33.9640   27.6810   36.5330 C   0  0  0  0  0  3  0  0  0  0  0  0
   33.1480   28.2930   36.0970 H   0  0  0  0  0  0  0  0  0  0  0  0
   34.1900   27.9400   37.9050 O   0  0  0  0  0  0  0  0  0  0  0  0
   39.2220   28.8720   41.0000 C   0  0  0  0  0  0  0  0  0  0  0  0
   38.2780   29.8140   41.4300 C   0  0  0  0  0  0  0  0  0  0  0  0
   37.4500   29.4540   42.4770 C   0  0  0  0  0  0  0  0  0  0  0  0
   37.5440   28.2320   43.0680 N   0  0  0  0  0  0  0  0  0  0  0  0
   38.4790   27.3390   42.6190 C   0  0  0  0  0  0  0  0  0  0  0  0
   39.2970   27.6730   41.5990 N   0  0  0  0  0  0  0  0  0  0  0  0
   39.9530   28.9480   40.2120 H   0  0  0  0  0  0  0  0  0  0  0  0
   36.7260   30.1700   42.8190 H   0  0  0  0  0  0  0  0  0  0  0  0
   38.5370   26.3720   43.1040 H   0  0  0  0  0  0  0  0  0  0  0  0
  1 27  1  0  0  0  0
  2  1  1  0  0  0  0
  2  7  1  1  0  0  0
  3  2  1  0  0  0  0
  3  4  1  0  0  0  0
  4  5  1  0  0  0  0
  4 10  1  0  0  0  0
  5 11  1  0  0  0  0
  6  1  1  0  0  0  0
  6  5  1  0  0  0  0
  6 14  1  0  0  0  0
  8  3  1  0  0  0  0
  9  3  1  0  0  0  0
 12  5  1  0  0  0  0
 13  6  1  0  0  0  0
 15 16  1  0  0  0  0
 16 17  2  0  0  0  0
 16  2  1  0  0  0  0
 17 18  1  0  0  0  0
 19 17  1  0  0  0  0
 20 19  2  0  0  0  0
 21 20  1  0  0  0  0
 21 15  2  0  0  0  0
 22 23  1  0  0  0  0
 22 20  1  0  0  0  0
 23 25  1  0  0  0  0
 24 23  1  0  0  0  0
 25 19  1  0  0  0  0
 26 27  2  0  0  0  0
 26 31  1  0  0  0  0
 27 28  1  0  0  0  0
 28 33  1  0  0  0  0
 28 29  2  0  0  0  0
 30 29  1  0  0  0  0
 30 34  1  0  0  0  0
 31 30  2  0  0  0  0
 32 26  1  0  0  0  0
M  END
>  <minimizedAffinity>
-5.29251575

$$$$

 OpenBabel03252508333D

 34 37  0  0  1  0  0  0  0  0999 V2000
   38.9270   30.7280   40.8010 N   0  0  0  0  0  0  0  0  0  0  0  0
   37.7880   30.5150   41.6090 C   0  0  1  0  0  0  0  0  0  0  0  0
   36.5100   31.0640   41.0910 C   0  0  0  0  0  0  0  0  0  0  0  0
   36.5760   32.2480   40.3410 N   0  0  0  0  0  0  0  0  0  0  0  0
   37.7220   32.4710   39.5570 C   0  0  0  0  0  0  0  0  0  0  0  0
   38.6240   31.2520   39.5050 C   0  0  0  0  0  0  0  0  0  0  0  0
   37.9820   30.9880   42.6130 H   0  0  0  0  0  0  0  0  0  0  0  0
   35.7820   31.1710   41.9210 H   0  0  0  0  0  0  0  0  0  0  0  0
   36.0570   30.2730   40.4240 H   0  0  0  0  0  0  0  0  0  0  0  0
   36.5020   33.0640   41.0190 H   0  0  0  0  0  0  0  0  0  0  0  0
   38.3370   33.3500   39.8170 H   0  0  0  0  0  0  0  0  0  0  0  0
   37.3820   32.6350   38.5030 H   0  0  0  0  0  0  0  0  0  0  0  0
   38.1150   30.4550   38.8870 H   0  0  0  0  0  0  0  0  0  0  0  0
   39.4920   31.5700   38.9000 H   0  0  0  0  0  0  0  0  0  0  0  0
   37.5770   28.5150   43.1520 C   0  0  0  0  0  3  0  0  0  0  0  0
   37.5300   29.0580   41.8880 C   0  0  0  0  0  0  0  0  0  0  0  0
   37.2360   28.1290   40.8830 C   0  0  0  0  0  0  0  0  0  0  0  0
   37.1830   28.4880   39.8630 H   0  0  0  0  0  0  0  0  0  0  0  0
   37.0110   26.7910   41.1210 C   0  0  0  0  0  0  0  0  0  0  0  0
   37.0760   26.3240   42.4140 C   0  0  0  0  0  0  0  0  0  0  0  0
   37.3620   27.1950   43.4460 C   0  0  0  0  0  3  0  0  0  0  0  0
   36.8090   24.9470   42.3510 O   0  0  0  0  0  0  0  0  0  0  0  0
   36.9110   24.5150   41.0000 C   0  0  0  0  0  3  0  0  0  0  0  0
   37.9240   24.0840   40.8620 H   0  0  0  0  0  0  0  0  0  0  0  0
   36.7120   25.7230   40.2930 O   0  0  0  0  0  0  0  0  0  0  0  0
   40.6030   31.1310   42.4570 C   0  0  0  0  0  0  0  0  0  0  0  0
   40.2030   30.4160   41.3200 C   0  0  0  0  0  0  0  0  0  0  0  0
   41.0840   29.4810   40.8110 C   0  0  0  0  0  0  0  0  0  0  0  0
   42.2960   29.2600   41.3900 N   0  0  0  0  0  0  0  0  0  0  0  0
   42.6520   29.9780   42.5000 C   0  0  0  0  0  0  0  0  0  0  0  0
   41.8040   30.8950   43.0100 N   0  0  0  0  0  0  0  0  0  0  0  0
   40.0770   31.8940   43.0050 H   0  0  0  0  0  0  0  0  0  0  0  0
   40.7860   28.9230   39.9440 H   0  0  0  0  0  0  0  0  0  0  0  0
   43.6210   29.7860   42.9450 H   0  0  0  0  0  0  0  0  0  0  0  0
  1 27  1  0  0  0  0
  1  2  1  0  0  0  0
  2 16  1  0  0  0  0
  2  7  1  1  0  0  0
  3  2  1  0  0  0  0
  3  8  1  0  0  0  0
  4 10  1  0  0  0  0
  4  3  1  0  0  0  0
  5 11  1  0  0  0  0
  5  4  1  0  0  0  0
  6  5  1  0  0  0  0
  6  1  1  0  0  0  0
  9  3  1  0  0  0  0
 12  5  1  0  0  0  0
 13  6  1  0  0  0  0
 14  6  1  0  0  0  0
 15 21  1  0  0  0  0
 16 15  2  0  0  0  0
 17 19  2  0  0  0  0
 17 16  1  0  0  0  0
 18 17  1  0  0  0  0
 19 20  1  0  0  0  0
 20 21  2  0  0  0  0
 22 20  1  0  0  0  0
 23 22  1  0  0  0  0
 24 23  1  0  0  0  0
 25 23  1  0  0  0  0
 25 19  1  0  0  0  0
 26 32  1  0  0  0  0
 26 31  1  0  0  0  0
 27 26  2  0  0  0  0
 28 27  1  0  0  0  0
 28 29  2  0  0  0  0
 29 30  1  0  0  0  0
 30 34  1  0  0  0  0
 30 31  2  0  0  0  0
 33 28  1  0  0  0  0
M  END
>  <minimizedAffinity>
-5.2904973

$$$$

 OpenBabel03252508333D

 34 37  0  0  1  0  0  0  0  0999 V2000
   37.0150   28.4920   40.6450 N   0  0  0  0  0  0  0  0  0  0  0  0
   36.9930   29.5410   41.5900 C   0  0  1  0  0  0  0  0  0  0  0  0
   37.6140   29.2450   42.9060 C   0  0  0  0  0  0  0  0  0  0  0  0
   37.5210   27.9270   43.3790 N   0  0  0  0  0  0  0  0  0  0  0  0
   37.5180   26.8850   42.4340 C   0  0  0  0  0  0  0  0  0  0  0  0
   37.8290   27.3810   41.0350 C   0  0  0  0  0  0  0  0  0  0  0  0
   35.9170   29.8190   41.7740 H   0  0  0  0  0  0  0  0  0  0  0  0
   37.2380   29.9580   43.6680 H   0  0  0  0  0  0  0  0  0  0  0  0
   38.7140   29.4890   42.8150 H   0  0  0  0  0  0  0  0  0  0  0  0
   36.6170   27.8450   43.9320 H   0  0  0  0  0  0  0  0  0  0  0  0
   36.6090   26.2600   42.3890 H   0  0  0  0  0  0  0  0  0  0  0  0
   38.3560   26.1900   42.6960 H   0  0  0  0  0  0  0  0  0  0  0  0
   38.9170   27.6810   40.9930 H   0  0  0  0  0  0  0  0  0  0  0  0
   37.7560   26.4840   40.3950 H   0  0  0  0  0  0  0  0  0  0  0  0
   36.9770   31.8050   40.4520 C   0  0  0  0  0  3  0  0  0  0  0  0
   37.6600   30.7960   41.0920 C   0  0  0  0  0  0  0  0  0  0  0  0
   39.0330   31.0350   41.2210 C   0  0  0  0  0  0  0  0  0  0  0  0
   39.6320   30.2800   41.7150 H   0  0  0  0  0  0  0  0  0  0  0  0
   39.6580   32.1700   40.7580 C   0  0  0  0  0  0  0  0  0  0  0  0
   38.9050   33.1360   40.1280 C   0  0  0  0  0  0  0  0  0  0  0  0
   37.5470   32.9550   39.9720 C   0  0  0  0  0  3  0  0  0  0  0  0
   39.7970   34.1600   39.7700 O   0  0  0  0  0  0  0  0  0  0  0  0
   41.1290   33.6770   39.8790 C   0  0  0  0  0  3  0  0  0  0  0  0
   41.4550   33.3620   38.8660 H   0  0  0  0  0  0  0  0  0  0  0  0
   40.9750   32.6000   40.7810 O   0  0  0  0  0  0  0  0  0  0  0  0
   34.8910   28.8250   39.6010 C   0  0  0  0  0  0  0  0  0  0  0  0
   36.2700   28.6290   39.4520 C   0  0  0  0  0  0  0  0  0  0  0  0
   36.7740   28.5850   38.1660 C   0  0  0  0  0  0  0  0  0  0  0  0
   35.9630   28.7260   37.0820 N   0  0  0  0  0  0  0  0  0  0  0  0
   34.6210   28.9150   37.2670 C   0  0  0  0  0  0  0  0  0  0  0  0
   34.1120   28.9610   38.5160 N   0  0  0  0  0  0  0  0  0  0  0  0
   34.3030   28.8880   40.5010 H   0  0  0  0  0  0  0  0  0  0  0  0
   37.8310   28.4410   38.0400 H   0  0  0  0  0  0  0  0  0  0  0  0
   33.9930   29.0250   36.3910 H   0  0  0  0  0  0  0  0  0  0  0  0
  1  6  1  0  0  0  0
  1  2  1  0  0  0  0
  2  7  1  1  0  0  0
  2  3  1  0  0  0  0
  3  4  1  0  0  0  0
  3  8  1  0  0  0  0
  4 10  1  0  0  0  0
  5 12  1  0  0  0  0
  5  4  1  0  0  0  0
  6  5  1  0  0  0  0
  9  3  1  0  0  0  0
 11  5  1  0  0  0  0
 13  6  1  0  0  0  0
 14  6  1  0  0  0  0
 15 16  1  0  0  0  0
 16 17  2  0  0  0  0
 16  2  1  0  0  0  0
 17 18  1  0  0  0  0
 19 25  1  0  0  0  0
 19 17  1  0  0  0  0
 20 19  2  0  0  0  0
 21 20  1  0  0  0  0
 21 15  2  0  0  0  0
 22 23  1  0  0  0  0
 22 20  1  0  0  0  0
 23 25  1  0  0  0  0
 24 23  1  0  0  0  0
 26 32  1  0  0  0  0
 27 26  1  0  0  0  0
 27  1  1  0  0  0  0
 28 27  2  0  0  0  0
 29 30  2  0  0  0  0
 29 28  1  0  0  0  0
 30 31  1  0  0  0  0
 31 26  2  0  0  0  0
 33 28  1  0  0  0  0
 34 30  1  0  0  0  0
M  END
>  <minimizedAffinity>
-5.14744616

$$$$

 OpenBabel03252508333D

 34 37  0  0  1  0  0  0  0  0999 V2000
   38.7250   30.3360   41.1660 N   0  0  0  0  0  0  0  0  0  0  0  0
   37.8960   29.6900   42.1090 C   0  0  1  0  0  0  0  0  0  0  0  0
   36.4350   29.7820   41.8650 C   0  0  0  0  0  0  0  0  0  0  0  0
   35.9580   30.9550   41.2600 N   0  0  0  0  0  0  0  0  0  0  0  0
   36.7940   31.6110   40.3400 C   0  0  0  0  0  0  0  0  0  0  0  0
   38.0260   30.7940   40.0030 C   0  0  0  0  0  0  0  0  0  0  0  0
   38.1040   30.1410   43.1200 H   0  0  0  0  0  0  0  0  0  0  0  0
   35.8830   29.5780   42.8050 H   0  0  0  0  0  0  0  0  0  0  0  0
   36.1580   28.9220   41.1860 H   0  0  0  0  0  0  0  0  0  0  0  0
   35.7420   31.6520   42.0340 H   0  0  0  0  0  0  0  0  0  0  0  0
   37.1150   32.6350   40.6040 H   0  0  0  0  0  0  0  0  0  0  0  0
   36.2280   31.7060   39.3780 H   0  0  0  0  0  0  0  0  0  0  0  0
   37.7100   29.9050   39.3820 H   0  0  0  0  0  0  0  0  0  0  0  0
   38.6080   31.4310   39.3130 H   0  0  0  0  0  0  0  0  0  0  0  0
   38.8730   27.6920   43.3260 C   0  0  0  0  0  3  0  0  0  0  0  0
   38.2000   28.2210   42.2480 C   0  0  0  0  0  0  0  0  0  0  0  0
   37.8370   27.2710   41.2870 C   0  0  0  0  0  0  0  0  0  0  0  0
   37.3040   27.6180   40.4100 H   0  0  0  0  0  0  0  0  0  0  0  0
   38.1200   25.9280   41.3940 C   0  0  0  0  0  0  0  0  0  0  0  0
   38.7980   25.4760   42.5040 C   0  0  0  0  0  0  0  0  0  0  0  0
   39.1810   26.3670   43.4850 C   0  0  0  0  0  3  0  0  0  0  0  0
   38.9420   24.0890   42.3400 O   0  0  0  0  0  0  0  0  0  0  0  0
   38.6530   23.7460   40.9920 C   0  0  0  0  0  3  0  0  0  0  0  0
   39.6190   23.6720   40.4500 H   0  0  0  0  0  0  0  0  0  0  0  0
   37.8590   24.8400   40.5770 O   0  0  0  0  0  0  0  0  0  0  0  0
   40.4450   31.1520   42.6110 C   0  0  0  0  0  0  0  0  0  0  0  0
   40.1050   30.4630   41.4390 C   0  0  0  0  0  0  0  0  0  0  0  0
   41.1390   29.9770   40.6620 C   0  0  0  0  0  0  0  0  0  0  0  0
   42.4400   30.1590   41.0180 N   0  0  0  0  0  0  0  0  0  0  0  0
   42.7320   30.8380   42.1700 C   0  0  0  0  0  0  0  0  0  0  0  0
   41.7360   31.3190   42.9410 N   0  0  0  0  0  0  0  0  0  0  0  0
   39.8030   31.6070   43.3470 H   0  0  0  0  0  0  0  0  0  0  0  0
   40.8900   29.4420   39.7640 H   0  0  0  0  0  0  0  0  0  0  0  0
   43.7740   30.9710   42.4350 H   0  0  0  0  0  0  0  0  0  0  0  0
  1 27  1  0  0  0  0
  1  2  1  0  0  0  0
  2 16  1  0  0  0  0
  2  7  1  1  0  0  0
  3  2  1  0  0  0  0
  3  8  1  0  0  0  0
  4  3  1  0  0  0  0
  4 10  1  0  0  0  0
  5 11  1  0  0  0  0
  5  4  1  0  0  0  0
  6  5  1  0  0  0  0
  6  1  1  0  0  0  0
  9  3  1  0  0  0  0
 12  5  1  0  0  0  0
 13  6  1  0  0  0  0
 14  6  1  0  0  0  0
 15 21  1  0  0  0  0
 16 15  2  0  0  0  0
 17 19  2  0  0  0  0
 17 16  1  0  0  0  0
 18 17  1  0  0  0  0
 19 20  1  0  0  0  0
 20 21  2  0  0  0  0
 22 20  1  0  0  0  0
 23 22  1  0  0  0  0
 24 23  1  0  0  0  0
 25 23  1  0  0  0  0
 25 19  1  0  0  0  0
 26 31  1  0  0  0  0
 26 32  1  0  0  0  0
 27 26  2  0  0  0  0
 28 29  2  0  0  0  0
 28 27  1  0  0  0  0
 29 30  1  0  0  0  0
 30 34  1  0  0  0  0
 30 31  2  0  0  0  0
 33 28  1  0  0  0  0
M  END
>  <minimizedAffinity>
-5.14734602

$$$$

 OpenBabel03252508333D

 34 37  0  0  1  0  0  0  0  0999 V2000
   37.9510   30.6940   39.9440 N   0  0  0  0  0  0  0  0  0  0  0  0
   38.8530   29.9480   40.7360 C   0  0  1  0  0  0  0  0  0  0  0  0
   39.4260   30.6530   41.9090 C   0  0  0  0  0  0  0  0  0  0  0  0
   39.6410   32.0340   41.7880 N   0  0  0  0  0  0  0  0  0  0  0  0
   38.7580   32.7710   40.9790 C   0  0  0  0  0  0  0  0  0  0  0  0
   37.5690   31.9430   40.5290 C   0  0  0  0  0  0  0  0  0  0  0  0
   39.7080   29.6270   40.0770 H   0  0  0  0  0  0  0  0  0  0  0  0
   40.3550   30.1440   42.2370 H   0  0  0  0  0  0  0  0  0  0  0  0
   38.7080   30.5030   42.7690 H   0  0  0  0  0  0  0  0  0  0  0  0
   40.6160   32.1760   41.3890 H   0  0  0  0  0  0  0  0  0  0  0  0
   39.1930   33.2680   40.0940 H   0  0  0  0  0  0  0  0  0  0  0  0
   38.3270   33.5910   41.6100 H   0  0  0  0  0  0  0  0  0  0  0  0
   36.9050   31.7530   41.4210 H   0  0  0  0  0  0  0  0  0  0  0  0
   36.9850   32.6190   39.8780 H   0  0  0  0  0  0  0  0  0  0  0  0
   37.3370   28.6540   42.3020 C   0  0  0  0  0  3  0  0  0  0  0  0
   38.2500   28.6760   41.2720 C   0  0  0  0  0  0  0  0  0  0  0  0
   38.5780   27.4080   40.7790 C   0  0  0  0  0  0  0  0  0  0  0  0
   39.2920   27.3510   39.9670 H   0  0  0  0  0  0  0  0  0  0  0  0
   38.0470   26.2370   41.2690 C   0  0  0  0  0  0  0  0  0  0  0  0
   37.1380   26.2970   42.3020 C   0  0  0  0  0  0  0  0  0  0  0  0
   36.7770   27.5200   42.8280 C   0  0  0  0  0  3  0  0  0  0  0  0
   36.7750   24.9710   42.5870 O   0  0  0  0  0  0  0  0  0  0  0  0
   37.7000   24.0900   41.9630 C   0  0  0  0  0  3  0  0  0  0  0  0
   38.4520   23.7990   42.7250 H   0  0  0  0  0  0  0  0  0  0  0  0
   38.2290   24.9050   40.9350 O   0  0  0  0  0  0  0  0  0  0  0  0
   36.1410   30.0410   38.5270 C   0  0  0  0  0  0  0  0  0  0  0  0
   37.5250   30.1630   38.7070 C   0  0  0  0  0  0  0  0  0  0  0  0
   38.3420   29.7540   37.6690 C   0  0  0  0  0  0  0  0  0  0  0  0
   37.8240   29.2520   36.5160 N   0  0  0  0  0  0  0  0  0  0  0  0
   36.4660   29.1470   36.3770 C   0  0  0  0  0  0  0  0  0  0  0  0
   35.6540   29.5420   37.3790 N   0  0  0  0  0  0  0  0  0  0  0  0
   35.3390   30.2950   39.2000 H   0  0  0  0  0  0  0  0  0  0  0  0
   39.4040   29.8480   37.7940 H   0  0  0  0  0  0  0  0  0  0  0  0
   36.0750   28.7450   35.4500 H   0  0  0  0  0  0  0  0  0  0  0  0
  1  6  1  0  0  0  0
  1  2  1  0  0  0  0
  2  7  1  6  0  0  0
  2 16  1  0  0  0  0
  2  3  1  0  0  0  0
  3  8  1  0  0  0  0
  3  9  1  0  0  0  0
  4  3  1  0  0  0  0
  5 12  1  0  0  0  0
  5  4  1  0  0  0  0
  6  5  1  0  0  0  0
  6 13  1  0  0  0  0
 10  4  1  0  0  0  0
 11  5  1  0  0  0  0
 14  6  1  0  0  0  0
 15 21  1  0  0  0  0
 16 15  2  0  0  0  0
 17 19  2  0  0  0  0
 17 16  1  0  0  0  0
 18 17  1  0  0  0  0
 19 20  1  0  0  0  0
 20 22  1  0  0  0  0
 20 21  2  0  0  0  0
 23 22  1  0  0  0  0
 23 24  1  0  0  0  0
 25 19  1  0  0  0  0
 25 23  1  0  0  0  0
 26 27  1  0  0  0  0
 26 32  1  0  0  0  0
 27  1  1  0  0  0  0
 28 33  1  0  0  0  0
 28 27  2  0  0  0  0
 29 28  1  0  0  0  0
 30 29  2  0  0  0  0
 30 31  1  0  0  0  0
 31 26  2  0  0  0  0
 34 30  1  0  0  0  0
M  END
>  <minimizedAffinity>
-5.09033775

$$$$

 OpenBabel03252508333D

 34 37  0  0  1  0  0  0  0  0999 V2000
   37.8710   29.7860   41.2200 N   0  0  0  0  0  0  0  0  0  0  0  0
   37.8200   28.7200   40.2960 C   0  0  1  0  0  0  0  0  0  0  0  0
   37.6890   27.3600   40.8760 C   0  0  0  0  0  0  0  0  0  0  0  0
   38.3010   27.1290   42.1180 N   0  0  0  0  0  0  0  0  0  0  0  0
   38.3740   28.2000   43.0270 C   0  0  0  0  0  0  0  0  0  0  0  0
   37.5690   29.3980   42.5650 C   0  0  0  0  0  0  0  0  0  0  0  0
   38.7670   28.7430   39.6870 H   0  0  0  0  0  0  0  0  0  0  0  0
   38.0160   26.6010   40.1360 H   0  0  0  0  0  0  0  0  0  0  0  0
   36.5840   27.1610   41.0090 H   0  0  0  0  0  0  0  0  0  0  0  0
   39.3000   26.8140   41.9320 H   0  0  0  0  0  0  0  0  0  0  0  0
   39.3850   28.5440   43.3070 H   0  0  0  0  0  0  0  0  0  0  0  0
   37.8890   27.8650   43.9800 H   0  0  0  0  0  0  0  0  0  0  0  0
   36.4710   29.1470   42.6450 H   0  0  0  0  0  0  0  0  0  0  0  0
   37.7420   30.1690   43.3370 H   0  0  0  0  0  0  0  0  0  0  0  0
   35.3670   28.7690   39.6590 C   0  0  0  0  0  3  0  0  0  0  0  0
   36.6940   28.8550   39.3040 C   0  0  0  0  0  0  0  0  0  0  0  0
   36.9020   29.0640   37.9360 C   0  0  0  0  0  0  0  0  0  0  0  0
   37.9240   29.1410   37.5870 H   0  0  0  0  0  0  0  0  0  0  0  0
   35.8840   29.1750   37.0160 C   0  0  0  0  0  0  0  0  0  0  0  0
   34.5800   29.0780   37.4500 C   0  0  0  0  0  0  0  0  0  0  0  0
   34.3150   28.8730   38.7870 C   0  0  0  0  0  3  0  0  0  0  0  0
   33.7730   29.2280   36.3100 O   0  0  0  0  0  0  0  0  0  0  0  0
   34.5780   29.0820   35.1470 C   0  0  0  0  0  3  0  0  0  0  0  0
   34.4720   28.0350   34.7950 H   0  0  0  0  0  0  0  0  0  0  0  0
   35.8670   29.3790   35.6460 O   0  0  0  0  0  0  0  0  0  0  0  0
   39.5590   31.3570   40.5930 C   0  0  0  0  0  0  0  0  0  0  0  0
   38.1960   31.0800   40.7560 C   0  0  0  0  0  0  0  0  0  0  0  0
   37.2990   32.0880   40.4550 C   0  0  0  0  0  0  0  0  0  0  0  0
   37.7220   33.3050   40.0160 N   0  0  0  0  0  0  0  0  0  0  0  0
   39.0630   33.5370   39.8690 C   0  0  0  0  0  0  0  0  0  0  0  0
   39.9520   32.5650   40.1580 N   0  0  0  0  0  0  0  0  0  0  0  0
   40.4120   30.7220   40.7690 H   0  0  0  0  0  0  0  0  0  0  0  0
   36.2510   31.8860   40.5710 H   0  0  0  0  0  0  0  0  0  0  0  0
   39.3780   34.5130   39.5180 H   0  0  0  0  0  0  0  0  0  0  0  0
  1  6  1  0  0  0  0
  2  7  1  6  0  0  0
  2  3  1  0  0  0  0
  2  1  1  0  0  0  0
  3  9  1  0  0  0  0
  3  4  1  0  0  0  0
  4  5  1  0  0  0  0
  5 11  1  0  0  0  0
  5 12  1  0  0  0  0
  6 13  1  0  0  0  0
  6  5  1  0  0  0  0
  6 14  1  0  0  0  0
  8  3  1  0  0  0  0
 10  4  1  0  0  0  0
 16 15  1  0  0  0  0
 16  2  1  0  0  0  0
 17 16  2  0  0  0  0
 18 17  1  0  0  0  0
 19 20  2  0  0  0  0
 19 17  1  0  0  0  0
 20 21  1  0  0  0  0
 21 15  2  0  0  0  0
 22 20  1  0  0  0  0
 23 25  1  0  0  0  0
 23 22  1  0  0  0  0
 24 23  1  0  0  0  0
 25 19  1  0  0  0  0
 26 27  1  0  0  0  0
 26 32  1  0  0  0  0
 27  1  1  0  0  0  0
 28 33  1  0  0  0  0
 28 27  2  0  0  0  0
 29 28  1  0  0  0  0
 30 29  2  0  0  0  0
 30 31  1  0  0  0  0
 31 26  2  0  0  0  0
 34 30  1  0  0  0  0
M  END
>  <minimizedAffinity>
-4.91483164

$$$$

 OpenBabel03252508333D

 34 37  0  0  1  0  0  0  0  0999 V2000
   37.4610   30.4690   38.5320 N   0  0  0  0  0  0  0  0  0  0  0  0
   36.4960   29.8060   39.3220 C   0  0  1  0  0  0  0  0  0  0  0  0
   35.6830   28.7750   38.6290 C   0  0  0  0  0  0  0  0  0  0  0  0
   35.3920   28.9910   37.2730 N   0  0  0  0  0  0  0  0  0  0  0  0
   36.3430   29.6750   36.4940 C   0  0  0  0  0  0  0  0  0  0  0  0
   37.6470   29.8850   37.2390 C   0  0  0  0  0  0  0  0  0  0  0  0
   35.7900   30.5820   39.7300 H   0  0  0  0  0  0  0  0  0  0  0  0
   34.7520   28.5840   39.2000 H   0  0  0  0  0  0  0  0  0  0  0  0
   36.2550   27.8030   38.6950 H   0  0  0  0  0  0  0  0  0  0  0  0
   34.4900   29.5520   37.2220 H   0  0  0  0  0  0  0  0  0  0  0  0
   36.0270   30.6400   36.0610 H   0  0  0  0  0  0  0  0  0  0  0  0
   36.6000   29.0170   35.6240 H   0  0  0  0  0  0  0  0  0  0  0  0
   38.1640   28.8870   37.3480 H   0  0  0  0  0  0  0  0  0  0  0  0
   38.2810   30.4600   36.5390 H   0  0  0  0  0  0  0  0  0  0  0  0
   36.9610   29.6100   41.8060 C   0  0  0  0  0  3  0  0  0  0  0  0
   37.0910   29.1220   40.5250 C   0  0  0  0  0  0  0  0  0  0  0  0
   37.8400   27.9430   40.4410 C   0  0  0  0  0  0  0  0  0  0  0  0
   37.9830   27.5050   39.4610 H   0  0  0  0  0  0  0  0  0  0  0  0
   38.4020   27.3160   41.5300 C   0  0  0  0  0  0  0  0  0  0  0  0
   38.2270   27.8650   42.7800 C   0  0  0  0  0  0  0  0  0  0  0  0
   37.4980   29.0270   42.9230 C   0  0  0  0  0  3  0  0  0  0  0  0
   38.9010   27.0230   43.6800 O   0  0  0  0  0  0  0  0  0  0  0  0
   39.7580   26.1550   42.9510 C   0  0  0  0  0  3  0  0  0  0  0  0
   40.7760   26.5950   42.9700 H   0  0  0  0  0  0  0  0  0  0  0  0
   39.1630   26.1670   41.6690 O   0  0  0  0  0  0  0  0  0  0  0  0
   37.3210   32.6870   39.4140 C   0  0  0  0  0  0  0  0  0  0  0  0
   38.1270   31.5950   39.0660 C   0  0  0  0  0  0  0  0  0  0  0  0
   39.4880   31.7150   39.2720 C   0  0  0  0  0  0  0  0  0  0  0  0
   40.0290   32.8510   39.7920 N   0  0  0  0  0  0  0  0  0  0  0  0
   39.2090   33.8970   40.1180 C   0  0  0  0  0  0  0  0  0  0  0  0
   37.8770   33.7960   39.9250 N   0  0  0  0  0  0  0  0  0  0  0  0
   36.2520   32.8000   39.3340 H   0  0  0  0  0  0  0  0  0  0  0  0
   40.1160   30.8820   39.0140 H   0  0  0  0  0  0  0  0  0  0  0  0
   39.6600   34.7910   40.5310 H   0  0  0  0  0  0  0  0  0  0  0  0
  1 27  1  0  0  0  0
  1  2  1  0  0  0  0
  2  7  1  1  0  0  0
  2 16  1  0  0  0  0
  3  9  1  0  0  0  0
  3  8  1  0  0  0  0
  3  2  1  0  0  0  0
  4  3  1  0  0  0  0
  5  6  1  0  0  0  0
  5  4  1  0  0  0  0
  6 13  1  0  0  0  0
  6  1  1  0  0  0  0
 10  4  1  0  0  0  0
 11  5  1  0  0  0  0
 12  5  1  0  0  0  0
 14  6  1  0  0  0  0
 15 21  1  0  0  0  0
 16 15  2  0  0  0  0
 17 16  1  0  0  0  0
 17 19  2  0  0  0  0
 18 17  1  0  0  0  0
 19 25  1  0  0  0  0
 19 20  1  0  0  0  0
 20 21  2  0  0  0  0
 20 22  1  0  0  0  0
 23 24  1  0  0  0  0
 23 22  1  0  0  0  0
 25 23  1  0  0  0  0
 26 31  1  0  0  0  0
 27 28  1  0  0  0  0
 27 26  2  0  0  0  0
 28 29  2  0  0  0  0
 29 30  1  0  0  0  0
 30 34  1  0  0  0  0
 31 30  2  0  0  0  0
 32 26  1  0  0  0  0
 33 28  1  0  0  0  0
M  END
>  <minimizedAffinity>
-4.90867853

$$$$
