
 OpenBabel03252507383D

 40 45  0  0  0  0  0  0  0  0999 V2000
   45.6230   32.6430   47.5690 C   0  0  0  0  0  0  0  0  0  0  0  0
   46.9970   32.3730   47.7150 C   0  0  0  0  0  0  0  0  0  0  0  0
   47.3690   31.3840   48.6050 C   0  0  0  0  0  0  0  0  0  0  0  0
   46.4180   30.7270   49.2870 N   0  0  0  0  0  0  0  0  0  0  0  0
   45.0930   30.9980   49.1350 C   0  0  0  0  0  0  0  0  0  0  0  0
   44.7120   31.9440   48.2870 N   0  0  0  0  0  0  0  0  0  0  0  0
   47.7650   32.8970   47.1700 H   0  0  0  0  0  0  0  0  0  0  0  0
   44.4400   30.3900   49.7500 H   0  0  0  0  0  0  0  0  0  0  0  0
   49.5700   31.9380   49.4890 C   0  0  0  0  0  0  0  0  0  0  0  0
   48.7590   31.0020   48.8530 C   0  0  0  0  0  0  0  0  0  0  0  0
   49.3070   29.7910   48.5030 C   0  0  0  0  0  0  0  0  0  0  0  0
   50.6230   29.4810   48.7610 C   0  0  0  0  0  0  0  0  0  0  0  0
   51.3600   28.3640   48.5070 N   0  0  0  0  0  0  0  0  0  0  0  0
   52.6340   28.6100   48.9890 C   0  0  0  0  0  0  0  0  0  0  0  0
   52.6510   29.8400   49.5120 N   0  0  0  0  0  0  0  0  0  0  0  0
   51.4290   30.3960   49.3860 C   0  0  0  0  0  0  0  0  0  0  0  0
   50.9040   31.6170   49.7470 C   0  0  0  0  0  0  0  0  0  0  0  0
   49.2230   32.9220   49.8020 H   0  0  0  0  0  0  0  0  0  0  0  0
   48.6680   29.0650   48.0070 H   0  0  0  0  0  0  0  0  0  0  0  0
   51.0080   27.4930   48.0350 H   0  0  0  0  0  0  0  0  0  0  0  0
   53.4620   27.9210   48.9440 H   0  0  0  0  0  0  0  0  0  0  0  0
   51.5510   32.3350   50.2410 H   0  0  0  0  0  0  0  0  0  0  0  0
   45.2340   33.6370   46.6750 O   0  0  0  0  0  0  0  0  0  0  0  0
   45.8520   33.7440   45.4350 C   0  0  0  0  0  0  0  0  0  0  0  0
   45.1070   34.7140   44.8660 C   0  0  0  0  0  0  0  0  0  0  0  0
   45.9470   34.8780   43.1550 S   0  0  0  0  0  0  0  0  0  0  0  0
   47.1640   33.5250   43.6500 C   0  0  0  0  0  0  0  0  0  0  0  0
   46.8140   33.2950   44.6660 N   0  0  0  0  0  0  0  0  0  0  0  0
   44.2540   35.5400   44.7460 H   0  0  0  0  0  0  0  0  0  0  0  0
   49.5180   33.5040   42.7880 C   0  0  0  0  0  3  0  0  0  0  0  0
   48.2130   33.1270   42.6430 C   0  0  0  0  0  0  0  0  0  0  0  0
   47.6770   32.3810   41.6390 C   0  0  0  0  0  0  0  0  0  0  0  0
   46.6370   32.0990   41.5540 H   0  0  0  0  0  0  0  0  0  0  0  0
   48.5790   31.9640   40.6530 C   0  0  0  0  0  0  0  0  0  0  0  0
   49.9250   32.3180   40.7460 C   0  0  0  0  0  0  0  0  0  0  0  0
   50.3980   33.0840   41.8070 C   0  0  0  0  0  3  0  0  0  0  0  0
   50.5790   31.7640   39.6310 O   0  0  0  0  0  0  0  0  0  0  0  0
   49.7220   30.7720   39.0690 C   0  0  0  0  0  3  0  0  0  0  0  0
   49.8040   30.7120   37.9790 H   0  0  0  0  0  0  0  0  0  0  0  0
   48.4340   31.2000   39.4820 O   0  0  0  0  0  0  0  0  0  0  0  0
  1  2  2  0  0  0  0
  1  6  1  0  0  0  0
  2  3  1  0  0  0  0
  3 10  1  0  0  0  0
  3  4  2  0  0  0  0
  5  4  1  0  0  0  0
  5  8  1  0  0  0  0
  6  5  2  0  0  0  0
  7  2  1  0  0  0  0
  9 17  1  0  0  0  0
  9 18  1  0  0  0  0
 10  9  2  0  0  0  0
 11 12  2  0  0  0  0
 11 10  1  0  0  0  0
 12 16  1  0  0  0  0
 13 12  1  0  0  0  0
 13 14  1  0  0  0  0
 14 15  2  0  0  0  0
 16 15  1  0  0  0  0
 16 17  2  0  0  0  0
 17 22  1  0  0  0  0
 19 11  1  0  0  0  0
 20 13  1  0  0  0  0
 21 14  1  0  0  0  0
 23  1  1  0  0  0  0
 24 23  1  0  0  0  0
 25 24  2  0  0  0  0
 26 27  1  0  0  0  0
 26 25  1  0  0  0  0
 27 28  2  0  0  0  0
 28 24  1  0  0  0  0
 29 25  1  0  0  0  0
 31 30  1  0  0  0  0
 31 27  1  0  0  0  0
 32 31  2  0  0  0  0
 33 32  1  0  0  0  0
 34 35  2  0  0  0  0
 34 32  1  0  0  0  0
 35 36  1  0  0  0  0
 36 30  2  0  0  0  0
 37 35  1  0  0  0  0
 38 40  1  0  0  0  0
 38 37  1  0  0  0  0
 39 38  1  0  0  0  0
 40 34  1  0  0  0  0
M  END
>  <minimizedAffinity>
-6.56632185

>  <minimizedRMSD>
7.05329084

$$$$
