
 OpenBabel03242516163D

 45 49  0  0  1  0  0  0  0  0999 V2000
   46.0740   35.5020   42.6130 C   0  0  0  0  0  0  0  0  0  0  0  0
   46.4970   34.1890   42.3760 C   0  0  0  0  0  0  0  0  0  0  0  0
   46.1480   33.2100   43.3100 C   0  0  0  0  0  0  0  0  0  0  0  0
   45.4180   33.5830   44.3970 N   0  0  0  0  0  0  0  0  0  0  0  0
   45.0450   34.8530   44.5690 C   0  0  0  0  0  0  0  0  0  0  0  0
   45.3540   35.7980   43.7130 N   0  0  0  0  0  0  0  0  0  0  0  0
   44.2790   35.2680   45.7060 N   0  0  0  0  0  0  0  0  0  0  0  0
   46.3450   36.2620   41.8870 H   0  0  0  0  0  0  0  0  0  0  0  0
   44.7520   36.0010   46.2980 H   0  0  0  0  0  0  0  0  0  0  0  0
   43.3310   34.8170   45.8530 H   0  0  0  0  0  0  0  0  0  0  0  0
   47.3090   33.8680   41.1560 C   0  0  0  0  0  0  0  0  0  0  0  0
   48.2370   34.9790   40.6780 C   0  0  0  0  0  0  0  0  0  0  0  0
   48.7290   33.7570   41.2890 C   0  0  0  0  0  0  0  0  0  0  0  0
   48.3930   35.1340   39.5870 H   0  0  0  0  0  0  0  0  0  0  0  0
   48.0970   35.9580   41.1870 H   0  0  0  0  0  0  0  0  0  0  0  0
   49.2640   33.0410   40.6000 H   0  0  0  0  0  0  0  0  0  0  0  0
   49.4060   34.0740   42.0990 H   0  0  0  0  0  0  0  0  0  0  0  0
   46.6090   33.1870   40.0320 C   0  0  0  0  0  0  0  0  0  0  0  0
   47.1430   33.4990   38.6490 C   0  0  0  0  0  0  0  0  0  0  0  0
   46.3550   32.6160   37.6940 C   0  0  0  0  0  0  0  0  0  0  0  0
   45.0830   33.2150   37.5730 O   0  0  0  0  0  0  0  0  0  0  0  0
   44.4720   32.8940   38.8130 C   0  0  0  0  0  0  0  0  0  0  0  0
   45.1380   33.6740   39.9320 C   0  0  0  0  0  0  0  0  0  0  0  0
   46.5960   32.1060   40.1630 H   0  0  0  0  0  0  0  0  0  0  0  0
   48.2050   33.1380   38.5660 H   0  0  0  0  0  0  0  0  0  0  0  0
   47.0250   34.5630   38.3650 H   0  0  0  0  0  0  0  0  0  0  0  0
   46.8170   32.5970   36.6730 H   0  0  0  0  0  0  0  0  0  0  0  0
   46.2190   31.6030   38.1010 H   0  0  0  0  0  0  0  0  0  0  0  0
   43.4310   33.2330   38.7140 H   0  0  0  0  0  0  0  0  0  0  0  0
   44.5920   31.8250   39.0440 H   0  0  0  0  0  0  0  0  0  0  0  0
   44.6280   33.3310   40.8630 H   0  0  0  0  0  0  0  0  0  0  0  0
   45.0930   34.7580   39.8050 H   0  0  0  0  0  0  0  0  0  0  0  0
   46.5360   31.8440   43.1840 C   0  0  2  0  0  3  0  0  0  0  0  0
   45.8130   30.8160   43.5170 O   0  0  0  0  0  1  0  0  0  0  0  0
   47.5960   30.0820   41.7120 C   0  0  0  0  0  3  0  0  0  0  0  0
   47.5720   30.9330   42.7820 C   0  0  0  0  0  0  0  0  0  0  0  0
   48.6710   30.8150   43.6440 C   0  0  0  0  0  0  0  0  0  0  0  0
   48.7390   31.4480   44.5200 H   0  0  0  0  0  0  0  0  0  0  0  0
   49.7200   29.9520   43.5000 C   0  0  0  0  0  0  0  0  0  0  0  0
   49.7060   29.1180   42.4120 C   0  0  0  0  0  0  0  0  0  0  0  0
   48.6580   29.1850   41.5340 C   0  0  0  0  0  3  0  0  0  0  0  0
   50.8670   28.3320   42.4680 O   0  0  0  0  0  0  0  0  0  0  0  0
   51.3640   28.3850   43.8020 C   0  0  0  0  0  3  0  0  0  0  0  0
   52.4470   28.2920   43.8120 H   0  0  0  0  0  0  0  0  0  0  0  0
   50.8930   29.6750   44.2250 O   0  0  0  0  0  0  0  0  0  0  0  0
  1  6  1  0  0  0  0
  2  1  2  0  0  0  0
  2  3  1  0  0  0  0
  3  4  2  0  0  0  0
  4  5  1  0  0  0  0
  5  7  1  0  0  0  0
  6  5  2  0  0  0  0
  7 10  1  0  0  0  0
  7  9  1  0  0  0  0
  8  1  1  0  0  0  0
 11 13  1  0  0  0  0
 11  2  1  0  0  0  0
 12 11  1  0  0  0  0
 12 15  1  0  0  0  0
 12 13  1  0  0  0  0
 13 17  1  0  0  0  0
 14 12  1  0  0  0  0
 16 13  1  0  0  0  0
 18 24  1  0  0  0  0
 18 11  1  0  0  0  0
 19 18  1  0  0  0  0
 20 28  1  0  0  0  0
 20 19  1  0  0  0  0
 21 20  1  0  0  0  0
 21 22  1  0  0  0  0
 22 30  1  0  0  0  0
 22 23  1  0  0  0  0
 23 18  1  0  0  0  0
 23 31  1  0  0  0  0
 25 19  1  0  0  0  0
 26 19  1  0  0  0  0
 27 20  1  0  0  0  0
 29 22  1  0  0  0  0
 32 23  1  0  0  0  0
 33  3  1  0  0  0  0
 33 34  1  1  0  0  0
 35 36  1  0  0  0  0
 36 33  1  0  0  0  0
 36 37  2  0  0  0  0
 37 38  1  0  0  0  0
 39 37  1  0  0  0  0
 39 45  1  0  0  0  0
 40 42  1  0  0  0  0
 40 39  2  0  0  0  0
 41 35  2  0  0  0  0
 41 40  1  0  0  0  0
 42 43  1  0  0  0  0
 43 44  1  0  0  0  0
 43 45  1  0  0  0  0
M  END
>  <minimizedAffinity>
-4.91581726

>  <minimizedRMSD>
2.18645859

$$$$
