
 OpenBabel03242513073D

 43 48  0  0  0  0  0  0  0  0999 V2000
   45.9440   33.2020   41.6140 C   0  0  0  0  0  0  0  0  0  0  0  0
   47.1190   33.8980   41.3050 C   0  0  0  0  0  0  0  0  0  0  0  0
   48.0830   33.9580   42.2890 C   0  0  0  0  0  0  0  0  0  0  0  0
   47.8220   33.3410   43.4780 N   0  0  0  0  0  0  0  0  0  0  0  0
   46.7060   32.6850   43.7580 C   0  0  0  0  0  0  0  0  0  0  0  0
   45.7480   32.6100   42.8180 N   0  0  0  0  0  0  0  0  0  0  0  0
   45.1630   33.1340   40.8660 H   0  0  0  0  0  0  0  0  0  0  0  0
   46.7460   30.7180   45.2260 C   0  0  0  0  0  0  0  0  0  0  0  0
   46.5200   32.0620   45.0520 C   0  0  0  0  0  0  0  0  0  0  0  0
   46.1060   32.8970   46.0970 C   0  0  0  0  0  0  0  0  0  0  0  0
   45.9050   32.3810   47.3710 C   0  0  0  0  0  0  0  0  0  0  0  0
   45.5210   32.8600   48.5800 N   0  0  0  0  0  0  0  0  0  0  0  0
   45.5160   31.8240   49.4650 C   0  0  0  0  0  0  0  0  0  0  0  0
   45.8960   30.7170   48.7860 N   0  0  0  0  0  0  0  0  0  0  0  0
   46.1410   31.0280   47.5040 C   0  0  0  0  0  0  0  0  0  0  0  0
   46.5510   30.1740   46.4950 C   0  0  0  0  0  0  0  0  0  0  0  0
   47.0650   30.0700   44.4240 H   0  0  0  0  0  0  0  0  0  0  0  0
   45.9280   33.9680   45.9530 H   0  0  0  0  0  0  0  0  0  0  0  0
   45.2890   33.8780   48.7090 H   0  0  0  0  0  0  0  0  0  0  0  0
   45.2380   31.9690   50.5110 H   0  0  0  0  0  0  0  0  0  0  0  0
   46.7130   29.1210   46.6860 H   0  0  0  0  0  0  0  0  0  0  0  0
   49.3500   34.6780   42.0280 C   0  0  0  0  0  0  0  0  0  0  0  0
   49.1180   35.8110   41.2340 F   0  0  0  0  0  0  0  0  0  0  0  0
   49.8920   35.1430   43.2020 F   0  0  0  0  0  0  0  0  0  0  0  0
   50.2050   33.8250   41.3720 F   0  0  0  0  0  0  0  0  0  0  0  0
   47.2490   34.4660   40.0800 O   0  0  0  0  0  0  0  0  0  0  0  0
   47.3840   33.7290   38.9300 C   0  0  0  0  0  0  0  0  0  0  0  0
   48.3950   34.3910   38.2440 C   0  0  0  0  0  0  0  0  0  0  0  0
   48.5700   33.3920   36.6990 S   0  0  0  0  0  0  0  0  0  0  0  0
   47.2140   32.2350   37.2720 C   0  0  0  0  0  0  0  0  0  0  0  0
   46.9780   32.7100   38.2390 N   0  0  0  0  0  0  0  0  0  0  0  0
   49.1550   35.2760   38.2250 H   0  0  0  0  0  0  0  0  0  0  0  0
   46.2650   29.9710   36.8700 C   0  0  0  0  0  3  0  0  0  0  0  0
   46.8400   31.1040   36.3900 C   0  0  0  0  0  0  0  0  0  0  0  0
   47.1500   31.3670   35.0770 C   0  0  0  0  0  0  0  0  0  0  0  0
   47.6090   32.2740   34.7080 H   0  0  0  0  0  0  0  0  0  0  0  0
   46.8480   30.3770   34.1360 C   0  0  0  0  0  0  0  0  0  0  0  0
   46.2590   29.2120   34.6160 C   0  0  0  0  0  0  0  0  0  0  0  0
   45.9550   28.9730   35.9600 C   0  0  0  0  0  3  0  0  0  0  0  0
   46.0540   28.3860   33.4960 O   0  0  0  0  0  0  0  0  0  0  0  0
   46.0980   29.1920   32.3160 C   0  0  0  0  0  3  0  0  0  0  0  0
   46.5030   28.6510   31.4600 H   0  0  0  0  0  0  0  0  0  0  0  0
   46.9870   30.2330   32.7460 O   0  0  0  0  0  0  0  0  0  0  0  0
  1  6  1  0  0  0  0
  2  1  2  0  0  0  0
  2  3  1  0  0  0  0
  3  4  2  0  0  0  0
  4  5  1  0  0  0  0
  5  9  1  0  0  0  0
  6  5  2  0  0  0  0
  7  1  1  0  0  0  0
  8 16  1  0  0  0  0
  9  8  2  0  0  0  0
  9 10  1  0  0  0  0
 10 11  2  0  0  0  0
 11 15  1  0  0  0  0
 11 12  1  0  0  0  0
 12 19  1  0  0  0  0
 12 13  1  0  0  0  0
 13 20  1  0  0  0  0
 14 13  2  0  0  0  0
 15 14  1  0  0  0  0
 16 21  1  0  0  0  0
 16 15  2  0  0  0  0
 17  8  1  0  0  0  0
 18 10  1  0  0  0  0
 22  3  1  0  0  0  0
 22 24  1  0  0  0  0
 23 22  1  0  0  0  0
 25 22  1  0  0  0  0
 26  2  1  0  0  0  0
 27 26  1  0  0  0  0
 28 27  2  0  0  0  0
 29 30  1  0  0  0  0
 29 28  1  0  0  0  0
 30 31  2  0  0  0  0
 31 27  1  0  0  0  0
 32 28  1  0  0  0  0
 34 33  1  0  0  0  0
 34 30  1  0  0  0  0
 35 34  2  0  0  0  0
 36 35  1  0  0  0  0
 37 38  2  0  0  0  0
 37 35  1  0  0  0  0
 38 39  1  0  0  0  0
 39 33  2  0  0  0  0
 40 38  1  0  0  0  0
 41 43  1  0  0  0  0
 41 40  1  0  0  0  0
 42 41  1  0  0  0  0
 43 37  1  0  0  0  0
M  END
>  <minimizedAffinity>
-6.77698183

>  <minimizedRMSD>
0.128011227

$$$$
