
 OpenBabel03252506423D

 42 46  0  0  1  0  0  0  0  0999 V2000
   49.3940   33.2350   41.5500 N   0  0  1  0  0  0  0  0  0  0  0  0
   50.6320   32.9910   42.2510 C   0  0  0  0  0  0  0  0  0  0  0  0
   51.2180   31.6410   41.9150 C   0  0  0  0  0  0  0  0  0  0  0  0
   50.3330   30.6030   42.5550 C   0  0  0  0  0  0  0  0  0  0  0  0
   48.8800   30.9640   42.3580 C   0  0  0  0  0  0  0  0  0  0  0  0
   48.7180   31.9790   41.2750 C   0  0  2  0  0  0  0  0  0  0  0  0
   51.3640   33.8190   42.1280 H   0  0  0  0  0  0  0  0  0  0  0  0
   50.4020   32.9500   43.3440 H   0  0  0  0  0  0  0  0  0  0  0  0
   51.3150   31.5260   40.8360 H   0  0  0  0  0  0  0  0  0  0  0  0
   52.2460   31.6410   42.3340 H   0  0  0  0  0  0  0  0  0  0  0  0
   50.5780   30.4400   43.6240 H   0  0  0  0  0  0  0  0  0  0  0  0
   50.5170   29.6360   42.0580 H   0  0  0  0  0  0  0  0  0  0  0  0
   48.2600   30.0900   42.0890 H   0  0  0  0  0  0  0  0  0  0  0  0
   48.5210   31.4320   43.2910 H   0  0  0  0  0  0  0  0  0  0  0  0
   47.6200   32.2700   41.3310 H   0  0  0  0  0  0  0  0  0  0  0  0
   48.0530   30.4380   39.6360 C   0  0  0  0  0  3  0  0  0  0  0  0
   48.9170   31.5090   39.9040 C   0  0  0  0  0  0  0  0  0  0  0  0
   49.7520   31.9050   38.9050 C   0  0  0  0  0  0  0  0  0  0  0  0
   50.3830   32.7220   39.1840 H   0  0  0  0  0  0  0  0  0  0  0  0
   49.7480   31.2790   37.6790 C   0  0  0  0  0  0  0  0  0  0  0  0
   48.9220   30.2230   37.3600 C   0  0  0  0  0  0  0  0  0  0  0  0
   48.0690   29.8170   38.3810 C   0  0  0  0  0  3  0  0  0  0  0  0
   49.1450   29.8030   36.0570 O   0  0  0  0  0  0  0  0  0  0  0  0
   50.3710   30.3710   35.6640 C   0  0  0  0  0  3  0  0  0  0  0  0
   50.2630   30.7640   34.6390 H   0  0  0  0  0  0  0  0  0  0  0  0
   50.4910   31.4990   36.5280 O   0  0  0  0  0  0  0  0  0  0  0  0
   47.1950   34.5170   42.0120 C   0  0  1  0  0  0  0  0  0  0  0  0
   48.2620   35.4190   41.6340 C   0  0  0  0  0  0  0  0  0  0  0  0
   48.6370   34.1540   42.3390 C   0  0  2  0  0  0  0  0  0  0  0  0
   46.7500   33.7640   41.3230 H   0  0  0  0  0  0  0  0  0  0  0  0
   48.4600   35.4940   40.5240 H   0  0  0  0  0  0  0  0  0  0  0  0
   48.3830   36.3980   42.1150 H   0  0  0  0  0  0  0  0  0  0  0  0
   48.9040   34.2860   43.4110 H   0  0  0  0  0  0  0  0  0  0  0  0
   45.5080   36.0000   43.1770 C   0  0  0  0  0  0  0  0  0  0  0  0
   46.2890   34.8160   43.1590 C   0  0  0  0  0  0  0  0  0  0  0  0
   46.1820   33.9580   44.2360 C   0  0  0  0  0  0  0  0  0  0  0  0
   45.3310   34.3100   45.2420 N   0  0  0  0  0  0  0  0  0  0  0  0
   44.5990   35.4390   45.2360 C   0  0  0  0  0  0  0  0  0  0  0  0
   44.6810   36.3000   44.2010 N   0  0  0  0  0  0  0  0  0  0  0  0
   45.5670   36.6980   42.3490 H   0  0  0  0  0  0  0  0  0  0  0  0
   46.7460   33.0440   44.2820 H   0  0  0  0  0  0  0  0  0  0  0  0
   43.9700   35.5680   46.1180 H   0  0  0  0  0  0  0  0  0  0  0  0
  1  2  1  1  0  0  0
  1 29  1  0  0  0  0
  2  8  1  0  0  0  0
  3  2  1  0  0  0  0
  3 10  1  0  0  0  0
  3  4  1  0  0  0  0
  4 11  1  0  0  0  0
  5  4  1  0  0  0  0
  5 14  1  0  0  0  0
  6 15  1  1  0  0  0
  6  1  1  0  0  0  0
  6  5  1  0  0  0  0
  7  2  1  0  0  0  0
  9  3  1  0  0  0  0
 12  4  1  0  0  0  0
 13  5  1  0  0  0  0
 16 17  1  0  0  0  0
 17  6  1  0  0  0  0
 18 19  1  0  0  0  0
 18 17  2  0  0  0  0
 20 18  1  0  0  0  0
 21 20  2  0  0  0  0
 21 22  1  0  0  0  0
 22 16  2  0  0  0  0
 23 21  1  0  0  0  0
 24 23  1  0  0  0  0
 24 26  1  0  0  0  0
 25 24  1  0  0  0  0
 26 20  1  0  0  0  0
 27 30  1  6  0  0  0
 27 29  1  0  0  0  0
 27 35  1  0  0  0  0
 28 27  1  0  0  0  0
 28 32  1  0  0  0  0
 28 29  1  0  0  0  0
 29 33  1  1  0  0  0
 31 28  1  0  0  0  0
 34 39  1  0  0  0  0
 35 34  2  0  0  0  0
 35 36  1  0  0  0  0
 36 41  1  0  0  0  0
 36 37  2  0  0  0  0
 38 37  1  0  0  0  0
 38 42  1  0  0  0  0
 39 38  2  0  0  0  0
 40 34  1  0  0  0  0
M  END
>  <minimizedAffinity>
-5.11731958

>  <minimizedRMSD>
0.512347579

$$$$
