
 OpenBabel03242510243D

 40 44  0  0  1  0  0  0  0  0999 V2000
   37.7090   29.6890   39.8280 N   0  0  0  0  0  0  0  0  0  0  0  0
   37.0840   29.7170   41.0670 C   0  0  0  0  0  0  0  0  0  0  0  0
   36.2020   30.4880   41.5290 O   0  0  0  0  0  0  0  0  0  0  0  0
   38.7310   29.4980   39.9120 H   0  0  0  0  0  0  0  0  0  0  0  0
   37.3000   31.1660   37.8930 C   0  0  1  0  0  0  0  0  0  0  0  0
   37.9910   30.0590   37.3920 C   0  0  0  0  0  0  0  0  0  0  0  0
   37.0200   29.9010   38.6050 C   0  0  1  0  0  0  0  0  0  0  0  0
   36.4580   31.6640   37.3540 H   0  0  0  0  0  0  0  0  0  0  0  0
   39.0400   29.7640   37.5650 H   0  0  0  0  0  0  0  0  0  0  0  0
   37.6220   29.5880   36.4290 H   0  0  0  0  0  0  0  0  0  0  0  0
   36.1350   29.2890   38.3390 H   0  0  0  0  0  0  0  0  0  0  0  0
   37.4700   33.1890   39.5260 C   0  0  0  0  0  0  0  0  0  0  0  0
   38.1000   32.2150   38.6860 C   0  0  0  0  0  0  0  0  0  0  0  0
   39.4750   32.2560   38.5840 C   0  0  0  0  0  0  0  0  0  0  0  0
   40.1570   33.1970   39.2700 N   0  0  0  0  0  0  0  0  0  0  0  0
   39.5460   34.1150   40.0620 C   0  0  0  0  0  0  0  0  0  0  0  0
   38.1540   34.1020   40.1870 N   0  0  0  0  0  0  0  0  0  0  0  0
   36.4040   33.1450   39.6190 H   0  0  0  0  0  0  0  0  0  0  0  0
   39.9850   31.5310   37.9560 H   0  0  0  0  0  0  0  0  0  0  0  0
   40.1470   34.8460   40.5860 H   0  0  0  0  0  0  0  0  0  0  0  0
   37.4590   28.6740   42.1090 C   0  0  2  0  0  0  0  0  0  0  0  0
   38.4580   29.1460   43.2300 C   0  0  0  0  0  0  0  0  0  0  0  0
   38.8160   28.1270   42.1890 C   0  0  1  0  0  0  0  0  0  0  0  0
   36.6310   28.1070   42.5790 H   0  0  0  0  0  0  0  0  0  0  0  0
   38.8130   30.1820   43.0530 H   0  0  0  0  0  0  0  0  0  0  0  0
   38.3080   28.7680   44.2370 H   0  0  0  0  0  0  0  0  0  0  0  0
   39.4130   28.3500   41.2790 H   0  0  0  0  0  0  0  0  0  0  0  0
   38.9630   26.6940   42.6440 C   0  0  0  0  0  0  0  0  0  0  0  0
   39.5760   26.4520   43.6800 O   0  0  0  0  0  0  0  0  0  0  0  0
   37.1110   25.0950   42.0140 C   0  0  0  0  0  3  0  0  0  0  0  0
   38.3940   25.5850   41.8880 C   0  0  0  0  0  0  0  0  0  0  0  0
   39.1570   24.9270   40.9460 C   0  0  0  0  0  0  0  0  0  0  0  0
   40.1870   25.2030   40.7370 H   0  0  0  0  0  0  0  0  0  0  0  0
   38.6990   23.8710   40.1860 C   0  0  0  0  0  0  0  0  0  0  0  0
   37.4090   23.4170   40.3500 C   0  0  0  0  0  0  0  0  0  0  0  0
   36.6150   24.0420   41.2760 C   0  0  0  0  0  3  0  0  0  0  0  0
   37.2180   22.3550   39.4660 O   0  0  0  0  0  0  0  0  0  0  0  0
   38.5110   21.8340   39.1320 C   0  0  0  0  0  3  0  0  0  0  0  0
   38.9310   21.2270   39.9770 H   0  0  0  0  0  0  0  0  0  0  0  0
   39.2590   23.0580   39.1940 O   0  0  0  0  0  0  0  0  0  0  0  0
  1  4  1  0  0  0  0
  1  2  1  0  0  0  0
  2  3  2  0  0  0  0
  2 21  1  0  0  0  0
  5  8  1  6  0  0  0
  5  7  1  0  0  0  0
  5 13  1  0  0  0  0
  6  9  1  0  0  0  0
  6  5  1  0  0  0  0
  6  7  1  0  0  0  0
  7 11  1  6  0  0  0
  7  1  1  0  0  0  0
 10  6  1  0  0  0  0
 12 18  1  0  0  0  0
 12 17  1  0  0  0  0
 13 12  2  0  0  0  0
 14 13  1  0  0  0  0
 14 15  2  0  0  0  0
 15 16  1  0  0  0  0
 16 17  2  0  0  0  0
 16 20  1  0  0  0  0
 19 14  1  0  0  0  0
 21 23  1  0  0  0  0
 21 24  1  1  0  0  0
 21 22  1  0  0  0  0
 22 26  1  0  0  0  0
 23 27  1  6  0  0  0
 23 28  1  0  0  0  0
 23 22  1  0  0  0  0
 25 22  1  0  0  0  0
 28 29  2  0  0  0  0
 31 30  1  0  0  0  0
 31 28  1  0  0  0  0
 32 31  2  0  0  0  0
 33 32  1  0  0  0  0
 34 35  2  0  0  0  0
 34 32  1  0  0  0  0
 35 36  1  0  0  0  0
 36 30  2  0  0  0  0
 37 35  1  0  0  0  0
 38 40  1  0  0  0  0
 38 37  1  0  0  0  0
 38 39  1  0  0  0  0
 40 34  1  0  0  0  0
M  END
>  <minimizedAffinity>
-5.78704548

$$$$

 OpenBabel03242510243D

 40 44  0  0  1  0  0  0  0  0999 V2000
   37.7040   26.6190   41.1930 N   0  0  0  0  0  0  0  0  0  0  0  0
   36.8520   26.2580   40.1580 C   0  0  0  0  0  0  0  0  0  0  0  0
   36.2320   25.1840   39.9370 O   0  0  0  0  0  0  0  0  0  0  0  0
   38.5300   27.1540   40.8470 H   0  0  0  0  0  0  0  0  0  0  0  0
   37.9390   27.2500   43.5670 C   0  0  1  0  0  0  0  0  0  0  0  0
   36.5750   27.3480   43.2770 C   0  0  0  0  0  0  0  0  0  0  0  0
   37.4620   26.2870   42.5510 C   0  0  1  0  0  0  0  0  0  0  0  0
   38.3380   26.8440   44.5290 H   0  0  0  0  0  0  0  0  0  0  0  0
   36.0580   28.0770   42.6290 H   0  0  0  0  0  0  0  0  0  0  0  0
   35.8360   26.9150   44.0200 H   0  0  0  0  0  0  0  0  0  0  0  0
   37.1800   25.2550   42.8420 H   0  0  0  0  0  0  0  0  0  0  0  0
   40.2820   28.1850   42.9170 C   0  0  0  0  0  0  0  0  0  0  0  0
   38.8670   28.3630   43.0490 C   0  0  0  0  0  0  0  0  0  0  0  0
   38.3460   29.5940   42.7110 C   0  0  0  0  0  0  0  0  0  0  0  0
   39.1790   30.5640   42.2800 N   0  0  0  0  0  0  0  0  0  0  0  0
   40.5190   30.3820   42.1610 C   0  0  0  0  0  0  0  0  0  0  0  0
   41.0800   29.1450   42.4950 N   0  0  0  0  0  0  0  0  0  0  0  0
   40.6830   27.2220   43.1620 H   0  0  0  0  0  0  0  0  0  0  0  0
   37.2760   29.7620   42.7980 H   0  0  0  0  0  0  0  0  0  0  0  0
   41.1350   31.1980   41.8110 H   0  0  0  0  0  0  0  0  0  0  0  0
   36.5500   27.2670   39.0620 C   0  0  2  0  0  0  0  0  0  0  0  0
   37.2650   27.0210   37.6810 C   0  0  0  0  0  0  0  0  0  0  0  0
   37.5750   28.1910   38.5680 C   0  0  1  0  0  0  0  0  0  0  0  0
   35.4850   27.5120   38.8760 H   0  0  0  0  0  0  0  0  0  0  0  0
   37.9650   26.1620   37.7290 H   0  0  0  0  0  0  0  0  0  0  0  0
   36.7110   27.2440   36.7730 H   0  0  0  0  0  0  0  0  0  0  0  0
   38.4550   28.2420   39.2460 H   0  0  0  0  0  0  0  0  0  0  0  0
   37.1190   29.5530   38.1030 C   0  0  0  0  0  0  0  0  0  0  0  0
   36.2660   29.6340   37.2240 O   0  0  0  0  0  0  0  0  0  0  0  0
   36.9470   31.7450   39.3470 C   0  0  0  0  0  3  0  0  0  0  0  0
   37.6640   30.7810   38.6700 C   0  0  0  0  0  0  0  0  0  0  0  0
   39.0100   31.0600   38.5530 C   0  0  0  0  0  0  0  0  0  0  0  0
   39.6990   30.3910   38.0450 H   0  0  0  0  0  0  0  0  0  0  0  0
   39.6070   32.1950   39.0600 C   0  0  0  0  0  0  0  0  0  0  0  0
   38.8470   33.1290   39.7280 C   0  0  0  0  0  0  0  0  0  0  0  0
   37.5040   32.8930   39.8670 C   0  0  0  0  0  3  0  0  0  0  0  0
   39.6980   34.1610   40.1270 O   0  0  0  0  0  0  0  0  0  0  0  0
   40.8560   34.1150   39.2820 C   0  0  0  0  0  3  0  0  0  0  0  0
   40.6270   34.5210   38.2620 H   0  0  0  0  0  0  0  0  0  0  0  0
   40.9130   32.6950   39.0730 O   0  0  0  0  0  0  0  0  0  0  0  0
  1  7  1  0  0  0  0
  2  1  1  0  0  0  0
  3  2  2  0  0  0  0
  4  1  1  0  0  0  0
  5  8  1  1  0  0  0
  6  5  1  0  0  0  0
  6 10  1  0  0  0  0
  7 11  1  1  0  0  0
  7  6  1  0  0  0  0
  7  5  1  0  0  0  0
  9  6  1  0  0  0  0
 12 13  1  0  0  0  0
 12 18  1  0  0  0  0
 13  5  1  0  0  0  0
 14 19  1  0  0  0  0
 14 13  2  0  0  0  0
 15 14  1  0  0  0  0
 16 15  2  0  0  0  0
 16 17  1  0  0  0  0
 17 12  2  0  0  0  0
 20 16  1  0  0  0  0
 21 24  1  6  0  0  0
 21  2  1  0  0  0  0
 22 25  1  0  0  0  0
 22 23  1  0  0  0  0
 22 21  1  0  0  0  0
 23 21  1  0  0  0  0
 23 27  1  1  0  0  0
 26 22  1  0  0  0  0
 28 23  1  0  0  0  0
 28 31  1  0  0  0  0
 29 28  2  0  0  0  0
 30 36  1  0  0  0  0
 31 30  2  0  0  0  0
 32 31  1  0  0  0  0
 32 34  2  0  0  0  0
 33 32  1  0  0  0  0
 34 40  1  0  0  0  0
 34 35  1  0  0  0  0
 35 36  2  0  0  0  0
 35 37  1  0  0  0  0
 38 37  1  0  0  0  0
 39 38  1  0  0  0  0
 40 38  1  0  0  0  0
M  END
>  <minimizedAffinity>
-5.69900608

$$$$

 OpenBabel03242510243D

 40 44  0  0  1  0  0  0  0  0999 V2000
   39.9400   31.3100   40.5170 N   0  0  0  0  0  0  0  0  0  0  0  0
   40.2820   31.0060   41.8280 C   0  0  0  0  0  0  0  0  0  0  0  0
   41.1000   31.5520   42.6150 O   0  0  0  0  0  0  0  0  0  0  0  0
   39.8410   30.4530   39.9320 H   0  0  0  0  0  0  0  0  0  0  0  0
   38.4040   32.9890   39.5610 C   0  0  1  0  0  0  0  0  0  0  0  0
   38.6710   33.4120   40.8670 C   0  0  0  0  0  0  0  0  0  0  0  0
   39.7550   32.6370   40.0510 C   0  0  1  0  0  0  0  0  0  0  0  0
   38.3260   33.6840   38.6900 H   0  0  0  0  0  0  0  0  0  0  0  0
   38.3560   32.9520   41.8190 H   0  0  0  0  0  0  0  0  0  0  0  0
   38.9050   34.5080   41.0380 H   0  0  0  0  0  0  0  0  0  0  0  0
   40.6250   33.2840   39.8160 H   0  0  0  0  0  0  0  0  0  0  0  0
   36.6320   31.2940   40.4380 C   0  0  0  0  0  0  0  0  0  0  0  0
   37.4350   31.8080   39.3710 C   0  0  0  0  0  0  0  0  0  0  0  0
   37.3340   31.1900   38.1430 C   0  0  0  0  0  0  0  0  0  0  0  0
   36.4960   30.1420   38.0020 N   0  0  0  0  0  0  0  0  0  0  0  0
   35.7400   29.6630   39.0240 C   0  0  0  0  0  0  0  0  0  0  0  0
   35.8180   30.2680   40.2820 N   0  0  0  0  0  0  0  0  0  0  0  0
   36.6970   31.7870   41.3880 H   0  0  0  0  0  0  0  0  0  0  0  0
   37.9300   31.5550   37.3110 H   0  0  0  0  0  0  0  0  0  0  0  0
   35.0870   28.8190   38.8490 H   0  0  0  0  0  0  0  0  0  0  0  0
   39.6020   29.8330   42.5170 C   0  0  2  0  0  0  0  0  0  0  0  0
   40.3750   28.4630   42.4700 C   0  0  0  0  0  0  0  0  0  0  0  0
   39.0780   28.6970   41.7540 C   0  0  1  0  0  0  0  0  0  0  0  0
   39.2250   29.9990   43.5460 H   0  0  0  0  0  0  0  0  0  0  0  0
   41.2980   28.5330   41.8590 H   0  0  0  0  0  0  0  0  0  0  0  0
   40.3280   27.8210   43.3460 H   0  0  0  0  0  0  0  0  0  0  0  0
   38.9980   28.9220   40.6680 H   0  0  0  0  0  0  0  0  0  0  0  0
   37.8520   28.0020   42.2960 C   0  0  0  0  0  0  0  0  0  0  0  0
   37.1980   28.5400   43.1850 O   0  0  0  0  0  0  0  0  0  0  0  0
   37.3760   25.5300   42.5160 C   0  0  0  0  0  3  0  0  0  0  0  0
   37.4190   26.7030   41.7930 C   0  0  0  0  0  0  0  0  0  0  0  0
   37.0000   26.5730   40.4850 C   0  0  0  0  0  0  0  0  0  0  0  0
   36.9800   27.4130   39.7960 H   0  0  0  0  0  0  0  0  0  0  0  0
   36.5740   25.3850   39.9290 C   0  0  0  0  0  0  0  0  0  0  0  0
   36.5510   24.2400   40.6920 C   0  0  0  0  0  0  0  0  0  0  0  0
   36.9590   24.3230   41.9980 C   0  0  0  0  0  3  0  0  0  0  0  0
   36.0830   23.2020   39.8850 O   0  0  0  0  0  0  0  0  0  0  0  0
   36.2990   23.5860   38.5210 C   0  0  0  0  0  3  0  0  0  0  0  0
   37.3820   23.4900   38.2420 H   0  0  0  0  0  0  0  0  0  0  0  0
   36.1140   25.0020   38.6640 O   0  0  0  0  0  0  0  0  0  0  0  0
  1  2  1  0  0  0  0
  2 21  1  0  0  0  0
  2  3  2  0  0  0  0
  4  1  1  0  0  0  0
  5  8  1  6  0  0  0
  5  7  1  0  0  0  0
  5  6  1  0  0  0  0
  6 10  1  0  0  0  0
  6  9  1  0  0  0  0
  7 11  1  6  0  0  0
  7  1  1  0  0  0  0
  7  6  1  0  0  0  0
 12 18  1  0  0  0  0
 13  5  1  0  0  0  0
 13 12  2  0  0  0  0
 14 13  1  0  0  0  0
 15 14  2  0  0  0  0
 15 16  1  0  0  0  0
 16 17  2  0  0  0  0
 17 12  1  0  0  0  0
 19 14  1  0  0  0  0
 20 16  1  0  0  0  0
 21 24  1  1  0  0  0
 22 21  1  0  0  0  0
 22 26  1  0  0  0  0
 23 27  1  6  0  0  0
 23 28  1  0  0  0  0
 23 22  1  0  0  0  0
 23 21  1  0  0  0  0
 25 22  1  0  0  0  0
 28 29  2  0  0  0  0
 31 28  1  0  0  0  0
 31 30  2  0  0  0  0
 32 31  1  0  0  0  0
 33 32  1  0  0  0  0
 34 32  2  0  0  0  0
 34 35  1  0  0  0  0
 35 36  2  0  0  0  0
 36 30  1  0  0  0  0
 37 35  1  0  0  0  0
 38 40  1  0  0  0  0
 38 37  1  0  0  0  0
 39 38  1  0  0  0  0
 40 34  1  0  0  0  0
M  END
>  <minimizedAffinity>
-5.63015079

$$$$

 OpenBabel03242510243D

 40 44  0  0  1  0  0  0  0  0999 V2000
   37.7390   25.5780   39.8800 N   0  0  0  0  0  0  0  0  0  0  0  0
   36.5870   25.9090   39.1790 C   0  0  0  0  0  0  0  0  0  0  0  0
   35.7350   25.1830   38.6030 O   0  0  0  0  0  0  0  0  0  0  0  0
   38.5290   26.2200   39.6540 H   0  0  0  0  0  0  0  0  0  0  0  0
   37.8520   24.8260   42.2280 C   0  0  1  0  0  0  0  0  0  0  0  0
   36.5900   24.4430   41.7620 C   0  0  0  0  0  0  0  0  0  0  0  0
   37.8100   24.4900   40.7880 C   0  0  1  0  0  0  0  0  0  0  0  0
   38.4810   24.1910   42.8970 H   0  0  0  0  0  0  0  0  0  0  0  0
   35.7300   25.0810   41.4980 H   0  0  0  0  0  0  0  0  0  0  0  0
   36.2230   23.3990   42.0060 H   0  0  0  0  0  0  0  0  0  0  0  0
   38.0900   23.4760   40.4380 H   0  0  0  0  0  0  0  0  0  0  0  0
   36.9990   27.1970   42.8880 C   0  0  0  0  0  0  0  0  0  0  0  0
   38.0760   26.3120   42.5600 C   0  0  0  0  0  0  0  0  0  0  0  0
   39.3480   26.8420   42.5280 C   0  0  0  0  0  0  0  0  0  0  0  0
   39.5220   28.1520   42.8000 N   0  0  0  0  0  0  0  0  0  0  0  0
   38.4910   28.9810   43.1080 C   0  0  0  0  0  0  0  0  0  0  0  0
   37.1880   28.4750   43.1500 N   0  0  0  0  0  0  0  0  0  0  0  0
   36.0130   26.7800   42.9310 H   0  0  0  0  0  0  0  0  0  0  0  0
   40.1890   26.1970   42.2840 H   0  0  0  0  0  0  0  0  0  0  0  0
   38.6930   30.0220   43.3160 H   0  0  0  0  0  0  0  0  0  0  0  0
   36.2030   27.3740   39.0350 C   0  0  2  0  0  0  0  0  0  0  0  0
   36.8670   28.1460   37.8350 C   0  0  0  0  0  0  0  0  0  0  0  0
   37.1740   28.4460   39.2730 C   0  0  1  0  0  0  0  0  0  0  0  0
   35.1230   27.6210   39.0690 H   0  0  0  0  0  0  0  0  0  0  0  0
   37.5990   27.5120   37.2930 H   0  0  0  0  0  0  0  0  0  0  0  0
   36.2680   28.8850   37.3110 H   0  0  0  0  0  0  0  0  0  0  0  0
   38.0790   28.0820   39.8050 H   0  0  0  0  0  0  0  0  0  0  0  0
   36.6510   29.7460   39.8360 C   0  0  0  0  0  0  0  0  0  0  0  0
   35.5200   29.7840   40.3120 O   0  0  0  0  0  0  0  0  0  0  0  0
   36.9660   32.2510   39.7720 C   0  0  0  0  0  3  0  0  0  0  0  0
   37.4530   30.9630   39.8330 C   0  0  0  0  0  0  0  0  0  0  0  0
   38.8290   30.8850   39.8960 C   0  0  0  0  0  0  0  0  0  0  0  0
   39.3550   29.9350   39.9470 H   0  0  0  0  0  0  0  0  0  0  0  0
   39.6620   31.9840   39.8980 C   0  0  0  0  0  0  0  0  0  0  0  0
   39.1270   33.2510   39.8360 C   0  0  0  0  0  0  0  0  0  0  0  0
   37.7630   33.3750   39.7720 C   0  0  0  0  0  3  0  0  0  0  0  0
   40.1850   34.1600   39.8540 O   0  0  0  0  0  0  0  0  0  0  0  0
   41.3600   33.4620   39.4210 C   0  0  0  0  0  3  0  0  0  0  0  0
   41.3460   33.3000   38.3110 H   0  0  0  0  0  0  0  0  0  0  0  0
   41.0480   32.1650   39.9530 O   0  0  0  0  0  0  0  0  0  0  0  0
  1  7  1  0  0  0  0
  2  1  1  0  0  0  0
  3  2  2  0  0  0  0
  4  1  1  0  0  0  0
  5 13  1  0  0  0  0
  5  8  1  1  0  0  0
  6 10  1  0  0  0  0
  6  5  1  0  0  0  0
  7 11  1  6  0  0  0
  7  6  1  0  0  0  0
  7  5  1  0  0  0  0
  9  6  1  0  0  0  0
 12 18  1  0  0  0  0
 12 17  1  0  0  0  0
 13 12  2  0  0  0  0
 14 13  1  0  0  0  0
 14 15  2  0  0  0  0
 15 16  1  0  0  0  0
 16 17  2  0  0  0  0
 16 20  1  0  0  0  0
 19 14  1  0  0  0  0
 21 24  1  1  0  0  0
 21  2  1  0  0  0  0
 21 23  1  0  0  0  0
 22 21  1  0  0  0  0
 22 23  1  0  0  0  0
 23 27  1  1  0  0  0
 23 28  1  0  0  0  0
 25 22  1  0  0  0  0
 26 22  1  0  0  0  0
 28 29  2  0  0  0  0
 30 31  1  0  0  0  0
 31 28  1  0  0  0  0
 31 32  2  0  0  0  0
 32 34  1  0  0  0  0
 32 33  1  0  0  0  0
 34 40  1  0  0  0  0
 35 37  1  0  0  0  0
 35 34  2  0  0  0  0
 36 30  2  0  0  0  0
 36 35  1  0  0  0  0
 38 37  1  0  0  0  0
 38 40  1  0  0  0  0
 39 38  1  0  0  0  0
M  END
>  <minimizedAffinity>
-5.60367632

$$$$

 OpenBabel03242510243D

 40 44  0  0  1  0  0  0  0  0999 V2000
   37.7760   30.2090   40.7270 N   0  0  0  0  0  0  0  0  0  0  0  0
   38.2190   29.6230   41.9050 C   0  0  0  0  0  0  0  0  0  0  0  0
   38.8190   30.1160   42.8970 O   0  0  0  0  0  0  0  0  0  0  0  0
   37.9600   29.6020   39.8990 H   0  0  0  0  0  0  0  0  0  0  0  0
   37.9280   32.5800   40.0590 C   0  0  1  0  0  0  0  0  0  0  0  0
   36.9720   32.0030   39.2160 C   0  0  0  0  0  0  0  0  0  0  0  0
   37.1530   31.4820   40.6780 C   0  0  1  0  0  0  0  0  0  0  0  0
   37.8290   33.6030   40.4950 H   0  0  0  0  0  0  0  0  0  0  0  0
   37.1180   31.2620   38.4120 H   0  0  0  0  0  0  0  0  0  0  0  0
   36.0070   32.5700   39.0350 H   0  0  0  0  0  0  0  0  0  0  0  0
   36.2630   31.7040   41.3010 H   0  0  0  0  0  0  0  0  0  0  0  0
   39.8600   31.7220   38.5380 C   0  0  0  0  0  0  0  0  0  0  0  0
   39.4100   32.2750   39.7790 C   0  0  0  0  0  0  0  0  0  0  0  0
   40.3580   32.5140   40.7510 C   0  0  0  0  0  0  0  0  0  0  0  0
   41.6500   32.2190   40.4960 N   0  0  0  0  0  0  0  0  0  0  0  0
   42.0630   31.6930   39.3140 C   0  0  0  0  0  0  0  0  0  0  0  0
   41.1270   31.4390   38.3070 N   0  0  0  0  0  0  0  0  0  0  0  0
   39.1250   31.5540   37.7760 H   0  0  0  0  0  0  0  0  0  0  0  0
   40.0510   32.9350   41.7050 H   0  0  0  0  0  0  0  0  0  0  0  0
   43.1130   31.4770   39.1680 H   0  0  0  0  0  0  0  0  0  0  0  0
   37.9770   28.1390   42.1310 C   0  0  2  0  0  0  0  0  0  0  0  0
   37.2890   27.7510   43.4920 C   0  0  0  0  0  0  0  0  0  0  0  0
   38.7070   27.3930   43.1600 C   0  0  1  0  0  0  0  0  0  0  0  0
   37.4950   27.5720   41.3090 H   0  0  0  0  0  0  0  0  0  0  0  0
   37.1390   28.6360   44.1440 H   0  0  0  0  0  0  0  0  0  0  0  0
   36.5750   26.9310   43.4860 H   0  0  0  0  0  0  0  0  0  0  0  0
   39.5930   27.9510   43.5330 H   0  0  0  0  0  0  0  0  0  0  0  0
   39.0080   25.9390   42.8840 C   0  0  0  0  0  0  0  0  0  0  0  0
   39.6950   25.3050   43.6800 O   0  0  0  0  0  0  0  0  0  0  0  0
   39.1970   25.0770   40.5160 C   0  0  0  0  0  3  0  0  0  0  0  0
   38.5050   25.2620   41.6940 C   0  0  0  0  0  0  0  0  0  0  0  0
   37.2300   24.7360   41.6860 C   0  0  0  0  0  0  0  0  0  0  0  0
   36.5670   24.8060   42.5440 H   0  0  0  0  0  0  0  0  0  0  0  0
   36.6750   24.0800   40.6070 C   0  0  0  0  0  0  0  0  0  0  0  0
   37.4070   23.9220   39.4510 C   0  0  0  0  0  0  0  0  0  0  0  0
   38.6800   24.4290   39.4160 C   0  0  0  0  0  3  0  0  0  0  0  0
   36.6110   23.2320   38.5360 O   0  0  0  0  0  0  0  0  0  0  0  0
   35.2450   23.4120   38.9330 C   0  0  0  0  0  3  0  0  0  0  0  0
   34.8820   24.4410   38.6720 H   0  0  0  0  0  0  0  0  0  0  0  0
   35.4400   23.4740   40.3540 O   0  0  0  0  0  0  0  0  0  0  0  0
  1  2  1  0  0  0  0
  2 21  1  0  0  0  0
  2  3  2  0  0  0  0
  4  1  1  0  0  0  0
  5  8  1  1  0  0  0
  5  7  1  0  0  0  0
  6  5  1  0  0  0  0
  6  7  1  0  0  0  0
  7  1  1  0  0  0  0
  7 11  1  1  0  0  0
  9  6  1  0  0  0  0
 10  6  1  0  0  0  0
 12 13  1  0  0  0  0
 13  5  1  0  0  0  0
 13 14  2  0  0  0  0
 14 19  1  0  0  0  0
 15 14  1  0  0  0  0
 16 15  2  0  0  0  0
 17 12  2  0  0  0  0
 17 16  1  0  0  0  0
 18 12  1  0  0  0  0
 20 16  1  0  0  0  0
 21 24  1  6  0  0  0
 21 23  1  0  0  0  0
 21 22  1  0  0  0  0
 22 25  1  0  0  0  0
 23 22  1  0  0  0  0
 23 27  1  1  0  0  0
 26 22  1  0  0  0  0
 28 23  1  0  0  0  0
 28 29  2  0  0  0  0
 30 31  1  0  0  0  0
 31 28  1  0  0  0  0
 32 31  2  0  0  0  0
 32 33  1  0  0  0  0
 34 32  1  0  0  0  0
 35 34  2  0  0  0  0
 36 35  1  0  0  0  0
 36 30  2  0  0  0  0
 37 38  1  0  0  0  0
 37 35  1  0  0  0  0
 38 40  1  0  0  0  0
 39 38  1  0  0  0  0
 40 34  1  0  0  0  0
M  END
>  <minimizedAffinity>
-5.47996616

$$$$

 OpenBabel03242510243D

 40 44  0  0  1  0  0  0  0  0999 V2000
   36.7220   25.5590   40.2540 N   0  0  0  0  0  0  0  0  0  0  0  0
   37.1670   25.3090   41.5450 C   0  0  0  0  0  0  0  0  0  0  0  0
   37.3600   24.2250   42.1570 O   0  0  0  0  0  0  0  0  0  0  0  0
   36.0460   26.3520   40.2220 H   0  0  0  0  0  0  0  0  0  0  0  0
   37.0270   25.4640   37.8070 C   0  0  1  0  0  0  0  0  0  0  0  0
   38.3140   25.5030   38.3540 C   0  0  0  0  0  0  0  0  0  0  0  0
   37.1480   24.8090   39.1270 C   0  0  1  0  0  0  0  0  0  0  0  0
   36.7480   24.8320   36.9300 H   0  0  0  0  0  0  0  0  0  0  0  0
   38.8170   26.3360   38.8740 H   0  0  0  0  0  0  0  0  0  0  0  0
   39.0930   24.7920   37.9400 H   0  0  0  0  0  0  0  0  0  0  0  0
   37.3040   23.7140   39.2000 H   0  0  0  0  0  0  0  0  0  0  0  0
   34.7880   26.7890   37.6770 C   0  0  0  0  0  0  0  0  0  0  0  0
   36.2160   26.7720   37.7830 C   0  0  0  0  0  0  0  0  0  0  0  0
   36.8650   27.9870   37.8420 C   0  0  0  0  0  0  0  0  0  0  0  0
   36.1380   29.1230   37.7970 N   0  0  0  0  0  0  0  0  0  0  0  0
   34.7830   29.1250   37.6950 C   0  0  0  0  0  0  0  0  0  0  0  0
   34.0950   27.9090   37.6330 N   0  0  0  0  0  0  0  0  0  0  0  0
   34.2840   25.8440   37.6500 H   0  0  0  0  0  0  0  0  0  0  0  0
   37.9480   28.0110   37.9240 H   0  0  0  0  0  0  0  0  0  0  0  0
   34.2560   30.0680   37.6620 H   0  0  0  0  0  0  0  0  0  0  0  0
   37.5120   26.4830   42.4490 C   0  0  2  0  0  0  0  0  0  0  0  0
   36.3130   27.1080   43.2550 C   0  0  0  0  0  0  0  0  0  0  0  0
   37.0330   27.8380   42.1590 C   0  0  1  0  0  0  0  0  0  0  0  0
   38.3790   26.3630   43.1290 H   0  0  0  0  0  0  0  0  0  0  0  0
   35.3460   26.6360   42.9850 H   0  0  0  0  0  0  0  0  0  0  0  0
   36.5050   27.4550   44.2670 H   0  0  0  0  0  0  0  0  0  0  0  0
   36.6510   27.9340   41.1200 H   0  0  0  0  0  0  0  0  0  0  0  0
   37.9210   28.9910   42.5630 C   0  0  0  0  0  0  0  0  0  0  0  0
   38.6200   28.8890   43.5660 O   0  0  0  0  0  0  0  0  0  0  0  0
   36.9380   30.7680   41.0610 C   0  0  0  0  0  3  0  0  0  0  0  0
   37.9750   30.2260   41.7900 C   0  0  0  0  0  0  0  0  0  0  0  0
   39.1380   30.9660   41.7480 C   0  0  0  0  0  0  0  0  0  0  0  0
   40.0390   30.6620   42.2750 H   0  0  0  0  0  0  0  0  0  0  0  0
   39.2750   32.1450   41.0450 C   0  0  0  0  0  0  0  0  0  0  0  0
   38.2100   32.6450   40.3310 C   0  0  0  0  0  0  0  0  0  0  0  0
   37.0330   31.9420   40.3450 C   0  0  0  0  0  3  0  0  0  0  0  0
   38.6250   33.8320   39.7260 O   0  0  0  0  0  0  0  0  0  0  0  0
   40.0560   33.7980   39.6490 C   0  0  0  0  0  3  0  0  0  0  0  0
   40.4000   33.1090   38.8330 H   0  0  0  0  0  0  0  0  0  0  0  0
   40.3190   33.0550   40.8490 O   0  0  0  0  0  0  0  0  0  0  0  0
  1  2  1  0  0  0  0
  2  3  2  0  0  0  0
  2 21  1  0  0  0  0
  4  1  1  0  0  0  0
  5  8  1  6  0  0  0
  5  6  1  0  0  0  0
  5  7  1  0  0  0  0
  6  9  1  0  0  0  0
  6  7  1  0  0  0  0
  7 11  1  1  0  0  0
  7  1  1  0  0  0  0
 10  6  1  0  0  0  0
 12 13  1  0  0  0  0
 13  5  1  0  0  0  0
 13 14  2  0  0  0  0
 14 19  1  0  0  0  0
 15 14  1  0  0  0  0
 16 15  2  0  0  0  0
 17 12  2  0  0  0  0
 17 16  1  0  0  0  0
 18 12  1  0  0  0  0
 20 16  1  0  0  0  0
 21 24  1  1  0  0  0
 21 22  1  0  0  0  0
 22 26  1  0  0  0  0
 23 27  1  6  0  0  0
 23 21  1  0  0  0  0
 23 28  1  0  0  0  0
 23 22  1  0  0  0  0
 25 22  1  0  0  0  0
 28 29  2  0  0  0  0
 30 31  1  0  0  0  0
 31 28  1  0  0  0  0
 32 31  2  0  0  0  0
 32 33  1  0  0  0  0
 34 32  1  0  0  0  0
 35 36  1  0  0  0  0
 35 34  2  0  0  0  0
 36 30  2  0  0  0  0
 37 35  1  0  0  0  0
 38 37  1  0  0  0  0
 38 40  1  0  0  0  0
 39 38  1  0  0  0  0
 40 34  1  0  0  0  0
M  END
>  <minimizedAffinity>
-5.45620918

$$$$

 OpenBabel03242510243D

 40 44  0  0  1  0  0  0  0  0999 V2000
   38.1720   25.2070   40.0950 N   0  0  0  0  0  0  0  0  0  0  0  0
   37.2670   25.7980   39.2240 C   0  0  0  0  0  0  0  0  0  0  0  0
   36.3900   25.2900   38.4760 O   0  0  0  0  0  0  0  0  0  0  0  0
   39.1130   25.6530   40.0390 H   0  0  0  0  0  0  0  0  0  0  0  0
   38.1840   24.2720   42.3790 C   0  0  1  0  0  0  0  0  0  0  0  0
   36.8440   24.5440   42.0820 C   0  0  0  0  0  0  0  0  0  0  0  0
   37.8350   24.1250   40.9490 C   0  0  1  0  0  0  0  0  0  0  0  0
   38.5210   23.3630   42.9330 H   0  0  0  0  0  0  0  0  0  0  0  0
   36.3500   25.5230   41.9600 H   0  0  0  0  0  0  0  0  0  0  0  0
   36.0680   23.7600   42.3420 H   0  0  0  0  0  0  0  0  0  0  0  0
   37.5780   23.1310   40.5320 H   0  0  0  0  0  0  0  0  0  0  0  0
   38.5880   26.7620   43.0290 C   0  0  0  0  0  0  0  0  0  0  0  0
   39.1000   25.4600   42.7240 C   0  0  0  0  0  0  0  0  0  0  0  0
   40.4680   25.2980   42.7250 C   0  0  0  0  0  0  0  0  0  0  0  0
   41.2560   26.3570   43.0080 N   0  0  0  0  0  0  0  0  0  0  0  0
   40.7570   27.5870   43.2940 C   0  0  0  0  0  0  0  0  0  0  0  0
   39.3730   27.7850   43.3020 N   0  0  0  0  0  0  0  0  0  0  0  0
   37.5230   26.8830   43.0460 H   0  0  0  0  0  0  0  0  0  0  0  0
   40.8910   24.3220   42.4990 H   0  0  0  0  0  0  0  0  0  0  0  0
   41.4380   28.3970   43.5120 H   0  0  0  0  0  0  0  0  0  0  0  0
   37.2530   27.3120   39.0850 C   0  0  2  0  0  0  0  0  0  0  0  0
   36.4260   28.0970   40.1710 C   0  0  0  0  0  0  0  0  0  0  0  0
   36.0300   28.0360   38.7250 C   0  0  1  0  0  0  0  0  0  0  0  0
   38.2280   27.8180   38.9410 H   0  0  0  0  0  0  0  0  0  0  0  0
   35.8950   27.4080   40.8600 H   0  0  0  0  0  0  0  0  0  0  0  0
   36.8170   29.0480   40.5200 H   0  0  0  0  0  0  0  0  0  0  0  0
   35.2450   27.3600   38.3230 H   0  0  0  0  0  0  0  0  0  0  0  0
   36.1830   29.2990   37.9120 C   0  0  0  0  0  0  0  0  0  0  0  0
   35.4520   29.4840   36.9430 O   0  0  0  0  0  0  0  0  0  0  0  0
   38.5150   30.2710   37.9150 C   0  0  0  0  0  3  0  0  0  0  0  0
   37.1770   30.3120   38.2450 C   0  0  0  0  0  0  0  0  0  0  0  0
   36.8070   31.4380   38.9510 C   0  0  0  0  0  0  0  0  0  0  0  0
   35.7850   31.6080   39.2800 H   0  0  0  0  0  0  0  0  0  0  0  0
   37.6810   32.4450   39.3070 C   0  0  0  0  0  0  0  0  0  0  0  0
   39.0090   32.3560   38.9540 C   0  0  0  0  0  0  0  0  0  0  0  0
   39.4200   31.2530   38.2520 C   0  0  0  0  0  3  0  0  0  0  0  0
   39.6530   33.4960   39.4360 O   0  0  0  0  0  0  0  0  0  0  0  0
   38.8520   34.0260   40.5000 C   0  0  0  0  0  3  0  0  0  0  0  0
   38.9610   33.4100   41.4320 H   0  0  0  0  0  0  0  0  0  0  0  0
   37.5580   33.6520   40.0020 O   0  0  0  0  0  0  0  0  0  0  0  0
  1  7  1  0  0  0  0
  2  1  1  0  0  0  0
  3  2  2  0  0  0  0
  4  1  1  0  0  0  0
  5 13  1  0  0  0  0
  5  8  1  1  0  0  0
  6 10  1  0  0  0  0
  6  5  1  0  0  0  0
  7 11  1  6  0  0  0
  7  6  1  0  0  0  0
  7  5  1  0  0  0  0
  9  6  1  0  0  0  0
 12 18  1  0  0  0  0
 12 17  1  0  0  0  0
 13 14  1  0  0  0  0
 13 12  2  0  0  0  0
 14 15  2  0  0  0  0
 15 16  1  0  0  0  0
 16 17  2  0  0  0  0
 16 20  1  0  0  0  0
 19 14  1  0  0  0  0
 21 24  1  6  0  0  0
 21  2  1  0  0  0  0
 21 22  1  0  0  0  0
 22 26  1  0  0  0  0
 22 25  1  0  0  0  0
 23 27  1  6  0  0  0
 23 21  1  0  0  0  0
 23 22  1  0  0  0  0
 28 31  1  0  0  0  0
 28 23  1  0  0  0  0
 29 28  2  0  0  0  0
 30 31  2  0  0  0  0
 30 36  1  0  0  0  0
 31 32  1  0  0  0  0
 32 33  1  0  0  0  0
 32 34  2  0  0  0  0
 34 40  1  0  0  0  0
 35 34  1  0  0  0  0
 35 37  1  0  0  0  0
 36 35  2  0  0  0  0
 37 38  1  0  0  0  0
 38 39  1  0  0  0  0
 40 38  1  0  0  0  0
M  END
>  <minimizedAffinity>
-5.44485521

$$$$

 OpenBabel03242510243D

 40 44  0  0  1  0  0  0  0  0999 V2000
   37.7980   27.6940   41.1990 N   0  0  0  0  0  0  0  0  0  0  0  0
   36.9160   27.6850   40.1260 C   0  0  0  0  0  0  0  0  0  0  0  0
   36.2710   26.7420   39.5960 O   0  0  0  0  0  0  0  0  0  0  0  0
   38.6260   28.3010   41.0160 H   0  0  0  0  0  0  0  0  0  0  0  0
   38.5510   25.8840   42.6980 C   0  0  1  0  0  0  0  0  0  0  0  0
   38.7700   27.0770   43.3950 C   0  0  0  0  0  0  0  0  0  0  0  0
   37.5800   26.9560   42.3900 C   0  0  1  0  0  0  0  0  0  0  0  0
   38.1690   24.9500   43.1770 H   0  0  0  0  0  0  0  0  0  0  0  0
   39.5050   27.8720   43.1870 H   0  0  0  0  0  0  0  0  0  0  0  0
   38.4630   27.1240   44.4850 H   0  0  0  0  0  0  0  0  0  0  0  0
   36.6020   26.9960   42.9130 H   0  0  0  0  0  0  0  0  0  0  0  0
   39.1730   24.6380   40.4970 C   0  0  0  0  0  0  0  0  0  0  0  0
   39.5280   25.5240   41.5650 C   0  0  0  0  0  0  0  0  0  0  0  0
   40.8060   26.0410   41.5650 C   0  0  0  0  0  0  0  0  0  0  0  0
   41.6550   25.6960   40.5740 N   0  0  0  0  0  0  0  0  0  0  0  0
   41.3050   24.8530   39.5680 C   0  0  0  0  0  0  0  0  0  0  0  0
   40.0170   24.3110   39.5380 N   0  0  0  0  0  0  0  0  0  0  0  0
   38.1740   24.2510   40.4870 H   0  0  0  0  0  0  0  0  0  0  0  0
   41.1080   26.7170   42.3600 H   0  0  0  0  0  0  0  0  0  0  0  0
   42.0300   24.6130   38.8030 H   0  0  0  0  0  0  0  0  0  0  0  0
   36.6100   28.9900   39.4090 C   0  0  2  0  0  0  0  0  0  0  0  0
   35.3640   28.9730   38.4470 C   0  0  0  0  0  0  0  0  0  0  0  0
   36.7740   29.1230   37.9590 C   0  0  1  0  0  0  0  0  0  0  0  0
   36.5770   29.9120   40.0240 H   0  0  0  0  0  0  0  0  0  0  0  0
   34.9170   27.9600   38.3720 H   0  0  0  0  0  0  0  0  0  0  0  0
   34.7440   29.8640   38.4000 H   0  0  0  0  0  0  0  0  0  0  0  0
   37.3750   28.2930   37.5270 H   0  0  0  0  0  0  0  0  0  0  0  0
   37.1820   30.4760   37.4250 C   0  0  0  0  0  0  0  0  0  0  0  0
   36.9890   30.7390   36.2420 O   0  0  0  0  0  0  0  0  0  0  0  0
   37.1370   32.4800   38.9630 C   0  0  0  0  0  3  0  0  0  0  0  0
   37.8010   31.4840   38.2780 C   0  0  0  0  0  0  0  0  0  0  0  0
   39.1680   31.4930   38.4580 C   0  0  0  0  0  0  0  0  0  0  0  0
   39.8210   30.7680   37.9800 H   0  0  0  0  0  0  0  0  0  0  0  0
   39.8340   32.4080   39.2460 C   0  0  0  0  0  0  0  0  0  0  0  0
   39.1260   33.3850   39.9100 C   0  0  0  0  0  0  0  0  0  0  0  0
   37.7640   33.4130   39.7600 C   0  0  0  0  0  3  0  0  0  0  0  0
   40.0400   34.1610   40.6230 O   0  0  0  0  0  0  0  0  0  0  0  0
   41.3240   33.9870   40.0090 C   0  0  0  0  0  3  0  0  0  0  0  0
   41.3910   34.5580   39.0460 H   0  0  0  0  0  0  0  0  0  0  0  0
   41.1750   32.6240   39.5810 O   0  0  0  0  0  0  0  0  0  0  0  0
  1  7  1  0  0  0  0
  2  1  1  0  0  0  0
  3  2  2  0  0  0  0
  4  1  1  0  0  0  0
  5  8  1  1  0  0  0
  5  6  1  0  0  0  0
  6 10  1  0  0  0  0
  7  5  1  0  0  0  0
  7 11  1  1  0  0  0
  7  6  1  0  0  0  0
  9  6  1  0  0  0  0
 12 13  1  0  0  0  0
 13 14  2  0  0  0  0
 13  5  1  0  0  0  0
 14 19  1  0  0  0  0
 15 14  1  0  0  0  0
 16 15  2  0  0  0  0
 17 16  1  0  0  0  0
 17 12  2  0  0  0  0
 18 12  1  0  0  0  0
 20 16  1  0  0  0  0
 21 24  1  1  0  0  0
 21  2  1  0  0  0  0
 22 21  1  0  0  0  0
 23 27  1  6  0  0  0
 23 22  1  0  0  0  0
 23 21  1  0  0  0  0
 25 22  1  0  0  0  0
 26 22  1  0  0  0  0
 28 23  1  0  0  0  0
 28 31  1  0  0  0  0
 29 28  2  0  0  0  0
 30 36  1  0  0  0  0
 31 32  1  0  0  0  0
 31 30  2  0  0  0  0
 32 34  2  0  0  0  0
 33 32  1  0  0  0  0
 34 40  1  0  0  0  0
 34 35  1  0  0  0  0
 35 37  1  0  0  0  0
 36 35  2  0  0  0  0
 38 37  1  0  0  0  0
 39 38  1  0  0  0  0
 40 38  1  0  0  0  0
M  END
>  <minimizedAffinity>
-5.26494312

$$$$

 OpenBabel03242510243D

 40 44  0  0  1  0  0  0  0  0999 V2000
   40.3830   32.8770   39.7500 N   0  0  0  0  0  0  0  0  0  0  0  0
   41.5430   32.7490   40.5010 C   0  0  0  0  0  0  0  0  0  0  0  0
   42.4720   33.5680   40.7300 O   0  0  0  0  0  0  0  0  0  0  0  0
   40.1890   32.0220   39.1850 H   0  0  0  0  0  0  0  0  0  0  0  0
   38.1090   33.8340   39.8250 C   0  0  1  0  0  0  0  0  0  0  0  0
   38.6970   34.1450   41.0550 C   0  0  0  0  0  0  0  0  0  0  0  0
   39.5720   34.0410   39.7650 C   0  0  1  0  0  0  0  0  0  0  0  0
   37.4550   34.5400   39.2570 H   0  0  0  0  0  0  0  0  0  0  0  0
   38.9650   33.4660   41.8820 H   0  0  0  0  0  0  0  0  0  0  0  0
   38.5740   35.1980   41.4570 H   0  0  0  0  0  0  0  0  0  0  0  0
   39.9900   35.0270   39.4780 H   0  0  0  0  0  0  0  0  0  0  0  0
   37.3650   31.8600   38.2970 C   0  0  0  0  0  0  0  0  0  0  0  0
   37.6300   32.3890   39.6010 C   0  0  0  0  0  0  0  0  0  0  0  0
   37.4180   31.5580   40.6800 C   0  0  0  0  0  0  0  0  0  0  0  0
   36.9770   30.3000   40.4650 N   0  0  0  0  0  0  0  0  0  0  0  0
   36.7280   29.8120   39.2220 C   0  0  0  0  0  0  0  0  0  0  0  0
   36.9330   30.6290   38.1060 N   0  0  0  0  0  0  0  0  0  0  0  0
   37.5480   32.5010   37.4570 H   0  0  0  0  0  0  0  0  0  0  0  0
   37.6100   31.9270   41.6840 H   0  0  0  0  0  0  0  0  0  0  0  0
   36.3750   28.7960   39.1130 H   0  0  0  0  0  0  0  0  0  0  0  0
   41.8260   31.4330   41.2090 C   0  0  2  0  0  0  0  0  0  0  0  0
   42.1900   30.2140   40.2810 C   0  0  0  0  0  0  0  0  0  0  0  0
   40.9230   30.2860   41.0810 C   0  0  1  0  0  0  0  0  0  0  0  0
   42.5310   31.4570   42.0640 H   0  0  0  0  0  0  0  0  0  0  0  0
   42.1150   30.4800   39.2070 H   0  0  0  0  0  0  0  0  0  0  0  0
   42.9390   29.5110   40.6350 H   0  0  0  0  0  0  0  0  0  0  0  0
   39.9360   30.5740   40.6580 H   0  0  0  0  0  0  0  0  0  0  0  0
   40.8000   29.3610   42.2680 C   0  0  0  0  0  0  0  0  0  0  0  0
   41.6850   29.3520   43.1180 O   0  0  0  0  0  0  0  0  0  0  0  0
   38.5990   28.6740   43.3000 C   0  0  0  0  0  3  0  0  0  0  0  0
   39.6540   28.4740   42.4360 C   0  0  0  0  0  0  0  0  0  0  0  0
   39.5600   27.3170   41.6920 C   0  0  0  0  0  0  0  0  0  0  0  0
   40.3190   27.0280   40.9700 H   0  0  0  0  0  0  0  0  0  0  0  0
   38.5130   26.4240   41.7870 C   0  0  0  0  0  0  0  0  0  0  0  0
   37.4820   26.6680   42.6660 C   0  0  0  0  0  0  0  0  0  0  0  0
   37.5350   27.8070   43.4260 C   0  0  0  0  0  3  0  0  0  0  0  0
   36.5720   25.6160   42.5550 O   0  0  0  0  0  0  0  0  0  0  0  0
   37.2740   24.4970   41.9980 C   0  0  0  0  0  3  0  0  0  0  0  0
   37.9370   24.0150   42.7640 H   0  0  0  0  0  0  0  0  0  0  0  0
   38.1930   25.2140   41.1610 O   0  0  0  0  0  0  0  0  0  0  0  0
  1  7  1  0  0  0  0
  1  2  1  0  0  0  0
  2  3  2  0  0  0  0
  2 21  1  0  0  0  0
  4  1  1  0  0  0  0
  5  8  1  6  0  0  0
  5  6  1  0  0  0  0
  6 10  1  0  0  0  0
  6  9  1  0  0  0  0
  7 11  1  6  0  0  0
  7  5  1  0  0  0  0
  7  6  1  0  0  0  0
 12 13  1  0  0  0  0
 13  5  1  0  0  0  0
 13 14  2  0  0  0  0
 14 19  1  0  0  0  0
 15 14  1  0  0  0  0
 16 15  2  0  0  0  0
 17 12  2  0  0  0  0
 17 16  1  0  0  0  0
 18 12  1  0  0  0  0
 20 16  1  0  0  0  0
 21 24  1  1  0  0  0
 22 26  1  0  0  0  0
 22 23  1  0  0  0  0
 22 21  1  0  0  0  0
 23 27  1  6  0  0  0
 23 21  1  0  0  0  0
 23 28  1  0  0  0  0
 25 22  1  0  0  0  0
 28 31  1  0  0  0  0
 28 29  2  0  0  0  0
 30 36  1  0  0  0  0
 31 30  2  0  0  0  0
 32 34  2  0  0  0  0
 32 31  1  0  0  0  0
 33 32  1  0  0  0  0
 34 35  1  0  0  0  0
 35 36  2  0  0  0  0
 37 35  1  0  0  0  0
 38 37  1  0  0  0  0
 38 39  1  0  0  0  0
 40 34  1  0  0  0  0
 40 38  1  0  0  0  0
M  END
>  <minimizedAffinity>
-5.24678516

$$$$
