
 OpenBabel03252508513D

 30 33  0  0  0  0  0  0  0  0999 V2000
   45.7840   34.1310   41.0800 C   0  0  0  0  0  0  0  0  0  0  0  0
   46.4100   34.7610   42.1490 C   0  0  0  0  0  0  0  0  0  0  0  0
   47.7580   35.0930   41.9700 C   0  0  0  0  0  0  0  0  0  0  0  0
   48.3630   34.7830   40.7790 N   0  0  0  0  0  0  0  0  0  0  0  0
   47.7130   34.1790   39.7930 C   0  0  0  0  0  0  0  0  0  0  0  0
   46.4200   33.8450   39.9230 N   0  0  0  0  0  0  0  0  0  0  0  0
   48.2710   35.5830   42.7840 H   0  0  0  0  0  0  0  0  0  0  0  0
   48.1990   33.9410   38.8600 H   0  0  0  0  0  0  0  0  0  0  0  0
   45.6750   35.0410   43.3640 C   0  0  0  0  0  0  0  0  0  0  0  0
   45.0380   36.2360   43.6030 C   0  0  0  0  0  0  0  0  0  0  0  0
   44.4820   36.0630   44.8530 C   0  0  0  0  0  0  0  0  0  0  0  0
   44.7650   34.8340   45.3440 N   0  0  0  0  0  0  0  0  0  0  0  0
   45.4870   34.2350   44.4250 N   0  0  0  0  0  0  0  0  0  0  0  0
   44.9440   37.1370   43.0180 H   0  0  0  0  0  0  0  0  0  0  0  0
   43.8780   36.7520   45.4600 H   0  0  0  0  0  0  0  0  0  0  0  0
   44.5130   34.3690   46.2410 H   0  0  0  0  0  0  0  0  0  0  0  0
   44.4500   33.7860   41.2150 O   0  0  0  0  0  0  0  0  0  0  0  0
   43.3650   34.5020   40.7960 C   0  0  0  0  0  0  0  0  0  0  0  0
   43.3180   35.7600   40.5350 O   0  0  0  0  0  0  0  0  0  0  0  0
   40.9420   34.1000   41.4290 C   0  0  0  0  0  3  0  0  0  0  0  0
   42.0200   33.8900   40.5760 C   0  0  0  0  0  0  0  0  0  0  0  0
   41.7110   33.0630   39.5230 C   0  0  0  0  0  0  0  0  0  0  0  0
   42.4870   32.8370   38.7990 H   0  0  0  0  0  0  0  0  0  0  0  0
   40.4840   32.4950   39.3120 C   0  0  0  0  0  0  0  0  0  0  0  0
   39.4760   32.7610   40.2090 C   0  0  0  0  0  0  0  0  0  0  0  0
   39.6810   33.5730   41.2950 C   0  0  0  0  0  3  0  0  0  0  0  0
   38.3630   32.0730   39.7650 O   0  0  0  0  0  0  0  0  0  0  0  0
   38.6540   31.3310   38.5890 C   0  0  0  0  0  3  0  0  0  0  0  0
   38.0630   31.6640   37.7110 H   0  0  0  0  0  0  0  0  0  0  0  0
   40.0010   31.6520   38.3210 O   0  0  0  0  0  0  0  0  0  0  0  0
  1 17  1  0  0  0  0
  1  2  1  0  0  0  0
  2  9  1  0  0  0  0
  3  2  2  0  0  0  0
  3  7  1  0  0  0  0
  4  3  1  0  0  0  0
  5  6  1  0  0  0  0
  5  4  2  0  0  0  0
  6  1  2  0  0  0  0
  8  5  1  0  0  0  0
  9 10  1  0  0  0  0
  9 13  2  0  0  0  0
 10 11  2  0  0  0  0
 11 12  1  0  0  0  0
 11 15  1  0  0  0  0
 12 16  1  0  0  0  0
 13 12  1  0  0  0  0
 14 10  1  0  0  0  0
 18 17  1  0  0  0  0
 19 18  2  0  0  0  0
 21 18  1  0  0  0  0
 21 20  2  0  0  0  0
 22 21  1  0  0  0  0
 23 22  1  0  0  0  0
 24 22  2  0  0  0  0
 24 25  1  0  0  0  0
 25 26  2  0  0  0  0
 26 20  1  0  0  0  0
 27 25  1  0  0  0  0
 28 27  1  0  0  0  0
 29 28  1  0  0  0  0
 30 28  1  0  0  0  0
 30 24  1  0  0  0  0
M  END
>  <minimizedAffinity>
-5.77269602

>  <minimizedRMSD>
1.77585769

$$$$
