
 OpenBabel03242510233D

 40 44  0  0  1  0  0  0  0  0999 V2000
   48.0740   33.2410   43.2360 N   0  0  0  0  0  0  0  0  0  0  0  0
   49.2360   33.2810   42.4770 C   0  0  0  0  0  0  0  0  0  0  0  0
   50.3930   32.8470   42.7170 O   0  0  0  0  0  0  0  0  0  0  0  0
   47.5490   34.1400   43.1910 H   0  0  0  0  0  0  0  0  0  0  0  0
   46.2880   32.1040   44.5050 C   0  0  1  0  0  0  0  0  0  0  0  0
   46.4540   31.3650   43.3300 C   0  0  0  0  0  0  0  0  0  0  0  0
   47.6700   32.1010   43.9780 C   0  0  1  0  0  0  0  0  0  0  0  0
   46.1060   31.6410   45.5050 H   0  0  0  0  0  0  0  0  0  0  0  0
   46.2060   31.6520   42.2940 H   0  0  0  0  0  0  0  0  0  0  0  0
   46.4910   30.2350   43.4090 H   0  0  0  0  0  0  0  0  0  0  0  0
   48.4190   31.3820   44.3680 H   0  0  0  0  0  0  0  0  0  0  0  0
   45.0590   33.9730   43.1700 C   0  0  0  0  0  0  0  0  0  0  0  0
   45.5420   33.4470   44.4110 C   0  0  0  0  0  0  0  0  0  0  0  0
   45.3360   34.2020   45.5460 C   0  0  0  0  0  0  0  0  0  0  0  0
   44.6990   35.3880   45.4400 N   0  0  0  0  0  0  0  0  0  0  0  0
   44.2480   35.8750   44.2560 C   0  0  0  0  0  0  0  0  0  0  0  0
   44.4400   35.1340   43.0860 N   0  0  0  0  0  0  0  0  0  0  0  0
   45.2030   33.3770   42.2910 H   0  0  0  0  0  0  0  0  0  0  0  0
   45.6880   33.8320   46.5050 H   0  0  0  0  0  0  0  0  0  0  0  0
   43.7450   36.8320   44.2340 H   0  0  0  0  0  0  0  0  0  0  0  0
   49.2020   33.9360   41.1050 C   0  0  2  0  0  0  0  0  0  0  0  0
   48.7450   35.4420   41.0710 C   0  0  0  0  0  0  0  0  0  0  0  0
   47.9370   34.3270   40.4760 C   0  0  1  0  0  0  0  0  0  0  0  0
   50.0970   33.8170   40.4630 H   0  0  0  0  0  0  0  0  0  0  0  0
   48.4340   35.8000   42.0740 H   0  0  0  0  0  0  0  0  0  0  0  0
   49.2340   36.1070   40.3650 H   0  0  0  0  0  0  0  0  0  0  0  0
   47.0590   33.8610   40.9730 H   0  0  0  0  0  0  0  0  0  0  0  0
   47.8590   34.2570   38.9690 C   0  0  0  0  0  0  0  0  0  0  0  0
   48.7050   34.8360   38.2950 O   0  0  0  0  0  0  0  0  0  0  0  0
   46.7870   33.1830   36.9510 C   0  0  0  0  0  3  0  0  0  0  0  0
   46.8030   33.5160   38.2880 C   0  0  0  0  0  0  0  0  0  0  0  0
   45.6980   33.0830   38.9890 C   0  0  0  0  0  0  0  0  0  0  0  0
   45.5720   33.2730   40.0520 H   0  0  0  0  0  0  0  0  0  0  0  0
   44.6560   32.3770   38.4250 C   0  0  0  0  0  0  0  0  0  0  0  0
   44.6860   32.0680   37.0840 C   0  0  0  0  0  0  0  0  0  0  0  0
   45.7660   32.4790   36.3470 C   0  0  0  0  0  3  0  0  0  0  0  0
   43.5210   31.3600   36.7860 O   0  0  0  0  0  0  0  0  0  0  0  0
   42.5570   31.6680   37.8020 C   0  0  0  0  0  3  0  0  0  0  0  0
   42.1290   32.6950   37.6510 H   0  0  0  0  0  0  0  0  0  0  0  0
   43.4570   31.8400   38.9070 O   0  0  0  0  0  0  0  0  0  0  0  0
  1  7  1  0  0  0  0
  2  3  2  0  0  0  0
  2  1  1  0  0  0  0
  4  1  1  0  0  0  0
  5  8  1  1  0  0  0
  6 10  1  0  0  0  0
  6  7  1  0  0  0  0
  6  5  1  0  0  0  0
  7 11  1  1  0  0  0
  7  5  1  0  0  0  0
  9  6  1  0  0  0  0
 12 13  1  0  0  0  0
 13  5  1  0  0  0  0
 13 14  2  0  0  0  0
 14 19  1  0  0  0  0
 15 14  1  0  0  0  0
 16 15  2  0  0  0  0
 17 12  2  0  0  0  0
 17 16  1  0  0  0  0
 18 12  1  0  0  0  0
 20 16  1  0  0  0  0
 21 24  1  6  0  0  0
 21  2  1  0  0  0  0
 22 21  1  0  0  0  0
 22 25  1  0  0  0  0
 23 27  1  1  0  0  0
 23 22  1  0  0  0  0
 23 21  1  0  0  0  0
 26 22  1  0  0  0  0
 28 23  1  0  0  0  0
 29 28  2  0  0  0  0
 30 31  1  0  0  0  0
 31 28  1  0  0  0  0
 31 32  2  0  0  0  0
 32 33  1  0  0  0  0
 34 40  1  0  0  0  0
 34 32  1  0  0  0  0
 35 34  2  0  0  0  0
 36 30  2  0  0  0  0
 36 35  1  0  0  0  0
 37 35  1  0  0  0  0
 37 38  1  0  0  0  0
 38 40  1  0  0  0  0
 39 38  1  0  0  0  0
M  END
>  <minimizedAffinity>
-5.19900227

>  <minimizedRMSD>
0.992682934

$$$$
