
 OpenBabel03252508513D

 30 33  0  0  0  0  0  0  0  0999 V2000
   45.9360   34.2190   41.0360 C   0  0  0  0  0  0  0  0  0  0  0  0
   46.5280   34.8080   42.1470 C   0  0  0  0  0  0  0  0  0  0  0  0
   47.8830   35.1330   42.0270 C   0  0  0  0  0  0  0  0  0  0  0  0
   48.5290   34.8580   40.8500 N   0  0  0  0  0  0  0  0  0  0  0  0
   47.9110   34.2920   39.8210 C   0  0  0  0  0  0  0  0  0  0  0  0
   46.6120   33.9650   39.8940 N   0  0  0  0  0  0  0  0  0  0  0  0
   48.3700   35.5920   42.8760 H   0  0  0  0  0  0  0  0  0  0  0  0
   48.4290   34.0800   38.8990 H   0  0  0  0  0  0  0  0  0  0  0  0
   45.7510   35.0540   43.3430 C   0  0  0  0  0  0  0  0  0  0  0  0
   45.0970   36.2390   43.5880 C   0  0  0  0  0  0  0  0  0  0  0  0
   44.5020   36.0330   44.8150 C   0  0  0  0  0  0  0  0  0  0  0  0
   44.7770   34.7950   45.2870 N   0  0  0  0  0  0  0  0  0  0  0  0
   45.5340   34.2220   44.3790 N   0  0  0  0  0  0  0  0  0  0  0  0
   45.0160   37.1530   43.0220 H   0  0  0  0  0  0  0  0  0  0  0  0
   43.8730   36.7030   45.4180 H   0  0  0  0  0  0  0  0  0  0  0  0
   44.4990   34.3070   46.1630 H   0  0  0  0  0  0  0  0  0  0  0  0
   44.5950   33.8810   41.1110 O   0  0  0  0  0  0  0  0  0  0  0  0
   43.5360   34.5910   40.6200 C   0  0  0  0  0  0  0  0  0  0  0  0
   43.3090   35.8470   40.7680 O   0  0  0  0  0  0  0  0  0  0  0  0
   42.6020   32.7790   39.1120 C   0  0  0  0  0  3  0  0  0  0  0  0
   42.4450   33.9700   39.8110 C   0  0  0  0  0  0  0  0  0  0  0  0
   41.1860   34.5050   39.6730 C   0  0  0  0  0  0  0  0  0  0  0  0
   40.9620   35.4370   40.1830 H   0  0  0  0  0  0  0  0  0  0  0  0
   40.1790   33.9480   38.9350 C   0  0  0  0  0  0  0  0  0  0  0  0
   40.4270   32.7660   38.2760 C   0  0  0  0  0  0  0  0  0  0  0  0
   41.6490   32.1490   38.3470 C   0  0  0  0  0  3  0  0  0  0  0  0
   39.2580   32.4310   37.6180 O   0  0  0  0  0  0  0  0  0  0  0  0
   38.2530   33.4130   37.8240 C   0  0  0  0  0  3  0  0  0  0  0  0
   37.3640   33.0170   38.3560 H   0  0  0  0  0  0  0  0  0  0  0  0
   38.8710   34.3410   38.6880 O   0  0  0  0  0  0  0  0  0  0  0  0
  1 17  1  0  0  0  0
  1  2  1  0  0  0  0
  2  9  1  0  0  0  0
  3  2  2  0  0  0  0
  3  7  1  0  0  0  0
  4  3  1  0  0  0  0
  5  6  1  0  0  0  0
  5  4  2  0  0  0  0
  6  1  2  0  0  0  0
  8  5  1  0  0  0  0
  9 10  1  0  0  0  0
  9 13  2  0  0  0  0
 10 11  2  0  0  0  0
 11 12  1  0  0  0  0
 11 15  1  0  0  0  0
 12 16  1  0  0  0  0
 13 12  1  0  0  0  0
 14 10  1  0  0  0  0
 18 19  2  0  0  0  0
 18 17  1  0  0  0  0
 20 21  1  0  0  0  0
 21 18  1  0  0  0  0
 22 21  2  0  0  0  0
 22 23  1  0  0  0  0
 24 22  1  0  0  0  0
 25 26  1  0  0  0  0
 25 24  2  0  0  0  0
 26 20  2  0  0  0  0
 27 28  1  0  0  0  0
 27 25  1  0  0  0  0
 28 29  1  0  0  0  0
 28 30  1  0  0  0  0
 30 24  1  0  0  0  0
M  END
>  <minimizedAffinity>
-5.95032644

>  <minimizedRMSD>
1.15431678

$$$$
