
 OpenBabel03242510203D

 38 42  0  0  1  0  0  0  0  0999 V2000
   37.0650   29.9700   40.0110 N   0  0  0  0  0  0  0  0  0  0  0  0
   36.4090   29.1030   40.8670 C   0  0  0  0  0  0  0  0  0  0  0  0
   35.1760   28.9110   41.0530 O   0  0  0  0  0  0  0  0  0  0  0  0
   37.8880   30.5000   40.4170 H   0  0  0  0  0  0  0  0  0  0  0  0
   37.3210   31.3310   37.9570 C   0  0  1  0  0  0  0  0  0  0  0  0
   37.8520   30.0560   37.6480 C   0  0  0  0  0  0  0  0  0  0  0  0
   36.6860   30.1690   38.6460 C   0  0  1  0  0  0  0  0  0  0  0  0
   36.6460   31.8810   37.2440 H   0  0  0  0  0  0  0  0  0  0  0  0
   38.7880   29.6640   38.0720 H   0  0  0  0  0  0  0  0  0  0  0  0
   37.6210   29.5270   36.6740 H   0  0  0  0  0  0  0  0  0  0  0  0
   35.8400   29.5860   38.2760 H   0  0  0  0  0  0  0  0  0  0  0  0
   37.5980   33.3350   39.5650 C   0  0  0  0  0  0  0  0  0  0  0  0
   38.1610   32.2690   38.8250 C   0  0  0  0  0  0  0  0  0  0  0  0
   39.5210   32.0990   38.8870 C   0  0  0  0  0  0  0  0  0  0  0  0
   40.2580   32.9450   39.6450 N   0  0  0  0  0  0  0  0  0  0  0  0
   39.7130   33.9610   40.3490 C   0  0  0  0  0  0  0  0  0  0  0  0
   38.3290   34.1610   40.3040 N   0  0  0  0  0  0  0  0  0  0  0  0
   36.5350   33.4980   39.5430 H   0  0  0  0  0  0  0  0  0  0  0  0
   40.0360   31.3160   38.3580 H   0  0  0  0  0  0  0  0  0  0  0  0
   40.2480   34.6500   40.9540 H   0  0  0  0  0  0  0  0  0  0  0  0
   37.2150   28.1810   41.7700 C   0  0  2  0  0  0  0  0  0  0  0  0
   36.9670   28.3280   43.3070 C   0  0  0  0  0  0  0  0  0  0  0  0
   38.2780   28.6810   42.6260 C   0  0  1  0  0  0  0  0  0  0  0  0
   37.1660   27.0930   41.5160 H   0  0  0  0  0  0  0  0  0  0  0  0
   36.9180   27.4010   43.9060 H   0  0  0  0  0  0  0  0  0  0  0  0
   36.2410   29.0870   43.5880 H   0  0  0  0  0  0  0  0  0  0  0  0
   38.5210   29.7060   42.8440 H   0  0  0  0  0  0  0  0  0  0  0  0
   39.2160   26.4490   43.1820 C   0  0  0  0  0  3  0  0  0  0  0  0
   39.4550   27.7820   42.9070 C   0  0  0  0  0  0  0  0  0  0  0  0
   40.7790   28.1670   42.9160 C   0  0  0  0  0  0  0  0  0  0  0  0
   40.9780   29.2050   42.7020 H   0  0  0  0  0  0  0  0  0  0  0  0
   41.7810   27.2580   43.1850 C   0  0  0  0  0  0  0  0  0  0  0  0
   41.5070   25.9340   43.4550 C   0  0  0  0  0  0  0  0  0  0  0  0
   40.2010   25.4940   43.4590 C   0  0  0  0  0  3  0  0  0  0  0  0
   42.7210   25.2990   43.6800 O   0  0  0  0  0  0  0  0  0  0  0  0
   43.8010   26.1440   43.3310 C   0  0  0  0  0  3  0  0  0  0  0  0
   44.6060   26.1310   44.0870 H   0  0  0  0  0  0  0  0  0  0  0  0
   43.1600   27.4040   43.2500 O   0  0  0  0  0  0  0  0  0  0  0  0
  1  4  1  0  0  0  0
  1  2  1  0  0  0  0
  2  3  2  0  0  0  0
  2 21  1  0  0  0  0
  5  8  1  6  0  0  0
  5  7  1  0  0  0  0
  5 13  1  0  0  0  0
  6  5  1  0  0  0  0
  6  9  1  0  0  0  0
  6  7  1  0  0  0  0
  7 11  1  6  0  0  0
  7  1  1  0  0  0  0
 10  6  1  0  0  0  0
 12 17  1  0  0  0  0
 13 14  1  0  0  0  0
 13 12  2  0  0  0  0
 14 15  2  0  0  0  0
 15 16  1  0  0  0  0
 16 20  1  0  0  0  0
 17 16  2  0  0  0  0
 18 12  1  0  0  0  0
 19 14  1  0  0  0  0
 21 24  1  6  0  0  0
 21 23  1  0  0  0  0
 21 22  1  0  0  0  0
 22 26  1  0  0  0  0
 22 25  1  0  0  0  0
 23 27  1  6  0  0  0
 23 29  1  0  0  0  0
 23 22  1  0  0  0  0
 28 34  1  0  0  0  0
 29 30  1  0  0  0  0
 29 28  2  0  0  0  0
 30 32  2  0  0  0  0
 31 30  1  0  0  0  0
 32 38  1  0  0  0  0
 32 33  1  0  0  0  0
 33 34  2  0  0  0  0
 33 35  1  0  0  0  0
 36 35  1  0  0  0  0
 36 37  1  0  0  0  0
 38 36  1  0  0  0  0
M  END
>  <minimizedAffinity>
-5.69929457

$$$$

 OpenBabel03242510203D

 38 42  0  0  1  0  0  0  0  0999 V2000
   36.2940   28.3020   42.3360 N   0  0  0  0  0  0  0  0  0  0  0  0
   36.1100   29.1690   41.2730 C   0  0  0  0  0  0  0  0  0  0  0  0
   36.2400   30.4220   41.2050 O   0  0  0  0  0  0  0  0  0  0  0  0
   35.5540   27.5550   42.4680 H   0  0  0  0  0  0  0  0  0  0  0  0
   38.4270   27.2950   43.0950 C   0  0  1  0  0  0  0  0  0  0  0  0
   38.7660   28.5490   42.5330 C   0  0  0  0  0  0  0  0  0  0  0  0
   37.4060   28.3760   43.2320 C   0  0  1  0  0  0  0  0  0  0  0  0
   38.8710   26.9410   44.0660 H   0  0  0  0  0  0  0  0  0  0  0  0
   38.7070   28.7740   41.4580 H   0  0  0  0  0  0  0  0  0  0  0  0
   39.4940   29.2560   43.0340 H   0  0  0  0  0  0  0  0  0  0  0  0
   37.3340   29.0900   44.0560 H   0  0  0  0  0  0  0  0  0  0  0  0
   38.7870   25.9260   40.9330 C   0  0  0  0  0  0  0  0  0  0  0  0
   38.0870   26.1480   42.1420 C   0  0  0  0  0  0  0  0  0  0  0  0
   37.0520   25.3000   42.4450 C   0  0  0  0  0  0  0  0  0  0  0  0
   36.7480   24.2980   41.5860 N   0  0  0  0  0  0  0  0  0  0  0  0
   37.4200   24.0920   40.4330 C   0  0  0  0  0  0  0  0  0  0  0  0
   38.4790   24.9410   40.0960 N   0  0  0  0  0  0  0  0  0  0  0  0
   39.6050   26.5690   40.6630 H   0  0  0  0  0  0  0  0  0  0  0  0
   36.4650   25.3920   43.3420 H   0  0  0  0  0  0  0  0  0  0  0  0
   37.2190   23.3240   39.7290 H   0  0  0  0  0  0  0  0  0  0  0  0
   35.6920   28.6200   39.9170 C   0  0  2  0  0  0  0  0  0  0  0  0
   36.8520   28.2320   38.9420 C   0  0  0  0  0  0  0  0  0  0  0  0
   35.8850   29.3770   38.6900 C   0  0  1  0  0  0  0  0  0  0  0  0
   34.9660   27.7710   39.9430 H   0  0  0  0  0  0  0  0  0  0  0  0
   36.7330   27.3040   38.3540 H   0  0  0  0  0  0  0  0  0  0  0  0
   37.8550   28.3990   39.3250 H   0  0  0  0  0  0  0  0  0  0  0  0
   36.4450   30.2840   38.5570 H   0  0  0  0  0  0  0  0  0  0  0  0
   35.3510   29.2070   36.2700 C   0  0  0  0  0  3  0  0  0  0  0  0
   34.8890   29.1940   37.5730 C   0  0  0  0  0  0  0  0  0  0  0  0
   33.5320   29.0120   37.7250 C   0  0  0  0  0  0  0  0  0  0  0  0
   33.1610   29.0000   38.7380 H   0  0  0  0  0  0  0  0  0  0  0  0
   32.7090   28.8530   36.6300 C   0  0  0  0  0  0  0  0  0  0  0  0
   33.2030   28.8700   35.3430 C   0  0  0  0  0  0  0  0  0  0  0  0
   34.5530   29.0500   35.1310 C   0  0  0  0  0  3  0  0  0  0  0  0
   32.1270   28.6860   34.4850 O   0  0  0  0  0  0  0  0  0  0  0  0
   30.9670   28.3170   35.2080 C   0  0  0  0  0  3  0  0  0  0  0  0
   30.0700   28.8650   34.8700 H   0  0  0  0  0  0  0  0  0  0  0  0
   31.3380   28.6580   36.5310 O   0  0  0  0  0  0  0  0  0  0  0  0
  1  4  1  0  0  0  0
  1  7  1  0  0  0  0
  2  1  1  0  0  0  0
  3  2  2  0  0  0  0
  5  7  1  0  0  0  0
  5  8  1  1  0  0  0
  6 10  1  0  0  0  0
  6  5  1  0  0  0  0
  6  7  1  0  0  0  0
  7 11  1  1  0  0  0
  9  6  1  0  0  0  0
 12 13  1  0  0  0  0
 13 14  2  0  0  0  0
 13  5  1  0  0  0  0
 14 19  1  0  0  0  0
 15 14  1  0  0  0  0
 16 15  2  0  0  0  0
 17 16  1  0  0  0  0
 17 12  2  0  0  0  0
 18 12  1  0  0  0  0
 20 16  1  0  0  0  0
 21 24  1  1  0  0  0
 21  2  1  0  0  0  0
 22 26  1  0  0  0  0
 22 21  1  0  0  0  0
 23 27  1  1  0  0  0
 23 22  1  0  0  0  0
 23 21  1  0  0  0  0
 25 22  1  0  0  0  0
 28 29  1  0  0  0  0
 29 30  2  0  0  0  0
 29 23  1  0  0  0  0
 30 31  1  0  0  0  0
 32 30  1  0  0  0  0
 33 32  2  0  0  0  0
 34 33  1  0  0  0  0
 34 28  2  0  0  0  0
 35 36  1  0  0  0  0
 35 33  1  0  0  0  0
 36 38  1  0  0  0  0
 37 36  1  0  0  0  0
 38 32  1  0  0  0  0
M  END
>  <minimizedAffinity>
-5.41076279

$$$$

 OpenBabel03242510203D

 38 42  0  0  1  0  0  0  0  0999 V2000
   36.7310   28.1890   41.2650 N   0  0  0  0  0  0  0  0  0  0  0  0
   36.0400   29.0860   40.4690 C   0  0  0  0  0  0  0  0  0  0  0  0
   34.8010   29.2750   40.3330 O   0  0  0  0  0  0  0  0  0  0  0  0
   37.5440   27.6840   40.8090 H   0  0  0  0  0  0  0  0  0  0  0  0
   36.9440   26.6600   43.2040 C   0  0  1  0  0  0  0  0  0  0  0  0
   37.6170   27.8510   43.5700 C   0  0  0  0  0  0  0  0  0  0  0  0
   36.4000   27.9270   42.6310 C   0  0  1  0  0  0  0  0  0  0  0  0
   36.2510   26.1290   43.9130 H   0  0  0  0  0  0  0  0  0  0  0  0
   38.5670   28.1780   43.1220 H   0  0  0  0  0  0  0  0  0  0  0  0
   37.4880   28.3260   44.5890 H   0  0  0  0  0  0  0  0  0  0  0  0
   35.6360   28.5620   43.0870 H   0  0  0  0  0  0  0  0  0  0  0  0
   36.9540   24.6840   41.5390 C   0  0  0  0  0  0  0  0  0  0  0  0
   37.6400   25.7110   42.2280 C   0  0  0  0  0  0  0  0  0  0  0  0
   38.9900   25.8310   42.0120 C   0  0  0  0  0  0  0  0  0  0  0  0
   39.6010   24.9740   41.1600 N   0  0  0  0  0  0  0  0  0  0  0  0
   38.9390   23.9950   40.5060 C   0  0  0  0  0  0  0  0  0  0  0  0
   37.5620   23.8470   40.7060 N   0  0  0  0  0  0  0  0  0  0  0  0
   35.8950   24.5600   41.6810 H   0  0  0  0  0  0  0  0  0  0  0  0
   39.5930   26.5820   42.4920 H   0  0  0  0  0  0  0  0  0  0  0  0
   39.3720   23.3010   39.8310 H   0  0  0  0  0  0  0  0  0  0  0  0
   36.8100   30.0540   39.5820 C   0  0  2  0  0  0  0  0  0  0  0  0
   37.0690   29.5850   38.1120 C   0  0  0  0  0  0  0  0  0  0  0  0
   38.1690   29.7780   39.1430 C   0  0  1  0  0  0  0  0  0  0  0  0
   36.4100   31.0970   39.5450 H   0  0  0  0  0  0  0  0  0  0  0  0
   36.9610   30.3380   37.3120 H   0  0  0  0  0  0  0  0  0  0  0  0
   36.6780   28.6020   37.8640 H   0  0  0  0  0  0  0  0  0  0  0  0
   38.7190   28.8610   39.2430 H   0  0  0  0  0  0  0  0  0  0  0  0
   39.0530   31.9970   39.8250 C   0  0  0  0  0  3  0  0  0  0  0  0
   39.1030   30.9430   38.9330 C   0  0  0  0  0  0  0  0  0  0  0  0
   40.0240   31.0620   37.9150 C   0  0  0  0  0  0  0  0  0  0  0  0
   40.0720   30.2450   37.2130 H   0  0  0  0  0  0  0  0  0  0  0  0
   40.8330   32.1740   37.8170 C   0  0  0  0  0  0  0  0  0  0  0  0
   40.7590   33.2090   38.7250 C   0  0  0  0  0  0  0  0  0  0  0  0
   39.8550   33.1430   39.7630 C   0  0  0  0  0  3  0  0  0  0  0  0
   41.6960   34.1610   38.3450 O   0  0  0  0  0  0  0  0  0  0  0  0
   42.5430   33.6530   37.3310 C   0  0  0  0  0  3  0  0  0  0  0  0
   42.7060   34.3810   36.5170 H   0  0  0  0  0  0  0  0  0  0  0  0
   41.8180   32.5170   36.8980 O   0  0  0  0  0  0  0  0  0  0  0  0
  1  7  1  0  0  0  0
  2  1  1  0  0  0  0
  3  2  2  0  0  0  0
  4  1  1  0  0  0  0
  5  6  1  0  0  0  0
  5  8  1  1  0  0  0
  6 10  1  0  0  0  0
  7 11  1  1  0  0  0
  7  5  1  0  0  0  0
  7  6  1  0  0  0  0
  9  6  1  0  0  0  0
 12 18  1  0  0  0  0
 12 13  1  0  0  0  0
 13  5  1  0  0  0  0
 14 13  2  0  0  0  0
 14 19  1  0  0  0  0
 15 14  1  0  0  0  0
 16 17  1  0  0  0  0
 16 15  2  0  0  0  0
 17 12  2  0  0  0  0
 20 16  1  0  0  0  0
 21 24  1  1  0  0  0
 21  2  1  0  0  0  0
 22 23  1  0  0  0  0
 22 21  1  0  0  0  0
 23 27  1  1  0  0  0
 23 21  1  0  0  0  0
 25 22  1  0  0  0  0
 26 22  1  0  0  0  0
 29 23  1  0  0  0  0
 29 28  2  0  0  0  0
 30 29  1  0  0  0  0
 31 30  1  0  0  0  0
 32 30  2  0  0  0  0
 32 33  1  0  0  0  0
 33 34  2  0  0  0  0
 34 28  1  0  0  0  0
 35 33  1  0  0  0  0
 36 35  1  0  0  0  0
 37 36  1  0  0  0  0
 38 36  1  0  0  0  0
 38 32  1  0  0  0  0
M  END
>  <minimizedAffinity>
-5.39471912

$$$$

 OpenBabel03242510203D

 38 42  0  0  1  0  0  0  0  0999 V2000
   36.4720   28.9310   42.0930 N   0  0  0  0  0  0  0  0  0  0  0  0
   36.1930   29.8540   41.1000 C   0  0  0  0  0  0  0  0  0  0  0  0
   36.1560   31.1140   41.1380 O   0  0  0  0  0  0  0  0  0  0  0  0
   35.8350   28.0850   42.1420 H   0  0  0  0  0  0  0  0  0  0  0  0
   38.5560   27.9710   43.0280 C   0  0  1  0  0  0  0  0  0  0  0  0
   38.9380   29.1630   42.3670 C   0  0  0  0  0  0  0  0  0  0  0  0
   37.5490   29.0730   43.0230 C   0  0  1  0  0  0  0  0  0  0  0  0
   38.9550   27.7040   44.0450 H   0  0  0  0  0  0  0  0  0  0  0  0
   38.9260   29.2870   41.2740 H   0  0  0  0  0  0  0  0  0  0  0  0
   39.6580   29.9030   42.8290 H   0  0  0  0  0  0  0  0  0  0  0  0
   37.4570   29.8620   43.7730 H   0  0  0  0  0  0  0  0  0  0  0  0
   37.2230   25.8170   42.5160 C   0  0  0  0  0  0  0  0  0  0  0  0
   38.2340   26.7440   42.1720 C   0  0  0  0  0  0  0  0  0  0  0  0
   38.9570   26.5060   41.0310 C   0  0  0  0  0  0  0  0  0  0  0  0
   38.6760   25.4080   40.2900 N   0  0  0  0  0  0  0  0  0  0  0  0
   37.7100   24.5260   40.6240 C   0  0  0  0  0  0  0  0  0  0  0  0
   36.9570   24.7410   41.7830 N   0  0  0  0  0  0  0  0  0  0  0  0
   36.6350   25.9720   43.4030 H   0  0  0  0  0  0  0  0  0  0  0  0
   39.7440   27.1570   40.6920 H   0  0  0  0  0  0  0  0  0  0  0  0
   37.4550   23.6530   40.0780 H   0  0  0  0  0  0  0  0  0  0  0  0
   35.8740   29.3720   39.6920 C   0  0  2  0  0  0  0  0  0  0  0  0
   35.9010   27.8240   39.4690 C   0  0  0  0  0  0  0  0  0  0  0  0
   36.8910   28.7860   38.8330 C   0  0  1  0  0  0  0  0  0  0  0  0
   34.9260   29.7670   39.2500 H   0  0  0  0  0  0  0  0  0  0  0  0
   35.1100   27.3870   38.8350 H   0  0  0  0  0  0  0  0  0  0  0  0
   36.1540   27.2340   40.3460 H   0  0  0  0  0  0  0  0  0  0  0  0
   37.8880   28.4890   39.1010 H   0  0  0  0  0  0  0  0  0  0  0  0
   36.6050   27.8870   36.5350 C   0  0  0  0  0  3  0  0  0  0  0  0
   36.7770   28.9940   37.3440 C   0  0  0  0  0  0  0  0  0  0  0  0
   36.8280   30.2090   36.6940 C   0  0  0  0  0  0  0  0  0  0  0  0
   36.9600   31.0800   37.3160 H   0  0  0  0  0  0  0  0  0  0  0  0
   36.7110   30.2850   35.3230 C   0  0  0  0  0  0  0  0  0  0  0  0
   36.5400   29.1600   34.5440 C   0  0  0  0  0  0  0  0  0  0  0  0
   36.4820   27.9190   35.1410 C   0  0  0  0  0  3  0  0  0  0  0  0
   36.4590   29.5800   33.2230 O   0  0  0  0  0  0  0  0  0  0  0  0
   36.3430   30.9890   33.1510 C   0  0  0  0  0  3  0  0  0  0  0  0
   36.9970   31.4250   32.3750 H   0  0  0  0  0  0  0  0  0  0  0  0
   36.7310   31.3720   34.4580 O   0  0  0  0  0  0  0  0  0  0  0  0
  1  4  1  0  0  0  0
  1  7  1  0  0  0  0
  2  3  2  0  0  0  0
  2  1  1  0  0  0  0
  5  8  1  1  0  0  0
  6 10  1  0  0  0  0
  6  7  1  0  0  0  0
  6  5  1  0  0  0  0
  7  5  1  0  0  0  0
  7 11  1  1  0  0  0
  9  6  1  0  0  0  0
 12 18  1  0  0  0  0
 13 12  1  0  0  0  0
 13  5  1  0  0  0  0
 14 13  2  0  0  0  0
 15 16  2  0  0  0  0
 15 14  1  0  0  0  0
 16 17  1  0  0  0  0
 17 12  2  0  0  0  0
 19 14  1  0  0  0  0
 20 16  1  0  0  0  0
 21 24  1  6  0  0  0
 21  2  1  0  0  0  0
 22 21  1  0  0  0  0
 22 26  1  0  0  0  0
 23 27  1  1  0  0  0
 23 22  1  0  0  0  0
 23 21  1  0  0  0  0
 25 22  1  0  0  0  0
 28 29  1  0  0  0  0
 29 23  1  0  0  0  0
 30 31  1  0  0  0  0
 30 29  2  0  0  0  0
 32 30  1  0  0  0  0
 33 34  1  0  0  0  0
 33 32  2  0  0  0  0
 34 28  2  0  0  0  0
 35 33  1  0  0  0  0
 36 35  1  0  0  0  0
 36 38  1  0  0  0  0
 37 36  1  0  0  0  0
 38 32  1  0  0  0  0
M  END
>  <minimizedAffinity>
-5.34874296

$$$$

 OpenBabel03242510203D

 38 42  0  0  1  0  0  0  0  0999 V2000
   37.0900   26.2980   41.7160 N   0  0  0  0  0  0  0  0  0  0  0  0
   36.6330   27.3450   42.4970 C   0  0  0  0  0  0  0  0  0  0  0  0
   36.1940   27.3550   43.6800 O   0  0  0  0  0  0  0  0  0  0  0  0
   36.7540   26.2780   40.7110 H   0  0  0  0  0  0  0  0  0  0  0  0
   38.1260   24.0830   41.3190 C   0  0  1  0  0  0  0  0  0  0  0  0
   39.1880   25.0190   41.2950 C   0  0  0  0  0  0  0  0  0  0  0  0
   37.9690   25.2780   42.1990 C   0  0  1  0  0  0  0  0  0  0  0  0
   38.2120   23.1040   41.8680 H   0  0  0  0  0  0  0  0  0  0  0  0
   39.3330   25.7580   40.4930 H   0  0  0  0  0  0  0  0  0  0  0  0
   40.1690   24.8310   41.8270 H   0  0  0  0  0  0  0  0  0  0  0  0
   38.3050   25.3620   43.2350 H   0  0  0  0  0  0  0  0  0  0  0  0
   35.8700   23.5540   40.1770 C   0  0  0  0  0  0  0  0  0  0  0  0
   37.2080   24.0040   40.0990 C   0  0  0  0  0  0  0  0  0  0  0  0
   37.6890   24.3620   38.8650 C   0  0  0  0  0  0  0  0  0  0  0  0
   36.8740   24.2720   37.7870 N   0  0  0  0  0  0  0  0  0  0  0  0
   35.5970   23.8400   37.8700 C   0  0  0  0  0  0  0  0  0  0  0  0
   35.0780   23.4680   39.1140 N   0  0  0  0  0  0  0  0  0  0  0  0
   35.4570   23.2670   41.1280 H   0  0  0  0  0  0  0  0  0  0  0  0
   38.6940   24.7150   38.7100 H   0  0  0  0  0  0  0  0  0  0  0  0
   34.9210   23.7520   37.0560 H   0  0  0  0  0  0  0  0  0  0  0  0
   36.6250   28.7590   41.9330 C   0  0  2  0  0  0  0  0  0  0  0  0
   35.6500   29.0190   40.7370 C   0  0  0  0  0  0  0  0  0  0  0  0
   37.1640   29.0630   40.6180 C   0  0  1  0  0  0  0  0  0  0  0  0
   36.4770   29.5760   42.6810 H   0  0  0  0  0  0  0  0  0  0  0  0
   35.0940   29.9730   40.7330 H   0  0  0  0  0  0  0  0  0  0  0  0
   35.0720   28.1570   40.4150 H   0  0  0  0  0  0  0  0  0  0  0  0
   37.4750   28.3700   39.8570 H   0  0  0  0  0  0  0  0  0  0  0  0
   36.9950   31.4430   39.9240 C   0  0  0  0  0  3  0  0  0  0  0  0
   37.7910   30.4160   40.3970 C   0  0  0  0  0  0  0  0  0  0  0  0
   39.1120   30.7400   40.6240 C   0  0  0  0  0  0  0  0  0  0  0  0
   39.7420   29.9470   40.9940 H   0  0  0  0  0  0  0  0  0  0  0  0
   39.5810   32.0140   40.3890 C   0  0  0  0  0  0  0  0  0  0  0  0
   38.7590   33.0160   39.9170 C   0  0  0  0  0  0  0  0  0  0  0  0
   37.4290   32.7480   39.6710 C   0  0  0  0  0  3  0  0  0  0  0  0
   39.5330   34.1610   39.7900 O   0  0  0  0  0  0  0  0  0  0  0  0
   40.8010   33.9780   40.3930 C   0  0  0  0  0  3  0  0  0  0  0  0
   41.6240   34.3600   39.7630 H   0  0  0  0  0  0  0  0  0  0  0  0
   40.8450   32.5710   40.5400 O   0  0  0  0  0  0  0  0  0  0  0  0
  1  7  1  0  0  0  0
  1  2  1  0  0  0  0
  2  3  2  0  0  0  0
  4  1  1  0  0  0  0
  5  8  1  1  0  0  0
  5  7  1  0  0  0  0
  6  5  1  0  0  0  0
  6 10  1  0  0  0  0
  6  7  1  0  0  0  0
  7 11  1  1  0  0  0
  9  6  1  0  0  0  0
 12 18  1  0  0  0  0
 13 12  1  0  0  0  0
 13  5  1  0  0  0  0
 14 13  2  0  0  0  0
 15 16  2  0  0  0  0
 15 14  1  0  0  0  0
 16 17  1  0  0  0  0
 17 12  2  0  0  0  0
 19 14  1  0  0  0  0
 20 16  1  0  0  0  0
 21  2  1  0  0  0  0
 21 24  1  1  0  0  0
 22 21  1  0  0  0  0
 23 27  1  6  0  0  0
 23 22  1  0  0  0  0
 23 21  1  0  0  0  0
 25 22  1  0  0  0  0
 26 22  1  0  0  0  0
 28 29  1  0  0  0  0
 29 23  1  0  0  0  0
 29 30  2  0  0  0  0
 30 31  1  0  0  0  0
 32 38  1  0  0  0  0
 32 30  1  0  0  0  0
 33 32  2  0  0  0  0
 34 33  1  0  0  0  0
 34 28  2  0  0  0  0
 35 33  1  0  0  0  0
 35 36  1  0  0  0  0
 36 38  1  0  0  0  0
 37 36  1  0  0  0  0
M  END
>  <minimizedAffinity>
-5.33469868

$$$$

 OpenBabel03242510203D

 38 42  0  0  1  0  0  0  0  0999 V2000
   37.8040   27.9650   42.8270 N   0  0  0  0  0  0  0  0  0  0  0  0
   38.0670   29.2530   42.3930 C   0  0  0  0  0  0  0  0  0  0  0  0
   38.7890   30.1560   42.8980 O   0  0  0  0  0  0  0  0  0  0  0  0
   36.7930   27.6480   42.7770 H   0  0  0  0  0  0  0  0  0  0  0  0
   39.0700   25.8610   42.4960 C   0  0  1  0  0  0  0  0  0  0  0  0
   40.0160   26.9080   42.3810 C   0  0  0  0  0  0  0  0  0  0  0  0
   38.8100   27.0780   43.3220 C   0  0  1  0  0  0  0  0  0  0  0  0
   39.2870   24.9290   43.0880 H   0  0  0  0  0  0  0  0  0  0  0  0
   40.0470   27.6140   41.5380 H   0  0  0  0  0  0  0  0  0  0  0  0
   41.0310   26.8600   42.8790 H   0  0  0  0  0  0  0  0  0  0  0  0
   39.1710   27.2540   44.3370 H   0  0  0  0  0  0  0  0  0  0  0  0
   38.2450   26.2920   40.0860 C   0  0  0  0  0  0  0  0  0  0  0  0
   38.1230   25.6140   41.3210 C   0  0  0  0  0  0  0  0  0  0  0  0
   37.0940   24.7160   41.4570 C   0  0  0  0  0  0  0  0  0  0  0  0
   36.2500   24.5180   40.4160 N   0  0  0  0  0  0  0  0  0  0  0  0
   36.3720   25.1690   39.2400 C   0  0  0  0  0  0  0  0  0  0  0  0
   37.4110   26.0920   39.0710 N   0  0  0  0  0  0  0  0  0  0  0  0
   39.0400   27.0020   39.9410 H   0  0  0  0  0  0  0  0  0  0  0  0
   36.9250   24.1550   42.3590 H   0  0  0  0  0  0  0  0  0  0  0  0
   35.7370   25.0490   38.3980 H   0  0  0  0  0  0  0  0  0  0  0  0
   37.4360   29.7580   41.1040 C   0  0  2  0  0  0  0  0  0  0  0  0
   36.3230   30.8460   41.2590 C   0  0  0  0  0  0  0  0  0  0  0  0
   36.0630   29.4400   40.7450 C   0  0  1  0  0  0  0  0  0  0  0  0
   38.1530   30.1080   40.3210 H   0  0  0  0  0  0  0  0  0  0  0  0
   36.3230   31.6800   40.5350 H   0  0  0  0  0  0  0  0  0  0  0  0
   36.0990   31.1360   42.2820 H   0  0  0  0  0  0  0  0  0  0  0  0
   35.3130   28.9770   41.3580 H   0  0  0  0  0  0  0  0  0  0  0  0
   34.4600   28.8450   38.9430 C   0  0  0  0  0  3  0  0  0  0  0  0
   35.7190   29.3020   39.2840 C   0  0  0  0  0  0  0  0  0  0  0  0
   36.5560   29.5940   38.2280 C   0  0  0  0  0  0  0  0  0  0  0  0
   37.5410   29.9520   38.4820 H   0  0  0  0  0  0  0  0  0  0  0  0
   36.1370   29.4320   36.9240 C   0  0  0  0  0  0  0  0  0  0  0  0
   34.8730   28.9740   36.6190 C   0  0  0  0  0  0  0  0  0  0  0  0
   33.9940   28.6660   37.6360 C   0  0  0  0  0  3  0  0  0  0  0  0
   34.7730   28.9250   35.2350 O   0  0  0  0  0  0  0  0  0  0  0  0
   35.8800   29.5670   34.6300 C   0  0  0  0  0  3  0  0  0  0  0  0
   36.2930   28.9870   33.7860 H   0  0  0  0  0  0  0  0  0  0  0  0
   36.7850   29.6540   35.7160 O   0  0  0  0  0  0  0  0  0  0  0  0
  1  7  1  0  0  0  0
  2  1  1  0  0  0  0
  2  3  2  0  0  0  0
  4  1  1  0  0  0  0
  5  8  1  1  0  0  0
  5  7  1  0  0  0  0
  6  5  1  0  0  0  0
  6 10  1  0  0  0  0
  6  7  1  0  0  0  0
  7 11  1  1  0  0  0
  9  6  1  0  0  0  0
 12 13  1  0  0  0  0
 13 14  2  0  0  0  0
 13  5  1  0  0  0  0
 14 19  1  0  0  0  0
 15 14  1  0  0  0  0
 16 15  2  0  0  0  0
 17 16  1  0  0  0  0
 17 12  2  0  0  0  0
 18 12  1  0  0  0  0
 20 16  1  0  0  0  0
 21 24  1  6  0  0  0
 21 22  1  0  0  0  0
 21  2  1  0  0  0  0
 22 26  1  0  0  0  0
 23 21  1  0  0  0  0
 23 22  1  0  0  0  0
 23 27  1  1  0  0  0
 25 22  1  0  0  0  0
 28 29  1  0  0  0  0
 29 23  1  0  0  0  0
 30 31  1  0  0  0  0
 30 29  2  0  0  0  0
 32 30  1  0  0  0  0
 33 32  2  0  0  0  0
 33 34  1  0  0  0  0
 34 28  2  0  0  0  0
 35 33  1  0  0  0  0
 36 35  1  0  0  0  0
 36 38  1  0  0  0  0
 37 36  1  0  0  0  0
 38 32  1  0  0  0  0
M  END
>  <minimizedAffinity>
-5.31332684

$$$$

 OpenBabel03242510203D

 38 42  0  0  1  0  0  0  0  0999 V2000
   39.5630   31.7500   41.8690 N   0  0  0  0  0  0  0  0  0  0  0  0
   39.6430   32.4420   40.6730 C   0  0  0  0  0  0  0  0  0  0  0  0
   40.4740   33.3050   40.2800 O   0  0  0  0  0  0  0  0  0  0  0  0
   38.5990   31.6690   42.3030 H   0  0  0  0  0  0  0  0  0  0  0  0
   40.6230   29.6850   42.7350 C   0  0  1  0  0  0  0  0  0  0  0  0
   41.4370   30.1200   41.6620 C   0  0  0  0  0  0  0  0  0  0  0  0
   40.6930   31.1600   42.5180 C   0  0  1  0  0  0  0  0  0  0  0  0
   41.0650   29.3320   43.7080 H   0  0  0  0  0  0  0  0  0  0  0  0
   41.1280   30.0840   40.6070 H   0  0  0  0  0  0  0  0  0  0  0  0
   42.5660   30.1380   41.7320 H   0  0  0  0  0  0  0  0  0  0  0  0
   41.4200   31.8420   42.9640 H   0  0  0  0  0  0  0  0  0  0  0  0
   38.2260   28.9200   43.3240 C   0  0  0  0  0  0  0  0  0  0  0  0
   39.2950   29.0040   42.4020 C   0  0  0  0  0  0  0  0  0  0  0  0
   39.1200   28.4290   41.1690 C   0  0  0  0  0  0  0  0  0  0  0  0
   37.9460   27.8130   40.8890 N   0  0  0  0  0  0  0  0  0  0  0  0
   36.9300   27.7360   41.7750 C   0  0  0  0  0  0  0  0  0  0  0  0
   37.0790   28.3130   43.0410 N   0  0  0  0  0  0  0  0  0  0  0  0
   38.3260   29.3620   44.3000 H   0  0  0  0  0  0  0  0  0  0  0  0
   39.8770   28.4440   40.4040 H   0  0  0  0  0  0  0  0  0  0  0  0
   35.9950   27.2640   41.6030 H   0  0  0  0  0  0  0  0  0  0  0  0
   38.6130   32.1860   39.5830 C   0  0  2  0  0  0  0  0  0  0  0  0
   37.2980   33.0300   39.6640 C   0  0  0  0  0  0  0  0  0  0  0  0
   37.3480   31.5240   39.8620 C   0  0  1  0  0  0  0  0  0  0  0  0
   38.9950   32.2440   38.5340 H   0  0  0  0  0  0  0  0  0  0  0  0
   36.8870   33.4220   38.7170 H   0  0  0  0  0  0  0  0  0  0  0  0
   37.2420   33.7200   40.5010 H   0  0  0  0  0  0  0  0  0  0  0  0
   36.9290   31.2840   40.8220 H   0  0  0  0  0  0  0  0  0  0  0  0
   37.2560   30.7460   37.5050 C   0  0  0  0  0  3  0  0  0  0  0  0
   36.7310   30.6730   38.7820 C   0  0  0  0  0  0  0  0  0  0  0  0
   35.6700   29.8090   38.9440 C   0  0  0  0  0  0  0  0  0  0  0  0
   35.2530   29.7440   39.9370 H   0  0  0  0  0  0  0  0  0  0  0  0
   35.1830   29.0750   37.8840 C   0  0  0  0  0  0  0  0  0  0  0  0
   35.7310   29.1700   36.6220 C   0  0  0  0  0  0  0  0  0  0  0  0
   36.7940   30.0200   36.4020 C   0  0  0  0  0  3  0  0  0  0  0  0
   35.0180   28.3120   35.7950 O   0  0  0  0  0  0  0  0  0  0  0  0
   34.1590   27.4830   36.5560 C   0  0  0  0  0  3  0  0  0  0  0  0
   33.1520   27.4020   36.1110 H   0  0  0  0  0  0  0  0  0  0  0  0
   34.1440   28.1570   37.8010 O   0  0  0  0  0  0  0  0  0  0  0  0
  1  4  1  0  0  0  0
  1  7  1  0  0  0  0
  2  1  1  0  0  0  0
  3  2  2  0  0  0  0
  5  8  1  1  0  0  0
  6 10  1  0  0  0  0
  6  7  1  0  0  0  0
  6  5  1  0  0  0  0
  7  5  1  0  0  0  0
  7 11  1  1  0  0  0
  9  6  1  0  0  0  0
 12 18  1  0  0  0  0
 13  5  1  0  0  0  0
 13 12  2  0  0  0  0
 14 13  1  0  0  0  0
 15 14  2  0  0  0  0
 15 16  1  0  0  0  0
 16 17  2  0  0  0  0
 17 12  1  0  0  0  0
 19 14  1  0  0  0  0
 20 16  1  0  0  0  0
 21 24  1  6  0  0  0
 21 22  1  0  0  0  0
 21 23  1  0  0  0  0
 21  2  1  0  0  0  0
 22 23  1  0  0  0  0
 22 26  1  0  0  0  0
 23 27  1  1  0  0  0
 25 22  1  0  0  0  0
 28 29  1  0  0  0  0
 29 30  2  0  0  0  0
 29 23  1  0  0  0  0
 30 31  1  0  0  0  0
 32 30  1  0  0  0  0
 33 32  2  0  0  0  0
 34 33  1  0  0  0  0
 34 28  2  0  0  0  0
 35 36  1  0  0  0  0
 35 33  1  0  0  0  0
 36 38  1  0  0  0  0
 37 36  1  0  0  0  0
 38 32  1  0  0  0  0
M  END
>  <minimizedAffinity>
-5.31319809

$$$$

 OpenBabel03242510203D

 38 42  0  0  1  0  0  0  0  0999 V2000
   38.1360   24.9830   41.9360 N   0  0  0  0  0  0  0  0  0  0  0  0
   38.7820   25.8170   42.8310 C   0  0  0  0  0  0  0  0  0  0  0  0
   39.6860   25.5700   43.6760 O   0  0  0  0  0  0  0  0  0  0  0  0
   37.0850   25.0960   41.8610 H   0  0  0  0  0  0  0  0  0  0  0  0
   38.7760   24.2400   39.6600 C   0  0  1  0  0  0  0  0  0  0  0  0
   39.9860   24.5750   40.3150 C   0  0  0  0  0  0  0  0  0  0  0  0
   38.8120   24.0100   41.1350 C   0  0  1  0  0  0  0  0  0  0  0  0
   38.6770   23.3060   39.0410 H   0  0  0  0  0  0  0  0  0  0  0  0
   40.2760   25.6040   40.5740 H   0  0  0  0  0  0  0  0  0  0  0  0
   40.9060   23.9200   40.2510 H   0  0  0  0  0  0  0  0  0  0  0  0
   39.1330   23.0930   41.6340 H   0  0  0  0  0  0  0  0  0  0  0  0
   36.4880   25.2420   38.9970 C   0  0  0  0  0  0  0  0  0  0  0  0
   37.8860   25.3810   39.1650 C   0  0  0  0  0  0  0  0  0  0  0  0
   38.4490   26.5910   38.8480 C   0  0  0  0  0  0  0  0  0  0  0  0
   37.6550   27.5900   38.3950 N   0  0  0  0  0  0  0  0  0  0  0  0
   36.3210   27.4490   38.2350 C   0  0  0  0  0  0  0  0  0  0  0  0
   35.7180   26.2270   38.5490 N   0  0  0  0  0  0  0  0  0  0  0  0
   36.0110   24.3080   39.2370 H   0  0  0  0  0  0  0  0  0  0  0  0
   39.5030   26.7880   38.9450 H   0  0  0  0  0  0  0  0  0  0  0  0
   35.6580   28.2000   37.8830 H   0  0  0  0  0  0  0  0  0  0  0  0
   38.4220   27.2950   42.8800 C   0  0  2  0  0  0  0  0  0  0  0  0
   37.0870   27.6570   43.6110 C   0  0  0  0  0  0  0  0  0  0  0  0
   37.3090   27.8390   42.1180 C   0  0  1  0  0  0  0  0  0  0  0  0
   39.2210   27.9740   43.2670 H   0  0  0  0  0  0  0  0  0  0  0  0
   37.0870   28.5530   44.2560 H   0  0  0  0  0  0  0  0  0  0  0  0
   36.5350   26.8110   44.0120 H   0  0  0  0  0  0  0  0  0  0  0  0
   36.5500   27.2980   41.5830 H   0  0  0  0  0  0  0  0  0  0  0  0
   36.2910   29.8380   41.0510 C   0  0  0  0  0  3  0  0  0  0  0  0
   37.4120   29.2560   41.6130 C   0  0  0  0  0  0  0  0  0  0  0  0
   38.5390   30.0470   41.6580 C   0  0  0  0  0  0  0  0  0  0  0  0
   39.4190   29.6030   42.0960 H   0  0  0  0  0  0  0  0  0  0  0  0
   38.5230   31.3350   41.1660 C   0  0  0  0  0  0  0  0  0  0  0  0
   37.3870   31.8860   40.6120 C   0  0  0  0  0  0  0  0  0  0  0  0
   36.2300   31.1400   40.5410 C   0  0  0  0  0  3  0  0  0  0  0  0
   37.7040   33.1800   40.2190 O   0  0  0  0  0  0  0  0  0  0  0  0
   38.9710   33.5600   40.7230 C   0  0  0  0  0  3  0  0  0  0  0  0
   39.5890   34.0710   39.9630 H   0  0  0  0  0  0  0  0  0  0  0  0
   39.5130   32.3070   41.1010 O   0  0  0  0  0  0  0  0  0  0  0  0
  1  2  1  0  0  0  0
  2 21  1  0  0  0  0
  2  3  2  0  0  0  0
  4  1  1  0  0  0  0
  5  8  1  6  0  0  0
  5  6  1  0  0  0  0
  5  7  1  0  0  0  0
  6  9  1  0  0  0  0
  6  7  1  0  0  0  0
  7 11  1  1  0  0  0
  7  1  1  0  0  0  0
 10  6  1  0  0  0  0
 12 13  1  0  0  0  0
 12 18  1  0  0  0  0
 13  5  1  0  0  0  0
 14 19  1  0  0  0  0
 14 13  2  0  0  0  0
 15 14  1  0  0  0  0
 16 15  2  0  0  0  0
 16 17  1  0  0  0  0
 17 12  2  0  0  0  0
 20 16  1  0  0  0  0
 21 24  1  1  0  0  0
 21 22  1  0  0  0  0
 22 26  1  0  0  0  0
 22 25  1  0  0  0  0
 23 27  1  6  0  0  0
 23 21  1  0  0  0  0
 23 22  1  0  0  0  0
 28 29  1  0  0  0  0
 29 30  2  0  0  0  0
 29 23  1  0  0  0  0
 30 31  1  0  0  0  0
 32 30  1  0  0  0  0
 33 32  2  0  0  0  0
 34 33  1  0  0  0  0
 34 28  2  0  0  0  0
 35 33  1  0  0  0  0
 35 36  1  0  0  0  0
 36 38  1  0  0  0  0
 37 36  1  0  0  0  0
 38 32  1  0  0  0  0
M  END
>  <minimizedAffinity>
-5.28452826

$$$$

 OpenBabel03242510203D

 38 42  0  0  1  0  0  0  0  0999 V2000
   39.7220   26.7630   43.5720 N   0  0  0  0  0  0  0  0  0  0  0  0
   40.1990   27.9440   43.0300 C   0  0  0  0  0  0  0  0  0  0  0  0
   41.3010   28.5340   43.1940 O   0  0  0  0  0  0  0  0  0  0  0  0
   38.7200   26.7740   43.9200 H   0  0  0  0  0  0  0  0  0  0  0  0
   40.1730   24.4870   42.7050 C   0  0  1  0  0  0  0  0  0  0  0  0
   41.3320   25.2490   42.4210 C   0  0  0  0  0  0  0  0  0  0  0  0
   40.5040   25.5700   43.6770 C   0  0  1  0  0  0  0  0  0  0  0  0
   40.2380   23.4440   43.1230 H   0  0  0  0  0  0  0  0  0  0  0  0
   41.3660   26.0540   41.6720 H   0  0  0  0  0  0  0  0  0  0  0  0
   42.3750   24.8500   42.6030 H   0  0  0  0  0  0  0  0  0  0  0  0
   41.1390   25.4700   44.5600 H   0  0  0  0  0  0  0  0  0  0  0  0
   37.6400   24.3050   42.2300 C   0  0  0  0  0  0  0  0  0  0  0  0
   38.9370   24.7030   41.8310 C   0  0  0  0  0  0  0  0  0  0  0  0
   39.0730   25.2880   40.5970 C   0  0  0  0  0  0  0  0  0  0  0  0
   37.9750   25.4590   39.8240 N   0  0  0  0  0  0  0  0  0  0  0  0
   36.7400   25.0760   40.2110 C   0  0  0  0  0  0  0  0  0  0  0  0
   36.5690   24.4760   41.4630 N   0  0  0  0  0  0  0  0  0  0  0  0
   37.4940   23.8450   43.1910 H   0  0  0  0  0  0  0  0  0  0  0  0
   40.0210   25.6220   40.2110 H   0  0  0  0  0  0  0  0  0  0  0  0
   35.8510   25.1870   39.6410 H   0  0  0  0  0  0  0  0  0  0  0  0
   39.3310   28.7320   42.0600 C   0  0  2  0  0  0  0  0  0  0  0  0
   38.5770   29.9670   42.6550 C   0  0  0  0  0  0  0  0  0  0  0  0
   37.8790   28.7180   42.1430 C   0  0  1  0  0  0  0  0  0  0  0  0
   39.8350   29.0590   41.1180 H   0  0  0  0  0  0  0  0  0  0  0  0
   38.5350   30.8830   42.0390 H   0  0  0  0  0  0  0  0  0  0  0  0
   38.7400   30.1420   43.7150 H   0  0  0  0  0  0  0  0  0  0  0  0
   37.2690   28.3120   42.9290 H   0  0  0  0  0  0  0  0  0  0  0  0
   37.7760   28.9880   39.6760 C   0  0  0  0  0  3  0  0  0  0  0  0
   37.0880   28.8550   40.8670 C   0  0  0  0  0  0  0  0  0  0  0  0
   35.7130   28.8600   40.7680 C   0  0  0  0  0  0  0  0  0  0  0  0
   35.1660   28.7550   41.6920 H   0  0  0  0  0  0  0  0  0  0  0  0
   35.0900   28.9900   39.5460 C   0  0  0  0  0  0  0  0  0  0  0  0
   35.8060   29.1200   38.3750 C   0  0  0  0  0  0  0  0  0  0  0  0
   37.1840   29.1220   38.4150 C   0  0  0  0  0  3  0  0  0  0  0  0
   34.8890   29.2290   37.3380 O   0  0  0  0  0  0  0  0  0  0  0  0
   33.5810   28.9380   37.7940 C   0  0  0  0  0  3  0  0  0  0  0  0
   32.8350   29.6590   37.4160 H   0  0  0  0  0  0  0  0  0  0  0  0
   33.7450   29.0210   39.1980 O   0  0  0  0  0  0  0  0  0  0  0  0
  1  7  1  0  0  0  0
  1  4  1  0  0  0  0
  2  3  2  0  0  0  0
  2  1  1  0  0  0  0
  5  8  1  1  0  0  0
  5  7  1  0  0  0  0
  6 10  1  0  0  0  0
  6  5  1  0  0  0  0
  6  7  1  0  0  0  0
  7 11  1  1  0  0  0
  9  6  1  0  0  0  0
 12 18  1  0  0  0  0
 13 12  1  0  0  0  0
 13  5  1  0  0  0  0
 14 13  2  0  0  0  0
 15 16  2  0  0  0  0
 15 14  1  0  0  0  0
 16 17  1  0  0  0  0
 17 12  2  0  0  0  0
 19 14  1  0  0  0  0
 20 16  1  0  0  0  0
 21 24  1  6  0  0  0
 21 23  1  0  0  0  0
 21 22  1  0  0  0  0
 21  2  1  0  0  0  0
 22 26  1  0  0  0  0
 23 22  1  0  0  0  0
 23 27  1  1  0  0  0
 25 22  1  0  0  0  0
 28 29  1  0  0  0  0
 29 23  1  0  0  0  0
 30 29  2  0  0  0  0
 30 31  1  0  0  0  0
 32 30  1  0  0  0  0
 33 34  1  0  0  0  0
 33 32  2  0  0  0  0
 34 28  2  0  0  0  0
 35 36  1  0  0  0  0
 35 33  1  0  0  0  0
 36 38  1  0  0  0  0
 37 36  1  0  0  0  0
 38 32  1  0  0  0  0
M  END
>  <minimizedAffinity>
-5.23626995

$$$$
