
 OpenBabel03252508513D

 30 33  0  0  0  0  0  0  0  0999 V2000
   45.7130   34.1440   41.1360 C   0  0  0  0  0  0  0  0  0  0  0  0
   46.3570   34.7540   42.2060 C   0  0  0  0  0  0  0  0  0  0  0  0
   47.7130   35.0510   42.0250 C   0  0  0  0  0  0  0  0  0  0  0  0
   48.3080   34.7300   40.8320 N   0  0  0  0  0  0  0  0  0  0  0  0
   47.6400   34.1470   39.8450 C   0  0  0  0  0  0  0  0  0  0  0  0
   46.3400   33.8460   39.9760 N   0  0  0  0  0  0  0  0  0  0  0  0
   48.2400   35.5250   42.8410 H   0  0  0  0  0  0  0  0  0  0  0  0
   48.1180   33.9000   38.9100 H   0  0  0  0  0  0  0  0  0  0  0  0
   45.6310   35.0480   43.4230 C   0  0  0  0  0  0  0  0  0  0  0  0
   45.0290   36.2590   43.6690 C   0  0  0  0  0  0  0  0  0  0  0  0
   44.4700   36.0950   44.9190 C   0  0  0  0  0  0  0  0  0  0  0  0
   44.7180   34.8570   45.4040 N   0  0  0  0  0  0  0  0  0  0  0  0
   45.4220   34.2420   44.4810 N   0  0  0  0  0  0  0  0  0  0  0  0
   44.9600   37.1660   43.0890 H   0  0  0  0  0  0  0  0  0  0  0  0
   43.8860   36.7980   45.5310 H   0  0  0  0  0  0  0  0  0  0  0  0
   44.4540   34.3940   46.2980 H   0  0  0  0  0  0  0  0  0  0  0  0
   44.3710   33.8340   41.2720 O   0  0  0  0  0  0  0  0  0  0  0  0
   43.3030   34.6020   40.9030 C   0  0  0  0  0  0  0  0  0  0  0  0
   43.3180   35.8440   40.5700 O   0  0  0  0  0  0  0  0  0  0  0  0
   40.8350   34.8280   40.3660 C   0  0  0  0  0  0  0  0  0  0  0  0
   41.9060   34.0780   40.8380 C   0  0  0  0  0  0  0  0  0  0  0  0
   41.5360   32.8150   41.2340 C   0  0  0  0  0  0  0  0  0  0  0  0
   42.3030   32.1490   41.6200 H   0  0  0  0  0  0  0  0  0  0  0  0
   40.2600   32.3240   41.1810 C   0  0  0  0  0  0  0  0  0  0  0  0
   39.2640   33.1390   40.6980 C   0  0  0  0  0  0  0  0  0  0  0  0
   39.5260   34.4170   40.2770 C   0  0  0  0  0  0  0  0  0  0  0  0
   38.0940   32.4050   40.7530 O   0  0  0  0  0  0  0  0  0  0  0  0
   38.3250   31.1150   41.3020 C   0  0  0  0  0  0  0  0  0  0  0  0
   38.1040   30.2950   40.5880 H   0  0  0  0  0  0  0  0  0  0  0  0
   39.7160   31.0960   41.5320 O   0  0  0  0  0  0  0  0  0  0  0  0
  1 17  1  0  0  0  0
  1  2  1  0  0  0  0
  2  9  1  0  0  0  0
  3  2  2  0  0  0  0
  3  7  1  0  0  0  0
  4  3  1  0  0  0  0
  5  6  1  0  0  0  0
  5  4  2  0  0  0  0
  6  1  2  0  0  0  0
  8  5  1  0  0  0  0
  9 10  1  0  0  0  0
  9 13  2  0  0  0  0
 10 11  2  0  0  0  0
 11 12  1  0  0  0  0
 11 15  1  0  0  0  0
 12 16  1  0  0  0  0
 13 12  1  0  0  0  0
 14 10  1  0  0  0  0
 18 17  1  0  0  0  0
 19 18  2  0  0  0  0
 20 21  1  0  0  0  0
 21 18  1  0  0  0  0
 21 22  2  0  0  0  0
 22 23  1  0  0  0  0
 24 22  1  0  0  0  0
 24 30  1  0  0  0  0
 25 27  1  0  0  0  0
 25 24  2  0  0  0  0
 26 20  2  0  0  0  0
 26 25  1  0  0  0  0
 27 28  1  0  0  0  0
 28 30  1  0  0  0  0
 29 28  1  0  0  0  0
M  END
>  <minimizedAffinity>
-6.12337446

>  <minimizedRMSD>
1.99593163

$$$$
