
 OpenBabel03252509233D

 29 32  0  0  1  0  0  0  0  0999 V2000
   46.1010   34.6330   42.0950 C   0  0  1  0  0  0  0  0  0  0  0  0
   47.5500   35.1460   41.8630 C   0  0  0  0  0  0  0  0  0  0  0  0
   47.0070   33.7260   41.4860 C   0  0  2  0  0  0  0  0  0  0  0  0
   45.3430   35.2300   41.5570 H   0  0  0  0  0  0  0  0  0  0  0  0
   48.2570   35.1350   42.6880 H   0  0  0  0  0  0  0  0  0  0  0  0
   47.6920   35.8290   41.0040 H   0  0  0  0  0  0  0  0  0  0  0  0
   47.4020   32.8820   42.0880 H   0  0  0  0  0  0  0  0  0  0  0  0
   45.7860   33.2810   39.3030 C   0  0  0  0  0  3  0  0  0  0  0  0
   46.9540   33.4580   40.0150 C   0  0  0  0  0  0  0  0  0  0  0  0
   48.1300   33.3700   39.2640 C   0  0  0  0  0  0  0  0  0  0  0  0
   49.0660   33.5050   39.8040 H   0  0  0  0  0  0  0  0  0  0  0  0
   48.1810   33.1270   37.9160 C   0  0  0  0  0  0  0  0  0  0  0  0
   46.9890   32.9570   37.2410 C   0  0  0  0  0  0  0  0  0  0  0  0
   45.7850   33.0340   37.9440 C   0  0  0  0  0  3  0  0  0  0  0  0
   47.3250   32.7310   35.9210 O   0  0  0  0  0  0  0  0  0  0  0  0
   48.7050   32.9480   35.7260 C   0  0  0  0  0  3  0  0  0  0  0  0
   49.1100   32.0950   35.1520 H   0  0  0  0  0  0  0  0  0  0  0  0
   49.2370   33.0090   37.0270 O   0  0  0  0  0  0  0  0  0  0  0  0
   44.6900   35.1860   45.5300 C   0  0  0  0  0  0  0  0  0  0  0  0
   44.9490   35.4100   44.1350 C   0  0  0  0  0  0  0  0  0  0  0  0
   45.8270   34.5190   43.5750 C   0  0  0  0  0  0  0  0  0  0  0  0
   46.4060   33.4990   44.3120 N   0  0  0  0  0  0  0  0  0  0  0  0
   46.1240   33.3430   45.6070 C   0  0  0  0  0  0  0  0  0  0  0  0
   45.2680   34.1790   46.2250 N   0  0  0  0  0  0  0  0  0  0  0  0
   44.0050   35.8580   46.0160 H   0  0  0  0  0  0  0  0  0  0  0  0
   46.6590   32.5000   46.0260 H   0  0  0  0  0  0  0  0  0  0  0  0
   44.3730   36.4770   43.4070 N   0  0  0  0  0  0  0  0  0  0  0  0
   44.9880   37.2700   43.0760 H   0  0  0  0  0  0  0  0  0  0  0  0
   43.3450   36.5120   43.1800 H   0  0  0  0  0  0  0  0  0  0  0  0
  1  4  1  6  0  0  0
  1 21  1  0  0  0  0
  2  1  1  0  0  0  0
  2  5  1  0  0  0  0
  3  2  1  0  0  0  0
  3  7  1  1  0  0  0
  3  1  1  0  0  0  0
  6  2  1  0  0  0  0
  8  9  1  0  0  0  0
  9  3  1  0  0  0  0
 10 11  1  0  0  0  0
 10  9  2  0  0  0  0
 12 10  1  0  0  0  0
 13 12  2  0  0  0  0
 13 14  1  0  0  0  0
 14  8  2  0  0  0  0
 15 13  1  0  0  0  0
 16 15  1  0  0  0  0
 16 18  1  0  0  0  0
 17 16  1  0  0  0  0
 18 12  1  0  0  0  0
 19 25  1  0  0  0  0
 19 24  1  0  0  0  0
 20 19  2  0  0  0  0
 21 20  1  0  0  0  0
 21 22  2  0  0  0  0
 22 23  1  0  0  0  0
 23 26  1  0  0  0  0
 23 24  2  0  0  0  0
 27 20  1  0  0  0  0
 28 27  1  0  0  0  0
 29 27  1  0  0  0  0
M  END
>  <minimizedAffinity>
-5.30728769

>  <minimizedRMSD>
0.98932904

$$$$
