
 OpenBabel03252508533D

 45 49  0  0  1  0  0  0  0  0999 V2000
   43.3240   34.5300   40.7030 C   0  0  0  0  0  0  0  0  0  0  0  0
   43.3940   35.7030   40.2040 O   0  0  0  0  0  0  0  0  0  0  0  0
   41.9120   34.2570   40.5030 N   0  0  0  0  0  0  0  0  0  0  0  0
   41.4850   34.2710   39.1190 C   0  0  0  0  0  0  0  0  0  0  0  0
   40.8380   35.6590   38.9200 C   0  0  0  0  0  0  0  0  0  0  0  0
   40.1320   35.9980   40.2420 C   0  0  0  0  0  0  0  0  0  0  0  0
   39.6570   34.7430   40.9390 C   0  0  0  0  0  0  0  0  0  0  0  0
   40.8800   33.9770   41.4750 C   0  0  1  0  0  0  0  0  0  0  0  0
   42.3140   34.2230   38.3930 H   0  0  0  0  0  0  0  0  0  0  0  0
   40.7550   33.4830   38.8690 H   0  0  0  0  0  0  0  0  0  0  0  0
   41.6480   36.4150   38.8070 H   0  0  0  0  0  0  0  0  0  0  0  0
   40.1710   35.6900   38.0590 H   0  0  0  0  0  0  0  0  0  0  0  0
   39.2180   36.5610   39.9630 H   0  0  0  0  0  0  0  0  0  0  0  0
   40.7860   36.5550   40.9330 H   0  0  0  0  0  0  0  0  0  0  0  0
   39.1870   34.1120   40.1430 H   0  0  0  0  0  0  0  0  0  0  0  0
   38.9870   35.0440   41.7420 H   0  0  0  0  0  0  0  0  0  0  0  0
   41.2110   34.3760   42.4390 H   0  0  0  0  0  0  0  0  0  0  0  0
   41.4680   31.5620   41.9720 C   0  0  0  0  0  3  0  0  0  0  0  0
   40.5620   32.5350   41.6120 C   0  0  0  0  0  0  0  0  0  0  0  0
   39.2570   32.1450   41.3570 C   0  0  0  0  0  0  0  0  0  0  0  0
   38.4520   32.8340   41.0630 H   0  0  0  0  0  0  0  0  0  0  0  0
   38.8620   30.8250   41.4570 C   0  0  0  0  0  0  0  0  0  0  0  0
   39.7930   29.8540   41.8240 C   0  0  0  0  0  0  0  0  0  0  0  0
   41.0930   30.2250   42.0800 C   0  0  0  0  0  3  0  0  0  0  0  0
   39.1380   28.6110   41.8500 O   0  0  0  0  0  0  0  0  0  0  0  0
   37.7630   28.9380   42.0970 C   0  0  0  0  0  3  0  0  0  0  0  0
   37.0770   28.1430   41.8020 H   0  0  0  0  0  0  0  0  0  0  0  0
   37.6630   30.1110   41.2760 O   0  0  0  0  0  0  0  0  0  0  0  0
   44.3450   33.8170   41.2470 O   0  0  0  0  0  0  0  0  0  0  0  0
   45.6930   34.0500   41.1220 C   0  0  0  0  0  0  0  0  0  0  0  0
   46.3530   34.6330   42.2010 C   0  0  0  0  0  0  0  0  0  0  0  0
   47.7290   34.8610   42.0490 C   0  0  0  0  0  0  0  0  0  0  0  0
   48.3300   34.5020   40.8700 N   0  0  0  0  0  0  0  0  0  0  0  0
   47.6430   33.9470   39.8740 C   0  0  0  0  0  0  0  0  0  0  0  0
   46.3280   33.7170   39.9870 N   0  0  0  0  0  0  0  0  0  0  0  0
   48.2430   35.3130   42.8840 H   0  0  0  0  0  0  0  0  0  0  0  0
   48.1380   33.6680   38.9430 H   0  0  0  0  0  0  0  0  0  0  0  0
   45.6230   34.9750   43.4030 C   0  0  0  0  0  0  0  0  0  0  0  0
   45.0360   36.2260   43.5980 C   0  0  0  0  0  0  0  0  0  0  0  0
   44.4610   36.1220   44.8380 C   0  0  0  0  0  0  0  0  0  0  0  0
   44.6780   34.8930   45.3700 N   0  0  0  0  0  0  0  0  0  0  0  0
   45.3810   34.2320   44.4780 N   0  0  0  0  0  0  0  0  0  0  0  0
   45.0520   37.0580   42.9080 H   0  0  0  0  0  0  0  0  0  0  0  0
   43.9080   36.9440   45.3010 H   0  0  0  0  0  0  0  0  0  0  0  0
   44.3090   34.6310   46.3200 H   0  0  0  0  0  0  0  0  0  0  0  0
  1 29  1  0  0  0  0
  2  1  2  0  0  0  0
  3  1  1  0  0  0  0
  3  8  1  0  0  0  0
  4  3  1  0  0  0  0
  5  4  1  0  0  0  0
  5  6  1  0  0  0  0
  6 14  1  0  0  0  0
  6  7  1  0  0  0  0
  7  8  1  0  0  0  0
  7 16  1  0  0  0  0
  8 19  1  0  0  0  0
  8 17  1  1  0  0  0
  9  4  1  0  0  0  0
 10  4  1  0  0  0  0
 11  5  1  0  0  0  0
 12  5  1  0  0  0  0
 13  6  1  0  0  0  0
 15  7  1  0  0  0  0
 18 24  1  0  0  0  0
 19 18  2  0  0  0  0
 20 22  2  0  0  0  0
 20 19  1  0  0  0  0
 21 20  1  0  0  0  0
 22 23  1  0  0  0  0
 23 25  1  0  0  0  0
 23 24  2  0  0  0  0
 25 26  1  0  0  0  0
 27 26  1  0  0  0  0
 28 22  1  0  0  0  0
 28 26  1  0  0  0  0
 30 29  1  0  0  0  0
 30 31  1  0  0  0  0
 31 38  1  0  0  0  0
 32 31  2  0  0  0  0
 32 36  1  0  0  0  0
 33 32  1  0  0  0  0
 34 35  1  0  0  0  0
 34 33  2  0  0  0  0
 35 30  2  0  0  0  0
 37 34  1  0  0  0  0
 38 39  1  0  0  0  0
 38 42  2  0  0  0  0
 39 40  2  0  0  0  0
 40 44  1  0  0  0  0
 40 41  1  0  0  0  0
 41 45  1  0  0  0  0
 42 41  1  0  0  0  0
 43 39  1  0  0  0  0
M  END
>  <minimizedAffinity>
-7.24244642

>  <minimizedRMSD>
0.896670043

$$$$
