
 OpenBabel03252508323D

 34 37  0  0  1  0  0  0  0  0999 V2000
   44.0960   34.1860   42.0190 N   0  0  0  0  0  0  0  0  0  0  0  0
   44.0660   33.6210   40.7240 C   0  0  1  0  0  0  0  0  0  0  0  0
   43.1310   34.2530   39.7600 C   0  0  0  0  0  0  0  0  0  0  0  0
   41.9400   34.7870   40.2750 N   0  0  0  0  0  0  0  0  0  0  0  0
   41.9660   35.3260   41.5740 C   0  0  0  0  0  0  0  0  0  0  0  0
   43.3750   35.4170   42.1270 C   0  0  0  0  0  0  0  0  0  0  0  0
   43.7750   32.5380   40.8250 H   0  0  0  0  0  0  0  0  0  0  0  0
   42.9130   33.5490   38.9310 H   0  0  0  0  0  0  0  0  0  0  0  0
   43.6890   35.1020   39.2650 H   0  0  0  0  0  0  0  0  0  0  0  0
   41.2120   34.0120   40.2760 H   0  0  0  0  0  0  0  0  0  0  0  0
   41.3250   34.8340   42.3270 H   0  0  0  0  0  0  0  0  0  0  0  0
   41.6030   36.3840   41.5070 H   0  0  0  0  0  0  0  0  0  0  0  0
   43.9290   36.2270   41.5680 H   0  0  0  0  0  0  0  0  0  0  0  0
   43.2500   35.8120   43.1520 H   0  0  0  0  0  0  0  0  0  0  0  0
   46.5210   34.2370   40.5910 C   0  0  0  0  0  3  0  0  0  0  0  0
   45.4140   33.6210   40.0530 C   0  0  0  0  0  0  0  0  0  0  0  0
   45.6540   33.0090   38.8180 C   0  0  0  0  0  0  0  0  0  0  0  0
   44.8240   32.5040   38.3360 H   0  0  0  0  0  0  0  0  0  0  0  0
   46.8750   33.0120   38.1850 C   0  0  0  0  0  0  0  0  0  0  0  0
   47.9350   33.6500   38.7890 C   0  0  0  0  0  0  0  0  0  0  0  0
   47.7600   34.2720   40.0080 C   0  0  0  0  0  3  0  0  0  0  0  0
   49.0340   33.4900   37.9280 O   0  0  0  0  0  0  0  0  0  0  0  0
   48.5710   33.0520   36.6580 C   0  0  0  0  0  3  0  0  0  0  0  0
   48.4890   33.9440   36.0040 H   0  0  0  0  0  0  0  0  0  0  0  0
   47.3210   32.4780   36.9880 O   0  0  0  0  0  0  0  0  0  0  0  0
   45.3900   34.3270   44.0230 C   0  0  0  0  0  0  0  0  0  0  0  0
   44.8050   33.5170   43.0410 C   0  0  0  0  0  0  0  0  0  0  0  0
   44.9740   32.1500   43.1570 C   0  0  0  0  0  0  0  0  0  0  0  0
   45.6820   31.6090   44.1860 N   0  0  0  0  0  0  0  0  0  0  0  0
   46.2390   32.4320   45.1260 C   0  0  0  0  0  0  0  0  0  0  0  0
   46.0840   33.7690   45.0280 N   0  0  0  0  0  0  0  0  0  0  0  0
   45.3810   35.4000   44.1190 H   0  0  0  0  0  0  0  0  0  0  0  0
   44.5250   31.5190   42.4130 H   0  0  0  0  0  0  0  0  0  0  0  0
   46.7980   31.9800   45.9360 H   0  0  0  0  0  0  0  0  0  0  0  0
  1  6  1  0  0  0  0
  1 27  1  0  0  0  0
  2  7  1  1  0  0  0
  2  1  1  0  0  0  0
  3  4  1  0  0  0  0
  3  2  1  0  0  0  0
  4 10  1  0  0  0  0
  4  5  1  0  0  0  0
  5  6  1  0  0  0  0
  5 11  1  0  0  0  0
  6 14  1  0  0  0  0
  8  3  1  0  0  0  0
  9  3  1  0  0  0  0
 12  5  1  0  0  0  0
 13  6  1  0  0  0  0
 16 15  1  0  0  0  0
 16  2  1  0  0  0  0
 17 16  2  0  0  0  0
 18 17  1  0  0  0  0
 19 20  2  0  0  0  0
 19 17  1  0  0  0  0
 20 21  1  0  0  0  0
 21 15  2  0  0  0  0
 22 20  1  0  0  0  0
 23 25  1  0  0  0  0
 23 22  1  0  0  0  0
 24 23  1  0  0  0  0
 25 19  1  0  0  0  0
 26 32  1  0  0  0  0
 26 31  1  0  0  0  0
 27 28  1  0  0  0  0
 27 26  2  0  0  0  0
 28 29  2  0  0  0  0
 29 30  1  0  0  0  0
 30 34  1  0  0  0  0
 31 30  2  0  0  0  0
 33 28  1  0  0  0  0
M  END
>  <minimizedAffinity>
-4.7589221

>  <minimizedRMSD>
1.22881925

$$$$
