
 OpenBabel03252509233D

 29 32  0  0  1  0  0  0  0  0999 V2000
   46.2800   34.9300   42.0710 C   0  0  1  0  0  0  0  0  0  0  0  0
   47.7820   35.3160   41.9860 C   0  0  0  0  0  0  0  0  0  0  0  0
   47.1460   33.9810   41.4710 C   0  0  2  0  0  0  0  0  0  0  0  0
   45.6250   35.6300   41.5200 H   0  0  0  0  0  0  0  0  0  0  0  0
   48.4150   35.1860   42.8600 H   0  0  0  0  0  0  0  0  0  0  0  0
   48.0560   36.0340   41.1910 H   0  0  0  0  0  0  0  0  0  0  0  0
   47.4130   33.0670   42.0420 H   0  0  0  0  0  0  0  0  0  0  0  0
   48.2260   34.2530   39.1880 C   0  0  0  0  0  3  0  0  0  0  0  0
   47.1910   33.8110   39.9860 C   0  0  0  0  0  0  0  0  0  0  0  0
   46.1470   33.1710   39.3100 C   0  0  0  0  0  0  0  0  0  0  0  0
   45.3180   32.8130   39.9190 H   0  0  0  0  0  0  0  0  0  0  0  0
   46.1010   32.9700   37.9550 C   0  0  0  0  0  0  0  0  0  0  0  0
   47.1570   33.4280   37.1930 C   0  0  0  0  0  0  0  0  0  0  0  0
   48.2250   34.0740   37.8180 C   0  0  0  0  0  3  0  0  0  0  0  0
   46.8570   33.0980   35.8870 O   0  0  0  0  0  0  0  0  0  0  0  0
   45.7150   32.2700   35.8420 C   0  0  0  0  0  3  0  0  0  0  0  0
   45.0340   32.6650   35.0680 H   0  0  0  0  0  0  0  0  0  0  0  0
   45.1630   32.3670   37.1320 O   0  0  0  0  0  0  0  0  0  0  0  0
   44.6460   35.4020   45.4200 C   0  0  0  0  0  0  0  0  0  0  0  0
   45.0400   35.6870   44.0670 C   0  0  0  0  0  0  0  0  0  0  0  0
   45.8750   34.7520   43.5150 C   0  0  0  0  0  0  0  0  0  0  0  0
   46.2950   33.6360   44.2200 N   0  0  0  0  0  0  0  0  0  0  0  0
   45.8940   33.4270   45.4760 C   0  0  0  0  0  0  0  0  0  0  0  0
   45.0710   34.3020   46.0840 N   0  0  0  0  0  0  0  0  0  0  0  0
   43.9890   36.1050   45.8980 H   0  0  0  0  0  0  0  0  0  0  0  0
   46.3140   32.5120   45.8750 H   0  0  0  0  0  0  0  0  0  0  0  0
   44.6250   36.8480   43.3730 N   0  0  0  0  0  0  0  0  0  0  0  0
   45.3350   37.5960   43.1470 H   0  0  0  0  0  0  0  0  0  0  0  0
   43.6270   36.9960   43.0730 H   0  0  0  0  0  0  0  0  0  0  0  0
  1  4  1  6  0  0  0
  1 21  1  0  0  0  0
  2  1  1  0  0  0  0
  2  5  1  0  0  0  0
  3  2  1  0  0  0  0
  3  7  1  1  0  0  0
  3  1  1  0  0  0  0
  6  2  1  0  0  0  0
  8  9  1  0  0  0  0
  9  3  1  0  0  0  0
 10 11  1  0  0  0  0
 10  9  2  0  0  0  0
 12 10  1  0  0  0  0
 13 14  1  0  0  0  0
 13 12  2  0  0  0  0
 14  8  2  0  0  0  0
 15 13  1  0  0  0  0
 16 15  1  0  0  0  0
 16 18  1  0  0  0  0
 17 16  1  0  0  0  0
 18 12  1  0  0  0  0
 19 25  1  0  0  0  0
 19 24  1  0  0  0  0
 20 19  2  0  0  0  0
 21 20  1  0  0  0  0
 21 22  2  0  0  0  0
 22 23  1  0  0  0  0
 23 26  1  0  0  0  0
 23 24  2  0  0  0  0
 27 20  1  0  0  0  0
 28 27  1  0  0  0  0
 29 27  1  0  0  0  0
M  END
>  <minimizedAffinity>
-5.63391781

>  <minimizedRMSD>
0.40290612

$$$$
