
 OpenBabel03252508323D

 34 37  0  0  1  0  0  0  0  0999 V2000
   44.3330   34.4440   41.9860 N   0  0  0  0  0  0  0  0  0  0  0  0
   44.5580   33.4550   41.0030 C   0  0  1  0  0  0  0  0  0  0  0  0
   43.9140   33.6890   39.6850 C   0  0  0  0  0  0  0  0  0  0  0  0
   42.6790   34.3540   39.6830 N   0  0  0  0  0  0  0  0  0  0  0  0
   42.4470   35.3190   40.6790 C   0  0  0  0  0  0  0  0  0  0  0  0
   43.6960   35.6220   41.4830 C   0  0  0  0  0  0  0  0  0  0  0  0
   44.1750   32.4750   41.4030 H   0  0  0  0  0  0  0  0  0  0  0  0
   43.8410   32.7330   39.1280 H   0  0  0  0  0  0  0  0  0  0  0  0
   44.6300   34.3140   39.0730 H   0  0  0  0  0  0  0  0  0  0  0  0
   41.9160   33.6200   39.7810 H   0  0  0  0  0  0  0  0  0  0  0  0
   41.6180   35.1180   41.3810 H   0  0  0  0  0  0  0  0  0  0  0  0
   42.1850   36.2790   40.1630 H   0  0  0  0  0  0  0  0  0  0  0  0
   44.4190   36.1880   40.8260 H   0  0  0  0  0  0  0  0  0  0  0  0
   43.3700   36.3540   42.2450 H   0  0  0  0  0  0  0  0  0  0  0  0
   46.9190   34.2670   40.5660 C   0  0  0  0  0  3  0  0  0  0  0  0
   46.0200   33.2360   40.7150 C   0  0  0  0  0  0  0  0  0  0  0  0
   46.5860   31.9660   40.5580 C   0  0  0  0  0  0  0  0  0  0  0  0
   45.9340   31.1060   40.6630 H   0  0  0  0  0  0  0  0  0  0  0  0
   47.9170   31.7490   40.2810 C   0  0  0  0  0  0  0  0  0  0  0  0
   48.7540   32.8340   40.1470 C   0  0  0  0  0  0  0  0  0  0  0  0
   48.2510   34.1110   40.2910 C   0  0  0  0  0  3  0  0  0  0  0  0
   50.0300   32.3160   39.8710 O   0  0  0  0  0  0  0  0  0  0  0  0
   49.9100   30.9480   39.5080 C   0  0  0  0  0  3  0  0  0  0  0  0
   49.9060   30.8920   38.4010 H   0  0  0  0  0  0  0  0  0  0  0  0
   48.6680   30.6010   40.0920 O   0  0  0  0  0  0  0  0  0  0  0  0
   44.5440   35.2330   44.2320 C   0  0  0  0  0  0  0  0  0  0  0  0
   44.7410   34.1930   43.3150 C   0  0  0  0  0  0  0  0  0  0  0  0
   45.3140   33.0270   43.7860 C   0  0  0  0  0  0  0  0  0  0  0  0
   45.6750   32.8910   45.0920 N   0  0  0  0  0  0  0  0  0  0  0  0
   45.4670   33.9310   45.9580 C   0  0  0  0  0  0  0  0  0  0  0  0
   44.9080   35.0760   45.5150 N   0  0  0  0  0  0  0  0  0  0  0  0
   44.1210   36.2120   44.0760 H   0  0  0  0  0  0  0  0  0  0  0  0
   45.4650   32.2200   43.0940 H   0  0  0  0  0  0  0  0  0  0  0  0
   45.7610   33.8010   46.9920 H   0  0  0  0  0  0  0  0  0  0  0  0
  1 27  1  0  0  0  0
  2  7  1  1  0  0  0
  2  1  1  0  0  0  0
  3  2  1  0  0  0  0
  4  3  1  0  0  0  0
  4 10  1  0  0  0  0
  4  5  1  0  0  0  0
  5 11  1  0  0  0  0
  5  6  1  0  0  0  0
  6  1  1  0  0  0  0
  6 14  1  0  0  0  0
  8  3  1  0  0  0  0
  9  3  1  0  0  0  0
 12  5  1  0  0  0  0
 13  6  1  0  0  0  0
 15 16  1  0  0  0  0
 16  2  1  0  0  0  0
 17 18  1  0  0  0  0
 17 16  2  0  0  0  0
 19 17  1  0  0  0  0
 20 19  2  0  0  0  0
 20 21  1  0  0  0  0
 21 15  2  0  0  0  0
 22 20  1  0  0  0  0
 23 22  1  0  0  0  0
 23 25  1  0  0  0  0
 24 23  1  0  0  0  0
 25 19  1  0  0  0  0
 26 31  1  0  0  0  0
 27 28  1  0  0  0  0
 27 26  2  0  0  0  0
 28 29  2  0  0  0  0
 29 30  1  0  0  0  0
 30 34  1  0  0  0  0
 31 30  2  0  0  0  0
 32 26  1  0  0  0  0
 33 28  1  0  0  0  0
M  END
>  <minimizedAffinity>
-4.70057917

>  <minimizedRMSD>
0.203966871

$$$$
