
 OpenBabel03242518253D

 47 52  0  0  1  0  0  0  0  0999 V2000
   46.5870   30.5650   44.4930 C   0  0  0  0  0  0  0  0  0  0  0  0
   46.1390   31.8110   44.7490 C   0  0  0  0  0  0  0  0  0  0  0  0
   46.4990   32.4080   45.9470 C   0  0  0  0  0  0  0  0  0  0  0  0
   47.2990   31.7300   46.8450 C   0  0  0  0  0  0  0  0  0  0  0  0
   47.7520   30.4520   46.5670 C   0  0  0  0  0  0  0  0  0  0  0  0
   47.3920   29.8530   45.3700 C   0  0  0  0  0  0  0  0  0  0  0  0
   48.5330   30.0240   47.6500 O   0  0  0  0  0  0  0  0  0  0  0  0
   48.2560   30.9040   48.7310 C   0  0  2  0  0  0  0  0  0  0  0  0
   47.8090   32.0830   48.1060 O   0  0  0  0  0  0  0  0  0  0  0  0
   46.3170   30.0720   43.5550 H   0  0  0  0  0  0  0  0  0  0  0  0
   46.1720   33.4120   46.2170 H   0  0  0  0  0  0  0  0  0  0  0  0
   47.7310   28.8490   45.1210 H   0  0  0  0  0  0  0  0  0  0  0  0
   47.3840   30.4290   49.2600 H   0  0  0  0  0  0  0  0  0  0  0  0
   50.0980   32.2430   49.6670 C   0  0  0  0  0  0  0  0  0  0  0  0
   49.3670   31.0880   49.6600 C   0  0  0  0  0  0  0  0  0  0  0  0
   49.6800   30.0750   50.5470 C   0  0  0  0  0  0  0  0  0  0  0  0
   49.1240   29.1370   50.5780 H   0  0  0  0  0  0  0  0  0  0  0  0
   50.7460   30.2790   51.4230 C   0  0  0  0  0  0  0  0  0  0  0  0
   51.4880   31.4420   51.4340 C   0  0  0  0  0  0  0  0  0  0  0  0
   51.1670   32.4510   50.5420 C   0  0  0  0  0  0  0  0  0  0  0  0
   52.4650   31.2940   52.4330 O   0  0  0  0  0  0  0  0  0  0  0  0
   51.9250   30.3330   53.3500 C   0  0  0  0  0  0  0  0  0  0  0  0
   52.6870   29.8420   53.9600 H   0  0  0  0  0  0  0  0  0  0  0  0
   51.2930   29.4540   52.4180 O   0  0  0  0  0  0  0  0  0  0  0  0
   44.4820   34.5160   42.8500 C   0  0  0  0  0  0  0  0  0  0  0  0
   43.6660   33.8070   41.9800 C   0  0  0  0  0  0  0  0  0  0  0  0
   43.6970   32.4230   42.0590 C   0  0  0  0  0  0  0  0  0  0  0  0
   44.5040   31.8140   42.9610 N   0  0  0  0  0  0  0  0  0  0  0  0
   45.2870   32.5340   43.7940 C   0  0  0  0  0  0  0  0  0  0  0  0
   45.2720   33.8700   43.7360 N   0  0  0  0  0  0  0  0  0  0  0  0
   44.5540   35.6110   42.8950 H   0  0  0  0  0  0  0  0  0  0  0  0
   43.0530   31.8880   41.3720 H   0  0  0  0  0  0  0  0  0  0  0  0
   42.8770   34.5670   41.0940 N   0  0  0  0  0  0  0  0  0  0  0  0
   43.0460   34.3470   39.6920 C   0  0  0  0  0  0  0  0  0  0  0  0
   42.2390   35.2480   38.8270 C   0  0  0  0  0  0  0  0  0  0  0  0
   40.8890   35.3780   39.2420 N   0  0  0  0  0  0  0  0  0  0  0  0
   40.6140   35.3430   40.6220 C   0  0  0  0  0  0  0  0  0  0  0  0
   41.8970   35.5640   41.4260 C   0  0  0  0  0  0  0  0  0  0  0  0
   42.7910   33.2940   39.4030 H   0  0  0  0  0  0  0  0  0  0  0  0
   44.1310   34.4590   39.4400 H   0  0  0  0  0  0  0  0  0  0  0  0
   42.2690   34.8760   37.7880 H   0  0  0  0  0  0  0  0  0  0  0  0
   42.7460   36.2560   38.8070 H   0  0  0  0  0  0  0  0  0  0  0  0
   40.4110   36.1270   38.6880 H   0  0  0  0  0  0  0  0  0  0  0  0
   39.8990   36.1540   40.8840 H   0  0  0  0  0  0  0  0  0  0  0  0
   40.1970   34.3800   40.9740 H   0  0  0  0  0  0  0  0  0  0  0  0
   41.5970   35.5150   42.4920 H   0  0  0  0  0  0  0  0  0  0  0  0
   42.2110   36.5970   41.2230 H   0  0  0  0  0  0  0  0  0  0  0  0
  1  2  2  0  0  0  0
  1  6  1  0  0  0  0
  2  3  1  0  0  0  0
  3 11  1  0  0  0  0
  3  4  2  0  0  0  0
  4  9  1  0  0  0  0
  5  4  1  0  0  0  0
  5  7  1  0  0  0  0
  6  5  2  0  0  0  0
  7  8  1  0  0  0  0
  8 13  1  1  0  0  0
  8 15  1  0  0  0  0
  9  8  1  0  0  0  0
 10  1  1  0  0  0  0
 12  6  1  0  0  0  0
 14 20  1  0  0  0  0
 15 14  2  0  0  0  0
 15 16  1  0  0  0  0
 16 17  1  0  0  0  0
 16 18  2  0  0  0  0
 18 19  1  0  0  0  0
 18 24  1  0  0  0  0
 19 21  1  0  0  0  0
 20 19  2  0  0  0  0
 21 22  1  0  0  0  0
 22 23  1  0  0  0  0
 24 22  1  0  0  0  0
 25 31  1  0  0  0  0
 25 30  1  0  0  0  0
 26 27  1  0  0  0  0
 26 25  2  0  0  0  0
 27 28  2  0  0  0  0
 28 29  1  0  0  0  0
 29  2  1  0  0  0  0
 30 29  2  0  0  0  0
 32 27  1  0  0  0  0
 33 38  1  0  0  0  0
 33 26  1  0  0  0  0
 34 33  1  0  0  0  0
 35 36  1  0  0  0  0
 35 34  1  0  0  0  0
 36 37  1  0  0  0  0
 37 44  1  0  0  0  0
 37 45  1  0  0  0  0
 37 38  1  0  0  0  0
 38 46  1  0  0  0  0
 39 34  1  0  0  0  0
 40 34  1  0  0  0  0
 41 35  1  0  0  0  0
 42 35  1  0  0  0  0
 43 36  1  0  0  0  0
 47 38  1  0  0  0  0
M  END
>  <minimizedAffinity>
-6.8380084

>  <minimizedRMSD>
0.773725927

$$$$
