
 OpenBabel03242510193D

 38 42  0  0  1  0  0  0  0  0999 V2000
   47.9210   33.1430   43.1430 N   0  0  0  0  0  0  0  0  0  0  0  0
   49.0430   33.1140   42.3330 C   0  0  0  0  0  0  0  0  0  0  0  0
   50.2360   32.7980   42.5960 O   0  0  0  0  0  0  0  0  0  0  0  0
   47.2940   33.9920   43.0490 H   0  0  0  0  0  0  0  0  0  0  0  0
   46.2600   32.2300   44.7390 C   0  0  1  0  0  0  0  0  0  0  0  0
   46.3410   31.2920   43.6820 C   0  0  0  0  0  0  0  0  0  0  0  0
   47.5890   32.1050   44.0690 C   0  0  1  0  0  0  0  0  0  0  0  0
   46.2450   31.9070   45.8170 H   0  0  0  0  0  0  0  0  0  0  0  0
   45.9630   31.4820   42.6660 H   0  0  0  0  0  0  0  0  0  0  0  0
   46.3980   30.1770   43.8680 H   0  0  0  0  0  0  0  0  0  0  0  0
   48.3890   31.4180   44.3530 H   0  0  0  0  0  0  0  0  0  0  0  0
   44.9820   33.8860   43.2230 C   0  0  0  0  0  0  0  0  0  0  0  0
   45.4870   33.5260   44.4940 C   0  0  0  0  0  0  0  0  0  0  0  0
   45.2820   34.3990   45.5320 C   0  0  0  0  0  0  0  0  0  0  0  0
   44.6110   35.5530   45.3010 N   0  0  0  0  0  0  0  0  0  0  0  0
   44.1320   35.8900   44.0850 C   0  0  0  0  0  0  0  0  0  0  0  0
   44.3260   35.0210   43.0060 N   0  0  0  0  0  0  0  0  0  0  0  0
   45.1210   33.2260   42.3850 H   0  0  0  0  0  0  0  0  0  0  0  0
   45.6300   34.2090   46.5330 H   0  0  0  0  0  0  0  0  0  0  0  0
   43.6030   36.7810   43.8550 H   0  0  0  0  0  0  0  0  0  0  0  0
   48.9240   33.5010   40.8660 C   0  0  2  0  0  0  0  0  0  0  0  0
   48.3750   34.9360   40.5730 C   0  0  0  0  0  0  0  0  0  0  0  0
   47.6330   33.6590   40.2170 C   0  0  1  0  0  0  0  0  0  0  0  0
   49.8460   33.3530   40.2520 H   0  0  0  0  0  0  0  0  0  0  0  0
   48.8570   35.5090   39.7610 H   0  0  0  0  0  0  0  0  0  0  0  0
   48.1220   35.5230   41.4520 H   0  0  0  0  0  0  0  0  0  0  0  0
   46.6620   33.6790   40.6770 H   0  0  0  0  0  0  0  0  0  0  0  0
   48.6830   33.2210   38.0090 C   0  0  0  0  0  0  0  0  0  0  0  0
   47.5220   33.3220   38.7510 C   0  0  0  0  0  0  0  0  0  0  0  0
   46.3490   33.0990   38.0620 C   0  0  0  0  0  0  0  0  0  0  0  0
   45.4370   33.1740   38.6320 H   0  0  0  0  0  0  0  0  0  0  0  0
   46.3630   32.7940   36.7180 C   0  0  0  0  0  0  0  0  0  0  0  0
   47.5400   32.7010   36.0060 C   0  0  0  0  0  0  0  0  0  0  0  0
   48.7430   32.9150   36.6440 C   0  0  0  0  0  0  0  0  0  0  0  0
   47.2070   32.3850   34.6960 O   0  0  0  0  0  0  0  0  0  0  0  0
   45.8370   32.0430   34.5950 C   0  0  0  0  0  0  0  0  0  0  0  0
   45.3500   32.5150   33.7240 H   0  0  0  0  0  0  0  0  0  0  0  0
   45.3320   32.5330   35.8240 O   0  0  0  0  0  0  0  0  0  0  0  0
  1  7  1  0  0  0  0
  2  3  2  0  0  0  0
  2  1  1  0  0  0  0
  4  1  1  0  0  0  0
  5  8  1  1  0  0  0
  6 10  1  0  0  0  0
  6  7  1  0  0  0  0
  6  5  1  0  0  0  0
  7 11  1  1  0  0  0
  7  5  1  0  0  0  0
  9  6  1  0  0  0  0
 12 13  1  0  0  0  0
 13  5  1  0  0  0  0
 13 14  2  0  0  0  0
 14 19  1  0  0  0  0
 15 14  1  0  0  0  0
 16 15  2  0  0  0  0
 17 12  2  0  0  0  0
 17 16  1  0  0  0  0
 18 12  1  0  0  0  0
 20 16  1  0  0  0  0
 21 24  1  6  0  0  0
 21  2  1  0  0  0  0
 22 21  1  0  0  0  0
 22 26  1  0  0  0  0
 23 22  1  0  0  0  0
 23 27  1  1  0  0  0
 23 21  1  0  0  0  0
 25 22  1  0  0  0  0
 28 29  1  0  0  0  0
 29 23  1  0  0  0  0
 30 31  1  0  0  0  0
 30 29  2  0  0  0  0
 32 30  1  0  0  0  0
 33 34  1  0  0  0  0
 33 32  2  0  0  0  0
 34 28  2  0  0  0  0
 35 33  1  0  0  0  0
 36 35  1  0  0  0  0
 36 38  1  0  0  0  0
 37 36  1  0  0  0  0
 38 32  1  0  0  0  0
M  END
>  <minimizedAffinity>
-5.1641798

>  <minimizedRMSD>
2.56612968

$$$$
