
 OpenBabel03252506413D

 42 46  0  0  1  0  0  0  0  0999 V2000
   48.9590   33.4640   41.0110 N   0  0  1  0  0  0  0  0  0  0  0  0
   50.1170   32.7760   41.5310 C   0  0  0  0  0  0  0  0  0  0  0  0
   50.4370   31.5290   40.7440 C   0  0  0  0  0  0  0  0  0  0  0  0
   49.3600   30.5210   41.0530 C   0  0  0  0  0  0  0  0  0  0  0  0
   48.0060   31.1910   41.0570 C   0  0  0  0  0  0  0  0  0  0  0  0
   48.0580   32.5180   40.3750 C   0  0  2  0  0  0  0  0  0  0  0  0
   50.9960   33.4460   41.6500 H   0  0  0  0  0  0  0  0  0  0  0  0
   49.8670   32.4200   42.5620 H   0  0  0  0  0  0  0  0  0  0  0  0
   50.5260   31.7610   39.6840 H   0  0  0  0  0  0  0  0  0  0  0  0
   51.4390   31.1990   41.0880 H   0  0  0  0  0  0  0  0  0  0  0  0
   49.5540   29.9720   41.9960 H   0  0  0  0  0  0  0  0  0  0  0  0
   49.3620   29.7570   40.2590 H   0  0  0  0  0  0  0  0  0  0  0  0
   47.2340   30.5870   40.5480 H   0  0  0  0  0  0  0  0  0  0  0  0
   47.7300   31.3830   42.1080 H   0  0  0  0  0  0  0  0  0  0  0  0
   47.0360   32.9740   40.5780 H   0  0  0  0  0  0  0  0  0  0  0  0
   48.3500   33.8060   38.4370 C   0  0  0  0  0  3  0  0  0  0  0  0
   48.1840   32.5000   38.9180 C   0  0  0  0  0  0  0  0  0  0  0  0
   48.1610   31.4930   38.0030 C   0  0  0  0  0  0  0  0  0  0  0  0
   48.0260   30.5280   38.4430 H   0  0  0  0  0  0  0  0  0  0  0  0
   48.2980   31.7460   36.6570 C   0  0  0  0  0  0  0  0  0  0  0  0
   48.4640   33.0080   36.1270 C   0  0  0  0  0  0  0  0  0  0  0  0
   48.4860   34.0370   37.0630 C   0  0  0  0  0  3  0  0  0  0  0  0
   48.5720   32.9490   34.7460 O   0  0  0  0  0  0  0  0  0  0  0  0
   48.1190   31.6720   34.3680 C   0  0  0  0  0  3  0  0  0  0  0  0
   48.8080   31.2640   33.6100 H   0  0  0  0  0  0  0  0  0  0  0  0
   48.3070   30.9040   35.5540 O   0  0  0  0  0  0  0  0  0  0  0  0
   47.0130   34.8570   41.9970 C   0  0  1  0  0  0  0  0  0  0  0  0
   48.2090   35.6580   41.8370 C   0  0  0  0  0  0  0  0  0  0  0  0
   48.3810   34.1940   42.0950 C   0  0  2  0  0  0  0  0  0  0  0  0
   46.4370   34.4330   41.1430 H   0  0  0  0  0  0  0  0  0  0  0  0
   48.3940   36.0450   40.7920 H   0  0  0  0  0  0  0  0  0  0  0  0
   48.5000   36.4070   42.5840 H   0  0  0  0  0  0  0  0  0  0  0  0
   48.6880   33.9430   43.1340 H   0  0  0  0  0  0  0  0  0  0  0  0
   45.3080   36.0000   43.4730 C   0  0  0  0  0  0  0  0  0  0  0  0
   46.1930   34.9160   43.2410 C   0  0  0  0  0  0  0  0  0  0  0  0
   46.2670   33.9270   44.2020 C   0  0  0  0  0  0  0  0  0  0  0  0
   45.4820   34.0630   45.3090 N   0  0  0  0  0  0  0  0  0  0  0  0
   44.6490   35.1010   45.5080 C   0  0  0  0  0  0  0  0  0  0  0  0
   44.5530   36.0840   44.5900 N   0  0  0  0  0  0  0  0  0  0  0  0
   45.2240   36.7960   42.7420 H   0  0  0  0  0  0  0  0  0  0  0  0
   46.9170   33.0800   44.0840 H   0  0  0  0  0  0  0  0  0  0  0  0
   44.0940   35.0540   46.4460 H   0  0  0  0  0  0  0  0  0  0  0  0
  1  2  1  1  0  0  0
  1 29  1  0  0  0  0
  2  7  1  0  0  0  0
  2  8  1  0  0  0  0
  3  4  1  0  0  0  0
  3 10  1  0  0  0  0
  3  2  1  0  0  0  0
  4  5  1  0  0  0  0
  4 11  1  0  0  0  0
  5 14  1  0  0  0  0
  6 15  1  1  0  0  0
  6  1  1  0  0  0  0
  6  5  1  0  0  0  0
  9  3  1  0  0  0  0
 12  4  1  0  0  0  0
 13  5  1  0  0  0  0
 16 17  1  0  0  0  0
 17  6  1  0  0  0  0
 18 19  1  0  0  0  0
 18 17  2  0  0  0  0
 20 18  1  0  0  0  0
 21 20  2  0  0  0  0
 21 22  1  0  0  0  0
 22 16  2  0  0  0  0
 23 21  1  0  0  0  0
 24 23  1  0  0  0  0
 24 26  1  0  0  0  0
 25 24  1  0  0  0  0
 26 20  1  0  0  0  0
 27 30  1  6  0  0  0
 27 29  1  0  0  0  0
 27 35  1  0  0  0  0
 28 27  1  0  0  0  0
 28 29  1  0  0  0  0
 28 32  1  0  0  0  0
 29 33  1  1  0  0  0
 31 28  1  0  0  0  0
 34 39  1  0  0  0  0
 35 34  2  0  0  0  0
 35 36  1  0  0  0  0
 36 37  2  0  0  0  0
 37 38  1  0  0  0  0
 38 42  1  0  0  0  0
 39 38  2  0  0  0  0
 40 34  1  0  0  0  0
 41 36  1  0  0  0  0
M  END
>  <minimizedAffinity>
-5.74239111

>  <minimizedRMSD>
1.93368316

$$$$
