
 OpenBabel03242520433D

 41 45  0  0  1  0  0  0  0  0999 V2000
   38.5180   28.2880   36.6820 C   0  0  0  0  0  0  0  0  0  0  0  0
   37.3570   28.2850   35.8640 C   0  0  0  0  0  0  0  0  0  0  0  0
   36.5560   29.4650   35.8390 C   0  0  0  0  0  0  0  0  0  0  0  0
   36.9360   30.5400   36.5940 N   0  0  0  0  0  0  0  0  0  0  0  0
   38.0560   30.4820   37.3560 C   0  0  0  0  0  0  0  0  0  0  0  0
   38.8300   29.3700   37.3950 N   0  0  0  0  0  0  0  0  0  0  0  0
   38.3710   31.6250   38.0990 N   0  0  0  0  0  0  0  0  0  0  0  0
   37.4610   32.1390   39.0690 C   0  0  2  0  0  0  0  0  0  0  0  0
   37.7930   33.4930   39.5890 C   0  0  0  0  0  0  0  0  0  0  0  0
   39.1600   33.8460   39.6330 N   0  0  0  0  0  0  0  0  0  0  0  0
   40.0530   32.8130   39.2400 C   0  0  0  0  0  0  0  0  0  0  0  0
   39.6330   32.3000   37.8880 C   0  0  0  0  0  0  0  0  0  0  0  0
   39.0660   27.3700   36.6490 H   0  0  0  0  0  0  0  0  0  0  0  0
   36.9960   27.4930   35.2500 H   0  0  0  0  0  0  0  0  0  0  0  0
   35.6620   29.5120   35.2310 H   0  0  0  0  0  0  0  0  0  0  0  0
   36.4850   32.2980   38.5100 H   0  0  0  0  0  0  0  0  0  0  0  0
   37.3980   33.5380   40.6450 H   0  0  0  0  0  0  0  0  0  0  0  0
   37.2560   34.3100   39.0650 H   0  0  0  0  0  0  0  0  0  0  0  0
   39.4510   34.4100   40.4600 H   0  0  0  0  0  0  0  0  0  0  0  0
   41.0570   33.3110   39.0800 H   0  0  0  0  0  0  0  0  0  0  0  0
   40.2280   32.0270   39.9760 H   0  0  0  0  0  0  0  0  0  0  0  0
   39.4180   33.1760   37.2650 H   0  0  0  0  0  0  0  0  0  0  0  0
   40.3740   31.6110   37.4290 H   0  0  0  0  0  0  0  0  0  0  0  0
   37.1810   31.1510   40.1460 C   0  0  0  0  0  0  0  0  0  0  0  0
   36.0790   30.9140   40.9300 C   0  0  0  0  0  0  0  0  0  0  0  0
   36.2780   29.8980   41.7740 N   0  0  0  0  0  0  0  0  0  0  0  0
   37.5150   29.4750   41.5350 C   0  0  0  0  0  0  0  0  0  0  0  0
   38.0590   30.2230   40.5600 N   0  0  0  0  0  0  0  0  0  0  0  0
   35.1630   31.4840   40.8710 H   0  0  0  0  0  0  0  0  0  0  0  0
   35.6290   29.4930   42.4830 H   0  0  0  0  0  0  0  0  0  0  0  0
   39.4280   28.5560   42.9080 C   0  0  0  0  0  3  0  0  0  0  0  0
   38.2840   28.3860   42.1530 C   0  0  0  0  0  0  0  0  0  0  0  0
   37.8210   27.1010   41.9620 C   0  0  0  0  0  0  0  0  0  0  0  0
   36.9300   26.9290   41.3790 H   0  0  0  0  0  0  0  0  0  0  0  0
   38.4610   25.9980   42.4960 C   0  0  0  0  0  0  0  0  0  0  0  0
   39.6170   26.1670   43.2560 C   0  0  0  0  0  0  0  0  0  0  0  0
   40.0710   27.4570   43.4420 C   0  0  0  0  0  3  0  0  0  0  0  0
   40.0710   24.9060   43.6800 O   0  0  0  0  0  0  0  0  0  0  0  0
   39.4890   24.0050   42.7270 C   0  0  0  0  0  3  0  0  0  0  0  0
   39.4320   23.0300   43.2100 H   0  0  0  0  0  0  0  0  0  0  0  0
   38.2390   24.6200   42.4740 O   0  0  0  0  0  0  0  0  0  0  0  0
  1  6  1  0  0  0  0
  2  1  2  0  0  0  0
  3  2  1  0  0  0  0
  3  4  2  0  0  0  0
  4  5  1  0  0  0  0
  5  6  2  0  0  0  0
  5  7  1  0  0  0  0
  7  8  1  0  0  0  0
  8 16  1  6  0  0  0
  8  9  1  0  0  0  0
  8 24  1  0  0  0  0
  9 10  1  0  0  0  0
  9 17  1  0  0  0  0
 10 19  1  0  0  0  0
 11 10  1  0  0  0  0
 11 21  1  0  0  0  0
 12  7  1  0  0  0  0
 12 11  1  0  0  0  0
 13  1  1  0  0  0  0
 14  2  1  0  0  0  0
 15  3  1  0  0  0  0
 18  9  1  0  0  0  0
 20 11  1  0  0  0  0
 22 12  1  0  0  0  0
 23 12  1  0  0  0  0
 24 28  1  0  0  0  0
 24 25  2  0  0  0  0
 25 26  1  0  0  0  0
 26 30  1  0  0  0  0
 27 26  1  0  0  0  0
 27 32  1  0  0  0  0
 28 27  2  0  0  0  0
 29 25  1  0  0  0  0
 31 37  1  0  0  0  0
 32 31  2  0  0  0  0
 33 32  1  0  0  0  0
 33 35  2  0  0  0  0
 34 33  1  0  0  0  0
 35 36  1  0  0  0  0
 36 37  2  0  0  0  0
 36 38  1  0  0  0  0
 39 40  1  0  0  0  0
 39 38  1  0  0  0  0
 41 35  1  0  0  0  0
 41 39  1  0  0  0  0
M  END
>  <minimizedAffinity>
-6.66459942

$$$$

 OpenBabel03242520433D

 41 45  0  0  1  0  0  0  0  0999 V2000
   42.1880   27.2240   41.5610 C   0  0  0  0  0  0  0  0  0  0  0  0
   42.7760   26.7220   42.7530 C   0  0  0  0  0  0  0  0  0  0  0  0
   42.0520   25.7380   43.4910 C   0  0  0  0  0  0  0  0  0  0  0  0
   40.8360   25.3220   43.0240 N   0  0  0  0  0  0  0  0  0  0  0  0
   40.3270   25.8390   41.8770 C   0  0  0  0  0  0  0  0  0  0  0  0
   40.9990   26.7750   41.1630 N   0  0  0  0  0  0  0  0  0  0  0  0
   39.0770   25.3590   41.4720 N   0  0  0  0  0  0  0  0  0  0  0  0
   37.9340   25.4980   42.3130 C   0  0  2  0  0  0  0  0  0  0  0  0
   36.7410   24.7170   41.8880 C   0  0  0  0  0  0  0  0  0  0  0  0
   36.5860   24.4840   40.5030 N   0  0  0  0  0  0  0  0  0  0  0  0
   37.5670   25.1040   39.6840 C   0  0  0  0  0  0  0  0  0  0  0  0
   38.9330   24.7140   40.1860 C   0  0  0  0  0  0  0  0  0  0  0  0
   42.7890   27.9560   41.0650 H   0  0  0  0  0  0  0  0  0  0  0  0
   43.7130   26.9930   43.1810 H   0  0  0  0  0  0  0  0  0  0  0  0
   42.4570   25.3250   44.4040 H   0  0  0  0  0  0  0  0  0  0  0  0
   38.2290   25.0220   43.3010 H   0  0  0  0  0  0  0  0  0  0  0  0
   35.8370   25.2940   42.2360 H   0  0  0  0  0  0  0  0  0  0  0  0
   36.6500   23.7380   42.4020 H   0  0  0  0  0  0  0  0  0  0  0  0
   35.6070   24.5200   40.1500 H   0  0  0  0  0  0  0  0  0  0  0  0
   37.4680   24.6260   38.6620 H   0  0  0  0  0  0  0  0  0  0  0  0
   37.4450   26.1750   39.5210 H   0  0  0  0  0  0  0  0  0  0  0  0
   38.9070   23.6350   40.3780 H   0  0  0  0  0  0  0  0  0  0  0  0
   39.7550   25.0140   39.5010 H   0  0  0  0  0  0  0  0  0  0  0  0
   37.6260   26.9250   42.6010 C   0  0  0  0  0  0  0  0  0  0  0  0
   37.0590   27.5570   43.6800 C   0  0  0  0  0  0  0  0  0  0  0  0
   36.9870   28.8790   43.5020 N   0  0  0  0  0  0  0  0  0  0  0  0
   37.5130   29.1040   42.3020 C   0  0  0  0  0  0  0  0  0  0  0  0
   37.8960   27.9360   41.7590 N   0  0  0  0  0  0  0  0  0  0  0  0
   36.7090   27.0440   44.5640 H   0  0  0  0  0  0  0  0  0  0  0  0
   36.6100   29.6110   44.1410 H   0  0  0  0  0  0  0  0  0  0  0  0
   36.7320   31.0020   40.8260 C   0  0  0  0  0  3  0  0  0  0  0  0
   37.7050   30.3630   41.5680 C   0  0  0  0  0  0  0  0  0  0  0  0
   38.9550   30.9440   41.6330 C   0  0  0  0  0  0  0  0  0  0  0  0
   39.7410   30.4730   42.2030 H   0  0  0  0  0  0  0  0  0  0  0  0
   39.2530   32.1270   40.9840 C   0  0  0  0  0  0  0  0  0  0  0  0
   38.2730   32.7740   40.2340 C   0  0  0  0  0  0  0  0  0  0  0  0
   37.0260   32.1840   40.1770 C   0  0  0  0  0  3  0  0  0  0  0  0
   38.8220   33.9440   39.6810 O   0  0  0  0  0  0  0  0  0  0  0  0
   40.2320   33.6810   39.6770 C   0  0  0  0  0  3  0  0  0  0  0  0
   40.7320   34.6490   39.6750 H   0  0  0  0  0  0  0  0  0  0  0  0
   40.3890   32.9310   40.8670 O   0  0  0  0  0  0  0  0  0  0  0  0
  1  2  1  0  0  0  0
  2 14  1  0  0  0  0
  2  3  2  0  0  0  0
  3 15  1  0  0  0  0
  4  3  1  0  0  0  0
  5  4  2  0  0  0  0
  6  1  2  0  0  0  0
  6  5  1  0  0  0  0
  7  5  1  0  0  0  0
  7  8  1  0  0  0  0
  8 24  1  0  0  0  0
  8 16  1  1  0  0  0
  9 17  1  0  0  0  0
  9  8  1  0  0  0  0
  9 18  1  0  0  0  0
 10  9  1  0  0  0  0
 11 12  1  0  0  0  0
 11 10  1  0  0  0  0
 12 22  1  0  0  0  0
 12  7  1  0  0  0  0
 13  1  1  0  0  0  0
 19 10  1  0  0  0  0
 20 11  1  0  0  0  0
 21 11  1  0  0  0  0
 23 12  1  0  0  0  0
 24 25  2  0  0  0  0
 25 29  1  0  0  0  0
 26 25  1  0  0  0  0
 26 30  1  0  0  0  0
 27 26  1  0  0  0  0
 28 27  2  0  0  0  0
 28 24  1  0  0  0  0
 31 32  1  0  0  0  0
 32 33  2  0  0  0  0
 32 27  1  0  0  0  0
 33 34  1  0  0  0  0
 35 33  1  0  0  0  0
 36 35  2  0  0  0  0
 37 36  1  0  0  0  0
 37 31  2  0  0  0  0
 38 36  1  0  0  0  0
 39 38  1  0  0  0  0
 39 41  1  0  0  0  0
 40 39  1  0  0  0  0
 41 35  1  0  0  0  0
M  END
>  <minimizedAffinity>
-6.5113349

$$$$

 OpenBabel03242520433D

 41 45  0  0  1  0  0  0  0  0999 V2000
   42.0310   29.4530   39.9630 C   0  0  0  0  0  0  0  0  0  0  0  0
   42.0950   28.7780   38.7150 C   0  0  0  0  0  0  0  0  0  0  0  0
   41.1450   29.1380   37.7130 C   0  0  0  0  0  0  0  0  0  0  0  0
   40.2230   30.1090   37.9920 N   0  0  0  0  0  0  0  0  0  0  0  0
   40.2120   30.7170   39.2040 C   0  0  0  0  0  0  0  0  0  0  0  0
   41.1050   30.3880   40.1700 N   0  0  0  0  0  0  0  0  0  0  0  0
   39.2340   31.6970   39.4070 N   0  0  0  0  0  0  0  0  0  0  0  0
   37.8490   31.3790   39.2980 C   0  0  2  0  0  0  0  0  0  0  0  0
   36.9330   32.5520   39.2700 C   0  0  0  0  0  0  0  0  0  0  0  0
   37.3500   33.7070   39.9690 N   0  0  0  0  0  0  0  0  0  0  0  0
   38.5710   33.5630   40.6810 C   0  0  0  0  0  0  0  0  0  0  0  0
   39.6240   33.0510   39.7330 C   0  0  0  0  0  0  0  0  0  0  0  0
   42.7730   29.1290   40.6620 H   0  0  0  0  0  0  0  0  0  0  0  0
   42.7790   28.0170   38.4210 H   0  0  0  0  0  0  0  0  0  0  0  0
   41.1530   28.6540   36.7460 H   0  0  0  0  0  0  0  0  0  0  0  0
   37.7270   30.9190   38.2670 H   0  0  0  0  0  0  0  0  0  0  0  0
   35.9600   32.2130   39.7280 H   0  0  0  0  0  0  0  0  0  0  0  0
   36.6530   32.8670   38.2440 H   0  0  0  0  0  0  0  0  0  0  0  0
   36.5940   34.2290   40.4610 H   0  0  0  0  0  0  0  0  0  0  0  0
   38.8960   34.6110   40.9610 H   0  0  0  0  0  0  0  0  0  0  0  0
   38.5150   33.0110   41.6190 H   0  0  0  0  0  0  0  0  0  0  0  0
   39.5340   33.6330   38.8090 H   0  0  0  0  0  0  0  0  0  0  0  0
   40.6490   33.0720   40.1610 H   0  0  0  0  0  0  0  0  0  0  0  0
   37.4370   30.3400   40.2800 C   0  0  0  0  0  0  0  0  0  0  0  0
   36.8100   30.4070   41.5000 C   0  0  0  0  0  0  0  0  0  0  0  0
   36.6300   29.1950   42.0340 N   0  0  0  0  0  0  0  0  0  0  0  0
   37.1420   28.3400   41.1550 C   0  0  0  0  0  0  0  0  0  0  0  0
   37.6270   29.0220   40.1030 N   0  0  0  0  0  0  0  0  0  0  0  0
   36.5040   31.3290   41.9710 H   0  0  0  0  0  0  0  0  0  0  0  0
   36.1870   28.9340   42.9410 H   0  0  0  0  0  0  0  0  0  0  0  0
   37.0180   26.0990   42.3180 C   0  0  0  0  0  3  0  0  0  0  0  0
   37.2310   26.8740   41.1950 C   0  0  0  0  0  0  0  0  0  0  0  0
   37.5490   26.2310   40.0160 C   0  0  0  0  0  0  0  0  0  0  0  0
   37.7220   26.8030   39.1180 H   0  0  0  0  0  0  0  0  0  0  0  0
   37.6600   24.8560   39.9330 C   0  0  0  0  0  0  0  0  0  0  0  0
   37.4470   24.0720   41.0660 C   0  0  0  0  0  0  0  0  0  0  0  0
   37.1280   24.7260   42.2380 C   0  0  0  0  0  3  0  0  0  0  0  0
   37.6180   22.7190   40.7220 O   0  0  0  0  0  0  0  0  0  0  0  0
   38.4400   22.7750   39.5480 C   0  0  0  0  0  3  0  0  0  0  0  0
   38.2630   21.8520   38.9960 H   0  0  0  0  0  0  0  0  0  0  0  0
   37.9600   23.9480   38.9150 O   0  0  0  0  0  0  0  0  0  0  0  0
  1  6  1  0  0  0  0
  1 13  1  0  0  0  0
  2  1  2  0  0  0  0
  3  4  2  0  0  0  0
  3  2  1  0  0  0  0
  4  5  1  0  0  0  0
  5  7  1  0  0  0  0
  5  6  2  0  0  0  0
  7 12  1  0  0  0  0
  8 16  1  6  0  0  0
  8  7  1  0  0  0  0
  8 24  1  0  0  0  0
  9  8  1  0  0  0  0
  9 17  1  0  0  0  0
  9 10  1  0  0  0  0
 10 19  1  0  0  0  0
 10 11  1  0  0  0  0
 11 20  1  0  0  0  0
 11 21  1  0  0  0  0
 12 23  1  0  0  0  0
 12 11  1  0  0  0  0
 14  2  1  0  0  0  0
 15  3  1  0  0  0  0
 18  9  1  0  0  0  0
 22 12  1  0  0  0  0
 24 25  2  0  0  0  0
 25 29  1  0  0  0  0
 25 26  1  0  0  0  0
 26 30  1  0  0  0  0
 27 32  1  0  0  0  0
 27 26  1  0  0  0  0
 28 24  1  0  0  0  0
 28 27  2  0  0  0  0
 32 31  2  0  0  0  0
 33 32  1  0  0  0  0
 34 33  1  0  0  0  0
 35 33  2  0  0  0  0
 35 36  1  0  0  0  0
 36 37  2  0  0  0  0
 37 31  1  0  0  0  0
 38 36  1  0  0  0  0
 39 38  1  0  0  0  0
 40 39  1  0  0  0  0
 41 39  1  0  0  0  0
 41 35  1  0  0  0  0
M  END
>  <minimizedAffinity>
-6.20099306

$$$$

 OpenBabel03242520433D

 41 45  0  0  1  0  0  0  0  0999 V2000
   38.4160   31.7570   38.3690 C   0  0  0  0  0  0  0  0  0  0  0  0
   37.4680   32.4430   39.1730 C   0  0  0  0  0  0  0  0  0  0  0  0
   37.9290   33.5450   39.9530 C   0  0  0  0  0  0  0  0  0  0  0  0
   39.2500   33.8920   39.8950 N   0  0  0  0  0  0  0  0  0  0  0  0
   40.1080   33.1970   39.1070 C   0  0  0  0  0  0  0  0  0  0  0  0
   39.6900   32.1460   38.3590 N   0  0  0  0  0  0  0  0  0  0  0  0
   41.4430   33.6180   39.1070 N   0  0  0  0  0  0  0  0  0  0  0  0
   42.2020   33.6350   40.3140 C   0  0  2  0  0  0  0  0  0  0  0  0
   43.5050   34.3480   40.2270 C   0  0  0  0  0  0  0  0  0  0  0  0
   44.1550   34.3490   38.9720 N   0  0  0  0  0  0  0  0  0  0  0  0
   43.5010   33.5880   37.9650 C   0  0  0  0  0  0  0  0  0  0  0  0
   42.0670   34.0410   37.8730 C   0  0  0  0  0  0  0  0  0  0  0  0
   37.9970   30.9450   37.8140 H   0  0  0  0  0  0  0  0  0  0  0  0
   36.4280   32.2360   39.2730 H   0  0  0  0  0  0  0  0  0  0  0  0
   37.2450   34.1000   40.5820 H   0  0  0  0  0  0  0  0  0  0  0  0
   41.5980   34.2650   41.0390 H   0  0  0  0  0  0  0  0  0  0  0  0
   44.1960   33.8480   40.9650 H   0  0  0  0  0  0  0  0  0  0  0  0
   43.4550   35.4000   40.5760 H   0  0  0  0  0  0  0  0  0  0  0  0
   45.1930   34.2650   39.0050 H   0  0  0  0  0  0  0  0  0  0  0  0
   43.9810   33.8900   36.9850 H   0  0  0  0  0  0  0  0  0  0  0  0
   43.6200   32.5070   38.0310 H   0  0  0  0  0  0  0  0  0  0  0  0
   42.0750   35.1360   37.8870 H   0  0  0  0  0  0  0  0  0  0  0  0
   41.5290   33.6200   36.9970 H   0  0  0  0  0  0  0  0  0  0  0  0
   42.3170   32.2800   40.9180 C   0  0  0  0  0  0  0  0  0  0  0  0
   43.3910   31.4770   41.2080 C   0  0  0  0  0  0  0  0  0  0  0  0
   43.0150   30.3230   41.7670 N   0  0  0  0  0  0  0  0  0  0  0  0
   41.6890   30.3800   41.8390 C   0  0  0  0  0  0  0  0  0  0  0  0
   41.2670   31.5510   41.3310 N   0  0  0  0  0  0  0  0  0  0  0  0
   44.4180   31.7460   41.0060 H   0  0  0  0  0  0  0  0  0  0  0  0
   43.6020   29.5250   42.0910 H   0  0  0  0  0  0  0  0  0  0  0  0
   41.0520   28.1980   42.9440 C   0  0  0  0  0  3  0  0  0  0  0  0
   40.7210   29.4050   42.3610 C   0  0  0  0  0  0  0  0  0  0  0  0
   39.3840   29.7290   42.2590 C   0  0  0  0  0  0  0  0  0  0  0  0
   39.0880   30.6640   41.8100 H   0  0  0  0  0  0  0  0  0  0  0  0
   38.3850   28.8900   42.7160 C   0  0  0  0  0  0  0  0  0  0  0  0
   38.7160   27.6710   43.3030 C   0  0  0  0  0  0  0  0  0  0  0  0
   40.0570   27.3580   43.4010 C   0  0  0  0  0  3  0  0  0  0  0  0
   37.5330   27.0110   43.6800 O   0  0  0  0  0  0  0  0  0  0  0  0
   36.5380   27.6030   42.8340 C   0  0  0  0  0  3  0  0  0  0  0  0
   35.5800   27.4730   43.3370 H   0  0  0  0  0  0  0  0  0  0  0  0
   36.9900   28.9430   42.7490 O   0  0  0  0  0  0  0  0  0  0  0  0
  1  2  1  0  0  0  0
  2 14  1  0  0  0  0
  2  3  2  0  0  0  0
  3 15  1  0  0  0  0
  4  3  1  0  0  0  0
  5  7  1  0  0  0  0
  5  4  2  0  0  0  0
  6  1  2  0  0  0  0
  6  5  1  0  0  0  0
  7  8  1  0  0  0  0
  8 24  1  0  0  0  0
  8 16  1  1  0  0  0
  9  8  1  0  0  0  0
  9 18  1  0  0  0  0
  9 17  1  0  0  0  0
 10 19  1  0  0  0  0
 10  9  1  0  0  0  0
 11 21  1  0  0  0  0
 11 10  1  0  0  0  0
 12 22  1  0  0  0  0
 12 11  1  0  0  0  0
 12  7  1  0  0  0  0
 13  1  1  0  0  0  0
 20 11  1  0  0  0  0
 23 12  1  0  0  0  0
 24 25  2  0  0  0  0
 24 28  1  0  0  0  0
 25 26  1  0  0  0  0
 26 27  1  0  0  0  0
 26 30  1  0  0  0  0
 27 32  1  0  0  0  0
 28 27  2  0  0  0  0
 29 25  1  0  0  0  0
 31 37  1  0  0  0  0
 32 31  2  0  0  0  0
 33 32  1  0  0  0  0
 33 35  2  0  0  0  0
 34 33  1  0  0  0  0
 35 41  1  0  0  0  0
 35 36  1  0  0  0  0
 36 37  2  0  0  0  0
 36 38  1  0  0  0  0
 39 40  1  0  0  0  0
 39 38  1  0  0  0  0
 41 39  1  0  0  0  0
M  END
>  <minimizedAffinity>
-6.12497807

$$$$

 OpenBabel03242520433D

 41 45  0  0  1  0  0  0  0  0999 V2000
   38.6830   25.4560   39.5340 C   0  0  0  0  0  0  0  0  0  0  0  0
   39.7620   25.2270   40.4280 C   0  0  0  0  0  0  0  0  0  0  0  0
   39.9820   26.1810   41.4670 C   0  0  0  0  0  0  0  0  0  0  0  0
   39.1520   27.2640   41.5580 N   0  0  0  0  0  0  0  0  0  0  0  0
   38.1370   27.4270   40.6730 C   0  0  0  0  0  0  0  0  0  0  0  0
   37.9130   26.5330   39.6780 N   0  0  0  0  0  0  0  0  0  0  0  0
   37.3370   28.5640   40.8370 N   0  0  0  0  0  0  0  0  0  0  0  0
   37.9050   29.8700   40.7790 C   0  0  2  0  0  0  0  0  0  0  0  0
   37.0070   30.9670   41.2310 C   0  0  0  0  0  0  0  0  0  0  0  0
   35.6190   30.7810   41.0410 N   0  0  0  0  0  0  0  0  0  0  0  0
   35.2690   29.5830   40.3610 C   0  0  0  0  0  0  0  0  0  0  0  0
   35.9160   28.4200   41.0660 C   0  0  0  0  0  0  0  0  0  0  0  0
   38.5830   24.7000   38.7840 H   0  0  0  0  0  0  0  0  0  0  0  0
   40.4490   24.4130   40.4250 H   0  0  0  0  0  0  0  0  0  0  0  0
   40.7900   26.0510   42.1730 H   0  0  0  0  0  0  0  0  0  0  0  0
   38.7370   29.8700   41.5500 H   0  0  0  0  0  0  0  0  0  0  0  0
   37.3060   31.8880   40.6530 H   0  0  0  0  0  0  0  0  0  0  0  0
   37.1610   31.2530   42.2920 H   0  0  0  0  0  0  0  0  0  0  0  0
   35.0860   31.6330   40.7670 H   0  0  0  0  0  0  0  0  0  0  0  0
   34.1540   29.4510   40.5130 H   0  0  0  0  0  0  0  0  0  0  0  0
   35.4210   29.5850   39.2810 H   0  0  0  0  0  0  0  0  0  0  0  0
   35.7570   28.5680   42.1400 H   0  0  0  0  0  0  0  0  0  0  0  0
   35.5580   27.4320   40.7060 H   0  0  0  0  0  0  0  0  0  0  0  0
   38.5420   30.1420   39.4620 C   0  0  0  0  0  0  0  0  0  0  0  0
   38.0580   30.1570   38.1780 C   0  0  0  0  0  0  0  0  0  0  0  0
   39.0070   30.4700   37.2910 N   0  0  0  0  0  0  0  0  0  0  0  0
   40.1110   30.6590   38.0060 C   0  0  0  0  0  0  0  0  0  0  0  0
   39.8370   30.4630   39.3070 N   0  0  0  0  0  0  0  0  0  0  0  0
   37.0320   29.9390   37.9170 H   0  0  0  0  0  0  0  0  0  0  0  0
   38.9380   30.5580   36.2550 H   0  0  0  0  0  0  0  0  0  0  0  0
   42.1110   32.2030   37.9050 C   0  0  0  0  0  3  0  0  0  0  0  0
   41.4700   31.0240   37.5800 C   0  0  0  0  0  0  0  0  0  0  0  0
   42.1500   30.1130   36.7980 C   0  0  0  0  0  0  0  0  0  0  0  0
   41.6810   29.1800   36.5240 H   0  0  0  0  0  0  0  0  0  0  0  0
   43.4320   30.3460   36.3390 C   0  0  0  0  0  0  0  0  0  0  0  0
   44.0810   31.5360   36.6640 C   0  0  0  0  0  0  0  0  0  0  0  0
   43.3910   32.4390   37.4480 C   0  0  0  0  0  3  0  0  0  0  0  0
   45.3600   31.5310   36.0820 O   0  0  0  0  0  0  0  0  0  0  0  0
   45.2320   30.5950   35.0030 C   0  0  0  0  0  3  0  0  0  0  0  0
   46.2330   30.2230   34.7890 H   0  0  0  0  0  0  0  0  0  0  0  0
   44.3450   29.6380   35.5550 O   0  0  0  0  0  0  0  0  0  0  0  0
  1  6  2  0  0  0  0
  1  2  1  0  0  0  0
  2  3  2  0  0  0  0
  3  4  1  0  0  0  0
  3 15  1  0  0  0  0
  5  7  1  0  0  0  0
  5  4  2  0  0  0  0
  6  5  1  0  0  0  0
  7 12  1  0  0  0  0
  8  7  1  0  0  0  0
  8  9  1  0  0  0  0
  8 16  1  1  0  0  0
  9 18  1  0  0  0  0
 10  9  1  0  0  0  0
 11 20  1  0  0  0  0
 11 10  1  0  0  0  0
 11 12  1  0  0  0  0
 12 22  1  0  0  0  0
 13  1  1  0  0  0  0
 14  2  1  0  0  0  0
 17  9  1  0  0  0  0
 19 10  1  0  0  0  0
 21 11  1  0  0  0  0
 23 12  1  0  0  0  0
 24  8  1  0  0  0  0
 25 24  2  0  0  0  0
 26 27  1  0  0  0  0
 26 25  1  0  0  0  0
 27 28  2  0  0  0  0
 28 24  1  0  0  0  0
 29 25  1  0  0  0  0
 30 26  1  0  0  0  0
 32 31  1  0  0  0  0
 32 27  1  0  0  0  0
 33 32  2  0  0  0  0
 34 33  1  0  0  0  0
 35 36  2  0  0  0  0
 35 33  1  0  0  0  0
 36 37  1  0  0  0  0
 37 31  2  0  0  0  0
 38 36  1  0  0  0  0
 39 41  1  0  0  0  0
 39 38  1  0  0  0  0
 40 39  1  0  0  0  0
 41 35  1  0  0  0  0
M  END
>  <minimizedAffinity>
-5.93106222

$$$$

 OpenBabel03242520433D

 41 45  0  0  1  0  0  0  0  0999 V2000
   39.5290   25.0830   40.7160 C   0  0  0  0  0  0  0  0  0  0  0  0
   39.0190   24.2210   41.7220 C   0  0  0  0  0  0  0  0  0  0  0  0
   37.6780   24.4310   42.1640 C   0  0  0  0  0  0  0  0  0  0  0  0
   36.9470   25.4430   41.6050 N   0  0  0  0  0  0  0  0  0  0  0  0
   37.4910   26.2340   40.6470 C   0  0  0  0  0  0  0  0  0  0  0  0
   38.7630   26.0520   40.2150 N   0  0  0  0  0  0  0  0  0  0  0  0
   36.6750   27.2470   40.1310 N   0  0  0  0  0  0  0  0  0  0  0  0
   36.1360   28.2550   40.9830 C   0  0  2  0  0  0  0  0  0  0  0  0
   35.0810   29.1040   40.3650 C   0  0  0  0  0  0  0  0  0  0  0  0
   35.1610   29.3130   38.9700 N   0  0  0  0  0  0  0  0  0  0  0  0
   36.3020   28.7380   38.3480 C   0  0  0  0  0  0  0  0  0  0  0  0
   36.3700   27.2790   38.7170 C   0  0  0  0  0  0  0  0  0  0  0  0
   40.5380   24.8650   40.4370 H   0  0  0  0  0  0  0  0  0  0  0  0
   39.5200   23.4140   42.2040 H   0  0  0  0  0  0  0  0  0  0  0  0
   37.2440   23.8000   42.9270 H   0  0  0  0  0  0  0  0  0  0  0  0
   35.5840   27.6930   41.8000 H   0  0  0  0  0  0  0  0  0  0  0  0
   35.1470   30.1140   40.8620 H   0  0  0  0  0  0  0  0  0  0  0  0
   34.0510   28.7590   40.5900 H   0  0  0  0  0  0  0  0  0  0  0  0
   34.8960   30.2660   38.6440 H   0  0  0  0  0  0  0  0  0  0  0  0
   36.0970   28.7630   37.2340 H   0  0  0  0  0  0  0  0  0  0  0  0
   37.2420   29.2730   38.4860 H   0  0  0  0  0  0  0  0  0  0  0  0
   35.3590   26.8730   38.6070 H   0  0  0  0  0  0  0  0  0  0  0  0
   37.1320   26.7140   38.1390 H   0  0  0  0  0  0  0  0  0  0  0  0
   37.2030   29.0460   41.6530 C   0  0  0  0  0  0  0  0  0  0  0  0
   37.7160   29.0290   42.9260 C   0  0  0  0  0  0  0  0  0  0  0  0
   38.6930   29.9270   43.0820 N   0  0  0  0  0  0  0  0  0  0  0  0
   38.8140   30.5270   41.9030 C   0  0  0  0  0  0  0  0  0  0  0  0
   37.9230   30.0020   41.0440 N   0  0  0  0  0  0  0  0  0  0  0  0
   37.3680   28.3700   43.7080 H   0  0  0  0  0  0  0  0  0  0  0  0
   39.2630   30.1410   43.9280 H   0  0  0  0  0  0  0  0  0  0  0  0
   39.3370   32.7340   40.7860 C   0  0  0  0  0  3  0  0  0  0  0  0
   39.7230   31.5970   41.4690 C   0  0  0  0  0  0  0  0  0  0  0  0
   41.0610   31.4480   41.7710 C   0  0  0  0  0  0  0  0  0  0  0  0
   41.3990   30.5730   42.3040 H   0  0  0  0  0  0  0  0  0  0  0  0
   42.0070   32.3890   41.4150 C   0  0  0  0  0  0  0  0  0  0  0  0
   41.6210   33.5370   40.7250 C   0  0  0  0  0  0  0  0  0  0  0  0
   40.2800   33.6760   40.4280 C   0  0  0  0  0  3  0  0  0  0  0  0
   42.7580   34.3270   40.4820 O   0  0  0  0  0  0  0  0  0  0  0  0
   43.8390   33.3870   40.5570 C   0  0  0  0  0  3  0  0  0  0  0  0
   44.7340   33.9570   40.8050 H   0  0  0  0  0  0  0  0  0  0  0  0
   43.3890   32.5110   41.5760 O   0  0  0  0  0  0  0  0  0  0  0  0
  1  2  1  0  0  0  0
  2  3  2  0  0  0  0
  2 14  1  0  0  0  0
  3 15  1  0  0  0  0
  4  3  1  0  0  0  0
  5  4  2  0  0  0  0
  6  5  1  0  0  0  0
  6  1  2  0  0  0  0
  7  5  1  0  0  0  0
  7  8  1  0  0  0  0
  8 24  1  0  0  0  0
  8 16  1  1  0  0  0
  9 18  1  0  0  0  0
  9 17  1  0  0  0  0
  9  8  1  0  0  0  0
 10  9  1  0  0  0  0
 11 21  1  0  0  0  0
 11 12  1  0  0  0  0
 11 10  1  0  0  0  0
 12  7  1  0  0  0  0
 13  1  1  0  0  0  0
 19 10  1  0  0  0  0
 20 11  1  0  0  0  0
 22 12  1  0  0  0  0
 23 12  1  0  0  0  0
 24 25  2  0  0  0  0
 25 26  1  0  0  0  0
 25 29  1  0  0  0  0
 26 30  1  0  0  0  0
 27 26  1  0  0  0  0
 28 24  1  0  0  0  0
 28 27  2  0  0  0  0
 31 32  1  0  0  0  0
 32 33  2  0  0  0  0
 32 27  1  0  0  0  0
 33 34  1  0  0  0  0
 35 41  1  0  0  0  0
 35 33  1  0  0  0  0
 36 35  2  0  0  0  0
 37 36  1  0  0  0  0
 37 31  2  0  0  0  0
 38 39  1  0  0  0  0
 38 36  1  0  0  0  0
 39 40  1  0  0  0  0
 39 41  1  0  0  0  0
M  END
>  <minimizedAffinity>
-5.90099335

$$$$

 OpenBabel03242520433D

 41 45  0  0  1  0  0  0  0  0999 V2000
   38.8820   25.8880   39.4930 C   0  0  0  0  0  0  0  0  0  0  0  0
   38.2160   24.8290   40.1640 C   0  0  0  0  0  0  0  0  0  0  0  0
   36.8250   24.6460   39.9050 C   0  0  0  0  0  0  0  0  0  0  0  0
   36.1970   25.4880   39.0280 N   0  0  0  0  0  0  0  0  0  0  0  0
   36.8890   26.4820   38.4180 C   0  0  0  0  0  0  0  0  0  0  0  0
   38.2110   26.6730   38.6520 N   0  0  0  0  0  0  0  0  0  0  0  0
   36.1700   27.2990   37.5380 N   0  0  0  0  0  0  0  0  0  0  0  0
   35.0450   28.0470   37.9920 C   0  0  2  0  0  0  0  0  0  0  0  0
   34.2170   28.6550   36.9150 C   0  0  0  0  0  0  0  0  0  0  0  0
   34.8810   29.0140   35.7200 N   0  0  0  0  0  0  0  0  0  0  0  0
   36.2880   28.8140   35.7390 C   0  0  0  0  0  0  0  0  0  0  0  0
   36.5670   27.3910   36.1500 C   0  0  0  0  0  0  0  0  0  0  0  0
   39.9200   25.9620   39.7370 H   0  0  0  0  0  0  0  0  0  0  0  0
   38.6300   24.1340   40.8560 H   0  0  0  0  0  0  0  0  0  0  0  0
   36.2730   23.8530   40.3910 H   0  0  0  0  0  0  0  0  0  0  0  0
   34.3500   27.2860   38.4660 H   0  0  0  0  0  0  0  0  0  0  0  0
   33.7660   29.5950   37.3450 H   0  0  0  0  0  0  0  0  0  0  0  0
   33.3390   28.0390   36.6340 H   0  0  0  0  0  0  0  0  0  0  0  0
   34.5520   29.8960   35.2720 H   0  0  0  0  0  0  0  0  0  0  0  0
   36.6310   28.8950   34.6630 H   0  0  0  0  0  0  0  0  0  0  0  0
   36.8680   29.5550   36.2900 H   0  0  0  0  0  0  0  0  0  0  0  0
   35.8790   26.7540   35.5850 H   0  0  0  0  0  0  0  0  0  0  0  0
   37.6320   27.0990   36.0260 H   0  0  0  0  0  0  0  0  0  0  0  0
   35.4140   29.0140   39.0600 C   0  0  0  0  0  0  0  0  0  0  0  0
   34.9410   29.2240   40.3320 C   0  0  0  0  0  0  0  0  0  0  0  0
   35.5920   30.2150   40.9480 N   0  0  0  0  0  0  0  0  0  0  0  0
   36.4920   30.6480   40.0710 C   0  0  0  0  0  0  0  0  0  0  0  0
   36.3880   29.9310   38.9390 N   0  0  0  0  0  0  0  0  0  0  0  0
   34.1370   28.6580   40.7770 H   0  0  0  0  0  0  0  0  0  0  0  0
   35.4550   30.5960   41.9090 H   0  0  0  0  0  0  0  0  0  0  0  0
   37.2870   33.0350   39.8270 C   0  0  0  0  0  3  0  0  0  0  0  0
   37.4930   31.7170   40.1850 C   0  0  0  0  0  0  0  0  0  0  0  0
   38.7300   31.3710   40.6890 C   0  0  0  0  0  0  0  0  0  0  0  0
   38.9280   30.3510   40.9800 H   0  0  0  0  0  0  0  0  0  0  0  0
   39.7490   32.2920   40.8420 C   0  0  0  0  0  0  0  0  0  0  0  0
   39.5430   33.6220   40.4810 C   0  0  0  0  0  0  0  0  0  0  0  0
   38.3020   33.9570   39.9780 C   0  0  0  0  0  3  0  0  0  0  0  0
   40.7200   34.3490   40.7300 O   0  0  0  0  0  0  0  0  0  0  0  0
   41.7410   33.3410   40.7260 C   0  0  0  0  0  3  0  0  0  0  0  0
   42.5710   33.7320   41.3140 H   0  0  0  0  0  0  0  0  0  0  0  0
   41.0640   32.2420   41.3090 O   0  0  0  0  0  0  0  0  0  0  0  0
  1 13  1  0  0  0  0
  1  2  1  0  0  0  0
  2 14  1  0  0  0  0
  3  2  2  0  0  0  0
  3 15  1  0  0  0  0
  4  3  1  0  0  0  0
  5  6  1  0  0  0  0
  5  4  2  0  0  0  0
  6  1  2  0  0  0  0
  7  8  1  0  0  0  0
  7  5  1  0  0  0  0
  8 16  1  1  0  0  0
  8 24  1  0  0  0  0
  9 17  1  0  0  0  0
  9  8  1  0  0  0  0
 10 11  1  0  0  0  0
 10  9  1  0  0  0  0
 11 12  1  0  0  0  0
 11 21  1  0  0  0  0
 12  7  1  0  0  0  0
 18  9  1  0  0  0  0
 19 10  1  0  0  0  0
 20 11  1  0  0  0  0
 22 12  1  0  0  0  0
 23 12  1  0  0  0  0
 24 25  2  0  0  0  0
 25 29  1  0  0  0  0
 25 26  1  0  0  0  0
 26 30  1  0  0  0  0
 27 32  1  0  0  0  0
 27 26  1  0  0  0  0
 28 24  1  0  0  0  0
 28 27  2  0  0  0  0
 31 37  2  0  0  0  0
 31 32  1  0  0  0  0
 32 33  2  0  0  0  0
 33 35  1  0  0  0  0
 33 34  1  0  0  0  0
 35 41  1  0  0  0  0
 36 38  1  0  0  0  0
 36 35  2  0  0  0  0
 37 36  1  0  0  0  0
 39 38  1  0  0  0  0
 39 41  1  0  0  0  0
 39 40  1  0  0  0  0
M  END
>  <minimizedAffinity>
-5.87851

$$$$

 OpenBabel03242520433D

 41 45  0  0  1  0  0  0  0  0999 V2000
   36.9340   24.6630   42.1190 C   0  0  0  0  0  0  0  0  0  0  0  0
   37.4940   23.8770   41.0780 C   0  0  0  0  0  0  0  0  0  0  0  0
   38.4460   24.4950   40.2140 C   0  0  0  0  0  0  0  0  0  0  0  0
   38.7780   25.8060   40.4220 N   0  0  0  0  0  0  0  0  0  0  0  0
   38.2080   26.5050   41.4350 C   0  0  0  0  0  0  0  0  0  0  0  0
   37.3000   25.9360   42.2660 N   0  0  0  0  0  0  0  0  0  0  0  0
   38.6010   27.8400   41.5770 N   0  0  0  0  0  0  0  0  0  0  0  0
   38.4090   28.7740   40.5170 C   0  0  2  0  0  0  0  0  0  0  0  0
   39.1070   30.0770   40.6920 C   0  0  0  0  0  0  0  0  0  0  0  0
   39.3020   30.5280   42.0170 N   0  0  0  0  0  0  0  0  0  0  0  0
   38.7270   29.6980   43.0170 C   0  0  0  0  0  0  0  0  0  0  0  0
   39.2100   28.2870   42.8100 C   0  0  0  0  0  0  0  0  0  0  0  0
   36.2300   24.1320   42.7230 H   0  0  0  0  0  0  0  0  0  0  0  0
   37.2900   22.8560   40.8500 H   0  0  0  0  0  0  0  0  0  0  0  0
   38.9020   23.9390   39.4060 H   0  0  0  0  0  0  0  0  0  0  0  0
   38.9230   28.3140   39.6150 H   0  0  0  0  0  0  0  0  0  0  0  0
   38.4820   30.8510   40.1600 H   0  0  0  0  0  0  0  0  0  0  0  0
   40.0890   30.1230   40.1770 H   0  0  0  0  0  0  0  0  0  0  0  0
   39.1980   31.5540   42.1600 H   0  0  0  0  0  0  0  0  0  0  0  0
   39.1770   30.0360   44.0000 H   0  0  0  0  0  0  0  0  0  0  0  0
   37.6470   29.7820   43.1430 H   0  0  0  0  0  0  0  0  0  0  0  0
   40.2890   28.3410   42.6240 H   0  0  0  0  0  0  0  0  0  0  0  0
   38.9470   27.6050   43.6470 H   0  0  0  0  0  0  0  0  0  0  0  0
   36.9730   28.9240   40.1610 C   0  0  0  0  0  0  0  0  0  0  0  0
   35.8440   29.1420   40.9120 C   0  0  0  0  0  0  0  0  0  0  0  0
   34.7480   29.2200   40.1520 N   0  0  0  0  0  0  0  0  0  0  0  0
   35.1690   29.0520   38.9030 C   0  0  0  0  0  0  0  0  0  0  0  0
   36.5010   28.8740   38.9050 N   0  0  0  0  0  0  0  0  0  0  0  0
   35.8440   29.2360   41.9880 H   0  0  0  0  0  0  0  0  0  0  0  0
   33.7580   29.3780   40.4380 H   0  0  0  0  0  0  0  0  0  0  0  0
   34.9890   29.0130   36.3820 C   0  0  0  0  0  3  0  0  0  0  0  0
   34.4190   29.0410   37.6390 C   0  0  0  0  0  0  0  0  0  0  0  0
   33.0420   29.0570   37.7250 C   0  0  0  0  0  0  0  0  0  0  0  0
   32.5610   29.0790   38.6910 H   0  0  0  0  0  0  0  0  0  0  0  0
   32.2330   29.0480   36.6050 C   0  0  0  0  0  0  0  0  0  0  0  0
   32.8050   29.0210   35.3340 C   0  0  0  0  0  0  0  0  0  0  0  0
   34.1840   29.0040   35.2610 C   0  0  0  0  0  3  0  0  0  0  0  0
   31.7800   29.0170   34.3730 O   0  0  0  0  0  0  0  0  0  0  0  0
   30.6620   29.5760   35.0760 C   0  0  0  0  0  3  0  0  0  0  0  0
   29.7640   29.2210   34.5710 H   0  0  0  0  0  0  0  0  0  0  0  0
   30.8540   29.0600   36.3810 O   0  0  0  0  0  0  0  0  0  0  0  0
  1  6  1  0  0  0  0
  1 13  1  0  0  0  0
  2  1  2  0  0  0  0
  3  4  2  0  0  0  0
  3  2  1  0  0  0  0
  4  5  1  0  0  0  0
  5  7  1  0  0  0  0
  5  6  2  0  0  0  0
  7 12  1  0  0  0  0
  8 16  1  6  0  0  0
  8  9  1  0  0  0  0
  8  7  1  0  0  0  0
  9 10  1  0  0  0  0
 10 19  1  0  0  0  0
 10 11  1  0  0  0  0
 11 21  1  0  0  0  0
 11 20  1  0  0  0  0
 12 11  1  0  0  0  0
 12 23  1  0  0  0  0
 14  2  1  0  0  0  0
 15  3  1  0  0  0  0
 17  9  1  0  0  0  0
 18  9  1  0  0  0  0
 22 12  1  0  0  0  0
 24  8  1  0  0  0  0
 24 25  2  0  0  0  0
 25 29  1  0  0  0  0
 26 30  1  0  0  0  0
 26 25  1  0  0  0  0
 27 28  2  0  0  0  0
 27 26  1  0  0  0  0
 28 24  1  0  0  0  0
 31 32  1  0  0  0  0
 32 33  2  0  0  0  0
 32 27  1  0  0  0  0
 33 34  1  0  0  0  0
 35 33  1  0  0  0  0
 36 35  2  0  0  0  0
 37 36  1  0  0  0  0
 37 31  2  0  0  0  0
 38 39  1  0  0  0  0
 38 36  1  0  0  0  0
 39 41  1  0  0  0  0
 40 39  1  0  0  0  0
 41 35  1  0  0  0  0
M  END
>  <minimizedAffinity>
-5.83919477

$$$$

 OpenBabel03242520433D

 41 45  0  0  1  0  0  0  0  0999 V2000
   37.9250   28.4400   43.6460 C   0  0  0  0  0  0  0  0  0  0  0  0
   38.6740   27.2800   43.3140 C   0  0  0  0  0  0  0  0  0  0  0  0
   39.3510   27.2590   42.0580 C   0  0  0  0  0  0  0  0  0  0  0  0
   39.2530   28.3470   41.2340 N   0  0  0  0  0  0  0  0  0  0  0  0
   38.5210   29.4270   41.6080 C   0  0  0  0  0  0  0  0  0  0  0  0
   37.8700   29.4650   42.7960 N   0  0  0  0  0  0  0  0  0  0  0  0
   38.4730   30.4950   40.7050 N   0  0  0  0  0  0  0  0  0  0  0  0
   37.9590   30.3140   39.3880 C   0  0  2  0  0  0  0  0  0  0  0  0
   38.2080   31.4450   38.4530 C   0  0  0  0  0  0  0  0  0  0  0  0
   38.2910   32.7380   39.0180 N   0  0  0  0  0  0  0  0  0  0  0  0
   38.0430   32.7920   40.4160 C   0  0  0  0  0  0  0  0  0  0  0  0
   38.9460   31.8010   41.1060 C   0  0  0  0  0  0  0  0  0  0  0  0
   37.4470   28.3810   44.6000 H   0  0  0  0  0  0  0  0  0  0  0  0
   38.8000   26.3970   43.8970 H   0  0  0  0  0  0  0  0  0  0  0  0
   39.9340   26.3990   41.7600 H   0  0  0  0  0  0  0  0  0  0  0  0
   38.5630   29.4610   38.9440 H   0  0  0  0  0  0  0  0  0  0  0  0
   37.3530   31.4520   37.7190 H   0  0  0  0  0  0  0  0  0  0  0  0
   39.1070   31.3010   37.8190 H   0  0  0  0  0  0  0  0  0  0  0  0
   37.8700   33.5020   38.4500 H   0  0  0  0  0  0  0  0  0  0  0  0
   38.3930   33.8130   40.7570 H   0  0  0  0  0  0  0  0  0  0  0  0
   36.9980   32.7220   40.7190 H   0  0  0  0  0  0  0  0  0  0  0  0
   39.9440   31.9190   40.6690 H   0  0  0  0  0  0  0  0  0  0  0  0
   38.9410   31.8990   42.2120 H   0  0  0  0  0  0  0  0  0  0  0  0
   36.5390   29.8700   39.4010 C   0  0  0  0  0  0  0  0  0  0  0  0
   35.5750   29.8560   40.3780 C   0  0  0  0  0  0  0  0  0  0  0  0
   34.4150   29.3690   39.9280 N   0  0  0  0  0  0  0  0  0  0  0  0
   34.6290   29.0670   38.6510 C   0  0  0  0  0  0  0  0  0  0  0  0
   35.9000   29.3660   38.3320 N   0  0  0  0  0  0  0  0  0  0  0  0
   35.7380   30.1950   41.3910 H   0  0  0  0  0  0  0  0  0  0  0  0
   33.5140   29.2390   40.4350 H   0  0  0  0  0  0  0  0  0  0  0  0
   32.6240   29.1470   37.1140 C   0  0  0  0  0  3  0  0  0  0  0  0
   33.7230   28.5000   37.6430 C   0  0  0  0  0  0  0  0  0  0  0  0
   33.9990   27.2240   37.1960 C   0  0  0  0  0  0  0  0  0  0  0  0
   34.8500   26.6870   37.5870 H   0  0  0  0  0  0  0  0  0  0  0  0
   33.2180   26.5880   36.2500 C   0  0  0  0  0  0  0  0  0  0  0  0
   32.1070   27.2390   35.7150 C   0  0  0  0  0  0  0  0  0  0  0  0
   31.8410   28.5150   36.1690 C   0  0  0  0  0  3  0  0  0  0  0  0
   31.4870   26.3890   34.7840 O   0  0  0  0  0  0  0  0  0  0  0  0
   31.9240   25.0820   35.1820 C   0  0  0  0  0  3  0  0  0  0  0  0
   31.8500   24.4440   34.3020 H   0  0  0  0  0  0  0  0  0  0  0  0
   33.2450   25.3410   35.6220 O   0  0  0  0  0  0  0  0  0  0  0  0
  1 13  1  0  0  0  0
  2  1  1  0  0  0  0
  2 14  1  0  0  0  0
  3  2  2  0  0  0  0
  4  5  2  0  0  0  0
  4  3  1  0  0  0  0
  5  6  1  0  0  0  0
  6  1  2  0  0  0  0
  7 12  1  0  0  0  0
  7  5  1  0  0  0  0
  8 16  1  6  0  0  0
  8 24  1  0  0  0  0
  8  7  1  0  0  0  0
  9 10  1  0  0  0  0
  9  8  1  0  0  0  0
 10 11  1  0  0  0  0
 11 21  1  0  0  0  0
 11 20  1  0  0  0  0
 11 12  1  0  0  0  0
 12 23  1  0  0  0  0
 15  3  1  0  0  0  0
 17  9  1  0  0  0  0
 18  9  1  0  0  0  0
 19 10  1  0  0  0  0
 22 12  1  0  0  0  0
 24 25  2  0  0  0  0
 25 29  1  0  0  0  0
 26 25  1  0  0  0  0
 26 30  1  0  0  0  0
 27 26  1  0  0  0  0
 28 27  2  0  0  0  0
 28 24  1  0  0  0  0
 31 32  1  0  0  0  0
 32 27  1  0  0  0  0
 33 34  1  0  0  0  0
 33 32  2  0  0  0  0
 35 33  1  0  0  0  0
 36 37  1  0  0  0  0
 36 35  2  0  0  0  0
 37 31  2  0  0  0  0
 38 39  1  0  0  0  0
 38 36  1  0  0  0  0
 39 41  1  0  0  0  0
 40 39  1  0  0  0  0
 41 35  1  0  0  0  0
M  END
>  <minimizedAffinity>
-5.82623768

$$$$
