
 OpenBabel03242520413D

 41 45  0  0  1  0  0  0  0  0999 V2000
   45.8700   33.4880   45.7820 C   0  0  0  0  0  0  0  0  0  0  0  0
   46.6840   33.6410   44.6280 C   0  0  0  0  0  0  0  0  0  0  0  0
   47.3650   32.4890   44.1340 C   0  0  0  0  0  0  0  0  0  0  0  0
   47.2060   31.2960   44.7840 N   0  0  0  0  0  0  0  0  0  0  0  0
   46.4150   31.2130   45.8820 C   0  0  0  0  0  0  0  0  0  0  0  0
   45.7600   32.2970   46.3680 N   0  0  0  0  0  0  0  0  0  0  0  0
   46.3100   29.9560   46.4880 N   0  0  0  0  0  0  0  0  0  0  0  0
   47.4660   29.2880   46.9870 C   0  0  2  0  0  0  0  0  0  0  0  0
   47.2580   27.8610   47.3580 C   0  0  0  0  0  0  0  0  0  0  0  0
   45.9700   27.4970   47.8090 N   0  0  0  0  0  0  0  0  0  0  0  0
   45.0530   28.5760   47.9230 C   0  0  0  0  0  0  0  0  0  0  0  0
   45.0170   29.3200   46.6140 C   0  0  0  0  0  0  0  0  0  0  0  0
   45.3930   34.3930   46.0910 H   0  0  0  0  0  0  0  0  0  0  0  0
   46.8570   34.5300   44.0670 H   0  0  0  0  0  0  0  0  0  0  0  0
   47.9950   32.5540   43.2580 H   0  0  0  0  0  0  0  0  0  0  0  0
   48.1850   29.2350   46.1100 H   0  0  0  0  0  0  0  0  0  0  0  0
   47.9840   27.6360   48.1910 H   0  0  0  0  0  0  0  0  0  0  0  0
   47.5420   27.1520   46.5530 H   0  0  0  0  0  0  0  0  0  0  0  0
   45.9470   26.7960   48.5790 H   0  0  0  0  0  0  0  0  0  0  0  0
   44.0290   28.1070   48.0370 H   0  0  0  0  0  0  0  0  0  0  0  0
   45.1800   29.2200   48.7940 H   0  0  0  0  0  0  0  0  0  0  0  0
   44.9610   28.5670   45.8190 H   0  0  0  0  0  0  0  0  0  0  0  0
   44.2020   30.0730   46.5580 H   0  0  0  0  0  0  0  0  0  0  0  0
   48.1470   30.0740   48.0510 C   0  0  0  0  0  0  0  0  0  0  0  0
   47.6860   30.9500   49.0020 C   0  0  0  0  0  0  0  0  0  0  0  0
   48.6760   31.4200   49.7680 N   0  0  0  0  0  0  0  0  0  0  0  0
   49.7830   30.8450   49.3090 C   0  0  0  0  0  0  0  0  0  0  0  0
   49.4700   30.0380   48.2810 N   0  0  0  0  0  0  0  0  0  0  0  0
   46.6490   31.2270   49.1150 H   0  0  0  0  0  0  0  0  0  0  0  0
   48.6310   32.0930   50.5620 H   0  0  0  0  0  0  0  0  0  0  0  0
   52.2160   31.4380   48.9720 C   0  0  0  0  0  3  0  0  0  0  0  0
   51.1770   30.9750   49.7540 C   0  0  0  0  0  0  0  0  0  0  0  0
   51.4600   30.6070   51.0540 C   0  0  0  0  0  0  0  0  0  0  0  0
   50.6730   30.2410   51.6940 H   0  0  0  0  0  0  0  0  0  0  0  0
   52.7340   30.6870   51.5820 C   0  0  0  0  0  0  0  0  0  0  0  0
   53.7860   31.1520   50.7940 C   0  0  0  0  0  0  0  0  0  0  0  0
   53.4910   31.5190   49.4970 C   0  0  0  0  0  3  0  0  0  0  0  0
   54.9660   31.1370   51.5560 O   0  0  0  0  0  0  0  0  0  0  0  0
   54.6880   30.1750   52.5830 C   0  0  0  0  0  3  0  0  0  0  0  0
   55.3420   30.4120   53.4210 H   0  0  0  0  0  0  0  0  0  0  0  0
   53.3100   30.3950   52.8210 O   0  0  0  0  0  0  0  0  0  0  0  0
  1 13  1  0  0  0  0
  1  6  1  0  0  0  0
  2  1  2  0  0  0  0
  3  2  1  0  0  0  0
  3  4  2  0  0  0  0
  4  5  1  0  0  0  0
  5  6  2  0  0  0  0
  5  7  1  0  0  0  0
  7 12  1  0  0  0  0
  7  8  1  0  0  0  0
  8 16  1  6  0  0  0
  8  9  1  0  0  0  0
  8 24  1  0  0  0  0
  9 10  1  0  0  0  0
  9 17  1  0  0  0  0
 10 11  1  0  0  0  0
 10 19  1  0  0  0  0
 11 20  1  0  0  0  0
 11 21  1  0  0  0  0
 12 11  1  0  0  0  0
 14  2  1  0  0  0  0
 15  3  1  0  0  0  0
 18  9  1  0  0  0  0
 22 12  1  0  0  0  0
 23 12  1  0  0  0  0
 24 28  1  0  0  0  0
 24 25  2  0  0  0  0
 25 29  1  0  0  0  0
 25 26  1  0  0  0  0
 26 30  1  0  0  0  0
 27 32  1  0  0  0  0
 27 26  1  0  0  0  0
 28 27  2  0  0  0  0
 31 37  2  0  0  0  0
 31 32  1  0  0  0  0
 32 33  2  0  0  0  0
 33 35  1  0  0  0  0
 33 34  1  0  0  0  0
 35 41  1  0  0  0  0
 36 38  1  0  0  0  0
 36 35  2  0  0  0  0
 37 36  1  0  0  0  0
 38 39  1  0  0  0  0
 39 41  1  0  0  0  0
 39 40  1  0  0  0  0
M  END
>  <minimizedAffinity>
-5.37086535

>  <minimizedRMSD>
0.415408075

$$$$
