
 OpenBabel03252509233D

 29 32  0  0  1  0  0  0  0  0999 V2000
   46.8590   34.7960   41.9660 C   0  0  1  0  0  0  0  0  0  0  0  0
   48.2640   35.4530   42.0520 C   0  0  0  0  0  0  0  0  0  0  0  0
   47.9670   33.9690   41.6510 C   0  0  2  0  0  0  0  0  0  0  0  0
   46.2010   35.2850   41.2240 H   0  0  0  0  0  0  0  0  0  0  0  0
   48.7460   35.5530   43.0200 H   0  0  0  0  0  0  0  0  0  0  0  0
   48.5460   36.1120   41.2090 H   0  0  0  0  0  0  0  0  0  0  0  0
   48.2820   33.1980   42.3850 H   0  0  0  0  0  0  0  0  0  0  0  0
   47.9390   34.4120   39.1500 C   0  0  0  0  0  3  0  0  0  0  0  0
   48.3000   33.6350   40.2320 C   0  0  0  0  0  0  0  0  0  0  0  0
   49.0210   32.4780   39.9220 C   0  0  0  0  0  0  0  0  0  0  0  0
   49.3180   31.8470   40.7590 H   0  0  0  0  0  0  0  0  0  0  0  0
   49.3710   32.0910   38.6540 C   0  0  0  0  0  0  0  0  0  0  0  0
   48.9900   32.8970   37.6000 C   0  0  0  0  0  0  0  0  0  0  0  0
   48.2690   34.0640   37.8540 C   0  0  0  0  0  3  0  0  0  0  0  0
   49.4650   32.2820   36.4580 O   0  0  0  0  0  0  0  0  0  0  0  0
   50.3050   31.2000   36.8000 C   0  0  0  0  0  3  0  0  0  0  0  0
   50.0040   30.3260   36.1930 H   0  0  0  0  0  0  0  0  0  0  0  0
   50.0710   30.9960   38.1710 O   0  0  0  0  0  0  0  0  0  0  0  0
   44.6630   35.4040   44.9510 C   0  0  0  0  0  0  0  0  0  0  0  0
   45.2420   35.5970   43.6500 C   0  0  0  0  0  0  0  0  0  0  0  0
   46.2440   34.7150   43.3420 C   0  0  0  0  0  0  0  0  0  0  0  0
   46.6510   33.7300   44.2270 N   0  0  0  0  0  0  0  0  0  0  0  0
   46.0730   33.6010   45.4230 C   0  0  0  0  0  0  0  0  0  0  0  0
   45.0800   34.4310   45.7950 N   0  0  0  0  0  0  0  0  0  0  0  0
   43.8700   36.0710   45.2400 H   0  0  0  0  0  0  0  0  0  0  0  0
   46.5100   32.7850   45.9840 H   0  0  0  0  0  0  0  0  0  0  0  0
   44.8340   36.6290   42.7720 N   0  0  0  0  0  0  0  0  0  0  0  0
   45.4940   37.4290   42.5710 H   0  0  0  0  0  0  0  0  0  0  0  0
   43.8880   36.6310   42.3090 H   0  0  0  0  0  0  0  0  0  0  0  0
  1  4  1  6  0  0  0
  1  2  1  0  0  0  0
  1 21  1  0  0  0  0
  2  5  1  0  0  0  0
  3  1  1  0  0  0  0
  3  2  1  0  0  0  0
  3  7  1  1  0  0  0
  6  2  1  0  0  0  0
  8  9  1  0  0  0  0
  9  3  1  0  0  0  0
 10  9  2  0  0  0  0
 10 11  1  0  0  0  0
 12 10  1  0  0  0  0
 13 14  1  0  0  0  0
 13 12  2  0  0  0  0
 14  8  2  0  0  0  0
 15 16  1  0  0  0  0
 15 13  1  0  0  0  0
 16 18  1  0  0  0  0
 17 16  1  0  0  0  0
 18 12  1  0  0  0  0
 19 25  1  0  0  0  0
 19 24  1  0  0  0  0
 20 19  2  0  0  0  0
 21 20  1  0  0  0  0
 21 22  2  0  0  0  0
 22 23  1  0  0  0  0
 23 24  2  0  0  0  0
 23 26  1  0  0  0  0
 27 20  1  0  0  0  0
 28 27  1  0  0  0  0
 29 27  1  0  0  0  0
M  END
>  <minimizedAffinity>
-5.47312689

>  <minimizedRMSD>
0.898208439

$$$$
