
 OpenBabel03242520413D

 41 45  0  0  1  0  0  0  0  0999 V2000
   46.0030   33.3260   45.2950 C   0  0  0  0  0  0  0  0  0  0  0  0
   46.9420   33.4310   44.2360 C   0  0  0  0  0  0  0  0  0  0  0  0
   47.6900   32.2660   43.8890 C   0  0  0  0  0  0  0  0  0  0  0  0
   47.4730   31.1080   44.5830 N   0  0  0  0  0  0  0  0  0  0  0  0
   46.5610   31.0710   45.5870 C   0  0  0  0  0  0  0  0  0  0  0  0
   45.8410   32.1670   45.9320 N   0  0  0  0  0  0  0  0  0  0  0  0
   46.4030   29.8470   46.2460 N   0  0  0  0  0  0  0  0  0  0  0  0
   47.5020   29.2290   46.9120 C   0  0  2  0  0  0  0  0  0  0  0  0
   47.2700   27.8220   47.3370 C   0  0  0  0  0  0  0  0  0  0  0  0
   45.9430   27.4580   47.6570 N   0  0  0  0  0  0  0  0  0  0  0  0
   45.0060   28.5250   47.6050 C   0  0  0  0  0  0  0  0  0  0  0  0
   45.1120   29.1950   46.2590 C   0  0  0  0  0  0  0  0  0  0  0  0
   45.4830   34.2380   45.4960 H   0  0  0  0  0  0  0  0  0  0  0  0
   47.1690   34.2910   43.6490 H   0  0  0  0  0  0  0  0  0  0  0  0
   48.4170   32.2950   43.0890 H   0  0  0  0  0  0  0  0  0  0  0  0
   48.3170   29.1420   46.1270 H   0  0  0  0  0  0  0  0  0  0  0  0
   47.8970   27.6560   48.2590 H   0  0  0  0  0  0  0  0  0  0  0  0
   47.6530   27.0750   46.6110 H   0  0  0  0  0  0  0  0  0  0  0  0
   45.8400   26.8000   48.4590 H   0  0  0  0  0  0  0  0  0  0  0  0
   43.9810   28.0430   47.6270 H   0  0  0  0  0  0  0  0  0  0  0  0
   45.0230   29.2180   48.4460 H   0  0  0  0  0  0  0  0  0  0  0  0
   45.1570   28.3990   45.5080 H   0  0  0  0  0  0  0  0  0  0  0  0
   44.2990   29.9280   46.0680 H   0  0  0  0  0  0  0  0  0  0  0  0
   48.0450   30.0860   48.0000 C   0  0  0  0  0  0  0  0  0  0  0  0
   47.4530   30.9280   48.9080 C   0  0  0  0  0  0  0  0  0  0  0  0
   48.3490   31.4940   49.7220 N   0  0  0  0  0  0  0  0  0  0  0  0
   49.5280   31.0140   49.3390 C   0  0  0  0  0  0  0  0  0  0  0  0
   49.3500   30.1700   48.3080 N   0  0  0  0  0  0  0  0  0  0  0  0
   46.3900   31.1130   48.9550 H   0  0  0  0  0  0  0  0  0  0  0  0
   48.1980   32.1700   50.5010 H   0  0  0  0  0  0  0  0  0  0  0  0
   52.0330   31.2610   49.1100 C   0  0  0  0  0  0  0  0  0  0  0  0
   50.8760   31.2730   49.8640 C   0  0  0  0  0  0  0  0  0  0  0  0
   50.9850   31.5490   51.2110 C   0  0  0  0  0  0  0  0  0  0  0  0
   50.1020   31.5670   51.8310 H   0  0  0  0  0  0  0  0  0  0  0  0
   52.2000   31.8090   51.8150 C   0  0  0  0  0  0  0  0  0  0  0  0
   53.3700   31.7970   51.0570 C   0  0  0  0  0  0  0  0  0  0  0  0
   53.2490   31.5200   49.7100 C   0  0  0  0  0  0  0  0  0  0  0  0
   54.4590   32.0880   51.8960 O   0  0  0  0  0  0  0  0  0  0  0  0
   53.9770   31.7390   53.2010 C   0  0  0  0  0  0  0  0  0  0  0  0
   54.5650   32.3130   53.9170 H   0  0  0  0  0  0  0  0  0  0  0  0
   52.6130   32.1110   53.1140 O   0  0  0  0  0  0  0  0  0  0  0  0
  1 13  1  0  0  0  0
  1  6  1  0  0  0  0
  2  1  2  0  0  0  0
  3  2  1  0  0  0  0
  3  4  2  0  0  0  0
  4  5  1  0  0  0  0
  5  6  2  0  0  0  0
  5  7  1  0  0  0  0
  7 12  1  0  0  0  0
  7  8  1  0  0  0  0
  8 16  1  6  0  0  0
  8  9  1  0  0  0  0
  8 24  1  0  0  0  0
  9 10  1  0  0  0  0
  9 17  1  0  0  0  0
 10 19  1  0  0  0  0
 11 20  1  0  0  0  0
 11 10  1  0  0  0  0
 11 21  1  0  0  0  0
 12 11  1  0  0  0  0
 14  2  1  0  0  0  0
 15  3  1  0  0  0  0
 18  9  1  0  0  0  0
 22 12  1  0  0  0  0
 23 12  1  0  0  0  0
 24 28  1  0  0  0  0
 24 25  2  0  0  0  0
 25 29  1  0  0  0  0
 25 26  1  0  0  0  0
 26 30  1  0  0  0  0
 27 26  1  0  0  0  0
 27 32  1  0  0  0  0
 28 27  2  0  0  0  0
 31 37  2  0  0  0  0
 31 32  1  0  0  0  0
 32 33  2  0  0  0  0
 33 35  1  0  0  0  0
 33 34  1  0  0  0  0
 35 41  1  0  0  0  0
 36 35  2  0  0  0  0
 36 38  1  0  0  0  0
 37 36  1  0  0  0  0
 38 39  1  0  0  0  0
 39 40  1  0  0  0  0
 41 39  1  0  0  0  0
M  END
>  <minimizedAffinity>
-5.44029188

>  <minimizedRMSD>
0.859609365

$$$$
