
 OpenBabel03242516273D

 45 50  0  0  0  0  0  0  0  0999 V2000
   37.4020   28.6850   41.1050 C   0  0  0  0  0  0  0  0  0  0  0  0
   37.5830   29.3230   42.2920 N   0  0  0  0  0  0  0  0  0  0  0  0
   37.5730   28.6880   43.4710 C   0  0  0  0  0  0  0  0  0  0  0  0
   37.3710   27.3580   43.4610 N   0  0  0  0  0  0  0  0  0  0  0  0
   37.1840   26.6530   42.3470 C   0  0  0  0  0  0  0  0  0  0  0  0
   36.9690   25.2790   42.3280 C   0  0  0  0  0  0  0  0  0  0  0  0
   36.7770   24.6030   41.1440 C   0  0  0  0  0  0  0  0  0  0  0  0
   36.7890   25.2650   39.9100 C   0  0  0  0  0  0  0  0  0  0  0  0
   37.0070   26.6310   39.9690 C   0  0  0  0  0  0  0  0  0  0  0  0
   37.1990   27.3220   41.1380 C   0  0  0  0  0  0  0  0  0  0  0  0
   37.7140   29.1780   44.4060 H   0  0  0  0  0  0  0  0  0  0  0  0
   36.9680   24.8080   43.3040 H   0  0  0  0  0  0  0  0  0  0  0  0
   36.6220   23.5460   41.2810 H   0  0  0  0  0  0  0  0  0  0  0  0
   36.6300   24.6420   39.0680 H   0  0  0  0  0  0  0  0  0  0  0  0
   38.2340   27.2100   37.9060 C   0  0  0  0  0  3  0  0  0  0  0  0
   37.0300   27.1720   38.6170 C   0  0  0  0  0  0  0  0  0  0  0  0
   35.9420   27.7200   37.9210 C   0  0  0  0  0  0  0  0  0  0  0  0
   35.0070   27.7000   38.4530 H   0  0  0  0  0  0  0  0  0  0  0  0
   36.0980   28.2350   36.6540 C   0  0  0  0  0  0  0  0  0  0  0  0
   37.3050   28.2410   36.0130 C   0  0  0  0  0  0  0  0  0  0  0  0
   38.4100   27.7210   36.6370 C   0  0  0  0  0  3  0  0  0  0  0  0
   37.1000   28.8290   34.7630 O   0  0  0  0  0  0  0  0  0  0  0  0
   35.8880   29.5960   34.8310 C   0  0  0  0  0  3  0  0  0  0  0  0
   35.3590   29.6330   33.8780 H   0  0  0  0  0  0  0  0  0  0  0  0
   35.1660   28.8170   35.7960 O   0  0  0  0  0  0  0  0  0  0  0  0
   37.3910   29.5030   39.5350 S   0  0  0  0  0  0  0  0  0  0  0  0
   39.5770   32.7740   40.3560 C   0  0  0  0  0  0  0  0  0  0  0  0
   39.1420   31.4890   40.1860 C   0  0  0  0  0  0  0  0  0  0  0  0
   37.8720   31.2040   39.7260 C   0  0  0  0  0  0  0  0  0  0  0  0
   36.9960   32.2410   39.4220 C   0  0  0  0  0  0  0  0  0  0  0  0
   37.4030   33.5190   39.5830 C   0  0  0  0  0  0  0  0  0  0  0  0
   38.6770   33.7680   40.0440 C   0  0  0  0  0  0  0  0  0  0  0  0
   39.8340   30.6910   40.4260 H   0  0  0  0  0  0  0  0  0  0  0  0
   36.0170   31.9430   39.0670 H   0  0  0  0  0  0  0  0  0  0  0  0
   36.7360   34.3400   39.3520 H   0  0  0  0  0  0  0  0  0  0  0  0
   38.9700   34.8130   40.1600 H   0  0  0  0  0  0  0  0  0  0  0  0
   42.7740   32.2900   42.0770 C   0  0  0  0  0  0  0  0  0  0  0  0
   43.4560   33.4840   41.8100 C   0  0  0  0  0  0  0  0  0  0  0  0
   42.8350   34.4650   41.0410 C   0  0  0  0  0  0  0  0  0  0  0  0
   41.5780   34.2450   40.5670 N   0  0  0  0  0  0  0  0  0  0  0  0
   40.9290   33.0590   40.8460 C   0  0  0  0  0  0  0  0  0  0  0  0
   41.5280   32.1020   41.5920 N   0  0  0  0  0  0  0  0  0  0  0  0
   43.2350   31.5110   42.6710 H   0  0  0  0  0  0  0  0  0  0  0  0
   44.4440   33.6110   42.2040 H   0  0  0  0  0  0  0  0  0  0  0  0
   43.3410   35.3980   40.8210 H   0  0  0  0  0  0  0  0  0  0  0  0
  1 10  2  0  0  0  0
  1  2  1  0  0  0  0
  2  3  2  0  0  0  0
  3 11  1  0  0  0  0
  4  3  1  0  0  0  0
  5  4  2  0  0  0  0
  6  5  1  0  0  0  0
  6 12  1  0  0  0  0
  7 13  1  0  0  0  0
  7  6  2  0  0  0  0
  8  9  2  0  0  0  0
  8  7  1  0  0  0  0
  9 10  1  0  0  0  0
 10  5  1  0  0  0  0
 14  8  1  0  0  0  0
 15 16  1  0  0  0  0
 16  9  1  0  0  0  0
 17 18  1  0  0  0  0
 17 16  2  0  0  0  0
 19 17  1  0  0  0  0
 20 21  1  0  0  0  0
 20 19  2  0  0  0  0
 21 15  2  0  0  0  0
 22 23  1  0  0  0  0
 22 20  1  0  0  0  0
 23 25  1  0  0  0  0
 24 23  1  0  0  0  0
 25 19  1  0  0  0  0
 26 29  1  0  0  0  0
 26  1  1  0  0  0  0
 27 41  1  0  0  0  0
 28 27  1  0  0  0  0
 28 33  1  0  0  0  0
 29 28  2  0  0  0  0
 30 31  2  0  0  0  0
 30 29  1  0  0  0  0
 31 32  1  0  0  0  0
 32 36  1  0  0  0  0
 32 27  2  0  0  0  0
 34 30  1  0  0  0  0
 35 31  1  0  0  0  0
 37 43  1  0  0  0  0
 38 37  1  0  0  0  0
 38 44  1  0  0  0  0
 39 38  2  0  0  0  0
 40 41  2  0  0  0  0
 40 39  1  0  0  0  0
 41 42  1  0  0  0  0
 42 37  2  0  0  0  0
 45 39  1  0  0  0  0
M  END
>  <minimizedAffinity>
-7.1312623

$$$$

 OpenBabel03242516273D

 45 50  0  0  0  0  0  0  0  0999 V2000
   36.8980   28.8290   41.2750 C   0  0  0  0  0  0  0  0  0  0  0  0
   37.2430   29.3450   42.4850 N   0  0  0  0  0  0  0  0  0  0  0  0
   37.5590   28.5820   43.5390 C   0  0  0  0  0  0  0  0  0  0  0  0
   37.5290   27.2470   43.3750 N   0  0  0  0  0  0  0  0  0  0  0  0
   37.2030   26.6570   42.2270 C   0  0  0  0  0  0  0  0  0  0  0  0
   37.1640   25.2780   42.0500 C   0  0  0  0  0  0  0  0  0  0  0  0
   36.8140   24.7230   40.8400 C   0  0  0  0  0  0  0  0  0  0  0  0
   36.4840   25.5190   39.7350 C   0  0  0  0  0  0  0  0  0  0  0  0
   36.5360   26.8860   39.9490 C   0  0  0  0  0  0  0  0  0  0  0  0
   36.8800   27.4570   41.1470 C   0  0  0  0  0  0  0  0  0  0  0  0
   37.8310   28.9760   44.4910 H   0  0  0  0  0  0  0  0  0  0  0  0
   37.4260   24.7010   42.9290 H   0  0  0  0  0  0  0  0  0  0  0  0
   36.8250   23.6460   40.8480 H   0  0  0  0  0  0  0  0  0  0  0  0
   36.2320   24.9810   38.8570 H   0  0  0  0  0  0  0  0  0  0  0  0
   34.8810   27.9450   38.4530 C   0  0  0  0  0  3  0  0  0  0  0  0
   36.2060   27.5780   38.7110 C   0  0  0  0  0  0  0  0  0  0  0  0
   37.0960   27.9040   37.6770 C   0  0  0  0  0  0  0  0  0  0  0  0
   38.1210   27.6280   37.8570 H   0  0  0  0  0  0  0  0  0  0  0  0
   36.6560   28.5300   36.5330 C   0  0  0  0  0  0  0  0  0  0  0  0
   35.3440   28.8630   36.3440 C   0  0  0  0  0  0  0  0  0  0  0  0
   34.4210   28.5730   37.3140 C   0  0  0  0  0  3  0  0  0  0  0  0
   35.2570   29.4760   35.0910 O   0  0  0  0  0  0  0  0  0  0  0  0
   36.4140   29.0940   34.3320 C   0  0  0  0  0  3  0  0  0  0  0  0
   36.7330   29.8680   33.6330 H   0  0  0  0  0  0  0  0  0  0  0  0
   37.3590   28.9380   35.4000 O   0  0  0  0  0  0  0  0  0  0  0  0
   36.4560   29.8140   39.8710 S   0  0  0  0  0  0  0  0  0  0  0  0
   39.6780   31.9670   38.8070 C   0  0  0  0  0  0  0  0  0  0  0  0
   38.7610   30.9690   38.9840 C   0  0  0  0  0  0  0  0  0  0  0  0
   37.5920   31.1700   39.6900 C   0  0  0  0  0  0  0  0  0  0  0  0
   37.3230   32.4160   40.2450 C   0  0  0  0  0  0  0  0  0  0  0  0
   38.2140   33.4180   40.0840 C   0  0  0  0  0  0  0  0  0  0  0  0
   39.3710   33.1830   39.3730 C   0  0  0  0  0  0  0  0  0  0  0  0
   38.9830   30.0030   38.5460 H   0  0  0  0  0  0  0  0  0  0  0  0
   36.3880   32.5000   40.7850 H   0  0  0  0  0  0  0  0  0  0  0  0
   38.0230   34.3960   40.5070 H   0  0  0  0  0  0  0  0  0  0  0  0
   40.0670   34.0170   39.2630 H   0  0  0  0  0  0  0  0  0  0  0  0
   42.1980   30.2210   36.8020 C   0  0  0  0  0  0  0  0  0  0  0  0
   43.1860   31.1980   36.6240 C   0  0  0  0  0  0  0  0  0  0  0  0
   43.0050   32.4600   37.1840 C   0  0  0  0  0  0  0  0  0  0  0  0
   41.8720   32.7180   37.8940 N   0  0  0  0  0  0  0  0  0  0  0  0
   40.9150   31.7370   38.0540 C   0  0  0  0  0  0  0  0  0  0  0  0
   41.0850   30.5090   37.5110 N   0  0  0  0  0  0  0  0  0  0  0  0
   42.3140   29.2330   36.3760 H   0  0  0  0  0  0  0  0  0  0  0  0
   44.0600   30.9470   36.0570 H   0  0  0  0  0  0  0  0  0  0  0  0
   43.7550   33.2320   37.0610 H   0  0  0  0  0  0  0  0  0  0  0  0
  1  2  1  0  0  0  0
  2  3  2  0  0  0  0
  3 11  1  0  0  0  0
  4  3  1  0  0  0  0
  5  4  2  0  0  0  0
  6  5  1  0  0  0  0
  6 12  1  0  0  0  0
  7 13  1  0  0  0  0
  7  6  2  0  0  0  0
  8  9  2  0  0  0  0
  8  7  1  0  0  0  0
  9 10  1  0  0  0  0
 10  1  2  0  0  0  0
 10  5  1  0  0  0  0
 14  8  1  0  0  0  0
 15 16  1  0  0  0  0
 16  9  1  0  0  0  0
 17 18  1  0  0  0  0
 17 16  2  0  0  0  0
 19 17  1  0  0  0  0
 20 19  2  0  0  0  0
 20 21  1  0  0  0  0
 21 15  2  0  0  0  0
 22 20  1  0  0  0  0
 23 22  1  0  0  0  0
 23 25  1  0  0  0  0
 24 23  1  0  0  0  0
 25 19  1  0  0  0  0
 26  1  1  0  0  0  0
 27 28  2  0  0  0  0
 27 32  1  0  0  0  0
 28 29  1  0  0  0  0
 29 26  1  0  0  0  0
 29 30  2  0  0  0  0
 30 34  1  0  0  0  0
 31 30  1  0  0  0  0
 31 35  1  0  0  0  0
 32 31  2  0  0  0  0
 33 28  1  0  0  0  0
 36 32  1  0  0  0  0
 37 42  1  0  0  0  0
 38 37  2  0  0  0  0
 38 39  1  0  0  0  0
 39 40  2  0  0  0  0
 40 41  1  0  0  0  0
 41 27  1  0  0  0  0
 42 41  2  0  0  0  0
 43 37  1  0  0  0  0
 44 38  1  0  0  0  0
 45 39  1  0  0  0  0
M  END
>  <minimizedAffinity>
-6.98236465

$$$$

 OpenBabel03242516273D

 45 50  0  0  0  0  0  0  0  0999 V2000
   36.2340   26.4200   38.4620 C   0  0  0  0  0  0  0  0  0  0  0  0
   35.8800   25.5130   37.5130 N   0  0  0  0  0  0  0  0  0  0  0  0
   35.7960   24.1990   37.7570 C   0  0  0  0  0  0  0  0  0  0  0  0
   36.0780   23.7750   39.0020 N   0  0  0  0  0  0  0  0  0  0  0  0
   36.4330   24.5930   39.9910 C   0  0  0  0  0  0  0  0  0  0  0  0
   36.7330   24.1620   41.2790 C   0  0  0  0  0  0  0  0  0  0  0  0
   37.1000   25.0540   42.2620 C   0  0  0  0  0  0  0  0  0  0  0  0
   37.1870   26.4290   42.0100 C   0  0  0  0  0  0  0  0  0  0  0  0
   36.8810   26.8190   40.7180 C   0  0  0  0  0  0  0  0  0  0  0  0
   36.5150   25.9470   39.7250 C   0  0  0  0  0  0  0  0  0  0  0  0
   35.5190   23.4800   37.0200 H   0  0  0  0  0  0  0  0  0  0  0  0
   36.6510   23.0920   41.4290 H   0  0  0  0  0  0  0  0  0  0  0  0
   37.3030   24.5810   43.2080 H   0  0  0  0  0  0  0  0  0  0  0  0
   37.4790   27.0170   42.8430 H   0  0  0  0  0  0  0  0  0  0  0  0
   35.8460   29.0570   40.8440 C   0  0  0  0  0  3  0  0  0  0  0  0
   36.9790   28.2690   40.6180 C   0  0  0  0  0  0  0  0  0  0  0  0
   38.1210   29.0040   40.2700 C   0  0  0  0  0  0  0  0  0  0  0  0
   39.0040   28.4140   40.0920 H   0  0  0  0  0  0  0  0  0  0  0  0
   38.0790   30.3760   40.1740 C   0  0  0  0  0  0  0  0  0  0  0  0
   36.9370   31.0890   40.4090 C   0  0  0  0  0  0  0  0  0  0  0  0
   35.7840   30.4320   40.7540 C   0  0  0  0  0  3  0  0  0  0  0  0
   37.2520   32.4370   40.2240 O   0  0  0  0  0  0  0  0  0  0  0  0
   38.4450   32.5050   39.4290 C   0  0  0  0  0  3  0  0  0  0  0  0
   39.0600   33.3740   39.6660 H   0  0  0  0  0  0  0  0  0  0  0  0
   39.0810   31.2890   39.8480 O   0  0  0  0  0  0  0  0  0  0  0  0
   36.3740   28.1600   38.1630 S   0  0  0  0  0  0  0  0  0  0  0  0
   32.7970   29.2170   36.6650 C   0  0  0  0  0  0  0  0  0  0  0  0
   33.8150   28.8150   37.4840 C   0  0  0  0  0  0  0  0  0  0  0  0
   35.1120   28.6900   37.0270 C   0  0  0  0  0  0  0  0  0  0  0  0
   35.4100   28.9770   35.6990 C   0  0  0  0  0  0  0  0  0  0  0  0
   34.4200   29.3760   34.8710 C   0  0  0  0  0  0  0  0  0  0  0  0
   33.1370   29.4900   35.3600 C   0  0  0  0  0  0  0  0  0  0  0  0
   33.5700   28.5950   38.5160 H   0  0  0  0  0  0  0  0  0  0  0  0
   36.4470   28.8560   35.4120 H   0  0  0  0  0  0  0  0  0  0  0  0
   34.6320   29.6040   33.8340 H   0  0  0  0  0  0  0  0  0  0  0  0
   32.3640   29.8160   34.6610 H   0  0  0  0  0  0  0  0  0  0  0  0
   29.1520   28.8860   36.8020 C   0  0  0  0  0  0  0  0  0  0  0  0
   28.8260   29.5210   38.0070 C   0  0  0  0  0  0  0  0  0  0  0  0
   29.8430   30.0680   38.7850 C   0  0  0  0  0  0  0  0  0  0  0  0
   31.1330   29.9750   38.3590 N   0  0  0  0  0  0  0  0  0  0  0  0
   31.4250   29.3450   37.1660 C   0  0  0  0  0  0  0  0  0  0  0  0
   30.4410   28.8110   36.4070 N   0  0  0  0  0  0  0  0  0  0  0  0
   28.3800   28.4520   36.1790 H   0  0  0  0  0  0  0  0  0  0  0  0
   27.7970   29.5670   38.3010 H   0  0  0  0  0  0  0  0  0  0  0  0
   29.6160   30.5640   39.7210 H   0  0  0  0  0  0  0  0  0  0  0  0
  1 10  1  0  0  0  0
  2  3  1  0  0  0  0
  2  1  2  0  0  0  0
  3  4  2  0  0  0  0
  4  5  1  0  0  0  0
  5  6  1  0  0  0  0
  6 12  1  0  0  0  0
  6  7  2  0  0  0  0
  7 13  1  0  0  0  0
  8  7  1  0  0  0  0
  8 14  1  0  0  0  0
  9  8  2  0  0  0  0
 10  5  2  0  0  0  0
 10  9  1  0  0  0  0
 11  3  1  0  0  0  0
 16  9  1  0  0  0  0
 16 15  2  0  0  0  0
 17 16  1  0  0  0  0
 18 17  1  0  0  0  0
 19 17  2  0  0  0  0
 19 20  1  0  0  0  0
 20 21  2  0  0  0  0
 21 15  1  0  0  0  0
 22 20  1  0  0  0  0
 23 24  1  0  0  0  0
 23 25  1  0  0  0  0
 23 22  1  0  0  0  0
 25 19  1  0  0  0  0
 26  1  1  0  0  0  0
 27 41  1  0  0  0  0
 27 28  1  0  0  0  0
 28 33  1  0  0  0  0
 29 28  2  0  0  0  0
 29 26  1  0  0  0  0
 30 29  1  0  0  0  0
 31 32  1  0  0  0  0
 31 30  2  0  0  0  0
 32 27  2  0  0  0  0
 34 30  1  0  0  0  0
 35 31  1  0  0  0  0
 36 32  1  0  0  0  0
 37 38  1  0  0  0  0
 38 44  1  0  0  0  0
 38 39  2  0  0  0  0
 39 45  1  0  0  0  0
 40 39  1  0  0  0  0
 41 40  2  0  0  0  0
 42 37  2  0  0  0  0
 42 41  1  0  0  0  0
 43 37  1  0  0  0  0
M  END
>  <minimizedAffinity>
-6.96945667

$$$$

 OpenBabel03242516273D

 45 50  0  0  0  0  0  0  0  0999 V2000
   40.2920   31.2330   39.8580 C   0  0  0  0  0  0  0  0  0  0  0  0
   41.6130   31.1420   40.1640 N   0  0  0  0  0  0  0  0  0  0  0  0
   42.3400   32.1900   40.5740 C   0  0  0  0  0  0  0  0  0  0  0  0
   41.7190   33.3790   40.6790 N   0  0  0  0  0  0  0  0  0  0  0  0
   40.4290   33.5580   40.4000 C   0  0  0  0  0  0  0  0  0  0  0  0
   39.7800   34.7840   40.5010 C   0  0  0  0  0  0  0  0  0  0  0  0
   38.4440   34.9110   40.1930 C   0  0  0  0  0  0  0  0  0  0  0  0
   37.6810   33.8170   39.7660 C   0  0  0  0  0  0  0  0  0  0  0  0
   38.3610   32.6140   39.6790 C   0  0  0  0  0  0  0  0  0  0  0  0
   39.6910   32.4680   39.9800 C   0  0  0  0  0  0  0  0  0  0  0  0
   43.3760   32.1300   40.8160 H   0  0  0  0  0  0  0  0  0  0  0  0
   40.4070   35.6020   40.8350 H   0  0  0  0  0  0  0  0  0  0  0  0
   38.0750   35.9160   40.3160 H   0  0  0  0  0  0  0  0  0  0  0  0
   36.6650   34.0350   39.5590 H   0  0  0  0  0  0  0  0  0  0  0  0
   36.5960   30.9700   40.2070 C   0  0  0  0  0  3  0  0  0  0  0  0
   37.4370   31.5690   39.2630 C   0  0  0  0  0  0  0  0  0  0  0  0
   37.3060   31.0400   37.9710 C   0  0  0  0  0  0  0  0  0  0  0  0
   37.9460   31.4880   37.2300 H   0  0  0  0  0  0  0  0  0  0  0  0
   36.4160   30.0230   37.7070 C   0  0  0  0  0  0  0  0  0  0  0  0
   35.6210   29.4810   38.6780 C   0  0  0  0  0  0  0  0  0  0  0  0
   35.6980   29.9530   39.9630 C   0  0  0  0  0  3  0  0  0  0  0  0
   34.8520   28.4870   38.0670 O   0  0  0  0  0  0  0  0  0  0  0  0
   35.5090   28.1110   36.8470 C   0  0  0  0  0  3  0  0  0  0  0  0
   34.8090   27.8000   36.0710 H   0  0  0  0  0  0  0  0  0  0  0  0
   36.1300   29.3600   36.5150 O   0  0  0  0  0  0  0  0  0  0  0  0
   39.3120   29.8700   39.2960 S   0  0  0  0  0  0  0  0  0  0  0  0
   38.5220   26.4370   41.2300 C   0  0  0  0  0  0  0  0  0  0  0  0
   38.6960   27.4020   40.2770 C   0  0  0  0  0  0  0  0  0  0  0  0
   39.1130   28.6780   40.6000 C   0  0  0  0  0  0  0  0  0  0  0  0
   39.3660   29.0100   41.9270 C   0  0  0  0  0  0  0  0  0  0  0  0
   39.2010   28.0730   42.8860 C   0  0  0  0  0  0  0  0  0  0  0  0
   38.7840   26.8090   42.5290 C   0  0  0  0  0  0  0  0  0  0  0  0
   38.4960   27.1300   39.2480 H   0  0  0  0  0  0  0  0  0  0  0  0
   39.6890   30.0280   42.1050 H   0  0  0  0  0  0  0  0  0  0  0  0
   39.3940   28.3120   43.9250 H   0  0  0  0  0  0  0  0  0  0  0  0
   38.6620   26.0790   43.3310 H   0  0  0  0  0  0  0  0  0  0  0  0
   36.2680   23.6930   40.3330 C   0  0  0  0  0  0  0  0  0  0  0  0
   37.1400   22.6060   40.1910 C   0  0  0  0  0  0  0  0  0  0  0  0
   38.5040   22.7960   40.3990 C   0  0  0  0  0  0  0  0  0  0  0  0
   38.9610   24.0340   40.7370 N   0  0  0  0  0  0  0  0  0  0  0  0
   38.0790   25.0860   40.8710 C   0  0  0  0  0  0  0  0  0  0  0  0
   36.7530   24.9070   40.6690 N   0  0  0  0  0  0  0  0  0  0  0  0
   35.2040   23.5710   40.1770 H   0  0  0  0  0  0  0  0  0  0  0  0
   36.7340   21.6520   39.9230 H   0  0  0  0  0  0  0  0  0  0  0  0
   39.1990   21.9710   40.2960 H   0  0  0  0  0  0  0  0  0  0  0  0
  1 10  2  0  0  0  0
  1  2  1  0  0  0  0
  2  3  2  0  0  0  0
  3  4  1  0  0  0  0
  3 11  1  0  0  0  0
  5  6  1  0  0  0  0
  5  4  2  0  0  0  0
  6 12  1  0  0  0  0
  7 13  1  0  0  0  0
  7  6  2  0  0  0  0
  8  7  1  0  0  0  0
  9  8  2  0  0  0  0
  9 10  1  0  0  0  0
 10  5  1  0  0  0  0
 14  8  1  0  0  0  0
 16  9  1  0  0  0  0
 16 15  2  0  0  0  0
 17 16  1  0  0  0  0
 18 17  1  0  0  0  0
 19 17  2  0  0  0  0
 19 20  1  0  0  0  0
 20 21  2  0  0  0  0
 21 15  1  0  0  0  0
 22 20  1  0  0  0  0
 23 22  1  0  0  0  0
 24 23  1  0  0  0  0
 25 23  1  0  0  0  0
 25 19  1  0  0  0  0
 26  1  1  0  0  0  0
 26 29  1  0  0  0  0
 27 32  1  0  0  0  0
 28 29  1  0  0  0  0
 28 27  2  0  0  0  0
 29 30  2  0  0  0  0
 30 34  1  0  0  0  0
 30 31  1  0  0  0  0
 31 35  1  0  0  0  0
 32 31  2  0  0  0  0
 32 36  1  0  0  0  0
 33 28  1  0  0  0  0
 37 42  1  0  0  0  0
 38 37  2  0  0  0  0
 38 39  1  0  0  0  0
 39 40  2  0  0  0  0
 40 41  1  0  0  0  0
 41 27  1  0  0  0  0
 42 41  2  0  0  0  0
 43 37  1  0  0  0  0
 44 38  1  0  0  0  0
 45 39  1  0  0  0  0
M  END
>  <minimizedAffinity>
-6.79216337

$$$$

 OpenBabel03242516273D

 45 50  0  0  0  0  0  0  0  0999 V2000
   37.1190   26.8710   38.4960 C   0  0  0  0  0  0  0  0  0  0  0  0
   36.7740   27.3750   37.2810 N   0  0  0  0  0  0  0  0  0  0  0  0
   35.8990   26.7750   36.4650 C   0  0  0  0  0  0  0  0  0  0  0  0
   35.3470   25.6200   36.8800 N   0  0  0  0  0  0  0  0  0  0  0  0
   35.6270   25.0560   38.0530 C   0  0  0  0  0  0  0  0  0  0  0  0
   35.0650   23.8600   38.4890 C   0  0  0  0  0  0  0  0  0  0  0  0
   35.3960   23.3200   39.7110 C   0  0  0  0  0  0  0  0  0  0  0  0
   36.3100   23.9460   40.5680 C   0  0  0  0  0  0  0  0  0  0  0  0
   36.8470   25.1340   40.1010 C   0  0  0  0  0  0  0  0  0  0  0  0
   36.5300   25.6870   38.8870 C   0  0  0  0  0  0  0  0  0  0  0  0
   35.6220   27.1610   35.5110 H   0  0  0  0  0  0  0  0  0  0  0  0
   34.3640   23.4100   37.7960 H   0  0  0  0  0  0  0  0  0  0  0  0
   34.8870   22.3930   39.9170 H   0  0  0  0  0  0  0  0  0  0  0  0
   36.4870   23.4380   41.4810 H   0  0  0  0  0  0  0  0  0  0  0  0
   37.2260   26.4700   42.1420 C   0  0  0  0  0  3  0  0  0  0  0  0
   37.7440   25.6840   41.1070 C   0  0  0  0  0  0  0  0  0  0  0  0
   39.1390   25.5430   41.1460 C   0  0  0  0  0  0  0  0  0  0  0  0
   39.5560   24.9420   40.3560 H   0  0  0  0  0  0  0  0  0  0  0  0
   39.8860   26.1440   42.1340 C   0  0  0  0  0  0  0  0  0  0  0  0
   39.3160   26.9000   43.1190 C   0  0  0  0  0  0  0  0  0  0  0  0
   37.9570   27.0790   43.1410 C   0  0  0  0  0  3  0  0  0  0  0  0
   40.3540   27.3490   43.9400 O   0  0  0  0  0  0  0  0  0  0  0  0
   41.5760   27.2560   43.1940 C   0  0  0  0  0  3  0  0  0  0  0  0
   42.4400   27.0470   43.8260 H   0  0  0  0  0  0  0  0  0  0  0  0
   41.2620   26.1340   42.3570 O   0  0  0  0  0  0  0  0  0  0  0  0
   38.2870   27.6330   39.5860 S   0  0  0  0  0  0  0  0  0  0  0  0
   38.3560   31.6300   39.9930 C   0  0  0  0  0  0  0  0  0  0  0  0
   38.6760   30.3280   39.7290 C   0  0  0  0  0  0  0  0  0  0  0  0
   37.7860   29.2980   39.9570 C   0  0  0  0  0  0  0  0  0  0  0  0
   36.5230   29.5740   40.4710 C   0  0  0  0  0  0  0  0  0  0  0  0
   36.1840   30.8540   40.7400 C   0  0  0  0  0  0  0  0  0  0  0  0
   37.0960   31.8570   40.5000 C   0  0  0  0  0  0  0  0  0  0  0  0
   39.6630   30.1270   39.3290 H   0  0  0  0  0  0  0  0  0  0  0  0
   35.8790   28.7170   40.6240 H   0  0  0  0  0  0  0  0  0  0  0  0
   35.2050   31.0890   41.1400 H   0  0  0  0  0  0  0  0  0  0  0  0
   36.7860   32.8790   40.7290 H   0  0  0  0  0  0  0  0  0  0  0  0
   39.9680   34.9090   40.2530 C   0  0  0  0  0  0  0  0  0  0  0  0
   41.0440   34.8000   39.3630 C   0  0  0  0  0  0  0  0  0  0  0  0
   41.2310   33.6090   38.6650 C   0  0  0  0  0  0  0  0  0  0  0  0
   40.3650   32.5770   38.8620 N   0  0  0  0  0  0  0  0  0  0  0  0
   39.3130   32.7130   39.7450 C   0  0  0  0  0  0  0  0  0  0  0  0
   39.1270   33.8670   40.4260 N   0  0  0  0  0  0  0  0  0  0  0  0
   39.8000   35.8240   40.8080 H   0  0  0  0  0  0  0  0  0  0  0  0
   41.6990   35.6390   39.2430 H   0  0  0  0  0  0  0  0  0  0  0  0
   42.0560   33.5000   37.9710 H   0  0  0  0  0  0  0  0  0  0  0  0
  1 10  1  0  0  0  0
  1 26  1  0  0  0  0
  2  1  2  0  0  0  0
  3  4  2  0  0  0  0
  3  2  1  0  0  0  0
  4  5  1  0  0  0  0
  5  6  2  0  0  0  0
  5 10  1  0  0  0  0
  6  7  1  0  0  0  0
  7 13  1  0  0  0  0
  7  8  2  0  0  0  0
  8 14  1  0  0  0  0
  9  8  1  0  0  0  0
  9 16  1  0  0  0  0
 10  9  2  0  0  0  0
 11  3  1  0  0  0  0
 12  6  1  0  0  0  0
 15 21  1  0  0  0  0
 16 17  1  0  0  0  0
 16 15  2  0  0  0  0
 17 19  2  0  0  0  0
 18 17  1  0  0  0  0
 19 25  1  0  0  0  0
 19 20  1  0  0  0  0
 20 21  2  0  0  0  0
 20 22  1  0  0  0  0
 23 24  1  0  0  0  0
 23 22  1  0  0  0  0
 25 23  1  0  0  0  0
 26 29  1  0  0  0  0
 27 32  1  0  0  0  0
 28 29  1  0  0  0  0
 28 27  2  0  0  0  0
 29 30  2  0  0  0  0
 30 34  1  0  0  0  0
 30 31  1  0  0  0  0
 31 35  1  0  0  0  0
 32 36  1  0  0  0  0
 32 31  2  0  0  0  0
 33 28  1  0  0  0  0
 37 42  1  0  0  0  0
 37 43  1  0  0  0  0
 38 37  2  0  0  0  0
 39 40  2  0  0  0  0
 39 38  1  0  0  0  0
 40 41  1  0  0  0  0
 41 27  1  0  0  0  0
 41 42  2  0  0  0  0
 44 38  1  0  0  0  0
 45 39  1  0  0  0  0
M  END
>  <minimizedAffinity>
-6.78972244

$$$$

 OpenBabel03242516273D

 45 50  0  0  0  0  0  0  0  0999 V2000
   39.0780   29.8540   40.4520 C   0  0  0  0  0  0  0  0  0  0  0  0
   40.0630   29.6220   41.3600 N   0  0  0  0  0  0  0  0  0  0  0  0
   40.6500   30.5980   42.0640 C   0  0  0  0  0  0  0  0  0  0  0  0
   40.2360   31.8600   41.8500 N   0  0  0  0  0  0  0  0  0  0  0  0
   39.2780   32.1780   40.9810 C   0  0  0  0  0  0  0  0  0  0  0  0
   38.8470   33.4800   40.7480 C   0  0  0  0  0  0  0  0  0  0  0  0
   37.8560   33.7500   39.8320 C   0  0  0  0  0  0  0  0  0  0  0  0
   37.2380   32.7320   39.0950 C   0  0  0  0  0  0  0  0  0  0  0  0
   37.6930   31.4490   39.3550 C   0  0  0  0  0  0  0  0  0  0  0  0
   38.6800   31.1600   40.2620 C   0  0  0  0  0  0  0  0  0  0  0  0
   41.4230   30.4260   42.7780 H   0  0  0  0  0  0  0  0  0  0  0  0
   39.3510   34.2360   41.3390 H   0  0  0  0  0  0  0  0  0  0  0  0
   37.6240   34.8000   39.7560 H   0  0  0  0  0  0  0  0  0  0  0  0
   36.4890   33.0590   38.4210 H   0  0  0  0  0  0  0  0  0  0  0  0
   37.3680   30.1970   37.2520 C   0  0  0  0  0  3  0  0  0  0  0  0
   36.9380   30.5010   38.5480 C   0  0  0  0  0  0  0  0  0  0  0  0
   35.7530   29.8500   38.9190 C   0  0  0  0  0  0  0  0  0  0  0  0
   35.4060   30.0720   39.9140 H   0  0  0  0  0  0  0  0  0  0  0  0
   35.1090   28.9980   38.0510 C   0  0  0  0  0  0  0  0  0  0  0  0
   35.5840   28.7430   36.7950 C   0  0  0  0  0  0  0  0  0  0  0  0
   36.7380   29.3460   36.3680 C   0  0  0  0  0  3  0  0  0  0  0  0
   34.6940   27.8460   36.1980 O   0  0  0  0  0  0  0  0  0  0  0  0
   33.4490   27.9240   36.9070 C   0  0  0  0  0  3  0  0  0  0  0  0
   32.9120   26.9740   36.9190 H   0  0  0  0  0  0  0  0  0  0  0  0
   33.9380   28.2600   38.2130 O   0  0  0  0  0  0  0  0  0  0  0  0
   38.2980   28.5860   39.4930 S   0  0  0  0  0  0  0  0  0  0  0  0
   37.2390   24.9410   40.8120 C   0  0  0  0  0  0  0  0  0  0  0  0
   37.6690   25.9930   40.0530 C   0  0  0  0  0  0  0  0  0  0  0  0
   37.7280   27.2780   40.5540 C   0  0  0  0  0  0  0  0  0  0  0  0
   37.3430   27.5280   41.8660 C   0  0  0  0  0  0  0  0  0  0  0  0
   36.9140   26.5050   42.6370 C   0  0  0  0  0  0  0  0  0  0  0  0
   36.8680   25.2350   42.1050 C   0  0  0  0  0  0  0  0  0  0  0  0
   37.9660   25.7840   39.0320 H   0  0  0  0  0  0  0  0  0  0  0  0
   37.4150   28.5590   42.1910 H   0  0  0  0  0  0  0  0  0  0  0  0
   36.6110   26.6790   43.6620 H   0  0  0  0  0  0  0  0  0  0  0  0
   36.5170   24.4330   42.7570 H   0  0  0  0  0  0  0  0  0  0  0  0
   36.0010   22.0500   38.9360 C   0  0  0  0  0  0  0  0  0  0  0  0
   36.9760   21.0750   39.1850 C   0  0  0  0  0  0  0  0  0  0  0  0
   38.0650   21.3920   39.9930 C   0  0  0  0  0  0  0  0  0  0  0  0
   38.1580   22.6420   40.5260 N   0  0  0  0  0  0  0  0  0  0  0  0
   37.1820   23.5820   40.2650 C   0  0  0  0  0  0  0  0  0  0  0  0
   36.1230   23.2790   39.4790 N   0  0  0  0  0  0  0  0  0  0  0  0
   35.1450   21.8280   38.3100 H   0  0  0  0  0  0  0  0  0  0  0  0
   36.8590   20.1060   38.7430 H   0  0  0  0  0  0  0  0  0  0  0  0
   38.8320   20.6560   40.2010 H   0  0  0  0  0  0  0  0  0  0  0  0
  1  2  1  0  0  0  0
  2  3  2  0  0  0  0
  3 11  1  0  0  0  0
  4  3  1  0  0  0  0
  5  4  2  0  0  0  0
  6  5  1  0  0  0  0
  6 12  1  0  0  0  0
  7  6  2  0  0  0  0
  8  9  2  0  0  0  0
  8  7  1  0  0  0  0
  9 10  1  0  0  0  0
 10  1  2  0  0  0  0
 10  5  1  0  0  0  0
 13  7  1  0  0  0  0
 14  8  1  0  0  0  0
 15 16  1  0  0  0  0
 16 17  2  0  0  0  0
 16  9  1  0  0  0  0
 17 18  1  0  0  0  0
 19 25  1  0  0  0  0
 19 17  1  0  0  0  0
 20 19  2  0  0  0  0
 21 20  1  0  0  0  0
 21 15  2  0  0  0  0
 22 20  1  0  0  0  0
 22 23  1  0  0  0  0
 23 24  1  0  0  0  0
 23 25  1  0  0  0  0
 26  1  1  0  0  0  0
 26 29  1  0  0  0  0
 27 32  1  0  0  0  0
 28 29  1  0  0  0  0
 28 27  2  0  0  0  0
 29 30  2  0  0  0  0
 30 34  1  0  0  0  0
 30 31  1  0  0  0  0
 31 35  1  0  0  0  0
 32 31  2  0  0  0  0
 32 36  1  0  0  0  0
 33 28  1  0  0  0  0
 37 38  2  0  0  0  0
 37 42  1  0  0  0  0
 38 39  1  0  0  0  0
 39 45  1  0  0  0  0
 39 40  2  0  0  0  0
 41 40  1  0  0  0  0
 41 27  1  0  0  0  0
 42 41  2  0  0  0  0
 43 37  1  0  0  0  0
 44 38  1  0  0  0  0
M  END
>  <minimizedAffinity>
-6.75689363

$$$$

 OpenBabel03242516273D

 45 50  0  0  0  0  0  0  0  0999 V2000
   38.8000   26.6460   42.4320 C   0  0  0  0  0  0  0  0  0  0  0  0
   39.4580   25.8070   43.2750 N   0  0  0  0  0  0  0  0  0  0  0  0
   39.4190   24.4740   43.1530 C   0  0  0  0  0  0  0  0  0  0  0  0
   38.6900   23.9590   42.1470 N   0  0  0  0  0  0  0  0  0  0  0  0
   38.0140   24.7060   41.2760 C   0  0  0  0  0  0  0  0  0  0  0  0
   37.2530   24.1830   40.2360 C   0  0  0  0  0  0  0  0  0  0  0  0
   36.5700   25.0040   39.3690 C   0  0  0  0  0  0  0  0  0  0  0  0
   36.6100   26.3990   39.4920 C   0  0  0  0  0  0  0  0  0  0  0  0
   37.3780   26.8830   40.5370 C   0  0  0  0  0  0  0  0  0  0  0  0
   38.0650   26.0810   41.4130 C   0  0  0  0  0  0  0  0  0  0  0  0
   39.9320   23.8070   43.8080 H   0  0  0  0  0  0  0  0  0  0  0  0
   37.2500   23.1010   40.1780 H   0  0  0  0  0  0  0  0  0  0  0  0
   36.0230   24.4630   38.6150 H   0  0  0  0  0  0  0  0  0  0  0  0
   36.0460   26.9280   38.7670 H   0  0  0  0  0  0  0  0  0  0  0  0
   36.3390   29.0250   41.1890 C   0  0  0  0  0  3  0  0  0  0  0  0
   37.3550   28.3380   40.5160 C   0  0  0  0  0  0  0  0  0  0  0  0
   38.2530   29.1760   39.8380 C   0  0  0  0  0  0  0  0  0  0  0  0
   39.0420   28.6650   39.3130 H   0  0  0  0  0  0  0  0  0  0  0  0
   38.1040   30.5440   39.8640 C   0  0  0  0  0  0  0  0  0  0  0  0
   37.0870   31.1530   40.5440 C   0  0  0  0  0  0  0  0  0  0  0  0
   36.1740   30.3940   41.2280 C   0  0  0  0  0  3  0  0  0  0  0  0
   37.2410   32.5300   40.3580 O   0  0  0  0  0  0  0  0  0  0  0  0
   38.0600   32.7280   39.1970 C   0  0  0  0  0  3  0  0  0  0  0  0
   38.6720   33.6290   39.2610 H   0  0  0  0  0  0  0  0  0  0  0  0
   38.8700   31.5460   39.2700 O   0  0  0  0  0  0  0  0  0  0  0  0
   38.8180   28.4100   42.5810 S   0  0  0  0  0  0  0  0  0  0  0  0
   42.0440   30.8030   42.4450 C   0  0  0  0  0  0  0  0  0  0  0  0
   40.7810   30.2890   42.3510 C   0  0  0  0  0  0  0  0  0  0  0  0
   40.4900   28.9960   42.7380 C   0  0  0  0  0  0  0  0  0  0  0  0
   41.4970   28.1790   43.2390 C   0  0  0  0  0  0  0  0  0  0  0  0
   42.7540   28.6640   43.3400 C   0  0  0  0  0  0  0  0  0  0  0  0
   43.0100   29.9590   42.9450 C   0  0  0  0  0  0  0  0  0  0  0  0
   40.0060   30.9360   41.9600 H   0  0  0  0  0  0  0  0  0  0  0  0
   41.1960   27.1780   43.5220 H   0  0  0  0  0  0  0  0  0  0  0  0
   43.5520   28.0440   43.7280 H   0  0  0  0  0  0  0  0  0  0  0  0
   44.0360   30.3170   43.0430 H   0  0  0  0  0  0  0  0  0  0  0  0
   43.7420   34.0440   42.2680 C   0  0  0  0  0  0  0  0  0  0  0  0
   42.9790   34.7450   41.3250 C   0  0  0  0  0  0  0  0  0  0  0  0
   41.8790   34.1210   40.7400 C   0  0  0  0  0  0  0  0  0  0  0  0
   41.5680   32.8450   41.0970 N   0  0  0  0  0  0  0  0  0  0  0  0
   42.3370   32.1790   42.0290 C   0  0  0  0  0  0  0  0  0  0  0  0
   43.4070   32.7790   42.6000 N   0  0  0  0  0  0  0  0  0  0  0  0
   44.6020   34.5050   42.7360 H   0  0  0  0  0  0  0  0  0  0  0  0
   43.2640   35.7470   41.0750 H   0  0  0  0  0  0  0  0  0  0  0  0
   41.2730   34.6430   40.0080 H   0  0  0  0  0  0  0  0  0  0  0  0
  1 26  1  0  0  0  0
  1  2  1  0  0  0  0
  3  2  2  0  0  0  0
  3 11  1  0  0  0  0
  4  3  1  0  0  0  0
  5 10  1  0  0  0  0
  5  4  2  0  0  0  0
  6  5  1  0  0  0  0
  7  8  1  0  0  0  0
  7  6  2  0  0  0  0
  8  9  2  0  0  0  0
  9 10  1  0  0  0  0
 10  1  2  0  0  0  0
 12  6  1  0  0  0  0
 13  7  1  0  0  0  0
 14  8  1  0  0  0  0
 15 21  1  0  0  0  0
 16  9  1  0  0  0  0
 16 15  2  0  0  0  0
 17 19  2  0  0  0  0
 17 16  1  0  0  0  0
 18 17  1  0  0  0  0
 19 20  1  0  0  0  0
 20 21  2  0  0  0  0
 22 20  1  0  0  0  0
 23 24  1  0  0  0  0
 23 25  1  0  0  0  0
 23 22  1  0  0  0  0
 25 19  1  0  0  0  0
 26 29  1  0  0  0  0
 27 32  1  0  0  0  0
 28 27  2  0  0  0  0
 28 29  1  0  0  0  0
 29 30  2  0  0  0  0
 30 31  1  0  0  0  0
 30 34  1  0  0  0  0
 31 35  1  0  0  0  0
 32 36  1  0  0  0  0
 32 31  2  0  0  0  0
 33 28  1  0  0  0  0
 37 42  1  0  0  0  0
 37 43  1  0  0  0  0
 38 37  2  0  0  0  0
 39 40  2  0  0  0  0
 39 38  1  0  0  0  0
 40 41  1  0  0  0  0
 41 27  1  0  0  0  0
 41 42  2  0  0  0  0
 44 38  1  0  0  0  0
 45 39  1  0  0  0  0
M  END
>  <minimizedAffinity>
-6.7536931

$$$$

 OpenBabel03242516273D

 45 50  0  0  0  0  0  0  0  0999 V2000
   36.9290   28.3200   39.0380 C   0  0  0  0  0  0  0  0  0  0  0  0
   36.5470   27.0510   39.3370 N   0  0  0  0  0  0  0  0  0  0  0  0
   36.0050   26.2210   38.4370 C   0  0  0  0  0  0  0  0  0  0  0  0
   35.8380   26.6810   37.1840 N   0  0  0  0  0  0  0  0  0  0  0  0
   36.1840   27.9100   36.8030 C   0  0  0  0  0  0  0  0  0  0  0  0
   36.0100   28.3960   35.5120 C   0  0  0  0  0  0  0  0  0  0  0  0
   36.3820   29.6790   35.1770 C   0  0  0  0  0  0  0  0  0  0  0  0
   36.9500   30.5480   36.1160 C   0  0  0  0  0  0  0  0  0  0  0  0
   37.1080   30.0280   37.3900 C   0  0  0  0  0  0  0  0  0  0  0  0
   36.7430   28.7550   37.7430 C   0  0  0  0  0  0  0  0  0  0  0  0
   35.7020   25.2240   38.6610 H   0  0  0  0  0  0  0  0  0  0  0  0
   35.5680   27.6910   34.8180 H   0  0  0  0  0  0  0  0  0  0  0  0
   36.1880   29.9200   34.1440 H   0  0  0  0  0  0  0  0  0  0  0  0
   37.1960   31.5090   35.7430 H   0  0  0  0  0  0  0  0  0  0  0  0
   36.9490   31.9570   38.9220 C   0  0  0  0  0  3  0  0  0  0  0  0
   37.7410   31.0270   38.2400 C   0  0  0  0  0  0  0  0  0  0  0  0
   39.1180   31.2000   38.4390 C   0  0  0  0  0  0  0  0  0  0  0  0
   39.7430   30.4930   37.9210 H   0  0  0  0  0  0  0  0  0  0  0  0
   39.5980   32.2090   39.2430 C   0  0  0  0  0  0  0  0  0  0  0  0
   38.7680   33.0860   39.8840 C   0  0  0  0  0  0  0  0  0  0  0  0
   37.4100   32.9740   39.7330 C   0  0  0  0  0  3  0  0  0  0  0  0
   39.5820   33.9650   40.6030 O   0  0  0  0  0  0  0  0  0  0  0  0
   40.8980   33.9140   40.0310 C   0  0  0  0  0  3  0  0  0  0  0  0
   41.6840   34.0870   40.7670 H   0  0  0  0  0  0  0  0  0  0  0  0
   40.9070   32.5550   39.5730 O   0  0  0  0  0  0  0  0  0  0  0  0
   37.6290   29.4440   40.2130 S   0  0  0  0  0  0  0  0  0  0  0  0
   39.5420   27.4290   43.1170 C   0  0  0  0  0  0  0  0  0  0  0  0
   39.2200   28.0870   41.9620 C   0  0  0  0  0  0  0  0  0  0  0  0
   37.9590   28.6050   41.7450 C   0  0  0  0  0  0  0  0  0  0  0  0
   36.9750   28.4620   42.7170 C   0  0  0  0  0  0  0  0  0  0  0  0
   37.2680   27.8150   43.8660 C   0  0  0  0  0  0  0  0  0  0  0  0
   38.5370   27.3110   44.0500 C   0  0  0  0  0  0  0  0  0  0  0  0
   39.9960   28.1910   41.2130 H   0  0  0  0  0  0  0  0  0  0  0  0
   36.0100   28.8930   42.4780 H   0  0  0  0  0  0  0  0  0  0  0  0
   36.5160   27.6950   44.6360 H   0  0  0  0  0  0  0  0  0  0  0  0
   38.7370   26.7960   44.9910 H   0  0  0  0  0  0  0  0  0  0  0  0
   43.0270   27.2400   44.2260 C   0  0  0  0  0  0  0  0  0  0  0  0
   43.4240   25.9680   43.7920 C   0  0  0  0  0  0  0  0  0  0  0  0
   42.5090   25.1620   43.1180 C   0  0  0  0  0  0  0  0  0  0  0  0
   41.2490   25.6280   42.8940 N   0  0  0  0  0  0  0  0  0  0  0  0
   40.8860   26.8850   43.3310 C   0  0  0  0  0  0  0  0  0  0  0  0
   41.7710   27.6710   43.9870 N   0  0  0  0  0  0  0  0  0  0  0  0
   43.7190   27.8850   44.7520 H   0  0  0  0  0  0  0  0  0  0  0  0
   44.4260   25.6460   43.9920 H   0  0  0  0  0  0  0  0  0  0  0  0
   42.7920   24.1750   42.7720 H   0  0  0  0  0  0  0  0  0  0  0  0
  1  2  1  0  0  0  0
  1 26  1  0  0  0  0
  3 11  1  0  0  0  0
  3  2  2  0  0  0  0
  4  3  1  0  0  0  0
  5  4  2  0  0  0  0
  5 10  1  0  0  0  0
  6  5  1  0  0  0  0
  7  6  2  0  0  0  0
  7  8  1  0  0  0  0
  8  9  2  0  0  0  0
  9 10  1  0  0  0  0
  9 16  1  0  0  0  0
 10  1  2  0  0  0  0
 12  6  1  0  0  0  0
 13  7  1  0  0  0  0
 14  8  1  0  0  0  0
 15 21  1  0  0  0  0
 16 17  1  0  0  0  0
 16 15  2  0  0  0  0
 17 19  2  0  0  0  0
 18 17  1  0  0  0  0
 19 25  1  0  0  0  0
 19 20  1  0  0  0  0
 20 22  1  0  0  0  0
 21 20  2  0  0  0  0
 23 22  1  0  0  0  0
 23 24  1  0  0  0  0
 25 23  1  0  0  0  0
 26 29  1  0  0  0  0
 27 41  1  0  0  0  0
 27 32  1  0  0  0  0
 28 27  2  0  0  0  0
 29 28  1  0  0  0  0
 29 30  2  0  0  0  0
 30 31  1  0  0  0  0
 31 32  2  0  0  0  0
 31 35  1  0  0  0  0
 32 36  1  0  0  0  0
 33 28  1  0  0  0  0
 34 30  1  0  0  0  0
 37 43  1  0  0  0  0
 38 44  1  0  0  0  0
 38 37  2  0  0  0  0
 39 38  1  0  0  0  0
 40 39  2  0  0  0  0
 40 41  1  0  0  0  0
 41 42  2  0  0  0  0
 42 37  1  0  0  0  0
 45 39  1  0  0  0  0
M  END
>  <minimizedAffinity>
-6.75284576

$$$$

 OpenBabel03242516273D

 45 50  0  0  0  0  0  0  0  0999 V2000
   37.8280   28.1590   39.6330 C   0  0  0  0  0  0  0  0  0  0  0  0
   37.4770   27.0900   38.8700 N   0  0  0  0  0  0  0  0  0  0  0  0
   36.9670   25.9630   39.3850 C   0  0  0  0  0  0  0  0  0  0  0  0
   36.8030   25.9030   40.7190 N   0  0  0  0  0  0  0  0  0  0  0  0
   37.1190   26.9020   41.5400 C   0  0  0  0  0  0  0  0  0  0  0  0
   36.9580   26.8470   42.9210 C   0  0  0  0  0  0  0  0  0  0  0  0
   37.3080   27.9100   43.7230 C   0  0  0  0  0  0  0  0  0  0  0  0
   37.8400   29.0900   43.1880 C   0  0  0  0  0  0  0  0  0  0  0  0
   37.9840   29.1080   41.8110 C   0  0  0  0  0  0  0  0  0  0  0  0
   37.6430   28.0600   40.9960 C   0  0  0  0  0  0  0  0  0  0  0  0
   36.6890   25.1200   38.7960 H   0  0  0  0  0  0  0  0  0  0  0  0
   36.5430   25.9170   43.2920 H   0  0  0  0  0  0  0  0  0  0  0  0
   37.1300   27.7280   44.7700 H   0  0  0  0  0  0  0  0  0  0  0  0
   38.0710   29.8390   43.9010 H   0  0  0  0  0  0  0  0  0  0  0  0
   39.8740   30.6750   41.5450 C   0  0  0  0  0  3  0  0  0  0  0  0
   38.5090   30.4030   41.4000 C   0  0  0  0  0  0  0  0  0  0  0  0
   37.7680   31.4770   40.8850 C   0  0  0  0  0  0  0  0  0  0  0  0
   36.7150   31.2860   40.7670 H   0  0  0  0  0  0  0  0  0  0  0  0
   38.3760   32.6690   40.5660 C   0  0  0  0  0  0  0  0  0  0  0  0
   39.7180   32.8700   40.7310 C   0  0  0  0  0  0  0  0  0  0  0  0
   40.5010   31.8620   41.2300 C   0  0  0  0  0  3  0  0  0  0  0  0
   39.9890   34.1750   40.3110 O   0  0  0  0  0  0  0  0  0  0  0  0
   38.7560   34.9100   40.3360 C   0  0  0  0  0  3  0  0  0  0  0  0
   38.7130   35.6860   39.5710 H   0  0  0  0  0  0  0  0  0  0  0  0
   37.8370   33.8470   40.0490 O   0  0  0  0  0  0  0  0  0  0  0  0
   38.5220   29.6520   38.9830 S   0  0  0  0  0  0  0  0  0  0  0  0
   42.1680   30.0450   37.3390 C   0  0  0  0  0  0  0  0  0  0  0  0
   41.0000   30.2540   38.0180 C   0  0  0  0  0  0  0  0  0  0  0  0
   40.0100   29.2940   38.0770 C   0  0  0  0  0  0  0  0  0  0  0  0
   40.1880   28.0730   37.4340 C   0  0  0  0  0  0  0  0  0  0  0  0
   41.3340   27.8440   36.7570 C   0  0  0  0  0  0  0  0  0  0  0  0
   42.3010   28.8240   36.7180 C   0  0  0  0  0  0  0  0  0  0  0  0
   40.8740   31.2090   38.5140 H   0  0  0  0  0  0  0  0  0  0  0  0
   39.3700   27.3690   37.5240 H   0  0  0  0  0  0  0  0  0  0  0  0
   41.4920   26.9000   36.2500 H   0  0  0  0  0  0  0  0  0  0  0  0
   43.2140   28.6020   36.1610 H   0  0  0  0  0  0  0  0  0  0  0  0
   45.4270   31.5970   36.7170 C   0  0  0  0  0  0  0  0  0  0  0  0
   45.2270   32.9200   37.1340 C   0  0  0  0  0  0  0  0  0  0  0  0
   43.9820   33.2960   37.6310 C   0  0  0  0  0  0  0  0  0  0  0  0
   42.9840   32.3720   37.7020 N   0  0  0  0  0  0  0  0  0  0  0  0
   43.2100   31.0760   37.2850 C   0  0  0  0  0  0  0  0  0  0  0  0
   44.4170   30.7050   36.8000 N   0  0  0  0  0  0  0  0  0  0  0  0
   46.3850   31.2800   36.3260 H   0  0  0  0  0  0  0  0  0  0  0  0
   46.0420   33.6110   37.0580 H   0  0  0  0  0  0  0  0  0  0  0  0
   43.8020   34.3130   37.9610 H   0  0  0  0  0  0  0  0  0  0  0  0
  1 10  1  0  0  0  0
  2  3  1  0  0  0  0
  2  1  2  0  0  0  0
  3  4  2  0  0  0  0
  4  5  1  0  0  0  0
  5  6  1  0  0  0  0
  6 12  1  0  0  0  0
  6  7  2  0  0  0  0
  7 13  1  0  0  0  0
  8  7  1  0  0  0  0
  8 14  1  0  0  0  0
  9  8  2  0  0  0  0
 10  5  2  0  0  0  0
 10  9  1  0  0  0  0
 11  3  1  0  0  0  0
 16 15  1  0  0  0  0
 16  9  1  0  0  0  0
 17 16  2  0  0  0  0
 18 17  1  0  0  0  0
 19 20  2  0  0  0  0
 19 17  1  0  0  0  0
 20 21  1  0  0  0  0
 21 15  2  0  0  0  0
 22 23  1  0  0  0  0
 22 20  1  0  0  0  0
 24 23  1  0  0  0  0
 25 23  1  0  0  0  0
 25 19  1  0  0  0  0
 26  1  1  0  0  0  0
 27 28  1  0  0  0  0
 28 29  2  0  0  0  0
 28 33  1  0  0  0  0
 29 26  1  0  0  0  0
 30 34  1  0  0  0  0
 30 29  1  0  0  0  0
 31 30  2  0  0  0  0
 32 31  1  0  0  0  0
 32 27  2  0  0  0  0
 35 31  1  0  0  0  0
 36 32  1  0  0  0  0
 37 42  2  0  0  0  0
 37 38  1  0  0  0  0
 38 39  2  0  0  0  0
 39 40  1  0  0  0  0
 39 45  1  0  0  0  0
 41 27  1  0  0  0  0
 41 40  2  0  0  0  0
 42 41  1  0  0  0  0
 43 37  1  0  0  0  0
 44 38  1  0  0  0  0
M  END
>  <minimizedAffinity>
-6.69246674

$$$$
