
 OpenBabel03242523373D

 21 23  0  0  0  0  0  0  0  0999 V2000
   47.1210   31.7570   45.2290 C   0  0  0  0  0  3  0  0  0  0  0  0
   46.3510   32.8750   45.4450 C   0  0  0  0  0  0  0  0  0  0  0  0
   45.6690   33.1230   46.6420 C   0  0  0  0  0  0  0  0  0  0  0  0
   45.0780   33.9920   46.7940 H   0  0  0  0  0  0  0  0  0  0  0  0
   45.8370   32.1330   47.6050 C   0  0  0  0  0  0  0  0  0  0  0  0
   46.5900   30.9870   47.4620 C   0  0  0  0  0  0  0  0  0  0  0  0
   47.2230   30.8440   46.2360 C   0  0  0  0  0  3  0  0  0  0  0  0
   46.4800   30.2890   48.6550 O   0  0  0  0  0  0  0  0  0  0  0  0
   45.5090   30.9020   49.4610 C   0  0  0  0  0  3  0  0  0  0  0  0
   45.8810   31.0320   50.5000 H   0  0  0  0  0  0  0  0  0  0  0  0
   45.2530   32.1530   48.8870 O   0  0  0  0  0  0  0  0  0  0  0  0
   44.9810   35.5460   43.3170 C   0  0  0  0  0  0  0  0  0  0  0  0
   46.0180   35.7450   42.3720 C   0  0  0  0  0  0  0  0  0  0  0  0
   47.1750   34.9430   42.4940 C   0  0  0  0  0  0  0  0  0  0  0  0
   47.2290   34.0390   43.4970 N   0  0  0  0  0  0  0  0  0  0  0  0
   46.2210   33.8840   44.3750 C   0  0  0  0  0  0  0  0  0  0  0  0
   45.1150   34.6260   44.2860 N   0  0  0  0  0  0  0  0  0  0  0  0
   44.1520   36.1980   43.1420 H   0  0  0  0  0  0  0  0  0  0  0  0
   45.9570   36.4700   41.5800 H   0  0  0  0  0  0  0  0  0  0  0  0
   48.5100   35.1420   41.3400 S   0  0  0  0  0  0  0  0  0  0  0  0
   49.3760   34.0210   41.4950 H   0  0  0  0  0  0  0  0  0  0  0  0
  1  2  2  0  0  0  0
  1  7  1  0  0  0  0
  2  3  1  0  0  0  0
  3  4  1  0  0  0  0
  3  5  2  0  0  0  0
  5 11  1  0  0  0  0
  6  5  1  0  0  0  0
  6  8  1  0  0  0  0
  7  6  2  0  0  0  0
  8  9  1  0  0  0  0
  9 10  1  0  0  0  0
 11  9  1  0  0  0  0
 12 17  1  0  0  0  0
 13 14  1  0  0  0  0
 13 12  2  0  0  0  0
 14 15  2  0  0  0  0
 15 16  1  0  0  0  0
 16  2  1  0  0  0  0
 17 16  2  0  0  0  0
 18 12  1  0  0  0  0
 19 13  1  0  0  0  0
 20 21  1  0  0  0  0
 20 14  1  0  0  0  0
M  END
>  <minimizedAffinity>
-4.71193218

>  <minimizedRMSD>
1.30479991

$$$$
