
 OpenBabel03242516163D

 45 49  0  0  1  0  0  0  0  0999 V2000
   46.2890   35.8090   42.6660 C   0  0  0  0  0  0  0  0  0  0  0  0
   46.8660   34.5490   42.4680 C   0  0  0  0  0  0  0  0  0  0  0  0
   46.4710   33.5070   43.3110 C   0  0  0  0  0  0  0  0  0  0  0  0
   45.5500   33.7720   44.2780 N   0  0  0  0  0  0  0  0  0  0  0  0
   45.0360   34.9960   44.4190 C   0  0  0  0  0  0  0  0  0  0  0  0
   45.3840   35.9960   43.6450 N   0  0  0  0  0  0  0  0  0  0  0  0
   44.0680   35.2970   45.4310 N   0  0  0  0  0  0  0  0  0  0  0  0
   46.5970   36.6170   42.0090 H   0  0  0  0  0  0  0  0  0  0  0  0
   44.3720   36.0460   46.1060 H   0  0  0  0  0  0  0  0  0  0  0  0
   43.1550   34.7570   45.4160 H   0  0  0  0  0  0  0  0  0  0  0  0
   47.8840   34.3490   41.3840 C   0  0  0  0  0  0  0  0  0  0  0  0
   48.7050   35.5820   41.0220 C   0  0  0  0  0  0  0  0  0  0  0  0
   49.2710   34.4430   41.7220 C   0  0  0  0  0  0  0  0  0  0  0  0
   48.9930   35.7590   39.9620 H   0  0  0  0  0  0  0  0  0  0  0  0
   48.3550   36.5310   41.4850 H   0  0  0  0  0  0  0  0  0  0  0  0
   49.9970   33.8120   41.1320 H   0  0  0  0  0  0  0  0  0  0  0  0
   49.7720   34.8530   42.6150 H   0  0  0  0  0  0  0  0  0  0  0  0
   47.4590   33.5750   40.1850 C   0  0  0  0  0  0  0  0  0  0  0  0
   48.0040   34.0740   38.8620 C   0  0  0  0  0  0  0  0  0  0  0  0
   47.5300   33.0750   37.8180 C   0  0  0  0  0  0  0  0  0  0  0  0
   46.1630   33.3550   37.6070 O   0  0  0  0  0  0  0  0  0  0  0  0
   45.5570   32.8350   38.7810 C   0  0  0  0  0  0  0  0  0  0  0  0
   45.9260   33.6960   39.9750 C   0  0  0  0  0  0  0  0  0  0  0  0
   47.7020   32.5180   40.2830 H   0  0  0  0  0  0  0  0  0  0  0  0
   49.1250   33.9850   38.8590 H   0  0  0  0  0  0  0  0  0  0  0  0
   47.6500   35.0910   38.6010 H   0  0  0  0  0  0  0  0  0  0  0  0
   48.0580   33.2190   36.8400 H   0  0  0  0  0  0  0  0  0  0  0  0
   47.6160   32.0410   38.1820 H   0  0  0  0  0  0  0  0  0  0  0  0
   44.4760   32.9170   38.6030 H   0  0  0  0  0  0  0  0  0  0  0  0
   45.9180   31.8170   38.9900 H   0  0  0  0  0  0  0  0  0  0  0  0
   45.4460   33.1950   40.8480 H   0  0  0  0  0  0  0  0  0  0  0  0
   45.6260   34.7430   39.8760 H   0  0  0  0  0  0  0  0  0  0  0  0
   47.0020   32.1870   43.2160 C   0  0  2  0  0  3  0  0  0  0  0  0
   46.4170   31.1740   42.6510 O   0  0  0  0  0  1  0  0  0  0  0  0
   49.2520   31.1000   42.8300 C   0  0  0  0  0  3  0  0  0  0  0  0
   48.1020   31.3210   43.5370 C   0  0  0  0  0  0  0  0  0  0  0  0
   47.9540   30.5130   44.6730 C   0  0  0  0  0  0  0  0  0  0  0  0
   47.0740   30.6170   45.2950 H   0  0  0  0  0  0  0  0  0  0  0  0
   48.8330   29.5630   45.1070 C   0  0  0  0  0  0  0  0  0  0  0  0
   49.9740   29.3740   44.3700 C   0  0  0  0  0  0  0  0  0  0  0  0
   50.1760   30.1330   43.2500 C   0  0  0  0  0  3  0  0  0  0  0  0
   50.7180   28.3640   44.9970 O   0  0  0  0  0  0  0  0  0  0  0  0
   49.8400   27.6480   45.8590 C   0  0  0  0  0  3  0  0  0  0  0  0
   50.3790   27.2620   46.7220 H   0  0  0  0  0  0  0  0  0  0  0  0
   48.8790   28.6630   46.1890 O   0  0  0  0  0  0  0  0  0  0  0  0
  1  6  1  0  0  0  0
  2  1  2  0  0  0  0
  2  3  1  0  0  0  0
  3  4  2  0  0  0  0
  4  5  1  0  0  0  0
  5  7  1  0  0  0  0
  6  5  2  0  0  0  0
  7  9  1  0  0  0  0
  8  1  1  0  0  0  0
 10  7  1  0  0  0  0
 11 13  1  0  0  0  0
 11  2  1  0  0  0  0
 12 11  1  0  0  0  0
 12 15  1  0  0  0  0
 12 13  1  0  0  0  0
 13 17  1  0  0  0  0
 14 12  1  0  0  0  0
 16 13  1  0  0  0  0
 18 24  1  0  0  0  0
 18 11  1  0  0  0  0
 19 18  1  0  0  0  0
 20 28  1  0  0  0  0
 20 19  1  0  0  0  0
 21 20  1  0  0  0  0
 21 22  1  0  0  0  0
 22 30  1  0  0  0  0
 22 23  1  0  0  0  0
 23 18  1  0  0  0  0
 23 31  1  0  0  0  0
 25 19  1  0  0  0  0
 26 19  1  0  0  0  0
 27 20  1  0  0  0  0
 29 22  1  0  0  0  0
 32 23  1  0  0  0  0
 33 34  1  1  0  0  0
 33  3  1  0  0  0  0
 33 36  1  0  0  0  0
 35 41  2  0  0  0  0
 35 36  1  0  0  0  0
 36 37  2  0  0  0  0
 37 39  1  0  0  0  0
 37 38  1  0  0  0  0
 39 45  1  0  0  0  0
 40 42  1  0  0  0  0
 40 39  2  0  0  0  0
 41 40  1  0  0  0  0
 42 43  1  0  0  0  0
 43 45  1  0  0  0  0
 43 44  1  0  0  0  0
M  END
>  <minimizedAffinity>
-5.42775631

>  <minimizedRMSD>
1.47893167

$$$$
