
 OpenBabel03242513073D

 43 48  0  0  0  0  0  0  0  0999 V2000
   45.9560   33.3500   41.5720 C   0  0  0  0  0  0  0  0  0  0  0  0
   47.1640   34.0060   41.3080 C   0  0  0  0  0  0  0  0  0  0  0  0
   48.1080   34.0000   42.3130 C   0  0  0  0  0  0  0  0  0  0  0  0
   47.7970   33.3620   43.4790 N   0  0  0  0  0  0  0  0  0  0  0  0
   46.6490   32.7450   43.7170 C   0  0  0  0  0  0  0  0  0  0  0  0
   45.7100   32.7340   42.7560 N   0  0  0  0  0  0  0  0  0  0  0  0
   45.1890   33.3340   40.8070 H   0  0  0  0  0  0  0  0  0  0  0  0
   46.4770   30.7280   45.1060 C   0  0  0  0  0  0  0  0  0  0  0  0
   46.4110   32.0950   44.9890 C   0  0  0  0  0  0  0  0  0  0  0  0
   46.1150   32.9310   46.0740 C   0  0  0  0  0  0  0  0  0  0  0  0
   45.8730   32.3890   47.3300 C   0  0  0  0  0  0  0  0  0  0  0  0
   45.5670   32.8600   48.5650 N   0  0  0  0  0  0  0  0  0  0  0  0
   45.4520   31.7970   49.4090 C   0  0  0  0  0  0  0  0  0  0  0  0
   45.6880   30.6820   48.6800 N   0  0  0  0  0  0  0  0  0  0  0  0
   45.9490   31.0140   47.4060 C   0  0  0  0  0  0  0  0  0  0  0  0
   46.2380   30.1600   46.3560 C   0  0  0  0  0  0  0  0  0  0  0  0
   46.7050   30.0810   44.2730 H   0  0  0  0  0  0  0  0  0  0  0  0
   46.0630   34.0190   45.9760 H   0  0  0  0  0  0  0  0  0  0  0  0
   45.4600   33.8930   48.7380 H   0  0  0  0  0  0  0  0  0  0  0  0
   45.2090   31.9300   50.4640 H   0  0  0  0  0  0  0  0  0  0  0  0
   46.2780   29.0880   46.5030 H   0  0  0  0  0  0  0  0  0  0  0  0
   49.4090   34.6740   42.0980 C   0  0  0  0  0  0  0  0  0  0  0  0
   49.2470   35.8090   41.2900 F   0  0  0  0  0  0  0  0  0  0  0  0
   49.9200   35.1270   43.2900 F   0  0  0  0  0  0  0  0  0  0  0  0
   50.2590   33.7880   41.4800 F   0  0  0  0  0  0  0  0  0  0  0  0
   47.3440   34.6000   40.1020 O   0  0  0  0  0  0  0  0  0  0  0  0
   47.3310   33.9030   38.9200 C   0  0  0  0  0  0  0  0  0  0  0  0
   48.4740   34.3530   38.2710 C   0  0  0  0  0  0  0  0  0  0  0  0
   48.4480   33.4080   36.6820 S   0  0  0  0  0  0  0  0  0  0  0  0
   46.8600   32.5570   37.1940 C   0  0  0  0  0  0  0  0  0  0  0  0
   46.7200   33.0310   38.1810 N   0  0  0  0  0  0  0  0  0  0  0  0
   49.4110   35.0470   38.2970 H   0  0  0  0  0  0  0  0  0  0  0  0
   45.0070   31.0800   36.4370 C   0  0  0  0  0  3  0  0  0  0  0  0
   46.2590   31.5770   36.2590 C   0  0  0  0  0  0  0  0  0  0  0  0
   47.1230   31.2640   35.2360 C   0  0  0  0  0  0  0  0  0  0  0  0
   48.1170   31.6660   35.1060 H   0  0  0  0  0  0  0  0  0  0  0  0
   46.6770   30.3450   34.2800 C   0  0  0  0  0  0  0  0  0  0  0  0
   45.3960   29.8300   34.4500 C   0  0  0  0  0  0  0  0  0  0  0  0
   44.5410   30.1680   35.5030 C   0  0  0  0  0  3  0  0  0  0  0  0
   45.1830   28.9450   33.3780 O   0  0  0  0  0  0  0  0  0  0  0  0
   46.1180   29.2460   32.3390 C   0  0  0  0  0  3  0  0  0  0  0  0
   46.4150   28.3600   31.7800 H   0  0  0  0  0  0  0  0  0  0  0  0
   47.2080   29.7650   33.1160 O   0  0  0  0  0  0  0  0  0  0  0  0
  1  6  1  0  0  0  0
  2  1  2  0  0  0  0
  2  3  1  0  0  0  0
  3  4  2  0  0  0  0
  4  5  1  0  0  0  0
  5  9  1  0  0  0  0
  6  5  2  0  0  0  0
  7  1  1  0  0  0  0
  8 16  1  0  0  0  0
  9  8  2  0  0  0  0
  9 10  1  0  0  0  0
 10 11  2  0  0  0  0
 11 15  1  0  0  0  0
 11 12  1  0  0  0  0
 12 19  1  0  0  0  0
 12 13  1  0  0  0  0
 13 20  1  0  0  0  0
 14 13  2  0  0  0  0
 15 14  1  0  0  0  0
 16 21  1  0  0  0  0
 16 15  2  0  0  0  0
 17  8  1  0  0  0  0
 18 10  1  0  0  0  0
 22  3  1  0  0  0  0
 22 24  1  0  0  0  0
 23 22  1  0  0  0  0
 25 22  1  0  0  0  0
 26  2  1  0  0  0  0
 27 26  1  0  0  0  0
 28 32  1  0  0  0  0
 28 27  2  0  0  0  0
 29 30  1  0  0  0  0
 29 28  1  0  0  0  0
 30 31  2  0  0  0  0
 31 27  1  0  0  0  0
 34 33  1  0  0  0  0
 34 30  1  0  0  0  0
 35 34  2  0  0  0  0
 36 35  1  0  0  0  0
 37 38  2  0  0  0  0
 37 35  1  0  0  0  0
 38 39  1  0  0  0  0
 39 33  2  0  0  0  0
 40 38  1  0  0  0  0
 41 43  1  0  0  0  0
 41 40  1  0  0  0  0
 42 41  1  0  0  0  0
 43 37  1  0  0  0  0
M  END
>  <minimizedAffinity>
-6.72060394

>  <minimizedRMSD>
0.690694869

$$$$
