
 OpenBabel03252508523D

 30 33  0  0  0  0  0  0  0  0999 V2000
   39.6040   31.5840   41.1920 C   0  0  0  0  0  0  0  0  0  0  0  0
   38.6500   31.6150   40.1810 C   0  0  0  0  0  0  0  0  0  0  0  0
   38.9600   32.3940   39.0610 C   0  0  0  0  0  0  0  0  0  0  0  0
   40.1570   33.0610   39.0290 N   0  0  0  0  0  0  0  0  0  0  0  0
   41.0300   32.9930   40.0260 C   0  0  0  0  0  0  0  0  0  0  0  0
   40.7720   32.2580   41.1180 N   0  0  0  0  0  0  0  0  0  0  0  0
   38.2370   32.4380   38.2590 H   0  0  0  0  0  0  0  0  0  0  0  0
   41.9690   33.5230   39.9910 H   0  0  0  0  0  0  0  0  0  0  0  0
   37.4160   30.8710   40.3190 C   0  0  0  0  0  0  0  0  0  0  0  0
   37.1550   29.7090   39.6320 C   0  0  0  0  0  0  0  0  0  0  0  0
   35.8920   29.3550   40.0610 C   0  0  0  0  0  0  0  0  0  0  0  0
   35.4160   30.2510   40.9570 N   0  0  0  0  0  0  0  0  0  0  0  0
   36.3560   31.1580   41.0970 N   0  0  0  0  0  0  0  0  0  0  0  0
   37.7310   29.1440   38.9170 H   0  0  0  0  0  0  0  0  0  0  0  0
   35.2670   28.4950   39.7860 H   0  0  0  0  0  0  0  0  0  0  0  0
   34.5170   30.3000   41.4790 H   0  0  0  0  0  0  0  0  0  0  0  0
   39.3380   30.8240   42.3190 O   0  0  0  0  0  0  0  0  0  0  0  0
   39.7880   29.5640   42.5920 C   0  0  0  0  0  0  0  0  0  0  0  0
   40.9860   29.2190   42.9060 O   0  0  0  0  0  0  0  0  0  0  0  0
   37.6680   28.3050   43.1860 C   0  0  0  0  0  3  0  0  0  0  0  0
   38.9070   28.3580   42.5560 C   0  0  0  0  0  0  0  0  0  0  0  0
   39.2240   27.1900   41.9070 C   0  0  0  0  0  0  0  0  0  0  0  0
   40.1740   27.1300   41.3830 H   0  0  0  0  0  0  0  0  0  0  0  0
   38.4260   26.0780   41.8690 C   0  0  0  0  0  0  0  0  0  0  0  0
   37.2160   26.1180   42.5210 C   0  0  0  0  0  0  0  0  0  0  0  0
   36.8050   27.2360   43.1990 C   0  0  0  0  0  3  0  0  0  0  0  0
   36.6230   24.8840   42.3240 O   0  0  0  0  0  0  0  0  0  0  0  0
   37.4640   24.0280   41.5650 C   0  0  0  0  0  3  0  0  0  0  0  0
   37.0160   23.7330   40.5930 H   0  0  0  0  0  0  0  0  0  0  0  0
   38.5830   24.8350   41.2730 O   0  0  0  0  0  0  0  0  0  0  0  0
  1 17  1  0  0  0  0
  2  9  1  0  0  0  0
  2  1  2  0  0  0  0
  3  2  1  0  0  0  0
  4  3  2  0  0  0  0
  4  5  1  0  0  0  0
  5  6  2  0  0  0  0
  6  1  1  0  0  0  0
  7  3  1  0  0  0  0
  8  5  1  0  0  0  0
  9 13  2  0  0  0  0
 10 11  2  0  0  0  0
 10  9  1  0  0  0  0
 11 12  1  0  0  0  0
 12 13  1  0  0  0  0
 12 16  1  0  0  0  0
 14 10  1  0  0  0  0
 15 11  1  0  0  0  0
 17 18  1  0  0  0  0
 18 19  2  0  0  0  0
 20 26  1  0  0  0  0
 21 18  1  0  0  0  0
 21 20  2  0  0  0  0
 22 21  1  0  0  0  0
 23 22  1  0  0  0  0
 24 22  2  0  0  0  0
 24 25  1  0  0  0  0
 25 26  2  0  0  0  0
 27 25  1  0  0  0  0
 28 27  1  0  0  0  0
 29 28  1  0  0  0  0
 30 28  1  0  0  0  0
 30 24  1  0  0  0  0
M  END
>  <minimizedAffinity>
-5.72430849

$$$$

 OpenBabel03252508523D

 30 33  0  0  0  0  0  0  0  0999 V2000
   36.9380   25.8980   40.4500 C   0  0  0  0  0  0  0  0  0  0  0  0
   37.5400   25.9620   41.7010 C   0  0  0  0  0  0  0  0  0  0  0  0
   38.1030   24.7740   42.1780 C   0  0  0  0  0  0  0  0  0  0  0  0
   38.0280   23.6460   41.4010 N   0  0  0  0  0  0  0  0  0  0  0  0
   37.4390   23.6470   40.2120 C   0  0  0  0  0  0  0  0  0  0  0  0
   36.8870   24.7640   39.7170 N   0  0  0  0  0  0  0  0  0  0  0  0
   38.5780   24.7920   43.1480 H   0  0  0  0  0  0  0  0  0  0  0  0
   37.3850   22.7540   39.6090 H   0  0  0  0  0  0  0  0  0  0  0  0
   37.5620   27.2080   42.4380 C   0  0  0  0  0  0  0  0  0  0  0  0
   38.6690   28.0190   42.5150 C   0  0  0  0  0  0  0  0  0  0  0  0
   38.2460   29.0700   43.3020 C   0  0  0  0  0  0  0  0  0  0  0  0
   36.9570   28.9060   43.6790 N   0  0  0  0  0  0  0  0  0  0  0  0
   36.5650   27.7720   43.1440 N   0  0  0  0  0  0  0  0  0  0  0  0
   39.6610   27.9360   42.1000 H   0  0  0  0  0  0  0  0  0  0  0  0
   38.7880   29.9660   43.6380 H   0  0  0  0  0  0  0  0  0  0  0  0
   36.3230   29.4910   44.2630 H   0  0  0  0  0  0  0  0  0  0  0  0
   36.3690   27.0530   39.9390 O   0  0  0  0  0  0  0  0  0  0  0  0
   36.9550   27.9660   39.1080 C   0  0  0  0  0  0  0  0  0  0  0  0
   37.3420   27.7770   37.8970 O   0  0  0  0  0  0  0  0  0  0  0  0
   36.3510   30.1430   40.2610 C   0  0  0  0  0  3  0  0  0  0  0  0
   37.2390   29.3740   39.5170 C   0  0  0  0  0  0  0  0  0  0  0  0
   38.3940   30.0500   39.2040 C   0  0  0  0  0  0  0  0  0  0  0  0
   39.1530   29.5340   38.6230 H   0  0  0  0  0  0  0  0  0  0  0  0
   38.6660   31.3400   39.5710 C   0  0  0  0  0  0  0  0  0  0  0  0
   37.7270   32.0230   40.3080 C   0  0  0  0  0  0  0  0  0  0  0  0
   36.5410   31.4400   40.6730 C   0  0  0  0  0  3  0  0  0  0  0  0
   38.2490   33.2820   40.5390 O   0  0  0  0  0  0  0  0  0  0  0  0
   39.5210   33.4290   39.9240 C   0  0  0  0  0  3  0  0  0  0  0  0
   40.3360   33.6090   40.6560 H   0  0  0  0  0  0  0  0  0  0  0  0
   39.7590   32.1650   39.3470 O   0  0  0  0  0  0  0  0  0  0  0  0
  1  2  1  0  0  0  0
  2  3  2  0  0  0  0
  2  9  1  0  0  0  0
  3  7  1  0  0  0  0
  4  3  1  0  0  0  0
  5  4  2  0  0  0  0
  6  5  1  0  0  0  0
  6  1  2  0  0  0  0
  8  5  1  0  0  0  0
  9 10  1  0  0  0  0
  9 13  2  0  0  0  0
 10 11  2  0  0  0  0
 11 15  1  0  0  0  0
 11 12  1  0  0  0  0
 12 16  1  0  0  0  0
 13 12  1  0  0  0  0
 14 10  1  0  0  0  0
 17  1  1  0  0  0  0
 18 21  1  0  0  0  0
 18 17  1  0  0  0  0
 19 18  2  0  0  0  0
 20 26  1  0  0  0  0
 21 20  2  0  0  0  0
 22 21  1  0  0  0  0
 22 24  2  0  0  0  0
 23 22  1  0  0  0  0
 24 25  1  0  0  0  0
 25 27  1  0  0  0  0
 25 26  2  0  0  0  0
 28 27  1  0  0  0  0
 28 29  1  0  0  0  0
 30 24  1  0  0  0  0
 30 28  1  0  0  0  0
M  END
>  <minimizedAffinity>
-5.48600578

$$$$

 OpenBabel03252508523D

 30 33  0  0  0  0  0  0  0  0999 V2000
   37.5960   30.9360   39.7740 C   0  0  0  0  0  0  0  0  0  0  0  0
   38.5020   31.7100   39.0590 C   0  0  0  0  0  0  0  0  0  0  0  0
   38.3980   31.6550   37.6650 C   0  0  0  0  0  0  0  0  0  0  0  0
   37.4320   30.8600   37.1040 N   0  0  0  0  0  0  0  0  0  0  0  0
   36.5940   30.1410   37.8400 C   0  0  0  0  0  0  0  0  0  0  0  0
   36.6590   30.1660   39.1800 N   0  0  0  0  0  0  0  0  0  0  0  0
   39.0890   32.2460   37.0820 H   0  0  0  0  0  0  0  0  0  0  0  0
   35.8370   29.5190   37.3880 H   0  0  0  0  0  0  0  0  0  0  0  0
   39.4840   32.5140   39.7540 C   0  0  0  0  0  0  0  0  0  0  0  0
   40.7880   32.1200   39.9380 C   0  0  0  0  0  0  0  0  0  0  0  0
   41.3490   33.1700   40.6360 C   0  0  0  0  0  0  0  0  0  0  0  0
   40.4380   34.1450   40.8620 N   0  0  0  0  0  0  0  0  0  0  0  0
   39.3180   33.7240   40.3190 N   0  0  0  0  0  0  0  0  0  0  0  0
   41.3270   31.2320   39.6470 H   0  0  0  0  0  0  0  0  0  0  0  0
   42.3750   33.3060   41.0070 H   0  0  0  0  0  0  0  0  0  0  0  0
   40.5070   35.0630   41.3470 H   0  0  0  0  0  0  0  0  0  0  0  0
   37.6630   30.9620   41.1570 O   0  0  0  0  0  0  0  0  0  0  0  0
   38.3260   30.0850   41.9690 C   0  0  0  0  0  0  0  0  0  0  0  0
   39.3400   30.3360   42.7180 O   0  0  0  0  0  0  0  0  0  0  0  0
   37.0120   28.1910   43.0270 C   0  0  0  0  0  3  0  0  0  0  0  0
   37.9430   28.6480   42.1000 C   0  0  0  0  0  0  0  0  0  0  0  0
   38.4650   27.6370   41.3290 C   0  0  0  0  0  0  0  0  0  0  0  0
   39.2030   27.8910   40.5740 H   0  0  0  0  0  0  0  0  0  0  0  0
   38.1240   26.3160   41.4410 C   0  0  0  0  0  0  0  0  0  0  0  0
   37.1920   25.9580   42.3860 C   0  0  0  0  0  0  0  0  0  0  0  0
   36.6100   26.8890   43.2060 C   0  0  0  0  0  3  0  0  0  0  0  0
   37.0360   24.5880   42.2840 O   0  0  0  0  0  0  0  0  0  0  0  0
   37.8930   24.0480   41.2880 C   0  0  0  0  0  3  0  0  0  0  0  0
   37.3380   23.5740   40.4520 H   0  0  0  0  0  0  0  0  0  0  0  0
   38.5420   25.1820   40.7590 O   0  0  0  0  0  0  0  0  0  0  0  0
  1 17  1  0  0  0  0
  2  9  1  0  0  0  0
  2  1  2  0  0  0  0
  3  2  1  0  0  0  0
  4  3  2  0  0  0  0
  4  5  1  0  0  0  0
  5  6  2  0  0  0  0
  6  1  1  0  0  0  0
  7  3  1  0  0  0  0
  8  5  1  0  0  0  0
  9 10  1  0  0  0  0
  9 13  2  0  0  0  0
 10 11  2  0  0  0  0
 11 12  1  0  0  0  0
 11 15  1  0  0  0  0
 12 16  1  0  0  0  0
 13 12  1  0  0  0  0
 14 10  1  0  0  0  0
 17 18  1  0  0  0  0
 18 21  1  0  0  0  0
 18 19  2  0  0  0  0
 20 26  1  0  0  0  0
 21 20  2  0  0  0  0
 22 24  2  0  0  0  0
 22 21  1  0  0  0  0
 23 22  1  0  0  0  0
 24 25  1  0  0  0  0
 25 26  2  0  0  0  0
 27 25  1  0  0  0  0
 28 27  1  0  0  0  0
 29 28  1  0  0  0  0
 30 28  1  0  0  0  0
 30 24  1  0  0  0  0
M  END
>  <minimizedAffinity>
-5.39938927

$$$$

 OpenBabel03252508523D

 30 33  0  0  0  0  0  0  0  0999 V2000
   36.9940   26.5910   41.4780 C   0  0  0  0  0  0  0  0  0  0  0  0
   37.2230   26.4010   40.1200 C   0  0  0  0  0  0  0  0  0  0  0  0
   37.6720   25.1310   39.7400 C   0  0  0  0  0  0  0  0  0  0  0  0
   37.8540   24.1760   40.7080 N   0  0  0  0  0  0  0  0  0  0  0  0
   37.6190   24.4180   41.9910 C   0  0  0  0  0  0  0  0  0  0  0  0
   37.1860   25.6210   42.3980 N   0  0  0  0  0  0  0  0  0  0  0  0
   37.8590   24.9530   38.6910 H   0  0  0  0  0  0  0  0  0  0  0  0
   37.7650   23.6590   42.7430 H   0  0  0  0  0  0  0  0  0  0  0  0
   36.9980   27.4810   39.1830 C   0  0  0  0  0  0  0  0  0  0  0  0
   35.7570   27.8020   38.6860 C   0  0  0  0  0  0  0  0  0  0  0  0
   36.0100   28.8680   37.8470 C   0  0  0  0  0  0  0  0  0  0  0  0
   37.3280   29.1750   37.8370 N   0  0  0  0  0  0  0  0  0  0  0  0
   37.9040   28.3220   38.6530 N   0  0  0  0  0  0  0  0  0  0  0  0
   34.7770   27.3830   38.8520 H   0  0  0  0  0  0  0  0  0  0  0  0
   35.3220   29.4600   37.2280 H   0  0  0  0  0  0  0  0  0  0  0  0
   37.8670   29.9070   37.3300 H   0  0  0  0  0  0  0  0  0  0  0  0
   36.5470   27.8330   41.8970 O   0  0  0  0  0  0  0  0  0  0  0  0
   37.2910   28.8340   42.4550 C   0  0  0  0  0  0  0  0  0  0  0  0
   37.8010   28.8570   43.6340 O   0  0  0  0  0  0  0  0  0  0  0  0
   36.6940   30.8220   40.9980 C   0  0  0  0  0  3  0  0  0  0  0  0
   37.6260   30.0990   41.7340 C   0  0  0  0  0  0  0  0  0  0  0  0
   38.8740   30.6730   41.7210 C   0  0  0  0  0  0  0  0  0  0  0  0
   39.6740   30.1820   42.2680 H   0  0  0  0  0  0  0  0  0  0  0  0
   39.1930   31.8300   41.0640 C   0  0  0  0  0  0  0  0  0  0  0  0
   38.2050   32.4780   40.3610 C   0  0  0  0  0  0  0  0  0  0  0  0
   36.9250   31.9890   40.3100 C   0  0  0  0  0  3  0  0  0  0  0  0
   38.7900   33.6000   39.8030 O   0  0  0  0  0  0  0  0  0  0  0  0
   40.1730   33.6660   40.1200 C   0  0  0  0  0  3  0  0  0  0  0  0
   40.4360   34.5600   40.7230 H   0  0  0  0  0  0  0  0  0  0  0  0
   40.3790   32.5410   40.9450 O   0  0  0  0  0  0  0  0  0  0  0  0
  1 17  1  0  0  0  0
  1  6  1  0  0  0  0
  2  1  2  0  0  0  0
  3  2  1  0  0  0  0
  3  4  2  0  0  0  0
  4  5  1  0  0  0  0
  5  6  2  0  0  0  0
  5  8  1  0  0  0  0
  7  3  1  0  0  0  0
  9  2  1  0  0  0  0
 10 14  1  0  0  0  0
 10  9  1  0  0  0  0
 11 10  2  0  0  0  0
 12 11  1  0  0  0  0
 12 13  1  0  0  0  0
 13  9  2  0  0  0  0
 15 11  1  0  0  0  0
 16 12  1  0  0  0  0
 17 18  1  0  0  0  0
 18 19  2  0  0  0  0
 20 21  1  0  0  0  0
 21 18  1  0  0  0  0
 22 21  2  0  0  0  0
 22 23  1  0  0  0  0
 24 22  1  0  0  0  0
 25 24  2  0  0  0  0
 26 25  1  0  0  0  0
 26 20  2  0  0  0  0
 27 28  1  0  0  0  0
 27 25  1  0  0  0  0
 28 29  1  0  0  0  0
 28 30  1  0  0  0  0
 30 24  1  0  0  0  0
M  END
>  <minimizedAffinity>
-5.22036552

$$$$

 OpenBabel03252508523D

 30 33  0  0  0  0  0  0  0  0999 V2000
   37.0120   26.7180   40.3740 C   0  0  0  0  0  0  0  0  0  0  0  0
   38.0810   25.8440   40.2150 C   0  0  0  0  0  0  0  0  0  0  0  0
   38.4540   25.5560   38.8970 C   0  0  0  0  0  0  0  0  0  0  0  0
   37.7580   26.1390   37.8690 N   0  0  0  0  0  0  0  0  0  0  0  0
   36.7440   26.9660   38.0840 C   0  0  0  0  0  0  0  0  0  0  0  0
   36.3540   27.2700   39.3310 N   0  0  0  0  0  0  0  0  0  0  0  0
   39.2820   24.8790   38.7420 H   0  0  0  0  0  0  0  0  0  0  0  0
   36.2030   27.4190   37.2680 H   0  0  0  0  0  0  0  0  0  0  0  0
   38.7460   25.2840   41.3730 C   0  0  0  0  0  0  0  0  0  0  0  0
   39.8530   25.8530   41.9560 C   0  0  0  0  0  0  0  0  0  0  0  0
   40.1420   25.0020   43.0020 C   0  0  0  0  0  0  0  0  0  0  0  0
   39.2610   23.9770   43.0510 N   0  0  0  0  0  0  0  0  0  0  0  0
   38.4260   24.1700   42.0550 N   0  0  0  0  0  0  0  0  0  0  0  0
   40.4220   26.7400   41.7220 H   0  0  0  0  0  0  0  0  0  0  0  0
   40.9450   25.0490   43.7510 H   0  0  0  0  0  0  0  0  0  0  0  0
   39.1750   23.1630   43.6950 H   0  0  0  0  0  0  0  0  0  0  0  0
   36.6110   27.0320   41.6620 O   0  0  0  0  0  0  0  0  0  0  0  0
   36.9780   28.1210   42.4000 C   0  0  0  0  0  0  0  0  0  0  0  0
   37.0790   28.1930   43.6790 O   0  0  0  0  0  0  0  0  0  0  0  0
   36.3940   30.2470   41.1470 C   0  0  0  0  0  3  0  0  0  0  0  0
   37.3260   29.4390   41.7900 C   0  0  0  0  0  0  0  0  0  0  0  0
   38.5860   29.9850   41.7980 C   0  0  0  0  0  0  0  0  0  0  0  0
   39.3870   29.4290   42.2770 H   0  0  0  0  0  0  0  0  0  0  0  0
   38.9180   31.1900   41.2410 C   0  0  0  0  0  0  0  0  0  0  0  0
   37.9290   31.9210   40.6260 C   0  0  0  0  0  0  0  0  0  0  0  0
   36.6370   31.4670   40.5630 C   0  0  0  0  0  3  0  0  0  0  0  0
   38.5280   33.0770   40.1580 O   0  0  0  0  0  0  0  0  0  0  0  0
   39.9190   33.0840   40.4450 C   0  0  0  0  0  3  0  0  0  0  0  0
   40.2170   33.9130   41.1200 H   0  0  0  0  0  0  0  0  0  0  0  0
   40.1180   31.8830   41.1570 O   0  0  0  0  0  0  0  0  0  0  0  0
  1 17  1  0  0  0  0
  2  1  1  0  0  0  0
  2  9  1  0  0  0  0
  3  2  2  0  0  0  0
  4  5  2  0  0  0  0
  4  3  1  0  0  0  0
  5  6  1  0  0  0  0
  6  1  2  0  0  0  0
  7  3  1  0  0  0  0
  8  5  1  0  0  0  0
  9 10  1  0  0  0  0
  9 13  2  0  0  0  0
 10 11  2  0  0  0  0
 11 12  1  0  0  0  0
 11 15  1  0  0  0  0
 12 16  1  0  0  0  0
 13 12  1  0  0  0  0
 14 10  1  0  0  0  0
 17 18  1  0  0  0  0
 18 19  2  0  0  0  0
 20 21  1  0  0  0  0
 21 22  2  0  0  0  0
 21 18  1  0  0  0  0
 22 23  1  0  0  0  0
 24 22  1  0  0  0  0
 25 24  2  0  0  0  0
 26 25  1  0  0  0  0
 26 20  2  0  0  0  0
 27 28  1  0  0  0  0
 27 25  1  0  0  0  0
 28 29  1  0  0  0  0
 28 30  1  0  0  0  0
 30 24  1  0  0  0  0
M  END
>  <minimizedAffinity>
-5.17297173

$$$$

 OpenBabel03252508523D

 30 33  0  0  0  0  0  0  0  0999 V2000
   35.4530   29.2150   36.4290 C   0  0  0  0  0  0  0  0  0  0  0  0
   34.9050   29.3600   35.1600 C   0  0  0  0  0  0  0  0  0  0  0  0
   33.5560   29.0140   35.0250 C   0  0  0  0  0  0  0  0  0  0  0  0
   32.8740   28.5640   36.1270 N   0  0  0  0  0  0  0  0  0  0  0  0
   33.4530   28.4460   37.3150 C   0  0  0  0  0  0  0  0  0  0  0  0
   34.7430   28.7680   37.4880 N   0  0  0  0  0  0  0  0  0  0  0  0
   33.1020   29.1160   34.0500 H   0  0  0  0  0  0  0  0  0  0  0  0
   32.9070   28.0910   38.1750 H   0  0  0  0  0  0  0  0  0  0  0  0
   35.7180   29.8440   34.0640 C   0  0  0  0  0  0  0  0  0  0  0  0
   35.7870   31.1690   33.7050 C   0  0  0  0  0  0  0  0  0  0  0  0
   36.6590   31.1700   32.6350 C   0  0  0  0  0  0  0  0  0  0  0  0
   37.0920   29.9170   32.3620 N   0  0  0  0  0  0  0  0  0  0  0  0
   36.5090   29.1330   33.2400 N   0  0  0  0  0  0  0  0  0  0  0  0
   35.3160   32.0550   34.1010 H   0  0  0  0  0  0  0  0  0  0  0  0
   37.0210   32.0040   32.0180 H   0  0  0  0  0  0  0  0  0  0  0  0
   37.7440   29.5500   31.6390 H   0  0  0  0  0  0  0  0  0  0  0  0
   36.7860   29.5470   36.6070 O   0  0  0  0  0  0  0  0  0  0  0  0
   37.2990   30.4650   37.4790 C   0  0  0  0  0  0  0  0  0  0  0  0
   37.7900   31.6180   37.1910 O   0  0  0  0  0  0  0  0  0  0  0  0
   36.5240   30.8820   39.8570 C   0  0  0  0  0  3  0  0  0  0  0  0
   37.3650   30.2410   38.9540 C   0  0  0  0  0  0  0  0  0  0  0  0
   38.2510   29.3880   39.5660 C   0  0  0  0  0  0  0  0  0  0  0  0
   38.9530   28.8390   38.9450 H   0  0  0  0  0  0  0  0  0  0  0  0
   38.3220   29.1750   40.9160 C   0  0  0  0  0  0  0  0  0  0  0  0
   37.4490   29.8540   41.7330 C   0  0  0  0  0  0  0  0  0  0  0  0
   36.5240   30.7270   41.2230 C   0  0  0  0  0  3  0  0  0  0  0  0
   37.7330   29.4570   43.0270 O   0  0  0  0  0  0  0  0  0  0  0  0
   38.8160   28.5380   43.0540 C   0  0  0  0  0  3  0  0  0  0  0  0
   38.5270   27.5420   43.4470 H   0  0  0  0  0  0  0  0  0  0  0  0
   39.1400   28.3650   41.6930 O   0  0  0  0  0  0  0  0  0  0  0  0
  1 17  1  0  0  0  0
  1  6  1  0  0  0  0
  2  1  2  0  0  0  0
  3  2  1  0  0  0  0
  3  4  2  0  0  0  0
  4  5  1  0  0  0  0
  5  6  2  0  0  0  0
  5  8  1  0  0  0  0
  7  3  1  0  0  0  0
  9  2  1  0  0  0  0
 10  9  1  0  0  0  0
 10 14  1  0  0  0  0
 11 10  2  0  0  0  0
 12 11  1  0  0  0  0
 12 13  1  0  0  0  0
 13  9  2  0  0  0  0
 15 11  1  0  0  0  0
 16 12  1  0  0  0  0
 17 18  1  0  0  0  0
 18 21  1  0  0  0  0
 19 18  2  0  0  0  0
 20 26  1  0  0  0  0
 21 22  1  0  0  0  0
 21 20  2  0  0  0  0
 22 24  2  0  0  0  0
 23 22  1  0  0  0  0
 24 30  1  0  0  0  0
 24 25  1  0  0  0  0
 25 27  1  0  0  0  0
 26 25  2  0  0  0  0
 27 28  1  0  0  0  0
 28 29  1  0  0  0  0
 30 28  1  0  0  0  0
M  END
>  <minimizedAffinity>
-5.158319

$$$$

 OpenBabel03252508523D

 30 33  0  0  0  0  0  0  0  0999 V2000
   36.7410   28.6780   41.1590 C   0  0  0  0  0  0  0  0  0  0  0  0
   37.5820   29.6750   41.6390 C   0  0  0  0  0  0  0  0  0  0  0  0
   38.3880   29.3320   42.7300 C   0  0  0  0  0  0  0  0  0  0  0  0
   38.3020   28.0650   43.2460 N   0  0  0  0  0  0  0  0  0  0  0  0
   37.4790   27.1540   42.7440 C   0  0  0  0  0  0  0  0  0  0  0  0
   36.6890   27.4400   41.6980 N   0  0  0  0  0  0  0  0  0  0  0  0
   39.0520   30.0880   43.1260 H   0  0  0  0  0  0  0  0  0  0  0  0
   37.4190   26.1590   43.1570 H   0  0  0  0  0  0  0  0  0  0  0  0
   37.5920   30.9830   41.0190 C   0  0  0  0  0  0  0  0  0  0  0  0
   38.7450   31.6290   40.6400 C   0  0  0  0  0  0  0  0  0  0  0  0
   38.2900   32.8170   40.1070 C   0  0  0  0  0  0  0  0  0  0  0  0
   36.9400   32.8880   40.1590 N   0  0  0  0  0  0  0  0  0  0  0  0
   36.5410   31.7660   40.7150 N   0  0  0  0  0  0  0  0  0  0  0  0
   39.7860   31.3540   40.7050 H   0  0  0  0  0  0  0  0  0  0  0  0
   38.8500   33.6580   39.6740 H   0  0  0  0  0  0  0  0  0  0  0  0
   36.2690   33.6230   39.8540 H   0  0  0  0  0  0  0  0  0  0  0  0
   35.9260   28.9740   40.0800 O   0  0  0  0  0  0  0  0  0  0  0  0
   36.0070   28.4580   38.8170 C   0  0  0  0  0  0  0  0  0  0  0  0
   36.9310   27.7000   38.3460 O   0  0  0  0  0  0  0  0  0  0  0  0
   35.2910   28.8200   36.4100 C   0  0  0  0  0  3  0  0  0  0  0  0
   34.9820   28.7220   37.7630 C   0  0  0  0  0  0  0  0  0  0  0  0
   33.6420   28.8940   38.0150 C   0  0  0  0  0  0  0  0  0  0  0  0
   33.2980   28.8360   39.0430 H   0  0  0  0  0  0  0  0  0  0  0  0
   32.6940   29.1370   37.0580 C   0  0  0  0  0  0  0  0  0  0  0  0
   33.0940   29.2170   35.7450 C   0  0  0  0  0  0  0  0  0  0  0  0
   34.4070   29.0600   35.3860 C   0  0  0  0  0  3  0  0  0  0  0  0
   31.9550   29.4660   35.0020 O   0  0  0  0  0  0  0  0  0  0  0  0
   30.8120   29.5770   35.8390 C   0  0  0  0  0  3  0  0  0  0  0  0
   30.0510   28.7950   35.6390 H   0  0  0  0  0  0  0  0  0  0  0  0
   31.3220   29.3340   37.1310 O   0  0  0  0  0  0  0  0  0  0  0  0
  1  2  2  0  0  0  0
  1  6  1  0  0  0  0
  2  3  1  0  0  0  0
  3  7  1  0  0  0  0
  3  4  2  0  0  0  0
  5  8  1  0  0  0  0
  5  4  1  0  0  0  0
  6  5  2  0  0  0  0
  9  2  1  0  0  0  0
 10 14  1  0  0  0  0
 10  9  1  0  0  0  0
 11 12  1  0  0  0  0
 11 10  2  0  0  0  0
 12 13  1  0  0  0  0
 13  9  2  0  0  0  0
 15 11  1  0  0  0  0
 16 12  1  0  0  0  0
 17  1  1  0  0  0  0
 18 17  1  0  0  0  0
 19 18  2  0  0  0  0
 20 21  1  0  0  0  0
 21 22  2  0  0  0  0
 21 18  1  0  0  0  0
 22 23  1  0  0  0  0
 24 30  1  0  0  0  0
 24 22  1  0  0  0  0
 25 24  2  0  0  0  0
 26 25  1  0  0  0  0
 26 20  2  0  0  0  0
 27 25  1  0  0  0  0
 27 28  1  0  0  0  0
 28 30  1  0  0  0  0
 29 28  1  0  0  0  0
M  END
>  <minimizedAffinity>
-5.15472364

$$$$

 OpenBabel03252508523D

 30 33  0  0  0  0  0  0  0  0999 V2000
   38.9720   26.5710   41.8820 C   0  0  0  0  0  0  0  0  0  0  0  0
   38.8200   25.1890   41.8900 C   0  0  0  0  0  0  0  0  0  0  0  0
   39.5760   24.4890   42.8370 C   0  0  0  0  0  0  0  0  0  0  0  0
   40.3990   25.1920   43.6780 N   0  0  0  0  0  0  0  0  0  0  0  0
   40.5030   26.5140   43.6220 C   0  0  0  0  0  0  0  0  0  0  0  0
   39.7960   27.2230   42.7300 N   0  0  0  0  0  0  0  0  0  0  0  0
   39.4790   23.4140   42.8670 H   0  0  0  0  0  0  0  0  0  0  0  0
   41.1540   27.0570   44.2890 H   0  0  0  0  0  0  0  0  0  0  0  0
   37.9210   24.5480   40.9540 C   0  0  0  0  0  0  0  0  0  0  0  0
   36.6140   24.2430   41.2520 C   0  0  0  0  0  0  0  0  0  0  0  0
   36.1460   23.6540   40.0950 C   0  0  0  0  0  0  0  0  0  0  0  0
   37.1140   23.6050   39.1510 N   0  0  0  0  0  0  0  0  0  0  0  0
   38.1780   24.1520   39.6940 N   0  0  0  0  0  0  0  0  0  0  0  0
   36.0180   24.3900   42.1390 H   0  0  0  0  0  0  0  0  0  0  0  0
   35.1530   23.2480   39.8600 H   0  0  0  0  0  0  0  0  0  0  0  0
   37.1170   23.2370   38.1770 H   0  0  0  0  0  0  0  0  0  0  0  0
   38.2410   27.3030   40.9610 O   0  0  0  0  0  0  0  0  0  0  0  0
   37.2820   28.2410   41.2230 C   0  0  0  0  0  0  0  0  0  0  0  0
   36.2120   28.0830   41.9170 O   0  0  0  0  0  0  0  0  0  0  0  0
   36.6300   30.0850   39.6090 C   0  0  0  0  0  3  0  0  0  0  0  0
   37.3520   29.6420   40.7120 C   0  0  0  0  0  0  0  0  0  0  0  0
   38.1280   30.6290   41.2700 C   0  0  0  0  0  0  0  0  0  0  0  0
   38.7330   30.3830   42.1380 H   0  0  0  0  0  0  0  0  0  0  0  0
   38.2030   31.9160   40.8100 C   0  0  0  0  0  0  0  0  0  0  0  0
   37.4510   32.2640   39.7120 C   0  0  0  0  0  0  0  0  0  0  0  0
   36.6430   31.3540   39.0810 C   0  0  0  0  0  3  0  0  0  0  0  0
   37.7100   33.5990   39.4650 O   0  0  0  0  0  0  0  0  0  0  0  0
   38.6570   34.1160   40.3900 C   0  0  0  0  0  3  0  0  0  0  0  0
   38.2430   34.9280   41.0240 H   0  0  0  0  0  0  0  0  0  0  0  0
   38.9200   33.0230   41.2410 O   0  0  0  0  0  0  0  0  0  0  0  0
  1  2  2  0  0  0  0
  1  6  1  0  0  0  0
  2  3  1  0  0  0  0
  3  7  1  0  0  0  0
  3  4  2  0  0  0  0
  5  4  1  0  0  0  0
  5  8  1  0  0  0  0
  6  5  2  0  0  0  0
  9 10  1  0  0  0  0
  9  2  1  0  0  0  0
 10 14  1  0  0  0  0
 11 10  2  0  0  0  0
 12 13  1  0  0  0  0
 12 11  1  0  0  0  0
 13  9  2  0  0  0  0
 15 11  1  0  0  0  0
 16 12  1  0  0  0  0
 17 18  1  0  0  0  0
 17  1  1  0  0  0  0
 18 19  2  0  0  0  0
 20 21  1  0  0  0  0
 21 18  1  0  0  0  0
 21 22  2  0  0  0  0
 22 23  1  0  0  0  0
 24 30  1  0  0  0  0
 24 22  1  0  0  0  0
 25 24  2  0  0  0  0
 26 20  2  0  0  0  0
 26 25  1  0  0  0  0
 27 25  1  0  0  0  0
 27 28  1  0  0  0  0
 28 29  1  0  0  0  0
 28 30  1  0  0  0  0
M  END
>  <minimizedAffinity>
-5.13568211

$$$$

 OpenBabel03252508523D

 30 33  0  0  0  0  0  0  0  0999 V2000
   38.1320   30.8590   40.2520 C   0  0  0  0  0  0  0  0  0  0  0  0
   37.3510   31.1920   39.1520 C   0  0  0  0  0  0  0  0  0  0  0  0
   37.1830   32.5580   38.9030 C   0  0  0  0  0  0  0  0  0  0  0  0
   37.7850   33.4630   39.7390 N   0  0  0  0  0  0  0  0  0  0  0  0
   38.5200   33.0850   40.7760 C   0  0  0  0  0  0  0  0  0  0  0  0
   38.7080   31.7850   41.0500 N   0  0  0  0  0  0  0  0  0  0  0  0
   36.5790   32.8480   38.0540 H   0  0  0  0  0  0  0  0  0  0  0  0
   38.9900   33.8050   41.4270 H   0  0  0  0  0  0  0  0  0  0  0  0
   36.7600   30.1530   38.3350 C   0  0  0  0  0  0  0  0  0  0  0  0
   35.5000   29.6490   38.5510 C   0  0  0  0  0  0  0  0  0  0  0  0
   35.3550   28.7010   37.5590 C   0  0  0  0  0  0  0  0  0  0  0  0
   36.4640   28.6350   36.7860 N   0  0  0  0  0  0  0  0  0  0  0  0
   37.2990   29.5230   37.2750 N   0  0  0  0  0  0  0  0  0  0  0  0
   34.7430   29.8750   39.2860 H   0  0  0  0  0  0  0  0  0  0  0  0
   34.5090   28.0370   37.3320 H   0  0  0  0  0  0  0  0  0  0  0  0
   36.7030   28.0460   35.9620 H   0  0  0  0  0  0  0  0  0  0  0  0
   38.3250   29.5170   40.5350 O   0  0  0  0  0  0  0  0  0  0  0  0
   37.6450   28.7570   41.4440 C   0  0  0  0  0  0  0  0  0  0  0  0
   37.1600   29.1440   42.5700 O   0  0  0  0  0  0  0  0  0  0  0  0
   37.2280   26.4050   42.2940 C   0  0  0  0  0  3  0  0  0  0  0  0
   37.3630   27.3050   41.2430 C   0  0  0  0  0  0  0  0  0  0  0  0
   37.2090   26.7120   40.0130 C   0  0  0  0  0  0  0  0  0  0  0  0
   37.2980   27.3320   39.1250 H   0  0  0  0  0  0  0  0  0  0  0  0
   36.9520   25.3820   39.8150 C   0  0  0  0  0  0  0  0  0  0  0  0
   36.8340   24.5670   40.9160 C   0  0  0  0  0  0  0  0  0  0  0  0
   36.9690   25.0590   42.1880 C   0  0  0  0  0  3  0  0  0  0  0  0
   36.5780   23.2950   40.4380 O   0  0  0  0  0  0  0  0  0  0  0  0
   36.5580   23.2770   39.0170 C   0  0  0  0  0  3  0  0  0  0  0  0
   35.5710   22.9870   38.6030 H   0  0  0  0  0  0  0  0  0  0  0  0
   36.7710   24.6260   38.6650 O   0  0  0  0  0  0  0  0  0  0  0  0
  1 17  1  0  0  0  0
  1  6  1  0  0  0  0
  2  1  2  0  0  0  0
  3  2  1  0  0  0  0
  3  4  2  0  0  0  0
  4  5  1  0  0  0  0
  5  6  2  0  0  0  0
  5  8  1  0  0  0  0
  7  3  1  0  0  0  0
  9 10  1  0  0  0  0
  9  2  1  0  0  0  0
 10 14  1  0  0  0  0
 11 10  2  0  0  0  0
 12 13  1  0  0  0  0
 12 11  1  0  0  0  0
 13  9  2  0  0  0  0
 15 11  1  0  0  0  0
 16 12  1  0  0  0  0
 17 18  1  0  0  0  0
 18 19  2  0  0  0  0
 21 18  1  0  0  0  0
 21 20  2  0  0  0  0
 22 21  1  0  0  0  0
 23 22  1  0  0  0  0
 24 22  2  0  0  0  0
 24 25  1  0  0  0  0
 25 26  2  0  0  0  0
 26 20  1  0  0  0  0
 27 25  1  0  0  0  0
 28 27  1  0  0  0  0
 29 28  1  0  0  0  0
 30 28  1  0  0  0  0
 30 24  1  0  0  0  0
M  END
>  <minimizedAffinity>
-5.05925322

$$$$
