
 OpenBabel03252509233D

 29 32  0  0  1  0  0  0  0  0999 V2000
   46.8580   34.7970   41.9660 C   0  0  1  0  0  0  0  0  0  0  0  0
   48.2640   35.4530   42.0520 C   0  0  0  0  0  0  0  0  0  0  0  0
   47.9670   33.9690   41.6520 C   0  0  2  0  0  0  0  0  0  0  0  0
   46.2010   35.2860   41.2240 H   0  0  0  0  0  0  0  0  0  0  0  0
   48.7460   35.5530   43.0210 H   0  0  0  0  0  0  0  0  0  0  0  0
   48.5460   36.1120   41.2100 H   0  0  0  0  0  0  0  0  0  0  0  0
   48.2820   33.1980   42.3850 H   0  0  0  0  0  0  0  0  0  0  0  0
   47.9390   34.4120   39.1510 C   0  0  0  0  0  3  0  0  0  0  0  0
   48.3000   33.6360   40.2320 C   0  0  0  0  0  0  0  0  0  0  0  0
   49.0200   32.4780   39.9220 C   0  0  0  0  0  0  0  0  0  0  0  0
   49.3180   31.8480   40.7590 H   0  0  0  0  0  0  0  0  0  0  0  0
   49.3710   32.0920   38.6540 C   0  0  0  0  0  0  0  0  0  0  0  0
   48.9900   32.8970   37.6010 C   0  0  0  0  0  0  0  0  0  0  0  0
   48.2680   34.0640   37.8540 C   0  0  0  0  0  3  0  0  0  0  0  0
   49.4650   32.2830   36.4590 O   0  0  0  0  0  0  0  0  0  0  0  0
   50.3050   31.2010   36.8010 C   0  0  0  0  0  3  0  0  0  0  0  0
   50.0050   30.3280   36.1930 H   0  0  0  0  0  0  0  0  0  0  0  0
   50.0710   30.9970   38.1720 O   0  0  0  0  0  0  0  0  0  0  0  0
   44.6620   35.4040   44.9510 C   0  0  0  0  0  0  0  0  0  0  0  0
   45.2410   35.5980   43.6500 C   0  0  0  0  0  0  0  0  0  0  0  0
   46.2440   34.7160   43.3420 C   0  0  0  0  0  0  0  0  0  0  0  0
   46.6510   33.7310   44.2270 N   0  0  0  0  0  0  0  0  0  0  0  0
   46.0720   33.6020   45.4230 C   0  0  0  0  0  0  0  0  0  0  0  0
   45.0790   34.4320   45.7950 N   0  0  0  0  0  0  0  0  0  0  0  0
   43.8700   36.0710   45.2390 H   0  0  0  0  0  0  0  0  0  0  0  0
   46.5100   32.7860   45.9840 H   0  0  0  0  0  0  0  0  0  0  0  0
   44.8330   36.6290   42.7720 N   0  0  0  0  0  0  0  0  0  0  0  0
   45.4940   37.4290   42.5710 H   0  0  0  0  0  0  0  0  0  0  0  0
   43.8870   36.6310   42.3080 H   0  0  0  0  0  0  0  0  0  0  0  0
  1  4  1  6  0  0  0
  1  2  1  0  0  0  0
  1 21  1  0  0  0  0
  2  5  1  0  0  0  0
  3  1  1  0  0  0  0
  3  2  1  0  0  0  0
  3  7  1  1  0  0  0
  6  2  1  0  0  0  0
  8  9  1  0  0  0  0
  9  3  1  0  0  0  0
 10  9  2  0  0  0  0
 10 11  1  0  0  0  0
 12 10  1  0  0  0  0
 13 14  1  0  0  0  0
 13 12  2  0  0  0  0
 14  8  2  0  0  0  0
 15 16  1  0  0  0  0
 15 13  1  0  0  0  0
 16 18  1  0  0  0  0
 17 16  1  0  0  0  0
 18 12  1  0  0  0  0
 19 25  1  0  0  0  0
 19 24  1  0  0  0  0
 20 19  2  0  0  0  0
 21 20  1  0  0  0  0
 21 22  2  0  0  0  0
 22 23  1  0  0  0  0
 23 24  2  0  0  0  0
 23 26  1  0  0  0  0
 27 20  1  0  0  0  0
 28 27  1  0  0  0  0
 29 27  1  0  0  0  0
M  END
>  <minimizedAffinity>
-5.47312832

>  <minimizedRMSD>
0.948097169

$$$$
