
 OpenBabel03252508543D

 45 49  0  0  1  0  0  0  0  0999 V2000
   43.3240   34.5300   40.7030 C   0  0  0  0  0  0  0  0  0  0  0  0
   43.3940   35.7030   40.2050 O   0  0  0  0  0  0  0  0  0  0  0  0
   41.9130   34.2570   40.5040 N   0  0  0  0  0  0  0  0  0  0  0  0
   41.4840   34.2730   39.1210 C   0  0  0  0  0  0  0  0  0  0  0  0
   40.8370   35.6610   38.9240 C   0  0  0  0  0  0  0  0  0  0  0  0
   40.1330   35.9980   40.2470 C   0  0  0  0  0  0  0  0  0  0  0  0
   39.6580   34.7430   40.9430 C   0  0  0  0  0  0  0  0  0  0  0  0
   40.8810   33.9760   41.4770 C   0  0  1  0  0  0  0  0  0  0  0  0
   42.3120   34.2250   38.3940 H   0  0  0  0  0  0  0  0  0  0  0  0
   40.7540   33.4860   38.8710 H   0  0  0  0  0  0  0  0  0  0  0  0
   41.6470   36.4170   38.8110 H   0  0  0  0  0  0  0  0  0  0  0  0
   40.1700   35.6930   38.0630 H   0  0  0  0  0  0  0  0  0  0  0  0
   39.2180   36.5620   39.9690 H   0  0  0  0  0  0  0  0  0  0  0  0
   40.7880   36.5550   40.9380 H   0  0  0  0  0  0  0  0  0  0  0  0
   39.1870   34.1130   40.1470 H   0  0  0  0  0  0  0  0  0  0  0  0
   38.9890   35.0440   41.7470 H   0  0  0  0  0  0  0  0  0  0  0  0
   41.2130   34.3740   42.4400 H   0  0  0  0  0  0  0  0  0  0  0  0
   41.4690   31.5610   41.9720 C   0  0  0  0  0  3  0  0  0  0  0  0
   40.5630   32.5340   41.6130 C   0  0  0  0  0  0  0  0  0  0  0  0
   39.2570   32.1440   41.3570 C   0  0  0  0  0  0  0  0  0  0  0  0
   38.4540   32.8340   41.0640 H   0  0  0  0  0  0  0  0  0  0  0  0
   38.8620   30.8240   41.4580 C   0  0  0  0  0  0  0  0  0  0  0  0
   39.7940   29.8530   41.8230 C   0  0  0  0  0  0  0  0  0  0  0  0
   41.0950   30.2240   42.0790 C   0  0  0  0  0  3  0  0  0  0  0  0
   39.1380   28.6100   41.8490 O   0  0  0  0  0  0  0  0  0  0  0  0
   37.7630   28.9370   42.0970 C   0  0  0  0  0  3  0  0  0  0  0  0
   37.0780   28.1430   41.8010 H   0  0  0  0  0  0  0  0  0  0  0  0
   37.6640   30.1110   41.2760 O   0  0  0  0  0  0  0  0  0  0  0  0
   44.3460   33.8160   41.2450 O   0  0  0  0  0  0  0  0  0  0  0  0
   45.6940   34.0490   41.1210 C   0  0  0  0  0  0  0  0  0  0  0  0
   46.3540   34.6340   42.2000 C   0  0  0  0  0  0  0  0  0  0  0  0
   47.7290   34.8610   42.0480 C   0  0  0  0  0  0  0  0  0  0  0  0
   48.3310   34.5020   40.8680 N   0  0  0  0  0  0  0  0  0  0  0  0
   47.6440   33.9470   39.8720 C   0  0  0  0  0  0  0  0  0  0  0  0
   46.3290   33.7160   39.9860 N   0  0  0  0  0  0  0  0  0  0  0  0
   48.2420   35.3150   42.8820 H   0  0  0  0  0  0  0  0  0  0  0  0
   48.1400   33.6670   38.9410 H   0  0  0  0  0  0  0  0  0  0  0  0
   45.6230   34.9750   43.4010 C   0  0  0  0  0  0  0  0  0  0  0  0
   45.0370   36.2270   43.5960 C   0  0  0  0  0  0  0  0  0  0  0  0
   44.4620   36.1230   44.8360 C   0  0  0  0  0  0  0  0  0  0  0  0
   44.6770   34.8940   45.3680 N   0  0  0  0  0  0  0  0  0  0  0  0
   45.3800   34.2320   44.4760 N   0  0  0  0  0  0  0  0  0  0  0  0
   45.0550   37.0590   42.9070 H   0  0  0  0  0  0  0  0  0  0  0  0
   43.9090   36.9450   45.2990 H   0  0  0  0  0  0  0  0  0  0  0  0
   44.3070   34.6310   46.3170 H   0  0  0  0  0  0  0  0  0  0  0  0
  1 29  1  0  0  0  0
  2  1  2  0  0  0  0
  3  1  1  0  0  0  0
  3  8  1  0  0  0  0
  4  3  1  0  0  0  0
  5  4  1  0  0  0  0
  5  6  1  0  0  0  0
  6 14  1  0  0  0  0
  6  7  1  0  0  0  0
  7  8  1  0  0  0  0
  7 16  1  0  0  0  0
  8 19  1  0  0  0  0
  8 17  1  1  0  0  0
  9  4  1  0  0  0  0
 10  4  1  0  0  0  0
 11  5  1  0  0  0  0
 12  5  1  0  0  0  0
 13  6  1  0  0  0  0
 15  7  1  0  0  0  0
 18 24  1  0  0  0  0
 19 18  2  0  0  0  0
 20 22  2  0  0  0  0
 20 19  1  0  0  0  0
 21 20  1  0  0  0  0
 22 23  1  0  0  0  0
 23 25  1  0  0  0  0
 23 24  2  0  0  0  0
 25 26  1  0  0  0  0
 27 26  1  0  0  0  0
 28 22  1  0  0  0  0
 28 26  1  0  0  0  0
 30 29  1  0  0  0  0
 30 31  1  0  0  0  0
 31 38  1  0  0  0  0
 32 31  2  0  0  0  0
 32 36  1  0  0  0  0
 33 32  1  0  0  0  0
 34 35  1  0  0  0  0
 34 33  2  0  0  0  0
 35 30  2  0  0  0  0
 37 34  1  0  0  0  0
 38 39  1  0  0  0  0
 38 42  2  0  0  0  0
 39 40  2  0  0  0  0
 40 44  1  0  0  0  0
 40 41  1  0  0  0  0
 41 45  1  0  0  0  0
 42 41  1  0  0  0  0
 43 39  1  0  0  0  0
M  END
>  <minimizedAffinity>
-7.24236917

>  <minimizedRMSD>
1.12341928

$$$$
