
 OpenBabel03242516163D

 45 49  0  0  1  0  0  0  0  0999 V2000
   46.4680   34.2270   42.9820 C   0  0  0  0  0  0  0  0  0  0  0  0
   45.6900   33.2010   42.4350 C   0  0  0  0  0  0  0  0  0  0  0  0
   45.2670   32.1740   43.2840 C   0  0  0  0  0  0  0  0  0  0  0  0
   45.6340   32.2270   44.5940 N   0  0  0  0  0  0  0  0  0  0  0  0
   46.3800   33.2330   45.0580 C   0  0  0  0  0  0  0  0  0  0  0  0
   46.7930   34.2120   44.2880 N   0  0  0  0  0  0  0  0  0  0  0  0
   46.7790   33.3070   46.4310 N   0  0  0  0  0  0  0  0  0  0  0  0
   46.7950   35.0240   42.3200 H   0  0  0  0  0  0  0  0  0  0  0  0
   47.8230   33.3180   46.5750 H   0  0  0  0  0  0  0  0  0  0  0  0
   46.0150   33.3420   47.1650 H   0  0  0  0  0  0  0  0  0  0  0  0
   45.3410   33.2150   40.9760 C   0  0  0  0  0  0  0  0  0  0  0  0
   46.3910   33.8330   40.0590 C   0  0  0  0  0  0  0  0  0  0  0  0
   46.1120   32.4090   40.0790 C   0  0  0  0  0  0  0  0  0  0  0  0
   46.0690   34.4310   39.1780 H   0  0  0  0  0  0  0  0  0  0  0  0
   47.2270   34.3470   40.5830 H   0  0  0  0  0  0  0  0  0  0  0  0
   45.5900   31.9940   39.1690 H   0  0  0  0  0  0  0  0  0  0  0  0
   47.0860   31.9100   40.2120 H   0  0  0  0  0  0  0  0  0  0  0  0
   43.9560   33.6220   40.6100 C   0  0  0  0  0  0  0  0  0  0  0  0
   43.6570   33.6510   39.1250 C   0  0  0  0  0  0  0  0  0  0  0  0
   42.1770   33.9800   39.0090 C   0  0  0  0  0  0  0  0  0  0  0  0
   42.0650   35.3610   39.2780 O   0  0  0  0  0  0  0  0  0  0  0  0
   42.2500   35.4170   40.6850 C   0  0  0  0  0  0  0  0  0  0  0  0
   43.6940   35.0940   41.0260 C   0  0  0  0  0  0  0  0  0  0  0  0
   43.2110   32.9960   41.1010 H   0  0  0  0  0  0  0  0  0  0  0  0
   43.7560   32.6140   38.7010 H   0  0  0  0  0  0  0  0  0  0  0  0
   44.2560   34.4030   38.5750 H   0  0  0  0  0  0  0  0  0  0  0  0
   41.7960   33.8080   37.9690 H   0  0  0  0  0  0  0  0  0  0  0  0
   41.5830   33.4360   39.7580 H   0  0  0  0  0  0  0  0  0  0  0  0
   42.0450   36.4620   40.9570 H   0  0  0  0  0  0  0  0  0  0  0  0
   41.6210   34.6720   41.1930 H   0  0  0  0  0  0  0  0  0  0  0  0
   43.7360   35.1200   42.1400 H   0  0  0  0  0  0  0  0  0  0  0  0
   44.4200   35.7660   40.5630 H   0  0  0  0  0  0  0  0  0  0  0  0
   44.4860   31.0690   42.8380 C   0  0  2  0  0  3  0  0  0  0  0  0
   44.9440   29.8930   42.5270 O   0  0  0  0  0  1  0  0  0  0  0  0
   42.0180   31.3150   42.3460 C   0  0  0  0  0  3  0  0  0  0  0  0
   43.1690   30.5950   42.5120 C   0  0  0  0  0  0  0  0  0  0  0  0
   43.0000   29.2060   42.4500 C   0  0  0  0  0  0  0  0  0  0  0  0
   43.8560   28.5540   42.5700 H   0  0  0  0  0  0  0  0  0  0  0  0
   41.8250   28.5450   42.2430 C   0  0  0  0  0  0  0  0  0  0  0  0
   40.6940   29.3040   42.0780 C   0  0  0  0  0  0  0  0  0  0  0  0
   40.7930   30.6680   42.1300 C   0  0  0  0  0  3  0  0  0  0  0  0
   39.6190   28.4230   41.8810 O   0  0  0  0  0  0  0  0  0  0  0  0
   40.0180   27.1390   42.3500 C   0  0  0  0  0  3  0  0  0  0  0  0
   39.5270   26.3530   41.7780 H   0  0  0  0  0  0  0  0  0  0  0  0
   41.4400   27.1940   42.1460 O   0  0  0  0  0  0  0  0  0  0  0  0
  1  6  1  0  0  0  0
  2  1  2  0  0  0  0
  2  3  1  0  0  0  0
  3  4  2  0  0  0  0
  4  5  1  0  0  0  0
  5  7  1  0  0  0  0
  6  5  2  0  0  0  0
  7  9  1  0  0  0  0
  7 10  1  0  0  0  0
  8  1  1  0  0  0  0
 11  2  1  0  0  0  0
 12 13  1  0  0  0  0
 12 15  1  0  0  0  0
 12 11  1  0  0  0  0
 13 17  1  0  0  0  0
 13 11  1  0  0  0  0
 14 12  1  0  0  0  0
 16 13  1  0  0  0  0
 18 11  1  0  0  0  0
 18 23  1  0  0  0  0
 18 24  1  0  0  0  0
 19 18  1  0  0  0  0
 20 19  1  0  0  0  0
 20 21  1  0  0  0  0
 20 28  1  0  0  0  0
 21 22  1  0  0  0  0
 22 29  1  0  0  0  0
 22 23  1  0  0  0  0
 22 30  1  0  0  0  0
 23 31  1  0  0  0  0
 25 19  1  0  0  0  0
 26 19  1  0  0  0  0
 27 20  1  0  0  0  0
 32 23  1  0  0  0  0
 33 34  1  6  0  0  0
 33  3  1  0  0  0  0
 35 36  1  0  0  0  0
 36 33  1  0  0  0  0
 37 36  2  0  0  0  0
 37 38  1  0  0  0  0
 39 37  1  0  0  0  0
 40 41  1  0  0  0  0
 40 39  2  0  0  0  0
 41 35  2  0  0  0  0
 42 40  1  0  0  0  0
 42 43  1  0  0  0  0
 44 43  1  0  0  0  0
 45 39  1  0  0  0  0
 45 43  1  0  0  0  0
M  END
>  <minimizedAffinity>
-4.5909009

>  <minimizedRMSD>
6.79958487

$$$$
