
 OpenBabel03252508563D

 45 49  0  0  1  0  0  0  0  0999 V2000
   35.9100   27.3190   38.8420 C   0  0  0  0  0  0  0  0  0  0  0  0
   35.3850   26.5670   37.9540 O   0  0  0  0  0  0  0  0  0  0  0  0
   36.0730   28.5390   38.0720 N   0  0  0  0  0  0  0  0  0  0  0  0
   34.8380   29.1010   37.5650 C   0  0  0  0  0  0  0  0  0  0  0  0
   34.7760   28.6490   36.0900 C   0  0  0  0  0  0  0  0  0  0  0  0
   36.2230   28.6570   35.5760 C   0  0  0  0  0  0  0  0  0  0  0  0
   37.0440   29.7120   36.2850 C   0  0  0  0  0  0  0  0  0  0  0  0
   37.2760   29.2680   37.7400 C   0  0  1  0  0  0  0  0  0  0  0  0
   33.9310   28.6910   38.0390 H   0  0  0  0  0  0  0  0  0  0  0  0
   34.7940   30.2010   37.6170 H   0  0  0  0  0  0  0  0  0  0  0  0
   34.4490   27.5840   36.0580 H   0  0  0  0  0  0  0  0  0  0  0  0
   34.1060   29.2660   35.4910 H   0  0  0  0  0  0  0  0  0  0  0  0
   36.1670   28.9720   34.5140 H   0  0  0  0  0  0  0  0  0  0  0  0
   36.7190   27.6810   35.7100 H   0  0  0  0  0  0  0  0  0  0  0  0
   36.4030   30.6290   36.3110 H   0  0  0  0  0  0  0  0  0  0  0  0
   37.9810   29.8210   35.7430 H   0  0  0  0  0  0  0  0  0  0  0  0
   38.1190   28.5730   37.8170 H   0  0  0  0  0  0  0  0  0  0  0  0
   36.7050   30.8420   39.6420 C   0  0  0  0  0  3  0  0  0  0  0  0
   37.5190   30.4490   38.6040 C   0  0  0  0  0  0  0  0  0  0  0  0
   38.6490   31.2070   38.3420 C   0  0  0  0  0  0  0  0  0  0  0  0
   39.3680   30.9860   37.5390 H   0  0  0  0  0  0  0  0  0  0  0  0
   38.9610   32.3250   39.0900 C   0  0  0  0  0  0  0  0  0  0  0  0
   38.1240   32.7080   40.1370 C   0  0  0  0  0  0  0  0  0  0  0  0
   36.9980   31.9660   40.4120 C   0  0  0  0  0  3  0  0  0  0  0  0
   38.6660   33.8630   40.7270 O   0  0  0  0  0  0  0  0  0  0  0  0
   40.0700   33.7870   40.4360 C   0  0  0  0  0  3  0  0  0  0  0  0
   40.5720   34.7510   40.5080 H   0  0  0  0  0  0  0  0  0  0  0  0
   39.9910   33.2840   39.0930 O   0  0  0  0  0  0  0  0  0  0  0  0
   36.2000   26.9790   40.1260 O   0  0  0  0  0  0  0  0  0  0  0  0
   36.9790   25.9370   40.5650 C   0  0  0  0  0  0  0  0  0  0  0  0
   37.7700   26.1480   41.6920 C   0  0  0  0  0  0  0  0  0  0  0  0
   38.5570   25.0680   42.1200 C   0  0  0  0  0  0  0  0  0  0  0  0
   38.5010   23.8920   41.4160 N   0  0  0  0  0  0  0  0  0  0  0  0
   37.7230   23.7530   40.3450 C   0  0  0  0  0  0  0  0  0  0  0  0
   36.9600   24.7640   39.9100 N   0  0  0  0  0  0  0  0  0  0  0  0
   39.1710   25.2300   42.9920 H   0  0  0  0  0  0  0  0  0  0  0  0
   37.6910   22.8090   39.7980 H   0  0  0  0  0  0  0  0  0  0  0  0
   37.7560   27.4310   42.3610 C   0  0  0  0  0  0  0  0  0  0  0  0
   38.6580   28.4510   42.0540 C   0  0  0  0  0  0  0  0  0  0  0  0
   38.2980   29.4640   42.9040 C   0  0  0  0  0  0  0  0  0  0  0  0
   37.2480   29.0960   43.6800 N   0  0  0  0  0  0  0  0  0  0  0  0
   36.9500   27.8660   43.3250 N   0  0  0  0  0  0  0  0  0  0  0  0
   39.4430   28.4120   41.3130 H   0  0  0  0  0  0  0  0  0  0  0  0
   38.8140   30.4280   42.9210 H   0  0  0  0  0  0  0  0  0  0  0  0
   36.8340   29.7490   44.3940 H   0  0  0  0  0  0  0  0  0  0  0  0
  1 29  1  0  0  0  0
  2  1  2  0  0  0  0
  3  1  1  0  0  0  0
  4 10  1  0  0  0  0
  4  9  1  0  0  0  0
  4  3  1  0  0  0  0
  5  4  1  0  0  0  0
  6 14  1  0  0  0  0
  6  5  1  0  0  0  0
  6  7  1  0  0  0  0
  7 15  1  0  0  0  0
  7  8  1  0  0  0  0
  8 17  1  1  0  0  0
  8  3  1  0  0  0  0
  8 19  1  0  0  0  0
 11  5  1  0  0  0  0
 12  5  1  0  0  0  0
 13  6  1  0  0  0  0
 16  7  1  0  0  0  0
 18 24  1  0  0  0  0
 19 18  2  0  0  0  0
 20 19  1  0  0  0  0
 20 22  2  0  0  0  0
 21 20  1  0  0  0  0
 22 28  1  0  0  0  0
 22 23  1  0  0  0  0
 23 24  2  0  0  0  0
 23 25  1  0  0  0  0
 26 27  1  0  0  0  0
 26 25  1  0  0  0  0
 28 26  1  0  0  0  0
 29 30  1  0  0  0  0
 30 31  1  0  0  0  0
 31 32  2  0  0  0  0
 31 38  1  0  0  0  0
 32 36  1  0  0  0  0
 33 32  1  0  0  0  0
 34 33  2  0  0  0  0
 35 34  1  0  0  0  0
 35 30  2  0  0  0  0
 37 34  1  0  0  0  0
 38 42  2  0  0  0  0
 39 38  1  0  0  0  0
 39 40  2  0  0  0  0
 40 44  1  0  0  0  0
 40 41  1  0  0  0  0
 41 45  1  0  0  0  0
 42 41  1  0  0  0  0
 43 39  1  0  0  0  0
M  END
>  <minimizedAffinity>
-6.56708097

$$$$

 OpenBabel03252508563D

 45 49  0  0  1  0  0  0  0  0999 V2000
   37.1920   28.8970   40.1630 C   0  0  0  0  0  0  0  0  0  0  0  0
   36.1150   28.2110   40.1650 O   0  0  0  0  0  0  0  0  0  0  0  0
   37.8290   28.3660   41.3540 N   0  0  0  0  0  0  0  0  0  0  0  0
   38.1050   26.9450   41.3090 C   0  0  0  0  0  0  0  0  0  0  0  0
   36.9580   26.2940   42.1120 C   0  0  0  0  0  0  0  0  0  0  0  0
   36.6310   27.2650   43.2570 C   0  0  0  0  0  0  0  0  0  0  0  0
   37.8600   28.0390   43.6790 C   0  0  0  0  0  0  0  0  0  0  0  0
   38.2230   29.0430   42.5700 C   0  0  1  0  0  0  0  0  0  0  0  0
   38.0430   26.5090   40.2980 H   0  0  0  0  0  0  0  0  0  0  0  0
   39.0740   26.6640   41.7520 H   0  0  0  0  0  0  0  0  0  0  0  0
   36.0480   26.2640   41.4720 H   0  0  0  0  0  0  0  0  0  0  0  0
   37.2080   25.2920   42.4600 H   0  0  0  0  0  0  0  0  0  0  0  0
   36.3530   26.6310   44.1240 H   0  0  0  0  0  0  0  0  0  0  0  0
   35.8430   27.9850   42.9800 H   0  0  0  0  0  0  0  0  0  0  0  0
   38.6870   27.2880   43.7370 H   0  0  0  0  0  0  0  0  0  0  0  0
   37.6280   28.5410   44.6160 H   0  0  0  0  0  0  0  0  0  0  0  0
   37.6290   29.9590   42.6490 H   0  0  0  0  0  0  0  0  0  0  0  0
   40.6620   28.4830   42.9640 C   0  0  0  0  0  3  0  0  0  0  0  0
   39.6670   29.3730   42.6300 C   0  0  0  0  0  0  0  0  0  0  0  0
   40.0350   30.6750   42.3260 C   0  0  0  0  0  0  0  0  0  0  0  0
   39.3250   31.4670   42.0460 H   0  0  0  0  0  0  0  0  0  0  0  0
   41.3540   31.0800   42.3540 C   0  0  0  0  0  0  0  0  0  0  0  0
   42.3490   30.1640   42.6940 C   0  0  0  0  0  0  0  0  0  0  0  0
   42.0010   28.8670   42.9980 C   0  0  0  0  0  3  0  0  0  0  0  0
   43.5870   30.8280   42.6460 O   0  0  0  0  0  0  0  0  0  0  0  0
   43.3780   31.9040   41.7180 C   0  0  0  0  0  3  0  0  0  0  0  0
   44.1060   32.7080   41.8290 H   0  0  0  0  0  0  0  0  0  0  0  0
   42.0490   32.2800   42.1100 O   0  0  0  0  0  0  0  0  0  0  0  0
   37.5520   29.8410   39.2530 O   0  0  0  0  0  0  0  0  0  0  0  0
   38.7590   29.9730   38.6120 C   0  0  0  0  0  0  0  0  0  0  0  0
   39.3130   31.2490   38.5260 C   0  0  0  0  0  0  0  0  0  0  0  0
   40.5460   31.3570   37.8670 C   0  0  0  0  0  0  0  0  0  0  0  0
   41.1220   30.2220   37.3550 N   0  0  0  0  0  0  0  0  0  0  0  0
   40.5410   29.0300   37.4690 C   0  0  0  0  0  0  0  0  0  0  0  0
   39.3640   28.8920   38.0920 N   0  0  0  0  0  0  0  0  0  0  0  0
   40.9760   32.3450   37.7990 H   0  0  0  0  0  0  0  0  0  0  0  0
   41.0150   28.1380   37.0550 H   0  0  0  0  0  0  0  0  0  0  0  0
   38.6210   32.3820   39.1010 C   0  0  0  0  0  0  0  0  0  0  0  0
   39.2810   33.3910   39.8050 C   0  0  0  0  0  0  0  0  0  0  0  0
   38.2720   34.2450   40.1650 C   0  0  0  0  0  0  0  0  0  0  0  0
   37.0740   33.7960   39.7160 N   0  0  0  0  0  0  0  0  0  0  0  0
   37.3240   32.6720   39.0800 N   0  0  0  0  0  0  0  0  0  0  0  0
   40.3430   33.4490   39.9990 H   0  0  0  0  0  0  0  0  0  0  0  0
   38.4520   35.1590   40.7380 H   0  0  0  0  0  0  0  0  0  0  0  0
   36.1830   34.3250   39.8980 H   0  0  0  0  0  0  0  0  0  0  0  0
  1  2  2  0  0  0  0
  1  3  1  0  0  0  0
  3  8  1  0  0  0  0
  4  3  1  0  0  0  0
  4 10  1  0  0  0  0
  4  5  1  0  0  0  0
  5 12  1  0  0  0  0
  5  6  1  0  0  0  0
  6  7  1  0  0  0  0
  6 13  1  0  0  0  0
  7 15  1  0  0  0  0
  7 16  1  0  0  0  0
  8 19  1  0  0  0  0
  8 17  1  1  0  0  0
  8  7  1  0  0  0  0
  9  4  1  0  0  0  0
 11  5  1  0  0  0  0
 14  6  1  0  0  0  0
 18 24  1  0  0  0  0
 19 18  2  0  0  0  0
 20 22  2  0  0  0  0
 20 19  1  0  0  0  0
 21 20  1  0  0  0  0
 22 23  1  0  0  0  0
 23 24  2  0  0  0  0
 25 23  1  0  0  0  0
 26 27  1  0  0  0  0
 26 28  1  0  0  0  0
 26 25  1  0  0  0  0
 28 22  1  0  0  0  0
 29  1  1  0  0  0  0
 30 29  1  0  0  0  0
 31 30  1  0  0  0  0
 31 38  1  0  0  0  0
 32 31  2  0  0  0  0
 33 34  2  0  0  0  0
 33 32  1  0  0  0  0
 34 35  1  0  0  0  0
 35 30  2  0  0  0  0
 36 32  1  0  0  0  0
 37 34  1  0  0  0  0
 38 39  1  0  0  0  0
 39 43  1  0  0  0  0
 39 40  2  0  0  0  0
 40 44  1  0  0  0  0
 41 45  1  0  0  0  0
 41 40  1  0  0  0  0
 42 38  2  0  0  0  0
 42 41  1  0  0  0  0
M  END
>  <minimizedAffinity>
-6.48086739

$$$$

 OpenBabel03252508563D

 45 49  0  0  1  0  0  0  0  0999 V2000
   37.5480   27.0760   41.1200 C   0  0  0  0  0  0  0  0  0  0  0  0
   37.2290   25.8480   41.2640 O   0  0  0  0  0  0  0  0  0  0  0  0
   38.8490   27.0730   41.7640 N   0  0  0  0  0  0  0  0  0  0  0  0
   39.8240   26.1960   41.1510 C   0  0  0  0  0  0  0  0  0  0  0  0
   39.8250   24.9280   42.0330 C   0  0  0  0  0  0  0  0  0  0  0  0
   39.6040   25.4080   43.4750 C   0  0  0  0  0  0  0  0  0  0  0  0
   40.1780   26.7930   43.6800 C   0  0  0  0  0  0  0  0  0  0  0  0
   39.3080   27.8100   42.9200 C   0  0  1  0  0  0  0  0  0  0  0  0
   39.5460   25.8540   40.1400 H   0  0  0  0  0  0  0  0  0  0  0  0
   40.8410   26.6190   41.1090 H   0  0  0  0  0  0  0  0  0  0  0  0
   38.9310   24.3170   41.7760 H   0  0  0  0  0  0  0  0  0  0  0  0
   40.7330   24.3370   41.9130 H   0  0  0  0  0  0  0  0  0  0  0  0
   40.2010   24.7290   44.1170 H   0  0  0  0  0  0  0  0  0  0  0  0
   38.5350   25.4290   43.7480 H   0  0  0  0  0  0  0  0  0  0  0  0
   41.1850   26.7790   43.1910 H   0  0  0  0  0  0  0  0  0  0  0  0
   40.1890   26.9910   44.7490 H   0  0  0  0  0  0  0  0  0  0  0  0
   38.4280   28.0980   43.5030 H   0  0  0  0  0  0  0  0  0  0  0  0
   41.4730   29.1080   42.6960 C   0  0  0  0  0  3  0  0  0  0  0  0
   40.1040   29.0150   42.5840 C   0  0  0  0  0  0  0  0  0  0  0  0
   39.4140   30.1260   42.1230 C   0  0  0  0  0  0  0  0  0  0  0  0
   38.3220   30.1640   41.9950 H   0  0  0  0  0  0  0  0  0  0  0  0
   40.0650   31.2950   41.7840 C   0  0  0  0  0  0  0  0  0  0  0  0
   41.4520   31.3690   41.9040 C   0  0  0  0  0  0  0  0  0  0  0  0
   42.1540   30.2760   42.3590 C   0  0  0  0  0  3  0  0  0  0  0  0
   41.8550   32.6540   41.4990 O   0  0  0  0  0  0  0  0  0  0  0  0
   40.8230   33.0840   40.5990 C   0  0  0  0  0  3  0  0  0  0  0  0
   40.7930   34.1660   40.4720 H   0  0  0  0  0  0  0  0  0  0  0  0
   39.6850   32.5610   41.3020 O   0  0  0  0  0  0  0  0  0  0  0  0
   36.8070   28.0420   40.5160 O   0  0  0  0  0  0  0  0  0  0  0  0
   36.1900   27.9850   39.2900 C   0  0  0  0  0  0  0  0  0  0  0  0
   35.9420   29.1890   38.6320 C   0  0  0  0  0  0  0  0  0  0  0  0
   35.3100   29.1040   37.3830 C   0  0  0  0  0  0  0  0  0  0  0  0
   34.9810   27.8660   36.8930 N   0  0  0  0  0  0  0  0  0  0  0  0
   35.2450   26.7510   37.5720 C   0  0  0  0  0  0  0  0  0  0  0  0
   35.8470   26.7970   38.7670 N   0  0  0  0  0  0  0  0  0  0  0  0
   35.1170   30.0340   36.8720 H   0  0  0  0  0  0  0  0  0  0  0  0
   34.9760   25.7750   37.1650 H   0  0  0  0  0  0  0  0  0  0  0  0
   36.3300   30.4430   39.2390 C   0  0  0  0  0  0  0  0  0  0  0  0
   37.0420   31.4260   38.5490 C   0  0  0  0  0  0  0  0  0  0  0  0
   37.1950   32.4230   39.4760 C   0  0  0  0  0  0  0  0  0  0  0  0
   36.6180   32.0810   40.6550 N   0  0  0  0  0  0  0  0  0  0  0  0
   36.1090   30.8830   40.4740 N   0  0  0  0  0  0  0  0  0  0  0  0
   37.3760   31.3750   37.5220 H   0  0  0  0  0  0  0  0  0  0  0  0
   37.7180   33.3570   39.2540 H   0  0  0  0  0  0  0  0  0  0  0  0
   36.6360   32.7270   41.4860 H   0  0  0  0  0  0  0  0  0  0  0  0
  1  2  2  0  0  0  0
  1  3  1  0  0  0  0
  3  8  1  0  0  0  0
  4  3  1  0  0  0  0
  4  5  1  0  0  0  0
  5  6  1  0  0  0  0
  6  7  1  0  0  0  0
  6 14  1  0  0  0  0
  6 13  1  0  0  0  0
  7 16  1  0  0  0  0
  8 17  1  1  0  0  0
  8  7  1  0  0  0  0
  9  4  1  0  0  0  0
 10  4  1  0  0  0  0
 11  5  1  0  0  0  0
 12  5  1  0  0  0  0
 15  7  1  0  0  0  0
 19 18  1  0  0  0  0
 19  8  1  0  0  0  0
 20 19  2  0  0  0  0
 21 20  1  0  0  0  0
 22 23  2  0  0  0  0
 22 20  1  0  0  0  0
 23 24  1  0  0  0  0
 24 18  2  0  0  0  0
 25 23  1  0  0  0  0
 26 28  1  0  0  0  0
 26 25  1  0  0  0  0
 27 26  1  0  0  0  0
 28 22  1  0  0  0  0
 29  1  1  0  0  0  0
 30 29  1  0  0  0  0
 31 38  1  0  0  0  0
 31 30  2  0  0  0  0
 32 31  1  0  0  0  0
 33 32  2  0  0  0  0
 33 34  1  0  0  0  0
 34 35  2  0  0  0  0
 35 30  1  0  0  0  0
 36 32  1  0  0  0  0
 37 34  1  0  0  0  0
 38 42  2  0  0  0  0
 39 38  1  0  0  0  0
 39 40  2  0  0  0  0
 40 41  1  0  0  0  0
 41 45  1  0  0  0  0
 42 41  1  0  0  0  0
 43 39  1  0  0  0  0
 44 40  1  0  0  0  0
M  END
>  <minimizedAffinity>
-6.42724371

$$$$

 OpenBabel03252508563D

 45 49  0  0  1  0  0  0  0  0999 V2000
   36.2480   25.8780   38.7330 C   0  0  0  0  0  0  0  0  0  0  0  0
   36.1870   24.7130   38.2150 O   0  0  0  0  0  0  0  0  0  0  0  0
   37.1430   25.6130   39.8430 N   0  0  0  0  0  0  0  0  0  0  0  0
   38.4550   25.1350   39.4600 C   0  0  0  0  0  0  0  0  0  0  0  0
   38.3920   23.6050   39.6610 C   0  0  0  0  0  0  0  0  0  0  0  0
   37.5070   23.3700   40.8950 C   0  0  0  0  0  0  0  0  0  0  0  0
   37.6180   24.5220   41.8680 C   0  0  0  0  0  0  0  0  0  0  0  0
   36.9190   25.7540   41.2650 C   0  0  1  0  0  0  0  0  0  0  0  0
   38.6920   25.2840   38.3930 H   0  0  0  0  0  0  0  0  0  0  0  0
   39.2770   25.5540   40.0630 H   0  0  0  0  0  0  0  0  0  0  0  0
   37.8410   23.1560   38.8030 H   0  0  0  0  0  0  0  0  0  0  0  0
   39.3800   23.1540   39.7510 H   0  0  0  0  0  0  0  0  0  0  0  0
   37.9350   22.4870   41.4120 H   0  0  0  0  0  0  0  0  0  0  0  0
   36.4450   23.2400   40.6270 H   0  0  0  0  0  0  0  0  0  0  0  0
   38.7100   24.7570   41.9390 H   0  0  0  0  0  0  0  0  0  0  0  0
   37.1530   24.2120   42.8020 H   0  0  0  0  0  0  0  0  0  0  0  0
   35.8380   25.7240   41.4360 H   0  0  0  0  0  0  0  0  0  0  0  0
   37.1280   27.5320   43.0570 C   0  0  0  0  0  3  0  0  0  0  0  0
   37.4840   26.9980   41.8400 C   0  0  0  0  0  0  0  0  0  0  0  0
   38.4410   27.6670   41.0920 C   0  0  0  0  0  0  0  0  0  0  0  0
   38.8010   27.3310   40.1080 H   0  0  0  0  0  0  0  0  0  0  0  0
   39.0270   28.8330   41.5420 C   0  0  0  0  0  0  0  0  0  0  0  0
   38.6530   29.3590   42.7780 C   0  0  0  0  0  0  0  0  0  0  0  0
   37.7050   28.7080   43.5330 C   0  0  0  0  0  3  0  0  0  0  0  0
   39.3920   30.5360   42.9910 O   0  0  0  0  0  0  0  0  0  0  0  0
   40.5810   30.3570   42.2060 C   0  0  0  0  0  3  0  0  0  0  0  0
   41.0850   31.2960   41.9790 H   0  0  0  0  0  0  0  0  0  0  0  0
   39.9940   29.7320   41.0540 O   0  0  0  0  0  0  0  0  0  0  0  0
   35.6120   26.9960   38.2920 O   0  0  0  0  0  0  0  0  0  0  0  0
   35.9620   27.8020   37.2370 C   0  0  0  0  0  0  0  0  0  0  0  0
   36.1630   29.1570   37.4950 C   0  0  0  0  0  0  0  0  0  0  0  0
   36.5200   29.9590   36.4010 C   0  0  0  0  0  0  0  0  0  0  0  0
   36.6480   29.3730   35.1670 N   0  0  0  0  0  0  0  0  0  0  0  0
   36.4420   28.0700   34.9860 C   0  0  0  0  0  0  0  0  0  0  0  0
   36.1000   27.2770   36.0090 N   0  0  0  0  0  0  0  0  0  0  0  0
   36.6760   31.0090   36.5970 H   0  0  0  0  0  0  0  0  0  0  0  0
   36.5490   27.6220   33.9970 H   0  0  0  0  0  0  0  0  0  0  0  0
   36.0010   29.6750   38.8360 C   0  0  0  0  0  0  0  0  0  0  0  0
   36.6710   30.8120   39.2910 C   0  0  0  0  0  0  0  0  0  0  0  0
   36.2380   30.9440   40.5840 C   0  0  0  0  0  0  0  0  0  0  0  0
   35.3640   29.9590   40.9050 N   0  0  0  0  0  0  0  0  0  0  0  0
   35.2460   29.2150   39.8280 N   0  0  0  0  0  0  0  0  0  0  0  0
   37.3620   31.4200   38.7240 H   0  0  0  0  0  0  0  0  0  0  0  0
   36.5780   31.7530   41.2380 H   0  0  0  0  0  0  0  0  0  0  0  0
   34.9260   29.9000   41.8610 H   0  0  0  0  0  0  0  0  0  0  0  0
  1  3  1  0  0  0  0
  2  1  2  0  0  0  0
  3  8  1  0  0  0  0
  4  5  1  0  0  0  0
  4  3  1  0  0  0  0
  4 10  1  0  0  0  0
  5 12  1  0  0  0  0
  5  6  1  0  0  0  0
  6 13  1  0  0  0  0
  6  7  1  0  0  0  0
  7 15  1  0  0  0  0
  7 16  1  0  0  0  0
  8 17  1  1  0  0  0
  8 19  1  0  0  0  0
  8  7  1  0  0  0  0
  9  4  1  0  0  0  0
 11  5  1  0  0  0  0
 14  6  1  0  0  0  0
 18 24  1  0  0  0  0
 19 18  2  0  0  0  0
 20 22  2  0  0  0  0
 20 19  1  0  0  0  0
 21 20  1  0  0  0  0
 22 23  1  0  0  0  0
 23 25  1  0  0  0  0
 23 24  2  0  0  0  0
 26 25  1  0  0  0  0
 27 26  1  0  0  0  0
 28 22  1  0  0  0  0
 28 26  1  0  0  0  0
 29  1  1  0  0  0  0
 30 31  1  0  0  0  0
 30 29  1  0  0  0  0
 31 38  1  0  0  0  0
 32 36  1  0  0  0  0
 32 31  2  0  0  0  0
 33 32  1  0  0  0  0
 34 33  2  0  0  0  0
 34 35  1  0  0  0  0
 35 30  2  0  0  0  0
 37 34  1  0  0  0  0
 38 39  1  0  0  0  0
 38 42  2  0  0  0  0
 39 40  2  0  0  0  0
 40 41  1  0  0  0  0
 40 44  1  0  0  0  0
 41 45  1  0  0  0  0
 42 41  1  0  0  0  0
 43 39  1  0  0  0  0
M  END
>  <minimizedAffinity>
-6.38117743

$$$$

 OpenBabel03252508563D

 45 49  0  0  1  0  0  0  0  0999 V2000
   37.1090   27.7290   38.5420 C   0  0  0  0  0  0  0  0  0  0  0  0
   36.4380   26.9270   37.8090 O   0  0  0  0  0  0  0  0  0  0  0  0
   36.7670   28.9910   37.9110 N   0  0  0  0  0  0  0  0  0  0  0  0
   35.3550   29.3110   37.9280 C   0  0  0  0  0  0  0  0  0  0  0  0
   34.8450   28.9240   36.5220 C   0  0  0  0  0  0  0  0  0  0  0  0
   35.9860   29.2510   35.5470 C   0  0  0  0  0  0  0  0  0  0  0  0
   36.8090   30.4180   36.0460 C   0  0  0  0  0  0  0  0  0  0  0  0
   37.6240   29.9640   37.2710 C   0  0  1  0  0  0  0  0  0  0  0  0
   34.7660   28.7040   38.6350 H   0  0  0  0  0  0  0  0  0  0  0  0
   35.1420   30.3760   38.1180 H   0  0  0  0  0  0  0  0  0  0  0  0
   34.7210   27.8180   36.4820 H   0  0  0  0  0  0  0  0  0  0  0  0
   33.9090   29.4190   36.2670 H   0  0  0  0  0  0  0  0  0  0  0  0
   35.4970   29.5970   34.6120 H   0  0  0  0  0  0  0  0  0  0  0  0
   36.6580   28.3920   35.3880 H   0  0  0  0  0  0  0  0  0  0  0  0
   36.0710   31.1820   36.3970 H   0  0  0  0  0  0  0  0  0  0  0  0
   37.4530   30.7410   35.2310 H   0  0  0  0  0  0  0  0  0  0  0  0
   38.5450   29.4540   36.9720 H   0  0  0  0  0  0  0  0  0  0  0  0
   37.0380   31.8240   38.8890 C   0  0  0  0  0  3  0  0  0  0  0  0
   37.9510   31.1290   38.1290 C   0  0  0  0  0  0  0  0  0  0  0  0
   39.2740   31.5420   38.1640 C   0  0  0  0  0  0  0  0  0  0  0  0
   40.0850   31.0610   37.5980 H   0  0  0  0  0  0  0  0  0  0  0  0
   39.6780   32.6160   38.9320 C   0  0  0  0  0  0  0  0  0  0  0  0
   38.7390   33.3080   39.6950 C   0  0  0  0  0  0  0  0  0  0  0  0
   37.4210   32.9110   39.6730 C   0  0  0  0  0  3  0  0  0  0  0  0
   39.4070   34.3420   40.3730 O   0  0  0  0  0  0  0  0  0  0  0  0
   40.7620   33.8800   40.4830 C   0  0  0  0  0  3  0  0  0  0  0  0
   41.4730   34.6860   40.6590 H   0  0  0  0  0  0  0  0  0  0  0  0
   40.8950   33.2750   39.1870 O   0  0  0  0  0  0  0  0  0  0  0  0
   37.8960   27.3970   39.6000 O   0  0  0  0  0  0  0  0  0  0  0  0
   37.7130   27.7270   40.9200 C   0  0  0  0  0  0  0  0  0  0  0  0
   37.5300   26.6870   41.8300 C   0  0  0  0  0  0  0  0  0  0  0  0
   37.3460   27.0500   43.1720 C   0  0  0  0  0  0  0  0  0  0  0  0
   37.3560   28.3810   43.5030 N   0  0  0  0  0  0  0  0  0  0  0  0
   37.5350   29.3290   42.5850 C   0  0  0  0  0  0  0  0  0  0  0  0
   37.7140   29.0170   41.2960 N   0  0  0  0  0  0  0  0  0  0  0  0
   37.2030   26.2460   43.8780 H   0  0  0  0  0  0  0  0  0  0  0  0
   37.5400   30.3830   42.8670 H   0  0  0  0  0  0  0  0  0  0  0  0
   37.5360   25.3130   41.3750 C   0  0  0  0  0  0  0  0  0  0  0  0
   38.6500   24.4820   41.5040 C   0  0  0  0  0  0  0  0  0  0  0  0
   38.2310   23.2970   40.9570 C   0  0  0  0  0  0  0  0  0  0  0  0
   36.9500   23.3900   40.5230 N   0  0  0  0  0  0  0  0  0  0  0  0
   36.5660   24.6180   40.7910 N   0  0  0  0  0  0  0  0  0  0  0  0
   39.6030   24.7480   41.9390 H   0  0  0  0  0  0  0  0  0  0  0  0
   38.8760   22.4160   40.9000 H   0  0  0  0  0  0  0  0  0  0  0  0
   36.4590   22.5740   40.0740 H   0  0  0  0  0  0  0  0  0  0  0  0
  1 29  1  0  0  0  0
  2  1  2  0  0  0  0
  3  4  1  0  0  0  0
  3  1  1  0  0  0  0
  4 10  1  0  0  0  0
  4  9  1  0  0  0  0
  5  4  1  0  0  0  0
  6  7  1  0  0  0  0
  6  5  1  0  0  0  0
  7 15  1  0  0  0  0
  7  8  1  0  0  0  0
  8 17  1  6  0  0  0
  8  3  1  0  0  0  0
  8 19  1  0  0  0  0
 11  5  1  0  0  0  0
 12  5  1  0  0  0  0
 13  6  1  0  0  0  0
 14  6  1  0  0  0  0
 16  7  1  0  0  0  0
 18 24  1  0  0  0  0
 19 20  1  0  0  0  0
 19 18  2  0  0  0  0
 20 22  2  0  0  0  0
 21 20  1  0  0  0  0
 22 28  1  0  0  0  0
 22 23  1  0  0  0  0
 23 25  1  0  0  0  0
 24 23  2  0  0  0  0
 25 26  1  0  0  0  0
 26 27  1  0  0  0  0
 28 26  1  0  0  0  0
 29 30  1  0  0  0  0
 30 35  2  0  0  0  0
 30 31  1  0  0  0  0
 31 32  2  0  0  0  0
 32 33  1  0  0  0  0
 32 36  1  0  0  0  0
 34 37  1  0  0  0  0
 34 33  2  0  0  0  0
 35 34  1  0  0  0  0
 38 39  1  0  0  0  0
 38 31  1  0  0  0  0
 39 43  1  0  0  0  0
 40 39  2  0  0  0  0
 41 42  1  0  0  0  0
 41 40  1  0  0  0  0
 42 38  2  0  0  0  0
 44 40  1  0  0  0  0
 45 41  1  0  0  0  0
M  END
>  <minimizedAffinity>
-6.27079105

$$$$

 OpenBabel03252508563D

 45 49  0  0  1  0  0  0  0  0999 V2000
   37.4760   30.1900   37.0910 C   0  0  0  0  0  0  0  0  0  0  0  0
   36.9130   30.5960   36.0200 O   0  0  0  0  0  0  0  0  0  0  0  0
   36.5240   29.1770   37.5060 N   0  0  0  0  0  0  0  0  0  0  0  0
   36.3420   28.0960   36.5600 C   0  0  0  0  0  0  0  0  0  0  0  0
   35.0400   28.4450   35.8060 C   0  0  0  0  0  0  0  0  0  0  0  0
   34.1120   29.1080   36.8360 C   0  0  0  0  0  0  0  0  0  0  0  0
   34.3720   28.5690   38.2250 C   0  0  0  0  0  0  0  0  0  0  0  0
   35.7350   29.0910   38.7150 C   0  0  1  0  0  0  0  0  0  0  0  0
   37.1260   28.0400   35.7870 H   0  0  0  0  0  0  0  0  0  0  0  0
   36.2420   27.1030   37.0290 H   0  0  0  0  0  0  0  0  0  0  0  0
   35.2670   29.2330   35.0520 H   0  0  0  0  0  0  0  0  0  0  0  0
   34.5910   27.5780   35.3220 H   0  0  0  0  0  0  0  0  0  0  0  0
   33.0840   28.7880   36.5690 H   0  0  0  0  0  0  0  0  0  0  0  0
   34.2300   30.2040   36.8590 H   0  0  0  0  0  0  0  0  0  0  0  0
   34.4580   27.4590   38.1100 H   0  0  0  0  0  0  0  0  0  0  0  0
   33.5590   28.9030   38.8670 H   0  0  0  0  0  0  0  0  0  0  0  0
   35.6520   30.1000   39.1310 H   0  0  0  0  0  0  0  0  0  0  0  0
   36.4550   26.8160   39.5660 C   0  0  0  0  0  3  0  0  0  0  0  0
   36.3000   28.1730   39.7340 C   0  0  0  0  0  0  0  0  0  0  0  0
   36.6980   28.7280   40.9400 C   0  0  0  0  0  0  0  0  0  0  0  0
   36.6200   29.7990   41.1820 H   0  0  0  0  0  0  0  0  0  0  0  0
   37.2350   27.9560   41.9510 C   0  0  0  0  0  0  0  0  0  0  0  0
   37.3850   26.5830   41.7630 C   0  0  0  0  0  0  0  0  0  0  0  0
   36.9950   26.0150   40.5710 C   0  0  0  0  0  3  0  0  0  0  0  0
   37.9480   26.0430   42.9320 O   0  0  0  0  0  0  0  0  0  0  0  0
   38.6640   27.1390   43.5210 C   0  0  0  0  0  3  0  0  0  0  0  0
   38.8590   26.9960   44.5840 H   0  0  0  0  0  0  0  0  0  0  0  0
   37.7240   28.1900   43.2500 O   0  0  0  0  0  0  0  0  0  0  0  0
   38.6450   30.6440   37.6160 O   0  0  0  0  0  0  0  0  0  0  0  0
   39.3170   30.1640   38.7130 C   0  0  0  0  0  0  0  0  0  0  0  0
   39.3060   30.9390   39.8710 C   0  0  0  0  0  0  0  0  0  0  0  0
   39.9990   30.4270   40.9780 C   0  0  0  0  0  0  0  0  0  0  0  0
   40.6330   29.2170   40.8570 N   0  0  0  0  0  0  0  0  0  0  0  0
   40.6060   28.5230   39.7210 C   0  0  0  0  0  0  0  0  0  0  0  0
   39.9540   28.9840   38.6460 N   0  0  0  0  0  0  0  0  0  0  0  0
   39.9920   31.0270   41.8760 H   0  0  0  0  0  0  0  0  0  0  0  0
   41.1170   27.5610   39.6440 H   0  0  0  0  0  0  0  0  0  0  0  0
   38.6050   32.2050   39.8930 C   0  0  0  0  0  0  0  0  0  0  0  0
   39.2670   33.4340   39.8820 C   0  0  0  0  0  0  0  0  0  0  0  0
   38.2470   34.3490   39.9100 C   0  0  0  0  0  0  0  0  0  0  0  0
   37.0410   33.7290   39.9350 N   0  0  0  0  0  0  0  0  0  0  0  0
   37.2970   32.4400   39.9250 N   0  0  0  0  0  0  0  0  0  0  0  0
   40.3370   33.5860   39.8570 H   0  0  0  0  0  0  0  0  0  0  0  0
   38.4250   35.4280   39.9090 H   0  0  0  0  0  0  0  0  0  0  0  0
   36.1410   34.2740   39.9580 H   0  0  0  0  0  0  0  0  0  0  0  0
  1  3  1  0  0  0  0
  1 29  1  0  0  0  0
  2  1  2  0  0  0  0
  3  8  1  0  0  0  0
  4 10  1  0  0  0  0
  4  3  1  0  0  0  0
  5  4  1  0  0  0  0
  5  6  1  0  0  0  0
  6 14  1  0  0  0  0
  6  7  1  0  0  0  0
  7  8  1  0  0  0  0
  7 16  1  0  0  0  0
  8 17  1  1  0  0  0
  8 19  1  0  0  0  0
  9  4  1  0  0  0  0
 11  5  1  0  0  0  0
 12  5  1  0  0  0  0
 13  6  1  0  0  0  0
 15  7  1  0  0  0  0
 18 19  2  0  0  0  0
 18 24  1  0  0  0  0
 19 20  1  0  0  0  0
 20 21  1  0  0  0  0
 20 22  2  0  0  0  0
 22 28  1  0  0  0  0
 23 22  1  0  0  0  0
 23 25  1  0  0  0  0
 24 23  2  0  0  0  0
 25 26  1  0  0  0  0
 26 27  1  0  0  0  0
 28 26  1  0  0  0  0
 29 30  1  0  0  0  0
 30 31  1  0  0  0  0
 31 38  1  0  0  0  0
 31 32  2  0  0  0  0
 32 36  1  0  0  0  0
 33 32  1  0  0  0  0
 34 33  2  0  0  0  0
 35 30  2  0  0  0  0
 35 34  1  0  0  0  0
 37 34  1  0  0  0  0
 38 42  2  0  0  0  0
 39 38  1  0  0  0  0
 39 40  2  0  0  0  0
 40 41  1  0  0  0  0
 41 45  1  0  0  0  0
 42 41  1  0  0  0  0
 43 39  1  0  0  0  0
 44 40  1  0  0  0  0
M  END
>  <minimizedAffinity>
-6.1954751

$$$$

 OpenBabel03252508563D

 45 49  0  0  1  0  0  0  0  0999 V2000
   37.2700   31.1130   39.4080 C   0  0  0  0  0  0  0  0  0  0  0  0
   36.9500   31.7610   38.3550 O   0  0  0  0  0  0  0  0  0  0  0  0
   36.7800   29.7950   39.0500 N   0  0  0  0  0  0  0  0  0  0  0  0
   37.3930   29.2230   37.8690 C   0  0  0  0  0  0  0  0  0  0  0  0
   36.3770   29.4740   36.7340 C   0  0  0  0  0  0  0  0  0  0  0  0
   34.9840   29.3350   37.3670 C   0  0  0  0  0  0  0  0  0  0  0  0
   35.0060   28.3510   38.5160 C   0  0  0  0  0  0  0  0  0  0  0  0
   35.7760   28.9770   39.6930 C   0  0  1  0  0  0  0  0  0  0  0  0
   38.3200   29.7320   37.5550 H   0  0  0  0  0  0  0  0  0  0  0  0
   37.5970   28.1430   37.9510 H   0  0  0  0  0  0  0  0  0  0  0  0
   36.4580   30.5380   36.4130 H   0  0  0  0  0  0  0  0  0  0  0  0
   36.5280   28.8110   35.8830 H   0  0  0  0  0  0  0  0  0  0  0  0
   34.3390   28.8820   36.5860 H   0  0  0  0  0  0  0  0  0  0  0  0
   34.5970   30.2980   37.7400 H   0  0  0  0  0  0  0  0  0  0  0  0
   35.6000   27.4740   38.1540 H   0  0  0  0  0  0  0  0  0  0  0  0
   33.9750   28.1300   38.7820 H   0  0  0  0  0  0  0  0  0  0  0  0
   35.1350   29.6390   40.2840 H   0  0  0  0  0  0  0  0  0  0  0  0
   36.4110   27.9820   41.9350 C   0  0  0  0  0  3  0  0  0  0  0  0
   36.3370   27.9150   40.5620 C   0  0  0  0  0  0  0  0  0  0  0  0
   36.8200   26.7730   39.9410 C   0  0  0  0  0  0  0  0  0  0  0  0
   36.8110   26.6130   38.8520 H   0  0  0  0  0  0  0  0  0  0  0  0
   37.3610   25.7280   40.6630 C   0  0  0  0  0  0  0  0  0  0  0  0
   37.4270   25.8150   42.0530 C   0  0  0  0  0  0  0  0  0  0  0  0
   36.9520   26.9400   42.6860 C   0  0  0  0  0  3  0  0  0  0  0  0
   38.0150   24.6310   42.5340 O   0  0  0  0  0  0  0  0  0  0  0  0
   37.7260   23.6540   41.5230 C   0  0  0  0  0  3  0  0  0  0  0  0
   38.3930   22.7930   41.5620 H   0  0  0  0  0  0  0  0  0  0  0  0
   37.9210   24.4730   40.3600 O   0  0  0  0  0  0  0  0  0  0  0  0
   37.8940   31.6110   40.5080 O   0  0  0  0  0  0  0  0  0  0  0  0
   39.0580   32.3380   40.5570 C   0  0  0  0  0  0  0  0  0  0  0  0
   40.2250   31.6710   40.9270 C   0  0  0  0  0  0  0  0  0  0  0  0
   41.4000   32.4360   40.9690 C   0  0  0  0  0  0  0  0  0  0  0  0
   41.3320   33.7680   40.6510 N   0  0  0  0  0  0  0  0  0  0  0  0
   40.1840   34.3480   40.3060 C   0  0  0  0  0  0  0  0  0  0  0  0
   39.0440   33.6470   40.2550 N   0  0  0  0  0  0  0  0  0  0  0  0
   42.3040   31.9220   41.2560 H   0  0  0  0  0  0  0  0  0  0  0  0
   40.1490   35.4100   40.0550 H   0  0  0  0  0  0  0  0  0  0  0  0
   40.1870   30.2600   41.2440 C   0  0  0  0  0  0  0  0  0  0  0  0
   40.1300   29.7840   42.5550 C   0  0  0  0  0  0  0  0  0  0  0  0
   40.1110   28.4220   42.4010 C   0  0  0  0  0  0  0  0  0  0  0  0
   40.1520   28.0820   41.0890 N   0  0  0  0  0  0  0  0  0  0  0  0
   40.1970   29.2150   40.4230 N   0  0  0  0  0  0  0  0  0  0  0  0
   40.1090   30.3820   43.4550 H   0  0  0  0  0  0  0  0  0  0  0  0
   40.0660   27.7350   43.2510 H   0  0  0  0  0  0  0  0  0  0  0  0
   40.1440   27.0760   40.7790 H   0  0  0  0  0  0  0  0  0  0  0  0
  1 29  1  0  0  0  0
  2  1  2  0  0  0  0
  3  1  1  0  0  0  0
  3  8  1  0  0  0  0
  4 10  1  0  0  0  0
  4  3  1  0  0  0  0
  5  6  1  0  0  0  0
  5  4  1  0  0  0  0
  6 14  1  0  0  0  0
  6  7  1  0  0  0  0
  7 16  1  0  0  0  0
  7  8  1  0  0  0  0
  8 17  1  1  0  0  0
  8 19  1  0  0  0  0
  9  4  1  0  0  0  0
 11  5  1  0  0  0  0
 12  5  1  0  0  0  0
 13  6  1  0  0  0  0
 15  7  1  0  0  0  0
 18 24  1  0  0  0  0
 19 18  2  0  0  0  0
 20 19  1  0  0  0  0
 20 22  2  0  0  0  0
 21 20  1  0  0  0  0
 22 23  1  0  0  0  0
 23 25  1  0  0  0  0
 23 24  2  0  0  0  0
 26 27  1  0  0  0  0
 26 25  1  0  0  0  0
 28 22  1  0  0  0  0
 28 26  1  0  0  0  0
 29 30  1  0  0  0  0
 30 31  1  0  0  0  0
 31 32  2  0  0  0  0
 31 38  1  0  0  0  0
 32 36  1  0  0  0  0
 33 32  1  0  0  0  0
 34 33  2  0  0  0  0
 35 34  1  0  0  0  0
 35 30  2  0  0  0  0
 37 34  1  0  0  0  0
 38 39  1  0  0  0  0
 39 43  1  0  0  0  0
 40 39  2  0  0  0  0
 40 44  1  0  0  0  0
 41 40  1  0  0  0  0
 42 41  1  0  0  0  0
 42 38  2  0  0  0  0
 45 41  1  0  0  0  0
M  END
>  <minimizedAffinity>
-6.19009399

$$$$

 OpenBabel03252508563D

 45 49  0  0  1  0  0  0  0  0999 V2000
   37.2210   30.0810   37.8790 C   0  0  0  0  0  0  0  0  0  0  0  0
   37.1390   30.7980   36.8260 O   0  0  0  0  0  0  0  0  0  0  0  0
   36.8050   28.7980   37.3410 N   0  0  0  0  0  0  0  0  0  0  0  0
   37.6510   28.2850   36.2840 C   0  0  0  0  0  0  0  0  0  0  0  0
   36.9020   28.6280   34.9780 C   0  0  0  0  0  0  0  0  0  0  0  0
   35.4050   28.4830   35.2900 C   0  0  0  0  0  0  0  0  0  0  0  0
   35.1720   27.4310   36.3520 C   0  0  0  0  0  0  0  0  0  0  0  0
   35.6790   27.9670   37.7030 C   0  0  1  0  0  0  0  0  0  0  0  0
   38.6280   28.7890   36.2070 H   0  0  0  0  0  0  0  0  0  0  0  0
   37.8220   27.1970   36.3380 H   0  0  0  0  0  0  0  0  0  0  0  0
   37.0600   29.7060   34.7500 H   0  0  0  0  0  0  0  0  0  0  0  0
   37.2250   28.0140   34.1370 H   0  0  0  0  0  0  0  0  0  0  0  0
   34.9370   28.0930   34.3630 H   0  0  0  0  0  0  0  0  0  0  0  0
   34.9570   29.4310   35.6330 H   0  0  0  0  0  0  0  0  0  0  0  0
   35.8210   26.5640   36.0690 H   0  0  0  0  0  0  0  0  0  0  0  0
   34.1050   27.2180   36.3780 H   0  0  0  0  0  0  0  0  0  0  0  0
   34.9330   28.6060   38.1860 H   0  0  0  0  0  0  0  0  0  0  0  0
   35.8930   25.5090   38.2820 C   0  0  0  0  0  3  0  0  0  0  0  0
   36.0310   26.8410   38.6020 C   0  0  0  0  0  0  0  0  0  0  0  0
   36.5350   27.1590   39.8530 C   0  0  0  0  0  0  0  0  0  0  0  0
   36.6870   28.1870   40.2140 H   0  0  0  0  0  0  0  0  0  0  0  0
   36.8920   26.1810   40.7610 C   0  0  0  0  0  0  0  0  0  0  0  0
   36.7450   24.8380   40.4180 C   0  0  0  0  0  0  0  0  0  0  0  0
   36.2460   24.5040   39.1800 C   0  0  0  0  0  3  0  0  0  0  0  0
   37.1770   24.0620   41.5080 O   0  0  0  0  0  0  0  0  0  0  0  0
   38.1090   24.9060   42.2010 C   0  0  0  0  0  3  0  0  0  0  0  0
   38.2650   24.6070   43.2370 H   0  0  0  0  0  0  0  0  0  0  0  0
   37.4160   26.1570   42.0670 O   0  0  0  0  0  0  0  0  0  0  0  0
   37.6010   30.4960   39.1160 O   0  0  0  0  0  0  0  0  0  0  0  0
   38.7180   31.2210   39.4530 C   0  0  0  0  0  0  0  0  0  0  0  0
   39.1670   31.1460   40.7700 C   0  0  0  0  0  0  0  0  0  0  0  0
   40.3100   31.8950   41.0890 C   0  0  0  0  0  0  0  0  0  0  0  0
   40.9040   32.6430   40.1040 N   0  0  0  0  0  0  0  0  0  0  0  0
   40.4250   32.6730   38.8620 C   0  0  0  0  0  0  0  0  0  0  0  0
   39.3360   31.9690   38.5250 N   0  0  0  0  0  0  0  0  0  0  0  0
   40.6590   31.8390   42.1080 H   0  0  0  0  0  0  0  0  0  0  0  0
   40.9120   33.2740   38.0920 H   0  0  0  0  0  0  0  0  0  0  0  0
   38.4650   30.3250   41.7330 C   0  0  0  0  0  0  0  0  0  0  0  0
   39.1250   29.5780   42.7100 C   0  0  0  0  0  0  0  0  0  0  0  0
   38.1050   28.9660   43.3900 C   0  0  0  0  0  0  0  0  0  0  0  0
   36.9000   29.3110   42.8700 N   0  0  0  0  0  0  0  0  0  0  0  0
   37.1580   30.1300   41.8750 N   0  0  0  0  0  0  0  0  0  0  0  0
   40.1940   29.5200   42.8620 H   0  0  0  0  0  0  0  0  0  0  0  0
   38.2810   28.2950   44.2350 H   0  0  0  0  0  0  0  0  0  0  0  0
   36.0010   28.9360   43.2670 H   0  0  0  0  0  0  0  0  0  0  0  0
  1 29  1  0  0  0  0
  2  1  2  0  0  0  0
  3  8  1  0  0  0  0
  3  1  1  0  0  0  0
  4 10  1  0  0  0  0
  4  3  1  0  0  0  0
  5  6  1  0  0  0  0
  5  4  1  0  0  0  0
  6 14  1  0  0  0  0
  6  7  1  0  0  0  0
  7 16  1  0  0  0  0
  7  8  1  0  0  0  0
  8 17  1  1  0  0  0
  8 19  1  0  0  0  0
  9  4  1  0  0  0  0
 11  5  1  0  0  0  0
 12  5  1  0  0  0  0
 13  6  1  0  0  0  0
 15  7  1  0  0  0  0
 18 19  2  0  0  0  0
 18 24  1  0  0  0  0
 19 20  1  0  0  0  0
 20 21  1  0  0  0  0
 20 22  2  0  0  0  0
 22 28  1  0  0  0  0
 23 22  1  0  0  0  0
 23 25  1  0  0  0  0
 24 23  2  0  0  0  0
 25 26  1  0  0  0  0
 26 27  1  0  0  0  0
 28 26  1  0  0  0  0
 29 30  1  0  0  0  0
 30 31  1  0  0  0  0
 31 32  2  0  0  0  0
 31 38  1  0  0  0  0
 32 36  1  0  0  0  0
 33 32  1  0  0  0  0
 34 33  2  0  0  0  0
 35 34  1  0  0  0  0
 35 30  2  0  0  0  0
 37 34  1  0  0  0  0
 38 42  2  0  0  0  0
 38 39  1  0  0  0  0
 39 43  1  0  0  0  0
 39 40  2  0  0  0  0
 40 44  1  0  0  0  0
 41 45  1  0  0  0  0
 41 40  1  0  0  0  0
 42 41  1  0  0  0  0
M  END
>  <minimizedAffinity>
-6.18961096

$$$$

 OpenBabel03252508563D

 45 49  0  0  1  0  0  0  0  0999 V2000
   38.9190   29.2400   41.7700 C   0  0  0  0  0  0  0  0  0  0  0  0
   39.2400   28.7710   42.9140 O   0  0  0  0  0  0  0  0  0  0  0  0
   37.8140   28.3590   41.4400 N   0  0  0  0  0  0  0  0  0  0  0  0
   36.7020   28.4130   42.3650 C   0  0  0  0  0  0  0  0  0  0  0  0
   36.8890   27.1830   43.2800 C   0  0  0  0  0  0  0  0  0  0  0  0
   37.4640   26.0700   42.3910 C   0  0  0  0  0  0  0  0  0  0  0  0
   36.9840   26.2140   40.9640 C   0  0  0  0  0  0  0  0  0  0  0  0
   37.6640   27.4420   40.3320 C   0  0  1  0  0  0  0  0  0  0  0  0
   36.7190   29.2880   43.0360 H   0  0  0  0  0  0  0  0  0  0  0  0
   35.7140   28.3650   41.8790 H   0  0  0  0  0  0  0  0  0  0  0  0
   37.6830   27.4140   44.0270 H   0  0  0  0  0  0  0  0  0  0  0  0
   35.9690   26.8950   43.7860 H   0  0  0  0  0  0  0  0  0  0  0  0
   37.0260   25.1230   42.7690 H   0  0  0  0  0  0  0  0  0  0  0  0
   38.5670   26.0640   42.3900 H   0  0  0  0  0  0  0  0  0  0  0  0
   35.8890   26.4340   41.0320 H   0  0  0  0  0  0  0  0  0  0  0  0
   37.2370   25.2970   40.4360 H   0  0  0  0  0  0  0  0  0  0  0  0
   38.6650   27.1990   39.9620 H   0  0  0  0  0  0  0  0  0  0  0  0
   36.9880   29.2180   38.6550 C   0  0  0  0  0  3  0  0  0  0  0  0
   36.8340   27.9730   39.2230 C   0  0  0  0  0  0  0  0  0  0  0  0
   35.8320   27.1530   38.7280 C   0  0  0  0  0  0  0  0  0  0  0  0
   35.6210   26.1410   39.1060 H   0  0  0  0  0  0  0  0  0  0  0  0
   35.0070   27.5570   37.6980 C   0  0  0  0  0  0  0  0  0  0  0  0
   35.1780   28.8210   37.1350 C   0  0  0  0  0  0  0  0  0  0  0  0
   36.1680   29.6490   37.6140 C   0  0  0  0  0  3  0  0  0  0  0  0
   34.2200   28.9770   36.1190 O   0  0  0  0  0  0  0  0  0  0  0  0
   33.9240   27.6370   35.6980 C   0  0  0  0  0  3  0  0  0  0  0  0
   32.9680   27.5550   35.1810 H   0  0  0  0  0  0  0  0  0  0  0  0
   33.9330   26.9950   36.9830 O   0  0  0  0  0  0  0  0  0  0  0  0
   39.5110   30.2790   41.1240 O   0  0  0  0  0  0  0  0  0  0  0  0
   40.0850   30.2760   39.8760 C   0  0  0  0  0  0  0  0  0  0  0  0
   39.8270   31.3610   39.0410 C   0  0  0  0  0  0  0  0  0  0  0  0
   40.4260   31.3350   37.7720 C   0  0  0  0  0  0  0  0  0  0  0  0
   41.2130   30.2630   37.4370 N   0  0  0  0  0  0  0  0  0  0  0  0
   41.4210   29.2550   38.2810 C   0  0  0  0  0  0  0  0  0  0  0  0
   40.8650   29.2500   39.4990 N   0  0  0  0  0  0  0  0  0  0  0  0
   40.2270   32.1740   37.1230 H   0  0  0  0  0  0  0  0  0  0  0  0
   42.0510   28.4110   37.9960 H   0  0  0  0  0  0  0  0  0  0  0  0
   38.9800   32.4430   39.4930 C   0  0  0  0  0  0  0  0  0  0  0  0
   39.4880   33.6120   40.0620 C   0  0  0  0  0  0  0  0  0  0  0  0
   38.3670   34.3490   40.3400 C   0  0  0  0  0  0  0  0  0  0  0  0
   37.2450   33.6820   39.9690 N   0  0  0  0  0  0  0  0  0  0  0  0
   37.6540   32.5390   39.4640 N   0  0  0  0  0  0  0  0  0  0  0  0
   40.5310   33.8450   40.2280 H   0  0  0  0  0  0  0  0  0  0  0  0
   38.4130   35.3400   40.8000 H   0  0  0  0  0  0  0  0  0  0  0  0
   36.2870   34.0960   40.1060 H   0  0  0  0  0  0  0  0  0  0  0  0
  1  2  2  0  0  0  0
  3  1  1  0  0  0  0
  3  4  1  0  0  0  0
  4  9  1  0  0  0  0
  4  5  1  0  0  0  0
  5 12  1  0  0  0  0
  5 11  1  0  0  0  0
  6 13  1  0  0  0  0
  6  5  1  0  0  0  0
  7 15  1  0  0  0  0
  7  6  1  0  0  0  0
  8 17  1  6  0  0  0
  8  7  1  0  0  0  0
  8  3  1  0  0  0  0
 10  4  1  0  0  0  0
 14  6  1  0  0  0  0
 16  7  1  0  0  0  0
 18 19  1  0  0  0  0
 19  8  1  0  0  0  0
 20 21  1  0  0  0  0
 20 19  2  0  0  0  0
 22 20  1  0  0  0  0
 23 24  1  0  0  0  0
 23 22  2  0  0  0  0
 24 18  2  0  0  0  0
 25 23  1  0  0  0  0
 26 25  1  0  0  0  0
 26 28  1  0  0  0  0
 27 26  1  0  0  0  0
 28 22  1  0  0  0  0
 29  1  1  0  0  0  0
 30 29  1  0  0  0  0
 31 38  1  0  0  0  0
 31 30  2  0  0  0  0
 32 31  1  0  0  0  0
 33 32  2  0  0  0  0
 33 34  1  0  0  0  0
 34 35  2  0  0  0  0
 35 30  1  0  0  0  0
 36 32  1  0  0  0  0
 37 34  1  0  0  0  0
 38 39  1  0  0  0  0
 39 43  1  0  0  0  0
 39 40  2  0  0  0  0
 40 44  1  0  0  0  0
 41 45  1  0  0  0  0
 41 40  1  0  0  0  0
 42 38  2  0  0  0  0
 42 41  1  0  0  0  0
M  END
>  <minimizedAffinity>
-6.16270685

$$$$
