
 OpenBabel03242510223D

 40 44  0  0  1  0  0  0  0  0999 V2000
   48.0070   33.1870   43.0560 N   0  0  0  0  0  0  0  0  0  0  0  0
   49.1960   33.2640   42.3440 C   0  0  0  0  0  0  0  0  0  0  0  0
   50.3540   32.8580   42.6260 O   0  0  0  0  0  0  0  0  0  0  0  0
   47.4600   34.0730   42.9970 H   0  0  0  0  0  0  0  0  0  0  0  0
   46.2410   32.0440   44.3470 C   0  0  1  0  0  0  0  0  0  0  0  0
   46.3530   31.3410   43.1430 C   0  0  0  0  0  0  0  0  0  0  0  0
   47.6040   32.0310   43.7740 C   0  0  1  0  0  0  0  0  0  0  0  0
   46.0820   31.5520   45.3370 H   0  0  0  0  0  0  0  0  0  0  0  0
   46.0770   31.6680   42.1260 H   0  0  0  0  0  0  0  0  0  0  0  0
   46.3690   30.2090   43.1830 H   0  0  0  0  0  0  0  0  0  0  0  0
   48.3510   31.2850   44.1140 H   0  0  0  0  0  0  0  0  0  0  0  0
   45.0000   33.9760   43.1170 C   0  0  0  0  0  0  0  0  0  0  0  0
   45.5200   33.4040   44.3220 C   0  0  0  0  0  0  0  0  0  0  0  0
   45.3740   34.1280   45.4860 C   0  0  0  0  0  0  0  0  0  0  0  0
   44.7580   35.3280   45.4400 N   0  0  0  0  0  0  0  0  0  0  0  0
   44.2720   35.8610   44.2890 C   0  0  0  0  0  0  0  0  0  0  0  0
   44.4030   35.1510   43.0920 N   0  0  0  0  0  0  0  0  0  0  0  0
   45.0970   33.4040   42.2160 H   0  0  0  0  0  0  0  0  0  0  0  0
   45.7560   33.7220   46.4190 H   0  0  0  0  0  0  0  0  0  0  0  0
   43.7890   36.8280   44.3160 H   0  0  0  0  0  0  0  0  0  0  0  0
   49.1990   33.9290   40.9760 C   0  0  2  0  0  0  0  0  0  0  0  0
   48.5760   35.3740   40.9110 C   0  0  0  0  0  0  0  0  0  0  0  0
   47.9530   34.1820   40.2470 C   0  0  1  0  0  0  0  0  0  0  0  0
   50.1510   33.9210   40.4090 H   0  0  0  0  0  0  0  0  0  0  0  0
   48.1460   35.6800   41.8860 H   0  0  0  0  0  0  0  0  0  0  0  0
   49.0420   36.0990   40.2500 H   0  0  0  0  0  0  0  0  0  0  0  0
   47.0970   33.6120   40.6680 H   0  0  0  0  0  0  0  0  0  0  0  0
   48.0060   34.1230   38.7380 C   0  0  0  0  0  0  0  0  0  0  0  0
   48.6610   34.9610   38.1260 O   0  0  0  0  0  0  0  0  0  0  0  0
   46.1930   33.2950   37.1860 C   0  0  0  0  0  3  0  0  0  0  0  0
   47.2990   33.0940   37.9840 C   0  0  0  0  0  0  0  0  0  0  0  0
   47.7280   31.7850   38.0310 C   0  0  0  0  0  0  0  0  0  0  0  0
   48.5880   31.4750   38.6170 H   0  0  0  0  0  0  0  0  0  0  0  0
   47.1200   30.7510   37.3480 C   0  0  0  0  0  0  0  0  0  0  0  0
   46.0170   31.0020   36.5630 C   0  0  0  0  0  0  0  0  0  0  0  0
   45.5560   32.2920   36.4880 C   0  0  0  0  0  3  0  0  0  0  0  0
   45.6130   29.7930   35.9980 O   0  0  0  0  0  0  0  0  0  0  0  0
   46.1390   28.7390   36.8160 C   0  0  0  0  0  3  0  0  0  0  0  0
   45.5550   28.6400   37.7690 H   0  0  0  0  0  0  0  0  0  0  0  0
   47.3550   29.3770   37.2330 O   0  0  0  0  0  0  0  0  0  0  0  0
  1  7  1  0  0  0  0
  2  3  2  0  0  0  0
  2  1  1  0  0  0  0
  4  1  1  0  0  0  0
  5  8  1  1  0  0  0
  6 10  1  0  0  0  0
  6  7  1  0  0  0  0
  6  5  1  0  0  0  0
  7 11  1  1  0  0  0
  7  5  1  0  0  0  0
  9  6  1  0  0  0  0
 12 13  1  0  0  0  0
 13  5  1  0  0  0  0
 13 14  2  0  0  0  0
 14 19  1  0  0  0  0
 15 14  1  0  0  0  0
 16 20  1  0  0  0  0
 16 15  2  0  0  0  0
 17 12  2  0  0  0  0
 17 16  1  0  0  0  0
 18 12  1  0  0  0  0
 21 24  1  6  0  0  0
 21  2  1  0  0  0  0
 22 21  1  0  0  0  0
 22 25  1  0  0  0  0
 23 27  1  1  0  0  0
 23 22  1  0  0  0  0
 23 21  1  0  0  0  0
 26 22  1  0  0  0  0
 28 23  1  0  0  0  0
 29 28  2  0  0  0  0
 30 31  1  0  0  0  0
 31 32  2  0  0  0  0
 31 28  1  0  0  0  0
 32 33  1  0  0  0  0
 34 32  1  0  0  0  0
 35 34  2  0  0  0  0
 36 35  1  0  0  0  0
 36 30  2  0  0  0  0
 37 35  1  0  0  0  0
 37 38  1  0  0  0  0
 38 40  1  0  0  0  0
 38 39  1  0  0  0  0
 40 34  1  0  0  0  0
M  END
>  <minimizedAffinity>
-4.92073631

>  <minimizedRMSD>
0.684125185

$$$$
