
 OpenBabel03242520413D

 41 45  0  0  1  0  0  0  0  0999 V2000
   45.8980   33.5180   45.8230 C   0  0  0  0  0  0  0  0  0  0  0  0
   46.6740   33.6400   44.6400 C   0  0  0  0  0  0  0  0  0  0  0  0
   47.3020   32.4650   44.1300 C   0  0  0  0  0  0  0  0  0  0  0  0
   47.1320   31.2810   44.7940 N   0  0  0  0  0  0  0  0  0  0  0  0
   46.3780   31.2280   45.9210 C   0  0  0  0  0  0  0  0  0  0  0  0
   45.7740   32.3340   46.4220 N   0  0  0  0  0  0  0  0  0  0  0  0
   46.2580   29.9780   46.5380 N   0  0  0  0  0  0  0  0  0  0  0  0
   47.4110   29.2790   47.0010 C   0  0  2  0  0  0  0  0  0  0  0  0
   47.1740   27.8620   47.3890 C   0  0  0  0  0  0  0  0  0  0  0  0
   45.8920   27.5390   47.8880 N   0  0  0  0  0  0  0  0  0  0  0  0
   45.0130   28.6460   48.0280 C   0  0  0  0  0  0  0  0  0  0  0  0
   44.9520   29.3820   46.7150 C   0  0  0  0  0  0  0  0  0  0  0  0
   45.4600   34.4390   46.1430 H   0  0  0  0  0  0  0  0  0  0  0  0
   46.8540   34.5190   44.0670 H   0  0  0  0  0  0  0  0  0  0  0  0
   47.9030   32.5060   43.2320 H   0  0  0  0  0  0  0  0  0  0  0  0
   48.0960   29.1990   46.0990 H   0  0  0  0  0  0  0  0  0  0  0  0
   47.9220   27.6190   48.1970 H   0  0  0  0  0  0  0  0  0  0  0  0
   47.4070   27.1400   46.5800 H   0  0  0  0  0  0  0  0  0  0  0  0
   45.8760   26.8430   48.6640 H   0  0  0  0  0  0  0  0  0  0  0  0
   43.9800   28.2080   48.1810 H   0  0  0  0  0  0  0  0  0  0  0  0
   45.1900   29.2910   48.8880 H   0  0  0  0  0  0  0  0  0  0  0  0
   44.8450   28.6270   45.9280 H   0  0  0  0  0  0  0  0  0  0  0  0
   44.1580   30.1590   46.6830 H   0  0  0  0  0  0  0  0  0  0  0  0
   48.1530   30.0510   48.0340 C   0  0  0  0  0  0  0  0  0  0  0  0
   47.7460   30.8930   49.0390 C   0  0  0  0  0  0  0  0  0  0  0  0
   48.7800   31.3630   49.7440 N   0  0  0  0  0  0  0  0  0  0  0  0
   49.8610   30.8210   49.1920 C   0  0  0  0  0  0  0  0  0  0  0  0
   49.4890   30.0350   48.1680 N   0  0  0  0  0  0  0  0  0  0  0  0
   46.7150   31.1470   49.2330 H   0  0  0  0  0  0  0  0  0  0  0  0
   48.7810   32.0150   50.5580 H   0  0  0  0  0  0  0  0  0  0  0  0
   51.9870   32.1530   49.5020 C   0  0  0  0  0  3  0  0  0  0  0  0
   51.2810   30.9670   49.5400 C   0  0  0  0  0  0  0  0  0  0  0  0
   51.9530   29.8270   49.9330 C   0  0  0  0  0  0  0  0  0  0  0  0
   51.4340   28.8820   49.9730 H   0  0  0  0  0  0  0  0  0  0  0  0
   53.2900   29.8430   50.2820 C   0  0  0  0  0  0  0  0  0  0  0  0
   54.0040   31.0400   50.2450 C   0  0  0  0  0  0  0  0  0  0  0  0
   53.3220   32.1720   49.8510 C   0  0  0  0  0  3  0  0  0  0  0  0
   55.3290   30.7910   50.6420 O   0  0  0  0  0  0  0  0  0  0  0  0
   55.4950   29.3880   50.3900 C   0  0  0  0  0  3  0  0  0  0  0  0
   56.2980   29.0440   51.0400 H   0  0  0  0  0  0  0  0  0  0  0  0
   54.2110   28.8830   50.7060 O   0  0  0  0  0  0  0  0  0  0  0  0
  1 13  1  0  0  0  0
  1  6  1  0  0  0  0
  2  1  2  0  0  0  0
  3  2  1  0  0  0  0
  3  4  2  0  0  0  0
  4  5  1  0  0  0  0
  5  6  2  0  0  0  0
  5  7  1  0  0  0  0
  7 12  1  0  0  0  0
  7  8  1  0  0  0  0
  8 16  1  6  0  0  0
  8  9  1  0  0  0  0
  8 24  1  0  0  0  0
  9 10  1  0  0  0  0
  9 17  1  0  0  0  0
 10 11  1  0  0  0  0
 10 19  1  0  0  0  0
 11 20  1  0  0  0  0
 11 21  1  0  0  0  0
 12 11  1  0  0  0  0
 14  2  1  0  0  0  0
 15  3  1  0  0  0  0
 18  9  1  0  0  0  0
 22 12  1  0  0  0  0
 23 12  1  0  0  0  0
 24 28  1  0  0  0  0
 24 25  2  0  0  0  0
 25 29  1  0  0  0  0
 25 26  1  0  0  0  0
 26 30  1  0  0  0  0
 27 32  1  0  0  0  0
 27 26  1  0  0  0  0
 28 27  2  0  0  0  0
 31 32  2  0  0  0  0
 31 37  1  0  0  0  0
 32 33  1  0  0  0  0
 33 34  1  0  0  0  0
 33 35  2  0  0  0  0
 35 41  1  0  0  0  0
 36 35  1  0  0  0  0
 36 38  1  0  0  0  0
 37 36  2  0  0  0  0
 39 38  1  0  0  0  0
 39 41  1  0  0  0  0
 39 40  1  0  0  0  0
M  END
>  <minimizedAffinity>
-5.29295158

>  <minimizedRMSD>
0.178670928

$$$$
