
 OpenBabel03252508323D

 34 37  0  0  1  0  0  0  0  0999 V2000
   44.3210   34.4630   41.9020 N   0  0  0  0  0  0  0  0  0  0  0  0
   44.5750   33.4460   40.9560 C   0  0  1  0  0  0  0  0  0  0  0  0
   43.9560   33.6300   39.6190 C   0  0  0  0  0  0  0  0  0  0  0  0
   42.7150   34.2830   39.5700 N   0  0  0  0  0  0  0  0  0  0  0  0
   42.4530   35.2780   40.5290 C   0  0  0  0  0  0  0  0  0  0  0  0
   43.6830   35.6190   41.3490 C   0  0  0  0  0  0  0  0  0  0  0  0
   44.1930   32.4750   41.3800 H   0  0  0  0  0  0  0  0  0  0  0  0
   43.9020   32.6560   39.0920 H   0  0  0  0  0  0  0  0  0  0  0  0
   44.6780   34.2420   39.0020 H   0  0  0  0  0  0  0  0  0  0  0  0
   41.9570   33.5450   39.6770 H   0  0  0  0  0  0  0  0  0  0  0  0
   41.6130   35.0920   41.2210 H   0  0  0  0  0  0  0  0  0  0  0  0
   42.1940   36.2170   39.9770 H   0  0  0  0  0  0  0  0  0  0  0  0
   44.4140   36.1700   40.6880 H   0  0  0  0  0  0  0  0  0  0  0  0
   43.3350   36.3710   42.0790 H   0  0  0  0  0  0  0  0  0  0  0  0
   46.9420   34.2650   40.5770 C   0  0  0  0  0  3  0  0  0  0  0  0
   46.0440   33.2310   40.7050 C   0  0  0  0  0  0  0  0  0  0  0  0
   46.6180   31.9630   40.5630 C   0  0  0  0  0  0  0  0  0  0  0  0
   45.9670   31.1010   40.6520 H   0  0  0  0  0  0  0  0  0  0  0  0
   47.9560   31.7510   40.3200 C   0  0  0  0  0  0  0  0  0  0  0  0
   48.7920   32.8390   40.2050 C   0  0  0  0  0  0  0  0  0  0  0  0
   48.2820   34.1140   40.3340 C   0  0  0  0  0  3  0  0  0  0  0  0
   50.0770   32.3250   39.9600 O   0  0  0  0  0  0  0  0  0  0  0  0
   49.9690   30.9560   39.5950 C   0  0  0  0  0  3  0  0  0  0  0  0
   49.9940   30.9000   38.4880 H   0  0  0  0  0  0  0  0  0  0  0  0
   48.7160   30.6060   40.1490 O   0  0  0  0  0  0  0  0  0  0  0  0
   44.4870   35.3300   44.1230 C   0  0  0  0  0  0  0  0  0  0  0  0
   44.7040   34.2600   43.2460 C   0  0  0  0  0  0  0  0  0  0  0  0
   45.2710   33.1120   43.7690 C   0  0  0  0  0  0  0  0  0  0  0  0
   45.6070   33.0230   45.0840 N   0  0  0  0  0  0  0  0  0  0  0  0
   45.3800   34.0910   45.9100 C   0  0  0  0  0  0  0  0  0  0  0  0
   44.8270   35.2180   45.4180 N   0  0  0  0  0  0  0  0  0  0  0  0
   44.0640   36.3020   43.9250 H   0  0  0  0  0  0  0  0  0  0  0  0
   45.4370   32.2830   43.1070 H   0  0  0  0  0  0  0  0  0  0  0  0
   45.6550   33.9980   46.9540 H   0  0  0  0  0  0  0  0  0  0  0  0
  1 27  1  0  0  0  0
  2  7  1  1  0  0  0
  2  1  1  0  0  0  0
  3  2  1  0  0  0  0
  4  3  1  0  0  0  0
  4 10  1  0  0  0  0
  4  5  1  0  0  0  0
  5 11  1  0  0  0  0
  5  6  1  0  0  0  0
  6  1  1  0  0  0  0
  6 14  1  0  0  0  0
  8  3  1  0  0  0  0
  9  3  1  0  0  0  0
 12  5  1  0  0  0  0
 13  6  1  0  0  0  0
 15 16  1  0  0  0  0
 16  2  1  0  0  0  0
 17 18  1  0  0  0  0
 17 16  2  0  0  0  0
 19 17  1  0  0  0  0
 20 19  2  0  0  0  0
 20 21  1  0  0  0  0
 21 15  2  0  0  0  0
 22 20  1  0  0  0  0
 23 22  1  0  0  0  0
 23 25  1  0  0  0  0
 24 23  1  0  0  0  0
 25 19  1  0  0  0  0
 26 31  1  0  0  0  0
 27 28  1  0  0  0  0
 27 26  2  0  0  0  0
 28 29  2  0  0  0  0
 29 30  1  0  0  0  0
 30 34  1  0  0  0  0
 31 30  2  0  0  0  0
 32 26  1  0  0  0  0
 33 28  1  0  0  0  0
M  END
>  <minimizedAffinity>
-4.71709681

>  <minimizedRMSD>
0.876737058

$$$$
