
 OpenBabel03242510233D

 40 44  0  0  1  0  0  0  0  0999 V2000
   48.0280   33.2040   43.1330 N   0  0  0  0  0  0  0  0  0  0  0  0
   49.1720   33.2390   42.3470 C   0  0  0  0  0  0  0  0  0  0  0  0
   50.3390   32.8190   42.5690 O   0  0  0  0  0  0  0  0  0  0  0  0
   47.4940   34.0980   43.0820 H   0  0  0  0  0  0  0  0  0  0  0  0
   46.2910   32.0910   44.4870 C   0  0  1  0  0  0  0  0  0  0  0  0
   46.4080   31.3350   43.3160 C   0  0  0  0  0  0  0  0  0  0  0  0
   47.6510   32.0760   43.9060 C   0  0  1  0  0  0  0  0  0  0  0  0
   46.1470   31.6420   45.5000 H   0  0  0  0  0  0  0  0  0  0  0  0
   46.1200   31.6090   42.2870 H   0  0  0  0  0  0  0  0  0  0  0  0
   46.4450   30.2060   43.4090 H   0  0  0  0  0  0  0  0  0  0  0  0
   48.4120   31.3600   44.2750 H   0  0  0  0  0  0  0  0  0  0  0  0
   45.0540   33.9670   43.1690 C   0  0  0  0  0  0  0  0  0  0  0  0
   45.5450   33.4350   44.4040 C   0  0  0  0  0  0  0  0  0  0  0  0
   45.3480   34.1850   45.5440 C   0  0  0  0  0  0  0  0  0  0  0  0
   44.7110   35.3720   45.4470 N   0  0  0  0  0  0  0  0  0  0  0  0
   44.2520   35.8650   44.2680 C   0  0  0  0  0  0  0  0  0  0  0  0
   44.4360   35.1280   43.0940 N   0  0  0  0  0  0  0  0  0  0  0  0
   45.1910   33.3740   42.2860 H   0  0  0  0  0  0  0  0  0  0  0  0
   45.7060   33.8110   46.4980 H   0  0  0  0  0  0  0  0  0  0  0  0
   43.7500   36.8220   44.2540 H   0  0  0  0  0  0  0  0  0  0  0  0
   49.1020   33.8670   40.9640 C   0  0  2  0  0  0  0  0  0  0  0  0
   48.5780   35.3500   40.9050 C   0  0  0  0  0  0  0  0  0  0  0  0
   47.8180   34.1890   40.3350 C   0  0  1  0  0  0  0  0  0  0  0  0
   49.9980   33.7760   40.3190 H   0  0  0  0  0  0  0  0  0  0  0  0
   48.2570   35.7120   41.9030 H   0  0  0  0  0  0  0  0  0  0  0  0
   49.0340   36.0230   40.1840 H   0  0  0  0  0  0  0  0  0  0  0  0
   46.9640   33.6930   40.8460 H   0  0  0  0  0  0  0  0  0  0  0  0
   47.7350   34.0880   38.8310 C   0  0  0  0  0  0  0  0  0  0  0  0
   48.5400   34.7050   38.1400 O   0  0  0  0  0  0  0  0  0  0  0  0
   45.8320   32.4270   38.7950 C   0  0  0  0  0  3  0  0  0  0  0  0
   46.7220   33.2730   38.1700 C   0  0  0  0  0  0  0  0  0  0  0  0
   46.5940   33.3080   36.7970 C   0  0  0  0  0  0  0  0  0  0  0  0
   47.2280   33.9290   36.1700 H   0  0  0  0  0  0  0  0  0  0  0  0
   45.6650   32.5720   36.0920 C   0  0  0  0  0  0  0  0  0  0  0  0
   44.7970   31.7410   36.7630 C   0  0  0  0  0  0  0  0  0  0  0  0
   44.8890   31.6750   38.1290 C   0  0  0  0  0  3  0  0  0  0  0  0
   43.9770   31.1270   35.8150 O   0  0  0  0  0  0  0  0  0  0  0  0
   44.6590   31.1860   34.5540 C   0  0  0  0  0  3  0  0  0  0  0  0
   45.4930   30.4350   34.5130 H   0  0  0  0  0  0  0  0  0  0  0  0
   45.3410   32.4350   34.7370 O   0  0  0  0  0  0  0  0  0  0  0  0
  1  7  1  0  0  0  0
  2  3  2  0  0  0  0
  2  1  1  0  0  0  0
  4  1  1  0  0  0  0
  5  8  1  1  0  0  0
  6 10  1  0  0  0  0
  6  7  1  0  0  0  0
  6  5  1  0  0  0  0
  7 11  1  1  0  0  0
  7  5  1  0  0  0  0
  9  6  1  0  0  0  0
 12 13  1  0  0  0  0
 13  5  1  0  0  0  0
 13 14  2  0  0  0  0
 14 19  1  0  0  0  0
 15 14  1  0  0  0  0
 16 15  2  0  0  0  0
 17 12  2  0  0  0  0
 17 16  1  0  0  0  0
 18 12  1  0  0  0  0
 20 16  1  0  0  0  0
 21 24  1  6  0  0  0
 21  2  1  0  0  0  0
 22 21  1  0  0  0  0
 22 25  1  0  0  0  0
 23 27  1  1  0  0  0
 23 22  1  0  0  0  0
 23 21  1  0  0  0  0
 26 22  1  0  0  0  0
 28 23  1  0  0  0  0
 29 28  2  0  0  0  0
 31 30  1  0  0  0  0
 31 28  1  0  0  0  0
 32 31  2  0  0  0  0
 33 32  1  0  0  0  0
 34 35  2  0  0  0  0
 34 32  1  0  0  0  0
 35 36  1  0  0  0  0
 36 30  2  0  0  0  0
 37 35  1  0  0  0  0
 38 40  1  0  0  0  0
 38 37  1  0  0  0  0
 39 38  1  0  0  0  0
 40 34  1  0  0  0  0
M  END
>  <minimizedAffinity>
-5.40436745

>  <minimizedRMSD>
0.852641225

$$$$
