
 OpenBabel03252507383D

 40 45  0  0  0  0  0  0  0  0999 V2000
   45.5210   34.8070   43.5430 C   0  0  0  0  0  0  0  0  0  0  0  0
   46.2310   33.7420   44.1290 C   0  0  0  0  0  0  0  0  0  0  0  0
   46.0560   33.5170   45.4810 C   0  0  0  0  0  0  0  0  0  0  0  0
   45.2270   34.3120   46.1750 N   0  0  0  0  0  0  0  0  0  0  0  0
   44.5460   35.3380   45.5950 C   0  0  0  0  0  0  0  0  0  0  0  0
   44.6990   35.5740   44.2980 N   0  0  0  0  0  0  0  0  0  0  0  0
   46.8980   33.1000   43.5780 H   0  0  0  0  0  0  0  0  0  0  0  0
   43.9150   35.8950   46.2750 H   0  0  0  0  0  0  0  0  0  0  0  0
   46.9860   32.6680   47.5660 C   0  0  0  0  0  0  0  0  0  0  0  0
   46.7300   32.4460   46.2150 C   0  0  0  0  0  0  0  0  0  0  0  0
   47.1200   31.2500   45.6620 C   0  0  0  0  0  0  0  0  0  0  0  0
   47.7510   30.2730   46.4000 C   0  0  0  0  0  0  0  0  0  0  0  0
   48.2140   29.0380   46.0640 N   0  0  0  0  0  0  0  0  0  0  0  0
   48.7610   28.4910   47.2120 C   0  0  0  0  0  0  0  0  0  0  0  0
   48.6240   29.3800   48.2010 N   0  0  0  0  0  0  0  0  0  0  0  0
   48.0070   30.4820   47.7300 C   0  0  0  0  0  0  0  0  0  0  0  0
   47.6270   31.6730   48.3080 C   0  0  0  0  0  0  0  0  0  0  0  0
   46.7140   33.5840   48.0880 H   0  0  0  0  0  0  0  0  0  0  0  0
   46.9170   31.0840   44.6080 H   0  0  0  0  0  0  0  0  0  0  0  0
   48.1580   28.6020   45.1080 H   0  0  0  0  0  0  0  0  0  0  0  0
   49.2150   27.5160   47.2850 H   0  0  0  0  0  0  0  0  0  0  0  0
   47.8340   31.8290   49.3620 H   0  0  0  0  0  0  0  0  0  0  0  0
   45.6870   35.0450   42.1810 O   0  0  0  0  0  0  0  0  0  0  0  0
   44.7380   34.5970   41.2710 C   0  0  0  0  0  0  0  0  0  0  0  0
   45.5140   33.8810   40.4320 C   0  0  0  0  0  0  0  0  0  0  0  0
   44.2210   33.2510   39.1700 S   0  0  0  0  0  0  0  0  0  0  0  0
   42.8770   34.1560   40.1340 C   0  0  0  0  0  0  0  0  0  0  0  0
   43.4690   34.6040   40.9430 N   0  0  0  0  0  0  0  0  0  0  0  0
   46.4970   33.3860   39.9700 H   0  0  0  0  0  0  0  0  0  0  0  0
   40.5340   35.0180   39.9060 C   0  0  0  0  0  3  0  0  0  0  0  0
   41.4630   34.0590   39.6190 C   0  0  0  0  0  0  0  0  0  0  0  0
   41.2840   32.9360   38.8710 C   0  0  0  0  0  0  0  0  0  0  0  0
   42.0430   32.1950   38.6630 H   0  0  0  0  0  0  0  0  0  0  0  0
   39.9980   32.7590   38.3480 C   0  0  0  0  0  0  0  0  0  0  0  0
   39.0050   33.7050   38.6070 C   0  0  0  0  0  0  0  0  0  0  0  0
   39.2670   34.8300   39.3830 C   0  0  0  0  0  3  0  0  0  0  0  0
   37.8360   33.2680   37.9620 O   0  0  0  0  0  0  0  0  0  0  0  0
   38.2070   32.2720   37.0120 C   0  0  0  0  0  3  0  0  0  0  0  0
   37.4470   31.4920   36.8990 H   0  0  0  0  0  0  0  0  0  0  0  0
   39.4160   31.7600   37.5480 O   0  0  0  0  0  0  0  0  0  0  0  0
  1  2  2  0  0  0  0
  1  6  1  0  0  0  0
  2  3  1  0  0  0  0
  3  4  2  0  0  0  0
  3 10  1  0  0  0  0
  5  4  1  0  0  0  0
  5  8  1  0  0  0  0
  6  5  2  0  0  0  0
  7  2  1  0  0  0  0
  9 18  1  0  0  0  0
  9 17  1  0  0  0  0
 10  9  2  0  0  0  0
 11 10  1  0  0  0  0
 11 12  2  0  0  0  0
 12 16  1  0  0  0  0
 13 12  1  0  0  0  0
 13 14  1  0  0  0  0
 14 21  1  0  0  0  0
 14 15  2  0  0  0  0
 16 15  1  0  0  0  0
 16 17  2  0  0  0  0
 17 22  1  0  0  0  0
 19 11  1  0  0  0  0
 20 13  1  0  0  0  0
 23  1  1  0  0  0  0
 24 23  1  0  0  0  0
 25 24  2  0  0  0  0
 26 27  1  0  0  0  0
 26 25  1  0  0  0  0
 27 28  2  0  0  0  0
 28 24  1  0  0  0  0
 29 25  1  0  0  0  0
 31 30  1  0  0  0  0
 31 27  1  0  0  0  0
 32 31  2  0  0  0  0
 33 32  1  0  0  0  0
 34 35  2  0  0  0  0
 34 32  1  0  0  0  0
 35 36  1  0  0  0  0
 36 30  2  0  0  0  0
 37 35  1  0  0  0  0
 38 40  1  0  0  0  0
 38 37  1  0  0  0  0
 39 38  1  0  0  0  0
 40 34  1  0  0  0  0
M  END
>  <minimizedAffinity>
-6.85855484

>  <minimizedRMSD>
1.31202686

$$$$
