
 OpenBabel03252508543D

 45 49  0  0  1  0  0  0  0  0999 V2000
   43.1610   34.3010   40.6300 C   0  0  0  0  0  0  0  0  0  0  0  0
   43.1400   35.4390   40.0510 O   0  0  0  0  0  0  0  0  0  0  0  0
   41.7730   33.9100   40.4630 N   0  0  0  0  0  0  0  0  0  0  0  0
   41.3400   33.7970   39.0850 C   0  0  0  0  0  0  0  0  0  0  0  0
   40.5900   35.1160   38.7980 C   0  0  0  0  0  0  0  0  0  0  0  0
   39.8670   35.4910   40.1000 C   0  0  0  0  0  0  0  0  0  0  0  0
   39.4900   34.2550   40.8860 C   0  0  0  0  0  0  0  0  0  0  0  0
   40.7690   33.6210   41.4620 C   0  0  1  0  0  0  0  0  0  0  0  0
   42.1670   33.7610   38.3570 H   0  0  0  0  0  0  0  0  0  0  0  0
   40.6710   32.9420   38.8970 H   0  0  0  0  0  0  0  0  0  0  0  0
   41.3400   35.9200   38.6260 H   0  0  0  0  0  0  0  0  0  0  0  0
   39.9190   35.0370   37.9430 H   0  0  0  0  0  0  0  0  0  0  0  0
   38.9110   35.9630   39.7910 H   0  0  0  0  0  0  0  0  0  0  0  0
   40.4800   36.1420   40.7450 H   0  0  0  0  0  0  0  0  0  0  0  0
   39.0650   33.5370   40.1400 H   0  0  0  0  0  0  0  0  0  0  0  0
   38.8020   34.5610   41.6730 H   0  0  0  0  0  0  0  0  0  0  0  0
   41.0740   34.1100   42.3920 H   0  0  0  0  0  0  0  0  0  0  0  0
   39.3890   31.4950   41.4400 C   0  0  0  0  0  3  0  0  0  0  0  0
   40.5610   32.1720   41.7000 C   0  0  0  0  0  0  0  0  0  0  0  0
   41.6250   31.4540   42.2200 C   0  0  0  0  0  0  0  0  0  0  0  0
   42.6040   31.8910   42.4640 H   0  0  0  0  0  0  0  0  0  0  0  0
   41.5290   30.1000   42.4760 C   0  0  0  0  0  0  0  0  0  0  0  0
   40.3360   29.4320   42.2070 C   0  0  0  0  0  0  0  0  0  0  0  0
   39.2680   30.1310   41.6900 C   0  0  0  0  0  3  0  0  0  0  0  0
   40.5060   28.0800   42.5550 O   0  0  0  0  0  0  0  0  0  0  0  0
   41.9190   27.8580   42.4400 C   0  0  0  0  0  3  0  0  0  0  0  0
   42.2590   26.9880   43.0000 H   0  0  0  0  0  0  0  0  0  0  0  0
   42.3830   29.1030   42.9830 O   0  0  0  0  0  0  0  0  0  0  0  0
   44.2360   33.7050   41.2120 O   0  0  0  0  0  0  0  0  0  0  0  0
   45.5650   33.9810   41.0040 C   0  0  0  0  0  0  0  0  0  0  0  0
   46.2670   34.6040   42.0330 C   0  0  0  0  0  0  0  0  0  0  0  0
   47.6230   34.8740   41.7960 C   0  0  0  0  0  0  0  0  0  0  0  0
   48.1650   34.5160   40.5880 N   0  0  0  0  0  0  0  0  0  0  0  0
   47.4400   33.9230   39.6430 C   0  0  0  0  0  0  0  0  0  0  0  0
   46.1430   33.6500   39.8380 N   0  0  0  0  0  0  0  0  0  0  0  0
   48.1690   35.3580   42.5910 H   0  0  0  0  0  0  0  0  0  0  0  0
   47.8890   33.6440   38.6880 H   0  0  0  0  0  0  0  0  0  0  0  0
   45.5980   34.9410   43.2710 C   0  0  0  0  0  0  0  0  0  0  0  0
   45.0050   36.1850   43.4930 C   0  0  0  0  0  0  0  0  0  0  0  0
   44.5000   36.0780   44.7620 C   0  0  0  0  0  0  0  0  0  0  0  0
   44.7620   34.8550   45.2870 N   0  0  0  0  0  0  0  0  0  0  0  0
   45.4240   34.1990   44.3600 N   0  0  0  0  0  0  0  0  0  0  0  0
   44.9730   37.0140   42.8000 H   0  0  0  0  0  0  0  0  0  0  0  0
   43.9610   36.8950   45.2510 H   0  0  0  0  0  0  0  0  0  0  0  0
   44.4470   34.5920   46.2560 H   0  0  0  0  0  0  0  0  0  0  0  0
  1 29  1  0  0  0  0
  2  1  2  0  0  0  0
  3  1  1  0  0  0  0
  3  8  1  0  0  0  0
  4  3  1  0  0  0  0
  5  4  1  0  0  0  0
  5  6  1  0  0  0  0
  6 14  1  0  0  0  0
  6  7  1  0  0  0  0
  7  8  1  0  0  0  0
  7 16  1  0  0  0  0
  8 19  1  0  0  0  0
  8 17  1  1  0  0  0
  9  4  1  0  0  0  0
 10  4  1  0  0  0  0
 11  5  1  0  0  0  0
 12  5  1  0  0  0  0
 13  6  1  0  0  0  0
 15  7  1  0  0  0  0
 18 24  2  0  0  0  0
 18 19  1  0  0  0  0
 19 20  2  0  0  0  0
 20 21  1  0  0  0  0
 20 22  1  0  0  0  0
 22 28  1  0  0  0  0
 23 22  2  0  0  0  0
 23 25  1  0  0  0  0
 24 23  1  0  0  0  0
 26 25  1  0  0  0  0
 26 28  1  0  0  0  0
 26 27  1  0  0  0  0
 30 29  1  0  0  0  0
 30 31  1  0  0  0  0
 31 38  1  0  0  0  0
 32 31  2  0  0  0  0
 32 36  1  0  0  0  0
 33 32  1  0  0  0  0
 34 35  1  0  0  0  0
 34 33  2  0  0  0  0
 35 30  2  0  0  0  0
 37 34  1  0  0  0  0
 38 39  1  0  0  0  0
 38 42  2  0  0  0  0
 39 40  2  0  0  0  0
 40 44  1  0  0  0  0
 40 41  1  0  0  0  0
 41 45  1  0  0  0  0
 42 41  1  0  0  0  0
 43 39  1  0  0  0  0
M  END
>  <minimizedAffinity>
-6.95744801

>  <minimizedRMSD>
1.39088702

$$$$
