
 OpenBabel03242523373D

 21 23  0  0  0  0  0  0  0  0999 V2000
   46.8320   32.8530   47.0280 C   0  0  0  0  0  3  0  0  0  0  0  0
   46.2990   32.5810   45.7900 C   0  0  0  0  0  0  0  0  0  0  0  0
   45.9740   31.2920   45.3550 C   0  0  0  0  0  0  0  0  0  0  0  0
   45.5630   31.0970   44.3940 H   0  0  0  0  0  0  0  0  0  0  0  0
   46.2360   30.2940   46.2900 C   0  0  0  0  0  0  0  0  0  0  0  0
   46.7670   30.4890   47.5460 C   0  0  0  0  0  0  0  0  0  0  0  0
   47.0530   31.8060   47.8740 C   0  0  0  0  0  3  0  0  0  0  0  0
   46.8600   29.2360   48.1360 O   0  0  0  0  0  0  0  0  0  0  0  0
   46.5690   28.2530   47.1770 C   0  0  0  0  0  3  0  0  0  0  0  0
   45.8520   27.5060   47.5820 H   0  0  0  0  0  0  0  0  0  0  0  0
   45.9960   28.9220   46.0890 O   0  0  0  0  0  0  0  0  0  0  0  0
   44.8240   35.5780   44.2450 C   0  0  0  0  0  0  0  0  0  0  0  0
   45.6140   35.7400   43.0790 C   0  0  0  0  0  0  0  0  0  0  0  0
   46.6450   34.8000   42.8530 C   0  0  0  0  0  0  0  0  0  0  0  0
   46.8200   33.8090   43.7540 N   0  0  0  0  0  0  0  0  0  0  0  0
   46.0480   33.6920   44.8490 C   0  0  0  0  0  0  0  0  0  0  0  0
   45.0660   34.5630   45.0910 N   0  0  0  0  0  0  0  0  0  0  0  0
   44.0740   36.3350   44.3260 H   0  0  0  0  0  0  0  0  0  0  0  0
   45.4590   36.5370   42.3730 H   0  0  0  0  0  0  0  0  0  0  0  0
   47.6680   34.9470   41.4100 S   0  0  0  0  0  0  0  0  0  0  0  0
   48.3860   33.7230   41.2720 H   0  0  0  0  0  0  0  0  0  0  0  0
  1  7  1  0  0  0  0
  2  1  2  0  0  0  0
  3  2  1  0  0  0  0
  3  5  2  0  0  0  0
  4  3  1  0  0  0  0
  5  6  1  0  0  0  0
  6  7  2  0  0  0  0
  6  8  1  0  0  0  0
  9 10  1  0  0  0  0
  9  8  1  0  0  0  0
 11  5  1  0  0  0  0
 11  9  1  0  0  0  0
 12 18  1  0  0  0  0
 12 17  1  0  0  0  0
 13 12  2  0  0  0  0
 14 13  1  0  0  0  0
 14 15  2  0  0  0  0
 15 16  1  0  0  0  0
 16 17  2  0  0  0  0
 16  2  1  0  0  0  0
 19 13  1  0  0  0  0
 20 14  1  0  0  0  0
 21 20  1  0  0  0  0
M  END
>  <minimizedAffinity>
-4.40577984

>  <minimizedRMSD>
1.40396392

$$$$
