
 OpenBabel03242519583D

 30 33  0  0  0  0  0  0  0  0999 V2000
   44.3920   33.3390   41.1690 Br  0  0  0  0  0  0  0  0  0  0  0  0
   46.1500   34.0940   41.0070 C   0  0  0  0  0  0  0  0  0  0  0  0
   46.7790   34.7650   42.0420 C   0  0  0  0  0  0  0  0  0  0  0  0
   48.0410   35.2610   41.8230 C   0  0  0  0  0  0  0  0  0  0  0  0
   48.7010   35.1160   40.6200 C   0  0  0  0  0  0  0  0  0  0  0  0
   48.0780   34.4460   39.5760 C   0  0  0  0  0  0  0  0  0  0  0  0
   46.8030   33.9460   39.8010 C   0  0  0  0  0  0  0  0  0  0  0  0
   48.4750   35.7740   42.6730 H   0  0  0  0  0  0  0  0  0  0  0  0
   49.6890   35.5330   40.5260 H   0  0  0  0  0  0  0  0  0  0  0  0
   48.6120   34.3510   38.6630 H   0  0  0  0  0  0  0  0  0  0  0  0
   45.0460   32.5510   38.8060 C   0  0  0  0  0  0  0  0  0  0  0  0
   46.2420   33.2610   38.6390 C   0  0  0  0  0  0  0  0  0  0  0  0
   46.7570   33.2240   37.3600 C   0  0  0  0  0  0  0  0  0  0  0  0
   47.6810   33.7690   37.2210 H   0  0  0  0  0  0  0  0  0  0  0  0
   46.1240   32.5370   36.3560 C   0  0  0  0  0  0  0  0  0  0  0  0
   44.9590   31.8530   36.5470 C   0  0  0  0  0  0  0  0  0  0  0  0
   44.4100   31.8600   37.7950 C   0  0  0  0  0  0  0  0  0  0  0  0
   44.5510   31.2580   35.3600 O   0  0  0  0  0  0  0  0  0  0  0  0
   45.5730   31.5150   34.4010 C   0  0  0  0  0  0  0  0  0  0  0  0
   46.0380   30.5860   34.0230 H   0  0  0  0  0  0  0  0  0  0  0  0
   46.4880   32.3860   35.0140 O   0  0  0  0  0  0  0  0  0  0  0  0
   44.4730   36.0660   44.7550 C   0  0  0  0  0  0  0  0  0  0  0  0
   45.1740   35.9620   43.5460 C   0  0  0  0  0  0  0  0  0  0  0  0
   46.0440   34.8910   43.2870 C   0  0  0  0  0  0  0  0  0  0  0  0
   46.1430   33.9860   44.2890 N   0  0  0  0  0  0  0  0  0  0  0  0
   45.4670   34.0940   45.4480 C   0  0  0  0  0  0  0  0  0  0  0  0
   44.6410   35.1200   45.6820 N   0  0  0  0  0  0  0  0  0  0  0  0
   43.8080   36.9150   44.9110 H   0  0  0  0  0  0  0  0  0  0  0  0
   45.0560   36.7140   42.7790 H   0  0  0  0  0  0  0  0  0  0  0  0
   45.6840   33.2680   46.1230 H   0  0  0  0  0  0  0  0  0  0  0  0
  2  1  1  0  0  0  0
  2  3  1  0  0  0  0
  3 24  1  0  0  0  0
  4  3  2  0  0  0  0
  4  8  1  0  0  0  0
  5  4  1  0  0  0  0
  6  7  1  0  0  0  0
  6  5  2  0  0  0  0
  7  2  2  0  0  0  0
  9  5  1  0  0  0  0
 10  6  1  0  0  0  0
 12 11  1  0  0  0  0
 12  7  1  0  0  0  0
 13 12  2  0  0  0  0
 14 13  1  0  0  0  0
 15 16  2  0  0  0  0
 15 13  1  0  0  0  0
 16 17  1  0  0  0  0
 17 11  2  0  0  0  0
 18 16  1  0  0  0  0
 19 21  1  0  0  0  0
 19 18  1  0  0  0  0
 20 19  1  0  0  0  0
 21 15  1  0  0  0  0
 22 28  1  0  0  0  0
 22 27  1  0  0  0  0
 23 22  2  0  0  0  0
 24 23  1  0  0  0  0
 24 25  2  0  0  0  0
 25 26  1  0  0  0  0
 26 27  2  0  0  0  0
 26 30  1  0  0  0  0
 29 23  1  0  0  0  0
M  END
>  <minimizedAffinity>
-6.22679806

>  <minimizedRMSD>
0.299853861

$$$$
