
 OpenBabel03242517533D

 40 43  0  0  0  0  0  0  0  0999 V2000
   45.2590   34.2270   43.9270 C   0  0  0  0  0  0  0  0  0  0  0  0
   46.2640   34.8050   43.1190 C   0  0  0  0  0  0  0  0  0  0  0  0
   47.5450   34.2880   43.1480 C   0  0  0  0  0  0  0  0  0  0  0  0
   47.7210   33.2480   43.9720 N   0  0  0  0  0  0  0  0  0  0  0  0
   46.7920   32.6990   44.7300 C   0  0  0  0  0  0  0  0  0  0  0  0
   45.5540   33.1970   44.7040 N   0  0  0  0  0  0  0  0  0  0  0  0
   44.2870   34.6870   43.8500 H   0  0  0  0  0  0  0  0  0  0  0  0
   46.0470   35.6450   42.4790 H   0  0  0  0  0  0  0  0  0  0  0  0
   48.6570   34.8180   42.3470 C   0  0  0  0  0  0  0  0  0  0  0  0
   49.1180   35.6800   42.8690 H   0  0  0  0  0  0  0  0  0  0  0  0
   49.4240   34.0520   42.2320 H   0  0  0  0  0  0  0  0  0  0  0  0
   48.2170   35.1860   40.9420 C   0  0  0  0  0  0  0  0  0  0  0  0
   48.6750   36.1420   40.6300 H   0  0  0  0  0  0  0  0  0  0  0  0
   47.1220   35.3700   41.0080 H   0  0  0  0  0  0  0  0  0  0  0  0
   48.1830   34.4230   38.6470 C   0  0  0  0  0  3  0  0  0  0  0  0
   48.4730   34.1120   39.9700 C   0  0  0  0  0  0  0  0  0  0  0  0
   48.9630   32.8490   40.2260 C   0  0  0  0  0  0  0  0  0  0  0  0
   49.1800   32.6340   41.2620 H   0  0  0  0  0  0  0  0  0  0  0  0
   49.1620   31.9220   39.2290 C   0  0  0  0  0  0  0  0  0  0  0  0
   48.8580   32.2760   37.9170 C   0  0  0  0  0  0  0  0  0  0  0  0
   48.3620   33.5370   37.6030 C   0  0  0  0  0  3  0  0  0  0  0  0
   49.1600   31.1470   37.1320 O   0  0  0  0  0  0  0  0  0  0  0  0
   49.3470   30.0180   37.9670 C   0  0  0  0  0  3  0  0  0  0  0  0
   50.1550   29.3470   37.6190 H   0  0  0  0  0  0  0  0  0  0  0  0
   49.6320   30.6160   39.2140 O   0  0  0  0  0  0  0  0  0  0  0  0
   47.0230   31.6240   45.5660 O   0  0  0  0  0  0  0  0  0  0  0  0
   45.6030   30.3130   47.1280 C   0  0  0  0  0  0  0  0  0  0  0  0
   46.3720   31.3800   46.7650 C   0  0  0  0  0  0  0  0  0  0  0  0
   46.5530   32.3880   47.7050 C   0  0  0  0  0  0  0  0  0  0  0  0
   45.9720   32.3130   48.9690 C   0  0  0  0  0  0  0  0  0  0  0  0
   45.2050   31.2240   49.2980 C   0  0  0  0  0  0  0  0  0  0  0  0
   45.0230   30.2160   48.3620 C   0  0  0  0  0  0  0  0  0  0  0  0
   47.1430   33.2770   47.5250 H   0  0  0  0  0  0  0  0  0  0  0  0
   46.1300   33.1230   49.6960 H   0  0  0  0  0  0  0  0  0  0  0  0
   44.7290   31.1150   50.2670 H   0  0  0  0  0  0  0  0  0  0  0  0
   44.4370   29.3240   48.5300 H   0  0  0  0  0  0  0  0  0  0  0  0
   45.4290   29.0970   45.8900 S   0  0  0  0  0  0  0  0  0  0  0  0
   44.6040   29.5940   44.7330 O   0  0  0  0  0  0  0  0  0  0  0  0
   44.6270   27.9490   46.4920 O   0  0  0  0  0  0  0  0  0  0  0  0
   46.6440   28.6500   45.4130 H   0  0  0  0  0  0  0  0  0  0  0  0
  1  6  1  0  0  0  0
  2  3  1  0  0  0  0
  2  1  2  0  0  0  0
  3  4  2  0  0  0  0
  4  5  1  0  0  0  0
  5 26  1  0  0  0  0
  6  5  2  0  0  0  0
  7  1  1  0  0  0  0
  8  2  1  0  0  0  0
  9 10  1  0  0  0  0
  9  3  1  0  0  0  0
 11  9  1  0  0  0  0
 12 14  1  0  0  0  0
 12  9  1  0  0  0  0
 13 12  1  0  0  0  0
 15 16  1  0  0  0  0
 16 17  2  0  0  0  0
 16 12  1  0  0  0  0
 17 18  1  0  0  0  0
 19 17  1  0  0  0  0
 20 19  2  0  0  0  0
 21 20  1  0  0  0  0
 21 15  2  0  0  0  0
 22 20  1  0  0  0  0
 22 23  1  0  0  0  0
 23 25  1  0  0  0  0
 24 23  1  0  0  0  0
 25 19  1  0  0  0  0
 26 28  1  0  0  0  0
 27 32  1  0  0  0  0
 28 27  2  0  0  0  0
 28 29  1  0  0  0  0
 29 30  2  0  0  0  0
 30 31  1  0  0  0  0
 30 34  1  0  0  0  0
 31 35  1  0  0  0  0
 32 36  1  0  0  0  0
 32 31  2  0  0  0  0
 33 29  1  0  0  0  0
 37 39  2  0  0  0  0
 37 27  1  0  0  0  0
 38 37  2  0  0  0  0
 40 37  1  0  0  0  0
M  END
>  <minimizedAffinity>
-5.70282507

>  <minimizedRMSD>
1.33022046

$$$$
