
 OpenBabel03242518553D

 44 47  0  0  1  0  0  0  0  0999 V2000
   45.7320   31.1480   46.5760 C   0  0  2  0  0  0  0  0  0  0  0  0
   45.8850   30.2960   47.7970 C   0  0  0  0  0  0  0  0  0  0  0  0
   45.1010   29.0540   47.5710 C   0  0  0  0  0  0  0  0  0  0  0  0
   44.3240   29.0040   46.3020 C   0  0  0  0  0  0  0  0  0  0  0  0
   45.2200   29.2590   45.1070 C   0  0  0  0  0  0  0  0  0  0  0  0
   46.1500   30.3420   45.3620 C   0  0  2  0  0  0  0  0  0  0  0  0
   44.6530   31.3430   46.4050 H   0  0  0  0  0  0  0  0  0  0  0  0
   46.9550   30.1180   48.0630 H   0  0  0  0  0  0  0  0  0  0  0  0
   45.4700   30.8990   48.6640 H   0  0  0  0  0  0  0  0  0  0  0  0
   45.7050   28.1330   47.6950 H   0  0  0  0  0  0  0  0  0  0  0  0
   44.3470   28.9850   48.4150 H   0  0  0  0  0  0  0  0  0  0  0  0
   43.4250   29.6500   46.3170 H   0  0  0  0  0  0  0  0  0  0  0  0
   43.9230   27.9660   46.2160 H   0  0  0  0  0  0  0  0  0  0  0  0
   45.5890   28.2970   44.7280 H   0  0  0  0  0  0  0  0  0  0  0  0
   44.4900   29.5890   44.2940 H   0  0  0  0  0  0  0  0  0  0  0  0
   46.1500   31.0700   44.5190 H   0  0  0  0  0  0  0  0  0  0  0  0
   47.4880   29.7290   45.5980 C   0  0  0  0  0  0  0  0  0  0  0  0
   47.9230   30.0760   46.5880 H   0  0  0  0  0  0  0  0  0  0  0  0
   47.4740   28.6220   45.5850 H   0  0  0  0  0  0  0  0  0  0  0  0
   49.6670   29.4640   44.5320 C   0  0  0  0  0  0  0  0  0  0  0  0
   48.4400   30.1420   44.5500 C   0  0  0  0  0  0  0  0  0  0  0  0
   48.3140   31.0800   43.5500 C   0  0  0  0  0  0  0  0  0  0  0  0
   47.3770   31.6140   43.5140 H   0  0  0  0  0  0  0  0  0  0  0  0
   49.3240   31.2990   42.6380 C   0  0  0  0  0  0  0  0  0  0  0  0
   50.5180   30.6100   42.6540 C   0  0  0  0  0  0  0  0  0  0  0  0
   50.6920   29.6640   43.6310 C   0  0  0  0  0  0  0  0  0  0  0  0
   51.3030   31.0740   41.6070 O   0  0  0  0  0  0  0  0  0  0  0  0
   50.4570   31.8560   40.7590 C   0  0  0  0  0  0  0  0  0  0  0  0
   50.1000   31.2260   39.9200 H   0  0  0  0  0  0  0  0  0  0  0  0
   49.3500   32.2120   41.5680 O   0  0  0  0  0  0  0  0  0  0  0  0
   46.4090   32.4620   46.6650 C   0  0  0  0  0  0  0  0  0  0  0  0
   47.3810   32.6870   47.4210 O   0  0  0  0  0  0  0  0  0  0  0  0
   44.5110   35.3650   45.5260 C   0  0  0  0  0  0  0  0  0  0  0  0
   44.8930   35.5260   44.1690 C   0  0  0  0  0  0  0  0  0  0  0  0
   45.8140   34.6190   43.6790 C   0  0  0  0  0  0  0  0  0  0  0  0
   46.2270   33.7020   44.5570 N   0  0  0  0  0  0  0  0  0  0  0  0
   45.8840   33.5400   45.8080 C   0  0  0  0  0  0  0  0  0  0  0  0
   44.9890   34.4120   46.3040 N   0  0  0  0  0  0  0  0  0  0  0  0
   43.7770   36.0750   45.9430 H   0  0  0  0  0  0  0  0  0  0  0  0
   44.4850   36.3100   43.5690 H   0  0  0  0  0  0  0  0  0  0  0  0
   46.2210   34.7580   42.2790 C   0  0  0  0  0  0  0  0  0  0  0  0
   46.6140   33.5430   41.7770 F   0  0  0  0  0  0  0  0  0  0  0  0
   47.2680   35.6220   42.2700 F   0  0  0  0  0  0  0  0  0  0  0  0
   45.1660   35.1920   41.4840 F   0  0  0  0  0  0  0  0  0  0  0  0
  1  7  1  6  0  0  0
  1 31  1  0  0  0  0
  1  2  1  0  0  0  0
  2  8  1  0  0  0  0
  2  9  1  0  0  0  0
  3 10  1  0  0  0  0
  3  2  1  0  0  0  0
  3 11  1  0  0  0  0
  4 12  1  0  0  0  0
  4  3  1  0  0  0  0
  5  6  1  0  0  0  0
  5  4  1  0  0  0  0
  6 16  1  6  0  0  0
  6 17  1  0  0  0  0
  6  1  1  0  0  0  0
 13  4  1  0  0  0  0
 14  5  1  0  0  0  0
 15  5  1  0  0  0  0
 17 18  1  0  0  0  0
 19 17  1  0  0  0  0
 20 21  1  0  0  0  0
 21 17  1  0  0  0  0
 22 21  2  0  0  0  0
 23 22  1  0  0  0  0
 24 25  2  0  0  0  0
 24 22  1  0  0  0  0
 25 26  1  0  0  0  0
 26 20  2  0  0  0  0
 27 25  1  0  0  0  0
 28 30  1  0  0  0  0
 28 27  1  0  0  0  0
 29 28  1  0  0  0  0
 30 24  1  0  0  0  0
 31 32  2  0  0  0  0
 33 39  1  0  0  0  0
 33 38  1  0  0  0  0
 34 33  2  0  0  0  0
 35 34  1  0  0  0  0
 35 36  2  0  0  0  0
 36 37  1  0  0  0  0
 37 38  2  0  0  0  0
 37 31  1  0  0  0  0
 40 34  1  0  0  0  0
 41 35  1  0  0  0  0
 42 41  1  0  0  0  0
 43 41  1  0  0  0  0
 44 41  1  0  0  0  0
M  END
>  <minimizedAffinity>
-5.7578578

>  <minimizedRMSD>
2.28272104

$$$$
