
 OpenBabel03242517533D

 40 43  0  0  0  0  0  0  0  0999 V2000
   45.3430   34.2230   43.9690 C   0  0  0  0  0  0  0  0  0  0  0  0
   46.3440   34.7410   43.1180 C   0  0  0  0  0  0  0  0  0  0  0  0
   47.6000   34.1650   43.1110 C   0  0  0  0  0  0  0  0  0  0  0  0
   47.7560   33.1290   43.9450 N   0  0  0  0  0  0  0  0  0  0  0  0
   46.8300   32.6360   44.7430 C   0  0  0  0  0  0  0  0  0  0  0  0
   45.6160   33.1910   44.7510 N   0  0  0  0  0  0  0  0  0  0  0  0
   44.3910   34.7270   43.9170 H   0  0  0  0  0  0  0  0  0  0  0  0
   46.1450   35.5820   42.4720 H   0  0  0  0  0  0  0  0  0  0  0  0
   48.7070   34.6300   42.2630 C   0  0  0  0  0  0  0  0  0  0  0  0
   49.3080   35.3810   42.8120 H   0  0  0  0  0  0  0  0  0  0  0  0
   49.3620   33.7920   42.0250 H   0  0  0  0  0  0  0  0  0  0  0  0
   48.2140   35.1700   40.9340 C   0  0  0  0  0  0  0  0  0  0  0  0
   48.6870   36.1430   40.7120 H   0  0  0  0  0  0  0  0  0  0  0  0
   47.1290   35.3740   41.0770 H   0  0  0  0  0  0  0  0  0  0  0  0
   48.7900   32.9340   40.2120 C   0  0  0  0  0  3  0  0  0  0  0  0
   48.3890   34.2110   39.8330 C   0  0  0  0  0  0  0  0  0  0  0  0
   48.2020   34.4370   38.4860 C   0  0  0  0  0  0  0  0  0  0  0  0
   47.8920   35.4360   38.2200 H   0  0  0  0  0  0  0  0  0  0  0  0
   48.3990   33.4550   37.5420 C   0  0  0  0  0  0  0  0  0  0  0  0
   48.7990   32.1910   37.9660 C   0  0  0  0  0  0  0  0  0  0  0  0
   49.0030   31.9090   39.3140 C   0  0  0  0  0  3  0  0  0  0  0  0
   48.9170   31.4120   36.8000 O   0  0  0  0  0  0  0  0  0  0  0  0
   48.8960   32.2500   35.6590 C   0  0  0  0  0  3  0  0  0  0  0  0
   48.3470   31.8110   34.8030 H   0  0  0  0  0  0  0  0  0  0  0  0
   48.2830   33.4190   36.1590 O   0  0  0  0  0  0  0  0  0  0  0  0
   47.0390   31.5630   45.5880 O   0  0  0  0  0  0  0  0  0  0  0  0
   45.5930   30.2910   47.1570 C   0  0  0  0  0  0  0  0  0  0  0  0
   46.3810   31.3400   46.7870 C   0  0  0  0  0  0  0  0  0  0  0  0
   46.5770   32.3520   47.7190 C   0  0  0  0  0  0  0  0  0  0  0  0
   45.9920   32.2980   48.9820 C   0  0  0  0  0  0  0  0  0  0  0  0
   45.2040   31.2250   49.3180 C   0  0  0  0  0  0  0  0  0  0  0  0
   45.0070   30.2130   48.3890 C   0  0  0  0  0  0  0  0  0  0  0  0
   47.1830   33.2300   47.5340 H   0  0  0  0  0  0  0  0  0  0  0  0
   46.1610   33.1110   49.7030 H   0  0  0  0  0  0  0  0  0  0  0  0
   44.7250   31.1320   50.2870 H   0  0  0  0  0  0  0  0  0  0  0  0
   44.4050   29.3330   48.5630 H   0  0  0  0  0  0  0  0  0  0  0  0
   45.4000   29.0670   45.9270 S   0  0  0  0  0  0  0  0  0  0  0  0
   44.6000   29.5740   44.7580 O   0  0  0  0  0  0  0  0  0  0  0  0
   44.5630   27.9460   46.5320 O   0  0  0  0  0  0  0  0  0  0  0  0
   46.6080   28.5860   45.4670 H   0  0  0  0  0  0  0  0  0  0  0  0
  1  6  1  0  0  0  0
  2  1  2  0  0  0  0
  3  2  1  0  0  0  0
  3  4  2  0  0  0  0
  4  5  1  0  0  0  0
  5  6  2  0  0  0  0
  5 26  1  0  0  0  0
  7  1  1  0  0  0  0
  8  2  1  0  0  0  0
  9 10  1  0  0  0  0
  9  3  1  0  0  0  0
 11  9  1  0  0  0  0
 12 14  1  0  0  0  0
 12  9  1  0  0  0  0
 13 12  1  0  0  0  0
 16 15  1  0  0  0  0
 16 12  1  0  0  0  0
 17 16  2  0  0  0  0
 18 17  1  0  0  0  0
 19 20  2  0  0  0  0
 19 17  1  0  0  0  0
 20 21  1  0  0  0  0
 21 15  2  0  0  0  0
 22 20  1  0  0  0  0
 23 25  1  0  0  0  0
 23 22  1  0  0  0  0
 24 23  1  0  0  0  0
 25 19  1  0  0  0  0
 26 28  1  0  0  0  0
 27 32  1  0  0  0  0
 28 27  2  0  0  0  0
 28 29  1  0  0  0  0
 29 30  2  0  0  0  0
 30 31  1  0  0  0  0
 30 34  1  0  0  0  0
 31 35  1  0  0  0  0
 32 36  1  0  0  0  0
 32 31  2  0  0  0  0
 33 29  1  0  0  0  0
 37 39  2  0  0  0  0
 37 27  1  0  0  0  0
 38 37  2  0  0  0  0
 40 37  1  0  0  0  0
M  END
>  <minimizedAffinity>
-5.97268009

>  <minimizedRMSD>
1.47346616

$$$$
