
 OpenBabel03242522403D

 42 45  0  0  0  0  0  0  0  0999 V2000
   47.3430   32.3740   47.6540 C   0  0  0  0  0  0  0  0  0  0  0  0
   47.0520   31.3890   46.6720 C   0  0  0  0  0  0  0  0  0  0  0  0
   47.5760   30.1120   46.8660 C   0  0  0  0  0  0  0  0  0  0  0  0
   48.3330   29.8840   47.9830 N   0  0  0  0  0  0  0  0  0  0  0  0
   48.5740   30.8360   48.8690 C   0  0  0  0  0  0  0  0  0  0  0  0
   48.0920   32.0660   48.7150 N   0  0  0  0  0  0  0  0  0  0  0  0
   46.9810   33.3810   47.5840 H   0  0  0  0  0  0  0  0  0  0  0  0
   47.3710   29.3450   46.1360 H   0  0  0  0  0  0  0  0  0  0  0  0
   46.2250   31.7420   45.5160 C   0  0  0  0  0  0  0  0  0  0  0  0
   46.0970   30.7900   44.9170 H   0  0  0  0  0  0  0  0  0  0  0  0
   45.2050   32.0610   45.7330 H   0  0  0  0  0  0  0  0  0  0  0  0
   47.0220   32.6980   44.6550 C   0  0  0  0  0  0  0  0  0  0  0  0
   47.9540   33.0500   45.1870 H   0  0  0  0  0  0  0  0  0  0  0  0
   47.4270   32.1770   43.7510 H   0  0  0  0  0  0  0  0  0  0  0  0
   46.7200   34.5710   43.1000 C   0  0  0  0  0  0  0  0  0  0  0  0
   46.3150   33.9060   44.2440 C   0  0  0  0  0  0  0  0  0  0  0  0
   45.2750   34.3300   45.0140 C   0  0  0  0  0  0  0  0  0  0  0  0
   44.5940   35.4700   44.6380 C   0  0  0  0  0  0  0  0  0  0  0  0
   44.9360   36.1810   43.5210 C   0  0  0  0  0  0  0  0  0  0  0  0
   46.0030   35.6940   42.7840 C   0  0  0  0  0  0  0  0  0  0  0  0
   44.8900   33.8910   45.9060 H   0  0  0  0  0  0  0  0  0  0  0  0
   43.7440   35.8850   45.1960 H   0  0  0  0  0  0  0  0  0  0  0  0
   44.4490   37.0860   43.1620 H   0  0  0  0  0  0  0  0  0  0  0  0
   46.3000   36.2380   41.8890 H   0  0  0  0  0  0  0  0  0  0  0  0
   48.0460   34.0650   42.0890 S   0  0  0  0  0  0  0  0  0  0  0  0
   49.3950   34.4260   42.6700 O   0  0  0  0  0  0  0  0  0  0  0  0
   47.9890   34.8450   40.7840 O   0  0  0  0  0  0  0  0  0  0  0  0
   48.0490   32.7450   41.7970 H   0  0  0  0  0  0  0  0  0  0  0  0
   49.4010   30.4790   50.0760 C   0  0  0  0  0  0  0  0  0  0  0  0
   49.5450   29.3820   50.1620 H   0  0  0  0  0  0  0  0  0  0  0  0
   48.8200   30.8340   50.9520 H   0  0  0  0  0  0  0  0  0  0  0  0
   50.9540   32.1580   51.0430 C   0  0  0  0  0  3  0  0  0  0  0  0
   50.6860   31.2160   50.0710 C   0  0  0  0  0  0  0  0  0  0  0  0
   51.5920   30.9140   49.0530 C   0  0  0  0  0  0  0  0  0  0  0  0
   51.3460   30.1810   48.3210 H   0  0  0  0  0  0  0  0  0  0  0  0
   52.7770   31.6200   49.0800 C   0  0  0  0  0  0  0  0  0  0  0  0
   53.0880   32.5700   50.0310 C   0  0  0  0  0  0  0  0  0  0  0  0
   52.1570   32.8340   51.0220 C   0  0  0  0  0  3  0  0  0  0  0  0
   54.3460   33.0640   49.7460 O   0  0  0  0  0  0  0  0  0  0  0  0
   54.7600   32.5240   48.5050 C   0  0  0  0  0  3  0  0  0  0  0  0
   55.7780   32.0680   48.5640 H   0  0  0  0  0  0  0  0  0  0  0  0
   53.8360   31.5080   48.1880 O   0  0  0  0  0  0  0  0  0  0  0  0
  1  6  1  0  0  0  0
  2  3  1  0  0  0  0
  2  1  2  0  0  0  0
  3  4  2  0  0  0  0
  4  5  1  0  0  0  0
  5 29  1  0  0  0  0
  6  5  2  0  0  0  0
  7  1  1  0  0  0  0
  8  3  1  0  0  0  0
  9 11  1  0  0  0  0
  9  2  1  0  0  0  0
 10  9  1  0  0  0  0
 12 13  1  0  0  0  0
 12  9  1  0  0  0  0
 14 12  1  0  0  0  0
 15 16  1  0  0  0  0
 16 12  1  0  0  0  0
 16 17  2  0  0  0  0
 17 21  1  0  0  0  0
 18 17  1  0  0  0  0
 18 22  1  0  0  0  0
 19 18  2  0  0  0  0
 20 15  2  0  0  0  0
 20 19  1  0  0  0  0
 23 19  1  0  0  0  0
 24 20  1  0  0  0  0
 25 26  2  0  0  0  0
 25 15  1  0  0  0  0
 27 25  2  0  0  0  0
 28 25  1  0  0  0  0
 29 30  1  0  0  0  0
 29 31  1  0  0  0  0
 33 29  1  0  0  0  0
 33 32  2  0  0  0  0
 34 36  2  0  0  0  0
 34 33  1  0  0  0  0
 35 34  1  0  0  0  0
 36 37  1  0  0  0  0
 37 38  2  0  0  0  0
 38 32  1  0  0  0  0
 39 37  1  0  0  0  0
 40 41  1  0  0  0  0
 40 39  1  0  0  0  0
 42 40  1  0  0  0  0
 42 36  1  0  0  0  0
M  END
>  <minimizedAffinity>
-6.01853275

>  <minimizedRMSD>
1.1677978

$$$$
