
 OpenBabel03242517533D

 40 43  0  0  0  0  0  0  0  0999 V2000
   45.2780   34.2340   43.8650 C   0  0  0  0  0  0  0  0  0  0  0  0
   46.2990   34.8230   43.0860 C   0  0  0  0  0  0  0  0  0  0  0  0
   47.5820   34.3130   43.1420 C   0  0  0  0  0  0  0  0  0  0  0  0
   47.7430   33.2670   43.9620 N   0  0  0  0  0  0  0  0  0  0  0  0
   46.7990   32.7080   44.6940 C   0  0  0  0  0  0  0  0  0  0  0  0
   45.5590   33.2000   44.6410 N   0  0  0  0  0  0  0  0  0  0  0  0
   44.3060   34.6900   43.7680 H   0  0  0  0  0  0  0  0  0  0  0  0
   46.0940   35.6670   42.4470 H   0  0  0  0  0  0  0  0  0  0  0  0
   48.7100   34.8540   42.3720 C   0  0  0  0  0  0  0  0  0  0  0  0
   49.1570   35.7100   42.9150 H   0  0  0  0  0  0  0  0  0  0  0  0
   49.4800   34.0910   42.2660 H   0  0  0  0  0  0  0  0  0  0  0  0
   48.3010   35.2380   40.9620 C   0  0  0  0  0  0  0  0  0  0  0  0
   48.8310   36.1520   40.6400 H   0  0  0  0  0  0  0  0  0  0  0  0
   47.2230   35.5070   41.0250 H   0  0  0  0  0  0  0  0  0  0  0  0
   48.1850   34.4460   38.6800 C   0  0  0  0  0  3  0  0  0  0  0  0
   48.4740   34.1360   40.0040 C   0  0  0  0  0  0  0  0  0  0  0  0
   48.8840   32.8470   40.2740 C   0  0  0  0  0  0  0  0  0  0  0  0
   49.1010   32.6340   41.3090 H   0  0  0  0  0  0  0  0  0  0  0  0
   49.0090   31.8950   39.2870 C   0  0  0  0  0  0  0  0  0  0  0  0
   48.7100   32.2490   37.9740 C   0  0  0  0  0  0  0  0  0  0  0  0
   48.2920   33.5350   37.6480 C   0  0  0  0  0  3  0  0  0  0  0  0
   48.9270   31.0910   37.2030 O   0  0  0  0  0  0  0  0  0  0  0  0
   49.0530   29.9660   38.0520 C   0  0  0  0  0  3  0  0  0  0  0  0
   49.8110   29.2380   37.7050 H   0  0  0  0  0  0  0  0  0  0  0  0
   49.3930   30.5620   39.2870 O   0  0  0  0  0  0  0  0  0  0  0  0
   47.0150   31.6270   45.5270 O   0  0  0  0  0  0  0  0  0  0  0  0
   45.5540   30.3460   47.0750 C   0  0  0  0  0  0  0  0  0  0  0  0
   46.3600   31.3890   46.7250 C   0  0  0  0  0  0  0  0  0  0  0  0
   46.5810   32.3750   47.6790 C   0  0  0  0  0  0  0  0  0  0  0  0
   46.0030   32.3020   48.9440 C   0  0  0  0  0  0  0  0  0  0  0  0
   45.1970   31.2360   49.2600 C   0  0  0  0  0  0  0  0  0  0  0  0
   44.9750   30.2510   48.3100 C   0  0  0  0  0  0  0  0  0  0  0  0
   47.2030   33.2450   47.5100 H   0  0  0  0  0  0  0  0  0  0  0  0
   46.1920   33.0950   49.6830 H   0  0  0  0  0  0  0  0  0  0  0  0
   44.7220   31.1300   50.2300 H   0  0  0  0  0  0  0  0  0  0  0  0
   44.3580   29.3780   48.4660 H   0  0  0  0  0  0  0  0  0  0  0  0
   45.3310   29.1560   45.8190 S   0  0  0  0  0  0  0  0  0  0  0  0
   44.6710   29.7470   44.6020 O   0  0  0  0  0  0  0  0  0  0  0  0
   44.3460   28.1190   46.3470 O   0  0  0  0  0  0  0  0  0  0  0  0
   46.5150   28.5590   45.4390 H   0  0  0  0  0  0  0  0  0  0  0  0
  1  6  1  0  0  0  0
  2  3  1  0  0  0  0
  2  1  2  0  0  0  0
  3  4  2  0  0  0  0
  4  5  1  0  0  0  0
  5 26  1  0  0  0  0
  6  5  2  0  0  0  0
  7  1  1  0  0  0  0
  8  2  1  0  0  0  0
  9 10  1  0  0  0  0
  9  3  1  0  0  0  0
 11  9  1  0  0  0  0
 12 14  1  0  0  0  0
 12  9  1  0  0  0  0
 13 12  1  0  0  0  0
 15 16  1  0  0  0  0
 16 17  2  0  0  0  0
 16 12  1  0  0  0  0
 17 18  1  0  0  0  0
 19 17  1  0  0  0  0
 20 19  2  0  0  0  0
 21 20  1  0  0  0  0
 21 15  2  0  0  0  0
 22 20  1  0  0  0  0
 22 23  1  0  0  0  0
 23 25  1  0  0  0  0
 24 23  1  0  0  0  0
 25 19  1  0  0  0  0
 26 28  1  0  0  0  0
 27 32  1  0  0  0  0
 28 27  2  0  0  0  0
 28 29  1  0  0  0  0
 29 30  2  0  0  0  0
 30 31  1  0  0  0  0
 30 34  1  0  0  0  0
 31 35  1  0  0  0  0
 32 36  1  0  0  0  0
 32 31  2  0  0  0  0
 33 29  1  0  0  0  0
 37 39  2  0  0  0  0
 37 27  1  0  0  0  0
 38 37  2  0  0  0  0
 40 37  1  0  0  0  0
M  END
>  <minimizedAffinity>
-5.7167592

>  <minimizedRMSD>
1.19971514

$$$$
