
 OpenBabel03242522403D

 42 45  0  0  0  0  0  0  0  0999 V2000
   47.3320   32.3760   47.6360 C   0  0  0  0  0  0  0  0  0  0  0  0
   47.0190   31.3860   46.6650 C   0  0  0  0  0  0  0  0  0  0  0  0
   47.5240   30.1030   46.8680 C   0  0  0  0  0  0  0  0  0  0  0  0
   48.2860   29.8740   47.9820 N   0  0  0  0  0  0  0  0  0  0  0  0
   48.5490   30.8300   48.8570 C   0  0  0  0  0  0  0  0  0  0  0  0
   48.0850   32.0660   48.6940 N   0  0  0  0  0  0  0  0  0  0  0  0
   46.9870   33.3880   47.5580 H   0  0  0  0  0  0  0  0  0  0  0  0
   47.3020   29.3320   46.1480 H   0  0  0  0  0  0  0  0  0  0  0  0
   46.1890   31.7400   45.5120 C   0  0  0  0  0  0  0  0  0  0  0  0
   46.0790   30.7950   44.9010 H   0  0  0  0  0  0  0  0  0  0  0  0
   45.1620   32.0390   45.7320 H   0  0  0  0  0  0  0  0  0  0  0  0
   46.9710   32.7220   44.6670 C   0  0  0  0  0  0  0  0  0  0  0  0
   47.9050   33.0680   45.1980 H   0  0  0  0  0  0  0  0  0  0  0  0
   47.3710   32.2260   43.7480 H   0  0  0  0  0  0  0  0  0  0  0  0
   46.5980   34.5920   43.1240 C   0  0  0  0  0  0  0  0  0  0  0  0
   46.2510   33.9350   44.2910 C   0  0  0  0  0  0  0  0  0  0  0  0
   45.2590   34.3690   45.1150 C   0  0  0  0  0  0  0  0  0  0  0  0
   44.5670   35.5130   44.7740 C   0  0  0  0  0  0  0  0  0  0  0  0
   44.8530   36.2180   43.6370 C   0  0  0  0  0  0  0  0  0  0  0  0
   45.8740   35.7200   42.8440 C   0  0  0  0  0  0  0  0  0  0  0  0
   44.9210   33.9370   46.0300 H   0  0  0  0  0  0  0  0  0  0  0  0
   43.7530   35.9380   45.3760 H   0  0  0  0  0  0  0  0  0  0  0  0
   44.3540   37.1260   43.3020 H   0  0  0  0  0  0  0  0  0  0  0  0
   46.1250   36.2580   41.9310 H   0  0  0  0  0  0  0  0  0  0  0  0
   47.8620   34.0720   42.0430 S   0  0  0  0  0  0  0  0  0  0  0  0
   49.2290   34.5630   42.4640 O   0  0  0  0  0  0  0  0  0  0  0  0
   47.6410   34.7230   40.6860 O   0  0  0  0  0  0  0  0  0  0  0  0
   47.9270   32.7330   41.8690 H   0  0  0  0  0  0  0  0  0  0  0  0
   49.3790   30.4730   50.0610 C   0  0  0  0  0  0  0  0  0  0  0  0
   49.5200   29.3750   50.1480 H   0  0  0  0  0  0  0  0  0  0  0  0
   48.8020   30.8300   50.9390 H   0  0  0  0  0  0  0  0  0  0  0  0
   50.9420   32.1460   51.0210 C   0  0  0  0  0  3  0  0  0  0  0  0
   50.6660   31.2060   50.0500 C   0  0  0  0  0  0  0  0  0  0  0  0
   51.5660   30.9020   49.0280 C   0  0  0  0  0  0  0  0  0  0  0  0
   51.3160   30.1700   48.2970 H   0  0  0  0  0  0  0  0  0  0  0  0
   52.7540   31.6050   49.0510 C   0  0  0  0  0  0  0  0  0  0  0  0
   53.0730   32.5520   50.0010 C   0  0  0  0  0  0  0  0  0  0  0  0
   52.1460   32.8190   50.9960 C   0  0  0  0  0  3  0  0  0  0  0  0
   54.3300   33.0440   49.7110 O   0  0  0  0  0  0  0  0  0  0  0  0
   54.7370   32.5030   48.4680 C   0  0  0  0  0  3  0  0  0  0  0  0
   55.7540   32.0450   48.5230 H   0  0  0  0  0  0  0  0  0  0  0  0
   53.8090   31.4900   48.1550 O   0  0  0  0  0  0  0  0  0  0  0  0
  1  6  1  0  0  0  0
  2  3  1  0  0  0  0
  2  1  2  0  0  0  0
  3  4  2  0  0  0  0
  4  5  1  0  0  0  0
  5 29  1  0  0  0  0
  6  5  2  0  0  0  0
  7  1  1  0  0  0  0
  8  3  1  0  0  0  0
  9 11  1  0  0  0  0
  9  2  1  0  0  0  0
 10  9  1  0  0  0  0
 12 13  1  0  0  0  0
 12  9  1  0  0  0  0
 14 12  1  0  0  0  0
 15 16  1  0  0  0  0
 16 12  1  0  0  0  0
 16 17  2  0  0  0  0
 17 21  1  0  0  0  0
 18 17  1  0  0  0  0
 18 22  1  0  0  0  0
 19 18  2  0  0  0  0
 20 15  2  0  0  0  0
 20 19  1  0  0  0  0
 23 19  1  0  0  0  0
 24 20  1  0  0  0  0
 25 26  2  0  0  0  0
 25 15  1  0  0  0  0
 27 25  2  0  0  0  0
 28 25  1  0  0  0  0
 29 30  1  0  0  0  0
 29 31  1  0  0  0  0
 33 29  1  0  0  0  0
 33 32  2  0  0  0  0
 34 36  2  0  0  0  0
 34 33  1  0  0  0  0
 35 34  1  0  0  0  0
 36 37  1  0  0  0  0
 37 38  2  0  0  0  0
 38 32  1  0  0  0  0
 39 37  1  0  0  0  0
 40 41  1  0  0  0  0
 40 39  1  0  0  0  0
 42 40  1  0  0  0  0
 42 36  1  0  0  0  0
M  END
>  <minimizedAffinity>
-6.02579594

>  <minimizedRMSD>
0.993726194

$$$$
