
 OpenBabel03242522403D

 42 45  0  0  0  0  0  0  0  0999 V2000
   47.3560   32.3540   47.7050 C   0  0  0  0  0  0  0  0  0  0  0  0
   47.0010   31.3490   46.7650 C   0  0  0  0  0  0  0  0  0  0  0  0
   47.4830   30.0610   46.9860 C   0  0  0  0  0  0  0  0  0  0  0  0
   48.2640   29.8400   48.0880 N   0  0  0  0  0  0  0  0  0  0  0  0
   48.5660   30.8100   48.9350 C   0  0  0  0  0  0  0  0  0  0  0  0
   48.1240   32.0520   48.7540 N   0  0  0  0  0  0  0  0  0  0  0  0
   47.0290   33.3710   47.6120 H   0  0  0  0  0  0  0  0  0  0  0  0
   47.2300   29.2790   46.2880 H   0  0  0  0  0  0  0  0  0  0  0  0
   46.1540   31.6950   45.6210 C   0  0  0  0  0  0  0  0  0  0  0  0
   46.0340   30.7450   45.0190 H   0  0  0  0  0  0  0  0  0  0  0  0
   45.1310   31.9960   45.8540 H   0  0  0  0  0  0  0  0  0  0  0  0
   46.9240   32.6690   44.7560 C   0  0  0  0  0  0  0  0  0  0  0  0
   47.8740   33.0080   45.2650 H   0  0  0  0  0  0  0  0  0  0  0  0
   47.2980   32.1690   43.8280 H   0  0  0  0  0  0  0  0  0  0  0  0
   46.5150   34.5300   43.2110 C   0  0  0  0  0  0  0  0  0  0  0  0
   46.2060   33.8880   44.3970 C   0  0  0  0  0  0  0  0  0  0  0  0
   45.2530   34.3440   45.2560 C   0  0  0  0  0  0  0  0  0  0  0  0
   44.5640   35.4940   44.9310 C   0  0  0  0  0  0  0  0  0  0  0  0
   44.8130   36.1840   43.7760 C   0  0  0  0  0  0  0  0  0  0  0  0
   45.7950   35.6640   42.9480 C   0  0  0  0  0  0  0  0  0  0  0  0
   44.9460   33.9250   46.1870 H   0  0  0  0  0  0  0  0  0  0  0  0
   43.7800   35.9350   45.5600 H   0  0  0  0  0  0  0  0  0  0  0  0
   44.3130   37.0960   43.4520 H   0  0  0  0  0  0  0  0  0  0  0  0
   46.0170   36.1900   42.0210 H   0  0  0  0  0  0  0  0  0  0  0  0
   47.7280   33.9820   42.0860 S   0  0  0  0  0  0  0  0  0  0  0  0
   49.1260   34.4020   42.4840 O   0  0  0  0  0  0  0  0  0  0  0  0
   47.5040   34.6770   40.7510 O   0  0  0  0  0  0  0  0  0  0  0  0
   47.7280   32.6460   41.8780 H   0  0  0  0  0  0  0  0  0  0  0  0
   49.4140   30.4620   50.1300 C   0  0  0  0  0  0  0  0  0  0  0  0
   49.5640   29.3660   50.2180 H   0  0  0  0  0  0  0  0  0  0  0  0
   48.8450   30.8170   51.0140 H   0  0  0  0  0  0  0  0  0  0  0  0
   50.9750   32.1490   51.0670 C   0  0  0  0  0  3  0  0  0  0  0  0
   50.6940   31.2050   50.1010 C   0  0  0  0  0  0  0  0  0  0  0  0
   51.5840   30.9060   49.0680 C   0  0  0  0  0  0  0  0  0  0  0  0
   51.3310   30.1700   48.3420 H   0  0  0  0  0  0  0  0  0  0  0  0
   52.7670   31.6180   49.0750 C   0  0  0  0  0  0  0  0  0  0  0  0
   53.0900   32.5700   50.0190 C   0  0  0  0  0  0  0  0  0  0  0  0
   52.1730   32.8320   51.0240 C   0  0  0  0  0  3  0  0  0  0  0  0
   54.3400   33.0710   49.7120 O   0  0  0  0  0  0  0  0  0  0  0  0
   54.7350   32.5300   48.4640 C   0  0  0  0  0  3  0  0  0  0  0  0
   55.7560   32.0800   48.5070 H   0  0  0  0  0  0  0  0  0  0  0  0
   53.8100   31.5090   48.1650 O   0  0  0  0  0  0  0  0  0  0  0  0
  1  6  1  0  0  0  0
  2  3  1  0  0  0  0
  2  1  2  0  0  0  0
  3  4  2  0  0  0  0
  4  5  1  0  0  0  0
  5 29  1  0  0  0  0
  6  5  2  0  0  0  0
  7  1  1  0  0  0  0
  8  3  1  0  0  0  0
  9 11  1  0  0  0  0
  9  2  1  0  0  0  0
 10  9  1  0  0  0  0
 12 13  1  0  0  0  0
 12  9  1  0  0  0  0
 14 12  1  0  0  0  0
 15 16  1  0  0  0  0
 16 12  1  0  0  0  0
 16 17  2  0  0  0  0
 17 21  1  0  0  0  0
 18 17  1  0  0  0  0
 18 22  1  0  0  0  0
 19 18  2  0  0  0  0
 20 15  2  0  0  0  0
 20 19  1  0  0  0  0
 23 19  1  0  0  0  0
 24 20  1  0  0  0  0
 25 26  2  0  0  0  0
 25 15  1  0  0  0  0
 27 25  2  0  0  0  0
 28 25  1  0  0  0  0
 29 30  1  0  0  0  0
 29 31  1  0  0  0  0
 33 29  1  0  0  0  0
 33 32  2  0  0  0  0
 34 36  2  0  0  0  0
 34 33  1  0  0  0  0
 35 34  1  0  0  0  0
 36 37  1  0  0  0  0
 37 38  2  0  0  0  0
 38 32  1  0  0  0  0
 39 37  1  0  0  0  0
 40 41  1  0  0  0  0
 40 39  1  0  0  0  0
 42 40  1  0  0  0  0
 42 36  1  0  0  0  0
M  END
>  <minimizedAffinity>
-6.00761461

>  <minimizedRMSD>
0.967690825

$$$$
