
 OpenBabel03242522403D

 42 45  0  0  0  0  0  0  0  0999 V2000
   47.3270   32.2790   47.7110 C   0  0  0  0  0  0  0  0  0  0  0  0
   47.1040   31.3210   46.6860 C   0  0  0  0  0  0  0  0  0  0  0  0
   47.7000   30.0690   46.8340 C   0  0  0  0  0  0  0  0  0  0  0  0
   48.4580   29.8390   47.9490 N   0  0  0  0  0  0  0  0  0  0  0  0
   48.6360   30.7660   48.8760 C   0  0  0  0  0  0  0  0  0  0  0  0
   48.0830   31.9710   48.7680 N   0  0  0  0  0  0  0  0  0  0  0  0
   46.9080   33.2650   47.6780 H   0  0  0  0  0  0  0  0  0  0  0  0
   47.5470   29.3230   46.0710 H   0  0  0  0  0  0  0  0  0  0  0  0
   46.2680   31.6720   45.5360 C   0  0  0  0  0  0  0  0  0  0  0  0
   46.2100   30.7440   44.8930 H   0  0  0  0  0  0  0  0  0  0  0  0
   45.2270   31.9140   45.7540 H   0  0  0  0  0  0  0  0  0  0  0  0
   47.0100   32.7170   44.7310 C   0  0  0  0  0  0  0  0  0  0  0  0
   47.9310   33.0790   45.2770 H   0  0  0  0  0  0  0  0  0  0  0  0
   47.4290   32.2760   43.7930 H   0  0  0  0  0  0  0  0  0  0  0  0
   46.4970   34.5780   43.2170 C   0  0  0  0  0  0  0  0  0  0  0  0
   46.2430   33.9150   44.4050 C   0  0  0  0  0  0  0  0  0  0  0  0
   45.2990   34.3310   45.2940 C   0  0  0  0  0  0  0  0  0  0  0  0
   44.5630   35.4600   45.0000 C   0  0  0  0  0  0  0  0  0  0  0  0
   44.7570   36.1690   43.8460 C   0  0  0  0  0  0  0  0  0  0  0  0
   45.7320   35.6900   42.9860 C   0  0  0  0  0  0  0  0  0  0  0  0
   45.0320   33.8930   46.2290 H   0  0  0  0  0  0  0  0  0  0  0  0
   43.7830   35.8690   45.6550 H   0  0  0  0  0  0  0  0  0  0  0  0
   44.2180   37.0660   43.5450 H   0  0  0  0  0  0  0  0  0  0  0  0
   45.9110   36.2320   42.0580 H   0  0  0  0  0  0  0  0  0  0  0  0
   47.6950   34.0820   42.0540 S   0  0  0  0  0  0  0  0  0  0  0  0
   49.0390   34.7380   42.2830 O   0  0  0  0  0  0  0  0  0  0  0  0
   47.2750   34.5800   40.6790 O   0  0  0  0  0  0  0  0  0  0  0  0
   47.8810   32.7440   41.9850 H   0  0  0  0  0  0  0  0  0  0  0  0
   49.4710   30.4080   50.0770 C   0  0  0  0  0  0  0  0  0  0  0  0
   49.7060   29.3230   50.1020 H   0  0  0  0  0  0  0  0  0  0  0  0
   48.8480   30.6590   50.9610 H   0  0  0  0  0  0  0  0  0  0  0  0
   51.6390   31.1790   49.1460 C   0  0  0  0  0  3  0  0  0  0  0  0
   50.6880   31.2490   50.1420 C   0  0  0  0  0  0  0  0  0  0  0  0
   50.8190   32.0990   51.2420 C   0  0  0  0  0  0  0  0  0  0  0  0
   50.0620   32.1240   51.9900 H   0  0  0  0  0  0  0  0  0  0  0  0
   51.9650   32.8670   51.2690 C   0  0  0  0  0  0  0  0  0  0  0  0
   52.9430   32.8300   50.2950 C   0  0  0  0  0  0  0  0  0  0  0  0
   52.7670   31.9700   49.2230 C   0  0  0  0  0  3  0  0  0  0  0  0
   53.9330   33.7250   50.6490 O   0  0  0  0  0  0  0  0  0  0  0  0
   53.6420   34.2130   51.9450 C   0  0  0  0  0  3  0  0  0  0  0  0
   53.6680   35.3290   51.9890 H   0  0  0  0  0  0  0  0  0  0  0  0
   52.3330   33.7850   52.2440 O   0  0  0  0  0  0  0  0  0  0  0  0
  1  6  1  0  0  0  0
  2  3  1  0  0  0  0
  2  1  2  0  0  0  0
  3  4  2  0  0  0  0
  4  5  1  0  0  0  0
  5 29  1  0  0  0  0
  6  5  2  0  0  0  0
  7  1  1  0  0  0  0
  8  3  1  0  0  0  0
  9 11  1  0  0  0  0
  9  2  1  0  0  0  0
 10  9  1  0  0  0  0
 12 13  1  0  0  0  0
 12  9  1  0  0  0  0
 14 12  1  0  0  0  0
 15 16  1  0  0  0  0
 16 12  1  0  0  0  0
 16 17  2  0  0  0  0
 17 21  1  0  0  0  0
 18 17  1  0  0  0  0
 18 22  1  0  0  0  0
 19 18  2  0  0  0  0
 20 15  2  0  0  0  0
 20 19  1  0  0  0  0
 23 19  1  0  0  0  0
 24 20  1  0  0  0  0
 25 26  2  0  0  0  0
 25 15  1  0  0  0  0
 27 25  2  0  0  0  0
 28 25  1  0  0  0  0
 29 30  1  0  0  0  0
 29 33  1  0  0  0  0
 29 31  1  0  0  0  0
 32 38  2  0  0  0  0
 32 33  1  0  0  0  0
 33 34  2  0  0  0  0
 34 36  1  0  0  0  0
 34 35  1  0  0  0  0
 36 42  1  0  0  0  0
 37 39  1  0  0  0  0
 37 36  2  0  0  0  0
 38 37  1  0  0  0  0
 39 40  1  0  0  0  0
 40 41  1  0  0  0  0
 40 42  1  0  0  0  0
M  END
>  <minimizedAffinity>
-6.14559698

>  <minimizedRMSD>
1.2750268

$$$$
