
 OpenBabel03252503213D

 41 45  0  0  0  0  0  0  0  0999 V2000
   39.1590   29.7030   41.2150 C   0  0  0  0  0  0  0  0  0  0  0  0
   39.6600   28.4690   41.4990 C   0  0  0  0  0  0  0  0  0  0  0  0
   38.9270   27.9950   42.5310 N   0  0  0  0  0  0  0  0  0  0  0  0
   38.0120   28.9090   42.8620 C   0  0  0  0  0  0  0  0  0  0  0  0
   38.1540   29.9610   42.0510 N   0  0  0  0  0  0  0  0  0  0  0  0
   37.0130   28.8920   43.8670 N   0  0  0  0  0  0  0  0  0  0  0  0
   40.4790   27.9610   41.0060 H   0  0  0  0  0  0  0  0  0  0  0  0
   36.0580   28.4420   43.9120 H   0  0  0  0  0  0  0  0  0  0  0  0
   37.0550   29.3530   44.7970 H   0  0  0  0  0  0  0  0  0  0  0  0
   39.0540   26.7200   43.2150 C   0  0  0  0  0  0  0  0  0  0  0  0
   40.1180   26.4910   43.4110 H   0  0  0  0  0  0  0  0  0  0  0  0
   38.4900   26.6900   44.1570 H   0  0  0  0  0  0  0  0  0  0  0  0
   37.2040   25.3750   42.3720 C   0  0  0  0  0  3  0  0  0  0  0  0
   38.5630   25.6440   42.3110 C   0  0  0  0  0  0  0  0  0  0  0  0
   39.3040   24.8900   41.4270 C   0  0  0  0  0  0  0  0  0  0  0  0
   40.3590   25.1230   41.4020 H   0  0  0  0  0  0  0  0  0  0  0  0
   38.6760   23.9280   40.6630 C   0  0  0  0  0  0  0  0  0  0  0  0
   37.3250   23.6730   40.7360 C   0  0  0  0  0  0  0  0  0  0  0  0
   36.5730   24.4170   41.6130 C   0  0  0  0  0  3  0  0  0  0  0  0
   37.0510   22.6390   39.8220 O   0  0  0  0  0  0  0  0  0  0  0  0
   38.1530   22.4700   38.9650 C   0  0  0  0  0  3  0  0  0  0  0  0
   38.3500   21.4080   38.7230 H   0  0  0  0  0  0  0  0  0  0  0  0
   39.2010   23.0550   39.7160 O   0  0  0  0  0  0  0  0  0  0  0  0
   39.6240   30.6490   40.1500 C   0  0  0  0  0  0  0  0  0  0  0  0
   40.5090   30.3870   39.2820 O   0  0  0  0  0  0  0  0  0  0  0  0
   39.7120   33.0380   40.6810 C   0  0  0  0  0  0  0  0  0  0  0  0
   39.0630   31.9480   40.0690 C   0  0  0  0  0  0  0  0  0  0  0  0
   37.8860   32.2840   39.4160 C   0  0  0  0  0  0  0  0  0  0  0  0
   37.4000   33.5220   39.3680 N   0  0  0  0  0  0  0  0  0  0  0  0
   38.0740   34.5360   39.9810 C   0  0  0  0  0  0  0  0  0  0  0  0
   39.2140   34.2860   40.6270 N   0  0  0  0  0  0  0  0  0  0  0  0
   40.6420   32.9050   41.2220 H   0  0  0  0  0  0  0  0  0  0  0  0
   37.6210   35.5210   39.9020 H   0  0  0  0  0  0  0  0  0  0  0  0
   37.1620   31.2360   38.7700 C   0  0  0  0  0  0  0  0  0  0  0  0
   36.1850   30.3650   39.1240 C   0  0  0  0  0  0  0  0  0  0  0  0
   35.6870   29.4740   38.3000 C   0  0  0  0  0  0  0  0  0  0  0  0
   36.2030   29.4670   37.0640 C   0  0  0  0  0  0  0  0  0  0  0  0
   37.4540   30.7850   37.0660 S   0  0  0  0  0  0  0  0  0  0  0  0
   35.8570   30.4870   40.1770 H   0  0  0  0  0  0  0  0  0  0  0  0
   34.9090   28.7560   38.5240 H   0  0  0  0  0  0  0  0  0  0  0  0
   35.9440   28.7940   36.1580 H   0  0  0  0  0  0  0  0  0  0  0  0
  1  2  2  0  0  0  0
  1  5  1  0  0  0  0
  2  3  1  0  0  0  0
  3  4  1  0  0  0  0
  3 10  1  0  0  0  0
  4  6  1  0  0  0  0
  5  4  2  0  0  0  0
  6  8  1  0  0  0  0
  6  9  1  0  0  0  0
  7  2  1  0  0  0  0
 10 11  1  0  0  0  0
 10 12  1  0  0  0  0
 14 13  1  0  0  0  0
 14 10  1  0  0  0  0
 15 14  2  0  0  0  0
 16 15  1  0  0  0  0
 17 18  2  0  0  0  0
 17 15  1  0  0  0  0
 18 19  1  0  0  0  0
 19 13  2  0  0  0  0
 20 18  1  0  0  0  0
 21 23  1  0  0  0  0
 21 20  1  0  0  0  0
 22 21  1  0  0  0  0
 23 17  1  0  0  0  0
 24  1  1  0  0  0  0
 25 24  2  0  0  0  0
 26 32  1  0  0  0  0
 27 24  1  0  0  0  0
 27 26  2  0  0  0  0
 28 27  1  0  0  0  0
 29 28  2  0  0  0  0
 29 30  1  0  0  0  0
 30 31  2  0  0  0  0
 31 26  1  0  0  0  0
 33 30  1  0  0  0  0
 34 35  2  0  0  0  0
 34 28  1  0  0  0  0
 35 39  1  0  0  0  0
 36 40  1  0  0  0  0
 36 35  1  0  0  0  0
 37 38  1  0  0  0  0
 37 36  2  0  0  0  0
 38 34  1  0  0  0  0
 41 37  1  0  0  0  0
M  END
>  <minimizedAffinity>
-6.41136122

$$$$

 OpenBabel03252503213D

 41 45  0  0  0  0  0  0  0  0999 V2000
   38.7180   31.3540   39.8040 C   0  0  0  0  0  0  0  0  0  0  0  0
   39.1650   30.6430   40.8770 C   0  0  0  0  0  0  0  0  0  0  0  0
   38.0680   30.3320   41.6030 N   0  0  0  0  0  0  0  0  0  0  0  0
   36.9930   30.8340   40.9940 C   0  0  0  0  0  0  0  0  0  0  0  0
   37.3930   31.4640   39.8850 N   0  0  0  0  0  0  0  0  0  0  0  0
   35.6220   30.7810   41.3490 N   0  0  0  0  0  0  0  0  0  0  0  0
   40.1870   30.3780   41.1110 H   0  0  0  0  0  0  0  0  0  0  0  0
   34.8890   30.0300   41.2390 H   0  0  0  0  0  0  0  0  0  0  0  0
   35.0670   31.5290   41.8110 H   0  0  0  0  0  0  0  0  0  0  0  0
   37.9940   29.5810   42.8450 C   0  0  0  0  0  0  0  0  0  0  0  0
   38.8460   29.8360   43.5020 H   0  0  0  0  0  0  0  0  0  0  0  0
   37.0510   29.7480   43.3820 H   0  0  0  0  0  0  0  0  0  0  0  0
   39.2660   27.5110   43.0430 C   0  0  0  0  0  3  0  0  0  0  0  0
   38.1350   28.1320   42.5340 C   0  0  0  0  0  0  0  0  0  0  0  0
   37.2730   27.3440   41.8030 C   0  0  0  0  0  0  0  0  0  0  0  0
   36.4020   27.8560   41.4200 H   0  0  0  0  0  0  0  0  0  0  0  0
   37.5670   26.0090   41.6150 C   0  0  0  0  0  0  0  0  0  0  0  0
   38.6960   25.4080   42.1270 C   0  0  0  0  0  0  0  0  0  0  0  0
   39.5640   26.1820   42.8580 C   0  0  0  0  0  3  0  0  0  0  0  0
   38.6570   24.0580   41.7350 O   0  0  0  0  0  0  0  0  0  0  0  0
   37.3700   23.7480   41.2590 C   0  0  0  0  0  3  0  0  0  0  0  0
   37.3870   23.0620   40.3900 H   0  0  0  0  0  0  0  0  0  0  0  0
   36.8640   25.0270   40.9260 O   0  0  0  0  0  0  0  0  0  0  0  0
   39.5390   31.9350   38.6940 C   0  0  0  0  0  0  0  0  0  0  0  0
   39.2440   31.8730   37.4640 O   0  0  0  0  0  0  0  0  0  0  0  0
   40.7150   33.8590   39.6480 C   0  0  0  0  0  0  0  0  0  0  0  0
   40.7480   32.6130   38.9920 C   0  0  0  0  0  0  0  0  0  0  0  0
   42.0250   32.1610   38.6960 C   0  0  0  0  0  0  0  0  0  0  0  0
   43.1320   32.8370   38.9980 N   0  0  0  0  0  0  0  0  0  0  0  0
   43.0360   34.0390   39.6340 C   0  0  0  0  0  0  0  0  0  0  0  0
   41.8390   34.5340   39.9500 N   0  0  0  0  0  0  0  0  0  0  0  0
   39.7760   34.3180   39.9340 H   0  0  0  0  0  0  0  0  0  0  0  0
   43.9780   34.5360   39.8510 H   0  0  0  0  0  0  0  0  0  0  0  0
   42.1480   30.9060   38.0270 C   0  0  0  0  0  0  0  0  0  0  0  0
   42.3030   30.4970   36.7430 C   0  0  0  0  0  0  0  0  0  0  0  0
   42.3900   29.2340   36.3990 C   0  0  0  0  0  0  0  0  0  0  0  0
   42.3160   28.3490   37.4010 C   0  0  0  0  0  0  0  0  0  0  0  0
   42.1130   29.3490   38.9040 S   0  0  0  0  0  0  0  0  0  0  0  0
   42.3490   31.3400   36.0230 H   0  0  0  0  0  0  0  0  0  0  0  0
   42.5150   28.8490   35.3950 H   0  0  0  0  0  0  0  0  0  0  0  0
   42.3650   27.1920   37.3710 H   0  0  0  0  0  0  0  0  0  0  0  0
  1  5  1  0  0  0  0
  1  2  2  0  0  0  0
  2  7  1  0  0  0  0
  2  3  1  0  0  0  0
  3 10  1  0  0  0  0
  4  6  1  0  0  0  0
  4  3  1  0  0  0  0
  5  4  2  0  0  0  0
  6  9  1  0  0  0  0
  8  6  1  0  0  0  0
 10 12  1  0  0  0  0
 10 11  1  0  0  0  0
 14 10  1  0  0  0  0
 14 13  2  0  0  0  0
 15 14  1  0  0  0  0
 16 15  1  0  0  0  0
 17 15  2  0  0  0  0
 17 18  1  0  0  0  0
 18 19  2  0  0  0  0
 19 13  1  0  0  0  0
 20 18  1  0  0  0  0
 21 20  1  0  0  0  0
 22 21  1  0  0  0  0
 23 21  1  0  0  0  0
 23 17  1  0  0  0  0
 24 27  1  0  0  0  0
 24  1  1  0  0  0  0
 25 24  2  0  0  0  0
 26 32  1  0  0  0  0
 26 31  1  0  0  0  0
 27 26  2  0  0  0  0
 28 27  1  0  0  0  0
 28 29  2  0  0  0  0
 29 30  1  0  0  0  0
 30 33  1  0  0  0  0
 30 31  2  0  0  0  0
 34 28  1  0  0  0  0
 34 38  1  0  0  0  0
 35 34  2  0  0  0  0
 36 35  1  0  0  0  0
 36 37  2  0  0  0  0
 37 38  1  0  0  0  0
 39 35  1  0  0  0  0
 40 36  1  0  0  0  0
 41 37  1  0  0  0  0
M  END
>  <minimizedAffinity>
-6.22372007

$$$$

 OpenBabel03252503213D

 41 45  0  0  0  0  0  0  0  0999 V2000
   38.4330   31.2830   40.9640 C   0  0  0  0  0  0  0  0  0  0  0  0
   37.3300   30.5930   41.3680 C   0  0  0  0  0  0  0  0  0  0  0  0
   37.7860   29.5650   42.1190 N   0  0  0  0  0  0  0  0  0  0  0  0
   39.1170   29.6280   42.1690 C   0  0  0  0  0  0  0  0  0  0  0  0
   39.5170   30.6870   41.4580 N   0  0  0  0  0  0  0  0  0  0  0  0
   40.0560   28.7910   42.8210 N   0  0  0  0  0  0  0  0  0  0  0  0
   36.2950   30.8140   41.1400 H   0  0  0  0  0  0  0  0  0  0  0  0
   40.3800   28.7340   43.8250 H   0  0  0  0  0  0  0  0  0  0  0  0
   40.6270   28.0370   42.3900 H   0  0  0  0  0  0  0  0  0  0  0  0
   37.0170   28.5300   42.7880 C   0  0  0  0  0  0  0  0  0  0  0  0
   37.5420   28.1870   43.6990 H   0  0  0  0  0  0  0  0  0  0  0  0
   36.0030   28.8610   43.0490 H   0  0  0  0  0  0  0  0  0  0  0  0
   37.1510   26.1140   42.4930 C   0  0  0  0  0  3  0  0  0  0  0  0
   36.9340   27.3440   41.8910 C   0  0  0  0  0  0  0  0  0  0  0  0
   36.6670   27.3330   40.5390 C   0  0  0  0  0  0  0  0  0  0  0  0
   36.5020   28.3070   40.1000 H   0  0  0  0  0  0  0  0  0  0  0  0
   36.6290   26.1310   39.8650 C   0  0  0  0  0  0  0  0  0  0  0  0
   36.8470   24.9170   40.4780 C   0  0  0  0  0  0  0  0  0  0  0  0
   37.1150   24.9130   41.8250 C   0  0  0  0  0  3  0  0  0  0  0  0
   36.7300   23.9270   39.4850 O   0  0  0  0  0  0  0  0  0  0  0  0
   36.1340   24.4850   38.3390 C   0  0  0  0  0  3  0  0  0  0  0  0
   36.5700   24.0990   37.3980 H   0  0  0  0  0  0  0  0  0  0  0  0
   36.3840   25.8670   38.5220 O   0  0  0  0  0  0  0  0  0  0  0  0
   38.4720   32.5120   40.1070 C   0  0  0  0  0  0  0  0  0  0  0  0
   37.5860   33.4180   40.0970 O   0  0  0  0  0  0  0  0  0  0  0  0
   40.5530   33.6680   39.5390 C   0  0  0  0  0  0  0  0  0  0  0  0
   39.5600   32.7210   39.2250 C   0  0  0  0  0  0  0  0  0  0  0  0
   39.7680   32.0600   38.0230 C   0  0  0  0  0  0  0  0  0  0  0  0
   40.8100   32.2920   37.2280 N   0  0  0  0  0  0  0  0  0  0  0  0
   41.7390   33.2230   37.5860 C   0  0  0  0  0  0  0  0  0  0  0  0
   41.6030   33.8970   38.7300 N   0  0  0  0  0  0  0  0  0  0  0  0
   40.5040   34.2500   40.4520 H   0  0  0  0  0  0  0  0  0  0  0  0
   42.5630   33.3620   36.8910 H   0  0  0  0  0  0  0  0  0  0  0  0
   38.8050   31.0830   37.6260 C   0  0  0  0  0  0  0  0  0  0  0  0
   37.5610   31.1050   37.0880 C   0  0  0  0  0  0  0  0  0  0  0  0
   36.8790   30.0180   36.8160 C   0  0  0  0  0  0  0  0  0  0  0  0
   37.4860   28.8590   37.1020 C   0  0  0  0  0  0  0  0  0  0  0  0
   39.1010   29.3280   37.7900 S   0  0  0  0  0  0  0  0  0  0  0  0
   37.1860   32.1330   36.9050 H   0  0  0  0  0  0  0  0  0  0  0  0
   35.8860   29.9730   36.3870 H   0  0  0  0  0  0  0  0  0  0  0  0
   37.1110   27.7720   36.9620 H   0  0  0  0  0  0  0  0  0  0  0  0
  1  2  2  0  0  0  0
  1  5  1  0  0  0  0
  2  3  1  0  0  0  0
  3  4  1  0  0  0  0
  3 10  1  0  0  0  0
  4  6  1  0  0  0  0
  5  4  2  0  0  0  0
  6  8  1  0  0  0  0
  7  2  1  0  0  0  0
  9  6  1  0  0  0  0
 10 12  1  0  0  0  0
 10 11  1  0  0  0  0
 14 13  1  0  0  0  0
 14 10  1  0  0  0  0
 15 14  2  0  0  0  0
 16 15  1  0  0  0  0
 17 18  2  0  0  0  0
 17 15  1  0  0  0  0
 18 19  1  0  0  0  0
 19 13  2  0  0  0  0
 20 18  1  0  0  0  0
 21 23  1  0  0  0  0
 21 20  1  0  0  0  0
 22 21  1  0  0  0  0
 23 17  1  0  0  0  0
 24  1  1  0  0  0  0
 25 24  2  0  0  0  0
 26 32  1  0  0  0  0
 27 26  1  0  0  0  0
 27 24  1  0  0  0  0
 28 27  2  0  0  0  0
 29 30  2  0  0  0  0
 29 28  1  0  0  0  0
 30 31  1  0  0  0  0
 31 26  2  0  0  0  0
 33 30  1  0  0  0  0
 34 38  1  0  0  0  0
 34 28  1  0  0  0  0
 35 34  2  0  0  0  0
 36 35  1  0  0  0  0
 36 37  2  0  0  0  0
 37 38  1  0  0  0  0
 39 35  1  0  0  0  0
 40 36  1  0  0  0  0
 41 37  1  0  0  0  0
M  END
>  <minimizedAffinity>
-6.19773054

$$$$

 OpenBabel03252503213D

 41 45  0  0  0  0  0  0  0  0999 V2000
   38.3260   28.7870   41.7760 C   0  0  0  0  0  0  0  0  0  0  0  0
   38.6520   29.1940   40.5180 C   0  0  0  0  0  0  0  0  0  0  0  0
   37.7120   30.0980   40.1610 N   0  0  0  0  0  0  0  0  0  0  0  0
   36.8460   30.2350   41.1660 C   0  0  0  0  0  0  0  0  0  0  0  0
   37.2230   29.4280   42.1620 N   0  0  0  0  0  0  0  0  0  0  0  0
   35.6940   31.0520   41.2860 N   0  0  0  0  0  0  0  0  0  0  0  0
   39.4900   28.8670   39.9170 H   0  0  0  0  0  0  0  0  0  0  0  0
   35.5710   32.0760   41.5150 H   0  0  0  0  0  0  0  0  0  0  0  0
   34.7050   30.7610   41.1610 H   0  0  0  0  0  0  0  0  0  0  0  0
   37.5990   30.8340   38.9140 C   0  0  0  0  0  0  0  0  0  0  0  0
   37.6480   30.1440   38.0510 H   0  0  0  0  0  0  0  0  0  0  0  0
   36.6770   31.4290   38.8590 H   0  0  0  0  0  0  0  0  0  0  0  0
   38.8670   32.7520   39.7240 C   0  0  0  0  0  3  0  0  0  0  0  0
   38.7760   31.7360   38.7850 C   0  0  0  0  0  0  0  0  0  0  0  0
   39.7800   31.6740   37.8420 C   0  0  0  0  0  0  0  0  0  0  0  0
   39.6810   30.8720   37.1230 H   0  0  0  0  0  0  0  0  0  0  0  0
   40.8010   32.6010   37.8750 C   0  0  0  0  0  0  0  0  0  0  0  0
   40.8760   33.6040   38.8150 C   0  0  0  0  0  0  0  0  0  0  0  0
   39.8830   33.6780   39.7610 C   0  0  0  0  0  3  0  0  0  0  0  0
   42.0390   34.3450   38.5350 O   0  0  0  0  0  0  0  0  0  0  0  0
   42.8440   33.6250   37.6340 C   0  0  0  0  0  3  0  0  0  0  0  0
   43.3390   34.2750   36.8870 H   0  0  0  0  0  0  0  0  0  0  0  0
   41.9070   32.7420   37.0440 O   0  0  0  0  0  0  0  0  0  0  0  0
   39.0530   27.7890   42.6250 C   0  0  0  0  0  0  0  0  0  0  0  0
   38.7620   27.5080   43.8250 O   0  0  0  0  0  0  0  0  0  0  0  0
   41.4650   27.5760   42.2610 C   0  0  0  0  0  0  0  0  0  0  0  0
   40.1570   27.0810   42.0890 C   0  0  0  0  0  0  0  0  0  0  0  0
   40.0910   25.8920   41.3770 C   0  0  0  0  0  0  0  0  0  0  0  0
   41.1600   25.2640   40.8940 N   0  0  0  0  0  0  0  0  0  0  0  0
   42.4010   25.7930   41.0930 C   0  0  0  0  0  0  0  0  0  0  0  0
   42.5400   26.9350   41.7690 N   0  0  0  0  0  0  0  0  0  0  0  0
   41.6490   28.4980   42.8010 H   0  0  0  0  0  0  0  0  0  0  0  0
   43.2290   25.2290   40.6720 H   0  0  0  0  0  0  0  0  0  0  0  0
   38.8000   25.3220   41.1540 C   0  0  0  0  0  0  0  0  0  0  0  0
   37.9540   24.5260   41.8520 C   0  0  0  0  0  0  0  0  0  0  0  0
   36.7880   24.1410   41.3890 C   0  0  0  0  0  0  0  0  0  0  0  0
   36.4690   24.5840   40.1670 C   0  0  0  0  0  0  0  0  0  0  0  0
   37.8850   25.5940   39.6440 S   0  0  0  0  0  0  0  0  0  0  0  0
   38.3510   24.2390   42.8470 H   0  0  0  0  0  0  0  0  0  0  0  0
   36.0720   23.5100   41.8990 H   0  0  0  0  0  0  0  0  0  0  0  0
   35.5150   24.3950   39.5370 H   0  0  0  0  0  0  0  0  0  0  0  0
  1  5  1  0  0  0  0
  1 24  1  0  0  0  0
  2  1  2  0  0  0  0
  3  2  1  0  0  0  0
  3  4  1  0  0  0  0
  4  6  1  0  0  0  0
  4  5  2  0  0  0  0
  6  8  1  0  0  0  0
  7  2  1  0  0  0  0
  9  6  1  0  0  0  0
 10  3  1  0  0  0  0
 11 10  1  0  0  0  0
 12 10  1  0  0  0  0
 13 19  1  0  0  0  0
 14 10  1  0  0  0  0
 14 13  2  0  0  0  0
 15 17  2  0  0  0  0
 15 14  1  0  0  0  0
 16 15  1  0  0  0  0
 17 18  1  0  0  0  0
 18 19  2  0  0  0  0
 20 18  1  0  0  0  0
 21 20  1  0  0  0  0
 22 21  1  0  0  0  0
 23 21  1  0  0  0  0
 23 17  1  0  0  0  0
 24 25  2  0  0  0  0
 26 32  1  0  0  0  0
 27 26  1  0  0  0  0
 27 24  1  0  0  0  0
 28 27  2  0  0  0  0
 29 30  2  0  0  0  0
 29 28  1  0  0  0  0
 30 31  1  0  0  0  0
 31 26  2  0  0  0  0
 33 30  1  0  0  0  0
 34 28  1  0  0  0  0
 34 35  2  0  0  0  0
 35 39  1  0  0  0  0
 36 35  1  0  0  0  0
 36 40  1  0  0  0  0
 37 36  2  0  0  0  0
 38 37  1  0  0  0  0
 38 34  1  0  0  0  0
 41 37  1  0  0  0  0
M  END
>  <minimizedAffinity>
-6.15806961

$$$$

 OpenBabel03252503213D

 41 45  0  0  0  0  0  0  0  0999 V2000
   36.2690   30.2730   39.1690 C   0  0  0  0  0  0  0  0  0  0  0  0
   36.5560   31.3350   39.9730 C   0  0  0  0  0  0  0  0  0  0  0  0
   37.3600   32.1470   39.2500 N   0  0  0  0  0  0  0  0  0  0  0  0
   37.5540   31.5990   38.0490 C   0  0  0  0  0  0  0  0  0  0  0  0
   36.8820   30.4450   37.9980 N   0  0  0  0  0  0  0  0  0  0  0  0
   38.3100   32.0530   36.9390 N   0  0  0  0  0  0  0  0  0  0  0  0
   36.2160   31.5040   40.9860 H   0  0  0  0  0  0  0  0  0  0  0  0
   38.1060   32.7630   36.1840 H   0  0  0  0  0  0  0  0  0  0  0  0
   39.2600   31.7390   36.6600 H   0  0  0  0  0  0  0  0  0  0  0  0
   37.9490   33.4140   39.6450 C   0  0  0  0  0  0  0  0  0  0  0  0
   38.1080   34.0600   38.7600 H   0  0  0  0  0  0  0  0  0  0  0  0
   37.3400   33.9480   40.3860 H   0  0  0  0  0  0  0  0  0  0  0  0
   40.3120   33.9950   39.7730 C   0  0  0  0  0  3  0  0  0  0  0  0
   39.3010   33.1550   40.2120 C   0  0  0  0  0  0  0  0  0  0  0  0
   39.6560   32.1790   41.1180 C   0  0  0  0  0  0  0  0  0  0  0  0
   38.8460   31.5400   41.4400 H   0  0  0  0  0  0  0  0  0  0  0  0
   40.9680   32.0860   41.5350 C   0  0  0  0  0  0  0  0  0  0  0  0
   41.9610   32.9290   41.0890 C   0  0  0  0  0  0  0  0  0  0  0  0
   41.6210   33.9060   40.1860 C   0  0  0  0  0  3  0  0  0  0  0  0
   43.1520   32.5350   41.7260 O   0  0  0  0  0  0  0  0  0  0  0  0
   42.8470   31.6680   42.7910 C   0  0  0  0  0  3  0  0  0  0  0  0
   43.5800   30.8450   42.8980 H   0  0  0  0  0  0  0  0  0  0  0  0
   41.5600   31.2000   42.4280 O   0  0  0  0  0  0  0  0  0  0  0  0
   35.4140   29.0890   39.4990 C   0  0  0  0  0  0  0  0  0  0  0  0
   34.2610   29.1490   40.0210 O   0  0  0  0  0  0  0  0  0  0  0  0
   35.4960   27.1190   38.0480 C   0  0  0  0  0  0  0  0  0  0  0  0
   35.8870   27.7810   39.2280 C   0  0  0  0  0  0  0  0  0  0  0  0
   36.7390   27.0430   40.0370 C   0  0  0  0  0  0  0  0  0  0  0  0
   37.1560   25.8150   39.7360 N   0  0  0  0  0  0  0  0  0  0  0  0
   36.7430   25.2260   38.5790 C   0  0  0  0  0  0  0  0  0  0  0  0
   35.9230   25.8780   37.7530 N   0  0  0  0  0  0  0  0  0  0  0  0
   34.8330   27.5910   37.3330 H   0  0  0  0  0  0  0  0  0  0  0  0
   37.1210   24.2230   38.3960 H   0  0  0  0  0  0  0  0  0  0  0  0
   37.1810   27.6400   41.2560 C   0  0  0  0  0  0  0  0  0  0  0  0
   36.6920   27.7620   42.5140 C   0  0  0  0  0  0  0  0  0  0  0  0
   37.3330   28.3860   43.4740 C   0  0  0  0  0  0  0  0  0  0  0  0
   38.5200   28.9080   43.1430 C   0  0  0  0  0  0  0  0  0  0  0  0
   38.7440   28.4970   41.3870 S   0  0  0  0  0  0  0  0  0  0  0  0
   35.7000   27.2810   42.6420 H   0  0  0  0  0  0  0  0  0  0  0  0
   36.9940   28.5140   44.4940 H   0  0  0  0  0  0  0  0  0  0  0  0
   39.2770   29.4980   43.7920 H   0  0  0  0  0  0  0  0  0  0  0  0
  1 24  1  0  0  0  0
  1  2  2  0  0  0  0
  2  7  1  0  0  0  0
  3 10  1  0  0  0  0
  3  2  1  0  0  0  0
  4  3  1  0  0  0  0
  5  4  2  0  0  0  0
  5  1  1  0  0  0  0
  6  4  1  0  0  0  0
  8  6  1  0  0  0  0
  9  6  1  0  0  0  0
 10 14  1  0  0  0  0
 10 12  1  0  0  0  0
 11 10  1  0  0  0  0
 13 19  2  0  0  0  0
 13 14  1  0  0  0  0
 14 15  2  0  0  0  0
 15 16  1  0  0  0  0
 15 17  1  0  0  0  0
 17 23  1  0  0  0  0
 18 17  2  0  0  0  0
 18 20  1  0  0  0  0
 19 18  1  0  0  0  0
 20 21  1  0  0  0  0
 21 22  1  0  0  0  0
 23 21  1  0  0  0  0
 24 25  2  0  0  0  0
 26 27  1  0  0  0  0
 27 24  1  0  0  0  0
 27 28  2  0  0  0  0
 28 34  1  0  0  0  0
 29 28  1  0  0  0  0
 30 29  2  0  0  0  0
 31 26  2  0  0  0  0
 31 30  1  0  0  0  0
 32 26  1  0  0  0  0
 33 30  1  0  0  0  0
 34 38  1  0  0  0  0
 34 35  2  0  0  0  0
 35 39  1  0  0  0  0
 35 36  1  0  0  0  0
 36 40  1  0  0  0  0
 37 36  2  0  0  0  0
 37 41  1  0  0  0  0
 38 37  1  0  0  0  0
M  END
>  <minimizedAffinity>
-6.13208532

$$$$

 OpenBabel03252503213D

 41 45  0  0  0  0  0  0  0  0999 V2000
   37.6250   28.9930   41.5880 C   0  0  0  0  0  0  0  0  0  0  0  0
   38.5950   29.2170   40.6580 C   0  0  0  0  0  0  0  0  0  0  0  0
   38.3340   30.4330   40.1300 N   0  0  0  0  0  0  0  0  0  0  0  0
   37.2450   30.9320   40.7180 C   0  0  0  0  0  0  0  0  0  0  0  0
   36.8080   30.0450   41.6170 N   0  0  0  0  0  0  0  0  0  0  0  0
   36.5720   32.1630   40.5200 N   0  0  0  0  0  0  0  0  0  0  0  0
   39.4120   28.5600   40.3890 H   0  0  0  0  0  0  0  0  0  0  0  0
   36.7670   33.1420   40.8640 H   0  0  0  0  0  0  0  0  0  0  0  0
   35.7090   32.3210   39.9630 H   0  0  0  0  0  0  0  0  0  0  0  0
   39.0690   31.1420   39.0970 C   0  0  0  0  0  0  0  0  0  0  0  0
   39.6270   30.4290   38.4610 H   0  0  0  0  0  0  0  0  0  0  0  0
   38.4180   31.7640   38.4690 H   0  0  0  0  0  0  0  0  0  0  0  0
   39.8860   33.3690   39.6550 C   0  0  0  0  0  3  0  0  0  0  0  0
   40.0960   32.0020   39.7470 C   0  0  0  0  0  0  0  0  0  0  0  0
   41.2240   31.5930   40.4250 C   0  0  0  0  0  0  0  0  0  0  0  0
   41.3600   30.5220   40.4790 H   0  0  0  0  0  0  0  0  0  0  0  0
   42.0700   32.5380   40.9670 C   0  0  0  0  0  0  0  0  0  0  0  0
   41.8470   33.8930   40.8660 C   0  0  0  0  0  0  0  0  0  0  0  0
   40.7270   34.3150   40.1930 C   0  0  0  0  0  3  0  0  0  0  0  0
   42.9080   34.5350   41.5300 O   0  0  0  0  0  0  0  0  0  0  0  0
   43.6110   33.5950   42.3050 C   0  0  0  0  0  3  0  0  0  0  0  0
   44.7040   33.7650   42.3000 H   0  0  0  0  0  0  0  0  0  0  0  0
   43.2510   32.3750   41.6830 O   0  0  0  0  0  0  0  0  0  0  0  0
   37.4620   27.7840   42.4580 C   0  0  0  0  0  0  0  0  0  0  0  0
   36.4000   27.4700   43.0730 O   0  0  0  0  0  0  0  0  0  0  0  0
   39.4910   27.1280   43.6610 C   0  0  0  0  0  0  0  0  0  0  0  0
   38.5510   26.8950   42.6390 C   0  0  0  0  0  0  0  0  0  0  0  0
   38.8050   25.7600   41.8830 C   0  0  0  0  0  0  0  0  0  0  0  0
   39.8440   24.9550   42.0940 N   0  0  0  0  0  0  0  0  0  0  0  0
   40.7210   25.2340   43.0990 C   0  0  0  0  0  0  0  0  0  0  0  0
   40.5380   26.3090   43.8670 N   0  0  0  0  0  0  0  0  0  0  0  0
   39.4010   27.9830   44.3210 H   0  0  0  0  0  0  0  0  0  0  0  0
   41.5460   24.5350   43.2150 H   0  0  0  0  0  0  0  0  0  0  0  0
   37.9000   25.4510   40.8220 C   0  0  0  0  0  0  0  0  0  0  0  0
   37.7100   25.8780   39.5500 C   0  0  0  0  0  0  0  0  0  0  0  0
   36.7680   25.4050   38.7690 C   0  0  0  0  0  0  0  0  0  0  0  0
   35.9850   24.4590   39.3040 C   0  0  0  0  0  0  0  0  0  0  0  0
   36.6120   24.2250   40.9930 S   0  0  0  0  0  0  0  0  0  0  0  0
   38.4320   26.6630   39.2440 H   0  0  0  0  0  0  0  0  0  0  0  0
   36.5690   25.7050   37.7480 H   0  0  0  0  0  0  0  0  0  0  0  0
   35.0940   23.8850   38.8370 H   0  0  0  0  0  0  0  0  0  0  0  0
  1  5  1  0  0  0  0
  1 24  1  0  0  0  0
  2  1  2  0  0  0  0
  3  2  1  0  0  0  0
  3  4  1  0  0  0  0
  4  5  2  0  0  0  0
  6  4  1  0  0  0  0
  6  8  1  0  0  0  0
  7  2  1  0  0  0  0
  9  6  1  0  0  0  0
 10 14  1  0  0  0  0
 10  3  1  0  0  0  0
 11 10  1  0  0  0  0
 12 10  1  0  0  0  0
 13 14  2  0  0  0  0
 13 19  1  0  0  0  0
 14 15  1  0  0  0  0
 15 16  1  0  0  0  0
 15 17  2  0  0  0  0
 17 23  1  0  0  0  0
 18 17  1  0  0  0  0
 18 20  1  0  0  0  0
 19 18  2  0  0  0  0
 20 21  1  0  0  0  0
 22 21  1  0  0  0  0
 23 21  1  0  0  0  0
 24 27  1  0  0  0  0
 24 25  2  0  0  0  0
 26 31  1  0  0  0  0
 26 32  1  0  0  0  0
 27 26  2  0  0  0  0
 28 29  2  0  0  0  0
 28 27  1  0  0  0  0
 29 30  1  0  0  0  0
 30 33  1  0  0  0  0
 30 31  2  0  0  0  0
 34 38  1  0  0  0  0
 34 28  1  0  0  0  0
 35 34  2  0  0  0  0
 36 37  2  0  0  0  0
 36 35  1  0  0  0  0
 37 38  1  0  0  0  0
 39 35  1  0  0  0  0
 40 36  1  0  0  0  0
 41 37  1  0  0  0  0
M  END
>  <minimizedAffinity>
-6.12279463

$$$$

 OpenBabel03252503213D

 41 45  0  0  0  0  0  0  0  0999 V2000
   36.6730   28.5260   41.5730 C   0  0  0  0  0  0  0  0  0  0  0  0
   36.9330   29.8500   41.7610 C   0  0  0  0  0  0  0  0  0  0  0  0
   36.5980   30.4660   40.6050 N   0  0  0  0  0  0  0  0  0  0  0  0
   36.1500   29.5490   39.7450 C   0  0  0  0  0  0  0  0  0  0  0  0
   36.1960   28.3540   40.3410 N   0  0  0  0  0  0  0  0  0  0  0  0
   35.6810   29.6840   38.4150 N   0  0  0  0  0  0  0  0  0  0  0  0
   37.3280   30.3230   42.6500 H   0  0  0  0  0  0  0  0  0  0  0  0
   34.7510   29.9900   38.0170 H   0  0  0  0  0  0  0  0  0  0  0  0
   36.2110   29.4900   37.5420 H   0  0  0  0  0  0  0  0  0  0  0  0
   36.6830   31.8790   40.2820 C   0  0  0  0  0  0  0  0  0  0  0  0
   36.0150   32.1230   39.4340 H   0  0  0  0  0  0  0  0  0  0  0  0
   36.4420   32.5220   41.1390 H   0  0  0  0  0  0  0  0  0  0  0  0
   38.9000   32.7810   40.7400 C   0  0  0  0  0  3  0  0  0  0  0  0
   38.0640   32.1780   39.8130 C   0  0  0  0  0  0  0  0  0  0  0  0
   38.6000   31.9240   38.5690 C   0  0  0  0  0  0  0  0  0  0  0  0
   37.9240   31.4540   37.8690 H   0  0  0  0  0  0  0  0  0  0  0  0
   39.9100   32.2730   38.3100 C   0  0  0  0  0  0  0  0  0  0  0  0
   40.7270   32.8710   39.2430 C   0  0  0  0  0  0  0  0  0  0  0  0
   40.2060   33.1300   40.4870 C   0  0  0  0  0  3  0  0  0  0  0  0
   41.9750   33.0750   38.6260 O   0  0  0  0  0  0  0  0  0  0  0  0
   42.0340   32.3290   37.4360 C   0  0  0  0  0  3  0  0  0  0  0  0
   42.5580   32.8620   36.6200 H   0  0  0  0  0  0  0  0  0  0  0  0
   40.6630   32.1210   37.1510 O   0  0  0  0  0  0  0  0  0  0  0  0
   36.8730   27.4120   42.5550 C   0  0  0  0  0  0  0  0  0  0  0  0
   36.4470   27.4120   43.7480 O   0  0  0  0  0  0  0  0  0  0  0  0
   36.9290   25.0080   42.0950 C   0  0  0  0  0  0  0  0  0  0  0  0
   37.5870   26.2510   42.1670 C   0  0  0  0  0  0  0  0  0  0  0  0
   38.9320   26.2010   41.8320 C   0  0  0  0  0  0  0  0  0  0  0  0
   39.5580   25.0820   41.4720 N   0  0  0  0  0  0  0  0  0  0  0  0
   38.8670   23.9090   41.4210 C   0  0  0  0  0  0  0  0  0  0  0  0
   37.5700   23.8830   41.7310 N   0  0  0  0  0  0  0  0  0  0  0  0
   35.8760   24.9160   42.3320 H   0  0  0  0  0  0  0  0  0  0  0  0
   39.4400   23.0350   41.1210 H   0  0  0  0  0  0  0  0  0  0  0  0
   39.6760   27.4190   41.8820 C   0  0  0  0  0  0  0  0  0  0  0  0
   40.1900   28.2060   42.8580 C   0  0  0  0  0  0  0  0  0  0  0  0
   40.8540   29.3110   42.6120 C   0  0  0  0  0  0  0  0  0  0  0  0
   41.0010   29.6300   41.3210 C   0  0  0  0  0  0  0  0  0  0  0  0
   40.1610   28.3030   40.4070 S   0  0  0  0  0  0  0  0  0  0  0  0
   39.9910   27.8170   43.8780 H   0  0  0  0  0  0  0  0  0  0  0  0
   41.2870   29.9770   43.3480 H   0  0  0  0  0  0  0  0  0  0  0  0
   41.5360   30.5370   40.8380 H   0  0  0  0  0  0  0  0  0  0  0  0
  1  2  2  0  0  0  0
  1 24  1  0  0  0  0
  2  7  1  0  0  0  0
  3  2  1  0  0  0  0
  4  5  2  0  0  0  0
  4  3  1  0  0  0  0
  5  1  1  0  0  0  0
  6  4  1  0  0  0  0
  8  6  1  0  0  0  0
  9  6  1  0  0  0  0
 10  3  1  0  0  0  0
 10 12  1  0  0  0  0
 11 10  1  0  0  0  0
 14 10  1  0  0  0  0
 14 13  2  0  0  0  0
 15 14  1  0  0  0  0
 16 15  1  0  0  0  0
 17 15  2  0  0  0  0
 17 18  1  0  0  0  0
 18 19  2  0  0  0  0
 19 13  1  0  0  0  0
 20 18  1  0  0  0  0
 21 20  1  0  0  0  0
 22 21  1  0  0  0  0
 23 21  1  0  0  0  0
 23 17  1  0  0  0  0
 24 25  2  0  0  0  0
 26 27  1  0  0  0  0
 26 32  1  0  0  0  0
 27 24  1  0  0  0  0
 28 34  1  0  0  0  0
 28 27  2  0  0  0  0
 29 28  1  0  0  0  0
 30 29  2  0  0  0  0
 30 31  1  0  0  0  0
 31 26  2  0  0  0  0
 33 30  1  0  0  0  0
 34 35  2  0  0  0  0
 35 39  1  0  0  0  0
 36 35  1  0  0  0  0
 36 40  1  0  0  0  0
 37 36  2  0  0  0  0
 38 37  1  0  0  0  0
 38 34  1  0  0  0  0
 41 37  1  0  0  0  0
M  END
>  <minimizedAffinity>
-6.00725365

$$$$

 OpenBabel03252503213D

 41 45  0  0  0  0  0  0  0  0999 V2000
   38.4700   31.3360   39.3410 C   0  0  0  0  0  0  0  0  0  0  0  0
   37.9160   30.1410   38.9900 C   0  0  0  0  0  0  0  0  0  0  0  0
   36.8090   30.0040   39.7530 N   0  0  0  0  0  0  0  0  0  0  0  0
   36.6930   31.0760   40.5390 C   0  0  0  0  0  0  0  0  0  0  0  0
   37.7160   31.8970   40.2860 N   0  0  0  0  0  0  0  0  0  0  0  0
   35.7130   31.4080   41.5080 N   0  0  0  0  0  0  0  0  0  0  0  0
   38.2810   29.4380   38.2530 H   0  0  0  0  0  0  0  0  0  0  0  0
   34.7400   31.8090   41.4250 H   0  0  0  0  0  0  0  0  0  0  0  0
   35.7940   31.3050   42.5390 H   0  0  0  0  0  0  0  0  0  0  0  0
   35.8590   28.9050   39.7700 C   0  0  0  0  0  0  0  0  0  0  0  0
   34.9840   29.1590   40.3970 H   0  0  0  0  0  0  0  0  0  0  0  0
   35.5210   28.6250   38.7630 H   0  0  0  0  0  0  0  0  0  0  0  0
   36.5050   27.7310   41.8060 C   0  0  0  0  0  3  0  0  0  0  0  0
   36.5010   27.7300   40.4190 C   0  0  0  0  0  0  0  0  0  0  0  0
   37.0890   26.6470   39.8000 C   0  0  0  0  0  0  0  0  0  0  0  0
   37.0700   26.6750   38.7200 H   0  0  0  0  0  0  0  0  0  0  0  0
   37.6390   25.6420   40.5680 C   0  0  0  0  0  0  0  0  0  0  0  0
   37.6350   25.6590   41.9450 C   0  0  0  0  0  0  0  0  0  0  0  0
   37.0530   26.7320   42.5760 C   0  0  0  0  0  3  0  0  0  0  0  0
   38.2770   24.4840   42.3730 O   0  0  0  0  0  0  0  0  0  0  0  0
   38.3970   23.5960   41.2890 C   0  0  0  0  0  3  0  0  0  0  0  0
   39.3560   23.0440   41.2890 H   0  0  0  0  0  0  0  0  0  0  0  0
   38.2770   24.4690   40.1810 O   0  0  0  0  0  0  0  0  0  0  0  0
   39.7150   31.9570   38.7870 C   0  0  0  0  0  0  0  0  0  0  0  0
   40.0230   31.9950   37.5590 O   0  0  0  0  0  0  0  0  0  0  0  0
   40.9720   33.9240   39.5270 C   0  0  0  0  0  0  0  0  0  0  0  0
   40.6520   32.5590   39.6640 C   0  0  0  0  0  0  0  0  0  0  0  0
   41.3230   31.9210   40.6970 C   0  0  0  0  0  0  0  0  0  0  0  0
   42.1950   32.5320   41.4950 N   0  0  0  0  0  0  0  0  0  0  0  0
   42.4640   33.8560   41.3130 C   0  0  0  0  0  0  0  0  0  0  0  0
   41.8540   34.5340   40.3380 N   0  0  0  0  0  0  0  0  0  0  0  0
   40.5130   34.5330   38.7570 H   0  0  0  0  0  0  0  0  0  0  0  0
   43.1850   34.2920   41.9990 H   0  0  0  0  0  0  0  0  0  0  0  0
   41.0590   30.5320   40.9030 C   0  0  0  0  0  0  0  0  0  0  0  0
   40.3440   29.7990   41.7910 C   0  0  0  0  0  0  0  0  0  0  0  0
   40.2730   28.4890   41.7450 C   0  0  0  0  0  0  0  0  0  0  0  0
   40.9570   27.9010   40.7560 C   0  0  0  0  0  0  0  0  0  0  0  0
   41.7400   29.2640   39.8450 S   0  0  0  0  0  0  0  0  0  0  0  0
   39.8300   30.4210   42.5530 H   0  0  0  0  0  0  0  0  0  0  0  0
   39.7200   27.8520   42.4230 H   0  0  0  0  0  0  0  0  0  0  0  0
   41.0600   26.7770   40.4940 H   0  0  0  0  0  0  0  0  0  0  0  0
  1  5  1  0  0  0  0
  2  1  2  0  0  0  0
  2  3  1  0  0  0  0
  3 10  1  0  0  0  0
  3  4  1  0  0  0  0
  4  6  1  0  0  0  0
  5  4  2  0  0  0  0
  6  9  1  0  0  0  0
  7  2  1  0  0  0  0
  8  6  1  0  0  0  0
 10 11  1  0  0  0  0
 10 14  1  0  0  0  0
 12 10  1  0  0  0  0
 13 19  1  0  0  0  0
 14 13  2  0  0  0  0
 15 14  1  0  0  0  0
 15 17  2  0  0  0  0
 16 15  1  0  0  0  0
 17 18  1  0  0  0  0
 18 20  1  0  0  0  0
 18 19  2  0  0  0  0
 21 20  1  0  0  0  0
 22 21  1  0  0  0  0
 23 17  1  0  0  0  0
 23 21  1  0  0  0  0
 24  1  1  0  0  0  0
 24 27  1  0  0  0  0
 25 24  2  0  0  0  0
 26 27  2  0  0  0  0
 26 31  1  0  0  0  0
 27 28  1  0  0  0  0
 28 34  1  0  0  0  0
 28 29  2  0  0  0  0
 30 29  1  0  0  0  0
 30 33  1  0  0  0  0
 31 30  2  0  0  0  0
 32 26  1  0  0  0  0
 34 35  2  0  0  0  0
 35 39  1  0  0  0  0
 36 35  1  0  0  0  0
 36 40  1  0  0  0  0
 37 36  2  0  0  0  0
 38 37  1  0  0  0  0
 38 34  1  0  0  0  0
 41 37  1  0  0  0  0
M  END
>  <minimizedAffinity>
-5.94393873

$$$$

 OpenBabel03252503213D

 41 45  0  0  0  0  0  0  0  0999 V2000
   37.7300   29.5500   41.9280 C   0  0  0  0  0  0  0  0  0  0  0  0
   38.9510   30.1540   41.8990 C   0  0  0  0  0  0  0  0  0  0  0  0
   38.7650   31.3450   41.2880 N   0  0  0  0  0  0  0  0  0  0  0  0
   37.4780   31.4620   40.9580 C   0  0  0  0  0  0  0  0  0  0  0  0
   36.8390   30.3560   41.3520 N   0  0  0  0  0  0  0  0  0  0  0  0
   36.7840   32.5120   40.3070 N   0  0  0  0  0  0  0  0  0  0  0  0
   39.8860   29.7670   42.2830 H   0  0  0  0  0  0  0  0  0  0  0  0
   36.4080   33.4360   40.6540 H   0  0  0  0  0  0  0  0  0  0  0  0
   36.5080   32.5530   39.3060 H   0  0  0  0  0  0  0  0  0  0  0  0
   39.7500   32.3740   41.0050 C   0  0  0  0  0  0  0  0  0  0  0  0
   39.2510   33.3210   40.7260 H   0  0  0  0  0  0  0  0  0  0  0  0
   40.4290   32.5510   41.8500 H   0  0  0  0  0  0  0  0  0  0  0  0
   40.0440   32.3680   38.5850 C   0  0  0  0  0  3  0  0  0  0  0  0
   40.5420   31.9610   39.8140 C   0  0  0  0  0  0  0  0  0  0  0  0
   41.7060   31.2240   39.7960 C   0  0  0  0  0  0  0  0  0  0  0  0
   42.0690   30.9220   40.7690 H   0  0  0  0  0  0  0  0  0  0  0  0
   42.3070   30.9330   38.5890 C   0  0  0  0  0  0  0  0  0  0  0  0
   41.7990   31.3450   37.3770 C   0  0  0  0  0  0  0  0  0  0  0  0
   40.6390   32.0800   37.3790 C   0  0  0  0  0  3  0  0  0  0  0  0
   42.6700   30.8660   36.3820 O   0  0  0  0  0  0  0  0  0  0  0  0
   43.8690   30.4360   36.9790 C   0  0  0  0  0  3  0  0  0  0  0  0
   44.2810   29.5240   36.5070 H   0  0  0  0  0  0  0  0  0  0  0  0
   43.4680   30.2170   38.3180 O   0  0  0  0  0  0  0  0  0  0  0  0
   37.3950   28.2070   42.5000 C   0  0  0  0  0  0  0  0  0  0  0  0
   36.2580   27.8710   42.9460 O   0  0  0  0  0  0  0  0  0  0  0  0
   39.1650   27.0550   43.7390 C   0  0  0  0  0  0  0  0  0  0  0  0
   38.3930   27.2030   42.5710 C   0  0  0  0  0  0  0  0  0  0  0  0
   38.7080   26.3010   41.5650 C   0  0  0  0  0  0  0  0  0  0  0  0
   39.6560   25.3740   41.6810 N   0  0  0  0  0  0  0  0  0  0  0  0
   40.3710   25.2800   42.8380 C   0  0  0  0  0  0  0  0  0  0  0  0
   40.1210   26.1150   43.8480 N   0  0  0  0  0  0  0  0  0  0  0  0
   39.0130   27.7000   44.5970 H   0  0  0  0  0  0  0  0  0  0  0  0
   41.1290   24.5010   42.8650 H   0  0  0  0  0  0  0  0  0  0  0  0
   37.9740   26.3840   40.3430 C   0  0  0  0  0  0  0  0  0  0  0  0
   36.8080   25.8780   39.8720 C   0  0  0  0  0  0  0  0  0  0  0  0
   36.3560   26.1250   38.6660 C   0  0  0  0  0  0  0  0  0  0  0  0
   37.1200   26.9200   37.9060 C   0  0  0  0  0  0  0  0  0  0  0  0
   38.5490   27.3390   38.9470 S   0  0  0  0  0  0  0  0  0  0  0  0
   36.2830   25.2380   40.6110 H   0  0  0  0  0  0  0  0  0  0  0  0
   35.4350   25.7520   38.2360 H   0  0  0  0  0  0  0  0  0  0  0  0
   36.9540   27.2890   36.8210 H   0  0  0  0  0  0  0  0  0  0  0  0
  1 24  1  0  0  0  0
  2  1  2  0  0  0  0
  2  7  1  0  0  0  0
  3  2  1  0  0  0  0
  4  3  1  0  0  0  0
  4  5  2  0  0  0  0
  5  1  1  0  0  0  0
  6  8  1  0  0  0  0
  6  4  1  0  0  0  0
  9  6  1  0  0  0  0
 10  3  1  0  0  0  0
 10 12  1  0  0  0  0
 11 10  1  0  0  0  0
 13 14  1  0  0  0  0
 14 10  1  0  0  0  0
 15 14  2  0  0  0  0
 15 16  1  0  0  0  0
 17 15  1  0  0  0  0
 18 19  1  0  0  0  0
 18 17  2  0  0  0  0
 19 13  2  0  0  0  0
 20 21  1  0  0  0  0
 20 18  1  0  0  0  0
 21 23  1  0  0  0  0
 22 21  1  0  0  0  0
 23 17  1  0  0  0  0
 24 27  1  0  0  0  0
 24 25  2  0  0  0  0
 26 31  1  0  0  0  0
 26 32  1  0  0  0  0
 27 26  2  0  0  0  0
 28 29  2  0  0  0  0
 28 27  1  0  0  0  0
 29 30  1  0  0  0  0
 30 33  1  0  0  0  0
 30 31  2  0  0  0  0
 34 28  1  0  0  0  0
 35 34  2  0  0  0  0
 35 39  1  0  0  0  0
 36 35  1  0  0  0  0
 37 36  2  0  0  0  0
 37 38  1  0  0  0  0
 38 34  1  0  0  0  0
 40 36  1  0  0  0  0
 41 37  1  0  0  0  0
M  END
>  <minimizedAffinity>
-5.93818998

$$$$
