
 OpenBabel03242517533D

 40 43  0  0  0  0  0  0  0  0999 V2000
   45.3710   34.2630   43.9180 C   0  0  0  0  0  0  0  0  0  0  0  0
   46.3720   34.7740   43.0630 C   0  0  0  0  0  0  0  0  0  0  0  0
   47.6280   34.1980   43.0610 C   0  0  0  0  0  0  0  0  0  0  0  0
   47.7840   33.1690   43.9020 N   0  0  0  0  0  0  0  0  0  0  0  0
   46.8580   32.6820   44.7040 C   0  0  0  0  0  0  0  0  0  0  0  0
   45.6440   33.2370   44.7080 N   0  0  0  0  0  0  0  0  0  0  0  0
   44.4190   34.7670   43.8620 H   0  0  0  0  0  0  0  0  0  0  0  0
   46.1730   35.6100   42.4100 H   0  0  0  0  0  0  0  0  0  0  0  0
   48.7350   34.6570   42.2100 C   0  0  0  0  0  0  0  0  0  0  0  0
   49.3370   35.4120   42.7530 H   0  0  0  0  0  0  0  0  0  0  0  0
   49.3900   33.8180   41.9770 H   0  0  0  0  0  0  0  0  0  0  0  0
   48.2420   35.1880   40.8770 C   0  0  0  0  0  0  0  0  0  0  0  0
   48.7210   36.1560   40.6430 H   0  0  0  0  0  0  0  0  0  0  0  0
   47.1590   35.4010   41.0200 H   0  0  0  0  0  0  0  0  0  0  0  0
   48.7870   32.9380   40.1760 C   0  0  0  0  0  3  0  0  0  0  0  0
   48.4070   34.2170   39.7850 C   0  0  0  0  0  0  0  0  0  0  0  0
   48.2270   34.4340   38.4350 C   0  0  0  0  0  0  0  0  0  0  0  0
   47.9320   35.4350   38.1600 H   0  0  0  0  0  0  0  0  0  0  0  0
   48.4120   33.4410   37.5000 C   0  0  0  0  0  0  0  0  0  0  0  0
   48.7930   32.1760   37.9370 C   0  0  0  0  0  0  0  0  0  0  0  0
   48.9880   31.9020   39.2870 C   0  0  0  0  0  3  0  0  0  0  0  0
   48.9030   31.3850   36.7770 O   0  0  0  0  0  0  0  0  0  0  0  0
   48.8990   32.2130   35.6280 C   0  0  0  0  0  3  0  0  0  0  0  0
   48.3460   31.7740   34.7760 H   0  0  0  0  0  0  0  0  0  0  0  0
   48.3010   33.3950   36.1180 O   0  0  0  0  0  0  0  0  0  0  0  0
   47.0670   31.6160   45.5570 O   0  0  0  0  0  0  0  0  0  0  0  0
   45.5590   30.3560   47.0780 C   0  0  0  0  0  0  0  0  0  0  0  0
   46.3880   31.3860   46.7430 C   0  0  0  0  0  0  0  0  0  0  0  0
   46.6080   32.3670   47.7030 C   0  0  0  0  0  0  0  0  0  0  0  0
   46.0070   32.3010   48.9580 C   0  0  0  0  0  0  0  0  0  0  0  0
   45.1800   31.2490   49.2580 C   0  0  0  0  0  0  0  0  0  0  0  0
   44.9580   30.2680   48.3020 C   0  0  0  0  0  0  0  0  0  0  0  0
   47.2470   33.2270   47.5460 H   0  0  0  0  0  0  0  0  0  0  0  0
   46.1970   33.0900   49.7010 H   0  0  0  0  0  0  0  0  0  0  0  0
   44.6860   31.1490   50.2190 H   0  0  0  0  0  0  0  0  0  0  0  0
   44.3240   29.4050   48.4470 H   0  0  0  0  0  0  0  0  0  0  0  0
   45.3390   29.1710   45.8160 S   0  0  0  0  0  0  0  0  0  0  0  0
   44.6840   29.7690   44.6000 O   0  0  0  0  0  0  0  0  0  0  0  0
   44.3500   28.1340   46.3370 O   0  0  0  0  0  0  0  0  0  0  0  0
   46.5230   28.5740   45.4380 H   0  0  0  0  0  0  0  0  0  0  0  0
  1  6  1  0  0  0  0
  2  1  2  0  0  0  0
  3  2  1  0  0  0  0
  3  4  2  0  0  0  0
  4  5  1  0  0  0  0
  5  6  2  0  0  0  0
  5 26  1  0  0  0  0
  7  1  1  0  0  0  0
  8  2  1  0  0  0  0
  9 10  1  0  0  0  0
  9  3  1  0  0  0  0
 11  9  1  0  0  0  0
 12 14  1  0  0  0  0
 12  9  1  0  0  0  0
 13 12  1  0  0  0  0
 16 15  1  0  0  0  0
 16 12  1  0  0  0  0
 17 16  2  0  0  0  0
 18 17  1  0  0  0  0
 19 20  2  0  0  0  0
 19 17  1  0  0  0  0
 20 21  1  0  0  0  0
 21 15  2  0  0  0  0
 22 20  1  0  0  0  0
 23 25  1  0  0  0  0
 23 22  1  0  0  0  0
 24 23  1  0  0  0  0
 25 19  1  0  0  0  0
 26 28  1  0  0  0  0
 27 32  1  0  0  0  0
 28 27  2  0  0  0  0
 28 29  1  0  0  0  0
 29 30  2  0  0  0  0
 30 31  1  0  0  0  0
 30 34  1  0  0  0  0
 31 35  1  0  0  0  0
 32 36  1  0  0  0  0
 32 31  2  0  0  0  0
 33 29  1  0  0  0  0
 37 39  2  0  0  0  0
 37 27  1  0  0  0  0
 38 37  2  0  0  0  0
 40 37  1  0  0  0  0
M  END
>  <minimizedAffinity>
-5.98260689

>  <minimizedRMSD>
1.46392047

$$$$
