
 OpenBabel03242522403D

 42 45  0  0  0  0  0  0  0  0999 V2000
   47.3400   32.3730   47.6550 C   0  0  0  0  0  0  0  0  0  0  0  0
   47.0530   31.3890   46.6710 C   0  0  0  0  0  0  0  0  0  0  0  0
   47.5800   30.1140   46.8620 C   0  0  0  0  0  0  0  0  0  0  0  0
   48.3370   29.8850   47.9790 N   0  0  0  0  0  0  0  0  0  0  0  0
   48.5760   30.8360   48.8680 C   0  0  0  0  0  0  0  0  0  0  0  0
   48.0900   32.0650   48.7160 N   0  0  0  0  0  0  0  0  0  0  0  0
   46.9760   33.3790   47.5870 H   0  0  0  0  0  0  0  0  0  0  0  0
   47.3790   29.3470   46.1310 H   0  0  0  0  0  0  0  0  0  0  0  0
   46.2260   31.7420   45.5150 C   0  0  0  0  0  0  0  0  0  0  0  0
   46.0970   30.7900   44.9170 H   0  0  0  0  0  0  0  0  0  0  0  0
   45.2050   32.0610   45.7330 H   0  0  0  0  0  0  0  0  0  0  0  0
   47.0230   32.6970   44.6540 C   0  0  0  0  0  0  0  0  0  0  0  0
   47.9550   33.0500   45.1850 H   0  0  0  0  0  0  0  0  0  0  0  0
   47.4270   32.1770   43.7500 H   0  0  0  0  0  0  0  0  0  0  0  0
   46.7210   34.5710   43.0990 C   0  0  0  0  0  0  0  0  0  0  0  0
   46.3150   33.9060   44.2430 C   0  0  0  0  0  0  0  0  0  0  0  0
   45.2750   34.3290   45.0130 C   0  0  0  0  0  0  0  0  0  0  0  0
   44.5940   35.4690   44.6380 C   0  0  0  0  0  0  0  0  0  0  0  0
   44.9360   36.1810   43.5210 C   0  0  0  0  0  0  0  0  0  0  0  0
   46.0040   35.6940   42.7840 C   0  0  0  0  0  0  0  0  0  0  0  0
   44.8900   33.8910   45.9050 H   0  0  0  0  0  0  0  0  0  0  0  0
   43.7450   35.8850   45.1960 H   0  0  0  0  0  0  0  0  0  0  0  0
   44.4500   37.0870   43.1620 H   0  0  0  0  0  0  0  0  0  0  0  0
   46.3010   36.2380   41.8880 H   0  0  0  0  0  0  0  0  0  0  0  0
   48.0460   34.0650   42.0880 S   0  0  0  0  0  0  0  0  0  0  0  0
   49.3950   34.4260   42.6690 O   0  0  0  0  0  0  0  0  0  0  0  0
   47.9900   34.8460   40.7840 O   0  0  0  0  0  0  0  0  0  0  0  0
   48.0490   32.7450   41.7970 H   0  0  0  0  0  0  0  0  0  0  0  0
   49.4030   30.4790   50.0750 C   0  0  0  0  0  0  0  0  0  0  0  0
   49.5460   29.3820   50.1610 H   0  0  0  0  0  0  0  0  0  0  0  0
   48.8220   30.8340   50.9510 H   0  0  0  0  0  0  0  0  0  0  0  0
   50.9550   32.1590   51.0410 C   0  0  0  0  0  3  0  0  0  0  0  0
   50.6870   31.2170   50.0700 C   0  0  0  0  0  0  0  0  0  0  0  0
   51.5940   30.9140   49.0530 C   0  0  0  0  0  0  0  0  0  0  0  0
   51.3490   30.1790   48.3220 H   0  0  0  0  0  0  0  0  0  0  0  0
   52.7790   31.6200   49.0800 C   0  0  0  0  0  0  0  0  0  0  0  0
   53.0900   32.5710   50.0310 C   0  0  0  0  0  0  0  0  0  0  0  0
   52.1570   32.8360   51.0200 C   0  0  0  0  0  3  0  0  0  0  0  0
   54.3470   33.0660   49.7460 O   0  0  0  0  0  0  0  0  0  0  0  0
   54.7620   32.5240   48.5060 C   0  0  0  0  0  3  0  0  0  0  0  0
   55.7800   32.0700   48.5660 H   0  0  0  0  0  0  0  0  0  0  0  0
   53.8380   31.5080   48.1890 O   0  0  0  0  0  0  0  0  0  0  0  0
  1  6  1  0  0  0  0
  2  3  1  0  0  0  0
  2  1  2  0  0  0  0
  3  4  2  0  0  0  0
  4  5  1  0  0  0  0
  5 29  1  0  0  0  0
  6  5  2  0  0  0  0
  7  1  1  0  0  0  0
  8  3  1  0  0  0  0
  9 11  1  0  0  0  0
  9  2  1  0  0  0  0
 10  9  1  0  0  0  0
 12 13  1  0  0  0  0
 12  9  1  0  0  0  0
 14 12  1  0  0  0  0
 15 16  1  0  0  0  0
 16 12  1  0  0  0  0
 16 17  2  0  0  0  0
 17 21  1  0  0  0  0
 18 17  1  0  0  0  0
 18 22  1  0  0  0  0
 19 18  2  0  0  0  0
 20 15  2  0  0  0  0
 20 19  1  0  0  0  0
 23 19  1  0  0  0  0
 24 20  1  0  0  0  0
 25 26  2  0  0  0  0
 25 15  1  0  0  0  0
 27 25  2  0  0  0  0
 28 25  1  0  0  0  0
 29 30  1  0  0  0  0
 29 31  1  0  0  0  0
 33 29  1  0  0  0  0
 33 32  2  0  0  0  0
 34 36  2  0  0  0  0
 34 33  1  0  0  0  0
 35 34  1  0  0  0  0
 36 37  1  0  0  0  0
 37 38  2  0  0  0  0
 38 32  1  0  0  0  0
 39 37  1  0  0  0  0
 40 41  1  0  0  0  0
 40 39  1  0  0  0  0
 42 40  1  0  0  0  0
 42 36  1  0  0  0  0
M  END
>  <minimizedAffinity>
-6.01912355

>  <minimizedRMSD>
1.05957651

$$$$
