
 OpenBabel03242522403D

 42 45  0  0  0  0  0  0  0  0999 V2000
   47.3380   32.2460   47.8180 C   0  0  0  0  0  0  0  0  0  0  0  0
   47.0930   31.2860   46.7990 C   0  0  0  0  0  0  0  0  0  0  0  0
   47.6800   30.0300   46.9430 C   0  0  0  0  0  0  0  0  0  0  0  0
   48.4520   29.7970   48.0490 N   0  0  0  0  0  0  0  0  0  0  0  0
   48.6500   30.7250   48.9710 C   0  0  0  0  0  0  0  0  0  0  0  0
   48.1060   31.9340   48.8650 N   0  0  0  0  0  0  0  0  0  0  0  0
   46.9270   33.2350   47.7870 H   0  0  0  0  0  0  0  0  0  0  0  0
   47.5110   29.2820   46.1850 H   0  0  0  0  0  0  0  0  0  0  0  0
   46.2450   31.6410   45.6600 C   0  0  0  0  0  0  0  0  0  0  0  0
   46.1560   30.7050   45.0290 H   0  0  0  0  0  0  0  0  0  0  0  0
   45.2130   31.9070   45.8920 H   0  0  0  0  0  0  0  0  0  0  0  0
   46.9950   32.6600   44.8290 C   0  0  0  0  0  0  0  0  0  0  0  0
   47.9230   33.0210   45.3610 H   0  0  0  0  0  0  0  0  0  0  0  0
   47.4010   32.1930   43.8970 H   0  0  0  0  0  0  0  0  0  0  0  0
   46.5030   34.5030   43.2860 C   0  0  0  0  0  0  0  0  0  0  0  0
   46.2400   33.8600   44.4830 C   0  0  0  0  0  0  0  0  0  0  0  0
   45.2990   34.2980   45.3640 C   0  0  0  0  0  0  0  0  0  0  0  0
   44.5750   35.4300   45.0510 C   0  0  0  0  0  0  0  0  0  0  0  0
   44.7790   36.1200   43.8880 C   0  0  0  0  0  0  0  0  0  0  0  0
   45.7510   35.6190   43.0380 C   0  0  0  0  0  0  0  0  0  0  0  0
   45.0250   33.8770   46.3050 H   0  0  0  0  0  0  0  0  0  0  0  0
   43.7980   35.8570   45.6990 H   0  0  0  0  0  0  0  0  0  0  0  0
   44.2500   37.0180   43.5730 H   0  0  0  0  0  0  0  0  0  0  0  0
   45.9370   36.1460   42.1020 H   0  0  0  0  0  0  0  0  0  0  0  0
   47.6990   33.9780   42.1330 S   0  0  0  0  0  0  0  0  0  0  0  0
   49.0950   34.4430   42.4850 O   0  0  0  0  0  0  0  0  0  0  0  0
   47.4160   34.6490   40.7980 O   0  0  0  0  0  0  0  0  0  0  0  0
   47.7340   32.6400   41.9400 H   0  0  0  0  0  0  0  0  0  0  0  0
   49.4980   30.3640   50.1620 C   0  0  0  0  0  0  0  0  0  0  0  0
   49.1110   29.4610   50.6790 H   0  0  0  0  0  0  0  0  0  0  0  0
   49.4270   31.2300   50.8520 H   0  0  0  0  0  0  0  0  0  0  0  0
   51.5660   29.0140   49.9100 C   0  0  0  0  0  3  0  0  0  0  0  0
   50.9200   30.2250   49.7730 C   0  0  0  0  0  0  0  0  0  0  0  0
   51.5600   31.3590   49.2710 C   0  0  0  0  0  0  0  0  0  0  0  0
   51.0260   32.2760   49.1800 H   0  0  0  0  0  0  0  0  0  0  0  0
   52.8830   31.1910   48.9190 C   0  0  0  0  0  0  0  0  0  0  0  0
   53.5690   30.0000   49.0390 C   0  0  0  0  0  0  0  0  0  0  0  0
   52.8910   28.9030   49.5430 C   0  0  0  0  0  3  0  0  0  0  0  0
   54.8610   30.2040   48.5950 O   0  0  0  0  0  0  0  0  0  0  0  0
   55.0260   31.5860   48.3400 C   0  0  0  0  0  3  0  0  0  0  0  0
   55.4510   31.7780   47.3250 H   0  0  0  0  0  0  0  0  0  0  0  0
   53.7370   32.1540   48.3990 O   0  0  0  0  0  0  0  0  0  0  0  0
  1  6  1  0  0  0  0
  2  3  1  0  0  0  0
  2  1  2  0  0  0  0
  3  4  2  0  0  0  0
  4  5  1  0  0  0  0
  5 29  1  0  0  0  0
  6  5  2  0  0  0  0
  7  1  1  0  0  0  0
  8  3  1  0  0  0  0
  9 11  1  0  0  0  0
  9  2  1  0  0  0  0
 10  9  1  0  0  0  0
 12 13  1  0  0  0  0
 12  9  1  0  0  0  0
 14 12  1  0  0  0  0
 15 16  1  0  0  0  0
 16 12  1  0  0  0  0
 16 17  2  0  0  0  0
 17 21  1  0  0  0  0
 18 17  1  0  0  0  0
 18 22  1  0  0  0  0
 19 18  2  0  0  0  0
 20 15  2  0  0  0  0
 20 19  1  0  0  0  0
 23 19  1  0  0  0  0
 24 20  1  0  0  0  0
 25 26  2  0  0  0  0
 25 15  1  0  0  0  0
 27 25  2  0  0  0  0
 28 25  1  0  0  0  0
 29 30  1  0  0  0  0
 29 31  1  0  0  0  0
 33 32  1  0  0  0  0
 33 29  1  0  0  0  0
 34 33  2  0  0  0  0
 35 34  1  0  0  0  0
 36 37  2  0  0  0  0
 36 34  1  0  0  0  0
 37 38  1  0  0  0  0
 38 32  2  0  0  0  0
 39 37  1  0  0  0  0
 40 42  1  0  0  0  0
 40 39  1  0  0  0  0
 41 40  1  0  0  0  0
 42 36  1  0  0  0  0
M  END
>  <minimizedAffinity>
-5.54992294

>  <minimizedRMSD>
0.499085039

$$$$
