
 OpenBabel03242517543D

 40 43  0  0  0  0  0  0  0  0999 V2000
   34.8350   26.8480   36.8050 C   0  0  0  0  0  0  0  0  0  0  0  0
   35.6040   27.5910   37.7290 C   0  0  0  0  0  0  0  0  0  0  0  0
   35.0690   28.7270   38.3060 C   0  0  0  0  0  0  0  0  0  0  0  0
   33.8240   29.0290   37.9190 N   0  0  0  0  0  0  0  0  0  0  0  0
   33.0960   28.3450   37.0590 C   0  0  0  0  0  0  0  0  0  0  0  0
   33.6110   27.2470   36.5000 N   0  0  0  0  0  0  0  0  0  0  0  0
   35.3230   25.9770   36.3980 H   0  0  0  0  0  0  0  0  0  0  0  0
   36.6050   27.2850   37.9920 H   0  0  0  0  0  0  0  0  0  0  0  0
   35.7880   29.5650   39.2750 C   0  0  0  0  0  0  0  0  0  0  0  0
   36.8800   29.4790   39.1090 H   0  0  0  0  0  0  0  0  0  0  0  0
   35.5130   30.6100   39.1310 H   0  0  0  0  0  0  0  0  0  0  0  0
   35.4110   29.2260   40.7060 C   0  0  0  0  0  0  0  0  0  0  0  0
   34.5310   28.5570   40.7260 H   0  0  0  0  0  0  0  0  0  0  0  0
   35.0870   30.1850   41.1670 H   0  0  0  0  0  0  0  0  0  0  0  0
   37.3700   29.6100   42.0710 C   0  0  0  0  0  3  0  0  0  0  0  0
   36.5380   28.6720   41.4710 C   0  0  0  0  0  0  0  0  0  0  0  0
   36.8540   27.3430   41.6540 C   0  0  0  0  0  0  0  0  0  0  0  0
   36.1920   26.6360   41.1770 H   0  0  0  0  0  0  0  0  0  0  0  0
   37.9430   26.9420   42.3970 C   0  0  0  0  0  0  0  0  0  0  0  0
   38.7480   27.9150   42.9800 C   0  0  0  0  0  0  0  0  0  0  0  0
   38.4750   29.2720   42.8260 C   0  0  0  0  0  3  0  0  0  0  0  0
   39.7620   27.2180   43.6630 O   0  0  0  0  0  0  0  0  0  0  0  0
   39.7710   25.8620   43.2570 C   0  0  0  0  0  3  0  0  0  0  0  0
   39.9880   25.1590   44.0840 H   0  0  0  0  0  0  0  0  0  0  0  0
   38.4710   25.7030   42.7290 O   0  0  0  0  0  0  0  0  0  0  0  0
   31.8120   28.6980   36.6910 O   0  0  0  0  0  0  0  0  0  0  0  0
   30.5750   30.8520   36.6980 C   0  0  0  0  0  0  0  0  0  0  0  0
   31.4290   29.9260   36.1760 C   0  0  0  0  0  0  0  0  0  0  0  0
   32.0210   30.2200   34.9540 C   0  0  0  0  0  0  0  0  0  0  0  0
   31.7540   31.4130   34.2870 C   0  0  0  0  0  0  0  0  0  0  0  0
   30.8880   32.3210   34.8440 C   0  0  0  0  0  0  0  0  0  0  0  0
   30.2960   32.0300   36.0640 C   0  0  0  0  0  0  0  0  0  0  0  0
   32.7150   29.5600   34.4480 H   0  0  0  0  0  0  0  0  0  0  0  0
   32.2350   31.6240   33.3200 H   0  0  0  0  0  0  0  0  0  0  0  0
   30.6440   33.2650   34.3680 H   0  0  0  0  0  0  0  0  0  0  0  0
   29.6030   32.6810   36.5790 H   0  0  0  0  0  0  0  0  0  0  0  0
   29.8770   30.4020   38.2330 S   0  0  0  0  0  0  0  0  0  0  0  0
   28.9030   29.2640   38.0900 O   0  0  0  0  0  0  0  0  0  0  0  0
   29.0450   31.5850   38.7160 O   0  0  0  0  0  0  0  0  0  0  0  0
   30.8310   30.0580   39.1670 H   0  0  0  0  0  0  0  0  0  0  0  0
  1  2  1  0  0  0  0
  2  8  1  0  0  0  0
  2  3  2  0  0  0  0
  3  9  1  0  0  0  0
  4  3  1  0  0  0  0
  5  4  2  0  0  0  0
  6  1  2  0  0  0  0
  6  5  1  0  0  0  0
  7  1  1  0  0  0  0
  9 12  1  0  0  0  0
 10  9  1  0  0  0  0
 11  9  1  0  0  0  0
 12 13  1  0  0  0  0
 12 14  1  0  0  0  0
 12 16  1  0  0  0  0
 15 21  1  0  0  0  0
 16 17  1  0  0  0  0
 16 15  2  0  0  0  0
 17 19  2  0  0  0  0
 18 17  1  0  0  0  0
 19 25  1  0  0  0  0
 19 20  1  0  0  0  0
 20 22  1  0  0  0  0
 21 20  2  0  0  0  0
 23 22  1  0  0  0  0
 23 24  1  0  0  0  0
 25 23  1  0  0  0  0
 26  5  1  0  0  0  0
 27 37  1  0  0  0  0
 28 26  1  0  0  0  0
 28 27  1  0  0  0  0
 29 28  2  0  0  0  0
 30 31  2  0  0  0  0
 30 29  1  0  0  0  0
 31 32  1  0  0  0  0
 32 36  1  0  0  0  0
 32 27  2  0  0  0  0
 33 29  1  0  0  0  0
 34 30  1  0  0  0  0
 35 31  1  0  0  0  0
 37 39  2  0  0  0  0
 37 40  1  0  0  0  0
 38 37  2  0  0  0  0
M  END
>  <minimizedAffinity>
-6.01348448

$$$$

 OpenBabel03242517543D

 40 43  0  0  0  0  0  0  0  0999 V2000
   35.3970   23.4880   39.2200 C   0  0  0  0  0  0  0  0  0  0  0  0
   35.2360   24.4950   38.2420 C   0  0  0  0  0  0  0  0  0  0  0  0
   35.8870   25.7050   38.3930 C   0  0  0  0  0  0  0  0  0  0  0  0
   36.6370   25.8130   39.4960 N   0  0  0  0  0  0  0  0  0  0  0  0
   36.7960   24.8820   40.4150 C   0  0  0  0  0  0  0  0  0  0  0  0
   36.1690   23.7130   40.2720 N   0  0  0  0  0  0  0  0  0  0  0  0
   34.8570   22.5750   39.0310 H   0  0  0  0  0  0  0  0  0  0  0  0
   34.6120   24.3350   37.3770 H   0  0  0  0  0  0  0  0  0  0  0  0
   35.7830   26.8120   37.4320 C   0  0  0  0  0  0  0  0  0  0  0  0
   36.7850   27.2510   37.2580 H   0  0  0  0  0  0  0  0  0  0  0  0
   35.4160   26.4360   36.4780 H   0  0  0  0  0  0  0  0  0  0  0  0
   34.7840   27.8610   37.8840 C   0  0  0  0  0  0  0  0  0  0  0  0
   33.9920   27.4000   38.5020 H   0  0  0  0  0  0  0  0  0  0  0  0
   34.2870   28.2220   36.9560 H   0  0  0  0  0  0  0  0  0  0  0  0
   35.2460   29.0390   39.9450 C   0  0  0  0  0  3  0  0  0  0  0  0
   35.4230   28.9950   38.5680 C   0  0  0  0  0  0  0  0  0  0  0  0
   36.1690   30.0050   37.9970 C   0  0  0  0  0  0  0  0  0  0  0  0
   36.2910   29.9460   36.9260 H   0  0  0  0  0  0  0  0  0  0  0  0
   36.7220   31.0210   38.7440 C   0  0  0  0  0  0  0  0  0  0  0  0
   36.5190   31.0250   40.1200 C   0  0  0  0  0  0  0  0  0  0  0  0
   35.7740   30.0300   40.7480 C   0  0  0  0  0  3  0  0  0  0  0  0
   37.1910   32.1630   40.6070 O   0  0  0  0  0  0  0  0  0  0  0  0
   37.5350   33.0130   39.5290 C   0  0  0  0  0  3  0  0  0  0  0  0
   38.5230   33.4980   39.6540 H   0  0  0  0  0  0  0  0  0  0  0  0
   37.4950   32.1300   38.4290 O   0  0  0  0  0  0  0  0  0  0  0  0
   37.5830   25.0420   41.5400 O   0  0  0  0  0  0  0  0  0  0  0  0
   38.9310   27.0190   42.2090 C   0  0  0  0  0  0  0  0  0  0  0  0
   37.8130   26.2380   42.2000 C   0  0  0  0  0  0  0  0  0  0  0  0
   36.7250   26.6720   42.9490 C   0  0  0  0  0  0  0  0  0  0  0  0
   36.7740   27.8560   43.6800 C   0  0  0  0  0  0  0  0  0  0  0  0
   37.9170   28.6150   43.6640 C   0  0  0  0  0  0  0  0  0  0  0  0
   39.0050   28.1850   42.9180 C   0  0  0  0  0  0  0  0  0  0  0  0
   35.7880   26.1340   43.0130 H   0  0  0  0  0  0  0  0  0  0  0  0
   35.8990   28.1790   44.2650 H   0  0  0  0  0  0  0  0  0  0  0  0
   38.0090   29.5450   44.2150 H   0  0  0  0  0  0  0  0  0  0  0  0
   39.9440   28.7140   42.8460 H   0  0  0  0  0  0  0  0  0  0  0  0
   40.2470   26.4010   41.2450 S   0  0  0  0  0  0  0  0  0  0  0  0
   41.5410   27.1090   41.5470 O   0  0  0  0  0  0  0  0  0  0  0  0
   39.9370   26.7330   39.7900 O   0  0  0  0  0  0  0  0  0  0  0  0
   40.4320   25.0440   41.4100 H   0  0  0  0  0  0  0  0  0  0  0  0
  1  6  1  0  0  0  0
  2  3  1  0  0  0  0
  2  1  2  0  0  0  0
  3  4  2  0  0  0  0
  4  5  1  0  0  0  0
  5 26  1  0  0  0  0
  6  5  2  0  0  0  0
  7  1  1  0  0  0  0
  8  2  1  0  0  0  0
  9 12  1  0  0  0  0
  9  3  1  0  0  0  0
 10  9  1  0  0  0  0
 11  9  1  0  0  0  0
 12 13  1  0  0  0  0
 12 16  1  0  0  0  0
 14 12  1  0  0  0  0
 15 21  1  0  0  0  0
 16 15  2  0  0  0  0
 17 16  1  0  0  0  0
 17 19  2  0  0  0  0
 18 17  1  0  0  0  0
 19 20  1  0  0  0  0
 20 22  1  0  0  0  0
 20 21  2  0  0  0  0
 23 24  1  0  0  0  0
 23 22  1  0  0  0  0
 25 19  1  0  0  0  0
 25 23  1  0  0  0  0
 26 28  1  0  0  0  0
 27 32  1  0  0  0  0
 28 27  2  0  0  0  0
 28 29  1  0  0  0  0
 29 33  1  0  0  0  0
 29 30  2  0  0  0  0
 30 34  1  0  0  0  0
 31 30  1  0  0  0  0
 31 35  1  0  0  0  0
 32 31  2  0  0  0  0
 36 32  1  0  0  0  0
 37 40  1  0  0  0  0
 37 38  2  0  0  0  0
 37 27  1  0  0  0  0
 39 37  2  0  0  0  0
M  END
>  <minimizedAffinity>
-5.87152529

$$$$

 OpenBabel03242517543D

 40 43  0  0  0  0  0  0  0  0999 V2000
   37.4000   31.0160   37.0220 C   0  0  0  0  0  0  0  0  0  0  0  0
   36.5800   29.9890   37.5400 C   0  0  0  0  0  0  0  0  0  0  0  0
   36.4670   29.8290   38.9080 C   0  0  0  0  0  0  0  0  0  0  0  0
   37.1730   30.6980   39.6430 N   0  0  0  0  0  0  0  0  0  0  0  0
   37.9410   31.6600   39.1720 C   0  0  0  0  0  0  0  0  0  0  0  0
   38.0520   31.8160   37.8510 N   0  0  0  0  0  0  0  0  0  0  0  0
   37.4370   31.0750   35.9460 H   0  0  0  0  0  0  0  0  0  0  0  0
   36.0400   29.3240   36.8840 H   0  0  0  0  0  0  0  0  0  0  0  0
   35.6410   28.7930   39.5440 C   0  0  0  0  0  0  0  0  0  0  0  0
   34.6080   28.8420   39.1470 H   0  0  0  0  0  0  0  0  0  0  0  0
   36.0410   27.8080   39.3040 H   0  0  0  0  0  0  0  0  0  0  0  0
   35.6650   28.8990   41.0570 C   0  0  0  0  0  0  0  0  0  0  0  0
   34.6550   28.7330   41.4730 H   0  0  0  0  0  0  0  0  0  0  0  0
   35.9260   29.9580   41.2800 H   0  0  0  0  0  0  0  0  0  0  0  0
   37.3180   28.5270   42.7830 C   0  0  0  0  0  3  0  0  0  0  0  0
   36.6640   28.0120   41.6710 C   0  0  0  0  0  0  0  0  0  0  0  0
   37.0170   26.7410   41.2660 C   0  0  0  0  0  0  0  0  0  0  0  0
   36.4940   26.3660   40.4000 H   0  0  0  0  0  0  0  0  0  0  0  0
   37.9740   26.0010   41.9240 C   0  0  0  0  0  0  0  0  0  0  0  0
   38.6030   26.5570   43.0330 C   0  0  0  0  0  0  0  0  0  0  0  0
   38.2850   27.8350   43.4840 C   0  0  0  0  0  3  0  0  0  0  0  0
   39.5150   25.5850   43.4880 O   0  0  0  0  0  0  0  0  0  0  0  0
   39.6750   24.5800   42.5040 C   0  0  0  0  0  3  0  0  0  0  0  0
   39.7780   23.5630   42.9300 H   0  0  0  0  0  0  0  0  0  0  0  0
   38.5030   24.7330   41.7300 O   0  0  0  0  0  0  0  0  0  0  0  0
   38.6510   32.5340   39.9720 O   0  0  0  0  0  0  0  0  0  0  0  0
   41.0450   32.6040   40.6340 C   0  0  0  0  0  0  0  0  0  0  0  0
   39.7470   32.2030   40.7530 C   0  0  0  0  0  0  0  0  0  0  0  0
   39.4390   31.3360   41.7950 C   0  0  0  0  0  0  0  0  0  0  0  0
   40.4160   30.8950   42.6840 C   0  0  0  0  0  0  0  0  0  0  0  0
   41.7120   31.3210   42.5320 C   0  0  0  0  0  0  0  0  0  0  0  0
   42.0230   32.1860   41.4930 C   0  0  0  0  0  0  0  0  0  0  0  0
   38.4440   30.9550   41.9850 H   0  0  0  0  0  0  0  0  0  0  0  0
   40.1480   30.2090   43.5020 H   0  0  0  0  0  0  0  0  0  0  0  0
   42.5120   31.0080   43.1950 H   0  0  0  0  0  0  0  0  0  0  0  0
   43.0120   32.5730   41.2940 H   0  0  0  0  0  0  0  0  0  0  0  0
   41.3430   33.6890   39.3010 S   0  0  0  0  0  0  0  0  0  0  0  0
   41.2600   32.9800   37.9760 O   0  0  0  0  0  0  0  0  0  0  0  0
   42.7880   34.1610   39.4150 O   0  0  0  0  0  0  0  0  0  0  0  0
   40.4760   34.7620   39.2880 H   0  0  0  0  0  0  0  0  0  0  0  0
  1  2  2  0  0  0  0
  1  6  1  0  0  0  0
  2  3  1  0  0  0  0
  3  9  1  0  0  0  0
  3  4  2  0  0  0  0
  5  4  1  0  0  0  0
  5 26  1  0  0  0  0
  6  5  2  0  0  0  0
  7  1  1  0  0  0  0
  8  2  1  0  0  0  0
  9 12  1  0  0  0  0
 10  9  1  0  0  0  0
 11  9  1  0  0  0  0
 12 14  1  0  0  0  0
 12 13  1  0  0  0  0
 12 16  1  0  0  0  0
 15 21  1  0  0  0  0
 16 15  2  0  0  0  0
 17 16  1  0  0  0  0
 17 19  2  0  0  0  0
 18 17  1  0  0  0  0
 19 20  1  0  0  0  0
 20 21  2  0  0  0  0
 20 22  1  0  0  0  0
 23 24  1  0  0  0  0
 23 22  1  0  0  0  0
 25 19  1  0  0  0  0
 25 23  1  0  0  0  0
 26 28  1  0  0  0  0
 27 28  2  0  0  0  0
 27 32  1  0  0  0  0
 28 29  1  0  0  0  0
 29 33  1  0  0  0  0
 29 30  2  0  0  0  0
 30 34  1  0  0  0  0
 31 30  1  0  0  0  0
 31 35  1  0  0  0  0
 32 31  2  0  0  0  0
 36 32  1  0  0  0  0
 37 39  2  0  0  0  0
 37 27  1  0  0  0  0
 38 37  2  0  0  0  0
 40 37  1  0  0  0  0
M  END
>  <minimizedAffinity>
-5.82581282

$$$$

 OpenBabel03242517543D

 40 43  0  0  0  0  0  0  0  0999 V2000
   35.2310   27.7310   35.5730 C   0  0  0  0  0  0  0  0  0  0  0  0
   35.9220   28.2740   36.6780 C   0  0  0  0  0  0  0  0  0  0  0  0
   35.2380   29.0410   37.6020 C   0  0  0  0  0  0  0  0  0  0  0  0
   33.9330   29.2030   37.3530 N   0  0  0  0  0  0  0  0  0  0  0  0
   33.2760   28.7010   36.3260 C   0  0  0  0  0  0  0  0  0  0  0  0
   33.9350   27.9600   35.4320 N   0  0  0  0  0  0  0  0  0  0  0  0
   35.8340   27.1460   34.8970 H   0  0  0  0  0  0  0  0  0  0  0  0
   36.9780   28.1010   36.8130 H   0  0  0  0  0  0  0  0  0  0  0  0
   35.8670   29.6500   38.7830 C   0  0  0  0  0  0  0  0  0  0  0  0
   36.9630   29.4990   38.7430 H   0  0  0  0  0  0  0  0  0  0  0  0
   35.6790   30.7230   38.7850 H   0  0  0  0  0  0  0  0  0  0  0  0
   35.2760   29.1170   40.0760 C   0  0  0  0  0  0  0  0  0  0  0  0
   34.5110   28.3480   39.8640 H   0  0  0  0  0  0  0  0  0  0  0  0
   34.7400   29.9750   40.5370 H   0  0  0  0  0  0  0  0  0  0  0  0
   36.9060   29.5970   41.7980 C   0  0  0  0  0  3  0  0  0  0  0  0
   36.3040   28.6260   41.0070 C   0  0  0  0  0  0  0  0  0  0  0  0
   36.7280   27.3250   41.1760 C   0  0  0  0  0  0  0  0  0  0  0  0
   36.2430   26.5910   40.5500 H   0  0  0  0  0  0  0  0  0  0  0  0
   37.7040   26.9840   42.0850 C   0  0  0  0  0  0  0  0  0  0  0  0
   38.2800   27.9880   42.8560 C   0  0  0  0  0  0  0  0  0  0  0  0
   37.8890   29.3190   42.7250 C   0  0  0  0  0  3  0  0  0  0  0  0
   39.2270   27.3500   43.6780 O   0  0  0  0  0  0  0  0  0  0  0  0
   39.4590   26.0340   43.2110 C   0  0  0  0  0  3  0  0  0  0  0  0
   39.6020   25.2990   44.0270 H   0  0  0  0  0  0  0  0  0  0  0  0
   38.2990   25.7830   42.4450 O   0  0  0  0  0  0  0  0  0  0  0  0
   31.9250   28.8970   36.1110 O   0  0  0  0  0  0  0  0  0  0  0  0
   30.8840   31.1490   36.0010 C   0  0  0  0  0  0  0  0  0  0  0  0
   31.1770   29.9570   36.5950 C   0  0  0  0  0  0  0  0  0  0  0  0
   30.6710   29.7370   37.8710 C   0  0  0  0  0  0  0  0  0  0  0  0
   29.8940   30.6950   38.5180 C   0  0  0  0  0  0  0  0  0  0  0  0
   29.6190   31.8830   37.8870 C   0  0  0  0  0  0  0  0  0  0  0  0
   30.1240   32.1060   36.6140 C   0  0  0  0  0  0  0  0  0  0  0  0
   30.8400   28.8290   38.4350 H   0  0  0  0  0  0  0  0  0  0  0  0
   29.5040   30.4980   39.5280 H   0  0  0  0  0  0  0  0  0  0  0  0
   29.0200   32.6640   38.3450 H   0  0  0  0  0  0  0  0  0  0  0  0
   29.9610   33.0070   36.0410 H   0  0  0  0  0  0  0  0  0  0  0  0
   31.5590   31.3420   34.4040 S   0  0  0  0  0  0  0  0  0  0  0  0
   31.4550   32.7650   33.9230 O   0  0  0  0  0  0  0  0  0  0  0  0
   30.6950   30.5300   33.4460 O   0  0  0  0  0  0  0  0  0  0  0  0
   32.8770   30.9430   34.3350 H   0  0  0  0  0  0  0  0  0  0  0  0
  1  2  1  0  0  0  0
  2  8  1  0  0  0  0
  2  3  2  0  0  0  0
  3  9  1  0  0  0  0
  4  3  1  0  0  0  0
  5  4  2  0  0  0  0
  6  1  2  0  0  0  0
  6  5  1  0  0  0  0
  7  1  1  0  0  0  0
  9 11  1  0  0  0  0
  9 12  1  0  0  0  0
 10  9  1  0  0  0  0
 12 14  1  0  0  0  0
 12 16  1  0  0  0  0
 13 12  1  0  0  0  0
 15 21  1  0  0  0  0
 16 17  1  0  0  0  0
 16 15  2  0  0  0  0
 17 19  2  0  0  0  0
 18 17  1  0  0  0  0
 19 25  1  0  0  0  0
 19 20  1  0  0  0  0
 20 22  1  0  0  0  0
 21 20  2  0  0  0  0
 23 22  1  0  0  0  0
 23 24  1  0  0  0  0
 25 23  1  0  0  0  0
 26  5  1  0  0  0  0
 26 28  1  0  0  0  0
 27 28  2  0  0  0  0
 27 32  1  0  0  0  0
 28 29  1  0  0  0  0
 29 33  1  0  0  0  0
 29 30  2  0  0  0  0
 30 34  1  0  0  0  0
 31 35  1  0  0  0  0
 31 30  1  0  0  0  0
 32 31  2  0  0  0  0
 36 32  1  0  0  0  0
 37 27  1  0  0  0  0
 38 37  2  0  0  0  0
 39 37  2  0  0  0  0
 40 37  1  0  0  0  0
M  END
>  <minimizedAffinity>
-5.80023909

$$$$

 OpenBabel03242517543D

 40 43  0  0  0  0  0  0  0  0999 V2000
   36.5100   24.0900   41.0470 C   0  0  0  0  0  0  0  0  0  0  0  0
   37.0120   24.8150   42.1500 C   0  0  0  0  0  0  0  0  0  0  0  0
   37.3950   26.1320   41.9850 C   0  0  0  0  0  0  0  0  0  0  0  0
   37.2500   26.6160   40.7460 N   0  0  0  0  0  0  0  0  0  0  0  0
   36.7830   25.9500   39.7080 C   0  0  0  0  0  0  0  0  0  0  0  0
   36.4120   24.6780   39.8650 N   0  0  0  0  0  0  0  0  0  0  0  0
   36.2330   23.0690   41.2560 H   0  0  0  0  0  0  0  0  0  0  0  0
   37.1010   24.3560   43.1230 H   0  0  0  0  0  0  0  0  0  0  0  0
   37.9290   26.9690   43.0700 C   0  0  0  0  0  0  0  0  0  0  0  0
   38.0250   26.3670   43.9940 H   0  0  0  0  0  0  0  0  0  0  0  0
   38.9230   27.3250   42.8010 H   0  0  0  0  0  0  0  0  0  0  0  0
   37.0840   28.2090   43.2940 C   0  0  0  0  0  0  0  0  0  0  0  0
   37.0000   28.4300   44.3740 H   0  0  0  0  0  0  0  0  0  0  0  0
   36.0610   27.9430   42.9480 H   0  0  0  0  0  0  0  0  0  0  0  0
   38.9100   29.6870   42.7180 C   0  0  0  0  0  3  0  0  0  0  0  0
   37.5700   29.3700   42.5330 C   0  0  0  0  0  0  0  0  0  0  0  0
   36.8490   30.1660   41.6680 C   0  0  0  0  0  0  0  0  0  0  0  0
   35.8110   29.8970   41.5430 H   0  0  0  0  0  0  0  0  0  0  0  0
   37.4160   31.2330   41.0080 C   0  0  0  0  0  0  0  0  0  0  0  0
   38.7610   31.5140   41.2230 C   0  0  0  0  0  0  0  0  0  0  0  0
   39.5350   30.7430   42.0860 C   0  0  0  0  0  3  0  0  0  0  0  0
   39.0530   32.6380   40.4270 O   0  0  0  0  0  0  0  0  0  0  0  0
   37.8500   33.2310   39.9740 C   0  0  0  0  0  3  0  0  0  0  0  0
   37.9150   33.6150   38.9380 H   0  0  0  0  0  0  0  0  0  0  0  0
   36.9280   32.1700   40.1070 O   0  0  0  0  0  0  0  0  0  0  0  0
   36.6510   26.4950   38.4450 O   0  0  0  0  0  0  0  0  0  0  0  0
   36.1440   28.8700   37.9180 C   0  0  0  0  0  0  0  0  0  0  0  0
   36.9680   27.7960   38.0910 C   0  0  0  0  0  0  0  0  0  0  0  0
   38.3290   27.9970   37.8920 C   0  0  0  0  0  0  0  0  0  0  0  0
   38.8330   29.2450   37.5310 C   0  0  0  0  0  0  0  0  0  0  0  0
   37.9720   30.3010   37.3670 C   0  0  0  0  0  0  0  0  0  0  0  0
   36.6130   30.1040   37.5640 C   0  0  0  0  0  0  0  0  0  0  0  0
   39.0730   27.2190   38.0030 H   0  0  0  0  0  0  0  0  0  0  0  0
   39.9140   29.3790   37.3800 H   0  0  0  0  0  0  0  0  0  0  0  0
   38.3100   31.2930   37.0860 H   0  0  0  0  0  0  0  0  0  0  0  0
   35.8620   30.8730   37.4580 H   0  0  0  0  0  0  0  0  0  0  0  0
   34.4540   28.5290   38.1870 S   0  0  0  0  0  0  0  0  0  0  0  0
   33.5770   29.2420   37.1930 O   0  0  0  0  0  0  0  0  0  0  0  0
   34.0840   29.1170   39.5440 O   0  0  0  0  0  0  0  0  0  0  0  0
   34.1730   27.1790   38.1440 H   0  0  0  0  0  0  0  0  0  0  0  0
  1  7  1  0  0  0  0
  1  2  1  0  0  0  0
  2  8  1  0  0  0  0
  3  2  2  0  0  0  0
  3  9  1  0  0  0  0
  4  3  1  0  0  0  0
  5  6  1  0  0  0  0
  5  4  2  0  0  0  0
  6  1  2  0  0  0  0
  9 12  1  0  0  0  0
  9 10  1  0  0  0  0
 11  9  1  0  0  0  0
 12 13  1  0  0  0  0
 14 12  1  0  0  0  0
 16 15  1  0  0  0  0
 16 12  1  0  0  0  0
 17 16  2  0  0  0  0
 18 17  1  0  0  0  0
 19 20  2  0  0  0  0
 19 17  1  0  0  0  0
 20 21  1  0  0  0  0
 21 15  2  0  0  0  0
 22 20  1  0  0  0  0
 23 25  1  0  0  0  0
 23 22  1  0  0  0  0
 24 23  1  0  0  0  0
 25 19  1  0  0  0  0
 26  5  1  0  0  0  0
 27 28  1  0  0  0  0
 27 37  1  0  0  0  0
 28 26  1  0  0  0  0
 29 33  1  0  0  0  0
 29 28  2  0  0  0  0
 30 29  1  0  0  0  0
 31 30  2  0  0  0  0
 31 32  1  0  0  0  0
 32 27  2  0  0  0  0
 34 30  1  0  0  0  0
 35 31  1  0  0  0  0
 36 32  1  0  0  0  0
 37 39  2  0  0  0  0
 38 37  2  0  0  0  0
 40 37  1  0  0  0  0
M  END
>  <minimizedAffinity>
-5.77317286

$$$$

 OpenBabel03242517543D

 40 43  0  0  0  0  0  0  0  0999 V2000
   35.7250   29.3720   35.3800 C   0  0  0  0  0  0  0  0  0  0  0  0
   35.0440   28.7500   36.4510 C   0  0  0  0  0  0  0  0  0  0  0  0
   35.4160   29.0300   37.7520 C   0  0  0  0  0  0  0  0  0  0  0  0
   36.4270   29.8980   37.8800 N   0  0  0  0  0  0  0  0  0  0  0  0
   37.0690   30.4850   36.8900 C   0  0  0  0  0  0  0  0  0  0  0  0
   36.7120   30.2170   35.6330 N   0  0  0  0  0  0  0  0  0  0  0  0
   35.3770   29.1020   34.3960 H   0  0  0  0  0  0  0  0  0  0  0  0
   34.2370   28.0580   36.2690 H   0  0  0  0  0  0  0  0  0  0  0  0
   34.7720   28.4340   38.9310 C   0  0  0  0  0  0  0  0  0  0  0  0
   33.7120   28.2090   38.7040 H   0  0  0  0  0  0  0  0  0  0  0  0
   35.2640   27.4950   39.1820 H   0  0  0  0  0  0  0  0  0  0  0  0
   34.9060   29.3200   40.1560 C   0  0  0  0  0  0  0  0  0  0  0  0
   33.9630   29.3290   40.7330 H   0  0  0  0  0  0  0  0  0  0  0  0
   35.0450   30.3530   39.7660 H   0  0  0  0  0  0  0  0  0  0  0  0
   36.8420   30.0180   41.4270 C   0  0  0  0  0  3  0  0  0  0  0  0
   36.0580   28.9550   40.9940 C   0  0  0  0  0  0  0  0  0  0  0  0
   36.4390   27.6900   41.3900 C   0  0  0  0  0  0  0  0  0  0  0  0
   35.8130   26.8840   41.0390 H   0  0  0  0  0  0  0  0  0  0  0  0
   37.5450   27.4710   42.1800 C   0  0  0  0  0  0  0  0  0  0  0  0
   38.3010   28.5640   42.5900 C   0  0  0  0  0  0  0  0  0  0  0  0
   37.9610   29.8620   42.2200 C   0  0  0  0  0  3  0  0  0  0  0  0
   39.3480   28.0390   43.3720 O   0  0  0  0  0  0  0  0  0  0  0  0
   39.4240   26.6370   43.1920 C   0  0  0  0  0  3  0  0  0  0  0  0
   39.6740   26.0900   44.1220 H   0  0  0  0  0  0  0  0  0  0  0  0
   38.1340   26.3290   42.7070 O   0  0  0  0  0  0  0  0  0  0  0  0
   38.1090   31.3770   37.0740 O   0  0  0  0  0  0  0  0  0  0  0  0
   39.6440   31.9280   38.9480 C   0  0  0  0  0  0  0  0  0  0  0  0
   38.4580   31.9720   38.2760 C   0  0  0  0  0  0  0  0  0  0  0  0
   37.4270   32.7100   38.8460 C   0  0  0  0  0  0  0  0  0  0  0  0
   37.5970   33.3780   40.0560 C   0  0  0  0  0  0  0  0  0  0  0  0
   38.8050   33.3100   40.7030 C   0  0  0  0  0  0  0  0  0  0  0  0
   39.8360   32.5750   40.1370 C   0  0  0  0  0  0  0  0  0  0  0  0
   36.4460   32.8140   38.4000 H   0  0  0  0  0  0  0  0  0  0  0  0
   36.7660   33.9560   40.4870 H   0  0  0  0  0  0  0  0  0  0  0  0
   38.9920   33.8110   41.6470 H   0  0  0  0  0  0  0  0  0  0  0  0
   40.8190   32.4640   40.5720 H   0  0  0  0  0  0  0  0  0  0  0  0
   40.8810   30.9810   38.1630 S   0  0  0  0  0  0  0  0  0  0  0  0
   42.0730   30.7700   39.0580 O   0  0  0  0  0  0  0  0  0  0  0  0
   41.4010   31.8000   36.9870 O   0  0  0  0  0  0  0  0  0  0  0  0
   40.4180   29.7530   37.7400 H   0  0  0  0  0  0  0  0  0  0  0  0
  1  6  2  0  0  0  0
  1  2  1  0  0  0  0
  2  3  2  0  0  0  0
  3  4  1  0  0  0  0
  3  9  1  0  0  0  0
  5 26  1  0  0  0  0
  5  4  2  0  0  0  0
  6  5  1  0  0  0  0
  7  1  1  0  0  0  0
  8  2  1  0  0  0  0
  9 11  1  0  0  0  0
  9 12  1  0  0  0  0
 10  9  1  0  0  0  0
 12 13  1  0  0  0  0
 12 16  1  0  0  0  0
 14 12  1  0  0  0  0
 15 21  1  0  0  0  0
 16 17  1  0  0  0  0
 16 15  2  0  0  0  0
 17 19  2  0  0  0  0
 18 17  1  0  0  0  0
 19 20  1  0  0  0  0
 19 25  1  0  0  0  0
 20 22  1  0  0  0  0
 21 20  2  0  0  0  0
 23 22  1  0  0  0  0
 23 24  1  0  0  0  0
 25 23  1  0  0  0  0
 26 28  1  0  0  0  0
 27 32  1  0  0  0  0
 28 29  1  0  0  0  0
 28 27  2  0  0  0  0
 29 30  2  0  0  0  0
 30 34  1  0  0  0  0
 30 31  1  0  0  0  0
 31 35  1  0  0  0  0
 32 36  1  0  0  0  0
 32 31  2  0  0  0  0
 33 29  1  0  0  0  0
 37 27  1  0  0  0  0
 37 38  2  0  0  0  0
 39 37  2  0  0  0  0
 40 37  1  0  0  0  0
M  END
>  <minimizedAffinity>
-5.70683002

$$$$

 OpenBabel03242517543D

 40 43  0  0  0  0  0  0  0  0999 V2000
   36.9820   24.0250   41.2110 C   0  0  0  0  0  0  0  0  0  0  0  0
   37.4160   24.8150   42.2990 C   0  0  0  0  0  0  0  0  0  0  0  0
   37.8170   26.1190   42.0800 C   0  0  0  0  0  0  0  0  0  0  0  0
   37.7520   26.5280   40.8070 N   0  0  0  0  0  0  0  0  0  0  0  0
   37.3480   25.8020   39.7840 C   0  0  0  0  0  0  0  0  0  0  0  0
   36.9610   24.5420   39.9930 N   0  0  0  0  0  0  0  0  0  0  0  0
   36.6880   23.0190   41.4630 H   0  0  0  0  0  0  0  0  0  0  0  0
   37.4420   24.4150   43.3010 H   0  0  0  0  0  0  0  0  0  0  0  0
   38.2850   27.0190   43.1440 C   0  0  0  0  0  0  0  0  0  0  0  0
   38.4400   26.4450   44.0780 H   0  0  0  0  0  0  0  0  0  0  0  0
   39.2420   27.4550   42.8600 H   0  0  0  0  0  0  0  0  0  0  0  0
   37.3380   28.1860   43.3550 C   0  0  0  0  0  0  0  0  0  0  0  0
   37.2830   28.4510   44.4270 H   0  0  0  0  0  0  0  0  0  0  0  0
   36.3300   27.8090   43.0740 H   0  0  0  0  0  0  0  0  0  0  0  0
   38.9390   29.8880   42.7310 C   0  0  0  0  0  3  0  0  0  0  0  0
   37.6760   29.3470   42.5190 C   0  0  0  0  0  0  0  0  0  0  0  0
   36.8860   29.9490   41.5620 C   0  0  0  0  0  0  0  0  0  0  0  0
   35.9110   29.5090   41.4190 H   0  0  0  0  0  0  0  0  0  0  0  0
   37.3140   31.0390   40.8380 C   0  0  0  0  0  0  0  0  0  0  0  0
   38.5850   31.5480   41.0820 C   0  0  0  0  0  0  0  0  0  0  0  0
   39.4240   30.9780   42.0370 C   0  0  0  0  0  3  0  0  0  0  0  0
   38.7400   32.6390   40.2070 O   0  0  0  0  0  0  0  0  0  0  0  0
   37.4850   32.9960   39.6580 C   0  0  0  0  0  3  0  0  0  0  0  0
   37.5440   33.3050   38.5970 H   0  0  0  0  0  0  0  0  0  0  0  0
   36.7340   31.8140   39.8430 O   0  0  0  0  0  0  0  0  0  0  0  0
   37.2990   26.2700   38.4850 O   0  0  0  0  0  0  0  0  0  0  0  0
   36.8970   28.5880   37.6850 C   0  0  0  0  0  0  0  0  0  0  0  0
   36.5200   27.3240   38.0360 C   0  0  0  0  0  0  0  0  0  0  0  0
   35.1690   27.0120   37.9440 C   0  0  0  0  0  0  0  0  0  0  0  0
   34.2360   27.9500   37.5100 C   0  0  0  0  0  0  0  0  0  0  0  0
   34.6530   29.2110   37.1660 C   0  0  0  0  0  0  0  0  0  0  0  0
   36.0010   29.5270   37.2570 C   0  0  0  0  0  0  0  0  0  0  0  0
   34.7600   26.0420   38.1950 H   0  0  0  0  0  0  0  0  0  0  0  0
   33.1710   27.6790   37.4460 H   0  0  0  0  0  0  0  0  0  0  0  0
   33.9690   29.9800   36.8230 H   0  0  0  0  0  0  0  0  0  0  0  0
   36.4220   30.4900   37.0080 H   0  0  0  0  0  0  0  0  0  0  0  0
   38.6080   28.8950   37.8310 S   0  0  0  0  0  0  0  0  0  0  0  0
   38.9240   30.3610   37.7070 O   0  0  0  0  0  0  0  0  0  0  0  0
   39.2900   28.2340   36.6390 O   0  0  0  0  0  0  0  0  0  0  0  0
   39.1310   28.4250   39.0180 H   0  0  0  0  0  0  0  0  0  0  0  0
  1  7  1  0  0  0  0
  1  2  1  0  0  0  0
  2  8  1  0  0  0  0
  3  2  2  0  0  0  0
  3  9  1  0  0  0  0
  4  3  1  0  0  0  0
  5  6  1  0  0  0  0
  5  4  2  0  0  0  0
  6  1  2  0  0  0  0
  9 12  1  0  0  0  0
  9 10  1  0  0  0  0
 11  9  1  0  0  0  0
 12 13  1  0  0  0  0
 14 12  1  0  0  0  0
 16 15  1  0  0  0  0
 16 12  1  0  0  0  0
 17 16  2  0  0  0  0
 18 17  1  0  0  0  0
 19 20  2  0  0  0  0
 19 17  1  0  0  0  0
 20 21  1  0  0  0  0
 21 15  2  0  0  0  0
 22 20  1  0  0  0  0
 23 25  1  0  0  0  0
 23 22  1  0  0  0  0
 24 23  1  0  0  0  0
 25 19  1  0  0  0  0
 26  5  1  0  0  0  0
 27 37  1  0  0  0  0
 27 28  1  0  0  0  0
 28 26  1  0  0  0  0
 29 28  2  0  0  0  0
 29 33  1  0  0  0  0
 30 29  1  0  0  0  0
 31 32  1  0  0  0  0
 31 30  2  0  0  0  0
 32 27  2  0  0  0  0
 34 30  1  0  0  0  0
 35 31  1  0  0  0  0
 36 32  1  0  0  0  0
 37 40  1  0  0  0  0
 38 37  2  0  0  0  0
 39 37  2  0  0  0  0
M  END
>  <minimizedAffinity>
-5.63988113

$$$$

 OpenBabel03242517543D

 40 43  0  0  0  0  0  0  0  0999 V2000
   33.7040   26.5680   36.8140 C   0  0  0  0  0  0  0  0  0  0  0  0
   34.8960   27.0270   37.4170 C   0  0  0  0  0  0  0  0  0  0  0  0
   35.1980   28.3750   37.3970 C   0  0  0  0  0  0  0  0  0  0  0  0
   34.2960   29.1510   36.7830 N   0  0  0  0  0  0  0  0  0  0  0  0
   33.1800   28.7350   36.2170 C   0  0  0  0  0  0  0  0  0  0  0  0
   32.8870   27.4340   36.2350 N   0  0  0  0  0  0  0  0  0  0  0  0
   33.5410   25.5040   36.8710 H   0  0  0  0  0  0  0  0  0  0  0  0
   35.5780   26.3400   37.8940 H   0  0  0  0  0  0  0  0  0  0  0  0
   36.4110   28.9490   37.9950 C   0  0  0  0  0  0  0  0  0  0  0  0
   36.2430   29.1390   39.0730 H   0  0  0  0  0  0  0  0  0  0  0  0
   37.2330   28.2390   37.9080 H   0  0  0  0  0  0  0  0  0  0  0  0
   36.8600   30.2040   37.2690 C   0  0  0  0  0  0  0  0  0  0  0  0
   36.0030   30.6910   36.7700 H   0  0  0  0  0  0  0  0  0  0  0  0
   37.5380   29.8560   36.4580 H   0  0  0  0  0  0  0  0  0  0  0  0
   36.8910   31.5620   39.2700 C   0  0  0  0  0  3  0  0  0  0  0  0
   37.5860   31.1350   38.1460 C   0  0  0  0  0  0  0  0  0  0  0  0
   38.8650   31.6230   37.9740 C   0  0  0  0  0  0  0  0  0  0  0  0
   39.3820   31.2750   37.0920 H   0  0  0  0  0  0  0  0  0  0  0  0
   39.4430   32.4970   38.8680 C   0  0  0  0  0  0  0  0  0  0  0  0
   38.7100   32.8980   39.9800 C   0  0  0  0  0  0  0  0  0  0  0  0
   37.4150   32.4360   40.2010 C   0  0  0  0  0  3  0  0  0  0  0  0
   39.5450   33.7740   40.6980 O   0  0  0  0  0  0  0  0  0  0  0  0
   40.6460   34.1540   39.8940 C   0  0  0  0  0  3  0  0  0  0  0  0
   41.5930   34.2420   40.4620 H   0  0  0  0  0  0  0  0  0  0  0  0
   40.6800   33.1230   38.9300 O   0  0  0  0  0  0  0  0  0  0  0  0
   32.2780   29.5770   35.5930 O   0  0  0  0  0  0  0  0  0  0  0  0
   30.7350   31.5160   35.7770 C   0  0  0  0  0  0  0  0  0  0  0  0
   31.3610   30.3930   36.2350 C   0  0  0  0  0  0  0  0  0  0  0  0
   31.0610   29.9770   37.5270 C   0  0  0  0  0  0  0  0  0  0  0  0
   30.1580   30.6770   38.3230 C   0  0  0  0  0  0  0  0  0  0  0  0
   29.5480   31.8020   37.8270 C   0  0  0  0  0  0  0  0  0  0  0  0
   29.8450   32.2200   36.5380 C   0  0  0  0  0  0  0  0  0  0  0  0
   31.4970   29.1020   37.9910 H   0  0  0  0  0  0  0  0  0  0  0  0
   29.9370   30.3280   39.3430 H   0  0  0  0  0  0  0  0  0  0  0  0
   28.8380   32.3850   38.4030 H   0  0  0  0  0  0  0  0  0  0  0  0
   29.4170   33.0910   36.0630 H   0  0  0  0  0  0  0  0  0  0  0  0
   31.1690   31.9670   34.1480 S   0  0  0  0  0  0  0  0  0  0  0  0
   32.1170   33.1360   34.1270 O   0  0  0  0  0  0  0  0  0  0  0  0
   29.9020   32.4650   33.4630 O   0  0  0  0  0  0  0  0  0  0  0  0
   31.7310   30.9230   33.4420 H   0  0  0  0  0  0  0  0  0  0  0  0
  1  7  1  0  0  0  0
  1  2  1  0  0  0  0
  2  8  1  0  0  0  0
  3  2  2  0  0  0  0
  3  9  1  0  0  0  0
  4  3  1  0  0  0  0
  5  6  1  0  0  0  0
  5  4  2  0  0  0  0
  6  1  2  0  0  0  0
  9 10  1  0  0  0  0
 11  9  1  0  0  0  0
 12  9  1  0  0  0  0
 12 16  1  0  0  0  0
 13 12  1  0  0  0  0
 14 12  1  0  0  0  0
 15 21  1  0  0  0  0
 16 15  2  0  0  0  0
 17 16  1  0  0  0  0
 17 19  2  0  0  0  0
 18 17  1  0  0  0  0
 19 25  1  0  0  0  0
 19 20  1  0  0  0  0
 20 21  2  0  0  0  0
 20 22  1  0  0  0  0
 23 24  1  0  0  0  0
 23 22  1  0  0  0  0
 25 23  1  0  0  0  0
 26  5  1  0  0  0  0
 26 28  1  0  0  0  0
 27 28  2  0  0  0  0
 27 32  1  0  0  0  0
 28 29  1  0  0  0  0
 29 33  1  0  0  0  0
 29 30  2  0  0  0  0
 30 34  1  0  0  0  0
 31 30  1  0  0  0  0
 31 35  1  0  0  0  0
 32 31  2  0  0  0  0
 36 32  1  0  0  0  0
 37 27  1  0  0  0  0
 38 37  2  0  0  0  0
 39 37  2  0  0  0  0
 40 37  1  0  0  0  0
M  END
>  <minimizedAffinity>
-5.63257647

$$$$

 OpenBabel03242517543D

 40 43  0  0  0  0  0  0  0  0999 V2000
   36.3550   23.9750   38.1200 C   0  0  0  0  0  0  0  0  0  0  0  0
   36.3680   25.1650   37.3580 C   0  0  0  0  0  0  0  0  0  0  0  0
   36.5180   26.3820   37.9940 C   0  0  0  0  0  0  0  0  0  0  0  0
   36.6410   26.3170   39.3260 N   0  0  0  0  0  0  0  0  0  0  0  0
   36.6300   25.2140   40.0480 C   0  0  0  0  0  0  0  0  0  0  0  0
   36.4850   24.0370   39.4350 N   0  0  0  0  0  0  0  0  0  0  0  0
   36.2330   23.0680   37.5510 H   0  0  0  0  0  0  0  0  0  0  0  0
   36.2630   25.1390   36.2850 H   0  0  0  0  0  0  0  0  0  0  0  0
   36.5440   27.6730   37.2920 C   0  0  0  0  0  0  0  0  0  0  0  0
   37.5930   27.9750   37.1030 H   0  0  0  0  0  0  0  0  0  0  0  0
   36.0490   27.5740   36.3260 H   0  0  0  0  0  0  0  0  0  0  0  0
   35.7810   28.7440   38.0480 C   0  0  0  0  0  0  0  0  0  0  0  0
   35.2840   28.3130   38.9360 H   0  0  0  0  0  0  0  0  0  0  0  0
   34.9680   29.0740   37.3630 H   0  0  0  0  0  0  0  0  0  0  0  0
   37.5720   30.2550   37.4470 C   0  0  0  0  0  3  0  0  0  0  0  0
   36.6230   29.8980   38.3970 C   0  0  0  0  0  0  0  0  0  0  0  0
   36.5730   30.6530   39.5500 C   0  0  0  0  0  0  0  0  0  0  0  0
   35.8270   30.3540   40.2710 H   0  0  0  0  0  0  0  0  0  0  0  0
   37.4190   31.7180   39.7680 C   0  0  0  0  0  0  0  0  0  0  0  0
   38.3540   32.0390   38.7890 C   0  0  0  0  0  0  0  0  0  0  0  0
   38.4470   31.3100   37.6060 C   0  0  0  0  0  3  0  0  0  0  0  0
   39.0630   33.1510   39.2820 O   0  0  0  0  0  0  0  0  0  0  0  0
   38.7910   33.3200   40.6610 C   0  0  0  0  0  3  0  0  0  0  0  0
   38.7140   34.3820   40.9640 H   0  0  0  0  0  0  0  0  0  0  0  0
   37.5750   32.6180   40.8120 O   0  0  0  0  0  0  0  0  0  0  0  0
   36.7600   25.1980   41.4230 O   0  0  0  0  0  0  0  0  0  0  0  0
   38.3360   26.5210   42.8160 C   0  0  0  0  0  0  0  0  0  0  0  0
   37.9350   25.4150   42.1250 C   0  0  0  0  0  0  0  0  0  0  0  0
   38.8030   24.3300   42.0960 C   0  0  0  0  0  0  0  0  0  0  0  0
   40.0330   24.3680   42.7470 C   0  0  0  0  0  0  0  0  0  0  0  0
   40.4020   25.4980   43.4330 C   0  0  0  0  0  0  0  0  0  0  0  0
   39.5390   26.5830   43.4640 C   0  0  0  0  0  0  0  0  0  0  0  0
   38.5870   23.4030   41.5800 H   0  0  0  0  0  0  0  0  0  0  0  0
   40.7030   23.4960   42.7100 H   0  0  0  0  0  0  0  0  0  0  0  0
   41.3480   25.5810   43.9580 H   0  0  0  0  0  0  0  0  0  0  0  0
   39.7420   27.5120   43.9760 H   0  0  0  0  0  0  0  0  0  0  0  0
   37.1890   27.8350   42.8000 S   0  0  0  0  0  0  0  0  0  0  0  0
   37.7500   29.0730   43.4460 O   0  0  0  0  0  0  0  0  0  0  0  0
   36.0140   27.4200   43.6780 O   0  0  0  0  0  0  0  0  0  0  0  0
   36.7630   28.1490   41.5260 H   0  0  0  0  0  0  0  0  0  0  0  0
  1  6  1  0  0  0  0
  2  3  1  0  0  0  0
  2  1  2  0  0  0  0
  3  4  2  0  0  0  0
  4  5  1  0  0  0  0
  5 26  1  0  0  0  0
  6  5  2  0  0  0  0
  7  1  1  0  0  0  0
  8  2  1  0  0  0  0
  9  3  1  0  0  0  0
  9 12  1  0  0  0  0
 10  9  1  0  0  0  0
 11  9  1  0  0  0  0
 12 16  1  0  0  0  0
 12 13  1  0  0  0  0
 14 12  1  0  0  0  0
 15 21  2  0  0  0  0
 15 16  1  0  0  0  0
 16 17  2  0  0  0  0
 17 19  1  0  0  0  0
 17 18  1  0  0  0  0
 19 25  1  0  0  0  0
 20 22  1  0  0  0  0
 20 19  2  0  0  0  0
 21 20  1  0  0  0  0
 22 23  1  0  0  0  0
 23 25  1  0  0  0  0
 23 24  1  0  0  0  0
 26 28  1  0  0  0  0
 27 32  1  0  0  0  0
 28 27  2  0  0  0  0
 29 28  1  0  0  0  0
 29 30  2  0  0  0  0
 30 31  1  0  0  0  0
 31 32  2  0  0  0  0
 31 35  1  0  0  0  0
 32 36  1  0  0  0  0
 33 29  1  0  0  0  0
 34 30  1  0  0  0  0
 37 27  1  0  0  0  0
 37 38  2  0  0  0  0
 37 39  2  0  0  0  0
 40 37  1  0  0  0  0
M  END
>  <minimizedAffinity>
-5.53825426

$$$$
