
 OpenBabel03252503193D

 41 45  0  0  0  0  0  0  0  0999 V2000
   46.2510   33.5610   41.0450 C   0  0  0  0  0  0  0  0  0  0  0  0
   44.9490   33.2270   40.8170 C   0  0  0  0  0  0  0  0  0  0  0  0
   44.9670   32.3050   39.8280 N   0  0  0  0  0  0  0  0  0  0  0  0
   46.2330   32.0860   39.4690 C   0  0  0  0  0  0  0  0  0  0  0  0
   47.0250   32.8590   40.2180 N   0  0  0  0  0  0  0  0  0  0  0  0
   46.7770   31.2190   38.4880 N   0  0  0  0  0  0  0  0  0  0  0  0
   44.0730   33.6150   41.3180 H   0  0  0  0  0  0  0  0  0  0  0  0
   46.9750   30.1810   38.4890 H   0  0  0  0  0  0  0  0  0  0  0  0
   47.0960   31.4770   37.5330 H   0  0  0  0  0  0  0  0  0  0  0  0
   43.8410   31.6250   39.2120 C   0  0  0  0  0  0  0  0  0  0  0  0
   44.1690   31.0720   38.3110 H   0  0  0  0  0  0  0  0  0  0  0  0
   43.3360   30.9370   39.9030 H   0  0  0  0  0  0  0  0  0  0  0  0
   41.5500   32.2360   38.6500 C   0  0  0  0  0  3  0  0  0  0  0  0
   42.8700   32.6470   38.7350 C   0  0  0  0  0  0  0  0  0  0  0  0
   43.1370   33.9500   38.3690 C   0  0  0  0  0  0  0  0  0  0  0  0
   44.1750   34.2400   38.4460 H   0  0  0  0  0  0  0  0  0  0  0  0
   42.1040   34.7620   37.9480 C   0  0  0  0  0  0  0  0  0  0  0  0
   40.7970   34.3360   37.8700 C   0  0  0  0  0  0  0  0  0  0  0  0
   40.5170   33.0400   38.2300 C   0  0  0  0  0  3  0  0  0  0  0  0
   40.0370   35.4240   37.4050 O   0  0  0  0  0  0  0  0  0  0  0  0
   40.8040   36.6010   37.4950 C   0  0  0  0  0  3  0  0  0  0  0  0
   40.6420   37.2860   36.6420 H   0  0  0  0  0  0  0  0  0  0  0  0
   42.1230   36.0890   37.5340 O   0  0  0  0  0  0  0  0  0  0  0  0
   46.7730   34.5450   42.0460 C   0  0  0  0  0  0  0  0  0  0  0  0
   47.8510   35.2010   41.9250 O   0  0  0  0  0  0  0  0  0  0  0  0
   45.3960   36.0320   43.4200 C   0  0  0  0  0  0  0  0  0  0  0  0
   46.0440   34.7950   43.2350 C   0  0  0  0  0  0  0  0  0  0  0  0
   45.8870   33.9100   44.2910 C   0  0  0  0  0  0  0  0  0  0  0  0
   45.1900   34.1920   45.3890 N   0  0  0  0  0  0  0  0  0  0  0  0
   44.5850   35.4080   45.5100 C   0  0  0  0  0  0  0  0  0  0  0  0
   44.6930   36.3080   44.5320 N   0  0  0  0  0  0  0  0  0  0  0  0
   45.4430   36.8080   42.6650 H   0  0  0  0  0  0  0  0  0  0  0  0
   44.0320   35.5720   46.4320 H   0  0  0  0  0  0  0  0  0  0  0  0
   46.5160   32.6320   44.1860 C   0  0  0  0  0  0  0  0  0  0  0  0
   47.7890   32.1670   44.2200 C   0  0  0  0  0  0  0  0  0  0  0  0
   48.0910   30.8970   44.0920 C   0  0  0  0  0  0  0  0  0  0  0  0
   47.0570   30.0630   43.9240 C   0  0  0  0  0  0  0  0  0  0  0  0
   45.5840   31.1260   43.9470 S   0  0  0  0  0  0  0  0  0  0  0  0
   48.5400   32.9710   44.3650 H   0  0  0  0  0  0  0  0  0  0  0  0
   49.0850   30.4680   44.1120 H   0  0  0  0  0  0  0  0  0  0  0  0
   47.0480   28.9130   43.7900 H   0  0  0  0  0  0  0  0  0  0  0  0
  1 24  1  0  0  0  0
  2  1  2  0  0  0  0
  2  7  1  0  0  0  0
  3  2  1  0  0  0  0
  4  3  1  0  0  0  0
  4  5  2  0  0  0  0
  5  1  1  0  0  0  0
  6  8  1  0  0  0  0
  6  4  1  0  0  0  0
  9  6  1  0  0  0  0
 10  3  1  0  0  0  0
 10 12  1  0  0  0  0
 11 10  1  0  0  0  0
 13 14  1  0  0  0  0
 14 10  1  0  0  0  0
 15 16  1  0  0  0  0
 15 14  2  0  0  0  0
 17 15  1  0  0  0  0
 18 17  2  0  0  0  0
 18 19  1  0  0  0  0
 19 13  2  0  0  0  0
 20 21  1  0  0  0  0
 20 18  1  0  0  0  0
 21 23  1  0  0  0  0
 22 21  1  0  0  0  0
 23 17  1  0  0  0  0
 24 27  1  0  0  0  0
 25 24  2  0  0  0  0
 26 31  1  0  0  0  0
 27 26  2  0  0  0  0
 27 28  1  0  0  0  0
 28 29  2  0  0  0  0
 29 30  1  0  0  0  0
 30 33  1  0  0  0  0
 31 30  2  0  0  0  0
 32 26  1  0  0  0  0
 34 35  2  0  0  0  0
 34 28  1  0  0  0  0
 35 39  1  0  0  0  0
 36 40  1  0  0  0  0
 36 35  1  0  0  0  0
 37 38  1  0  0  0  0
 37 36  2  0  0  0  0
 38 34  1  0  0  0  0
 41 37  1  0  0  0  0
M  END
>  <minimizedAffinity>
-4.88260508

>  <minimizedRMSD>
1.80244887

$$$$
