
 OpenBabel03252503193D

 41 45  0  0  0  0  0  0  0  0999 V2000
   46.4600   34.1310   40.7710 C   0  0  0  0  0  0  0  0  0  0  0  0
   45.2490   33.5530   40.5360 C   0  0  0  0  0  0  0  0  0  0  0  0
   45.2340   33.2330   39.2230 N   0  0  0  0  0  0  0  0  0  0  0  0
   46.3950   33.6040   38.6790 C   0  0  0  0  0  0  0  0  0  0  0  0
   47.1510   34.1570   39.6320 N   0  0  0  0  0  0  0  0  0  0  0  0
   46.8680   33.4890   37.3480 N   0  0  0  0  0  0  0  0  0  0  0  0
   44.4530   33.3800   41.2490 H   0  0  0  0  0  0  0  0  0  0  0  0
   47.2850   32.6820   36.8090 H   0  0  0  0  0  0  0  0  0  0  0  0
   46.8860   34.2350   36.6250 H   0  0  0  0  0  0  0  0  0  0  0  0
   44.1730   32.5950   38.4640 C   0  0  0  0  0  0  0  0  0  0  0  0
   44.3070   32.7800   37.3810 H   0  0  0  0  0  0  0  0  0  0  0  0
   44.1150   31.5140   38.6490 H   0  0  0  0  0  0  0  0  0  0  0  0
   42.7300   34.5590   38.4700 C   0  0  0  0  0  3  0  0  0  0  0  0
   42.8780   33.2290   38.8310 C   0  0  0  0  0  0  0  0  0  0  0  0
   41.8140   32.6430   39.4840 C   0  0  0  0  0  0  0  0  0  0  0  0
   41.9590   31.6060   39.7510 H   0  0  0  0  0  0  0  0  0  0  0  0
   40.6820   33.3890   39.7420 C   0  0  0  0  0  0  0  0  0  0  0  0
   40.5530   34.7100   39.3770 C   0  0  0  0  0  0  0  0  0  0  0  0
   41.6050   35.3060   38.7250 C   0  0  0  0  0  3  0  0  0  0  0  0
   39.2780   35.1310   39.8010 O   0  0  0  0  0  0  0  0  0  0  0  0
   38.5050   34.0070   40.1400 C   0  0  0  0  0  3  0  0  0  0  0  0
   37.8630   34.1770   41.0250 H   0  0  0  0  0  0  0  0  0  0  0  0
   39.4990   33.0260   40.3760 O   0  0  0  0  0  0  0  0  0  0  0  0
   46.9740   34.6630   42.0740 C   0  0  0  0  0  0  0  0  0  0  0  0
   47.5510   35.7810   42.2230 O   0  0  0  0  0  0  0  0  0  0  0  0
   45.7930   34.1820   44.1630 C   0  0  0  0  0  0  0  0  0  0  0  0
   46.8300   33.8940   43.2550 C   0  0  0  0  0  0  0  0  0  0  0  0
   47.6390   32.8330   43.6350 C   0  0  0  0  0  0  0  0  0  0  0  0
   47.4610   32.1400   44.7580 N   0  0  0  0  0  0  0  0  0  0  0  0
   46.4380   32.4660   45.5980 C   0  0  0  0  0  0  0  0  0  0  0  0
   45.6210   33.4760   45.2950 N   0  0  0  0  0  0  0  0  0  0  0  0
   45.0930   34.9880   43.9780 H   0  0  0  0  0  0  0  0  0  0  0  0
   46.3510   31.8600   46.4960 H   0  0  0  0  0  0  0  0  0  0  0  0
   48.7180   32.4760   42.7710 C   0  0  0  0  0  0  0  0  0  0  0  0
   49.9790   32.9240   42.5520 C   0  0  0  0  0  0  0  0  0  0  0  0
   50.7830   32.3920   41.6630 C   0  0  0  0  0  0  0  0  0  0  0  0
   50.2870   31.3620   40.9670 C   0  0  0  0  0  0  0  0  0  0  0  0
   48.5990   31.1330   41.5990 S   0  0  0  0  0  0  0  0  0  0  0  0
   50.2530   33.7810   43.2020 H   0  0  0  0  0  0  0  0  0  0  0  0
   51.7970   32.7040   41.4460 H   0  0  0  0  0  0  0  0  0  0  0  0
   50.7810   30.7230   40.1370 H   0  0  0  0  0  0  0  0  0  0  0  0
  1 24  1  0  0  0  0
  2  1  2  0  0  0  0
  2  7  1  0  0  0  0
  3  2  1  0  0  0  0
  4  3  1  0  0  0  0
  4  5  2  0  0  0  0
  5  1  1  0  0  0  0
  6  4  1  0  0  0  0
  8  6  1  0  0  0  0
  9  6  1  0  0  0  0
 10 12  1  0  0  0  0
 10 14  1  0  0  0  0
 10  3  1  0  0  0  0
 11 10  1  0  0  0  0
 13 19  2  0  0  0  0
 13 14  1  0  0  0  0
 14 15  2  0  0  0  0
 15 17  1  0  0  0  0
 15 16  1  0  0  0  0
 17 23  1  0  0  0  0
 18 17  2  0  0  0  0
 18 20  1  0  0  0  0
 19 18  1  0  0  0  0
 20 21  1  0  0  0  0
 21 23  1  0  0  0  0
 21 22  1  0  0  0  0
 24 25  2  0  0  0  0
 24 27  1  0  0  0  0
 26 31  1  0  0  0  0
 27 28  1  0  0  0  0
 27 26  2  0  0  0  0
 28 29  2  0  0  0  0
 29 30  1  0  0  0  0
 30 33  1  0  0  0  0
 31 30  2  0  0  0  0
 32 26  1  0  0  0  0
 34 28  1  0  0  0  0
 35 34  2  0  0  0  0
 35 39  1  0  0  0  0
 36 35  1  0  0  0  0
 37 38  1  0  0  0  0
 37 36  2  0  0  0  0
 38 34  1  0  0  0  0
 40 36  1  0  0  0  0
 41 37  1  0  0  0  0
M  END
>  <minimizedAffinity>
-5.52187347

>  <minimizedRMSD>
3.09459424

$$$$
