
 OpenBabel03242517533D

 40 43  0  0  0  0  0  0  0  0999 V2000
   45.2560   34.2510   43.7970 C   0  0  0  0  0  0  0  0  0  0  0  0
   46.2580   34.8670   43.0160 C   0  0  0  0  0  0  0  0  0  0  0  0
   47.5580   34.4020   43.0820 C   0  0  0  0  0  0  0  0  0  0  0  0
   47.7520   33.3710   43.9130 N   0  0  0  0  0  0  0  0  0  0  0  0
   46.8250   32.7880   44.6470 C   0  0  0  0  0  0  0  0  0  0  0  0
   45.5690   33.2350   44.5850 N   0  0  0  0  0  0  0  0  0  0  0  0
   44.2680   34.6720   43.6910 H   0  0  0  0  0  0  0  0  0  0  0  0
   46.0260   35.6970   42.3670 H   0  0  0  0  0  0  0  0  0  0  0  0
   48.6700   34.9750   42.3100 C   0  0  0  0  0  0  0  0  0  0  0  0
   48.9560   35.9560   42.7380 H   0  0  0  0  0  0  0  0  0  0  0  0
   49.5370   34.3190   42.3760 H   0  0  0  0  0  0  0  0  0  0  0  0
   48.3360   35.0850   40.8340 C   0  0  0  0  0  0  0  0  0  0  0  0
   49.0770   35.7210   40.3160 H   0  0  0  0  0  0  0  0  0  0  0  0
   47.3670   35.6280   40.7840 H   0  0  0  0  0  0  0  0  0  0  0  0
   47.0360   33.5970   39.4380 C   0  0  0  0  0  3  0  0  0  0  0  0
   48.1940   33.7710   40.1870 C   0  0  0  0  0  0  0  0  0  0  0  0
   49.0720   32.7100   40.2440 C   0  0  0  0  0  0  0  0  0  0  0  0
   49.9620   32.8720   40.8330 H   0  0  0  0  0  0  0  0  0  0  0  0
   48.8300   31.5210   39.5930 C   0  0  0  0  0  0  0  0  0  0  0  0
   47.6570   31.3900   38.8540 C   0  0  0  0  0  0  0  0  0  0  0  0
   46.7370   32.4310   38.7640 C   0  0  0  0  0  3  0  0  0  0  0  0
   47.6840   30.0910   38.3130 O   0  0  0  0  0  0  0  0  0  0  0  0
   48.6890   29.3260   38.9520 C   0  0  0  0  0  3  0  0  0  0  0  0
   49.2230   28.6420   38.2640 H   0  0  0  0  0  0  0  0  0  0  0  0
   49.5290   30.3270   39.4880 O   0  0  0  0  0  0  0  0  0  0  0  0
   47.0760   31.7240   45.4930 O   0  0  0  0  0  0  0  0  0  0  0  0
   45.5990   30.3960   46.9860 C   0  0  0  0  0  0  0  0  0  0  0  0
   46.4000   31.4550   46.6720 C   0  0  0  0  0  0  0  0  0  0  0  0
   46.5890   32.4240   47.6490 C   0  0  0  0  0  0  0  0  0  0  0  0
   45.9860   32.3200   48.9000 C   0  0  0  0  0  0  0  0  0  0  0  0
   45.1870   31.2390   49.1790 C   0  0  0  0  0  0  0  0  0  0  0  0
   44.9960   30.2700   48.2060 C   0  0  0  0  0  0  0  0  0  0  0  0
   47.2030   33.3050   47.5100 H   0  0  0  0  0  0  0  0  0  0  0  0
   46.1510   33.1010   49.6580 H   0  0  0  0  0  0  0  0  0  0  0  0
   44.6930   31.1080   50.1370 H   0  0  0  0  0  0  0  0  0  0  0  0
   44.3870   29.3870   48.3330 H   0  0  0  0  0  0  0  0  0  0  0  0
   45.4160   29.2270   45.7020 S   0  0  0  0  0  0  0  0  0  0  0  0
   44.6850   29.8070   44.5210 O   0  0  0  0  0  0  0  0  0  0  0  0
   44.5150   28.1160   46.2270 O   0  0  0  0  0  0  0  0  0  0  0  0
   46.6250   28.7190   45.2740 H   0  0  0  0  0  0  0  0  0  0  0  0
  1  6  1  0  0  0  0
  2  3  1  0  0  0  0
  2  1  2  0  0  0  0
  3  4  2  0  0  0  0
  4  5  1  0  0  0  0
  5 26  1  0  0  0  0
  6  5  2  0  0  0  0
  7  1  1  0  0  0  0
  8  2  1  0  0  0  0
  9 11  1  0  0  0  0
  9 10  1  0  0  0  0
  9  3  1  0  0  0  0
 12  9  1  0  0  0  0
 13 12  1  0  0  0  0
 14 12  1  0  0  0  0
 15 16  1  0  0  0  0
 16 17  2  0  0  0  0
 16 12  1  0  0  0  0
 17 18  1  0  0  0  0
 19 17  1  0  0  0  0
 20 19  2  0  0  0  0
 21 20  1  0  0  0  0
 21 15  2  0  0  0  0
 22 20  1  0  0  0  0
 22 23  1  0  0  0  0
 23 25  1  0  0  0  0
 24 23  1  0  0  0  0
 25 19  1  0  0  0  0
 26 28  1  0  0  0  0
 27 32  1  0  0  0  0
 28 27  2  0  0  0  0
 28 29  1  0  0  0  0
 29 30  2  0  0  0  0
 30 31  1  0  0  0  0
 30 34  1  0  0  0  0
 31 35  1  0  0  0  0
 32 36  1  0  0  0  0
 32 31  2  0  0  0  0
 33 29  1  0  0  0  0
 37 39  2  0  0  0  0
 37 27  1  0  0  0  0
 38 37  2  0  0  0  0
 40 37  1  0  0  0  0
M  END
>  <minimizedAffinity>
-5.42624903

>  <minimizedRMSD>
0.412780523

$$$$
