
 OpenBabel03252503193D

 41 45  0  0  0  0  0  0  0  0999 V2000
   44.8820   34.7830   42.3300 C   0  0  0  0  0  0  0  0  0  0  0  0
   43.6830   35.2160   42.8110 C   0  0  0  0  0  0  0  0  0  0  0  0
   42.8950   35.4150   41.7300 N   0  0  0  0  0  0  0  0  0  0  0  0
   43.5900   35.1140   40.6320 C   0  0  0  0  0  0  0  0  0  0  0  0
   44.8140   34.7240   41.0010 N   0  0  0  0  0  0  0  0  0  0  0  0
   43.2190   35.1540   39.2650 N   0  0  0  0  0  0  0  0  0  0  0  0
   43.4060   35.3730   43.8450 H   0  0  0  0  0  0  0  0  0  0  0  0
   42.6620   34.4900   38.6600 H   0  0  0  0  0  0  0  0  0  0  0  0
   43.4480   35.8980   38.5770 H   0  0  0  0  0  0  0  0  0  0  0  0
   41.5190   35.8760   41.6930 C   0  0  0  0  0  0  0  0  0  0  0  0
   41.0590   35.8060   42.6970 H   0  0  0  0  0  0  0  0  0  0  0  0
   41.4300   36.9050   41.3180 H   0  0  0  0  0  0  0  0  0  0  0  0
   40.5560   33.6740   41.2910 C   0  0  0  0  0  3  0  0  0  0  0  0
   40.7340   34.9630   40.8180 C   0  0  0  0  0  0  0  0  0  0  0  0
   40.1680   35.2570   39.5940 C   0  0  0  0  0  0  0  0  0  0  0  0
   40.3250   36.2710   39.2520 H   0  0  0  0  0  0  0  0  0  0  0  0
   39.4680   34.2790   38.9180 C   0  0  0  0  0  0  0  0  0  0  0  0
   39.3010   33.0020   39.4040 C   0  0  0  0  0  0  0  0  0  0  0  0
   39.8600   32.6950   40.6210 C   0  0  0  0  0  3  0  0  0  0  0  0
   38.5440   32.2950   38.4520 O   0  0  0  0  0  0  0  0  0  0  0  0
   37.9790   33.2030   37.5390 C   0  0  0  0  0  3  0  0  0  0  0  0
   37.9710   32.8200   36.5010 H   0  0  0  0  0  0  0  0  0  0  0  0
   38.8190   34.3330   37.6910 O   0  0  0  0  0  0  0  0  0  0  0  0
   46.1010   34.4220   43.1230 C   0  0  0  0  0  0  0  0  0  0  0  0
   47.2640   34.8780   42.9130 O   0  0  0  0  0  0  0  0  0  0  0  0
   45.7440   33.9680   45.5020 C   0  0  0  0  0  0  0  0  0  0  0  0
   45.9950   33.5030   44.1960 C   0  0  0  0  0  0  0  0  0  0  0  0
   46.1170   32.1240   44.0990 C   0  0  0  0  0  0  0  0  0  0  0  0
   46.0090   31.3020   45.1400 N   0  0  0  0  0  0  0  0  0  0  0  0
   45.7650   31.8120   46.3810 C   0  0  0  0  0  0  0  0  0  0  0  0
   45.6370   33.1300   46.5480 N   0  0  0  0  0  0  0  0  0  0  0  0
   45.6290   35.0260   45.7080 H   0  0  0  0  0  0  0  0  0  0  0  0
   45.6890   31.0850   47.1850 H   0  0  0  0  0  0  0  0  0  0  0  0
   46.3750   31.5690   42.8090 C   0  0  0  0  0  0  0  0  0  0  0  0
   47.4770   31.3140   42.0620 C   0  0  0  0  0  0  0  0  0  0  0  0
   47.4230   30.7790   40.8650 C   0  0  0  0  0  0  0  0  0  0  0  0
   46.1980   30.4920   40.4080 C   0  0  0  0  0  0  0  0  0  0  0  0
   45.0650   31.0020   41.7340 S   0  0  0  0  0  0  0  0  0  0  0  0
   48.4210   31.6030   42.5690 H   0  0  0  0  0  0  0  0  0  0  0  0
   48.2650   30.5520   40.2250 H   0  0  0  0  0  0  0  0  0  0  0  0
   45.8760   30.0220   39.3990 H   0  0  0  0  0  0  0  0  0  0  0  0
  1  2  2  0  0  0  0
  1 24  1  0  0  0  0
  2  7  1  0  0  0  0
  3  2  1  0  0  0  0
  4  5  2  0  0  0  0
  4  3  1  0  0  0  0
  5  1  1  0  0  0  0
  6  4  1  0  0  0  0
  8  6  1  0  0  0  0
  9  6  1  0  0  0  0
 10  3  1  0  0  0  0
 10 11  1  0  0  0  0
 12 10  1  0  0  0  0
 14 13  1  0  0  0  0
 14 10  1  0  0  0  0
 15 14  2  0  0  0  0
 16 15  1  0  0  0  0
 17 18  2  0  0  0  0
 17 15  1  0  0  0  0
 18 19  1  0  0  0  0
 19 13  2  0  0  0  0
 20 18  1  0  0  0  0
 21 23  1  0  0  0  0
 21 20  1  0  0  0  0
 22 21  1  0  0  0  0
 23 17  1  0  0  0  0
 24 27  1  0  0  0  0
 25 24  2  0  0  0  0
 26 32  1  0  0  0  0
 26 31  1  0  0  0  0
 27 26  2  0  0  0  0
 28 27  1  0  0  0  0
 28 29  2  0  0  0  0
 29 30  1  0  0  0  0
 30 31  2  0  0  0  0
 30 33  1  0  0  0  0
 34 28  1  0  0  0  0
 35 39  1  0  0  0  0
 35 34  2  0  0  0  0
 36 35  1  0  0  0  0
 37 36  2  0  0  0  0
 37 38  1  0  0  0  0
 38 34  1  0  0  0  0
 40 36  1  0  0  0  0
 41 37  1  0  0  0  0
M  END
>  <minimizedAffinity>
-5.75604725

>  <minimizedRMSD>
3.61659455

$$$$
