
 OpenBabel03242516213D

 31 34  0  0  0  0  0  0  0  0999 V2000
   46.0060   32.7890   47.0540 C   0  0  0  0  0  0  0  0  0  0  0  0
   47.2560   32.4590   47.5300 C   0  0  0  0  0  0  0  0  0  0  0  0
   47.4180   31.6820   48.6560 C   0  0  0  0  0  0  0  0  0  0  0  0
   46.3140   31.2100   49.3440 C   0  0  0  0  0  0  0  0  0  0  0  0
   45.0570   31.5250   48.8880 C   0  0  0  0  0  0  0  0  0  0  0  0
   44.9140   32.3100   47.7500 C   0  0  0  0  0  0  0  0  0  0  0  0
   48.1130   32.8380   46.9790 H   0  0  0  0  0  0  0  0  0  0  0  0
   46.4730   30.6130   50.2110 H   0  0  0  0  0  0  0  0  0  0  0  0
   44.1940   31.1490   49.4360 H   0  0  0  0  0  0  0  0  0  0  0  0
   43.9050   32.5330   47.4290 H   0  0  0  0  0  0  0  0  0  0  0  0
   44.7110   35.3830   44.8200 C   0  0  0  0  0  0  0  0  0  0  0  0
   45.4790   35.2200   43.6540 C   0  0  0  0  0  0  0  0  0  0  0  0
   46.4540   34.2060   43.6330 C   0  0  0  0  0  0  0  0  0  0  0  0
   46.6100   33.4300   44.7430 N   0  0  0  0  0  0  0  0  0  0  0  0
   45.8500   33.6170   45.8520 C   0  0  0  0  0  0  0  0  0  0  0  0
   44.9090   34.5880   45.8840 N   0  0  0  0  0  0  0  0  0  0  0  0
   43.9490   36.1490   44.8850 H   0  0  0  0  0  0  0  0  0  0  0  0
   45.2990   35.8690   42.8210 H   0  0  0  0  0  0  0  0  0  0  0  0
   47.0570   34.0630   42.7460 H   0  0  0  0  0  0  0  0  0  0  0  0
   49.0530   31.2980   49.2160 S   0  0  0  0  0  0  0  0  0  0  0  0
   51.0750   29.6230   48.1710 C   0  0  0  0  0  3  0  0  0  0  0  0
   49.7530   29.8630   48.4580 C   0  0  0  0  0  0  0  0  0  0  0  0
   48.8150   28.8900   48.1300 C   0  0  0  0  0  0  0  0  0  0  0  0
   47.7540   28.9660   48.3050 H   0  0  0  0  0  0  0  0  0  0  0  0
   49.2090   27.7010   47.5260 C   0  0  0  0  0  0  0  0  0  0  0  0
   50.5530   27.4910   47.2510 C   0  0  0  0  0  0  0  0  0  0  0  0
   51.4920   28.4510   47.5720 C   0  0  0  0  0  3  0  0  0  0  0  0
   50.6510   26.2250   46.6500 O   0  0  0  0  0  0  0  0  0  0  0  0
   49.3660   25.9210   46.0980 C   0  0  0  0  0  3  0  0  0  0  0  0
   49.1840   26.4720   45.1440 H   0  0  0  0  0  0  0  0  0  0  0  0
   48.5350   26.5550   47.0830 O   0  0  0  0  0  0  0  0  0  0  0  0
  1  2  2  0  0  0  0
  1  6  1  0  0  0  0
  2  3  1  0  0  0  0
  3 20  1  0  0  0  0
  3  4  2  0  0  0  0
  4  8  1  0  0  0  0
  5  4  1  0  0  0  0
  5  9  1  0  0  0  0
  6  5  2  0  0  0  0
  7  2  1  0  0  0  0
 10  6  1  0  0  0  0
 11 17  1  0  0  0  0
 11 16  1  0  0  0  0
 12 11  2  0  0  0  0
 13 12  1  0  0  0  0
 13 14  2  0  0  0  0
 14 15  1  0  0  0  0
 15 16  2  0  0  0  0
 15  1  1  0  0  0  0
 18 12  1  0  0  0  0
 19 13  1  0  0  0  0
 21 22  1  0  0  0  0
 22 20  1  0  0  0  0
 23 24  1  0  0  0  0
 23 22  2  0  0  0  0
 25 23  1  0  0  0  0
 26 25  2  0  0  0  0
 26 27  1  0  0  0  0
 27 21  2  0  0  0  0
 28 26  1  0  0  0  0
 29 28  1  0  0  0  0
 29 31  1  0  0  0  0
 30 29  1  0  0  0  0
 31 25  1  0  0  0  0
M  END
>  <minimizedAffinity>
-5.20618153

>  <minimizedRMSD>
0.146501407

$$$$
