
 OpenBabel03242516223D

 31 34  0  0  0  0  0  0  0  0999 V2000
   46.0130   32.7540   47.0580 C   0  0  0  0  0  0  0  0  0  0  0  0
   47.2650   32.4570   47.5510 C   0  0  0  0  0  0  0  0  0  0  0  0
   47.4330   31.6700   48.6690 C   0  0  0  0  0  0  0  0  0  0  0  0
   46.3330   31.1520   49.3300 C   0  0  0  0  0  0  0  0  0  0  0  0
   45.0740   31.4330   48.8570 C   0  0  0  0  0  0  0  0  0  0  0  0
   44.9250   32.2290   47.7280 C   0  0  0  0  0  0  0  0  0  0  0  0
   48.1180   32.8710   47.0210 H   0  0  0  0  0  0  0  0  0  0  0  0
   46.4970   30.5470   50.1920 H   0  0  0  0  0  0  0  0  0  0  0  0
   44.2150   31.0210   49.3850 H   0  0  0  0  0  0  0  0  0  0  0  0
   43.9160   32.4250   47.3930 H   0  0  0  0  0  0  0  0  0  0  0  0
   44.7060   35.3700   44.8580 C   0  0  0  0  0  0  0  0  0  0  0  0
   45.4680   35.2190   43.6860 C   0  0  0  0  0  0  0  0  0  0  0  0
   46.4430   34.2060   43.6500 C   0  0  0  0  0  0  0  0  0  0  0  0
   46.6050   33.4190   44.7510 N   0  0  0  0  0  0  0  0  0  0  0  0
   45.8500   33.5940   45.8660 C   0  0  0  0  0  0  0  0  0  0  0  0
   44.9090   34.5640   45.9120 N   0  0  0  0  0  0  0  0  0  0  0  0
   43.9430   36.1350   44.9340 H   0  0  0  0  0  0  0  0  0  0  0  0
   45.2840   35.8760   42.8610 H   0  0  0  0  0  0  0  0  0  0  0  0
   47.0420   34.0720   42.7590 H   0  0  0  0  0  0  0  0  0  0  0  0
   49.0700   31.3300   49.2520 S   0  0  0  0  0  0  0  0  0  0  0  0
   49.1320   28.7310   48.1440 C   0  0  0  0  0  3  0  0  0  0  0  0
   49.7830   29.8630   48.5720 C   0  0  0  0  0  0  0  0  0  0  0  0
   51.1710   29.9060   48.4810 C   0  0  0  0  0  0  0  0  0  0  0  0
   51.7870   30.7360   48.7840 H   0  0  0  0  0  0  0  0  0  0  0  0
   51.8810   28.8270   47.9670 C   0  0  0  0  0  0  0  0  0  0  0  0
   51.1910   27.6980   47.5420 C   0  0  0  0  0  0  0  0  0  0  0  0
   49.8140   27.6450   47.6300 C   0  0  0  0  0  3  0  0  0  0  0  0
   52.1540   26.7860   47.0800 O   0  0  0  0  0  0  0  0  0  0  0  0
   53.3950   27.1350   47.6980 C   0  0  0  0  0  3  0  0  0  0  0  0
   53.4380   26.7950   48.7620 H   0  0  0  0  0  0  0  0  0  0  0  0
   53.2390   28.5610   47.7460 O   0  0  0  0  0  0  0  0  0  0  0  0
  1  2  2  0  0  0  0
  1  6  1  0  0  0  0
  2  3  1  0  0  0  0
  3 20  1  0  0  0  0
  3  4  2  0  0  0  0
  4  8  1  0  0  0  0
  5  4  1  0  0  0  0
  5  9  1  0  0  0  0
  6  5  2  0  0  0  0
  7  2  1  0  0  0  0
 10  6  1  0  0  0  0
 11 17  1  0  0  0  0
 11 16  1  0  0  0  0
 12 11  2  0  0  0  0
 13 12  1  0  0  0  0
 13 14  2  0  0  0  0
 14 15  1  0  0  0  0
 15 16  2  0  0  0  0
 15  1  1  0  0  0  0
 18 12  1  0  0  0  0
 19 13  1  0  0  0  0
 21 22  1  0  0  0  0
 22 20  1  0  0  0  0
 23 22  2  0  0  0  0
 23 24  1  0  0  0  0
 25 23  1  0  0  0  0
 26 27  1  0  0  0  0
 26 25  2  0  0  0  0
 27 21  2  0  0  0  0
 28 26  1  0  0  0  0
 28 29  1  0  0  0  0
 29 31  1  0  0  0  0
 29 30  1  0  0  0  0
 31 25  1  0  0  0  0
M  END
>  <minimizedAffinity>
-5.21482134

>  <minimizedRMSD>
0.178718179

$$$$
