
 OpenBabel03242516213D

 31 34  0  0  0  0  0  0  0  0999 V2000
   46.0770   32.7600   47.0620 C   0  0  0  0  0  0  0  0  0  0  0  0
   47.3400   32.5050   47.5500 C   0  0  0  0  0  0  0  0  0  0  0  0
   47.5380   31.7290   48.6700 C   0  0  0  0  0  0  0  0  0  0  0  0
   46.4580   31.1800   49.3400 C   0  0  0  0  0  0  0  0  0  0  0  0
   45.1890   31.4190   48.8720 C   0  0  0  0  0  0  0  0  0  0  0  0
   45.0090   32.2050   47.7400 C   0  0  0  0  0  0  0  0  0  0  0  0
   48.1760   32.9440   47.0130 H   0  0  0  0  0  0  0  0  0  0  0  0
   46.6460   30.5850   50.2030 H   0  0  0  0  0  0  0  0  0  0  0  0
   44.3460   30.9830   49.4060 H   0  0  0  0  0  0  0  0  0  0  0  0
   43.9930   32.3660   47.4100 H   0  0  0  0  0  0  0  0  0  0  0  0
   44.6950   35.3410   44.8660 C   0  0  0  0  0  0  0  0  0  0  0  0
   45.4390   35.1920   43.6820 C   0  0  0  0  0  0  0  0  0  0  0  0
   46.4270   34.1920   43.6360 C   0  0  0  0  0  0  0  0  0  0  0  0
   46.6190   33.4160   44.7400 N   0  0  0  0  0  0  0  0  0  0  0  0
   45.8810   33.5880   45.8660 C   0  0  0  0  0  0  0  0  0  0  0  0
   44.9280   34.5460   45.9230 N   0  0  0  0  0  0  0  0  0  0  0  0
   43.9240   36.0960   44.9500 H   0  0  0  0  0  0  0  0  0  0  0  0
   45.2310   35.8410   42.8560 H   0  0  0  0  0  0  0  0  0  0  0  0
   47.0120   34.0600   42.7360 H   0  0  0  0  0  0  0  0  0  0  0  0
   49.1880   31.4430   49.2460 S   0  0  0  0  0  0  0  0  0  0  0  0
   50.3150   29.1380   50.4290 C   0  0  0  0  0  3  0  0  0  0  0  0
   49.6040   29.7340   49.4160 C   0  0  0  0  0  0  0  0  0  0  0  0
   49.1340   28.9370   48.3770 C   0  0  0  0  0  0  0  0  0  0  0  0
   48.5670   29.2920   47.5310 H   0  0  0  0  0  0  0  0  0  0  0  0
   49.3790   27.5690   48.3650 C   0  0  0  0  0  0  0  0  0  0  0  0
   50.1010   27.0000   49.4060 C   0  0  0  0  0  0  0  0  0  0  0  0
   50.5720   27.7810   50.4420 C   0  0  0  0  0  3  0  0  0  0  0  0
   50.1920   25.6250   49.1310 O   0  0  0  0  0  0  0  0  0  0  0  0
   50.0010   25.4650   47.7220 C   0  0  0  0  0  3  0  0  0  0  0  0
   50.9160   25.7430   47.1460 H   0  0  0  0  0  0  0  0  0  0  0  0
   49.0550   26.5210   47.4940 O   0  0  0  0  0  0  0  0  0  0  0  0
  1  2  2  0  0  0  0
  1  6  1  0  0  0  0
  2  3  1  0  0  0  0
  3 20  1  0  0  0  0
  3  4  2  0  0  0  0
  4  8  1  0  0  0  0
  5  4  1  0  0  0  0
  5  9  1  0  0  0  0
  6  5  2  0  0  0  0
  7  2  1  0  0  0  0
 10  6  1  0  0  0  0
 11 17  1  0  0  0  0
 11 16  1  0  0  0  0
 12 11  2  0  0  0  0
 13 12  1  0  0  0  0
 13 14  2  0  0  0  0
 14 15  1  0  0  0  0
 15 16  2  0  0  0  0
 15  1  1  0  0  0  0
 18 12  1  0  0  0  0
 19 13  1  0  0  0  0
 20 22  1  0  0  0  0
 21 27  1  0  0  0  0
 22 21  2  0  0  0  0
 23 22  1  0  0  0  0
 24 23  1  0  0  0  0
 25 23  2  0  0  0  0
 25 26  1  0  0  0  0
 26 27  2  0  0  0  0
 28 26  1  0  0  0  0
 29 28  1  0  0  0  0
 30 29  1  0  0  0  0
 31 29  1  0  0  0  0
 31 25  1  0  0  0  0
M  END
>  <minimizedAffinity>
-5.59644604

>  <minimizedRMSD>
1.62845433

$$$$
