
 OpenBabel03242516213D

 31 34  0  0  0  0  0  0  0  0999 V2000
   45.9770   32.7750   47.1000 C   0  0  0  0  0  0  0  0  0  0  0  0
   47.2530   32.5290   47.5580 C   0  0  0  0  0  0  0  0  0  0  0  0
   47.4850   31.7270   48.6530 C   0  0  0  0  0  0  0  0  0  0  0  0
   46.4270   31.1410   49.3270 C   0  0  0  0  0  0  0  0  0  0  0  0
   45.1450   31.3710   48.8890 C   0  0  0  0  0  0  0  0  0  0  0  0
   44.9310   32.1840   47.7830 C   0  0  0  0  0  0  0  0  0  0  0  0
   48.0710   32.9970   47.0180 H   0  0  0  0  0  0  0  0  0  0  0  0
   46.6410   30.5260   50.1700 H   0  0  0  0  0  0  0  0  0  0  0  0
   44.3210   30.9060   49.4260 H   0  0  0  0  0  0  0  0  0  0  0  0
   43.9060   32.3370   47.4750 H   0  0  0  0  0  0  0  0  0  0  0  0
   44.5740   35.4490   45.0320 C   0  0  0  0  0  0  0  0  0  0  0  0
   45.2400   35.2920   43.8030 C   0  0  0  0  0  0  0  0  0  0  0  0
   46.1810   34.2540   43.6820 C   0  0  0  0  0  0  0  0  0  0  0  0
   46.4060   33.4510   44.7600 N   0  0  0  0  0  0  0  0  0  0  0  0
   45.7450   33.6330   45.9320 C   0  0  0  0  0  0  0  0  0  0  0  0
   44.8370   34.6270   46.0600 N   0  0  0  0  0  0  0  0  0  0  0  0
   43.8410   36.2330   45.1740 H   0  0  0  0  0  0  0  0  0  0  0  0
   45.0100   35.9630   43.0010 H   0  0  0  0  0  0  0  0  0  0  0  0
   46.7060   34.1150   42.7460 H   0  0  0  0  0  0  0  0  0  0  0  0
   49.1500   31.4540   49.1900 S   0  0  0  0  0  0  0  0  0  0  0  0
   50.2880   29.1650   50.3940 C   0  0  0  0  0  3  0  0  0  0  0  0
   49.5750   29.7490   49.3750 C   0  0  0  0  0  0  0  0  0  0  0  0
   49.1110   28.9410   48.3420 C   0  0  0  0  0  0  0  0  0  0  0  0
   48.5430   29.2850   47.4930 H   0  0  0  0  0  0  0  0  0  0  0  0
   49.3640   27.5740   48.3420 C   0  0  0  0  0  0  0  0  0  0  0  0
   50.0880   27.0180   49.3890 C   0  0  0  0  0  0  0  0  0  0  0  0
   50.5520   27.8100   50.4180 C   0  0  0  0  0  3  0  0  0  0  0  0
   50.1860   25.6410   49.1260 O   0  0  0  0  0  0  0  0  0  0  0  0
   49.9970   25.4680   47.7180 C   0  0  0  0  0  3  0  0  0  0  0  0
   50.9130   25.7460   47.1400 H   0  0  0  0  0  0  0  0  0  0  0  0
   49.0470   26.5160   47.4790 O   0  0  0  0  0  0  0  0  0  0  0  0
  1  2  2  0  0  0  0
  1  6  1  0  0  0  0
  2  3  1  0  0  0  0
  3 20  1  0  0  0  0
  3  4  2  0  0  0  0
  4  8  1  0  0  0  0
  5  4  1  0  0  0  0
  5  9  1  0  0  0  0
  6  5  2  0  0  0  0
  7  2  1  0  0  0  0
 10  6  1  0  0  0  0
 11 17  1  0  0  0  0
 11 16  1  0  0  0  0
 12 11  2  0  0  0  0
 13 12  1  0  0  0  0
 13 14  2  0  0  0  0
 14 15  1  0  0  0  0
 15 16  2  0  0  0  0
 15  1  1  0  0  0  0
 18 12  1  0  0  0  0
 19 13  1  0  0  0  0
 20 22  1  0  0  0  0
 21 27  1  0  0  0  0
 22 21  2  0  0  0  0
 23 25  2  0  0  0  0
 23 22  1  0  0  0  0
 24 23  1  0  0  0  0
 25 26  1  0  0  0  0
 26 27  2  0  0  0  0
 28 26  1  0  0  0  0
 29 28  1  0  0  0  0
 30 29  1  0  0  0  0
 31 29  1  0  0  0  0
 31 25  1  0  0  0  0
M  END
>  <minimizedAffinity>
-5.59421444

>  <minimizedRMSD>
1.44187784

$$$$
