
 OpenBabel03242516223D

 31 34  0  0  0  0  0  0  0  0999 V2000
   46.0190   32.7510   47.0590 C   0  0  0  0  0  0  0  0  0  0  0  0
   47.2710   32.4570   47.5530 C   0  0  0  0  0  0  0  0  0  0  0  0
   47.4400   31.6700   48.6710 C   0  0  0  0  0  0  0  0  0  0  0  0
   46.3400   31.1510   49.3330 C   0  0  0  0  0  0  0  0  0  0  0  0
   45.0810   31.4300   48.8590 C   0  0  0  0  0  0  0  0  0  0  0  0
   44.9320   32.2250   47.7290 C   0  0  0  0  0  0  0  0  0  0  0  0
   48.1230   32.8720   47.0230 H   0  0  0  0  0  0  0  0  0  0  0  0
   46.5040   30.5470   50.1940 H   0  0  0  0  0  0  0  0  0  0  0  0
   44.2230   31.0170   49.3860 H   0  0  0  0  0  0  0  0  0  0  0  0
   43.9220   32.4190   47.3930 H   0  0  0  0  0  0  0  0  0  0  0  0
   44.7080   35.3630   44.8560 C   0  0  0  0  0  0  0  0  0  0  0  0
   45.4720   35.2140   43.6850 C   0  0  0  0  0  0  0  0  0  0  0  0
   46.4490   34.2030   43.6500 C   0  0  0  0  0  0  0  0  0  0  0  0
   46.6110   33.4160   44.7520 N   0  0  0  0  0  0  0  0  0  0  0  0
   45.8550   33.5900   45.8660 C   0  0  0  0  0  0  0  0  0  0  0  0
   44.9120   34.5590   45.9120 N   0  0  0  0  0  0  0  0  0  0  0  0
   43.9440   36.1270   44.9320 H   0  0  0  0  0  0  0  0  0  0  0  0
   45.2870   35.8700   42.8600 H   0  0  0  0  0  0  0  0  0  0  0  0
   47.0480   34.0690   42.7600 H   0  0  0  0  0  0  0  0  0  0  0  0
   49.0770   31.3330   49.2550 S   0  0  0  0  0  0  0  0  0  0  0  0
   49.0810   28.7350   48.1440 C   0  0  0  0  0  3  0  0  0  0  0  0
   49.7570   29.8190   48.6500 C   0  0  0  0  0  0  0  0  0  0  0  0
   51.1450   29.7640   48.7150 C   0  0  0  0  0  0  0  0  0  0  0  0
   51.7800   30.5500   49.0910 H   0  0  0  0  0  0  0  0  0  0  0  0
   51.8320   28.6370   48.2760 C   0  0  0  0  0  0  0  0  0  0  0  0
   51.1150   27.5590   47.7700 C   0  0  0  0  0  0  0  0  0  0  0  0
   49.7380   27.6040   47.7020 C   0  0  0  0  0  3  0  0  0  0  0  0
   52.0580   26.5810   47.4120 O   0  0  0  0  0  0  0  0  0  0  0  0
   53.2440   26.8420   48.1680 C   0  0  0  0  0  3  0  0  0  0  0  0
   53.1430   26.5010   49.2270 H   0  0  0  0  0  0  0  0  0  0  0  0
   53.1840   28.2760   48.2080 O   0  0  0  0  0  0  0  0  0  0  0  0
  1  2  2  0  0  0  0
  1  6  1  0  0  0  0
  2  3  1  0  0  0  0
  3 20  1  0  0  0  0
  3  4  2  0  0  0  0
  4  8  1  0  0  0  0
  5  4  1  0  0  0  0
  5  9  1  0  0  0  0
  6  5  2  0  0  0  0
  7  2  1  0  0  0  0
 10  6  1  0  0  0  0
 11 17  1  0  0  0  0
 11 16  1  0  0  0  0
 12 11  2  0  0  0  0
 13 12  1  0  0  0  0
 13 14  2  0  0  0  0
 14 15  1  0  0  0  0
 15 16  2  0  0  0  0
 15  1  1  0  0  0  0
 18 12  1  0  0  0  0
 19 13  1  0  0  0  0
 21 22  1  0  0  0  0
 22 23  2  0  0  0  0
 22 20  1  0  0  0  0
 23 24  1  0  0  0  0
 25 23  1  0  0  0  0
 26 25  2  0  0  0  0
 27 26  1  0  0  0  0
 27 21  2  0  0  0  0
 28 26  1  0  0  0  0
 28 29  1  0  0  0  0
 29 31  1  0  0  0  0
 29 30  1  0  0  0  0
 31 25  1  0  0  0  0
M  END
>  <minimizedAffinity>
-5.22118568

>  <minimizedRMSD>
0.199024111

$$$$
