
 OpenBabel03242516223D

 31 34  0  0  0  0  0  0  0  0999 V2000
   46.0130   32.7540   47.0570 C   0  0  0  0  0  0  0  0  0  0  0  0
   47.2650   32.4570   47.5510 C   0  0  0  0  0  0  0  0  0  0  0  0
   47.4330   31.6700   48.6690 C   0  0  0  0  0  0  0  0  0  0  0  0
   46.3330   31.1520   49.3300 C   0  0  0  0  0  0  0  0  0  0  0  0
   45.0740   31.4330   48.8570 C   0  0  0  0  0  0  0  0  0  0  0  0
   44.9250   32.2300   47.7280 C   0  0  0  0  0  0  0  0  0  0  0  0
   48.1180   32.8720   47.0200 H   0  0  0  0  0  0  0  0  0  0  0  0
   46.4960   30.5480   50.1910 H   0  0  0  0  0  0  0  0  0  0  0  0
   44.2150   31.0220   49.3850 H   0  0  0  0  0  0  0  0  0  0  0  0
   43.9160   32.4250   47.3930 H   0  0  0  0  0  0  0  0  0  0  0  0
   44.7060   35.3700   44.8570 C   0  0  0  0  0  0  0  0  0  0  0  0
   45.4680   35.2190   43.6850 C   0  0  0  0  0  0  0  0  0  0  0  0
   46.4430   34.2060   43.6490 C   0  0  0  0  0  0  0  0  0  0  0  0
   46.6050   33.4190   44.7500 N   0  0  0  0  0  0  0  0  0  0  0  0
   45.8500   33.5940   45.8650 C   0  0  0  0  0  0  0  0  0  0  0  0
   44.9090   34.5650   45.9120 N   0  0  0  0  0  0  0  0  0  0  0  0
   43.9440   36.1350   44.9330 H   0  0  0  0  0  0  0  0  0  0  0  0
   45.2840   35.8770   42.8610 H   0  0  0  0  0  0  0  0  0  0  0  0
   47.0420   34.0720   42.7580 H   0  0  0  0  0  0  0  0  0  0  0  0
   49.0690   31.3300   49.2510 S   0  0  0  0  0  0  0  0  0  0  0  0
   49.1320   28.7310   48.1450 C   0  0  0  0  0  3  0  0  0  0  0  0
   49.7830   29.8630   48.5720 C   0  0  0  0  0  0  0  0  0  0  0  0
   51.1700   29.9060   48.4810 C   0  0  0  0  0  0  0  0  0  0  0  0
   51.7860   30.7360   48.7830 H   0  0  0  0  0  0  0  0  0  0  0  0
   51.8810   28.8270   47.9650 C   0  0  0  0  0  0  0  0  0  0  0  0
   51.1900   27.6980   47.5430 C   0  0  0  0  0  0  0  0  0  0  0  0
   49.8140   27.6460   47.6300 C   0  0  0  0  0  3  0  0  0  0  0  0
   52.1520   26.7860   47.0790 O   0  0  0  0  0  0  0  0  0  0  0  0
   53.3940   27.1350   47.6970 C   0  0  0  0  0  3  0  0  0  0  0  0
   53.4380   26.7940   48.7610 H   0  0  0  0  0  0  0  0  0  0  0  0
   53.2390   28.5600   47.7450 O   0  0  0  0  0  0  0  0  0  0  0  0
  1  2  2  0  0  0  0
  1  6  1  0  0  0  0
  2  3  1  0  0  0  0
  3 20  1  0  0  0  0
  3  4  2  0  0  0  0
  4  8  1  0  0  0  0
  5  4  1  0  0  0  0
  5  9  1  0  0  0  0
  6  5  2  0  0  0  0
  7  2  1  0  0  0  0
 10  6  1  0  0  0  0
 11 17  1  0  0  0  0
 11 16  1  0  0  0  0
 12 11  2  0  0  0  0
 13 12  1  0  0  0  0
 13 14  2  0  0  0  0
 14 15  1  0  0  0  0
 15 16  2  0  0  0  0
 15  1  1  0  0  0  0
 18 12  1  0  0  0  0
 19 13  1  0  0  0  0
 21 22  1  0  0  0  0
 22 20  1  0  0  0  0
 23 22  2  0  0  0  0
 23 24  1  0  0  0  0
 25 23  1  0  0  0  0
 26 27  1  0  0  0  0
 26 25  2  0  0  0  0
 27 21  2  0  0  0  0
 28 26  1  0  0  0  0
 28 29  1  0  0  0  0
 29 31  1  0  0  0  0
 29 30  1  0  0  0  0
 31 25  1  0  0  0  0
M  END
>  <minimizedAffinity>
-5.21478033

>  <minimizedRMSD>
0.770474732

$$$$
