
 OpenBabel03242516223D

 31 34  0  0  0  0  0  0  0  0999 V2000
   46.0140   32.7790   47.0550 C   0  0  0  0  0  0  0  0  0  0  0  0
   47.2650   32.4590   47.5370 C   0  0  0  0  0  0  0  0  0  0  0  0
   47.4280   31.6820   48.6620 C   0  0  0  0  0  0  0  0  0  0  0  0
   46.3250   31.1980   49.3430 C   0  0  0  0  0  0  0  0  0  0  0  0
   45.0670   31.5020   48.8830 C   0  0  0  0  0  0  0  0  0  0  0  0
   44.9230   32.2880   47.7460 C   0  0  0  0  0  0  0  0  0  0  0  0
   48.1200   32.8480   46.9910 H   0  0  0  0  0  0  0  0  0  0  0  0
   46.4860   30.6000   50.2100 H   0  0  0  0  0  0  0  0  0  0  0  0
   44.2060   31.1170   49.4260 H   0  0  0  0  0  0  0  0  0  0  0  0
   43.9140   32.5030   47.4210 H   0  0  0  0  0  0  0  0  0  0  0  0
   44.7140   35.3740   44.8260 C   0  0  0  0  0  0  0  0  0  0  0  0
   45.4810   35.2130   43.6590 C   0  0  0  0  0  0  0  0  0  0  0  0
   46.4570   34.2010   43.6360 C   0  0  0  0  0  0  0  0  0  0  0  0
   46.6150   33.4240   44.7450 N   0  0  0  0  0  0  0  0  0  0  0  0
   45.8550   33.6080   45.8550 C   0  0  0  0  0  0  0  0  0  0  0  0
   44.9130   34.5780   45.8890 N   0  0  0  0  0  0  0  0  0  0  0  0
   43.9500   36.1390   44.8920 H   0  0  0  0  0  0  0  0  0  0  0  0
   45.2990   35.8630   42.8270 H   0  0  0  0  0  0  0  0  0  0  0  0
   47.0600   34.0600   42.7490 H   0  0  0  0  0  0  0  0  0  0  0  0
   49.0640   31.3110   49.2290 S   0  0  0  0  0  0  0  0  0  0  0  0
   51.0950   29.6660   48.1540 C   0  0  0  0  0  3  0  0  0  0  0  0
   49.7770   29.8790   48.4780 C   0  0  0  0  0  0  0  0  0  0  0  0
   48.8550   28.8750   48.2010 C   0  0  0  0  0  0  0  0  0  0  0  0
   47.7990   28.9280   48.4100 H   0  0  0  0  0  0  0  0  0  0  0  0
   49.2600   27.6840   47.6100 C   0  0  0  0  0  0  0  0  0  0  0  0
   50.6000   27.5020   47.2960 C   0  0  0  0  0  0  0  0  0  0  0  0
   51.5230   28.4930   47.5660 C   0  0  0  0  0  3  0  0  0  0  0  0
   50.7110   26.2270   46.7190 O   0  0  0  0  0  0  0  0  0  0  0  0
   49.4190   25.8780   46.2150 C   0  0  0  0  0  3  0  0  0  0  0  0
   49.1920   26.4030   45.2560 H   0  0  0  0  0  0  0  0  0  0  0  0
   48.6030   26.5120   47.2130 O   0  0  0  0  0  0  0  0  0  0  0  0
  1  2  2  0  0  0  0
  1  6  1  0  0  0  0
  2  3  1  0  0  0  0
  3 20  1  0  0  0  0
  3  4  2  0  0  0  0
  4  8  1  0  0  0  0
  5  4  1  0  0  0  0
  5  9  1  0  0  0  0
  6  5  2  0  0  0  0
  7  2  1  0  0  0  0
 10  6  1  0  0  0  0
 11 17  1  0  0  0  0
 11 16  1  0  0  0  0
 12 11  2  0  0  0  0
 13 12  1  0  0  0  0
 13 14  2  0  0  0  0
 14 15  1  0  0  0  0
 15 16  2  0  0  0  0
 15  1  1  0  0  0  0
 18 12  1  0  0  0  0
 19 13  1  0  0  0  0
 21 22  1  0  0  0  0
 22 20  1  0  0  0  0
 23 24  1  0  0  0  0
 23 22  2  0  0  0  0
 25 23  1  0  0  0  0
 26 27  1  0  0  0  0
 26 25  2  0  0  0  0
 27 21  2  0  0  0  0
 28 26  1  0  0  0  0
 29 28  1  0  0  0  0
 29 31  1  0  0  0  0
 30 29  1  0  0  0  0
 31 25  1  0  0  0  0
M  END
>  <minimizedAffinity>
-5.20074987

>  <minimizedRMSD>
0.275469989

$$$$
