
 OpenBabel03242517553D

 45 48  0  0  0  0  0  0  0  0999 V2000
   45.4810   30.1480   47.3070 C   0  0  0  0  0  0  0  0  0  0  0  0
   46.1530   31.1980   46.7790 C   0  0  0  0  0  0  0  0  0  0  0  0
   46.3830   32.2980   47.5820 C   0  0  0  0  0  0  0  0  0  0  0  0
   45.9620   32.3730   48.8880 C   0  0  0  0  0  0  0  0  0  0  0  0
   45.2800   31.2990   49.4140 C   0  0  0  0  0  0  0  0  0  0  0  0
   45.0440   30.1890   48.6160 C   0  0  0  0  0  0  0  0  0  0  0  0
   46.9120   33.1760   47.2360 H   0  0  0  0  0  0  0  0  0  0  0  0
   46.1380   33.2280   49.5190 H   0  0  0  0  0  0  0  0  0  0  0  0
   44.9050   31.2580   50.4350 H   0  0  0  0  0  0  0  0  0  0  0  0
   44.5130   29.3140   48.9760 H   0  0  0  0  0  0  0  0  0  0  0  0
   45.1260   28.8370   46.2130 S   0  0  0  0  0  0  0  0  0  0  0  0
   44.4330   29.2470   44.9770 O   0  0  0  0  0  0  0  0  0  0  0  0
   44.1000   27.9540   46.9640 O   0  0  0  0  0  0  0  0  0  0  0  0
   47.3650   27.8650   44.9560 C   0  0  0  0  0  0  0  0  0  0  0  0
   46.4650   27.7310   46.0180 C   0  0  0  0  0  0  0  0  0  0  0  0
   46.7570   26.6740   46.8470 C   0  0  0  0  0  0  0  0  0  0  0  0
   46.0790   26.5220   47.7010 H   0  0  0  0  0  0  0  0  0  0  0  0
   47.8320   25.8320   46.6420 C   0  0  0  0  0  0  0  0  0  0  0  0
   48.6820   26.0240   45.5710 C   0  0  0  0  0  0  0  0  0  0  0  0
   48.4570   27.0640   44.6940 C   0  0  0  0  0  0  0  0  0  0  0  0
   49.6610   25.0410   45.6150 O   0  0  0  0  0  0  0  0  0  0  0  0
   49.2910   24.0510   46.5460 C   0  0  0  0  0  0  0  0  0  0  0  0
   50.1100   23.6370   47.1360 H   0  0  0  0  0  0  0  0  0  0  0  0
   48.3090   24.7220   47.3380 O   0  0  0  0  0  0  0  0  0  0  0  0
   46.6640   31.3170   45.4880 O   0  0  0  0  0  0  0  0  0  0  0  0
   45.3610   34.1850   43.8890 C   0  0  0  0  0  0  0  0  0  0  0  0
   46.4870   34.6880   43.2090 C   0  0  0  0  0  0  0  0  0  0  0  0
   47.6840   34.0300   43.3080 C   0  0  0  0  0  0  0  0  0  0  0  0
   47.6870   32.9280   44.0720 N   0  0  0  0  0  0  0  0  0  0  0  0
   46.6350   32.4530   44.7110 C   0  0  0  0  0  0  0  0  0  0  0  0
   45.4680   33.0840   44.6200 N   0  0  0  0  0  0  0  0  0  0  0  0
   44.4200   34.7060   43.8070 H   0  0  0  0  0  0  0  0  0  0  0  0
   46.3250   35.5830   42.6330 H   0  0  0  0  0  0  0  0  0  0  0  0
   48.9130   34.4510   42.6220 C   0  0  0  0  0  0  0  0  0  0  0  0
   49.6990   34.6610   43.3640 H   0  0  0  0  0  0  0  0  0  0  0  0
   49.2840   33.6060   41.9840 H   0  0  0  0  0  0  0  0  0  0  0  0
   48.6930   35.6230   41.7090 C   0  0  0  0  0  0  0  0  0  0  0  0
   47.9340   36.3350   42.0240 H   0  0  0  0  0  0  0  0  0  0  0  0
   49.6640   36.2140   41.7810 H   0  0  0  0  0  0  0  0  0  0  0  0
   48.5760   35.2600   40.3000 C   0  0  0  0  0  0  0  0  0  0  0  0
   48.0490   34.3360   39.5070 C   0  0  0  0  0  0  0  0  0  0  0  0
   48.2450   34.2310   38.0040 C   0  0  0  0  0  0  0  0  0  0  0  0
   49.0450   34.9670   37.7010 H   0  0  0  0  0  0  0  0  0  0  0  0
   48.5440   33.2040   37.8200 H   0  0  0  0  0  0  0  0  0  0  0  0
   47.3140   34.5660   37.5070 H   0  0  0  0  0  0  0  0  0  0  0  0
  1  6  1  0  0  0  0
  2  1  2  0  0  0  0
  2  3  1  0  0  0  0
  3  4  2  0  0  0  0
  4  5  1  0  0  0  0
  4  8  1  0  0  0  0
  5  9  1  0  0  0  0
  6 10  1  0  0  0  0
  6  5  2  0  0  0  0
  7  3  1  0  0  0  0
 11 13  2  0  0  0  0
 11  1  1  0  0  0  0
 12 11  2  0  0  0  0
 14 15  1  0  0  0  0
 15 11  1  0  0  0  0
 15 16  2  0  0  0  0
 16 17  1  0  0  0  0
 18 16  1  0  0  0  0
 18 24  1  0  0  0  0
 19 21  1  0  0  0  0
 19 18  2  0  0  0  0
 20 14  2  0  0  0  0
 20 19  1  0  0  0  0
 21 22  1  0  0  0  0
 22 23  1  0  0  0  0
 22 24  1  0  0  0  0
 25  2  1  0  0  0  0
 26 31  1  0  0  0  0
 27 28  1  0  0  0  0
 27 26  2  0  0  0  0
 28 29  2  0  0  0  0
 29 30  1  0  0  0  0
 30 25  1  0  0  0  0
 31 30  2  0  0  0  0
 32 26  1  0  0  0  0
 33 27  1  0  0  0  0
 34 28  1  0  0  0  0
 34 35  1  0  0  0  0
 36 34  1  0  0  0  0
 37 39  1  0  0  0  0
 37 38  1  0  0  0  0
 37 34  1  0  0  0  0
 40 37  1  0  0  0  0
 41 40  2  0  0  0  0
 42 41  1  0  0  0  0
 43 42  1  0  0  0  0
 44 42  1  0  0  0  0
 45 42  1  0  0  0  0
M  END
>  <minimizedAffinity>
-5.62362766

>  <minimizedRMSD>
2.25412226

$$$$
