
 OpenBabel03242517543D

 45 48  0  0  0  0  0  0  0  0999 V2000
   45.4580   30.1650   47.2730 C   0  0  0  0  0  0  0  0  0  0  0  0
   46.0720   31.2260   46.6990 C   0  0  0  0  0  0  0  0  0  0  0  0
   46.2850   32.3540   47.4680 C   0  0  0  0  0  0  0  0  0  0  0  0
   45.9030   32.4450   48.7850 C   0  0  0  0  0  0  0  0  0  0  0  0
   45.2800   31.3590   49.3580 C   0  0  0  0  0  0  0  0  0  0  0  0
   45.0610   30.2220   48.5940 C   0  0  0  0  0  0  0  0  0  0  0  0
   46.7680   33.2430   47.0840 H   0  0  0  0  0  0  0  0  0  0  0  0
   46.0660   33.3210   49.3900 H   0  0  0  0  0  0  0  0  0  0  0  0
   44.9390   31.3300   50.3910 H   0  0  0  0  0  0  0  0  0  0  0  0
   44.5760   29.3370   48.9920 H   0  0  0  0  0  0  0  0  0  0  0  0
   45.1190   28.8150   46.2220 S   0  0  0  0  0  0  0  0  0  0  0  0
   44.2650   29.1450   45.0650 O   0  0  0  0  0  0  0  0  0  0  0  0
   44.2670   27.8460   47.0760 O   0  0  0  0  0  0  0  0  0  0  0  0
   47.5100   27.6270   46.8630 C   0  0  0  0  0  3  0  0  0  0  0  0
   46.5320   27.8420   45.8880 C   0  0  0  0  0  0  0  0  0  0  0  0
   46.8110   27.2210   44.6940 C   0  0  0  0  0  0  0  0  0  0  0  0
   46.0730   27.3570   43.8880 H   0  0  0  0  0  0  0  0  0  0  0  0
   47.9460   26.4620   44.4880 C   0  0  0  0  0  0  0  0  0  0  0  0
   48.8710   26.2920   45.4970 C   0  0  0  0  0  0  0  0  0  0  0  0
   48.6630   26.8830   46.7260 C   0  0  0  0  0  3  0  0  0  0  0  0
   49.8980   25.4920   45.0130 O   0  0  0  0  0  0  0  0  0  0  0  0
   49.7810   25.3760   43.6140 C   0  0  0  0  0  3  0  0  0  0  0  0
   50.0280   24.3940   43.2080 H   0  0  0  0  0  0  0  0  0  0  0  0
   48.4240   25.7570   43.3840 O   0  0  0  0  0  0  0  0  0  0  0  0
   46.5360   31.3330   45.3900 O   0  0  0  0  0  0  0  0  0  0  0  0
   45.3150   34.2300   43.7780 C   0  0  0  0  0  0  0  0  0  0  0  0
   46.4700   34.7360   43.1520 C   0  0  0  0  0  0  0  0  0  0  0  0
   47.6590   34.0710   43.2920 C   0  0  0  0  0  0  0  0  0  0  0  0
   47.6250   32.9580   44.0400 N   0  0  0  0  0  0  0  0  0  0  0  0
   46.5450   32.4800   44.6280 C   0  0  0  0  0  0  0  0  0  0  0  0
   45.3860   33.1180   44.4980 N   0  0  0  0  0  0  0  0  0  0  0  0
   44.3800   34.7570   43.6640 H   0  0  0  0  0  0  0  0  0  0  0  0
   46.3370   35.6390   42.5830 H   0  0  0  0  0  0  0  0  0  0  0  0
   48.9180   34.4950   42.6630 C   0  0  0  0  0  0  0  0  0  0  0  0
   49.6630   34.7210   43.4400 H   0  0  0  0  0  0  0  0  0  0  0  0
   49.3280   33.6450   42.0550 H   0  0  0  0  0  0  0  0  0  0  0  0
   48.7330   35.6530   41.7250 C   0  0  0  0  0  0  0  0  0  0  0  0
   47.9970   36.3950   42.0240 H   0  0  0  0  0  0  0  0  0  0  0  0
   49.7230   36.2140   41.7840 H   0  0  0  0  0  0  0  0  0  0  0  0
   48.6040   35.2620   40.3230 C   0  0  0  0  0  3  0  0  0  0  0  0
   48.0390   34.3450   39.5500 C   0  0  0  0  0  3  0  0  0  0  0  0
   48.2330   34.1960   38.0510 C   0  0  0  0  0  0  0  0  0  0  0  0
   49.0660   34.8900   37.7340 H   0  0  0  0  0  0  0  0  0  0  0  0
   48.4880   33.1540   37.8910 H   0  0  0  0  0  0  0  0  0  0  0  0
   47.3190   34.5600   37.5430 H   0  0  0  0  0  0  0  0  0  0  0  0
  1  6  1  0  0  0  0
  2  1  2  0  0  0  0
  2  3  1  0  0  0  0
  3  4  2  0  0  0  0
  4  5  1  0  0  0  0
  4  8  1  0  0  0  0
  5  9  1  0  0  0  0
  6 10  1  0  0  0  0
  6  5  2  0  0  0  0
  7  3  1  0  0  0  0
 11 13  2  0  0  0  0
 11  1  1  0  0  0  0
 12 11  2  0  0  0  0
 15 11  1  0  0  0  0
 15 14  2  0  0  0  0
 16 15  1  0  0  0  0
 17 16  1  0  0  0  0
 18 16  2  0  0  0  0
 18 19  1  0  0  0  0
 19 20  2  0  0  0  0
 20 14  1  0  0  0  0
 21 19  1  0  0  0  0
 22 21  1  0  0  0  0
 23 22  1  0  0  0  0
 24 22  1  0  0  0  0
 24 18  1  0  0  0  0
 25  2  1  0  0  0  0
 26 31  1  0  0  0  0
 27 28  1  0  0  0  0
 27 26  2  0  0  0  0
 28 29  2  0  0  0  0
 29 30  1  0  0  0  0
 30 25  1  0  0  0  0
 31 30  2  0  0  0  0
 32 26  1  0  0  0  0
 33 27  1  0  0  0  0
 34 28  1  0  0  0  0
 34 35  1  0  0  0  0
 36 34  1  0  0  0  0
 37 39  1  0  0  0  0
 37 38  1  0  0  0  0
 37 34  1  0  0  0  0
 40 37  1  0  0  0  0
 41 40  2  0  0  0  0
 42 41  1  0  0  0  0
 43 42  1  0  0  0  0
 44 42  1  0  0  0  0
 45 42  1  0  0  0  0
M  END
>  <minimizedAffinity>
-5.55990791

>  <minimizedRMSD>
1.85533392

$$$$
