
 OpenBabel03242517543D

 45 48  0  0  0  0  0  0  0  0999 V2000
   45.4620   30.1530   47.2320 C   0  0  0  0  0  0  0  0  0  0  0  0
   46.0770   31.2170   46.6640 C   0  0  0  0  0  0  0  0  0  0  0  0
   46.2950   32.3380   47.4410 C   0  0  0  0  0  0  0  0  0  0  0  0
   45.9180   32.4200   48.7590 C   0  0  0  0  0  0  0  0  0  0  0  0
   45.2940   31.3310   49.3260 C   0  0  0  0  0  0  0  0  0  0  0  0
   45.0700   30.2000   48.5550 C   0  0  0  0  0  0  0  0  0  0  0  0
   46.7800   33.2290   47.0630 H   0  0  0  0  0  0  0  0  0  0  0  0
   46.0850   33.2910   49.3710 H   0  0  0  0  0  0  0  0  0  0  0  0
   44.9570   31.2950   50.3600 H   0  0  0  0  0  0  0  0  0  0  0  0
   44.5840   29.3140   48.9470 H   0  0  0  0  0  0  0  0  0  0  0  0
   45.1160   28.8120   46.1710 S   0  0  0  0  0  0  0  0  0  0  0  0
   44.3380   29.1710   44.9710 O   0  0  0  0  0  0  0  0  0  0  0  0
   44.1790   27.8880   46.9860 O   0  0  0  0  0  0  0  0  0  0  0  0
   46.5800   26.5140   46.5130 C   0  0  0  0  0  3  0  0  0  0  0  0
   46.4990   27.7740   45.9140 C   0  0  0  0  0  0  0  0  0  0  0  0
   47.5920   28.0770   45.1360 C   0  0  0  0  0  0  0  0  0  0  0  0
   47.5790   29.0590   44.6400 H   0  0  0  0  0  0  0  0  0  0  0  0
   48.6570   27.2150   44.9690 C   0  0  0  0  0  0  0  0  0  0  0  0
   48.6710   25.9840   45.5920 C   0  0  0  0  0  0  0  0  0  0  0  0
   47.6110   25.6070   46.3900 C   0  0  0  0  0  3  0  0  0  0  0  0
   49.8510   25.3380   45.2490 O   0  0  0  0  0  0  0  0  0  0  0  0
   50.7250   26.2550   44.6350 C   0  0  0  0  0  3  0  0  0  0  0  0
   51.3130   25.8550   43.8070 H   0  0  0  0  0  0  0  0  0  0  0  0
   49.8440   27.3090   44.2430 O   0  0  0  0  0  0  0  0  0  0  0  0
   46.5370   31.3330   45.3540 O   0  0  0  0  0  0  0  0  0  0  0  0
   45.3180   34.2400   43.7600 C   0  0  0  0  0  0  0  0  0  0  0  0
   46.4750   34.7540   43.1430 C   0  0  0  0  0  0  0  0  0  0  0  0
   47.6640   34.0890   43.2830 C   0  0  0  0  0  0  0  0  0  0  0  0
   47.6290   32.9700   44.0210 N   0  0  0  0  0  0  0  0  0  0  0  0
   46.5470   32.4860   44.6010 C   0  0  0  0  0  0  0  0  0  0  0  0
   45.3870   33.1230   44.4710 N   0  0  0  0  0  0  0  0  0  0  0  0
   44.3830   34.7670   43.6470 H   0  0  0  0  0  0  0  0  0  0  0  0
   46.3420   35.6610   42.5810 H   0  0  0  0  0  0  0  0  0  0  0  0
   48.9250   34.5200   42.6630 C   0  0  0  0  0  0  0  0  0  0  0  0
   49.6610   34.7570   43.4450 H   0  0  0  0  0  0  0  0  0  0  0  0
   49.3470   33.6710   42.0630 H   0  0  0  0  0  0  0  0  0  0  0  0
   48.7390   35.6710   41.7160 C   0  0  0  0  0  0  0  0  0  0  0  0
   48.0030   36.4150   42.0110 H   0  0  0  0  0  0  0  0  0  0  0  0
   49.7280   36.2330   41.7700 H   0  0  0  0  0  0  0  0  0  0  0  0
   48.6080   35.2710   40.3180 C   0  0  0  0  0  3  0  0  0  0  0  0
   48.0400   34.3500   39.5510 C   0  0  0  0  0  3  0  0  0  0  0  0
   48.2340   34.1900   38.0540 C   0  0  0  0  0  0  0  0  0  0  0  0
   49.0690   34.8770   37.7310 H   0  0  0  0  0  0  0  0  0  0  0  0
   48.4850   33.1450   37.9020 H   0  0  0  0  0  0  0  0  0  0  0  0
   47.3220   34.5540   37.5420 H   0  0  0  0  0  0  0  0  0  0  0  0
  1  6  1  0  0  0  0
  2  1  2  0  0  0  0
  2  3  1  0  0  0  0
  3  4  2  0  0  0  0
  4  5  1  0  0  0  0
  4  8  1  0  0  0  0
  5  9  1  0  0  0  0
  6 10  1  0  0  0  0
  6  5  2  0  0  0  0
  7  3  1  0  0  0  0
 11 13  2  0  0  0  0
 11  1  1  0  0  0  0
 12 11  2  0  0  0  0
 15 11  1  0  0  0  0
 15 14  2  0  0  0  0
 16 15  1  0  0  0  0
 17 16  1  0  0  0  0
 18 16  2  0  0  0  0
 18 19  1  0  0  0  0
 19 20  2  0  0  0  0
 20 14  1  0  0  0  0
 21 19  1  0  0  0  0
 22 21  1  0  0  0  0
 23 22  1  0  0  0  0
 24 22  1  0  0  0  0
 24 18  1  0  0  0  0
 25  2  1  0  0  0  0
 26 31  1  0  0  0  0
 27 28  1  0  0  0  0
 27 26  2  0  0  0  0
 28 29  2  0  0  0  0
 29 30  1  0  0  0  0
 30 25  1  0  0  0  0
 31 30  2  0  0  0  0
 32 26  1  0  0  0  0
 33 27  1  0  0  0  0
 34 28  1  0  0  0  0
 34 35  1  0  0  0  0
 36 34  1  0  0  0  0
 37 39  1  0  0  0  0
 37 38  1  0  0  0  0
 37 34  1  0  0  0  0
 40 37  1  0  0  0  0
 41 40  2  0  0  0  0
 42 41  1  0  0  0  0
 43 42  1  0  0  0  0
 44 42  1  0  0  0  0
 45 42  1  0  0  0  0
M  END
>  <minimizedAffinity>
-5.57370186

>  <minimizedRMSD>
2.07179928

$$$$
