
 OpenBabel03242517553D

 45 48  0  0  0  0  0  0  0  0999 V2000
   45.4390   30.1560   47.3530 C   0  0  0  0  0  0  0  0  0  0  0  0
   45.9910   31.2220   46.7270 C   0  0  0  0  0  0  0  0  0  0  0  0
   46.2030   32.3730   47.4610 C   0  0  0  0  0  0  0  0  0  0  0  0
   45.8820   32.4820   48.7920 C   0  0  0  0  0  0  0  0  0  0  0  0
   45.3230   31.3910   49.4180 C   0  0  0  0  0  0  0  0  0  0  0  0
   45.1050   30.2300   48.6910 C   0  0  0  0  0  0  0  0  0  0  0  0
   46.6390   33.2680   47.0360 H   0  0  0  0  0  0  0  0  0  0  0  0
   46.0450   33.3770   49.3710 H   0  0  0  0  0  0  0  0  0  0  0  0
   45.0330   31.3740   50.4670 H   0  0  0  0  0  0  0  0  0  0  0  0
   44.6680   29.3400   49.1300 H   0  0  0  0  0  0  0  0  0  0  0  0
   45.0950   28.7720   46.3490 S   0  0  0  0  0  0  0  0  0  0  0  0
   43.9770   28.9680   45.4070 O   0  0  0  0  0  0  0  0  0  0  0  0
   44.5980   27.6800   47.3270 O   0  0  0  0  0  0  0  0  0  0  0  0
   47.5830   27.6250   46.5280 C   0  0  0  0  0  3  0  0  0  0  0  0
   46.5350   28.0300   45.6950 C   0  0  0  0  0  0  0  0  0  0  0  0
   46.7730   27.7820   44.3640 C   0  0  0  0  0  0  0  0  0  0  0  0
   45.9790   28.0820   43.6620 H   0  0  0  0  0  0  0  0  0  0  0  0
   47.9340   27.1910   43.9040 C   0  0  0  0  0  0  0  0  0  0  0  0
   48.9280   26.8160   44.7840 C   0  0  0  0  0  0  0  0  0  0  0  0
   48.7650   27.0310   46.1370 C   0  0  0  0  0  3  0  0  0  0  0  0
   49.9650   26.2550   44.0510 O   0  0  0  0  0  0  0  0  0  0  0  0
   49.7680   26.5190   42.6820 C   0  0  0  0  0  3  0  0  0  0  0  0
   50.0430   25.7070   42.0080 H   0  0  0  0  0  0  0  0  0  0  0  0
   48.3790   26.8510   42.6270 O   0  0  0  0  0  0  0  0  0  0  0  0
   46.3880   31.3130   45.3950 O   0  0  0  0  0  0  0  0  0  0  0  0
   45.2790   34.2750   43.8210 C   0  0  0  0  0  0  0  0  0  0  0  0
   46.4520   34.7410   43.1960 C   0  0  0  0  0  0  0  0  0  0  0  0
   47.6130   34.0270   43.3240 C   0  0  0  0  0  0  0  0  0  0  0  0
   47.5370   32.9080   44.0590 N   0  0  0  0  0  0  0  0  0  0  0  0
   46.4410   32.4680   44.6460 C   0  0  0  0  0  0  0  0  0  0  0  0
   45.3080   33.1530   44.5280 N   0  0  0  0  0  0  0  0  0  0  0  0
   44.3670   34.8400   43.7170 H   0  0  0  0  0  0  0  0  0  0  0  0
   46.3530   35.6560   42.6380 H   0  0  0  0  0  0  0  0  0  0  0  0
   48.8860   34.4070   42.6950 C   0  0  0  0  0  0  0  0  0  0  0  0
   49.6430   34.5900   43.4710 H   0  0  0  0  0  0  0  0  0  0  0  0
   49.2570   33.5500   42.0720 H   0  0  0  0  0  0  0  0  0  0  0  0
   48.7460   35.5860   41.7750 C   0  0  0  0  0  0  0  0  0  0  0  0
   48.0370   36.3490   42.0850 H   0  0  0  0  0  0  0  0  0  0  0  0
   49.7550   36.1090   41.8450 H   0  0  0  0  0  0  0  0  0  0  0  0
   48.6060   35.2230   40.3670 C   0  0  0  0  0  3  0  0  0  0  0  0
   48.0290   34.3260   39.5800 C   0  0  0  0  0  3  0  0  0  0  0  0
   48.2150   34.2030   38.0770 C   0  0  0  0  0  0  0  0  0  0  0  0
   49.0530   34.8930   37.7690 H   0  0  0  0  0  0  0  0  0  0  0  0
   48.4580   33.1610   37.8970 H   0  0  0  0  0  0  0  0  0  0  0  0
   47.3030   34.5860   37.5800 H   0  0  0  0  0  0  0  0  0  0  0  0
  1  6  1  0  0  0  0
  2  1  2  0  0  0  0
  2  3  1  0  0  0  0
  3  4  2  0  0  0  0
  4  8  1  0  0  0  0
  4  5  1  0  0  0  0
  5  9  1  0  0  0  0
  6 10  1  0  0  0  0
  6  5  2  0  0  0  0
  7  3  1  0  0  0  0
 11 13  2  0  0  0  0
 11  1  1  0  0  0  0
 12 11  2  0  0  0  0
 15 11  1  0  0  0  0
 15 14  2  0  0  0  0
 16 15  1  0  0  0  0
 17 16  1  0  0  0  0
 18 16  2  0  0  0  0
 18 19  1  0  0  0  0
 19 20  2  0  0  0  0
 20 14  1  0  0  0  0
 21 19  1  0  0  0  0
 22 21  1  0  0  0  0
 23 22  1  0  0  0  0
 24 22  1  0  0  0  0
 24 18  1  0  0  0  0
 25  2  1  0  0  0  0
 26 31  1  0  0  0  0
 27 28  1  0  0  0  0
 27 26  2  0  0  0  0
 28 29  2  0  0  0  0
 29 30  1  0  0  0  0
 30 25  1  0  0  0  0
 31 30  2  0  0  0  0
 32 26  1  0  0  0  0
 33 27  1  0  0  0  0
 34 28  1  0  0  0  0
 34 35  1  0  0  0  0
 36 34  1  0  0  0  0
 37 39  1  0  0  0  0
 37 38  1  0  0  0  0
 37 34  1  0  0  0  0
 40 37  1  0  0  0  0
 41 40  2  0  0  0  0
 42 41  1  0  0  0  0
 43 42  1  0  0  0  0
 44 42  1  0  0  0  0
 45 42  1  0  0  0  0
M  END
>  <minimizedAffinity>
-5.54731178

>  <minimizedRMSD>
1.58911562

$$$$
