
 OpenBabel03242517543D

 45 48  0  0  0  0  0  0  0  0999 V2000
   45.4500   30.1680   47.2780 C   0  0  0  0  0  0  0  0  0  0  0  0
   46.0360   31.2340   46.6830 C   0  0  0  0  0  0  0  0  0  0  0  0
   46.2480   32.3700   47.4390 C   0  0  0  0  0  0  0  0  0  0  0  0
   45.8910   32.4660   48.7630 C   0  0  0  0  0  0  0  0  0  0  0  0
   45.2970   31.3760   49.3570 C   0  0  0  0  0  0  0  0  0  0  0  0
   45.0800   30.2290   48.6070 C   0  0  0  0  0  0  0  0  0  0  0  0
   46.7100   33.2630   47.0390 H   0  0  0  0  0  0  0  0  0  0  0  0
   46.0530   33.3490   49.3580 H   0  0  0  0  0  0  0  0  0  0  0  0
   44.9780   31.3490   50.3970 H   0  0  0  0  0  0  0  0  0  0  0  0
   44.6170   29.3400   49.0200 H   0  0  0  0  0  0  0  0  0  0  0  0
   45.1110   28.8050   46.2440 S   0  0  0  0  0  0  0  0  0  0  0  0
   44.1160   29.0750   45.1900 O   0  0  0  0  0  0  0  0  0  0  0  0
   44.4340   27.7610   47.1660 O   0  0  0  0  0  0  0  0  0  0  0  0
   46.8070   27.6840   44.3980 C   0  0  0  0  0  3  0  0  0  0  0  0
   46.5530   27.9520   45.7470 C   0  0  0  0  0  0  0  0  0  0  0  0
   47.5350   27.4850   46.5870 C   0  0  0  0  0  0  0  0  0  0  0  0
   47.3860   27.6690   47.6630 H   0  0  0  0  0  0  0  0  0  0  0  0
   48.6560   26.8170   46.1370 C   0  0  0  0  0  0  0  0  0  0  0  0
   48.8420   26.5860   44.7880 C   0  0  0  0  0  0  0  0  0  0  0  0
   47.9020   27.0250   43.8800 C   0  0  0  0  0  3  0  0  0  0  0  0
   50.0400   25.9030   44.6280 O   0  0  0  0  0  0  0  0  0  0  0  0
   50.4910   25.4460   45.8810 C   0  0  0  0  0  3  0  0  0  0  0  0
   51.5700   25.4950   46.0330 H   0  0  0  0  0  0  0  0  0  0  0  0
   49.7560   26.2650   46.7920 O   0  0  0  0  0  0  0  0  0  0  0  0
   46.4730   31.3370   45.3640 O   0  0  0  0  0  0  0  0  0  0  0  0
   45.2950   34.2590   43.7670 C   0  0  0  0  0  0  0  0  0  0  0  0
   46.4600   34.7580   43.1530 C   0  0  0  0  0  0  0  0  0  0  0  0
   47.6410   34.0780   43.2960 C   0  0  0  0  0  0  0  0  0  0  0  0
   47.5900   32.9600   44.0350 N   0  0  0  0  0  0  0  0  0  0  0  0
   46.5000   32.4900   44.6110 C   0  0  0  0  0  0  0  0  0  0  0  0
   45.3490   33.1410   44.4780 N   0  0  0  0  0  0  0  0  0  0  0  0
   44.3680   34.7980   43.6500 H   0  0  0  0  0  0  0  0  0  0  0  0
   46.3410   35.6670   42.5900 H   0  0  0  0  0  0  0  0  0  0  0  0
   48.9090   34.4930   42.6790 C   0  0  0  0  0  0  0  0  0  0  0  0
   49.6470   34.7160   43.4640 H   0  0  0  0  0  0  0  0  0  0  0  0
   49.3200   33.6390   42.0780 H   0  0  0  0  0  0  0  0  0  0  0  0
   48.7410   35.6500   41.7370 C   0  0  0  0  0  0  0  0  0  0  0  0
   48.0150   36.4030   42.0330 H   0  0  0  0  0  0  0  0  0  0  0  0
   49.7390   36.1980   41.7950 H   0  0  0  0  0  0  0  0  0  0  0  0
   48.6080   35.2560   40.3370 C   0  0  0  0  0  3  0  0  0  0  0  0
   48.0340   34.3430   39.5660 C   0  0  0  0  0  3  0  0  0  0  0  0
   48.2280   34.1880   38.0680 C   0  0  0  0  0  0  0  0  0  0  0  0
   49.0680   34.8700   37.7490 H   0  0  0  0  0  0  0  0  0  0  0  0
   48.4710   33.1410   37.9110 H   0  0  0  0  0  0  0  0  0  0  0  0
   47.3190   34.5600   37.5570 H   0  0  0  0  0  0  0  0  0  0  0  0
  1  6  1  0  0  0  0
  2  1  2  0  0  0  0
  2  3  1  0  0  0  0
  3  4  2  0  0  0  0
  4  5  1  0  0  0  0
  4  8  1  0  0  0  0
  5  9  1  0  0  0  0
  6 10  1  0  0  0  0
  6  5  2  0  0  0  0
  7  3  1  0  0  0  0
 11 13  2  0  0  0  0
 11  1  1  0  0  0  0
 12 11  2  0  0  0  0
 14 15  1  0  0  0  0
 15 11  1  0  0  0  0
 15 16  2  0  0  0  0
 16 17  1  0  0  0  0
 18 16  1  0  0  0  0
 18 24  1  0  0  0  0
 19 18  2  0  0  0  0
 20 14  2  0  0  0  0
 20 19  1  0  0  0  0
 21 19  1  0  0  0  0
 21 22  1  0  0  0  0
 22 23  1  0  0  0  0
 22 24  1  0  0  0  0
 25  2  1  0  0  0  0
 26 31  1  0  0  0  0
 27 28  1  0  0  0  0
 27 26  2  0  0  0  0
 28 29  2  0  0  0  0
 29 30  1  0  0  0  0
 30 25  1  0  0  0  0
 31 30  2  0  0  0  0
 32 26  1  0  0  0  0
 33 27  1  0  0  0  0
 34 28  1  0  0  0  0
 34 35  1  0  0  0  0
 36 34  1  0  0  0  0
 37 39  1  0  0  0  0
 37 38  1  0  0  0  0
 37 34  1  0  0  0  0
 40 37  1  0  0  0  0
 41 40  2  0  0  0  0
 42 41  1  0  0  0  0
 43 42  1  0  0  0  0
 44 42  1  0  0  0  0
 45 42  1  0  0  0  0
M  END
>  <minimizedAffinity>
-5.57040215

>  <minimizedRMSD>
1.85864496

$$$$
